
 OpenBabel03252501173D

 36 39  0  0  1  0  0  0  0  0999 V2000
   37.8500   31.6840   39.5160 C   0  0  1  0  0  0  0  0  0  0  0  0
   37.1720   32.9970   39.5250 C   0  0  0  0  0  0  0  0  0  0  0  0
   38.4850   32.7020   40.3540 C   0  0  2  0  0  0  0  0  0  0  0  0
   38.4110   31.3610   38.6140 H   0  0  0  0  0  0  0  0  0  0  0  0
   37.2780   33.7050   38.6910 H   0  0  0  0  0  0  0  0  0  0  0  0
   36.3030   33.2070   40.1590 H   0  0  0  0  0  0  0  0  0  0  0  0
   38.3500   32.7480   41.4330 H   0  0  0  0  0  0  0  0  0  0  0  0
   36.8000   28.9000   41.8080 C   0  0  0  0  0  0  0  0  0  0  0  0
   37.5750   29.9250   41.2960 C   0  0  0  0  0  0  0  0  0  0  0  0
   37.0930   30.5710   40.1630 C   0  0  0  0  0  0  0  0  0  0  0  0
   35.9180   30.1810   39.6180 N   0  0  0  0  0  0  0  0  0  0  0  0
   35.1900   29.1680   40.1540 C   0  0  0  0  0  0  0  0  0  0  0  0
   35.6420   28.5300   41.2550 N   0  0  0  0  0  0  0  0  0  0  0  0
   38.5180   30.2470   41.7230 H   0  0  0  0  0  0  0  0  0  0  0  0
   34.2550   28.8500   39.7290 H   0  0  0  0  0  0  0  0  0  0  0  0
   37.2920   28.1940   43.0370 C   0  0  0  0  0  0  0  0  0  0  0  0
   37.8790   29.1380   43.8490 F   0  0  0  0  0  0  0  0  0  0  0  0
   38.2710   27.3090   42.6360 F   0  0  0  0  0  0  0  0  0  0  0  0
   36.2660   27.5840   43.6970 F   0  0  0  0  0  0  0  0  0  0  0  0
   39.6760   33.3840   39.7590 C   0  0  0  0  0  0  0  0  0  0  0  0
   40.2070   34.6190   40.1220 C   0  0  0  0  0  0  0  0  0  0  0  0
   41.2830   34.7230   39.2480 C   0  0  0  0  0  0  0  0  0  0  0  0
   41.3680   33.6090   38.4230 C   0  0  0  0  0  0  0  0  0  0  0  0
   40.3700   32.8620   38.7980 O   0  0  0  0  0  0  0  0  0  0  0  0
   39.8500   35.2890   40.8870 H   0  0  0  0  0  0  0  0  0  0  0  0
   41.9610   35.5890   39.2340 H   0  0  0  0  0  0  0  0  0  0  0  0
   42.3810   33.3540   37.3640 C   0  0  0  0  0  3  0  0  0  0  0  0
   43.7570   33.8240   37.7780 C   0  0  0  0  0  3  0  0  0  0  0  0
   43.5720   34.7400   38.4080 H   0  0  0  0  0  0  0  0  0  0  0  0
   44.4690   32.8480   38.6860 C   0  0  0  0  0  3  0  0  0  0  0  0
   45.3910   32.4920   38.1830 H   0  0  0  0  0  0  0  0  0  0  0  0
   43.6120   31.8130   39.0330 O   0  0  0  0  0  0  0  0  0  0  0  0
   43.3250   31.0780   37.8730 C   0  0  0  0  0  3  0  0  0  0  0  0
   44.2920   30.8370   37.3820 H   0  0  0  0  0  0  0  0  0  0  0  0
   42.4340   31.9020   36.9620 C   0  0  0  0  0  3  0  0  0  0  0  0
   42.8730   31.8510   35.9380 H   0  0  0  0  0  0  0  0  0  0  0  0
  1  4  1  6  0  0  0
  1  2  1  0  0  0  0
  1 10  1  0  0  0  0
  1  3  1  0  0  0  0
  2  6  1  0  0  0  0
  2  3  1  0  0  0  0
  3  7  1  1  0  0  0
  5  2  1  0  0  0  0
  8 16  1  0  0  0  0
  9 14  1  0  0  0  0
  9  8  1  0  0  0  0
 10  9  2  0  0  0  0
 11 12  2  0  0  0  0
 11 10  1  0  0  0  0
 12 13  1  0  0  0  0
 13  8  2  0  0  0  0
 15 12  1  0  0  0  0
 16 19  1  0  0  0  0
 16 17  1  0  0  0  0
 18 16  1  0  0  0  0
 20 21  2  0  0  0  0
 20  3  1  0  0  0  0
 21 25  1  0  0  0  0
 22 21  1  0  0  0  0
 23 24  1  0  0  0  0
 23 22  2  0  0  0  0
 24 20  1  0  0  0  0
 26 22  1  0  0  0  0
 27 28  1  0  0  0  0
 27 23  1  0  0  0  0
 28 29  1  0  0  0  0
 28 30  1  0  0  0  0
 30 32  1  0  0  0  0
 31 30  1  0  0  0  0
 33 32  1  0  0  0  0
 34 33  1  0  0  0  0
 35 27  1  0  0  0  0
 35 33  1  0  0  0  0
 36 35  1  0  0  0  0
M  END
>  <minimizedAffinity>
-5.97341442

$$$$

 OpenBabel03252501173D

 36 39  0  0  1  0  0  0  0  0999 V2000
   38.1710   31.5540   40.1390 C   0  0  1  0  0  0  0  0  0  0  0  0
   36.8740   31.7220   39.4520 C   0  0  0  0  0  0  0  0  0  0  0  0
   37.8520   30.5160   39.1570 C   0  0  2  0  0  0  0  0  0  0  0  0
   38.1930   31.2420   41.2040 H   0  0  0  0  0  0  0  0  0  0  0  0
   35.9250   31.4630   39.9430 H   0  0  0  0  0  0  0  0  0  0  0  0
   36.7440   32.3880   38.5920 H   0  0  0  0  0  0  0  0  0  0  0  0
   38.2610   30.5100   38.1490 H   0  0  0  0  0  0  0  0  0  0  0  0
   41.0960   33.3610   38.6280 C   0  0  0  0  0  0  0  0  0  0  0  0
   40.1810   32.3480   38.8460 C   0  0  0  0  0  0  0  0  0  0  0  0
   39.2050   32.5800   39.8100 C   0  0  0  0  0  0  0  0  0  0  0  0
   39.1900   33.7560   40.4780 N   0  0  0  0  0  0  0  0  0  0  0  0
   40.1110   34.7230   40.2310 C   0  0  0  0  0  0  0  0  0  0  0  0
   41.0650   34.5150   39.2990 N   0  0  0  0  0  0  0  0  0  0  0  0
   40.1820   31.4010   38.3180 H   0  0  0  0  0  0  0  0  0  0  0  0
   40.1080   35.6610   40.7570 H   0  0  0  0  0  0  0  0  0  0  0  0
   42.1530   33.1400   37.5860 C   0  0  0  0  0  0  0  0  0  0  0  0
   41.6700   32.2060   36.6980 F   0  0  0  0  0  0  0  0  0  0  0  0
   43.2470   32.5940   38.2240 F   0  0  0  0  0  0  0  0  0  0  0  0
   42.4480   34.2990   36.9310 F   0  0  0  0  0  0  0  0  0  0  0  0
   37.3260   29.2320   39.7160 C   0  0  0  0  0  0  0  0  0  0  0  0
   36.6880   28.2090   39.0180 C   0  0  0  0  0  0  0  0  0  0  0  0
   36.4400   27.2960   40.0360 C   0  0  0  0  0  0  0  0  0  0  0  0
   36.9080   27.7660   41.2570 C   0  0  0  0  0  0  0  0  0  0  0  0
   37.4220   28.9280   40.9710 O   0  0  0  0  0  0  0  0  0  0  0  0
   36.4650   28.1720   37.9660 H   0  0  0  0  0  0  0  0  0  0  0  0
   35.9350   26.3340   39.8680 H   0  0  0  0  0  0  0  0  0  0  0  0
   36.8280   27.0770   42.5720 C   0  0  0  0  0  3  0  0  0  0  0  0
   37.1140   25.5970   42.4500 C   0  0  0  0  0  3  0  0  0  0  0  0
   36.6960   25.3050   41.4440 H   0  0  0  0  0  0  0  0  0  0  0  0
   38.5900   25.2810   42.3800 C   0  0  0  0  0  3  0  0  0  0  0  0
   38.8690   24.6580   43.2540 H   0  0  0  0  0  0  0  0  0  0  0  0
   39.3220   26.4580   42.3020 O   0  0  0  0  0  0  0  0  0  0  0  0
   39.1620   27.1510   43.5110 C   0  0  0  0  0  3  0  0  0  0  0  0
   39.3720   26.4370   44.3360 H   0  0  0  0  0  0  0  0  0  0  0  0
   37.7470   27.6930   43.5970 C   0  0  0  0  0  3  0  0  0  0  0  0
   37.3540   27.4270   44.6070 H   0  0  0  0  0  0  0  0  0  0  0  0
  1  4  1  1  0  0  0
  2  5  1  0  0  0  0
  2  1  1  0  0  0  0
  3  7  1  6  0  0  0
  3  2  1  0  0  0  0
  3 20  1  0  0  0  0
  3  1  1  0  0  0  0
  6  2  1  0  0  0  0
  8  9  2  0  0  0  0
  8 13  1  0  0  0  0
  9 10  1  0  0  0  0
 10  1  1  0  0  0  0
 10 11  2  0  0  0  0
 12 11  1  0  0  0  0
 12 15  1  0  0  0  0
 13 12  2  0  0  0  0
 14  9  1  0  0  0  0
 16 18  1  0  0  0  0
 16  8  1  0  0  0  0
 17 16  1  0  0  0  0
 19 16  1  0  0  0  0
 20 24  1  0  0  0  0
 21 20  2  0  0  0  0
 21 22  1  0  0  0  0
 22 23  2  0  0  0  0
 23 27  1  0  0  0  0
 24 23  1  0  0  0  0
 25 21  1  0  0  0  0
 26 22  1  0  0  0  0
 27 35  1  0  0  0  0
 28 27  1  0  0  0  0
 29 28  1  0  0  0  0
 30 28  1  0  0  0  0
 30 31  1  0  0  0  0
 32 30  1  0  0  0  0
 32 33  1  0  0  0  0
 33 35  1  0  0  0  0
 33 34  1  0  0  0  0
 35 36  1  0  0  0  0
M  END
>  <minimizedAffinity>
-5.8306241

$$$$

 OpenBabel03252501173D

 36 39  0  0  1  0  0  0  0  0999 V2000
   39.4940   30.4160   41.3250 C   0  0  1  0  0  0  0  0  0  0  0  0
   40.2320   30.0590   42.5550 C   0  0  0  0  0  0  0  0  0  0  0  0
   38.6610   30.2260   42.5130 C   0  0  2  0  0  0  0  0  0  0  0  0
   39.3830   29.6660   40.5140 H   0  0  0  0  0  0  0  0  0  0  0  0
   40.6030   29.0390   42.7280 H   0  0  0  0  0  0  0  0  0  0  0  0
   40.7260   30.8080   43.1840 H   0  0  0  0  0  0  0  0  0  0  0  0
   38.2850   31.0540   43.1100 H   0  0  0  0  0  0  0  0  0  0  0  0
   41.0230   33.4350   39.6950 C   0  0  0  0  0  0  0  0  0  0  0  0
   40.8930   32.1230   40.1140 C   0  0  0  0  0  0  0  0  0  0  0  0
   39.7370   31.7970   40.8140 C   0  0  0  0  0  0  0  0  0  0  0  0
   38.8090   32.7510   41.0540 N   0  0  0  0  0  0  0  0  0  0  0  0
   38.9780   34.0290   40.6240 C   0  0  0  0  0  0  0  0  0  0  0  0
   40.0940   34.3620   39.9420 N   0  0  0  0  0  0  0  0  0  0  0  0
   41.6300   31.3490   39.9290 H   0  0  0  0  0  0  0  0  0  0  0  0
   38.2460   34.7940   40.8090 H   0  0  0  0  0  0  0  0  0  0  0  0
   42.2570   33.8090   38.9280 C   0  0  0  0  0  0  0  0  0  0  0  0
   41.8860   34.7240   37.9700 F   0  0  0  0  0  0  0  0  0  0  0  0
   42.6970   32.6720   38.2840 F   0  0  0  0  0  0  0  0  0  0  0  0
   43.2010   34.3490   39.7500 F   0  0  0  0  0  0  0  0  0  0  0  0
   37.9640   28.9060   42.6160 C   0  0  0  0  0  0  0  0  0  0  0  0
   37.3310   28.3730   43.7360 C   0  0  0  0  0  0  0  0  0  0  0  0
   36.8750   27.1570   43.2410 C   0  0  0  0  0  0  0  0  0  0  0  0
   37.2270   26.9950   41.9060 C   0  0  0  0  0  0  0  0  0  0  0  0
   37.8740   28.0870   41.6160 O   0  0  0  0  0  0  0  0  0  0  0  0
   37.2400   28.8180   44.7120 H   0  0  0  0  0  0  0  0  0  0  0  0
   36.3120   26.4350   43.8500 H   0  0  0  0  0  0  0  0  0  0  0  0
   36.9180   25.8310   41.0340 C   0  0  0  0  0  3  0  0  0  0  0  0
   37.8680   25.7400   39.8610 C   0  0  0  0  0  3  0  0  0  0  0  0
   38.1030   26.8100   39.5970 H   0  0  0  0  0  0  0  0  0  0  0  0
   39.1960   25.1130   40.2200 C   0  0  0  0  0  3  0  0  0  0  0  0
   39.3250   24.1800   39.6350 H   0  0  0  0  0  0  0  0  0  0  0  0
   39.2650   24.9030   41.5900 O   0  0  0  0  0  0  0  0  0  0  0  0
   38.3090   23.9350   41.9310 C   0  0  0  0  0  3  0  0  0  0  0  0
   38.4460   23.0720   41.2450 H   0  0  0  0  0  0  0  0  0  0  0  0
   36.9190   24.5300   41.7960 C   0  0  0  0  0  3  0  0  0  0  0  0
   36.3030   23.8000   41.2210 H   0  0  0  0  0  0  0  0  0  0  0  0
  1  4  1  6  0  0  0
  1  3  1  0  0  0  0
  1  2  1  0  0  0  0
  2  5  1  0  0  0  0
  2  6  1  0  0  0  0
  3  2  1  0  0  0  0
  3 20  1  0  0  0  0
  3  7  1  1  0  0  0
  8 13  2  0  0  0  0
  8  9  1  0  0  0  0
  9 10  2  0  0  0  0
 10 11  1  0  0  0  0
 10  1  1  0  0  0  0
 12 15  1  0  0  0  0
 12 11  2  0  0  0  0
 13 12  1  0  0  0  0
 14  9  1  0  0  0  0
 16  8  1  0  0  0  0
 16 19  1  0  0  0  0
 17 16  1  0  0  0  0
 18 16  1  0  0  0  0
 20 21  2  0  0  0  0
 21 25  1  0  0  0  0
 22 21  1  0  0  0  0
 22 26  1  0  0  0  0
 23 22  2  0  0  0  0
 24 23  1  0  0  0  0
 24 20  1  0  0  0  0
 27 35  1  0  0  0  0
 27 23  1  0  0  0  0
 28 30  1  0  0  0  0
 28 27  1  0  0  0  0
 29 28  1  0  0  0  0
 30 32  1  0  0  0  0
 31 30  1  0  0  0  0
 32 33  1  0  0  0  0
 34 33  1  0  0  0  0
 35 33  1  0  0  0  0
 36 35  1  0  0  0  0
M  END
>  <minimizedAffinity>
-5.72520494

$$$$

 OpenBabel03252501173D

 36 39  0  0  1  0  0  0  0  0999 V2000
   35.5540   29.9340   39.0810 C   0  0  1  0  0  0  0  0  0  0  0  0
   36.3130   30.1510   37.8320 C   0  0  0  0  0  0  0  0  0  0  0  0
   35.4080   28.8790   38.0770 C   0  0  2  0  0  0  0  0  0  0  0  0
   34.6540   30.5480   39.2920 H   0  0  0  0  0  0  0  0  0  0  0  0
   35.9620   30.8500   37.0600 H   0  0  0  0  0  0  0  0  0  0  0  0
   37.3770   29.9080   37.7390 H   0  0  0  0  0  0  0  0  0  0  0  0
   35.9590   27.9420   38.1190 H   0  0  0  0  0  0  0  0  0  0  0  0
   37.0060   28.4180   42.1960 C   0  0  0  0  0  0  0  0  0  0  0  0
   36.1890   28.5520   41.0880 C   0  0  0  0  0  0  0  0  0  0  0  0
   36.3840   29.6780   40.2950 C   0  0  0  0  0  0  0  0  0  0  0  0
   37.3390   30.5750   40.6310 N   0  0  0  0  0  0  0  0  0  0  0  0
   38.1190   30.4030   41.7300 C   0  0  0  0  0  0  0  0  0  0  0  0
   37.9430   29.3160   42.5100 N   0  0  0  0  0  0  0  0  0  0  0  0
   35.4200   27.8400   40.8080 H   0  0  0  0  0  0  0  0  0  0  0  0
   38.8810   31.1100   42.0050 H   0  0  0  0  0  0  0  0  0  0  0  0
   36.8230   27.2060   43.0610 C   0  0  0  0  0  0  0  0  0  0  0  0
   37.9810   27.0340   43.7830 F   0  0  0  0  0  0  0  0  0  0  0  0
   36.6800   26.1220   42.2200 F   0  0  0  0  0  0  0  0  0  0  0  0
   35.7640   27.3620   43.9060 F   0  0  0  0  0  0  0  0  0  0  0  0
   34.1560   28.9280   37.2590 C   0  0  0  0  0  0  0  0  0  0  0  0
   34.0460   28.7840   35.8780 C   0  0  0  0  0  0  0  0  0  0  0  0
   32.6750   28.9130   35.6970 C   0  0  0  0  0  0  0  0  0  0  0  0
   32.0260   29.1230   36.9080 C   0  0  0  0  0  0  0  0  0  0  0  0
   32.9870   29.1170   37.7850 O   0  0  0  0  0  0  0  0  0  0  0  0
   34.8400   28.6160   35.1700 H   0  0  0  0  0  0  0  0  0  0  0  0
   32.1920   28.8540   34.7100 H   0  0  0  0  0  0  0  0  0  0  0  0
   30.5660   29.3060   37.1210 C   0  0  0  0  0  3  0  0  0  0  0  0
   30.2780   30.3500   38.1770 C   0  0  0  0  0  3  0  0  0  0  0  0
   31.1190   30.2460   38.9210 H   0  0  0  0  0  0  0  0  0  0  0  0
   30.3740   31.7650   37.6540 C   0  0  0  0  0  3  0  0  0  0  0  0
   29.3840   32.2530   37.7480 H   0  0  0  0  0  0  0  0  0  0  0  0
   30.8480   31.7560   36.3490 O   0  0  0  0  0  0  0  0  0  0  0  0
   29.8830   31.1400   35.5400 C   0  0  0  0  0  3  0  0  0  0  0  0
   28.9060   31.6240   35.7570 H   0  0  0  0  0  0  0  0  0  0  0  0
   29.8410   29.6550   35.8460 C   0  0  0  0  0  3  0  0  0  0  0  0
   28.7690   29.3760   35.9780 H   0  0  0  0  0  0  0  0  0  0  0  0
  1  4  1  1  0  0  0
  1 10  1  0  0  0  0
  2  3  1  0  0  0  0
  2  1  1  0  0  0  0
  3  7  1  1  0  0  0
  3  1  1  0  0  0  0
  5  2  1  0  0  0  0
  6  2  1  0  0  0  0
  8 13  1  0  0  0  0
  8 16  1  0  0  0  0
  9  8  2  0  0  0  0
 10 11  2  0  0  0  0
 10  9  1  0  0  0  0
 11 12  1  0  0  0  0
 12 15  1  0  0  0  0
 12 13  2  0  0  0  0
 14  9  1  0  0  0  0
 16 17  1  0  0  0  0
 16 19  1  0  0  0  0
 18 16  1  0  0  0  0
 20 24  1  0  0  0  0
 20  3  1  0  0  0  0
 21 20  2  0  0  0  0
 22 21  1  0  0  0  0
 22 23  2  0  0  0  0
 23 27  1  0  0  0  0
 23 24  1  0  0  0  0
 25 21  1  0  0  0  0
 26 22  1  0  0  0  0
 27 28  1  0  0  0  0
 28 29  1  0  0  0  0
 30 31  1  0  0  0  0
 30 28  1  0  0  0  0
 32 30  1  0  0  0  0
 33 34  1  0  0  0  0
 33 35  1  0  0  0  0
 33 32  1  0  0  0  0
 35 36  1  0  0  0  0
 35 27  1  0  0  0  0
M  END
>  <minimizedAffinity>
-5.70026684

$$$$

 OpenBabel03252501173D

 36 39  0  0  1  0  0  0  0  0999 V2000
   34.9930   28.4480   38.5200 C   0  0  1  0  0  0  0  0  0  0  0  0
   36.0580   29.3740   38.0820 C   0  0  0  0  0  0  0  0  0  0  0  0
   35.2110   29.5990   39.3970 C   0  0  2  0  0  0  0  0  0  0  0  0
   35.2640   27.4530   38.9280 H   0  0  0  0  0  0  0  0  0  0  0  0
   37.1220   29.1380   38.2290 H   0  0  0  0  0  0  0  0  0  0  0  0
   35.8920   30.1500   37.3260 H   0  0  0  0  0  0  0  0  0  0  0  0
   34.5830   30.4870   39.3750 H   0  0  0  0  0  0  0  0  0  0  0  0
   31.7410   29.2880   36.8380 C   0  0  0  0  0  0  0  0  0  0  0  0
   32.8310   29.4270   37.6790 C   0  0  0  0  0  0  0  0  0  0  0  0
   33.7820   28.4120   37.6480 C   0  0  0  0  0  0  0  0  0  0  0  0
   33.6080   27.3570   36.8190 N   0  0  0  0  0  0  0  0  0  0  0  0
   32.5210   27.2620   36.0100 C   0  0  0  0  0  0  0  0  0  0  0  0
   31.5880   28.2380   36.0280 N   0  0  0  0  0  0  0  0  0  0  0  0
   32.9820   30.2670   38.3470 H   0  0  0  0  0  0  0  0  0  0  0  0
   32.3740   26.4280   35.3490 H   0  0  0  0  0  0  0  0  0  0  0  0
   30.7070   30.3750   36.8450 C   0  0  0  0  0  0  0  0  0  0  0  0
   30.5490   30.7880   38.1480 F   0  0  0  0  0  0  0  0  0  0  0  0
   29.5190   29.8090   36.4310 F   0  0  0  0  0  0  0  0  0  0  0  0
   31.0920   31.4250   36.0650 F   0  0  0  0  0  0  0  0  0  0  0  0
   36.0230   29.3360   40.6260 C   0  0  0  0  0  0  0  0  0  0  0  0
   36.7340   30.2660   41.3800 C   0  0  0  0  0  0  0  0  0  0  0  0
   37.2690   29.4590   42.3770 C   0  0  0  0  0  0  0  0  0  0  0  0
   36.8890   28.1340   42.2080 C   0  0  0  0  0  0  0  0  0  0  0  0
   36.1460   28.1530   41.1390 O   0  0  0  0  0  0  0  0  0  0  0  0
   36.8220   31.3250   41.2050 H   0  0  0  0  0  0  0  0  0  0  0  0
   37.9090   29.8470   43.1830 H   0  0  0  0  0  0  0  0  0  0  0  0
   37.2590   26.9790   43.0690 C   0  0  0  0  0  3  0  0  0  0  0  0
   37.1540   25.6670   42.3250 C   0  0  0  0  0  3  0  0  0  0  0  0
   36.2860   25.8040   41.6190 H   0  0  0  0  0  0  0  0  0  0  0  0
   38.3490   25.3860   41.4440 C   0  0  0  0  0  3  0  0  0  0  0  0
   38.8520   24.4640   41.7990 H   0  0  0  0  0  0  0  0  0  0  0  0
   39.1940   26.4880   41.4290 O   0  0  0  0  0  0  0  0  0  0  0  0
   39.7280   26.6450   42.7160 C   0  0  0  0  0  3  0  0  0  0  0  0
   40.1300   25.6590   43.0350 H   0  0  0  0  0  0  0  0  0  0  0  0
   38.6390   27.1250   43.6580 C   0  0  0  0  0  3  0  0  0  0  0  0
   38.6870   26.4850   44.5700 H   0  0  0  0  0  0  0  0  0  0  0  0
  1  4  1  1  0  0  0
  1  3  1  0  0  0  0
  2  5  1  0  0  0  0
  2  1  1  0  0  0  0
  2  3  1  0  0  0  0
  3  7  1  1  0  0  0
  3 20  1  0  0  0  0
  6  2  1  0  0  0  0
  8 16  1  0  0  0  0
  8  9  1  0  0  0  0
  9 14  1  0  0  0  0
 10  9  2  0  0  0  0
 10  1  1  0  0  0  0
 11 10  1  0  0  0  0
 12 13  1  0  0  0  0
 12 11  2  0  0  0  0
 13  8  2  0  0  0  0
 15 12  1  0  0  0  0
 16 17  1  0  0  0  0
 18 16  1  0  0  0  0
 19 16  1  0  0  0  0
 20 24  1  0  0  0  0
 20 21  2  0  0  0  0
 21 22  1  0  0  0  0
 22 26  1  0  0  0  0
 23 22  2  0  0  0  0
 23 27  1  0  0  0  0
 24 23  1  0  0  0  0
 25 21  1  0  0  0  0
 27 35  1  0  0  0  0
 28 27  1  0  0  0  0
 29 28  1  0  0  0  0
 30 31  1  0  0  0  0
 30 28  1  0  0  0  0
 32 30  1  0  0  0  0
 32 33  1  0  0  0  0
 33 34  1  0  0  0  0
 33 35  1  0  0  0  0
 35 36  1  0  0  0  0
M  END
>  <minimizedAffinity>
-5.62917376

$$$$

 OpenBabel03252501173D

 36 39  0  0  1  0  0  0  0  0999 V2000
   34.5410   28.5230   37.6680 C   0  0  1  0  0  0  0  0  0  0  0  0
   35.6860   29.4580   37.6650 C   0  0  0  0  0  0  0  0  0  0  0  0
   34.9530   29.0010   38.9890 C   0  0  2  0  0  0  0  0  0  0  0  0
   34.7090   27.4470   37.4540 H   0  0  0  0  0  0  0  0  0  0  0  0
   36.7190   29.1020   37.5390 H   0  0  0  0  0  0  0  0  0  0  0  0
   35.5730   30.5280   37.4610 H   0  0  0  0  0  0  0  0  0  0  0  0
   34.4410   29.8040   39.5140 H   0  0  0  0  0  0  0  0  0  0  0  0
   31.1170   29.9840   37.1740 C   0  0  0  0  0  0  0  0  0  0  0  0
   32.2390   29.5280   37.8410 C   0  0  0  0  0  0  0  0  0  0  0  0
   33.2850   29.0510   37.0580 C   0  0  0  0  0  0  0  0  0  0  0  0
   33.1670   29.0510   35.7110 N   0  0  0  0  0  0  0  0  0  0  0  0
   32.0440   29.5090   35.0980 C   0  0  0  0  0  0  0  0  0  0  0  0
   31.0190   29.9750   35.8420 N   0  0  0  0  0  0  0  0  0  0  0  0
   32.3470   29.5220   38.9200 H   0  0  0  0  0  0  0  0  0  0  0  0
   31.9400   29.5130   34.0280 H   0  0  0  0  0  0  0  0  0  0  0  0
   29.9780   30.5140   37.9960 C   0  0  0  0  0  0  0  0  0  0  0  0
   30.1370   31.8770   38.0930 F   0  0  0  0  0  0  0  0  0  0  0  0
   30.1060   29.9790   39.2610 F   0  0  0  0  0  0  0  0  0  0  0  0
   28.7780   30.2220   37.4180 F   0  0  0  0  0  0  0  0  0  0  0  0
   35.7970   28.0580   39.7880 C   0  0  0  0  0  0  0  0  0  0  0  0
   36.2830   26.8160   39.3870 C   0  0  0  0  0  0  0  0  0  0  0  0
   36.9880   26.4190   40.5170 C   0  0  0  0  0  0  0  0  0  0  0  0
   36.9120   27.3790   41.5180 C   0  0  0  0  0  0  0  0  0  0  0  0
   36.1820   28.3220   40.9960 O   0  0  0  0  0  0  0  0  0  0  0  0
   36.1320   26.3270   38.4390 H   0  0  0  0  0  0  0  0  0  0  0  0
   37.5250   25.4620   40.5820 H   0  0  0  0  0  0  0  0  0  0  0  0
   37.5340   27.3160   42.8680 C   0  0  0  0  0  3  0  0  0  0  0  0
   38.9170   26.7070   42.8210 C   0  0  0  0  0  3  0  0  0  0  0  0
   38.8640   25.9330   42.0030 H   0  0  0  0  0  0  0  0  0  0  0  0
   39.9820   27.6860   42.3810 C   0  0  0  0  0  3  0  0  0  0  0  0
   40.7140   27.8180   43.2030 H   0  0  0  0  0  0  0  0  0  0  0  0
   39.3930   28.8800   41.9880 O   0  0  0  0  0  0  0  0  0  0  0  0
   38.8100   29.4700   43.1180 C   0  0  0  0  0  3  0  0  0  0  0  0
   39.5770   29.4850   43.9220 H   0  0  0  0  0  0  0  0  0  0  0  0
   37.5910   28.6670   43.5340 C   0  0  0  0  0  3  0  0  0  0  0  0
   37.6670   28.4990   44.6340 H   0  0  0  0  0  0  0  0  0  0  0  0
  1  4  1  6  0  0  0
  1  3  1  0  0  0  0
  2  1  1  0  0  0  0
  2  3  1  0  0  0  0
  3  7  1  1  0  0  0
  3 20  1  0  0  0  0
  5  2  1  0  0  0  0
  6  2  1  0  0  0  0
  8  9  1  0  0  0  0
  8 16  1  0  0  0  0
  9 14  1  0  0  0  0
 10  1  1  0  0  0  0
 10  9  2  0  0  0  0
 11 10  1  0  0  0  0
 12 11  2  0  0  0  0
 12 13  1  0  0  0  0
 13  8  2  0  0  0  0
 15 12  1  0  0  0  0
 16 17  1  0  0  0  0
 16 18  1  0  0  0  0
 19 16  1  0  0  0  0
 20 24  1  0  0  0  0
 21 20  2  0  0  0  0
 21 22  1  0  0  0  0
 22 26  1  0  0  0  0
 22 23  2  0  0  0  0
 23 27  1  0  0  0  0
 24 23  1  0  0  0  0
 25 21  1  0  0  0  0
 27 35  1  0  0  0  0
 28 27  1  0  0  0  0
 29 28  1  0  0  0  0
 30 28  1  0  0  0  0
 30 31  1  0  0  0  0
 32 30  1  0  0  0  0
 32 33  1  0  0  0  0
 33 35  1  0  0  0  0
 33 34  1  0  0  0  0
 35 36  1  0  0  0  0
M  END
>  <minimizedAffinity>
-5.61979628

$$$$

 OpenBabel03252501173D

 36 39  0  0  1  0  0  0  0  0999 V2000
   36.4330   29.1980   39.8190 C   0  0  1  0  0  0  0  0  0  0  0  0
   35.9230   30.1990   40.7790 C   0  0  0  0  0  0  0  0  0  0  0  0
   35.8410   28.6420   41.0370 C   0  0  2  0  0  0  0  0  0  0  0  0
   37.5280   29.0650   39.6930 H   0  0  0  0  0  0  0  0  0  0  0  0
   36.6000   30.7620   41.4380 H   0  0  0  0  0  0  0  0  0  0  0  0
   34.9390   30.6680   40.6740 H   0  0  0  0  0  0  0  0  0  0  0  0
   34.8270   28.2500   41.0770 H   0  0  0  0  0  0  0  0  0  0  0  0
   35.5310   29.1230   36.1750 C   0  0  0  0  0  0  0  0  0  0  0  0
   36.3240   29.2090   37.3040 C   0  0  0  0  0  0  0  0  0  0  0  0
   35.6810   29.1070   38.5330 C   0  0  0  0  0  0  0  0  0  0  0  0
   34.3400   28.9320   38.5750 N   0  0  0  0  0  0  0  0  0  0  0  0
   33.6000   28.8520   37.4390 C   0  0  0  0  0  0  0  0  0  0  0  0
   34.2080   28.9500   36.2370 N   0  0  0  0  0  0  0  0  0  0  0  0
   37.3990   29.3500   37.2840 H   0  0  0  0  0  0  0  0  0  0  0  0
   32.5340   28.7130   37.4610 H   0  0  0  0  0  0  0  0  0  0  0  0
   36.2020   29.2200   34.8360 C   0  0  0  0  0  0  0  0  0  0  0  0
   37.4770   28.7230   34.9750 F   0  0  0  0  0  0  0  0  0  0  0  0
   36.2990   30.5610   34.5250 F   0  0  0  0  0  0  0  0  0  0  0  0
   35.5210   28.5070   33.8930 F   0  0  0  0  0  0  0  0  0  0  0  0
   36.8100   28.2080   42.0920 C   0  0  0  0  0  0  0  0  0  0  0  0
   36.5150   27.8090   43.3930 C   0  0  0  0  0  0  0  0  0  0  0  0
   37.7820   27.5240   43.8870 C   0  0  0  0  0  0  0  0  0  0  0  0
   38.7580   27.7470   42.9240 C   0  0  0  0  0  0  0  0  0  0  0  0
   38.0870   28.1530   41.8840 O   0  0  0  0  0  0  0  0  0  0  0  0
   35.5450   27.7500   43.8580 H   0  0  0  0  0  0  0  0  0  0  0  0
   37.9600   27.1710   44.9140 H   0  0  0  0  0  0  0  0  0  0  0  0
   40.2250   27.5550   43.0740 C   0  0  0  0  0  3  0  0  0  0  0  0
   40.5500   26.3320   43.9000 C   0  0  0  0  0  3  0  0  0  0  0  0
   39.7230   26.2710   44.6630 H   0  0  0  0  0  0  0  0  0  0  0  0
   40.4680   25.0440   43.1120 C   0  0  0  0  0  3  0  0  0  0  0  0
   41.4680   24.5670   43.0930 H   0  0  0  0  0  0  0  0  0  0  0  0
   39.9680   25.2980   41.8420 O   0  0  0  0  0  0  0  0  0  0  0  0
   40.9070   26.0790   41.1540 C   0  0  0  0  0  3  0  0  0  0  0  0
   41.8960   25.5820   41.2560 H   0  0  0  0  0  0  0  0  0  0  0  0
   40.9300   27.4780   41.7430 C   0  0  0  0  0  3  0  0  0  0  0  0
   41.9990   27.7470   41.9110 H   0  0  0  0  0  0  0  0  0  0  0  0
  1  4  1  6  0  0  0
  1  2  1  0  0  0  0
  1  3  1  0  0  0  0
  2  3  1  0  0  0  0
  2  5  1  0  0  0  0
  3  7  1  6  0  0  0
  3 20  1  0  0  0  0
  6  2  1  0  0  0  0
  8 13  2  0  0  0  0
  8  9  1  0  0  0  0
  9 10  2  0  0  0  0
 10 11  1  0  0  0  0
 10  1  1  0  0  0  0
 12 15  1  0  0  0  0
 12 11  2  0  0  0  0
 13 12  1  0  0  0  0
 14  9  1  0  0  0  0
 16 17  1  0  0  0  0
 16  8  1  0  0  0  0
 18 16  1  0  0  0  0
 19 16  1  0  0  0  0
 20 21  2  0  0  0  0
 21 25  1  0  0  0  0
 21 22  1  0  0  0  0
 22 26  1  0  0  0  0
 23 27  1  0  0  0  0
 23 22  2  0  0  0  0
 24 20  1  0  0  0  0
 24 23  1  0  0  0  0
 27 28  1  0  0  0  0
 28 29  1  0  0  0  0
 30 28  1  0  0  0  0
 31 30  1  0  0  0  0
 32 30  1  0  0  0  0
 33 34  1  0  0  0  0
 33 35  1  0  0  0  0
 33 32  1  0  0  0  0
 35 36  1  0  0  0  0
 35 27  1  0  0  0  0
M  END
>  <minimizedAffinity>
-5.60936928

$$$$

 OpenBabel03252501173D

 36 39  0  0  1  0  0  0  0  0999 V2000
   36.6620   29.2870   39.8060 C   0  0  1  0  0  0  0  0  0  0  0  0
   35.9460   30.1420   40.7760 C   0  0  0  0  0  0  0  0  0  0  0  0
   36.0140   28.5690   40.9040 C   0  0  2  0  0  0  0  0  0  0  0  0
   37.7710   29.2800   39.7930 H   0  0  0  0  0  0  0  0  0  0  0  0
   36.4840   30.7120   41.5470 H   0  0  0  0  0  0  0  0  0  0  0  0
   34.9310   30.5140   40.5970 H   0  0  0  0  0  0  0  0  0  0  0  0
   35.0520   28.0710   40.8000 H   0  0  0  0  0  0  0  0  0  0  0  0
   34.2400   29.0430   36.9450 C   0  0  0  0  0  0  0  0  0  0  0  0
   34.6900   29.0960   38.2520 C   0  0  0  0  0  0  0  0  0  0  0  0
   36.0610   29.2310   38.4400 C   0  0  0  0  0  0  0  0  0  0  0  0
   36.8800   29.3030   37.3660 N   0  0  0  0  0  0  0  0  0  0  0  0
   36.3940   29.2460   36.0990 C   0  0  0  0  0  0  0  0  0  0  0  0
   35.0660   29.1150   35.8980 N   0  0  0  0  0  0  0  0  0  0  0  0
   34.0440   29.0390   39.1220 H   0  0  0  0  0  0  0  0  0  0  0  0
   37.0360   29.3020   35.2390 H   0  0  0  0  0  0  0  0  0  0  0  0
   32.7630   28.9090   36.7160 C   0  0  0  0  0  0  0  0  0  0  0  0
   32.4390   29.6970   35.6360 F   0  0  0  0  0  0  0  0  0  0  0  0
   32.1290   29.4260   37.8260 F   0  0  0  0  0  0  0  0  0  0  0  0
   32.4210   27.6120   36.4680 F   0  0  0  0  0  0  0  0  0  0  0  0
   36.9110   28.1460   42.0240 C   0  0  0  0  0  0  0  0  0  0  0  0
   36.5290   27.6620   43.2730 C   0  0  0  0  0  0  0  0  0  0  0  0
   37.7630   27.4380   43.8700 C   0  0  0  0  0  0  0  0  0  0  0  0
   38.8040   27.7750   43.0140 C   0  0  0  0  0  0  0  0  0  0  0  0
   38.2030   28.1890   41.9360 O   0  0  0  0  0  0  0  0  0  0  0  0
   35.5270   27.5140   43.6410 H   0  0  0  0  0  0  0  0  0  0  0  0
   37.8720   27.0440   44.8920 H   0  0  0  0  0  0  0  0  0  0  0  0
   40.2610   27.6750   43.2930 C   0  0  0  0  0  3  0  0  0  0  0  0
   40.6080   26.3950   44.0190 C   0  0  0  0  0  3  0  0  0  0  0  0
   39.7200   26.1910   44.6830 H   0  0  0  0  0  0  0  0  0  0  0  0
   40.7070   25.1990   43.1000 C   0  0  0  0  0  3  0  0  0  0  0  0
   41.7410   24.8010   43.1340 H   0  0  0  0  0  0  0  0  0  0  0  0
   40.3090   25.5540   41.8180 O   0  0  0  0  0  0  0  0  0  0  0  0
   41.2410   26.4720   41.3120 C   0  0  0  0  0  3  0  0  0  0  0  0
   42.2530   26.0400   41.4630 H   0  0  0  0  0  0  0  0  0  0  0  0
   41.0920   27.7950   42.0400 C   0  0  0  0  0  3  0  0  0  0  0  0
   42.1150   28.1210   42.3420 H   0  0  0  0  0  0  0  0  0  0  0  0
  1  4  1  1  0  0  0
  1  2  1  0  0  0  0
  1  3  1  0  0  0  0
  2  3  1  0  0  0  0
  2  5  1  0  0  0  0
  3  7  1  6  0  0  0
  3 20  1  0  0  0  0
  6  2  1  0  0  0  0
  8  9  1  0  0  0  0
  9 10  2  0  0  0  0
  9 14  1  0  0  0  0
 10  1  1  0  0  0  0
 11 10  1  0  0  0  0
 12 11  2  0  0  0  0
 13 12  1  0  0  0  0
 13  8  2  0  0  0  0
 15 12  1  0  0  0  0
 16  8  1  0  0  0  0
 16 18  1  0  0  0  0
 17 16  1  0  0  0  0
 19 16  1  0  0  0  0
 20 21  2  0  0  0  0
 21 25  1  0  0  0  0
 21 22  1  0  0  0  0
 22 26  1  0  0  0  0
 23 27  1  0  0  0  0
 23 22  2  0  0  0  0
 24 20  1  0  0  0  0
 24 23  1  0  0  0  0
 27 28  1  0  0  0  0
 28 29  1  0  0  0  0
 30 31  1  0  0  0  0
 30 28  1  0  0  0  0
 32 30  1  0  0  0  0
 33 34  1  0  0  0  0
 33 32  1  0  0  0  0
 33 35  1  0  0  0  0
 35 36  1  0  0  0  0
 35 27  1  0  0  0  0
M  END
>  <minimizedAffinity>
-5.54542637

$$$$

 OpenBabel03252501173D

 36 39  0  0  1  0  0  0  0  0999 V2000
   40.4780   29.5730   41.3800 C   0  0  1  0  0  0  0  0  0  0  0  0
   41.3840   29.5390   42.5470 C   0  0  0  0  0  0  0  0  0  0  0  0
   39.8760   29.0700   42.6150 C   0  0  2  0  0  0  0  0  0  0  0  0
   40.6130   28.8400   40.5570 H   0  0  0  0  0  0  0  0  0  0  0  0
   42.1400   28.7490   42.6660 H   0  0  0  0  0  0  0  0  0  0  0  0
   41.5860   30.4230   43.1620 H   0  0  0  0  0  0  0  0  0  0  0  0
   39.2480   29.6820   43.2590 H   0  0  0  0  0  0  0  0  0  0  0  0
   38.6500   32.4990   39.8950 C   0  0  0  0  0  0  0  0  0  0  0  0
   38.8760   31.2040   40.3240 C   0  0  0  0  0  0  0  0  0  0  0  0
   40.1170   30.9370   40.8930 C   0  0  0  0  0  0  0  0  0  0  0  0
   41.0310   31.9290   41.0000 N   0  0  0  0  0  0  0  0  0  0  0  0
   40.7650   33.1880   40.5650 C   0  0  0  0  0  0  0  0  0  0  0  0
   39.5660   33.4640   40.0110 N   0  0  0  0  0  0  0  0  0  0  0  0
   38.1530   30.4000   40.2420 H   0  0  0  0  0  0  0  0  0  0  0  0
   41.4840   33.9830   40.6470 H   0  0  0  0  0  0  0  0  0  0  0  0
   37.3150   32.8150   39.2880 C   0  0  0  0  0  0  0  0  0  0  0  0
   36.3850   31.9940   39.8840 F   0  0  0  0  0  0  0  0  0  0  0  0
   37.3840   32.4780   37.9520 F   0  0  0  0  0  0  0  0  0  0  0  0
   36.9810   34.1220   39.4870 F   0  0  0  0  0  0  0  0  0  0  0  0
   39.7670   27.5820   42.7270 C   0  0  0  0  0  0  0  0  0  0  0  0
   39.8900   26.8130   43.8820 C   0  0  0  0  0  0  0  0  0  0  0  0
   39.6930   25.5320   43.3810 C   0  0  0  0  0  0  0  0  0  0  0  0
   39.4700   25.5580   42.0100 C   0  0  0  0  0  0  0  0  0  0  0  0
   39.5320   26.8220   41.7040 O   0  0  0  0  0  0  0  0  0  0  0  0
   40.0850   27.1590   44.8830 H   0  0  0  0  0  0  0  0  0  0  0  0
   39.7170   24.6310   44.0120 H   0  0  0  0  0  0  0  0  0  0  0  0
   39.2180   24.3930   41.1210 C   0  0  0  0  0  3  0  0  0  0  0  0
   38.0250   23.5840   41.5780 C   0  0  0  0  0  3  0  0  0  0  0  0
   38.0420   23.6560   42.7030 H   0  0  0  0  0  0  0  0  0  0  0  0
   36.7040   24.1850   41.1550 C   0  0  0  0  0  3  0  0  0  0  0  0
   36.1810   23.4730   40.4850 H   0  0  0  0  0  0  0  0  0  0  0  0
   36.9150   25.4230   40.5640 O   0  0  0  0  0  0  0  0  0  0  0  0
   37.6160   25.2210   39.3670 C   0  0  0  0  0  3  0  0  0  0  0  0
   37.0790   24.4340   38.7940 H   0  0  0  0  0  0  0  0  0  0  0  0
   39.0400   24.8010   39.6800 C   0  0  0  0  0  3  0  0  0  0  0  0
   39.2680   23.9120   39.0460 H   0  0  0  0  0  0  0  0  0  0  0  0
  1  4  1  6  0  0  0
  1  2  1  0  0  0  0
  1  3  1  0  0  0  0
  2  3  1  0  0  0  0
  2  5  1  0  0  0  0
  2  6  1  0  0  0  0
  3 20  1  0  0  0  0
  3  7  1  1  0  0  0
  8 13  2  0  0  0  0
  8  9  1  0  0  0  0
  9 10  2  0  0  0  0
 10 11  1  0  0  0  0
 10  1  1  0  0  0  0
 12 15  1  0  0  0  0
 12 11  2  0  0  0  0
 13 12  1  0  0  0  0
 14  9  1  0  0  0  0
 16 19  1  0  0  0  0
 16 17  1  0  0  0  0
 16  8  1  0  0  0  0
 18 16  1  0  0  0  0
 20 21  2  0  0  0  0
 21 25  1  0  0  0  0
 22 21  1  0  0  0  0
 22 26  1  0  0  0  0
 23 22  2  0  0  0  0
 24 23  1  0  0  0  0
 24 20  1  0  0  0  0
 27 28  1  0  0  0  0
 27 23  1  0  0  0  0
 28 29  1  0  0  0  0
 30 28  1  0  0  0  0
 31 30  1  0  0  0  0
 32 30  1  0  0  0  0
 33 35  1  0  0  0  0
 33 32  1  0  0  0  0
 34 33  1  0  0  0  0
 35 27  1  0  0  0  0
 36 35  1  0  0  0  0
M  END
>  <minimizedAffinity>
-5.52328348

$$$$
