
 OpenBabel03252506573D

 39 43  0  0  0  0  0  0  0  0999 V2000
   47.1690   31.3140   45.1300 C   0  0  0  0  0  0  0  0  0  0  0  0
   46.8690   32.6630   45.1270 C   0  0  0  0  0  0  0  0  0  0  0  0
   46.2970   33.3160   46.2140 C   0  0  0  0  0  0  0  0  0  0  0  0
   46.0020   32.6090   47.3700 C   0  0  0  0  0  0  0  0  0  0  0  0
   45.4640   32.8960   48.5800 N   0  0  0  0  0  0  0  0  0  0  0  0
   45.4300   31.7560   49.3180 C   0  0  0  0  0  0  0  0  0  0  0  0
   45.9510   30.7680   48.5520 N   0  0  0  0  0  0  0  0  0  0  0  0
   46.3120   31.2590   47.3500 C   0  0  0  0  0  0  0  0  0  0  0  0
   46.8760   30.5900   46.2900 C   0  0  0  0  0  0  0  0  0  0  0  0
   47.6130   30.8220   44.2770 H   0  0  0  0  0  0  0  0  0  0  0  0
   46.0600   34.3700   46.2150 H   0  0  0  0  0  0  0  0  0  0  0  0
   45.1370   33.8570   48.8660 H   0  0  0  0  0  0  0  0  0  0  0  0
   45.0560   31.6500   50.3320 H   0  0  0  0  0  0  0  0  0  0  0  0
   46.5800   35.1420   42.4190 C   0  0  0  0  0  0  0  0  0  0  0  0
   47.7430   34.9280   41.6880 C   0  0  0  0  0  0  0  0  0  0  0  0
   48.6300   33.9270   42.1260 C   0  0  0  0  0  0  0  0  0  0  0  0
   48.3070   33.2170   43.2470 N   0  0  0  0  0  0  0  0  0  0  0  0
   47.1580   33.4570   43.9350 C   0  0  0  0  0  0  0  0  0  0  0  0
   46.3060   34.4070   43.5290 N   0  0  0  0  0  0  0  0  0  0  0  0
   45.9160   35.9150   42.0640 H   0  0  0  0  0  0  0  0  0  0  0  0
   47.9350   35.5290   40.8090 H   0  0  0  0  0  0  0  0  0  0  0  0
   49.5330   33.7400   41.5820 H   0  0  0  0  0  0  0  0  0  0  0  0
   47.1610   29.1540   46.3830 C   0  0  0  0  0  0  0  0  0  0  0  0
   48.4460   28.6170   46.3030 C   0  0  0  0  0  0  0  0  0  0  0  0
   48.2180   27.2400   46.4410 C   0  0  0  0  0  0  0  0  0  0  0  0
   46.8490   27.0320   46.5920 C   0  0  0  0  0  0  0  0  0  0  0  0
   46.2690   28.2250   46.5480 O   0  0  0  0  0  0  0  0  0  0  0  0
   49.4060   29.0800   46.1710 H   0  0  0  0  0  0  0  0  0  0  0  0
   48.9480   26.4300   46.4380 H   0  0  0  0  0  0  0  0  0  0  0  0
   46.1020   25.7770   46.7700 C   0  0  0  0  0  3  0  0  0  0  0  0
   44.7770   25.9890   47.4260 C   0  0  0  0  0  3  0  0  0  0  0  0
   44.3170   26.9680   47.1860 H   0  0  0  0  0  0  0  0  0  0  0  0
   43.8720   24.8390   46.9700 C   0  0  0  0  0  3  0  0  0  0  0  0
   43.5590   24.9740   45.9110 H   0  0  0  0  0  0  0  0  0  0  0  0
   44.6840   23.7030   46.9910 O   0  0  0  0  0  0  0  0  0  0  0  0
   45.4390   23.6620   45.8000 C   0  0  0  0  0  3  0  0  0  0  0  0
   46.3210   23.0030   45.9500 H   0  0  0  0  0  0  0  0  0  0  0  0
   45.8460   25.0750   45.4430 C   0  0  0  0  0  3  0  0  0  0  0  0
   46.8490   24.9950   44.9410 H   0  0  0  0  0  0  0  0  0  0  0  0
  1  9  1  0  0  0  0
  2  1  2  0  0  0  0
  2  3  1  0  0  0  0
  3 11  1  0  0  0  0
  3  4  2  0  0  0  0
  4  5  1  0  0  0  0
  5 12  1  0  0  0  0
  5  6  1  0  0  0  0
  6 13  1  0  0  0  0
  7  6  2  0  0  0  0
  8  4  1  0  0  0  0
  8  7  1  0  0  0  0
  9 23  1  0  0  0  0
  9  8  2  0  0  0  0
 10  1  1  0  0  0  0
 14 19  1  0  0  0  0
 15 16  1  0  0  0  0
 15 14  2  0  0  0  0
 16 17  2  0  0  0  0
 17 18  1  0  0  0  0
 18  2  1  0  0  0  0
 19 18  2  0  0  0  0
 20 14  1  0  0  0  0
 21 15  1  0  0  0  0
 22 16  1  0  0  0  0
 23 27  1  0  0  0  0
 24 23  2  0  0  0  0
 24 25  1  0  0  0  0
 25 26  2  0  0  0  0
 26 30  1  0  0  0  0
 27 26  1  0  0  0  0
 28 24  1  0  0  0  0
 29 25  1  0  0  0  0
 30 31  1  0  0  0  0
 32 31  1  0  0  0  0
 33 35  1  0  0  0  0
 33 31  1  0  0  0  0
 34 33  1  0  0  0  0
 36 37  1  0  0  0  0
 36 35  1  0  0  0  0
 38 36  1  0  0  0  0
 38 30  1  0  0  0  0
 39 38  1  0  0  0  0
M  END
>  <minimizedAffinity>
-5.55943108

>  <minimizedRMSD>
0.5703547

$$$$
