
 OpenBabel03252506473D

 43 46  0  0  1  0  0  0  0  0999 V2000
   49.4300   33.3790   41.3860 N   0  0  1  0  0  0  0  0  0  0  0  0
   50.6860   33.0780   42.0570 C   0  0  0  0  0  0  0  0  0  0  0  0
   51.2680   31.7550   41.6560 C   0  0  0  0  0  0  0  0  0  0  0  0
   50.3630   30.6570   42.1910 C   0  0  0  0  0  0  0  0  0  0  0  0
   48.9150   31.0710   42.0830 C   0  0  0  0  0  0  0  0  0  0  0  0
   48.7800   32.1580   41.0450 C   0  0  2  0  0  0  0  0  0  0  0  0
   50.5880   33.0700   43.1580 H   0  0  0  0  0  0  0  0  0  0  0  0
   51.4060   33.8860   41.7980 H   0  0  0  0  0  0  0  0  0  0  0  0
   52.2530   31.6830   42.1530 H   0  0  0  0  0  0  0  0  0  0  0  0
   51.4130   31.6640   40.5540 H   0  0  0  0  0  0  0  0  0  0  0  0
   50.6510   30.3420   43.2070 H   0  0  0  0  0  0  0  0  0  0  0  0
   50.5330   29.7830   41.5280 H   0  0  0  0  0  0  0  0  0  0  0  0
   48.2450   30.2470   41.8700 H   0  0  0  0  0  0  0  0  0  0  0  0
   48.6420   31.5230   43.0710 H   0  0  0  0  0  0  0  0  0  0  0  0
   47.6840   32.3930   40.9900 H   0  0  0  0  0  0  0  0  0  0  0  0
   47.3030   34.7000   41.9760 C   0  0  1  0  0  0  0  0  0  0  0  0
   48.4170   35.6110   41.7390 C   0  0  0  0  0  0  0  0  0  0  0  0
   48.7160   34.2490   42.2660 C   0  0  2  0  0  0  0  0  0  0  0  0
   46.8550   34.1110   41.1330 H   0  0  0  0  0  0  0  0  0  0  0  0
   48.6970   35.8480   40.6870 H   0  0  0  0  0  0  0  0  0  0  0  0
   48.5460   36.4850   42.4220 H   0  0  0  0  0  0  0  0  0  0  0  0
   48.9750   34.1830   43.3420 H   0  0  0  0  0  0  0  0  0  0  0  0
   45.5470   36.0540   43.1440 C   0  0  0  0  0  0  0  0  0  0  0  0
   46.3730   34.9050   43.0930 C   0  0  0  0  0  0  0  0  0  0  0  0
   46.2600   33.9910   44.1390 C   0  0  0  0  0  0  0  0  0  0  0  0
   45.3760   34.2530   45.1310 N   0  0  0  0  0  0  0  0  0  0  0  0
   44.6030   35.3460   45.1590 C   0  0  0  0  0  0  0  0  0  0  0  0
   44.6790   36.2640   44.1630 N   0  0  0  0  0  0  0  0  0  0  0  0
   45.6100   36.7950   42.3360 H   0  0  0  0  0  0  0  0  0  0  0  0
   46.8770   33.0920   44.1410 H   0  0  0  0  0  0  0  0  0  0  0  0
   43.8950   35.5610   45.9490 H   0  0  0  0  0  0  0  0  0  0  0  0
   49.1500   31.6640   39.7530 N   0  0  0  0  0  0  0  0  0  0  0  0
   50.0250   31.1080   39.8360 H   0  0  0  0  0  0  0  0  0  0  0  0
   49.0700   32.5530   38.6800 C   0  0  0  0  0  3  0  0  0  0  0  0
   47.5930   32.8750   38.4460 C   0  0  0  0  0  3  0  0  0  0  0  0
   47.4820   33.8160   37.8950 H   0  0  0  0  0  0  0  0  0  0  0  0
   46.9470   31.7810   37.6000 C   0  0  0  0  0  3  0  0  0  0  0  0
   45.9150   32.1080   37.3910 H   0  0  0  0  0  0  0  0  0  0  0  0
   47.6030   31.6000   36.3840 O   0  0  0  0  0  0  0  0  0  0  0  0
   48.8550   31.0410   36.6830 C   0  0  0  0  0  3  0  0  0  0  0  0
   48.7830   30.1290   37.3010 H   0  0  0  0  0  0  0  0  0  0  0  0
   49.6470   32.1460   37.3720 C   0  0  0  0  0  3  0  0  0  0  0  0
   49.5280   33.0360   36.6980 H   0  0  0  0  0  0  0  0  0  0  0  0
  1  2  1  1  0  0  0
  1 18  1  0  0  0  0
  2  7  1  0  0  0  0
  3  2  1  0  0  0  0
  3  9  1  0  0  0  0
  3  4  1  0  0  0  0
  4 11  1  0  0  0  0
  5  4  1  0  0  0  0
  5 14  1  0  0  0  0
  6 15  1  6  0  0  0
  6  1  1  0  0  0  0
  6  5  1  0  0  0  0
  8  2  1  0  0  0  0
 10  3  1  0  0  0  0
 12  4  1  0  0  0  0
 13  5  1  0  0  0  0
 16 19  1  6  0  0  0
 16 18  1  0  0  0  0
 16 24  1  0  0  0  0
 17 16  1  0  0  0  0
 17 18  1  0  0  0  0
 17 21  1  0  0  0  0
 18 22  1  1  0  0  0
 20 17  1  0  0  0  0
 23 28  1  0  0  0  0
 24 23  2  0  0  0  0
 24 25  1  0  0  0  0
 25 30  1  0  0  0  0
 25 26  2  0  0  0  0
 26 27  1  0  0  0  0
 27 31  1  0  0  0  0
 28 27  2  0  0  0  0
 29 23  1  0  0  0  0
 32 33  1  0  0  0  0
 32  6  1  0  0  0  0
 34 32  1  0  0  0  0
 35 34  1  0  0  0  0
 36 35  1  0  0  0  0
 37 35  1  0  0  0  0
 38 37  1  0  0  0  0
 39 40  1  0  0  0  0
 39 37  1  0  0  0  0
 40 41  1  0  0  0  0
 40 42  1  0  0  0  0
 42 34  1  0  0  0  0
 43 42  1  0  0  0  0
M  END
>  <minimizedAffinity>
-4.98014832

>  <minimizedRMSD>
2.54158378

$$$$
