
 OpenBabel03252507203D

 45 48  0  0  1  0  0  0  0  0999 V2000
   46.8530   32.3730   44.1150 C   0  0  0  0  0  0  0  0  0  0  0  0
   48.0660   32.3070   44.5250 O   0  0  0  0  0  0  0  0  0  0  0  0
   46.2950   31.3880   43.2460 N   0  0  0  0  0  0  0  0  0  0  0  0
   44.9930   30.7100   43.3140 C   0  0  0  0  0  0  0  0  0  0  0  0
   44.2770   30.8520   41.9740 C   0  0  0  0  0  0  0  0  0  0  0  0
   45.0680   30.1020   40.9160 C   0  0  0  0  0  0  0  0  0  0  0  0
   46.4260   29.7960   41.4290 C   0  0  0  0  0  0  0  0  0  0  0  0
   47.0830   30.9560   42.1330 C   0  0  1  0  0  0  0  0  0  0  0  0
   44.3850   31.3700   43.9990 H   0  0  0  0  0  0  0  0  0  0  0  0
   45.0560   29.6960   43.6860 H   0  0  0  0  0  0  0  0  0  0  0  0
   44.2660   31.9470   41.7610 H   0  0  0  0  0  0  0  0  0  0  0  0
   43.2580   30.4610   42.1250 H   0  0  0  0  0  0  0  0  0  0  0  0
   44.9860   30.5480   39.9310 H   0  0  0  0  0  0  0  0  0  0  0  0
   44.5230   29.1160   40.8330 H   0  0  0  0  0  0  0  0  0  0  0  0
   47.1120   29.3440   40.7170 H   0  0  0  0  0  0  0  0  0  0  0  0
   46.2950   29.0140   42.2370 H   0  0  0  0  0  0  0  0  0  0  0  0
   48.0070   30.5220   42.5750 H   0  0  0  0  0  0  0  0  0  0  0  0
   47.5300   32.0130   41.1740 C   0  0  0  0  0  3  0  0  0  0  0  0
   48.3900   31.5670   40.0290 C   0  0  0  0  0  3  0  0  0  0  0  0
   47.8670   30.6770   39.5870 H   0  0  0  0  0  0  0  0  0  0  0  0
   48.3370   32.5920   38.8860 C   0  0  0  0  0  3  0  0  0  0  0  0
   47.4380   32.4480   38.2880 H   0  0  0  0  0  0  0  0  0  0  0  0
   48.3760   33.8480   39.4490 O   0  0  0  0  0  0  0  0  0  0  0  0
   47.1850   34.1680   40.0930 C   0  0  0  0  0  3  0  0  0  0  0  0
   47.4780   34.7550   41.0060 H   0  0  0  0  0  0  0  0  0  0  0  0
   46.4760   32.9160   40.6380 C   0  0  0  0  0  3  0  0  0  0  0  0
   45.9200   32.5110   39.7720 H   0  0  0  0  0  0  0  0  0  0  0  0
   45.6450   34.4200   43.5960 C   0  0  0  0  0  0  0  0  0  0  0  0
   46.0340   33.4700   44.5450 C   0  0  0  0  0  0  0  0  0  0  0  0
   45.6330   33.6140   45.8530 C   0  0  0  0  0  0  0  0  0  0  0  0
   44.8720   34.6740   46.1760 N   0  0  0  0  0  0  0  0  0  0  0  0
   44.4880   35.6050   45.2600 C   0  0  0  0  0  0  0  0  0  0  0  0
   44.8820   35.4560   43.9940 N   0  0  0  0  0  0  0  0  0  0  0  0
   45.9060   34.3950   42.5490 H   0  0  0  0  0  0  0  0  0  0  0  0
   43.8660   36.4630   45.5510 H   0  0  0  0  0  0  0  0  0  0  0  0
   46.0420   32.6220   46.8250 C   0  0  0  0  0  0  0  0  0  0  0  0
   45.2820   31.4970   47.0260 C   0  0  0  0  0  0  0  0  0  0  0  0
   45.6930   30.5670   47.9550 C   0  0  0  0  0  0  0  0  0  0  0  0
   46.8450   30.7060   48.7050 C   0  0  0  0  0  0  0  0  0  0  0  0
   47.5660   31.8560   48.4590 C   0  0  0  0  0  0  0  0  0  0  0  0
   47.1540   32.7460   47.5570 N   0  0  0  0  0  0  0  0  0  0  0  0
   44.3780   31.2570   46.5300 H   0  0  0  0  0  0  0  0  0  0  0  0
   45.1200   29.6510   48.1510 H   0  0  0  0  0  0  0  0  0  0  0  0
   47.1910   29.9920   49.4400 H   0  0  0  0  0  0  0  0  0  0  0  0
   48.4960   32.0600   49.0040 H   0  0  0  0  0  0  0  0  0  0  0  0
  1  2  2  0  0  0  0
  1 29  1  0  0  0  0
  3  4  1  0  0  0  0
  3  1  1  0  0  0  0
  4 10  1  0  0  0  0
  4  9  1  0  0  0  0
  5 12  1  0  0  0  0
  5  4  1  0  0  0  0
  6  7  1  0  0  0  0
  6  5  1  0  0  0  0
  7  8  1  0  0  0  0
  7 16  1  0  0  0  0
  8 17  1  1  0  0  0
  8  3  1  0  0  0  0
 11  5  1  0  0  0  0
 13  6  1  0  0  0  0
 14  6  1  0  0  0  0
 15  7  1  0  0  0  0
 18  8  1  0  0  0  0
 19 18  1  0  0  0  0
 20 19  1  0  0  0  0
 21 23  1  0  0  0  0
 21 19  1  0  0  0  0
 22 21  1  0  0  0  0
 23 24  1  0  0  0  0
 24 26  1  0  0  0  0
 24 25  1  0  0  0  0
 26 18  1  0  0  0  0
 27 26  1  0  0  0  0
 28 33  2  0  0  0  0
 28 29  1  0  0  0  0
 29 30  2  0  0  0  0
 30 31  1  0  0  0  0
 30 36  1  0  0  0  0
 32 35  1  0  0  0  0
 32 31  2  0  0  0  0
 33 32  1  0  0  0  0
 34 28  1  0  0  0  0
 36 37  2  0  0  0  0
 36 41  1  0  0  0  0
 37 38  1  0  0  0  0
 38 43  1  0  0  0  0
 38 39  2  0  0  0  0
 39 44  1  0  0  0  0
 40 39  1  0  0  0  0
 40 45  1  0  0  0  0
 41 40  2  0  0  0  0
 42 37  1  0  0  0  0
M  END
>  <minimizedAffinity>
-4.82369852

>  <minimizedRMSD>
2.70764732

$$$$
