
 OpenBabel03252509043D

 49 51  0  0  1  0  0  0  0  0999 V2000
   47.1560   34.1850   43.0910 N   0  0  0  0  0  0  0  0  0  0  0  0
   46.6590   35.3010   42.3850 C   0  0  0  0  0  0  0  0  0  0  0  0
   45.1640   35.5230   42.5050 C   0  0  0  0  0  0  0  0  0  0  0  0
   44.5890   35.1170   43.8330 C   0  0  0  0  0  0  0  0  0  0  0  0
   45.6620   34.6650   44.7970 C   0  0  0  0  0  0  0  0  0  0  0  0
   46.3880   33.5030   44.0140 C   0  0  2  0  0  0  0  0  0  0  0  0
   46.8840   35.3530   41.3130 H   0  0  0  0  0  0  0  0  0  0  0  0
   47.1390   36.2160   42.8280 H   0  0  0  0  0  0  0  0  0  0  0  0
   44.6720   35.0130   41.6540 H   0  0  0  0  0  0  0  0  0  0  0  0
   44.9620   36.6120   42.3810 H   0  0  0  0  0  0  0  0  0  0  0  0
   44.0140   35.9420   44.3180 H   0  0  0  0  0  0  0  0  0  0  0  0
   43.8840   34.2840   43.7170 H   0  0  0  0  0  0  0  0  0  0  0  0
   45.1860   34.1980   45.6640 H   0  0  0  0  0  0  0  0  0  0  0  0
   46.4020   35.4540   45.0390 H   0  0  0  0  0  0  0  0  0  0  0  0
   45.5460   32.8830   43.6460 H   0  0  0  0  0  0  0  0  0  0  0  0
   48.1800   33.4590   42.3890 C   0  0  0  0  0  0  0  0  0  0  0  0
   48.7780   32.8940   43.1370 H   0  0  0  0  0  0  0  0  0  0  0  0
   48.8050   34.2030   41.8630 H   0  0  0  0  0  0  0  0  0  0  0  0
   47.5520   32.4970   41.4540 C   0  0  0  0  0  0  0  0  0  0  0  0
   47.5960   31.4410   41.7760 H   0  0  0  0  0  0  0  0  0  0  0  0
   46.4560   32.7100   41.3280 H   0  0  0  0  0  0  0  0  0  0  0  0
   49.5330   31.8130   38.3380 C   0  0  0  0  0  0  0  0  0  0  0  0
   48.9730   31.6890   39.6220 C   0  0  0  0  0  0  0  0  0  0  0  0
   48.1300   32.6530   40.0980 C   0  0  0  0  0  0  0  0  0  0  0  0
   47.8730   33.6930   39.3000 N   0  0  0  0  0  0  0  0  0  0  0  0
   48.3950   33.8300   38.0770 C   0  0  0  0  0  0  0  0  0  0  0  0
   49.2280   32.9010   37.5770 N   0  0  0  0  0  0  0  0  0  0  0  0
   50.2090   31.0470   37.9480 H   0  0  0  0  0  0  0  0  0  0  0  0
   49.2420   30.8050   40.1970 H   0  0  0  0  0  0  0  0  0  0  0  0
   48.0810   34.7400   37.5590 H   0  0  0  0  0  0  0  0  0  0  0  0
   47.1480   32.9220   45.0040 O   0  0  0  0  0  0  0  0  0  0  0  0
   46.0660   30.6340   44.2160 O   0  0  0  0  0  0  0  0  0  0  0  0
   46.6000   31.3840   45.4350 P   0  0  2  0  0  0  0  0  0  0  0  0
   45.2630   31.6360   46.4560 O   0  0  0  0  0  0  0  0  0  0  0  0
   45.3140   31.1110   47.2900 H   0  0  0  0  0  0  0  0  0  0  0  0
   47.7530   30.5130   46.2760 O   0  0  0  0  0  0  0  0  0  0  0  0
   47.6740   29.1840   45.8520 C   0  0  0  0  0  0  0  0  0  0  0  0
   46.6760   28.7920   46.1820 H   0  0  0  0  0  0  0  0  0  0  0  0
   47.7980   29.0850   44.7720 H   0  0  0  0  0  0  0  0  0  0  0  0
   48.7360   28.4320   46.6280 C   0  0  0  0  0  3  0  0  0  0  0  0
   50.0760   28.4210   45.9290 C   0  0  0  0  0  3  0  0  0  0  0  0
   50.0120   27.7850   45.0240 H   0  0  0  0  0  0  0  0  0  0  0  0
   51.0240   27.7030   46.8930 C   0  0  0  0  0  3  0  0  0  0  0  0
   52.0420   27.6010   46.4690 H   0  0  0  0  0  0  0  0  0  0  0  0
   50.5600   26.4300   47.1360 O   0  0  0  0  0  0  0  0  0  0  0  0
   49.3290   26.3600   47.7470 C   0  0  0  0  0  3  0  0  0  0  0  0
   49.0910   25.2870   47.8710 H   0  0  0  0  0  0  0  0  0  0  0  0
   48.2710   27.0170   46.8690 C   0  0  0  0  0  3  0  0  0  0  0  0
   48.2470   26.5010   45.8930 H   0  0  0  0  0  0  0  0  0  0  0  0
  1  6  1  0  0  0  0
  2  3  1  0  0  0  0
  2  8  1  0  0  0  0
  2  1  1  0  0  0  0
  3  4  1  0  0  0  0
  4 11  1  0  0  0  0
  4  5  1  0  0  0  0
  5 14  1  0  0  0  0
  5 13  1  0  0  0  0
  6 15  1  6  0  0  0
  6  5  1  0  0  0  0
  6 31  1  0  0  0  0
  7  2  1  0  0  0  0
  9  3  1  0  0  0  0
 10  3  1  0  0  0  0
 12  4  1  0  0  0  0
 16  1  1  0  0  0  0
 16 17  1  0  0  0  0
 18 16  1  0  0  0  0
 19 20  1  0  0  0  0
 19 16  1  0  0  0  0
 21 19  1  0  0  0  0
 22 23  1  0  0  0  0
 23 24  2  0  0  0  0
 23 29  1  0  0  0  0
 24 19  1  0  0  0  0
 25 24  1  0  0  0  0
 26 25  2  0  0  0  0
 27 26  1  0  0  0  0
 27 22  2  0  0  0  0
 28 22  1  0  0  0  0
 30 26  1  0  0  0  0
 31 33  1  0  0  0  0
 33 32  2  6  0  0  0
 33 36  1  0  0  0  0
 33 34  1  0  0  0  0
 34 35  1  0  0  0  0
 37 38  1  0  0  0  0
 37 36  1  0  0  0  0
 37 40  1  0  0  0  0
 39 37  1  0  0  0  0
 40 48  1  0  0  0  0
 41 40  1  0  0  0  0
 41 43  1  0  0  0  0
 42 41  1  0  0  0  0
 43 45  1  0  0  0  0
 44 43  1  0  0  0  0
 45 46  1  0  0  0  0
 46 47  1  0  0  0  0
 48 46  1  0  0  0  0
 49 48  1  0  0  0  0
M  END
>  <minimizedAffinity>
-3.62116981

>  <minimizedRMSD>
0.631563246

$$$$
