
 OpenBabel03242518183D

 24 25  0  0  0  0  0  0  0  0999 V2000
   46.6480   32.8860   46.5540 C   0  0  0  0  0  0  0  0  0  0  0  0
   47.7410   32.6820   46.4090 H   0  0  0  0  0  0  0  0  0  0  0  0
   46.4420   33.2500   47.5730 H   0  0  0  0  0  0  0  0  0  0  0  0
   45.9550   31.5700   46.3790 C   0  0  0  0  0  3  0  0  0  0  0  0
   45.4160   31.0820   47.6980 C   0  0  0  0  0  3  0  0  0  0  0  0
   46.1900   31.2270   48.4590 H   0  0  0  0  0  0  0  0  0  0  0  0
   44.9060   29.6670   47.6190 C   0  0  0  0  0  3  0  0  0  0  0  0
   44.8640   29.2770   48.6630 H   0  0  0  0  0  0  0  0  0  0  0  0
   45.7410   28.8290   46.9060 O   0  0  0  0  0  0  0  0  0  0  0  0
   46.0000   29.2730   45.6250 C   0  0  0  0  0  3  0  0  0  0  0  0
   45.1060   29.6240   45.0680 H   0  0  0  0  0  0  0  0  0  0  0  0
   46.8760   30.5260   45.7680 C   0  0  0  0  0  3  0  0  0  0  0  0
   47.6920   30.3610   46.5090 H   0  0  0  0  0  0  0  0  0  0  0  0
   44.5450   35.4320   44.9880 C   0  0  0  0  0  0  0  0  0  0  0  0
   45.0390   35.5250   43.6800 C   0  0  0  0  0  0  0  0  0  0  0  0
   46.0950   34.7090   43.3390 C   0  0  0  0  0  0  0  0  0  0  0  0
   46.6110   33.8620   44.2640 N   0  0  0  0  0  0  0  0  0  0  0  0
   46.1160   33.7960   45.5090 C   0  0  0  0  0  0  0  0  0  0  0  0
   45.0840   34.5790   45.8750 N   0  0  0  0  0  0  0  0  0  0  0  0
   43.7210   36.0420   45.3170 H   0  0  0  0  0  0  0  0  0  0  0  0
   46.4500   34.8010   42.3360 H   0  0  0  0  0  0  0  0  0  0  0  0
   44.3890   36.4560   42.8430 N   0  0  0  0  0  0  0  0  0  0  0  0
   43.7950   36.0450   42.0700 H   0  0  0  0  0  0  0  0  0  0  0  0
   44.5630   37.4640   43.0790 H   0  0  0  0  0  0  0  0  0  0  0  0
  1  3  1  0  0  0  0
  2  1  1  0  0  0  0
  4  1  1  0  0  0  0
  4  5  1  0  0  0  0
  5  6  1  0  0  0  0
  7  5  1  0  0  0  0
  7  8  1  0  0  0  0
  9  7  1  0  0  0  0
 10 12  1  0  0  0  0
 10  9  1  0  0  0  0
 11 10  1  0  0  0  0
 12  4  1  0  0  0  0
 12 13  1  0  0  0  0
 14 20  1  0  0  0  0
 14 19  1  0  0  0  0
 15 14  2  0  0  0  0
 16 15  1  0  0  0  0
 16 17  2  0  0  0  0
 17 18  1  0  0  0  0
 18 19  2  0  0  0  0
 18  1  1  0  0  0  0
 21 16  1  0  0  0  0
 22 24  1  0  0  0  0
 22 15  1  0  0  0  0
 23 22  1  0  0  0  0
M  END
>  <minimizedAffinity>
-4.18543386

>  <minimizedRMSD>
1.29756939

$$$$
