
 OpenBabel03242523303D

 20 21  0  0  0  0  0  0  0  0999 V2000
   45.6690   33.0670   46.8110 C   0  0  0  0  0  0  0  0  0  0  0  0
   46.3460   33.5820   47.5520 H   0  0  0  0  0  0  0  0  0  0  0  0
   44.7090   32.7860   47.2720 H   0  0  0  0  0  0  0  0  0  0  0  0
   44.5550   35.8680   44.6430 C   0  0  0  0  0  0  0  0  0  0  0  0
   45.2880   35.6100   43.4800 C   0  0  0  0  0  0  0  0  0  0  0  0
   46.1430   34.4920   43.4540 C   0  0  0  0  0  0  0  0  0  0  0  0
   46.2470   33.6860   44.5460 N   0  0  0  0  0  0  0  0  0  0  0  0
   45.5070   33.9810   45.6640 C   0  0  0  0  0  0  0  0  0  0  0  0
   44.6880   35.0480   45.6950 N   0  0  0  0  0  0  0  0  0  0  0  0
   43.9390   36.7280   44.5720 H   0  0  0  0  0  0  0  0  0  0  0  0
   45.2170   36.2450   42.5960 H   0  0  0  0  0  0  0  0  0  0  0  0
   46.7380   34.2420   42.5740 H   0  0  0  0  0  0  0  0  0  0  0  0
   46.6120   31.6320   46.2330 S   0  0  0  0  0  0  0  0  0  0  0  0
   47.5320   31.0230   47.6440 C   0  0  0  0  0  0  0  0  0  0  0  0
   48.6100   30.2200   47.6420 N   0  0  0  0  0  0  0  0  0  0  0  0
   49.0110   29.9890   48.9080 C   0  0  0  0  0  0  0  0  0  0  0  0
   49.8860   29.3420   49.0000 H   0  0  0  0  0  0  0  0  0  0  0  0
   48.1620   30.6650   49.7080 N   0  0  0  0  0  0  0  0  0  0  0  0
   48.3280   30.5960   50.7340 H   0  0  0  0  0  0  0  0  0  0  0  0
   47.2730   31.2860   48.9520 N   0  0  0  0  0  0  0  0  0  0  0  0
  1  3  1  0  0  0  0
  1  2  1  0  0  0  0
  4  9  1  0  0  0  0
  5  4  2  0  0  0  0
  6  5  1  0  0  0  0
  6  7  2  0  0  0  0
  7  8  1  0  0  0  0
  8  9  2  0  0  0  0
  8  1  1  0  0  0  0
 10  4  1  0  0  0  0
 11  5  1  0  0  0  0
 12  6  1  0  0  0  0
 13  1  1  0  0  0  0
 13 14  1  0  0  0  0
 14 20  2  0  0  0  0
 15 14  1  0  0  0  0
 15 16  2  0  0  0  0
 16 17  1  0  0  0  0
 16 18  1  0  0  0  0
 18 19  1  0  0  0  0
 20 18  1  0  0  0  0
M  END
>  <minimizedAffinity>
-4.22201633

>  <minimizedRMSD>
1.22129917

$$$$
