
 OpenBabel03252507443D

 29 31  0  0  0  0  0  0  0  0999 V2000
   38.0770   27.7010   43.6380 C   0  0  0  0  0  0  0  0  0  0  0  0
   37.7400   28.2010   44.5680 H   0  0  0  0  0  0  0  0  0  0  0  0
   38.7160   26.8360   43.9090 H   0  0  0  0  0  0  0  0  0  0  0  0
   38.8850   28.7210   42.9120 C   0  0  0  0  0  0  0  0  0  0  0  0
   40.3020   28.5970   42.8250 C   0  0  0  0  0  0  0  0  0  0  0  0
   40.7670   30.1040   41.8390 S   0  0  0  0  0  0  0  0  0  0  0  0
   38.9480   30.6210   41.7280 C   0  0  0  0  0  0  0  0  0  0  0  0
   38.4260   29.7910   42.3020 N   0  0  0  0  0  0  0  0  0  0  0  0
   40.9120   27.8190   43.2350 H   0  0  0  0  0  0  0  0  0  0  0  0
   38.4330   31.8310   41.0390 C   0  0  0  0  0  0  0  0  0  0  0  0
   39.0800   32.9470   40.7010 N   0  0  0  0  0  0  0  0  0  0  0  0
   38.2520   33.8090   40.0880 C   0  0  0  0  0  0  0  0  0  0  0  0
   38.6470   34.7560   39.7610 H   0  0  0  0  0  0  0  0  0  0  0  0
   37.0350   33.1950   40.0450 N   0  0  0  0  0  0  0  0  0  0  0  0
   36.2290   33.6920   39.6030 H   0  0  0  0  0  0  0  0  0  0  0  0
   37.1600   32.0010   40.6240 N   0  0  0  0  0  0  0  0  0  0  0  0
   36.8740   27.2260   42.9110 C   0  0  0  0  0  0  0  0  0  0  0  0
   36.0470   26.9870   43.5670 H   0  0  0  0  0  0  0  0  0  0  0  0
   36.5020   28.0790   42.2700 H   0  0  0  0  0  0  0  0  0  0  0  0
   37.1480   26.1390   41.9380 C   0  0  0  0  0  0  0  0  0  0  0  0
   36.8850   26.4050   40.5960 C   0  0  0  0  0  0  0  0  0  0  0  0
   37.1200   25.4320   39.6440 C   0  0  0  0  0  0  0  0  0  0  0  0
   37.6130   24.2250   40.0730 N   0  0  0  0  0  0  0  0  0  0  0  0
   37.8550   24.0070   41.3860 C   0  0  0  0  0  0  0  0  0  0  0  0
   37.6250   24.9460   42.2870 N   0  0  0  0  0  0  0  0  0  0  0  0
   36.9240   25.6110   38.5840 H   0  0  0  0  0  0  0  0  0  0  0  0
   38.2460   23.0140   41.6330 H   0  0  0  0  0  0  0  0  0  0  0  0
   36.2390   28.0120   40.0990 S   0  0  0  0  0  0  0  0  0  0  0  0
   35.0150   28.1600   40.7950 H   0  0  0  0  0  0  0  0  0  0  0  0
  1  3  1  0  0  0  0
  1  2  1  0  0  0  0
  4  1  1  0  0  0  0
  5  4  2  0  0  0  0
  5  9  1  0  0  0  0
  6  5  1  0  0  0  0
  7  6  1  0  0  0  0
  7  8  2  0  0  0  0
  8  4  1  0  0  0  0
 10  7  1  0  0  0  0
 11 10  1  0  0  0  0
 12 11  2  0  0  0  0
 13 12  1  0  0  0  0
 14 12  1  0  0  0  0
 14 16  1  0  0  0  0
 15 14  1  0  0  0  0
 16 10  2  0  0  0  0
 17 18  1  0  0  0  0
 17  1  1  0  0  0  0
 19 17  1  0  0  0  0
 20 25  1  0  0  0  0
 20 17  1  0  0  0  0
 21 20  2  0  0  0  0
 22 23  2  0  0  0  0
 22 21  1  0  0  0  0
 23 24  1  0  0  0  0
 24 27  1  0  0  0  0
 24 25  2  0  0  0  0
 26 22  1  0  0  0  0
 28 21  1  0  0  0  0
 28 29  1  0  0  0  0
M  END
>  <minimizedAffinity>
-4.986588

$$$$

 OpenBabel03252507443D

 29 31  0  0  0  0  0  0  0  0999 V2000
   37.3180   28.2640   43.3140 C   0  0  0  0  0  0  0  0  0  0  0  0
   36.6530   27.3770   43.3150 H   0  0  0  0  0  0  0  0  0  0  0  0
   37.1070   28.8710   44.2170 H   0  0  0  0  0  0  0  0  0  0  0  0
   36.9500   29.0300   42.0890 C   0  0  0  0  0  0  0  0  0  0  0  0
   36.0470   28.4810   41.1340 C   0  0  0  0  0  0  0  0  0  0  0  0
   35.9610   29.8310   39.8560 S   0  0  0  0  0  0  0  0  0  0  0  0
   37.1690   30.8900   40.8600 C   0  0  0  0  0  0  0  0  0  0  0  0
   37.3830   30.2260   41.7570 N   0  0  0  0  0  0  0  0  0  0  0  0
   35.5590   27.5300   41.1740 H   0  0  0  0  0  0  0  0  0  0  0  0
   37.6560   32.2400   40.4810 C   0  0  0  0  0  0  0  0  0  0  0  0
   38.6720   32.9410   40.9840 N   0  0  0  0  0  0  0  0  0  0  0  0
   38.7850   34.1260   40.3640 C   0  0  0  0  0  0  0  0  0  0  0  0
   39.5690   34.7970   40.6740 H   0  0  0  0  0  0  0  0  0  0  0  0
   37.7900   34.1590   39.4310 N   0  0  0  0  0  0  0  0  0  0  0  0
   37.6900   35.0020   38.8220 H   0  0  0  0  0  0  0  0  0  0  0  0
   37.1160   33.0120   39.5140 N   0  0  0  0  0  0  0  0  0  0  0  0
   38.7220   27.7840   43.3500 C   0  0  0  0  0  0  0  0  0  0  0  0
   39.4470   28.5800   43.2320 H   0  0  0  0  0  0  0  0  0  0  0  0
   38.9140   27.3640   44.3820 H   0  0  0  0  0  0  0  0  0  0  0  0
   38.9920   26.6420   42.4420 C   0  0  0  0  0  0  0  0  0  0  0  0
   39.9000   26.8520   41.4070 C   0  0  0  0  0  0  0  0  0  0  0  0
   40.1920   25.8260   40.5300 C   0  0  0  0  0  0  0  0  0  0  0  0
   39.5620   24.6220   40.7240 N   0  0  0  0  0  0  0  0  0  0  0  0
   38.6860   24.4580   41.7430 C   0  0  0  0  0  0  0  0  0  0  0  0
   38.4150   25.4490   42.5750 N   0  0  0  0  0  0  0  0  0  0  0  0
   40.8990   25.9600   39.7090 H   0  0  0  0  0  0  0  0  0  0  0  0
   38.2330   23.4640   41.8170 H   0  0  0  0  0  0  0  0  0  0  0  0
   40.6930   28.4580   41.2080 S   0  0  0  0  0  0  0  0  0  0  0  0
   39.6360   29.3820   41.0220 H   0  0  0  0  0  0  0  0  0  0  0  0
  1  2  1  0  0  0  0
  1 17  1  0  0  0  0
  1  3  1  0  0  0  0
  4  1  1  0  0  0  0
  5  9  1  0  0  0  0
  5  4  2  0  0  0  0
  6  7  1  0  0  0  0
  6  5  1  0  0  0  0
  7  8  2  0  0  0  0
  8  4  1  0  0  0  0
 10  7  1  0  0  0  0
 10 11  1  0  0  0  0
 12 13  1  0  0  0  0
 12 11  2  0  0  0  0
 14 16  1  0  0  0  0
 14 12  1  0  0  0  0
 15 14  1  0  0  0  0
 16 10  2  0  0  0  0
 17 19  1  0  0  0  0
 18 17  1  0  0  0  0
 20 25  1  0  0  0  0
 20 17  1  0  0  0  0
 21 20  2  0  0  0  0
 22 23  2  0  0  0  0
 22 21  1  0  0  0  0
 23 24  1  0  0  0  0
 24 27  1  0  0  0  0
 24 25  2  0  0  0  0
 26 22  1  0  0  0  0
 28 21  1  0  0  0  0
 29 28  1  0  0  0  0
M  END
>  <minimizedAffinity>
-4.79671144

$$$$

 OpenBabel03252507443D

 29 31  0  0  0  0  0  0  0  0999 V2000
   36.3760   28.2500   41.0060 C   0  0  0  0  0  0  0  0  0  0  0  0
   36.7930   27.5340   40.2690 H   0  0  0  0  0  0  0  0  0  0  0  0
   35.2700   28.2330   40.9340 H   0  0  0  0  0  0  0  0  0  0  0  0
   36.8920   29.5860   40.5930 C   0  0  0  0  0  0  0  0  0  0  0  0
   36.2990   30.7800   41.0960 C   0  0  0  0  0  0  0  0  0  0  0  0
   37.3140   32.0990   40.2680 S   0  0  0  0  0  0  0  0  0  0  0  0
   38.3560   30.7820   39.3930 C   0  0  0  0  0  0  0  0  0  0  0  0
   37.8900   29.8160   39.7700 N   0  0  0  0  0  0  0  0  0  0  0  0
   35.4780   30.8600   41.7780 H   0  0  0  0  0  0  0  0  0  0  0  0
   39.4830   31.0470   38.4630 C   0  0  0  0  0  0  0  0  0  0  0  0
   40.6500   30.4140   38.3520 N   0  0  0  0  0  0  0  0  0  0  0  0
   41.3990   30.9640   37.3820 C   0  0  0  0  0  0  0  0  0  0  0  0
   42.3730   30.5480   37.1850 H   0  0  0  0  0  0  0  0  0  0  0  0
   40.6570   31.9880   36.8690 N   0  0  0  0  0  0  0  0  0  0  0  0
   41.0500   32.5610   36.0900 H   0  0  0  0  0  0  0  0  0  0  0  0
   39.5010   32.0250   37.5320 N   0  0  0  0  0  0  0  0  0  0  0  0
   36.7960   27.8110   42.3600 C   0  0  0  0  0  0  0  0  0  0  0  0
   37.2890   28.5910   42.9260 H   0  0  0  0  0  0  0  0  0  0  0  0
   35.8610   27.5700   42.9480 H   0  0  0  0  0  0  0  0  0  0  0  0
   37.5630   26.5400   42.3710 C   0  0  0  0  0  0  0  0  0  0  0  0
   38.9300   26.6240   42.6220 C   0  0  0  0  0  0  0  0  0  0  0  0
   39.6970   25.4750   42.6450 C   0  0  0  0  0  0  0  0  0  0  0  0
   39.0620   24.2810   42.4150 N   0  0  0  0  0  0  0  0  0  0  0  0
   37.7310   24.2420   42.1760 C   0  0  0  0  0  0  0  0  0  0  0  0
   37.0090   25.3490   42.1570 N   0  0  0  0  0  0  0  0  0  0  0  0
   40.7710   25.5090   42.8380 H   0  0  0  0  0  0  0  0  0  0  0  0
   37.3130   23.2440   42.0040 H   0  0  0  0  0  0  0  0  0  0  0  0
   39.7020   28.2260   42.9150 S   0  0  0  0  0  0  0  0  0  0  0  0
   39.4510   28.9870   41.7470 H   0  0  0  0  0  0  0  0  0  0  0  0
  1 17  1  0  0  0  0
  2  1  1  0  0  0  0
  3  1  1  0  0  0  0
  4  1  1  0  0  0  0
  4  5  2  0  0  0  0
  5  9  1  0  0  0  0
  6  5  1  0  0  0  0
  7  8  2  0  0  0  0
  7  6  1  0  0  0  0
  8  4  1  0  0  0  0
 10  7  1  0  0  0  0
 11 10  1  0  0  0  0
 12 11  2  0  0  0  0
 13 12  1  0  0  0  0
 14 12  1  0  0  0  0
 14 16  1  0  0  0  0
 15 14  1  0  0  0  0
 16 10  2  0  0  0  0
 17 20  1  0  0  0  0
 17 18  1  0  0  0  0
 17 19  1  0  0  0  0
 20 21  1  0  0  0  0
 21 22  2  0  0  0  0
 21 28  1  0  0  0  0
 22 26  1  0  0  0  0
 23 22  1  0  0  0  0
 24 23  2  0  0  0  0
 25 24  1  0  0  0  0
 25 20  2  0  0  0  0
 27 24  1  0  0  0  0
 29 28  1  0  0  0  0
M  END
>  <minimizedAffinity>
-4.73031998

$$$$

 OpenBabel03252507443D

 29 31  0  0  0  0  0  0  0  0999 V2000
   36.2450   28.1450   41.8250 C   0  0  0  0  0  0  0  0  0  0  0  0
   36.2670   27.5080   40.9170 H   0  0  0  0  0  0  0  0  0  0  0  0
   35.1900   28.2850   42.1370 H   0  0  0  0  0  0  0  0  0  0  0  0
   36.8280   29.4500   41.4050 C   0  0  0  0  0  0  0  0  0  0  0  0
   36.0550   30.3820   40.6540 C   0  0  0  0  0  0  0  0  0  0  0  0
   37.2540   31.7840   40.4180 S   0  0  0  0  0  0  0  0  0  0  0  0
   38.5820   30.8420   41.3850 C   0  0  0  0  0  0  0  0  0  0  0  0
   38.0450   29.8780   41.6560 N   0  0  0  0  0  0  0  0  0  0  0  0
   35.0420   30.2710   40.3250 H   0  0  0  0  0  0  0  0  0  0  0  0
   39.9560   31.3290   41.6660 C   0  0  0  0  0  0  0  0  0  0  0  0
   40.7860   32.0090   40.8750 N   0  0  0  0  0  0  0  0  0  0  0  0
   41.9450   32.2600   41.5060 C   0  0  0  0  0  0  0  0  0  0  0  0
   42.7100   32.8060   40.9790 H   0  0  0  0  0  0  0  0  0  0  0  0
   41.8240   31.7090   42.7490 N   0  0  0  0  0  0  0  0  0  0  0  0
   42.6190   31.7870   43.4200 H   0  0  0  0  0  0  0  0  0  0  0  0
   40.6160   31.1500   42.8300 N   0  0  0  0  0  0  0  0  0  0  0  0
   36.9940   27.4430   42.8950 C   0  0  0  0  0  0  0  0  0  0  0  0
   37.6930   28.0850   43.4170 H   0  0  0  0  0  0  0  0  0  0  0  0
   36.2500   27.1220   43.6820 H   0  0  0  0  0  0  0  0  0  0  0  0
   37.6220   26.1710   42.4570 C   0  0  0  0  0  0  0  0  0  0  0  0
   38.9980   26.0460   42.6330 C   0  0  0  0  0  0  0  0  0  0  0  0
   39.6390   24.8860   42.2440 C   0  0  0  0  0  0  0  0  0  0  0  0
   38.8730   23.8890   41.6930 N   0  0  0  0  0  0  0  0  0  0  0  0
   37.5380   24.0490   41.5400 C   0  0  0  0  0  0  0  0  0  0  0  0
   36.9380   25.1650   41.9160 N   0  0  0  0  0  0  0  0  0  0  0  0
   40.7160   24.7590   42.3690 H   0  0  0  0  0  0  0  0  0  0  0  0
   37.0120   23.2000   41.0900 H   0  0  0  0  0  0  0  0  0  0  0  0
   39.9450   27.3940   43.3640 S   0  0  0  0  0  0  0  0  0  0  0  0
   39.7380   28.5070   42.5130 H   0  0  0  0  0  0  0  0  0  0  0  0
  1  3  1  0  0  0  0
  1 17  1  0  0  0  0
  2  1  1  0  0  0  0
  4  8  1  0  0  0  0
  4  1  1  0  0  0  0
  5  4  2  0  0  0  0
  6  5  1  0  0  0  0
  6  7  1  0  0  0  0
  7  8  2  0  0  0  0
  7 10  1  0  0  0  0
  9  5  1  0  0  0  0
 10 16  2  0  0  0  0
 11 12  2  0  0  0  0
 11 10  1  0  0  0  0
 12 14  1  0  0  0  0
 13 12  1  0  0  0  0
 14 16  1  0  0  0  0
 14 15  1  0  0  0  0
 17 18  1  0  0  0  0
 17 19  1  0  0  0  0
 20 21  1  0  0  0  0
 20 17  1  0  0  0  0
 21 28  1  0  0  0  0
 22 26  1  0  0  0  0
 22 21  2  0  0  0  0
 23 22  1  0  0  0  0
 24 23  2  0  0  0  0
 24 25  1  0  0  0  0
 25 20  2  0  0  0  0
 27 24  1  0  0  0  0
 29 28  1  0  0  0  0
M  END
>  <minimizedAffinity>
-4.71639538

$$$$

 OpenBabel03252507443D

 29 31  0  0  0  0  0  0  0  0999 V2000
   37.3580   27.6480   40.2190 C   0  0  0  0  0  0  0  0  0  0  0  0
   38.3580   27.2670   39.9280 H   0  0  0  0  0  0  0  0  0  0  0  0
   36.6170   27.3230   39.4610 H   0  0  0  0  0  0  0  0  0  0  0  0
   37.4820   29.1330   40.2040 C   0  0  0  0  0  0  0  0  0  0  0  0
   36.6080   29.9420   40.9860 C   0  0  0  0  0  0  0  0  0  0  0  0
   37.2030   31.6590   40.5870 S   0  0  0  0  0  0  0  0  0  0  0  0
   38.5290   30.9560   39.4310 C   0  0  0  0  0  0  0  0  0  0  0  0
   38.3520   29.8360   39.5140 N   0  0  0  0  0  0  0  0  0  0  0  0
   35.8200   29.6120   41.6300 H   0  0  0  0  0  0  0  0  0  0  0  0
   39.5100   31.7540   38.6530 C   0  0  0  0  0  0  0  0  0  0  0  0
   40.4590   32.5810   39.0920 N   0  0  0  0  0  0  0  0  0  0  0  0
   41.1380   33.1130   38.0620 C   0  0  0  0  0  0  0  0  0  0  0  0
   41.9380   33.8030   38.2750 H   0  0  0  0  0  0  0  0  0  0  0  0
   40.5810   32.5890   36.9330 N   0  0  0  0  0  0  0  0  0  0  0  0
   40.9600   32.8680   36.0010 H   0  0  0  0  0  0  0  0  0  0  0  0
   39.5980   31.7690   37.3060 N   0  0  0  0  0  0  0  0  0  0  0  0
   37.0120   27.0650   41.5390 C   0  0  0  0  0  0  0  0  0  0  0  0
   36.3720   27.7050   42.1320 H   0  0  0  0  0  0  0  0  0  0  0  0
   36.4020   26.1320   41.3530 H   0  0  0  0  0  0  0  0  0  0  0  0
   38.1840   26.5790   42.3080 C   0  0  0  0  0  0  0  0  0  0  0  0
   38.4360   25.2090   42.2880 C   0  0  0  0  0  0  0  0  0  0  0  0
   39.5130   24.6970   42.9860 C   0  0  0  0  0  0  0  0  0  0  0  0
   40.3010   25.5810   43.6790 N   0  0  0  0  0  0  0  0  0  0  0  0
   40.0230   26.9050   43.6730 C   0  0  0  0  0  0  0  0  0  0  0  0
   38.9890   27.3810   43.0020 N   0  0  0  0  0  0  0  0  0  0  0  0
   39.7350   23.6280   42.9880 H   0  0  0  0  0  0  0  0  0  0  0  0
   40.7070   27.5310   44.2560 H   0  0  0  0  0  0  0  0  0  0  0  0
   37.3610   24.1030   41.3560 S   0  0  0  0  0  0  0  0  0  0  0  0
   36.0690   24.2760   41.9100 H   0  0  0  0  0  0  0  0  0  0  0  0
  1 17  1  0  0  0  0
  2  1  1  0  0  0  0
  3  1  1  0  0  0  0
  4  1  1  0  0  0  0
  4  5  2  0  0  0  0
  5  9  1  0  0  0  0
  6  5  1  0  0  0  0
  7  8  2  0  0  0  0
  7  6  1  0  0  0  0
  8  4  1  0  0  0  0
 10 11  1  0  0  0  0
 10  7  1  0  0  0  0
 12 13  1  0  0  0  0
 12 11  2  0  0  0  0
 14 16  1  0  0  0  0
 14 12  1  0  0  0  0
 15 14  1  0  0  0  0
 16 10  2  0  0  0  0
 17 18  1  0  0  0  0
 17 20  1  0  0  0  0
 19 17  1  0  0  0  0
 20 25  1  0  0  0  0
 21 20  2  0  0  0  0
 21 22  1  0  0  0  0
 22 26  1  0  0  0  0
 22 23  2  0  0  0  0
 24 23  1  0  0  0  0
 24 27  1  0  0  0  0
 25 24  2  0  0  0  0
 28 29  1  0  0  0  0
 28 21  1  0  0  0  0
M  END
>  <minimizedAffinity>
-4.69887018

$$$$

 OpenBabel03252507443D

 29 31  0  0  0  0  0  0  0  0999 V2000
   36.1880   30.3690   41.0280 C   0  0  0  0  0  0  0  0  0  0  0  0
   36.2630   31.2420   41.7070 H   0  0  0  0  0  0  0  0  0  0  0  0
   35.1330   30.0280   40.9990 H   0  0  0  0  0  0  0  0  0  0  0  0
   37.0450   29.3160   41.6430 C   0  0  0  0  0  0  0  0  0  0  0  0
   38.0590   29.6630   42.5810 C   0  0  0  0  0  0  0  0  0  0  0  0
   38.7880   28.0040   43.0000 S   0  0  0  0  0  0  0  0  0  0  0  0
   37.5770   27.1480   41.8220 C   0  0  0  0  0  0  0  0  0  0  0  0
   36.9790   28.0240   41.4130 N   0  0  0  0  0  0  0  0  0  0  0  0
   38.3110   30.6420   42.9340 H   0  0  0  0  0  0  0  0  0  0  0  0
   37.5070   25.6870   41.5650 C   0  0  0  0  0  0  0  0  0  0  0  0
   36.7880   25.0250   40.6590 N   0  0  0  0  0  0  0  0  0  0  0  0
   37.0070   23.7040   40.7520 C   0  0  0  0  0  0  0  0  0  0  0  0
   36.4860   23.0470   40.0740 H   0  0  0  0  0  0  0  0  0  0  0  0
   37.9060   23.5410   41.7650 N   0  0  0  0  0  0  0  0  0  0  0  0
   38.2240   22.5790   42.0140 H   0  0  0  0  0  0  0  0  0  0  0  0
   38.1980   24.7500   42.2470 N   0  0  0  0  0  0  0  0  0  0  0  0
   36.6100   30.8040   39.6740 C   0  0  0  0  0  0  0  0  0  0  0  0
   36.8430   29.9770   39.0140 H   0  0  0  0  0  0  0  0  0  0  0  0
   35.7310   31.3240   39.1900 H   0  0  0  0  0  0  0  0  0  0  0  0
   37.6780   31.8340   39.6770 C   0  0  0  0  0  0  0  0  0  0  0  0
   38.9170   31.4690   39.1580 C   0  0  0  0  0  0  0  0  0  0  0  0
   39.9500   32.3860   39.1340 C   0  0  0  0  0  0  0  0  0  0  0  0
   39.7010   33.6400   39.6330 N   0  0  0  0  0  0  0  0  0  0  0  0
   38.4820   33.9560   40.1290 C   0  0  0  0  0  0  0  0  0  0  0  0
   37.5030   33.0680   40.1460 N   0  0  0  0  0  0  0  0  0  0  0  0
   40.9330   32.1290   38.7330 H   0  0  0  0  0  0  0  0  0  0  0  0
   38.3790   34.9790   40.5050 H   0  0  0  0  0  0  0  0  0  0  0  0
   39.1780   29.8050   38.5170 S   0  0  0  0  0  0  0  0  0  0  0  0
   38.9150   28.9360   39.6040 H   0  0  0  0  0  0  0  0  0  0  0  0
  1  4  1  0  0  0  0
  1  2  1  0  0  0  0
  3  1  1  0  0  0  0
  4  5  2  0  0  0  0
  5  9  1  0  0  0  0
  5  6  1  0  0  0  0
  7  6  1  0  0  0  0
  8  4  1  0  0  0  0
  8  7  2  0  0  0  0
 10  7  1  0  0  0  0
 10 16  2  0  0  0  0
 11 12  2  0  0  0  0
 11 10  1  0  0  0  0
 12 14  1  0  0  0  0
 13 12  1  0  0  0  0
 14 15  1  0  0  0  0
 14 16  1  0  0  0  0
 17 20  1  0  0  0  0
 17  1  1  0  0  0  0
 18 17  1  0  0  0  0
 19 17  1  0  0  0  0
 20 25  1  0  0  0  0
 21 20  2  0  0  0  0
 22 21  1  0  0  0  0
 22 23  2  0  0  0  0
 23 24  1  0  0  0  0
 24 25  2  0  0  0  0
 24 27  1  0  0  0  0
 26 22  1  0  0  0  0
 28 21  1  0  0  0  0
 28 29  1  0  0  0  0
M  END
>  <minimizedAffinity>
-4.68978882

$$$$

 OpenBabel03252507443D

 29 31  0  0  0  0  0  0  0  0999 V2000
   36.6400   27.1650   40.1090 C   0  0  0  0  0  0  0  0  0  0  0  0
   37.4560   26.4680   39.8290 H   0  0  0  0  0  0  0  0  0  0  0  0
   35.6670   26.6950   39.8600 H   0  0  0  0  0  0  0  0  0  0  0  0
   36.8500   28.3760   39.2660 C   0  0  0  0  0  0  0  0  0  0  0  0
   36.7060   28.3080   37.8500 C   0  0  0  0  0  0  0  0  0  0  0  0
   37.0740   30.0570   37.3360 S   0  0  0  0  0  0  0  0  0  0  0  0
   37.3540   30.5540   39.1420 C   0  0  0  0  0  0  0  0  0  0  0  0
   37.1720   29.5760   39.6920 N   0  0  0  0  0  0  0  0  0  0  0  0
   36.4490   27.4500   37.2640 H   0  0  0  0  0  0  0  0  0  0  0  0
   37.7200   31.9120   39.6180 C   0  0  0  0  0  0  0  0  0  0  0  0
   38.6400   32.2710   40.5130 N   0  0  0  0  0  0  0  0  0  0  0  0
   38.6600   33.6060   40.6650 C   0  0  0  0  0  0  0  0  0  0  0  0
   39.3600   34.0340   41.3630 H   0  0  0  0  0  0  0  0  0  0  0  0
   37.7050   34.0940   39.8220 N   0  0  0  0  0  0  0  0  0  0  0  0
   37.5460   35.1250   39.7760 H   0  0  0  0  0  0  0  0  0  0  0  0
   37.1450   33.0590   39.1960 N   0  0  0  0  0  0  0  0  0  0  0  0
   36.7210   27.4020   41.5720 C   0  0  0  0  0  0  0  0  0  0  0  0
   36.6780   28.4510   41.8360 H   0  0  0  0  0  0  0  0  0  0  0  0
   35.8030   26.9430   42.0450 H   0  0  0  0  0  0  0  0  0  0  0  0
   37.8520   26.7040   42.2330 C   0  0  0  0  0  0  0  0  0  0  0  0
   38.7430   27.4860   42.9650 C   0  0  0  0  0  0  0  0  0  0  0  0
   39.8140   26.8930   43.6030 C   0  0  0  0  0  0  0  0  0  0  0  0
   39.9540   25.5330   43.4850 N   0  0  0  0  0  0  0  0  0  0  0  0
   39.0660   24.8080   42.7650 C   0  0  0  0  0  0  0  0  0  0  0  0
   38.0450   25.3890   42.1590 N   0  0  0  0  0  0  0  0  0  0  0  0
   40.5290   27.4800   44.1830 H   0  0  0  0  0  0  0  0  0  0  0  0
   39.2600   23.7310   42.7270 H   0  0  0  0  0  0  0  0  0  0  0  0
   38.5020   29.2680   43.0800 S   0  0  0  0  0  0  0  0  0  0  0  0
   38.5380   29.7420   41.7460 H   0  0  0  0  0  0  0  0  0  0  0  0
  1 17  1  0  0  0  0
  2  1  1  0  0  0  0
  3  1  1  0  0  0  0
  4  8  1  0  0  0  0
  4  1  1  0  0  0  0
  5  4  2  0  0  0  0
  6  5  1  0  0  0  0
  6  7  1  0  0  0  0
  7 10  1  0  0  0  0
  7  8  2  0  0  0  0
  9  5  1  0  0  0  0
 10 11  1  0  0  0  0
 11 12  2  0  0  0  0
 12 13  1  0  0  0  0
 14 12  1  0  0  0  0
 15 14  1  0  0  0  0
 16 10  2  0  0  0  0
 16 14  1  0  0  0  0
 17 18  1  0  0  0  0
 17 19  1  0  0  0  0
 17 20  1  0  0  0  0
 20 21  1  0  0  0  0
 21 28  1  0  0  0  0
 21 22  2  0  0  0  0
 22 26  1  0  0  0  0
 23 22  1  0  0  0  0
 24 23  2  0  0  0  0
 25 20  2  0  0  0  0
 25 24  1  0  0  0  0
 27 24  1  0  0  0  0
 29 28  1  0  0  0  0
M  END
>  <minimizedAffinity>
-4.5950408

$$$$

 OpenBabel03252507443D

 29 31  0  0  0  0  0  0  0  0999 V2000
   39.7750   26.1880   43.6800 C   0  0  0  0  0  0  0  0  0  0  0  0
   38.7100   26.1220   43.9800 H   0  0  0  0  0  0  0  0  0  0  0  0
   40.4070   26.1270   44.5880 H   0  0  0  0  0  0  0  0  0  0  0  0
   39.9230   27.5300   43.0470 C   0  0  0  0  0  0  0  0  0  0  0  0
   41.2070   28.1330   42.9190 C   0  0  0  0  0  0  0  0  0  0  0  0
   40.8000   29.7460   42.0850 S   0  0  0  0  0  0  0  0  0  0  0  0
   38.9600   29.2970   42.0660 C   0  0  0  0  0  0  0  0  0  0  0  0
   38.9560   28.2740   42.5620 N   0  0  0  0  0  0  0  0  0  0  0  0
   42.1490   27.7320   43.2330 H   0  0  0  0  0  0  0  0  0  0  0  0
   37.8690   30.1430   41.5170 C   0  0  0  0  0  0  0  0  0  0  0  0
   37.9330   31.1080   40.6010 N   0  0  0  0  0  0  0  0  0  0  0  0
   36.7170   31.6340   40.3790 C   0  0  0  0  0  0  0  0  0  0  0  0
   36.6240   32.4290   39.6580 H   0  0  0  0  0  0  0  0  0  0  0  0
   35.8610   30.9590   41.1990 N   0  0  0  0  0  0  0  0  0  0  0  0
   34.8460   31.2070   41.1910 H   0  0  0  0  0  0  0  0  0  0  0  0
   36.5720   30.0610   41.8810 N   0  0  0  0  0  0  0  0  0  0  0  0
   40.0720   25.0420   42.7860 C   0  0  0  0  0  0  0  0  0  0  0  0
   41.0430   25.1110   42.3130 H   0  0  0  0  0  0  0  0  0  0  0  0
   40.1250   24.1120   43.4270 H   0  0  0  0  0  0  0  0  0  0  0  0
   38.9940   24.7430   41.8100 C   0  0  0  0  0  0  0  0  0  0  0  0
   39.3140   24.8360   40.4580 C   0  0  0  0  0  0  0  0  0  0  0  0
   38.3530   24.5700   39.5040 C   0  0  0  0  0  0  0  0  0  0  0  0
   37.1010   24.2180   39.9410 N   0  0  0  0  0  0  0  0  0  0  0  0
   36.8290   24.1380   41.2640 C   0  0  0  0  0  0  0  0  0  0  0  0
   37.7590   24.3960   42.1670 N   0  0  0  0  0  0  0  0  0  0  0  0
   38.5740   24.6350   38.4360 H   0  0  0  0  0  0  0  0  0  0  0  0
   35.8030   23.8500   41.5170 H   0  0  0  0  0  0  0  0  0  0  0  0
   40.9800   25.3040   39.9510 S   0  0  0  0  0  0  0  0  0  0  0  0
   41.2020   26.5840   40.5160 H   0  0  0  0  0  0  0  0  0  0  0  0
  1  2  1  0  0  0  0
  1  3  1  0  0  0  0
  4  1  1  0  0  0  0
  5  4  2  0  0  0  0
  5  9  1  0  0  0  0
  6  5  1  0  0  0  0
  7  6  1  0  0  0  0
  7  8  2  0  0  0  0
  8  4  1  0  0  0  0
 10 16  2  0  0  0  0
 10  7  1  0  0  0  0
 11 10  1  0  0  0  0
 12 11  2  0  0  0  0
 12 14  1  0  0  0  0
 13 12  1  0  0  0  0
 14 16  1  0  0  0  0
 15 14  1  0  0  0  0
 17 19  1  0  0  0  0
 17  1  1  0  0  0  0
 18 17  1  0  0  0  0
 20 25  1  0  0  0  0
 20 17  1  0  0  0  0
 21 20  2  0  0  0  0
 22 23  2  0  0  0  0
 22 21  1  0  0  0  0
 23 24  1  0  0  0  0
 24 27  1  0  0  0  0
 24 25  2  0  0  0  0
 26 22  1  0  0  0  0
 28 21  1  0  0  0  0
 28 29  1  0  0  0  0
M  END
>  <minimizedAffinity>
-4.57659721

$$$$

 OpenBabel03252507443D

 29 31  0  0  0  0  0  0  0  0999 V2000
   35.0960   29.0770   40.1410 C   0  0  0  0  0  0  0  0  0  0  0  0
   34.8030   30.1310   40.3240 H   0  0  0  0  0  0  0  0  0  0  0  0
   34.2200   28.4250   40.3300 H   0  0  0  0  0  0  0  0  0  0  0  0
   36.1690   28.7880   41.1340 C   0  0  0  0  0  0  0  0  0  0  0  0
   36.7150   29.8310   41.9360 C   0  0  0  0  0  0  0  0  0  0  0  0
   37.9750   28.9190   42.9570 S   0  0  0  0  0  0  0  0  0  0  0  0
   37.5220   27.2900   42.1030 C   0  0  0  0  0  0  0  0  0  0  0  0
   36.7100   27.6150   41.3780 N   0  0  0  0  0  0  0  0  0  0  0  0
   36.4450   30.8660   41.9280 H   0  0  0  0  0  0  0  0  0  0  0  0
   38.1370   25.9670   42.3830 C   0  0  0  0  0  0  0  0  0  0  0  0
   39.3420   25.6870   42.8790 N   0  0  0  0  0  0  0  0  0  0  0  0
   39.5170   24.3590   42.9790 C   0  0  0  0  0  0  0  0  0  0  0  0
   40.4520   23.9920   43.3680 H   0  0  0  0  0  0  0  0  0  0  0  0
   38.3640   23.7920   42.5220 N   0  0  0  0  0  0  0  0  0  0  0  0
   38.2780   22.7510   42.5100 H   0  0  0  0  0  0  0  0  0  0  0  0
   37.5390   24.7770   42.1650 N   0  0  0  0  0  0  0  0  0  0  0  0
   35.5120   28.9580   38.7220 C   0  0  0  0  0  0  0  0  0  0  0  0
   35.5990   27.9310   38.3880 H   0  0  0  0  0  0  0  0  0  0  0  0
   34.6910   29.4030   38.0850 H   0  0  0  0  0  0  0  0  0  0  0  0
   36.7100   29.7620   38.3750 C   0  0  0  0  0  0  0  0  0  0  0  0
   37.8300   29.0720   37.9200 C   0  0  0  0  0  0  0  0  0  0  0  0
   38.9750   29.7670   37.5810 C   0  0  0  0  0  0  0  0  0  0  0  0
   38.9540   31.1330   37.7110 N   0  0  0  0  0  0  0  0  0  0  0  0
   37.8440   31.7660   38.1560 C   0  0  0  0  0  0  0  0  0  0  0  0
   36.7550   31.0890   38.4770 N   0  0  0  0  0  0  0  0  0  0  0  0
   39.8690   29.2540   37.2210 H   0  0  0  0  0  0  0  0  0  0  0  0
   37.9220   32.8560   38.2280 H   0  0  0  0  0  0  0  0  0  0  0  0
   37.7920   27.2760   37.7720 S   0  0  0  0  0  0  0  0  0  0  0  0
   37.5140   26.7950   39.0740 H   0  0  0  0  0  0  0  0  0  0  0  0
  1  2  1  0  0  0  0
  1  3  1  0  0  0  0
  1  4  1  0  0  0  0
  4  8  1  0  0  0  0
  4  5  2  0  0  0  0
  5  6  1  0  0  0  0
  7 10  1  0  0  0  0
  7  6  1  0  0  0  0
  8  7  2  0  0  0  0
  9  5  1  0  0  0  0
 10 11  1  0  0  0  0
 11 12  2  0  0  0  0
 12 13  1  0  0  0  0
 14 12  1  0  0  0  0
 15 14  1  0  0  0  0
 16 10  2  0  0  0  0
 16 14  1  0  0  0  0
 17  1  1  0  0  0  0
 18 17  1  0  0  0  0
 19 17  1  0  0  0  0
 20 25  1  0  0  0  0
 20 17  1  0  0  0  0
 21 20  2  0  0  0  0
 22 23  2  0  0  0  0
 22 21  1  0  0  0  0
 23 24  1  0  0  0  0
 24 27  1  0  0  0  0
 24 25  2  0  0  0  0
 26 22  1  0  0  0  0
 28 21  1  0  0  0  0
 28 29  1  0  0  0  0
M  END
>  <minimizedAffinity>
-4.50899458

$$$$
