
 OpenBabel03242519163D

 40 43  0  0  1  0  0  0  0  0999 V2000
   48.4050   34.1290   40.9560 C   0  0  0  0  0  0  0  0  0  0  0  0
   47.8050   34.3330   39.7340 C   0  0  0  0  0  0  0  0  0  0  0  0
   48.0760   33.5450   38.6050 C   0  0  0  0  0  0  0  0  0  0  0  0
   48.9850   32.5480   38.8000 N   0  0  0  0  0  0  0  0  0  0  0  0
   49.5630   32.3580   39.9940 C   0  0  0  0  0  0  0  0  0  0  0  0
   49.2790   33.1330   41.0460 N   0  0  0  0  0  0  0  0  0  0  0  0
   47.0940   35.1450   39.6630 H   0  0  0  0  0  0  0  0  0  0  0  0
   47.5860   33.7340   37.6640 H   0  0  0  0  0  0  0  0  0  0  0  0
   50.5430   31.2450   40.2180 C   0  0  2  0  0  0  0  0  0  0  0  0
   50.9630   30.9330   41.6200 C   0  0  0  0  0  0  0  0  0  0  0  0
   51.9140   31.6440   40.6420 C   0  0  1  0  0  0  0  0  0  0  0  0
   50.4890   30.4780   39.4200 H   0  0  0  0  0  0  0  0  0  0  0  0
   50.4960   31.5530   42.4190 H   0  0  0  0  0  0  0  0  0  0  0  0
   51.1350   29.8760   41.8600 H   0  0  0  0  0  0  0  0  0  0  0  0
   52.1360   32.6870   40.9160 H   0  0  0  0  0  0  0  0  0  0  0  0
   53.0810   30.7980   40.2740 C   0  0  0  0  0  0  0  0  0  0  0  0
   53.5190   30.4880   39.0530 N   0  0  0  0  0  0  0  0  0  0  0  0
   54.6210   29.6870   39.1210 C   0  0  0  0  0  0  0  0  0  0  0  0
   55.0250   29.4010   38.1580 H   0  0  0  0  0  0  0  0  0  0  0  0
   54.8450   29.5130   40.4410 N   0  0  0  0  0  0  0  0  0  0  0  0
   55.6680   28.9120   40.6870 H   0  0  0  0  0  0  0  0  0  0  0  0
   53.9200   30.1800   41.1230 N   0  0  0  0  0  0  0  0  0  0  0  0
   48.1010   34.9470   42.1020 C   0  0  0  0  0  0  0  0  0  0  0  0
   48.3370   36.0190   41.8340 H   0  0  0  0  0  0  0  0  0  0  0  0
   48.7470   34.7330   42.9770 H   0  0  0  0  0  0  0  0  0  0  0  0
   46.6660   34.8940   42.4360 C   0  0  0  0  0  0  0  0  0  0  0  0
   46.1010   34.2530   41.7010 H   0  0  0  0  0  0  0  0  0  0  0  0
   46.1340   35.8790   42.3900 H   0  0  0  0  0  0  0  0  0  0  0  0
   44.6820   36.3280   44.1270 Cl  0  0  0  0  0  0  0  0  0  0  0  0
   45.4900   34.8710   44.6470 C   0  0  0  0  0  0  0  0  0  0  0  0
   46.3850   34.3010   43.7810 C   0  0  0  0  0  0  0  0  0  0  0  0
   47.0240   33.1500   44.1890 C   0  0  0  0  0  0  0  0  0  0  0  0
   46.7730   32.5940   45.4260 C   0  0  0  0  0  0  0  0  0  0  0  0
   45.8560   33.1910   46.2960 C   0  0  0  0  0  0  0  0  0  0  0  0
   45.2180   34.3480   45.8750 C   0  0  0  0  0  0  0  0  0  0  0  0
   47.7430   32.6480   43.5540 H   0  0  0  0  0  0  0  0  0  0  0  0
   47.2260   31.7110   45.8060 H   0  0  0  0  0  0  0  0  0  0  0  0
   45.6420   32.7750   47.2700 H   0  0  0  0  0  0  0  0  0  0  0  0
   44.2840   35.0180   46.6770 O   0  0  0  0  0  0  0  0  0  0  0  0
   43.4730   34.4980   46.9950 H   0  0  0  0  0  0  0  0  0  0  0  0
  1  6  1  0  0  0  0
  1 23  1  0  0  0  0
  2  1  2  0  0  0  0
  3  4  2  0  0  0  0
  3  2  1  0  0  0  0
  4  5  1  0  0  0  0
  5  9  1  0  0  0  0
  5  6  2  0  0  0  0
  7  2  1  0  0  0  0
  8  3  1  0  0  0  0
  9 12  1  6  0  0  0
  9 11  1  0  0  0  0
  9 10  1  0  0  0  0
 10 14  1  0  0  0  0
 10 13  1  0  0  0  0
 11 15  1  1  0  0  0
 11 10  1  0  0  0  0
 16 11  1  0  0  0  0
 16 22  2  0  0  0  0
 17 18  2  0  0  0  0
 17 16  1  0  0  0  0
 18 20  1  0  0  0  0
 19 18  1  0  0  0  0
 20 21  1  0  0  0  0
 20 22  1  0  0  0  0
 23 26  1  0  0  0  0
 23 25  1  0  0  0  0
 24 23  1  0  0  0  0
 26 31  1  0  0  0  0
 27 26  1  0  0  0  0
 28 26  1  0  0  0  0
 29 30  1  0  0  0  0
 30 35  1  0  0  0  0
 31 32  1  0  0  0  0
 31 30  2  0  0  0  0
 32 33  2  0  0  0  0
 33 37  1  0  0  0  0
 33 34  1  0  0  0  0
 34 38  1  0  0  0  0
 35 34  2  0  0  0  0
 35 39  1  0  0  0  0
 36 32  1  0  0  0  0
 39 40  1  0  0  0  0
M  END
>  <minimizedAffinity>
-5.77028704

>  <minimizedRMSD>
0.310160369

$$$$
