
 OpenBabel03252507363D

 30 33  0  0  0  0  0  0  0  0999 V2000
   47.4670   34.6940   42.2280 C   0  0  0  0  0  0  0  0  0  0  0  0
   47.6550   34.4020   40.8540 C   0  0  0  0  0  0  0  0  0  0  0  0
   48.4360   33.2910   40.5410 C   0  0  0  0  0  0  0  0  0  0  0  0
   48.9600   32.5690   41.5370 N   0  0  0  0  0  0  0  0  0  0  0  0
   48.7670   32.8660   42.8430 C   0  0  0  0  0  0  0  0  0  0  0  0
   48.0240   33.9230   43.1700 N   0  0  0  0  0  0  0  0  0  0  0  0
   47.2380   34.9790   40.0560 H   0  0  0  0  0  0  0  0  0  0  0  0
   49.2040   32.2610   43.6100 H   0  0  0  0  0  0  0  0  0  0  0  0
   49.6050   31.8190   39.0130 C   0  0  0  0  0  0  0  0  0  0  0  0
   48.7190   32.8660   39.1730 C   0  0  0  0  0  0  0  0  0  0  0  0
   48.1630   33.4380   38.0510 C   0  0  0  0  0  0  0  0  0  0  0  0
   48.4610   33.0030   36.7800 C   0  0  0  0  0  0  0  0  0  0  0  0
   48.0510   33.3990   35.5490 N   0  0  0  0  0  0  0  0  0  0  0  0
   48.6680   32.6140   34.6190 C   0  0  0  0  0  0  0  0  0  0  0  0
   49.4500   31.7460   35.2880 N   0  0  0  0  0  0  0  0  0  0  0  0
   49.3440   31.9580   36.6140 C   0  0  0  0  0  0  0  0  0  0  0  0
   49.9090   31.3740   37.7220 C   0  0  0  0  0  0  0  0  0  0  0  0
   50.1050   31.2910   39.8190 H   0  0  0  0  0  0  0  0  0  0  0  0
   47.4850   34.2440   38.2370 H   0  0  0  0  0  0  0  0  0  0  0  0
   47.3680   34.1900   35.4440 H   0  0  0  0  0  0  0  0  0  0  0  0
   48.4270   32.8250   33.5870 H   0  0  0  0  0  0  0  0  0  0  0  0
   50.5960   30.5600   37.5490 H   0  0  0  0  0  0  0  0  0  0  0  0
   46.6830   35.8100   42.5340 O   0  0  0  0  0  0  0  0  0  0  0  0
   45.3480   35.7320   42.8180 C   0  0  0  0  0  0  0  0  0  0  0  0
   44.5410   35.3530   41.7890 N   0  0  0  0  0  0  0  0  0  0  0  0
   43.2640   35.3300   42.2470 C   0  0  0  0  0  0  0  0  0  0  0  0
   42.3880   35.0590   41.6380 H   0  0  0  0  0  0  0  0  0  0  0  0
   43.2900   35.6920   43.5410 N   0  0  0  0  0  0  0  0  0  0  0  0
   42.4570   35.7660   44.1640 H   0  0  0  0  0  0  0  0  0  0  0  0
   44.5490   35.9320   43.8790 N   0  0  0  0  0  0  0  0  0  0  0  0
  1 23  1  0  0  0  0
  1  6  1  0  0  0  0
  2  1  2  0  0  0  0
  3  2  1  0  0  0  0
  3  4  2  0  0  0  0
  4  5  1  0  0  0  0
  5  6  2  0  0  0  0
  5  8  1  0  0  0  0
  7  2  1  0  0  0  0
  9 10  1  0  0  0  0
  9 18  1  0  0  0  0
 10  3  1  0  0  0  0
 11 19  1  0  0  0  0
 11 10  2  0  0  0  0
 12 11  1  0  0  0  0
 13 12  1  0  0  0  0
 14 15  2  0  0  0  0
 14 13  1  0  0  0  0
 15 16  1  0  0  0  0
 16 12  2  0  0  0  0
 16 17  1  0  0  0  0
 17  9  2  0  0  0  0
 20 13  1  0  0  0  0
 21 14  1  0  0  0  0
 22 17  1  0  0  0  0
 23 24  1  0  0  0  0
 24 30  2  0  0  0  0
 25 26  2  0  0  0  0
 25 24  1  0  0  0  0
 26 28  1  0  0  0  0
 27 26  1  0  0  0  0
 28 30  1  0  0  0  0
 28 29  1  0  0  0  0
M  END
>  <minimizedAffinity>
-5.28089857

>  <minimizedRMSD>
4.3496871

$$$$
