
 OpenBabel03252509313D

 25 26  0  0  0  0  0  0  0  0999 V2000
   48.3020   33.3370   43.4360 O   0  0  0  0  0  0  0  0  0  0  0  0
   47.0000   33.4070   42.9670 C   0  0  0  0  0  0  0  0  0  0  0  0
   46.6810   32.3780   42.7220 H   0  0  0  0  0  0  0  0  0  0  0  0
   46.9140   33.9610   41.9970 H   0  0  0  0  0  0  0  0  0  0  0  0
   45.1000   34.2940   46.0450 C   0  0  0  0  0  0  0  0  0  0  0  0
   45.9470   33.5910   45.1650 C   0  0  0  0  0  0  0  0  0  0  0  0
   46.1270   34.1200   43.8970 C   0  0  0  0  0  0  0  0  0  0  0  0
   45.4810   35.2830   43.5720 N   0  0  0  0  0  0  0  0  0  0  0  0
   44.6770   35.9280   44.4460 C   0  0  0  0  0  0  0  0  0  0  0  0
   44.4960   35.4290   45.6670 N   0  0  0  0  0  0  0  0  0  0  0  0
   44.8990   33.9640   47.0480 H   0  0  0  0  0  0  0  0  0  0  0  0
   46.4130   32.6900   45.4970 H   0  0  0  0  0  0  0  0  0  0  0  0
   44.2610   36.8280   43.9970 H   0  0  0  0  0  0  0  0  0  0  0  0
   50.0850   33.0410   41.5490 O   0  0  0  0  0  0  0  0  0  0  0  0
   49.2920   34.0870   42.2740 P   0  0  2  0  0  0  0  0  0  0  0  0
   50.2450   35.2130   43.0920 O   0  0  0  0  0  0  0  0  0  0  0  0
   50.2460   36.1070   42.6840 H   0  0  0  0  0  0  0  0  0  0  0  0
   48.2950   34.8710   41.1740 O   0  0  0  0  0  0  0  0  0  0  0  0
   47.9990   34.4530   39.8850 C   0  0  0  0  0  0  0  0  0  0  0  0
   47.1690   33.5230   39.3790 N   0  0  0  0  0  0  0  0  0  0  0  0
   47.2520   33.5050   38.0390 C   0  0  0  0  0  0  0  0  0  0  0  0
   46.7230   32.8830   37.3290 H   0  0  0  0  0  0  0  0  0  0  0  0
   48.1600   34.4570   37.7580 N   0  0  0  0  0  0  0  0  0  0  0  0
   48.4540   34.6950   36.7740 H   0  0  0  0  0  0  0  0  0  0  0  0
   48.6350   35.0520   38.8390 N   0  0  0  0  0  0  0  0  0  0  0  0
  2  1  1  0  0  0  0
  2  7  1  0  0  0  0
  3  2  1  0  0  0  0
  4  2  1  0  0  0  0
  5 11  1  0  0  0  0
  6 12  1  0  0  0  0
  6  5  2  0  0  0  0
  7  6  1  0  0  0  0
  8  7  2  0  0  0  0
  8  9  1  0  0  0  0
  9 10  2  0  0  0  0
 10  5  1  0  0  0  0
 13  9  1  0  0  0  0
 15 14  2  6  0  0  0
 15 16  1  0  0  0  0
 15  1  1  0  0  0  0
 17 16  1  0  0  0  0
 18 15  1  0  0  0  0
 19 18  1  0  0  0  0
 20 19  1  0  0  0  0
 21 20  2  0  0  0  0
 22 21  1  0  0  0  0
 23 21  1  0  0  0  0
 23 25  1  0  0  0  0
 24 23  1  0  0  0  0
 25 19  2  0  0  0  0
M  END
>  <minimizedAffinity>
-4.82814407

>  <minimizedRMSD>
1.12421632

$$$$
