
 OpenBabel03252506563D

 36 40  0  0  0  0  0  0  0  0999 V2000
   47.1920   31.3000   45.1580 C   0  0  0  0  0  0  0  0  0  0  0  0
   46.8810   32.6420   45.1340 C   0  0  0  0  0  0  0  0  0  0  0  0
   46.3050   33.2930   46.2020 C   0  0  0  0  0  0  0  0  0  0  0  0
   46.0080   32.5980   47.3790 C   0  0  0  0  0  0  0  0  0  0  0  0
   45.4620   32.9010   48.5830 N   0  0  0  0  0  0  0  0  0  0  0  0
   45.4370   31.7670   49.3350 C   0  0  0  0  0  0  0  0  0  0  0  0
   45.9700   30.7840   48.5760 N   0  0  0  0  0  0  0  0  0  0  0  0
   46.3300   31.2590   47.3740 C   0  0  0  0  0  0  0  0  0  0  0  0
   46.8970   30.5930   46.3370 C   0  0  0  0  0  0  0  0  0  0  0  0
   47.6440   30.7910   44.3190 H   0  0  0  0  0  0  0  0  0  0  0  0
   46.0460   34.3520   46.2190 H   0  0  0  0  0  0  0  0  0  0  0  0
   45.1450   33.8900   48.7870 H   0  0  0  0  0  0  0  0  0  0  0  0
   45.0480   31.7400   50.3400 H   0  0  0  0  0  0  0  0  0  0  0  0
   46.5870   35.1190   42.4280 C   0  0  0  0  0  0  0  0  0  0  0  0
   47.7340   34.8760   41.6700 C   0  0  0  0  0  0  0  0  0  0  0  0
   48.6060   33.8590   42.0930 C   0  0  0  0  0  0  0  0  0  0  0  0
   48.2930   33.1530   43.2260 N   0  0  0  0  0  0  0  0  0  0  0  0
   47.1670   33.4230   43.9340 C   0  0  0  0  0  0  0  0  0  0  0  0
   46.3350   34.3900   43.5350 N   0  0  0  0  0  0  0  0  0  0  0  0
   45.9320   35.9100   42.0790 H   0  0  0  0  0  0  0  0  0  0  0  0
   48.0240   35.4050   40.7710 H   0  0  0  0  0  0  0  0  0  0  0  0
   49.5030   33.5920   41.5930 H   0  0  0  0  0  0  0  0  0  0  0  0
   47.2030   29.1560   46.4330 C   0  0  0  0  0  0  0  0  0  0  0  0
   48.4710   28.6150   46.3250 C   0  0  0  0  0  0  0  0  0  0  0  0
   48.2630   27.2390   46.4780 C   0  0  0  0  0  0  0  0  0  0  0  0
   46.8970   27.0240   46.6700 C   0  0  0  0  0  0  0  0  0  0  0  0
   46.3050   28.2160   46.6330 O   0  0  0  0  0  0  0  0  0  0  0  0
   49.3960   29.1270   46.1610 H   0  0  0  0  0  0  0  0  0  0  0  0
   49.0150   26.4630   46.4560 H   0  0  0  0  0  0  0  0  0  0  0  0
   46.3050   25.7070   46.8670 C   0  0  0  0  0  0  0  0  0  0  0  0
   45.9110   24.9220   47.8910 N   0  0  0  0  0  0  0  0  0  0  0  0
   45.4220   23.7680   47.3960 C   0  0  0  0  0  0  0  0  0  0  0  0
   45.0300   22.9370   47.9490 H   0  0  0  0  0  0  0  0  0  0  0  0
   45.5130   23.8320   46.0430 N   0  0  0  0  0  0  0  0  0  0  0  0
   45.2130   23.0840   45.3550 H   0  0  0  0  0  0  0  0  0  0  0  0
   46.0460   25.0050   45.7460 N   0  0  0  0  0  0  0  0  0  0  0  0
  1  9  1  0  0  0  0
  2  1  2  0  0  0  0
  2  3  1  0  0  0  0
  3 11  1  0  0  0  0
  3  4  2  0  0  0  0
  4  5  1  0  0  0  0
  5 12  1  0  0  0  0
  5  6  1  0  0  0  0
  6 13  1  0  0  0  0
  7  6  2  0  0  0  0
  8  4  1  0  0  0  0
  8  7  1  0  0  0  0
  9 23  1  0  0  0  0
  9  8  2  0  0  0  0
 10  1  1  0  0  0  0
 14 19  1  0  0  0  0
 15 16  1  0  0  0  0
 15 14  2  0  0  0  0
 16 17  2  0  0  0  0
 17 18  1  0  0  0  0
 18  2  1  0  0  0  0
 19 18  2  0  0  0  0
 20 14  1  0  0  0  0
 21 15  1  0  0  0  0
 22 16  1  0  0  0  0
 23 27  1  0  0  0  0
 24 23  2  0  0  0  0
 24 25  1  0  0  0  0
 25 26  2  0  0  0  0
 26 30  1  0  0  0  0
 27 26  1  0  0  0  0
 28 24  1  0  0  0  0
 29 25  1  0  0  0  0
 30 31  1  0  0  0  0
 32 31  2  0  0  0  0
 32 33  1  0  0  0  0
 34 32  1  0  0  0  0
 35 34  1  0  0  0  0
 36 34  1  0  0  0  0
 36 30  2  0  0  0  0
M  END
>  <minimizedAffinity>
-5.34664154

>  <minimizedRMSD>
0.454232574

$$$$
