
 OpenBabel03242515293D

 30 32  0  0  0  0  0  0  0  0999 V2000
   38.6800   29.2450   42.9960 C   0  0  0  0  0  0  0  0  0  0  0  0
   39.4110   28.0580   42.8180 C   0  0  0  0  0  0  0  0  0  0  0  0
   40.3880   28.0770   41.8470 C   0  0  0  0  0  0  0  0  0  0  0  0
   40.6000   29.1990   41.1240 N   0  0  0  0  0  0  0  0  0  0  0  0
   39.8580   30.3110   41.3460 C   0  0  0  0  0  0  0  0  0  0  0  0
   38.8800   30.3740   42.2810 N   0  0  0  0  0  0  0  0  0  0  0  0
   37.9020   29.2740   43.7500 H   0  0  0  0  0  0  0  0  0  0  0  0
   40.9580   27.1680   41.7020 H   0  0  0  0  0  0  0  0  0  0  0  0
   39.0650   26.9210   43.6730 C   0  0  0  0  0  0  0  0  0  0  0  0
   38.2400   27.2850   44.3490 H   0  0  0  0  0  0  0  0  0  0  0  0
   39.8850   26.6520   44.3300 H   0  0  0  0  0  0  0  0  0  0  0  0
   38.5670   25.8530   42.8340 N   0  0  0  0  0  0  0  0  0  0  0  0
   37.3610   25.9400   42.2700 C   0  0  0  0  0  0  0  0  0  0  0  0
   36.9400   24.8920   41.4830 C   0  0  0  0  0  0  0  0  0  0  0  0
   37.7270   23.7740   41.2730 C   0  0  0  0  0  0  0  0  0  0  0  0
   37.2990   22.8560   40.5540 O   0  0  0  0  0  0  0  0  0  0  0  0
   38.9460   23.7150   41.8590 N   0  0  0  0  0  0  0  0  0  0  0  0
   39.3590   24.7490   42.6330 C   0  0  0  0  0  0  0  0  0  0  0  0
   40.5040   24.6310   43.1500 O   0  0  0  0  0  0  0  0  0  0  0  0
   36.7180   26.8090   42.4180 H   0  0  0  0  0  0  0  0  0  0  0  0
   35.9560   24.9270   41.0030 H   0  0  0  0  0  0  0  0  0  0  0  0
   39.5570   22.8920   41.7200 H   0  0  0  0  0  0  0  0  0  0  0  0
   40.0630   31.4800   40.6050 O   0  0  0  0  0  0  0  0  0  0  0  0
   38.9190   32.1830   40.2490 C   0  0  0  0  0  0  0  0  0  0  0  0
   38.2030   31.7240   39.1830 N   0  0  0  0  0  0  0  0  0  0  0  0
   37.1500   32.5420   39.0160 C   0  0  0  0  0  0  0  0  0  0  0  0
   36.3950   32.4340   38.2420 H   0  0  0  0  0  0  0  0  0  0  0  0
   37.2030   33.5000   39.9580 N   0  0  0  0  0  0  0  0  0  0  0  0
   36.5340   34.2880   40.1020 H   0  0  0  0  0  0  0  0  0  0  0  0
   38.2620   33.2830   40.6960 N   0  0  0  0  0  0  0  0  0  0  0  0
  1  7  1  0  0  0  0
  2  1  1  0  0  0  0
  2  9  1  0  0  0  0
  3  2  2  0  0  0  0
  4  5  2  0  0  0  0
  4  3  1  0  0  0  0
  5  6  1  0  0  0  0
  6  1  2  0  0  0  0
  8  3  1  0  0  0  0
  9 11  1  0  0  0  0
  9 10  1  0  0  0  0
 12  9  1  0  0  0  0
 13 20  1  0  0  0  0
 13 12  1  0  0  0  0
 14 13  2  0  0  0  0
 15 14  1  0  0  0  0
 15 17  1  0  0  0  0
 16 15  2  0  0  0  0
 17 18  1  0  0  0  0
 18 12  1  0  0  0  0
 18 19  2  0  0  0  0
 21 14  1  0  0  0  0
 22 17  1  0  0  0  0
 23  5  1  0  0  0  0
 24 23  1  0  0  0  0
 24 30  2  0  0  0  0
 25 24  1  0  0  0  0
 26 25  2  0  0  0  0
 26 28  1  0  0  0  0
 27 26  1  0  0  0  0
 28 29  1  0  0  0  0
 28 30  1  0  0  0  0
M  END
>  <minimizedAffinity>
-5.30890894

$$$$

 OpenBabel03242515293D

 30 32  0  0  0  0  0  0  0  0999 V2000
   37.3510   30.0900   41.7370 C   0  0  0  0  0  0  0  0  0  0  0  0
   37.8130   30.1140   40.4100 C   0  0  0  0  0  0  0  0  0  0  0  0
   38.5540   29.0280   39.9970 C   0  0  0  0  0  0  0  0  0  0  0  0
   38.8020   28.0140   40.8550 N   0  0  0  0  0  0  0  0  0  0  0  0
   38.3270   28.0550   42.1240 C   0  0  0  0  0  0  0  0  0  0  0  0
   37.5910   29.0840   42.6060 N   0  0  0  0  0  0  0  0  0  0  0  0
   36.7630   30.9240   42.1040 H   0  0  0  0  0  0  0  0  0  0  0  0
   38.9150   29.0360   38.9760 H   0  0  0  0  0  0  0  0  0  0  0  0
   37.4680   31.2840   39.6000 C   0  0  0  0  0  0  0  0  0  0  0  0
   37.0880   32.0580   40.3240 H   0  0  0  0  0  0  0  0  0  0  0  0
   36.6400   31.0750   38.9310 H   0  0  0  0  0  0  0  0  0  0  0  0
   38.6720   31.7680   38.9610 N   0  0  0  0  0  0  0  0  0  0  0  0
   39.6980   32.2090   39.6930 C   0  0  0  0  0  0  0  0  0  0  0  0
   40.8170   32.6600   39.0310 C   0  0  0  0  0  0  0  0  0  0  0  0
   40.8940   32.6650   37.6490 C   0  0  0  0  0  0  0  0  0  0  0  0
   41.9280   33.0840   37.1010 O   0  0  0  0  0  0  0  0  0  0  0  0
   39.8380   32.2120   36.9340 N   0  0  0  0  0  0  0  0  0  0  0  0
   38.7370   31.7680   37.5890 C   0  0  0  0  0  0  0  0  0  0  0  0
   37.7890   31.3590   36.8640 O   0  0  0  0  0  0  0  0  0  0  0  0
   39.6640   32.2170   40.7840 H   0  0  0  0  0  0  0  0  0  0  0  0
   41.6790   33.0300   39.5970 H   0  0  0  0  0  0  0  0  0  0  0  0
   39.8680   32.2040   35.9000 H   0  0  0  0  0  0  0  0  0  0  0  0
   38.5770   27.0150   43.0250 O   0  0  0  0  0  0  0  0  0  0  0  0
   38.3540   25.7290   42.5490 C   0  0  0  0  0  0  0  0  0  0  0  0
   37.0910   25.4200   42.1370 N   0  0  0  0  0  0  0  0  0  0  0  0
   37.0990   24.1430   41.7190 C   0  0  0  0  0  0  0  0  0  0  0  0
   36.2350   23.6090   41.3330 H   0  0  0  0  0  0  0  0  0  0  0  0
   38.3440   23.6550   41.8660 N   0  0  0  0  0  0  0  0  0  0  0  0
   38.6820   22.6970   41.6350 H   0  0  0  0  0  0  0  0  0  0  0  0
   39.0940   24.6070   42.3620 N   0  0  0  0  0  0  0  0  0  0  0  0
  1  7  1  0  0  0  0
  1  6  1  0  0  0  0
  2  1  2  0  0  0  0
  3  2  1  0  0  0  0
  3  4  2  0  0  0  0
  4  5  1  0  0  0  0
  5  6  2  0  0  0  0
  5 23  1  0  0  0  0
  8  3  1  0  0  0  0
  9 10  1  0  0  0  0
  9  2  1  0  0  0  0
 11  9  1  0  0  0  0
 12  9  1  0  0  0  0
 12 13  1  0  0  0  0
 13 20  1  0  0  0  0
 14 21  1  0  0  0  0
 14 13  2  0  0  0  0
 15 14  1  0  0  0  0
 16 15  2  0  0  0  0
 17 18  1  0  0  0  0
 17 15  1  0  0  0  0
 18 12  1  0  0  0  0
 19 18  2  0  0  0  0
 22 17  1  0  0  0  0
 24 23  1  0  0  0  0
 25 24  1  0  0  0  0
 26 28  1  0  0  0  0
 26 25  2  0  0  0  0
 27 26  1  0  0  0  0
 28 30  1  0  0  0  0
 29 28  1  0  0  0  0
 30 24  2  0  0  0  0
M  END
>  <minimizedAffinity>
-5.19464302

$$$$

 OpenBabel03242515293D

 30 32  0  0  0  0  0  0  0  0999 V2000
   38.7270   29.9570   42.0990 C   0  0  0  0  0  0  0  0  0  0  0  0
   37.3780   29.5670   42.0560 C   0  0  0  0  0  0  0  0  0  0  0  0
   36.5280   30.3690   41.3270 C   0  0  0  0  0  0  0  0  0  0  0  0
   37.0060   31.4670   40.7020 N   0  0  0  0  0  0  0  0  0  0  0  0
   38.3200   31.7890   40.7850 C   0  0  0  0  0  0  0  0  0  0  0  0
   39.2200   31.0520   41.4790 N   0  0  0  0  0  0  0  0  0  0  0  0
   39.4310   29.3540   42.6600 H   0  0  0  0  0  0  0  0  0  0  0  0
   35.4850   30.0770   41.2880 H   0  0  0  0  0  0  0  0  0  0  0  0
   37.0060   28.3550   42.7880 C   0  0  0  0  0  0  0  0  0  0  0  0
   35.8800   28.3390   42.8070 H   0  0  0  0  0  0  0  0  0  0  0  0
   37.3160   28.4050   43.8280 H   0  0  0  0  0  0  0  0  0  0  0  0
   37.4940   27.2090   42.0520 N   0  0  0  0  0  0  0  0  0  0  0  0
   36.9430   26.8680   40.8860 C   0  0  0  0  0  0  0  0  0  0  0  0
   37.4470   25.7680   40.2310 C   0  0  0  0  0  0  0  0  0  0  0  0
   38.4910   25.0240   40.7510 C   0  0  0  0  0  0  0  0  0  0  0  0
   38.9080   24.0380   40.1200 O   0  0  0  0  0  0  0  0  0  0  0  0
   39.0290   25.3940   41.9370 N   0  0  0  0  0  0  0  0  0  0  0  0
   38.5310   26.4790   42.5800 C   0  0  0  0  0  0  0  0  0  0  0  0
   39.0770   26.7700   43.6790 O   0  0  0  0  0  0  0  0  0  0  0  0
   36.1180   27.4360   40.4510 H   0  0  0  0  0  0  0  0  0  0  0  0
   37.0210   25.4560   39.2710 H   0  0  0  0  0  0  0  0  0  0  0  0
   39.8110   24.8570   42.3500 H   0  0  0  0  0  0  0  0  0  0  0  0
   38.8310   32.9230   40.1450 O   0  0  0  0  0  0  0  0  0  0  0  0
   39.4880   32.7000   38.9420 C   0  0  0  0  0  0  0  0  0  0  0  0
   40.7550   33.1890   38.8150 N   0  0  0  0  0  0  0  0  0  0  0  0
   41.1980   32.8630   37.5880 C   0  0  0  0  0  0  0  0  0  0  0  0
   42.1770   33.1180   37.1930 H   0  0  0  0  0  0  0  0  0  0  0  0
   40.2270   32.1820   36.9540 N   0  0  0  0  0  0  0  0  0  0  0  0
   40.2540   31.7890   35.9880 H   0  0  0  0  0  0  0  0  0  0  0  0
   39.2050   32.0850   37.7660 N   0  0  0  0  0  0  0  0  0  0  0  0
  1  7  1  0  0  0  0
  2  1  1  0  0  0  0
  2  9  1  0  0  0  0
  3  2  2  0  0  0  0
  4  5  2  0  0  0  0
  4  3  1  0  0  0  0
  5  6  1  0  0  0  0
  6  1  2  0  0  0  0
  8  3  1  0  0  0  0
  9 10  1  0  0  0  0
  9 11  1  0  0  0  0
 12 18  1  0  0  0  0
 12  9  1  0  0  0  0
 13 12  1  0  0  0  0
 14 15  1  0  0  0  0
 14 13  2  0  0  0  0
 15 17  1  0  0  0  0
 16 15  2  0  0  0  0
 17 22  1  0  0  0  0
 17 18  1  0  0  0  0
 18 19  2  0  0  0  0
 20 13  1  0  0  0  0
 21 14  1  0  0  0  0
 23  5  1  0  0  0  0
 24 23  1  0  0  0  0
 25 24  1  0  0  0  0
 26 25  2  0  0  0  0
 27 26  1  0  0  0  0
 28 26  1  0  0  0  0
 28 30  1  0  0  0  0
 29 28  1  0  0  0  0
 30 24  2  0  0  0  0
M  END
>  <minimizedAffinity>
-5.13195753

$$$$

 OpenBabel03242515293D

 30 32  0  0  0  0  0  0  0  0999 V2000
   36.4610   29.9410   41.8770 C   0  0  0  0  0  0  0  0  0  0  0  0
   36.6420   28.5870   41.5510 C   0  0  0  0  0  0  0  0  0  0  0  0
   36.8790   28.2990   40.2250 C   0  0  0  0  0  0  0  0  0  0  0  0
   36.9260   29.2970   39.3150 N   0  0  0  0  0  0  0  0  0  0  0  0
   36.7410   30.5850   39.6960 C   0  0  0  0  0  0  0  0  0  0  0  0
   36.5040   30.9500   40.9790 N   0  0  0  0  0  0  0  0  0  0  0  0
   36.2720   30.2130   42.9090 H   0  0  0  0  0  0  0  0  0  0  0  0
   37.0210   27.2580   39.9630 H   0  0  0  0  0  0  0  0  0  0  0  0
   36.5590   27.6170   42.6440 C   0  0  0  0  0  0  0  0  0  0  0  0
   35.7670   26.8750   42.3390 H   0  0  0  0  0  0  0  0  0  0  0  0
   36.1940   28.0750   43.5580 H   0  0  0  0  0  0  0  0  0  0  0  0
   37.8340   26.9440   42.7570 N   0  0  0  0  0  0  0  0  0  0  0  0
   38.8960   27.5830   43.2510 C   0  0  0  0  0  0  0  0  0  0  0  0
   40.0840   26.8930   43.3330 C   0  0  0  0  0  0  0  0  0  0  0  0
   40.1940   25.5780   42.9180 C   0  0  0  0  0  0  0  0  0  0  0  0
   41.2910   25.0010   43.0130 O   0  0  0  0  0  0  0  0  0  0  0  0
   39.1000   24.9560   42.4210 N   0  0  0  0  0  0  0  0  0  0  0  0
   37.9300   25.6380   42.3420 C   0  0  0  0  0  0  0  0  0  0  0  0
   36.9490   25.0020   41.8690 O   0  0  0  0  0  0  0  0  0  0  0  0
   38.8390   28.6200   43.5860 H   0  0  0  0  0  0  0  0  0  0  0  0
   40.9780   27.3830   43.7340 H   0  0  0  0  0  0  0  0  0  0  0  0
   39.1520   23.9730   42.1030 H   0  0  0  0  0  0  0  0  0  0  0  0
   36.7840   31.6290   38.7670 O   0  0  0  0  0  0  0  0  0  0  0  0
   38.0130   31.8550   38.1610 C   0  0  0  0  0  0  0  0  0  0  0  0
   39.0730   32.1370   38.9710 N   0  0  0  0  0  0  0  0  0  0  0  0
   40.1500   32.3180   38.1870 C   0  0  0  0  0  0  0  0  0  0  0  0
   41.1470   32.5570   38.5460 H   0  0  0  0  0  0  0  0  0  0  0  0
   39.7740   32.1540   36.9060 N   0  0  0  0  0  0  0  0  0  0  0  0
   40.3720   32.2270   36.0550 H   0  0  0  0  0  0  0  0  0  0  0  0
   38.4950   31.8760   36.8930 N   0  0  0  0  0  0  0  0  0  0  0  0
  1  7  1  0  0  0  0
  2  1  1  0  0  0  0
  2  9  1  0  0  0  0
  3  2  2  0  0  0  0
  4  5  2  0  0  0  0
  4  3  1  0  0  0  0
  5  6  1  0  0  0  0
  6  1  2  0  0  0  0
  8  3  1  0  0  0  0
  9 12  1  0  0  0  0
  9 11  1  0  0  0  0
 10  9  1  0  0  0  0
 12 13  1  0  0  0  0
 13 14  2  0  0  0  0
 13 20  1  0  0  0  0
 14 21  1  0  0  0  0
 15 16  2  0  0  0  0
 15 14  1  0  0  0  0
 17 15  1  0  0  0  0
 18 17  1  0  0  0  0
 18 12  1  0  0  0  0
 19 18  2  0  0  0  0
 22 17  1  0  0  0  0
 23  5  1  0  0  0  0
 24 23  1  0  0  0  0
 24 25  1  0  0  0  0
 26 27  1  0  0  0  0
 26 25  2  0  0  0  0
 28 26  1  0  0  0  0
 29 28  1  0  0  0  0
 30 28  1  0  0  0  0
 30 24  2  0  0  0  0
M  END
>  <minimizedAffinity>
-5.07647467

$$$$

 OpenBabel03242515293D

 30 32  0  0  0  0  0  0  0  0999 V2000
   35.9820   29.7340   40.7110 C   0  0  0  0  0  0  0  0  0  0  0  0
   37.0100   30.6690   40.9190 C   0  0  0  0  0  0  0  0  0  0  0  0
   38.0020   30.3060   41.8030 C   0  0  0  0  0  0  0  0  0  0  0  0
   37.9520   29.1040   42.4190 N   0  0  0  0  0  0  0  0  0  0  0  0
   36.9300   28.2480   42.1740 C   0  0  0  0  0  0  0  0  0  0  0  0
   35.9180   28.5280   41.3190 N   0  0  0  0  0  0  0  0  0  0  0  0
   35.1810   29.9780   40.0230 H   0  0  0  0  0  0  0  0  0  0  0  0
   38.7990   31.0190   41.9700 H   0  0  0  0  0  0  0  0  0  0  0  0
   36.9270   31.9320   40.1840 C   0  0  0  0  0  0  0  0  0  0  0  0
   36.9140   32.7430   40.9660 H   0  0  0  0  0  0  0  0  0  0  0  0
   35.9850   32.0230   39.6520 H   0  0  0  0  0  0  0  0  0  0  0  0
   38.1140   32.0650   39.3680 N   0  0  0  0  0  0  0  0  0  0  0  0
   38.3530   31.2060   38.3750 C   0  0  0  0  0  0  0  0  0  0  0  0
   39.4990   31.3800   37.6330 C   0  0  0  0  0  0  0  0  0  0  0  0
   40.3880   32.4080   37.8940 C   0  0  0  0  0  0  0  0  0  0  0  0
   41.4090   32.5200   37.1940 O   0  0  0  0  0  0  0  0  0  0  0  0
   40.1180   33.2630   38.9080 N   0  0  0  0  0  0  0  0  0  0  0  0
   38.9890   33.0890   39.6370 C   0  0  0  0  0  0  0  0  0  0  0  0
   38.7960   33.9200   40.5670 O   0  0  0  0  0  0  0  0  0  0  0  0
   37.6700   30.3870   38.1460 H   0  0  0  0  0  0  0  0  0  0  0  0
   39.7310   30.6960   36.8100 H   0  0  0  0  0  0  0  0  0  0  0  0
   40.7650   34.0400   39.1270 H   0  0  0  0  0  0  0  0  0  0  0  0
   36.8610   27.0010   42.8050 O   0  0  0  0  0  0  0  0  0  0  0  0
   37.4520   25.9430   42.1270 C   0  0  0  0  0  0  0  0  0  0  0  0
   36.8160   24.7370   42.1640 N   0  0  0  0  0  0  0  0  0  0  0  0
   37.5500   23.8650   41.4520 C   0  0  0  0  0  0  0  0  0  0  0  0
   37.2990   22.8190   41.2990 H   0  0  0  0  0  0  0  0  0  0  0  0
   38.6300   24.5100   40.9760 N   0  0  0  0  0  0  0  0  0  0  0  0
   39.3960   24.1170   40.3860 H   0  0  0  0  0  0  0  0  0  0  0  0
   38.5690   25.7540   41.3800 N   0  0  0  0  0  0  0  0  0  0  0  0
  1  2  2  0  0  0  0
  1  6  1  0  0  0  0
  2  3  1  0  0  0  0
  3  8  1  0  0  0  0
  3  4  2  0  0  0  0
  5  4  1  0  0  0  0
  5 23  1  0  0  0  0
  6  5  2  0  0  0  0
  7  1  1  0  0  0  0
  9  2  1  0  0  0  0
  9 10  1  0  0  0  0
 11  9  1  0  0  0  0
 12 18  1  0  0  0  0
 12  9  1  0  0  0  0
 13 12  1  0  0  0  0
 14 15  1  0  0  0  0
 14 13  2  0  0  0  0
 15 17  1  0  0  0  0
 16 15  2  0  0  0  0
 17 22  1  0  0  0  0
 17 18  1  0  0  0  0
 18 19  2  0  0  0  0
 20 13  1  0  0  0  0
 21 14  1  0  0  0  0
 24 25  1  0  0  0  0
 24 23  1  0  0  0  0
 26 25  2  0  0  0  0
 27 26  1  0  0  0  0
 28 30  1  0  0  0  0
 28 26  1  0  0  0  0
 29 28  1  0  0  0  0
 30 24  2  0  0  0  0
M  END
>  <minimizedAffinity>
-5.05614328

$$$$

 OpenBabel03242515293D

 30 32  0  0  0  0  0  0  0  0999 V2000
   38.6570   27.9320   41.1220 C   0  0  0  0  0  0  0  0  0  0  0  0
   37.3630   27.6520   41.5900 C   0  0  0  0  0  0  0  0  0  0  0  0
   36.3420   28.4200   41.0740 C   0  0  0  0  0  0  0  0  0  0  0  0
   36.6150   29.3840   40.1670 N   0  0  0  0  0  0  0  0  0  0  0  0
   37.8890   29.6040   39.7590 C   0  0  0  0  0  0  0  0  0  0  0  0
   38.9460   28.8920   40.2160 N   0  0  0  0  0  0  0  0  0  0  0  0
   39.4900   27.3510   41.5010 H   0  0  0  0  0  0  0  0  0  0  0  0
   35.3400   28.2120   41.4280 H   0  0  0  0  0  0  0  0  0  0  0  0
   37.2230   26.5790   42.5770 C   0  0  0  0  0  0  0  0  0  0  0  0
   36.1610   26.6410   42.9510 H   0  0  0  0  0  0  0  0  0  0  0  0
   37.8500   26.7530   43.4460 H   0  0  0  0  0  0  0  0  0  0  0  0
   37.4280   25.3130   41.9090 N   0  0  0  0  0  0  0  0  0  0  0  0
   36.5920   24.9090   40.9500 C   0  0  0  0  0  0  0  0  0  0  0  0
   36.8370   23.6950   40.3510 C   0  0  0  0  0  0  0  0  0  0  0  0
   37.9100   22.9020   40.7180 C   0  0  0  0  0  0  0  0  0  0  0  0
   38.0850   21.8130   40.1450 O   0  0  0  0  0  0  0  0  0  0  0  0
   38.7400   23.3390   41.6940 N   0  0  0  0  0  0  0  0  0  0  0  0
   38.4970   24.5360   42.2830 C   0  0  0  0  0  0  0  0  0  0  0  0
   39.3080   24.8840   43.1840 O   0  0  0  0  0  0  0  0  0  0  0  0
   35.7380   25.5130   40.6400 H   0  0  0  0  0  0  0  0  0  0  0  0
   36.1730   23.3290   39.5600 H   0  0  0  0  0  0  0  0  0  0  0  0
   39.5500   22.7680   41.9890 H   0  0  0  0  0  0  0  0  0  0  0  0
   38.1880   30.5990   38.8230 O   0  0  0  0  0  0  0  0  0  0  0  0
   37.9280   31.9050   39.2190 C   0  0  0  0  0  0  0  0  0  0  0  0
   38.7610   32.4610   40.1450 N   0  0  0  0  0  0  0  0  0  0  0  0
   38.3340   33.7130   40.3800 C   0  0  0  0  0  0  0  0  0  0  0  0
   38.7960   34.4080   41.0750 H   0  0  0  0  0  0  0  0  0  0  0  0
   37.2510   33.9420   39.6160 N   0  0  0  0  0  0  0  0  0  0  0  0
   36.6830   34.8150   39.5640 H   0  0  0  0  0  0  0  0  0  0  0  0
   37.0100   32.8590   38.9210 N   0  0  0  0  0  0  0  0  0  0  0  0
  1  7  1  0  0  0  0
  1  2  1  0  0  0  0
  2  9  1  0  0  0  0
  3  8  1  0  0  0  0
  3  2  2  0  0  0  0
  4  3  1  0  0  0  0
  5  4  2  0  0  0  0
  5  6  1  0  0  0  0
  6  1  2  0  0  0  0
  9 10  1  0  0  0  0
  9 11  1  0  0  0  0
 12 18  1  0  0  0  0
 12  9  1  0  0  0  0
 13 12  1  0  0  0  0
 14 15  1  0  0  0  0
 14 13  2  0  0  0  0
 15 17  1  0  0  0  0
 16 15  2  0  0  0  0
 17 22  1  0  0  0  0
 17 18  1  0  0  0  0
 18 19  2  0  0  0  0
 20 13  1  0  0  0  0
 21 14  1  0  0  0  0
 23 24  1  0  0  0  0
 23  5  1  0  0  0  0
 24 25  1  0  0  0  0
 25 26  2  0  0  0  0
 26 27  1  0  0  0  0
 28 26  1  0  0  0  0
 29 28  1  0  0  0  0
 30 24  2  0  0  0  0
 30 28  1  0  0  0  0
M  END
>  <minimizedAffinity>
-4.95090818

$$$$

 OpenBabel03242515293D

 30 32  0  0  0  0  0  0  0  0999 V2000
   36.9600   27.6120   42.0160 C   0  0  0  0  0  0  0  0  0  0  0  0
   38.2490   27.6700   42.5730 C   0  0  0  0  0  0  0  0  0  0  0  0
   38.8310   28.9170   42.6490 C   0  0  0  0  0  0  0  0  0  0  0  0
   38.1640   30.0020   42.1990 N   0  0  0  0  0  0  0  0  0  0  0  0
   36.9220   29.8760   41.6710 C   0  0  0  0  0  0  0  0  0  0  0  0
   36.2810   28.6890   41.5610 N   0  0  0  0  0  0  0  0  0  0  0  0
   36.4640   26.6520   41.9370 H   0  0  0  0  0  0  0  0  0  0  0  0
   39.8240   28.9720   43.0770 H   0  0  0  0  0  0  0  0  0  0  0  0
   38.8470   26.4090   43.0130 C   0  0  0  0  0  0  0  0  0  0  0  0
   38.0430   25.8720   43.5930 H   0  0  0  0  0  0  0  0  0  0  0  0
   39.6560   26.5750   43.7180 H   0  0  0  0  0  0  0  0  0  0  0  0
   39.1970   25.6350   41.8420 N   0  0  0  0  0  0  0  0  0  0  0  0
   40.1870   26.0300   41.0390 C   0  0  0  0  0  0  0  0  0  0  0  0
   40.4740   25.2550   39.9390 C   0  0  0  0  0  0  0  0  0  0  0  0
   39.7670   24.0990   39.6560 C   0  0  0  0  0  0  0  0  0  0  0  0
   40.0670   23.4360   38.6480 O   0  0  0  0  0  0  0  0  0  0  0  0
   38.7690   23.7250   40.4890 N   0  0  0  0  0  0  0  0  0  0  0  0
   38.4880   24.4900   41.5720 C   0  0  0  0  0  0  0  0  0  0  0  0
   37.5460   24.0850   42.3080 O   0  0  0  0  0  0  0  0  0  0  0  0
   40.7610   26.9370   41.2380 H   0  0  0  0  0  0  0  0  0  0  0  0
   41.2790   25.5460   39.2560 H   0  0  0  0  0  0  0  0  0  0  0  0
   38.2230   22.8650   40.3030 H   0  0  0  0  0  0  0  0  0  0  0  0
   36.2190   30.9890   41.1980 O   0  0  0  0  0  0  0  0  0  0  0  0
   36.8220   31.6980   40.1670 C   0  0  0  0  0  0  0  0  0  0  0  0
   36.8410   31.1210   38.9320 N   0  0  0  0  0  0  0  0  0  0  0  0
   37.4640   31.9680   38.0940 C   0  0  0  0  0  0  0  0  0  0  0  0
   37.6350   31.7840   37.0370 H   0  0  0  0  0  0  0  0  0  0  0  0
   37.8320   33.0580   38.7900 N   0  0  0  0  0  0  0  0  0  0  0  0
   38.3340   33.9000   38.4330 H   0  0  0  0  0  0  0  0  0  0  0  0
   37.4460   32.8950   40.0300 N   0  0  0  0  0  0  0  0  0  0  0  0
  1  2  1  0  0  0  0
  2  3  2  0  0  0  0
  2  9  1  0  0  0  0
  3  8  1  0  0  0  0
  4  3  1  0  0  0  0
  5  4  2  0  0  0  0
  6  5  1  0  0  0  0
  6  1  2  0  0  0  0
  7  1  1  0  0  0  0
  9 10  1  0  0  0  0
  9 11  1  0  0  0  0
 12  9  1  0  0  0  0
 13 20  1  0  0  0  0
 13 12  1  0  0  0  0
 14 13  2  0  0  0  0
 15 14  1  0  0  0  0
 15 17  1  0  0  0  0
 16 15  2  0  0  0  0
 17 18  1  0  0  0  0
 18 12  1  0  0  0  0
 18 19  2  0  0  0  0
 21 14  1  0  0  0  0
 22 17  1  0  0  0  0
 23  5  1  0  0  0  0
 24 23  1  0  0  0  0
 25 24  1  0  0  0  0
 26 28  1  0  0  0  0
 26 25  2  0  0  0  0
 27 26  1  0  0  0  0
 28 30  1  0  0  0  0
 29 28  1  0  0  0  0
 30 24  2  0  0  0  0
M  END
>  <minimizedAffinity>
-4.918221

$$$$

 OpenBabel03242515293D

 30 32  0  0  0  0  0  0  0  0999 V2000
   36.3710   29.1970   41.2120 C   0  0  0  0  0  0  0  0  0  0  0  0
   37.2660   30.2750   41.3070 C   0  0  0  0  0  0  0  0  0  0  0  0
   38.4230   30.0540   42.0220 C   0  0  0  0  0  0  0  0  0  0  0  0
   38.6460   28.8480   42.5880 N   0  0  0  0  0  0  0  0  0  0  0  0
   37.7390   27.8490   42.4590 C   0  0  0  0  0  0  0  0  0  0  0  0
   36.5800   27.9850   41.7730 N   0  0  0  0  0  0  0  0  0  0  0  0
   35.4480   29.3270   40.6590 H   0  0  0  0  0  0  0  0  0  0  0  0
   39.1200   30.8790   42.1010 H   0  0  0  0  0  0  0  0  0  0  0  0
   36.8850   31.5240   40.6450 C   0  0  0  0  0  0  0  0  0  0  0  0
   36.4500   32.1810   41.4510 H   0  0  0  0  0  0  0  0  0  0  0  0
   36.0830   31.3680   39.9290 H   0  0  0  0  0  0  0  0  0  0  0  0
   38.0790   32.1410   40.1110 N   0  0  0  0  0  0  0  0  0  0  0  0
   38.8100   32.9670   40.8620 C   0  0  0  0  0  0  0  0  0  0  0  0
   39.9350   33.5260   40.3000 C   0  0  0  0  0  0  0  0  0  0  0  0
   40.3120   33.2530   38.9970 C   0  0  0  0  0  0  0  0  0  0  0  0
   41.3370   33.7850   38.5380 O   0  0  0  0  0  0  0  0  0  0  0  0
   39.5510   32.4120   38.2600 N   0  0  0  0  0  0  0  0  0  0  0  0
   38.4430   31.8620   38.8160 C   0  0  0  0  0  0  0  0  0  0  0  0
   37.7770   31.0870   38.0750 O   0  0  0  0  0  0  0  0  0  0  0  0
   38.5370   33.2000   41.8930 H   0  0  0  0  0  0  0  0  0  0  0  0
   40.5610   34.2080   40.8850 H   0  0  0  0  0  0  0  0  0  0  0  0
   39.8080   32.1890   37.2820 H   0  0  0  0  0  0  0  0  0  0  0  0
   37.9540   26.5950   43.0410 O   0  0  0  0  0  0  0  0  0  0  0  0
   37.8390   25.5020   42.1930 C   0  0  0  0  0  0  0  0  0  0  0  0
   38.8230   25.3150   41.2670 N   0  0  0  0  0  0  0  0  0  0  0  0
   38.5160   24.2140   40.5610 C   0  0  0  0  0  0  0  0  0  0  0  0
   39.1130   23.8100   39.7480 H   0  0  0  0  0  0  0  0  0  0  0  0
   37.3600   23.7150   41.0330 N   0  0  0  0  0  0  0  0  0  0  0  0
   36.8510   22.8670   40.7020 H   0  0  0  0  0  0  0  0  0  0  0  0
   36.9570   24.4870   42.0110 N   0  0  0  0  0  0  0  0  0  0  0  0
  1  2  2  0  0  0  0
  1  6  1  0  0  0  0
  2  3  1  0  0  0  0
  3  8  1  0  0  0  0
  3  4  2  0  0  0  0
  5  4  1  0  0  0  0
  5 23  1  0  0  0  0
  6  5  2  0  0  0  0
  7  1  1  0  0  0  0
  9  2  1  0  0  0  0
  9 10  1  0  0  0  0
 11  9  1  0  0  0  0
 12  9  1  0  0  0  0
 12 13  1  0  0  0  0
 13 20  1  0  0  0  0
 14 13  2  0  0  0  0
 14 21  1  0  0  0  0
 15 14  1  0  0  0  0
 16 15  2  0  0  0  0
 17 18  1  0  0  0  0
 17 15  1  0  0  0  0
 18 12  1  0  0  0  0
 19 18  2  0  0  0  0
 22 17  1  0  0  0  0
 24 23  1  0  0  0  0
 25 24  1  0  0  0  0
 26 28  1  0  0  0  0
 26 25  2  0  0  0  0
 27 26  1  0  0  0  0
 28 30  1  0  0  0  0
 29 28  1  0  0  0  0
 30 24  2  0  0  0  0
M  END
>  <minimizedAffinity>
-4.91196537

$$$$

 OpenBabel03242515293D

 30 32  0  0  0  0  0  0  0  0999 V2000
   38.0630   30.0490   41.4060 C   0  0  0  0  0  0  0  0  0  0  0  0
   36.7970   29.9430   40.8040 C   0  0  0  0  0  0  0  0  0  0  0  0
   36.0040   28.8970   41.2220 C   0  0  0  0  0  0  0  0  0  0  0  0
   36.4560   28.0380   42.1610 N   0  0  0  0  0  0  0  0  0  0  0  0
   37.6900   28.1970   42.7010 C   0  0  0  0  0  0  0  0  0  0  0  0
   38.5300   29.1990   42.3470 N   0  0  0  0  0  0  0  0  0  0  0  0
   38.7200   30.8580   41.1080 H   0  0  0  0  0  0  0  0  0  0  0  0
   35.0260   28.8060   40.7650 H   0  0  0  0  0  0  0  0  0  0  0  0
   36.4470   30.9450   39.7970 C   0  0  0  0  0  0  0  0  0  0  0  0
   37.2070   31.7700   39.9050 H   0  0  0  0  0  0  0  0  0  0  0  0
   35.4850   31.4030   40.0070 H   0  0  0  0  0  0  0  0  0  0  0  0
   36.5710   30.3410   38.4880 N   0  0  0  0  0  0  0  0  0  0  0  0
   35.6150   29.5380   38.0190 C   0  0  0  0  0  0  0  0  0  0  0  0
   35.7880   28.9900   36.7680 C   0  0  0  0  0  0  0  0  0  0  0  0
   36.9140   29.2520   36.0060 C   0  0  0  0  0  0  0  0  0  0  0  0
   37.0210   28.7310   34.8830 O   0  0  0  0  0  0  0  0  0  0  0  0
   37.8660   30.0710   36.5100 N   0  0  0  0  0  0  0  0  0  0  0  0
   37.6930   30.6090   37.7420 C   0  0  0  0  0  0  0  0  0  0  0  0
   38.6180   31.3640   38.1520 O   0  0  0  0  0  0  0  0  0  0  0  0
   34.7170   29.3140   38.5970 H   0  0  0  0  0  0  0  0  0  0  0  0
   35.0260   28.3250   36.3480 H   0  0  0  0  0  0  0  0  0  0  0  0
   38.7180   30.2850   35.9630 H   0  0  0  0  0  0  0  0  0  0  0  0
   38.1750   27.3160   43.6730 O   0  0  0  0  0  0  0  0  0  0  0  0
   38.6200   26.0840   43.2110 C   0  0  0  0  0  0  0  0  0  0  0  0
   39.8780   25.6940   43.5660 N   0  0  0  0  0  0  0  0  0  0  0  0
   40.1010   24.4870   43.0200 C   0  0  0  0  0  0  0  0  0  0  0  0
   41.0200   23.9170   43.1250 H   0  0  0  0  0  0  0  0  0  0  0  0
   39.0050   24.1230   42.3310 N   0  0  0  0  0  0  0  0  0  0  0  0
   38.8550   23.2430   41.7920 H   0  0  0  0  0  0  0  0  0  0  0  0
   38.1190   25.0810   42.4480 N   0  0  0  0  0  0  0  0  0  0  0  0
  1  6  1  0  0  0  0
  2  3  1  0  0  0  0
  2  1  2  0  0  0  0
  3  4  2  0  0  0  0
  4  5  1  0  0  0  0
  5 23  1  0  0  0  0
  6  5  2  0  0  0  0
  7  1  1  0  0  0  0
  8  3  1  0  0  0  0
  9 10  1  0  0  0  0
  9 11  1  0  0  0  0
  9  2  1  0  0  0  0
 12  9  1  0  0  0  0
 13 12  1  0  0  0  0
 13 20  1  0  0  0  0
 14 13  2  0  0  0  0
 15 17  1  0  0  0  0
 15 14  1  0  0  0  0
 16 15  2  0  0  0  0
 17 18  1  0  0  0  0
 18 19  2  0  0  0  0
 18 12  1  0  0  0  0
 21 14  1  0  0  0  0
 22 17  1  0  0  0  0
 24 25  1  0  0  0  0
 24 23  1  0  0  0  0
 26 27  1  0  0  0  0
 26 25  2  0  0  0  0
 28 30  1  0  0  0  0
 28 26  1  0  0  0  0
 29 28  1  0  0  0  0
 30 24  2  0  0  0  0
M  END
>  <minimizedAffinity>
-4.82694769

$$$$
