
 OpenBabel03242510383D

 29 31  0  0  0  0  0  0  0  0999 V2000
   47.4900   31.8300   44.7330 Cl  0  0  0  0  0  0  0  0  0  0  0  0
   46.6820   31.9050   46.2970 C   0  0  0  0  0  0  0  0  0  0  0  0
   45.8150   32.9660   46.5320 C   0  0  0  0  0  0  0  0  0  0  0  0
   45.1990   33.0270   47.7340 C   0  0  0  0  0  0  0  0  0  0  0  0
   45.4640   32.0200   48.6790 C   0  0  0  0  0  0  0  0  0  0  0  0
   46.3200   30.9780   48.4380 C   0  0  0  0  0  0  0  0  0  0  0  0
   46.9510   30.9130   47.2120 C   0  0  0  0  0  0  0  0  0  0  0  0
   44.5120   33.8340   47.9730 H   0  0  0  0  0  0  0  0  0  0  0  0
   44.9920   32.0290   49.6570 H   0  0  0  0  0  0  0  0  0  0  0  0
   46.5330   30.2020   49.1460 H   0  0  0  0  0  0  0  0  0  0  0  0
   44.5360   35.8730   44.7300 C   0  0  0  0  0  0  0  0  0  0  0  0
   45.2080   35.8210   43.4850 C   0  0  0  0  0  0  0  0  0  0  0  0
   46.1060   34.7560   43.3070 C   0  0  0  0  0  0  0  0  0  0  0  0
   46.2660   33.8670   44.3160 N   0  0  0  0  0  0  0  0  0  0  0  0
   45.6070   33.9550   45.4790 C   0  0  0  0  0  0  0  0  0  0  0  0
   44.7410   34.9580   45.6880 N   0  0  0  0  0  0  0  0  0  0  0  0
   43.8350   36.6880   44.8920 H   0  0  0  0  0  0  0  0  0  0  0  0
   45.0300   36.5690   42.7230 H   0  0  0  0  0  0  0  0  0  0  0  0
   46.7760   34.7420   42.0100 C   0  0  0  0  0  0  0  0  0  0  0  0
   47.5410   33.5710   41.9190 F   0  0  0  0  0  0  0  0  0  0  0  0
   47.6750   35.7690   42.0000 F   0  0  0  0  0  0  0  0  0  0  0  0
   45.9050   34.7310   40.9410 F   0  0  0  0  0  0  0  0  0  0  0  0
   47.8760   29.8290   46.8880 C   0  0  0  0  0  0  0  0  0  0  0  0
   47.6910   28.7280   46.1320 N   0  0  0  0  0  0  0  0  0  0  0  0
   48.8370   27.9900   46.1070 C   0  0  0  0  0  0  0  0  0  0  0  0
   48.8020   27.0780   45.5250 H   0  0  0  0  0  0  0  0  0  0  0  0
   49.7220   28.6650   46.8630 N   0  0  0  0  0  0  0  0  0  0  0  0
   50.6770   28.2540   46.9680 H   0  0  0  0  0  0  0  0  0  0  0  0
   49.1510   29.7620   47.3300 N   0  0  0  0  0  0  0  0  0  0  0  0
  1  2  1  0  0  0  0
  2  3  2  0  0  0  0
  2  7  1  0  0  0  0
  3  4  1  0  0  0  0
  4  8  1  0  0  0  0
  4  5  2  0  0  0  0
  5  9  1  0  0  0  0
  6  5  1  0  0  0  0
  6 10  1  0  0  0  0
  7  6  2  0  0  0  0
 11 17  1  0  0  0  0
 11 16  1  0  0  0  0
 12 11  2  0  0  0  0
 13 12  1  0  0  0  0
 13 14  2  0  0  0  0
 14 15  1  0  0  0  0
 15 16  2  0  0  0  0
 15  3  1  0  0  0  0
 18 12  1  0  0  0  0
 19 13  1  0  0  0  0
 20 19  1  0  0  0  0
 21 19  1  0  0  0  0
 22 19  1  0  0  0  0
 23  7  1  0  0  0  0
 23 29  2  0  0  0  0
 24 23  1  0  0  0  0
 25 24  2  0  0  0  0
 25 27  1  0  0  0  0
 26 25  1  0  0  0  0
 27 28  1  0  0  0  0
 27 29  1  0  0  0  0
M  END
>  <minimizedAffinity>
-5.84152079

>  <minimizedRMSD>
0.123487413

$$$$
