
 OpenBabel03252506563D

 36 40  0  0  0  0  0  0  0  0999 V2000
   47.2420   31.3460   45.1550 C   0  0  0  0  0  0  0  0  0  0  0  0
   46.8900   32.6780   45.1240 C   0  0  0  0  0  0  0  0  0  0  0  0
   46.2800   33.3120   46.1830 C   0  0  0  0  0  0  0  0  0  0  0  0
   45.9890   32.6090   47.3570 C   0  0  0  0  0  0  0  0  0  0  0  0
   45.4170   32.8970   48.5530 N   0  0  0  0  0  0  0  0  0  0  0  0
   45.4170   31.7640   49.3070 C   0  0  0  0  0  0  0  0  0  0  0  0
   45.9900   30.7970   48.5570 N   0  0  0  0  0  0  0  0  0  0  0  0
   46.3520   31.2810   47.3590 C   0  0  0  0  0  0  0  0  0  0  0  0
   46.9540   30.6310   46.3310 C   0  0  0  0  0  0  0  0  0  0  0  0
   47.7210   30.8500   44.3230 H   0  0  0  0  0  0  0  0  0  0  0  0
   45.9880   34.3620   46.1950 H   0  0  0  0  0  0  0  0  0  0  0  0
   45.0670   33.8750   48.7510 H   0  0  0  0  0  0  0  0  0  0  0  0
   45.0150   31.7260   50.3060 H   0  0  0  0  0  0  0  0  0  0  0  0
   46.5600   35.1460   42.4150 C   0  0  0  0  0  0  0  0  0  0  0  0
   47.7200   34.9330   41.6680 C   0  0  0  0  0  0  0  0  0  0  0  0
   48.6130   33.9380   42.0990 C   0  0  0  0  0  0  0  0  0  0  0  0
   48.3080   33.2240   43.2300 N   0  0  0  0  0  0  0  0  0  0  0  0
   47.1680   33.4660   43.9270 C   0  0  0  0  0  0  0  0  0  0  0  0
   46.3160   34.4110   43.5200 N   0  0  0  0  0  0  0  0  0  0  0  0
   45.8890   35.9200   42.0600 H   0  0  0  0  0  0  0  0  0  0  0  0
   48.0050   35.4680   40.7720 H   0  0  0  0  0  0  0  0  0  0  0  0
   49.5210   33.6930   41.6080 H   0  0  0  0  0  0  0  0  0  0  0  0
   47.3020   29.2050   46.4330 C   0  0  0  0  0  0  0  0  0  0  0  0
   48.5880   28.7030   46.3420 C   0  0  0  0  0  0  0  0  0  0  0  0
   48.4210   27.3220   46.4960 C   0  0  0  0  0  0  0  0  0  0  0  0
   47.0600   27.0650   46.6700 C   0  0  0  0  0  0  0  0  0  0  0  0
   46.4310   28.2380   46.6230 O   0  0  0  0  0  0  0  0  0  0  0  0
   49.4990   29.2430   46.1890 H   0  0  0  0  0  0  0  0  0  0  0  0
   49.1970   26.5700   46.4850 H   0  0  0  0  0  0  0  0  0  0  0  0
   46.5070   25.7300   46.8620 C   0  0  0  0  0  0  0  0  0  0  0  0
   46.3590   24.8340   47.8590 N   0  0  0  0  0  0  0  0  0  0  0  0
   45.7400   23.7390   47.3780 C   0  0  0  0  0  0  0  0  0  0  0  0
   45.4770   22.8490   47.9160 H   0  0  0  0  0  0  0  0  0  0  0  0
   45.4970   23.9530   46.0590 N   0  0  0  0  0  0  0  0  0  0  0  0
   45.0220   23.2840   45.3880 H   0  0  0  0  0  0  0  0  0  0  0  0
   45.9650   25.1550   45.7700 N   0  0  0  0  0  0  0  0  0  0  0  0
  1  9  1  0  0  0  0
  2  1  2  0  0  0  0
  2  3  1  0  0  0  0
  3 11  1  0  0  0  0
  3  4  2  0  0  0  0
  4  8  1  0  0  0  0
  4  5  1  0  0  0  0
  5 12  1  0  0  0  0
  5  6  1  0  0  0  0
  6 13  1  0  0  0  0
  7  6  2  0  0  0  0
  8  7  1  0  0  0  0
  9 23  1  0  0  0  0
  9  8  2  0  0  0  0
 10  1  1  0  0  0  0
 14 19  1  0  0  0  0
 15 16  1  0  0  0  0
 15 14  2  0  0  0  0
 16 17  2  0  0  0  0
 17 18  1  0  0  0  0
 18  2  1  0  0  0  0
 19 18  2  0  0  0  0
 20 14  1  0  0  0  0
 21 15  1  0  0  0  0
 22 16  1  0  0  0  0
 23 27  1  0  0  0  0
 24 23  2  0  0  0  0
 24 25  1  0  0  0  0
 25 26  2  0  0  0  0
 26 30  1  0  0  0  0
 27 26  1  0  0  0  0
 28 24  1  0  0  0  0
 29 25  1  0  0  0  0
 30 31  1  0  0  0  0
 32 31  2  0  0  0  0
 32 33  1  0  0  0  0
 34 32  1  0  0  0  0
 35 34  1  0  0  0  0
 36 34  1  0  0  0  0
 36 30  2  0  0  0  0
M  END
>  <minimizedAffinity>
-5.33310652

>  <minimizedRMSD>
0.388524175

$$$$
