
 OpenBabel03242513173D

 35 38  0  0  0  0  0  0  0  0999 V2000
   44.8860   30.7230   47.7710 Cl  0  0  0  0  0  0  0  0  0  0  0  0
   46.0430   30.0990   46.5900 C   0  0  0  0  0  0  0  0  0  0  0  0
   46.9440   30.9440   45.9980 C   0  0  0  0  0  0  0  0  0  0  0  0
   47.8230   30.4160   45.1010 C   0  0  0  0  0  0  0  0  0  0  0  0
   47.8040   29.0710   44.7990 C   0  0  0  0  0  0  0  0  0  0  0  0
   46.8920   28.2190   45.3970 C   0  0  0  0  0  0  0  0  0  0  0  0
   46.0030   28.7580   46.3060 C   0  0  0  0  0  0  0  0  0  0  0  0
   48.5320   31.1010   44.6420 H   0  0  0  0  0  0  0  0  0  0  0  0
   48.5320   28.7240   44.0770 H   0  0  0  0  0  0  0  0  0  0  0  0
   46.9240   27.1940   45.1240 H   0  0  0  0  0  0  0  0  0  0  0  0
   45.0810   27.7790   46.8760 C   0  0  0  0  0  0  0  0  0  0  0  0
   43.9170   27.2400   46.3490 C   0  0  0  0  0  0  0  0  0  0  0  0
   43.3330   26.3390   47.2080 C   0  0  0  0  0  0  0  0  0  0  0  0
   44.2030   26.3610   48.2820 C   0  0  0  0  0  0  0  0  0  0  0  0
   45.1700   27.1940   48.0340 O   0  0  0  0  0  0  0  0  0  0  0  0
   43.5210   27.5120   45.3570 H   0  0  0  0  0  0  0  0  0  0  0  0
   42.4270   25.7650   47.0750 H   0  0  0  0  0  0  0  0  0  0  0  0
   44.1000   25.7700   49.2050 H   0  0  0  0  0  0  0  0  0  0  0  0
   46.9120   32.3620   46.3520 C   0  0  0  0  0  0  0  0  0  0  0  0
   47.2950   32.6830   47.4980 O   0  0  0  0  0  0  0  0  0  0  0  0
   44.8810   34.9560   44.8330 C   0  0  0  0  0  0  0  0  0  0  0  0
   45.4810   35.2410   43.5970 C   0  0  0  0  0  0  0  0  0  0  0  0
   46.6090   34.4970   43.3180 C   0  0  0  0  0  0  0  0  0  0  0  0
   47.0530   33.5720   44.2250 N   0  0  0  0  0  0  0  0  0  0  0  0
   46.4460   33.3440   45.3820 C   0  0  0  0  0  0  0  0  0  0  0  0
   45.3450   34.0510   45.6840 N   0  0  0  0  0  0  0  0  0  0  0  0
   43.9870   35.5140   45.1050 H   0  0  0  0  0  0  0  0  0  0  0  0
   45.0970   35.9740   42.9210 H   0  0  0  0  0  0  0  0  0  0  0  0
   47.3410   34.6810   42.0710 C   0  0  0  0  0  0  0  0  0  0  0  0
   47.1090   34.0430   40.9080 N   0  0  0  0  0  0  0  0  0  0  0  0
   48.0060   34.4930   39.9830 C   0  0  0  0  0  0  0  0  0  0  0  0
   47.9240   34.0580   39.0120 H   0  0  0  0  0  0  0  0  0  0  0  0
   48.7880   35.4190   40.6140 N   0  0  0  0  0  0  0  0  0  0  0  0
   49.5480   35.8810   40.0470 H   0  0  0  0  0  0  0  0  0  0  0  0
   48.3710   35.5250   41.8860 N   0  0  0  0  0  0  0  0  0  0  0  0
  2  1  1  0  0  0  0
  3 19  1  0  0  0  0
  3  2  2  0  0  0  0
  4  3  1  0  0  0  0
  5  4  2  0  0  0  0
  5  6  1  0  0  0  0
  6  7  2  0  0  0  0
  7  2  1  0  0  0  0
  7 11  1  0  0  0  0
  8  4  1  0  0  0  0
  9  5  1  0  0  0  0
 10  6  1  0  0  0  0
 11 15  1  0  0  0  0
 12 11  2  0  0  0  0
 12 13  1  0  0  0  0
 13 14  2  0  0  0  0
 14 18  1  0  0  0  0
 15 14  1  0  0  0  0
 16 12  1  0  0  0  0
 17 13  1  0  0  0  0
 19 20  2  0  0  0  0
 21 27  1  0  0  0  0
 21 26  1  0  0  0  0
 22 21  2  0  0  0  0
 23 22  1  0  0  0  0
 23 24  2  0  0  0  0
 24 25  1  0  0  0  0
 25 26  2  0  0  0  0
 25 19  1  0  0  0  0
 28 22  1  0  0  0  0
 29 23  1  0  0  0  0
 30 29  1  0  0  0  0
 31 33  1  0  0  0  0
 31 30  2  0  0  0  0
 32 31  1  0  0  0  0
 33 35  1  0  0  0  0
 34 33  1  0  0  0  0
 35 29  2  0  0  0  0
M  END
>  <minimizedAffinity>
-5.99945736

>  <minimizedRMSD>
0.531984448

$$$$
