
 OpenBabel03242514133D

 32 34  0  0  0  0  0  0  0  0999 V2000
   48.0030   34.1970   42.6290 C   0  0  0  0  0  0  0  0  0  0  0  0
   47.2120   34.1260   41.3620 C   0  0  0  0  0  0  0  0  0  0  0  0
   47.9600   34.5350   40.2180 C   0  0  0  0  0  0  0  0  0  0  0  0
   48.9180   35.7170   40.3100 C   0  0  0  0  0  0  0  0  0  0  0  0
   49.1920   36.1310   41.7470 C   0  0  0  0  0  0  0  0  0  0  0  0
   49.2840   34.8740   42.6070 C   0  0  0  0  0  0  0  0  0  0  0  0
   47.3980   34.8430   43.3480 H   0  0  0  0  0  0  0  0  0  0  0  0
   46.1830   34.5780   41.5020 H   0  0  0  0  0  0  0  0  0  0  0  0
   46.9420   33.0310   41.2320 H   0  0  0  0  0  0  0  0  0  0  0  0
   48.2600   33.8400   39.4140 H   0  0  0  0  0  0  0  0  0  0  0  0
   47.1200   35.0570   39.5680 H   0  0  0  0  0  0  0  0  0  0  0  0
   49.9040   35.3490   39.9060 H   0  0  0  0  0  0  0  0  0  0  0  0
   48.6420   36.5990   39.7540 H   0  0  0  0  0  0  0  0  0  0  0  0
   48.3600   36.7720   42.1020 H   0  0  0  0  0  0  0  0  0  0  0  0
   50.1600   36.6600   41.7930 H   0  0  0  0  0  0  0  0  0  0  0  0
   50.1970   34.4090   42.3010 H   0  0  0  0  0  0  0  0  0  0  0  0
   49.5180   35.2880   43.6410 H   0  0  0  0  0  0  0  0  0  0  0  0
   48.0780   32.9080   43.3280 C   0  0  0  0  0  0  0  0  0  0  0  0
   48.9750   32.0320   42.7520 C   0  0  0  0  0  0  0  0  0  0  0  0
   48.9530   30.7480   43.3260 C   0  0  0  0  0  0  0  0  0  0  0  0
   48.1050   30.4800   44.3610 N   0  0  0  0  0  0  0  0  0  0  0  0
   47.2630   31.3870   44.8830 C   0  0  0  0  0  0  0  0  0  0  0  0
   47.2490   32.6110   44.3610 N   0  0  0  0  0  0  0  0  0  0  0  0
   49.5120   29.8500   43.1090 H   0  0  0  0  0  0  0  0  0  0  0  0
   46.5940   31.2040   45.6950 H   0  0  0  0  0  0  0  0  0  0  0  0
   50.0180   31.9900   41.7450 C   0  0  0  0  0  0  0  0  0  0  0  0
   49.9100   31.4730   40.5050 N   0  0  0  0  0  0  0  0  0  0  0  0
   51.1340   31.5290   39.9610 C   0  0  0  0  0  0  0  0  0  0  0  0
   51.2300   31.1490   38.9500 H   0  0  0  0  0  0  0  0  0  0  0  0
   52.0050   32.0630   40.8200 N   0  0  0  0  0  0  0  0  0  0  0  0
   53.0230   32.2000   40.6000 H   0  0  0  0  0  0  0  0  0  0  0  0
   51.3130   32.3350   41.8910 N   0  0  0  0  0  0  0  0  0  0  0  0
  1 18  1  0  0  0  0
  1  7  1  0  0  0  0
  2  8  1  0  0  0  0
  2  1  1  0  0  0  0
  3  4  1  0  0  0  0
  3  2  1  0  0  0  0
  4  5  1  0  0  0  0
  5 15  1  0  0  0  0
  5 14  1  0  0  0  0
  5  6  1  0  0  0  0
  6  1  1  0  0  0  0
  6 17  1  0  0  0  0
  9  2  1  0  0  0  0
 10  3  1  0  0  0  0
 11  3  1  0  0  0  0
 12  4  1  0  0  0  0
 13  4  1  0  0  0  0
 16  6  1  0  0  0  0
 18 23  1  0  0  0  0
 19 20  1  0  0  0  0
 19 18  2  0  0  0  0
 20 21  2  0  0  0  0
 21 22  1  0  0  0  0
 22 25  1  0  0  0  0
 23 22  2  0  0  0  0
 24 20  1  0  0  0  0
 26 32  2  0  0  0  0
 26 19  1  0  0  0  0
 27 26  1  0  0  0  0
 28 27  2  0  0  0  0
 28 30  1  0  0  0  0
 29 28  1  0  0  0  0
 30 32  1  0  0  0  0
 31 30  1  0  0  0  0
M  END
>  <minimizedAffinity>
-4.77735138

>  <minimizedRMSD>
3.23162627

$$$$
