
 OpenBabel03242516093D

 23 25  0  0  0  0  0  0  0  0999 V2000
   48.1120   34.8790   41.6580 C   0  0  0  0  0  0  0  0  0  0  0  0
   49.1060   35.9770   41.7610 C   0  0  0  0  0  0  0  0  0  0  0  0
   49.5300   34.5860   42.0040 C   0  0  0  0  0  0  0  0  0  0  0  0
   49.4900   36.4810   40.8460 H   0  0  0  0  0  0  0  0  0  0  0  0
   49.0330   36.6370   42.6490 H   0  0  0  0  0  0  0  0  0  0  0  0
   50.1830   34.0410   41.2780 H   0  0  0  0  0  0  0  0  0  0  0  0
   49.7020   34.2030   43.0400 H   0  0  0  0  0  0  0  0  0  0  0  0
   45.9920   35.6460   42.7710 C   0  0  0  0  0  0  0  0  0  0  0  0
   47.0760   34.7660   42.7260 C   0  0  0  0  0  0  0  0  0  0  0  0
   47.1680   33.7650   43.7180 C   0  0  0  0  0  0  0  0  0  0  0  0
   46.1800   33.7100   44.6780 N   0  0  0  0  0  0  0  0  0  0  0  0
   45.1590   34.5680   44.6880 C   0  0  0  0  0  0  0  0  0  0  0  0
   45.0640   35.5280   43.7440 N   0  0  0  0  0  0  0  0  0  0  0  0
   45.9200   36.4130   42.0150 H   0  0  0  0  0  0  0  0  0  0  0  0
   48.0150   33.0960   43.6620 H   0  0  0  0  0  0  0  0  0  0  0  0
   44.4250   34.4590   45.4760 H   0  0  0  0  0  0  0  0  0  0  0  0
   47.6760   34.3640   40.3480 C   0  0  0  0  0  0  0  0  0  0  0  0
   46.5810   33.5720   40.3470 N   0  0  0  0  0  0  0  0  0  0  0  0
   46.2900   33.1710   39.1030 C   0  0  0  0  0  0  0  0  0  0  0  0
   45.4540   32.5240   38.8290 H   0  0  0  0  0  0  0  0  0  0  0  0
   47.2410   33.7380   38.3050 N   0  0  0  0  0  0  0  0  0  0  0  0
   47.2320   33.5750   37.2860 H   0  0  0  0  0  0  0  0  0  0  0  0
   48.0480   34.4420   39.0840 N   0  0  0  0  0  0  0  0  0  0  0  0
  1  2  1  0  0  0  0
  1  3  1  0  0  0  0
  1  9  1  0  0  0  0
  2  3  1  0  0  0  0
  2  5  1  0  0  0  0
  3  7  1  0  0  0  0
  4  2  1  0  0  0  0
  6  3  1  0  0  0  0
  8 13  1  0  0  0  0
  9  8  2  0  0  0  0
  9 10  1  0  0  0  0
 10 11  2  0  0  0  0
 11 12  1  0  0  0  0
 12 16  1  0  0  0  0
 13 12  2  0  0  0  0
 14  8  1  0  0  0  0
 15 10  1  0  0  0  0
 17  1  1  0  0  0  0
 18 17  1  0  0  0  0
 19 18  2  0  0  0  0
 20 19  1  0  0  0  0
 21 23  1  0  0  0  0
 21 19  1  0  0  0  0
 22 21  1  0  0  0  0
 23 17  2  0  0  0  0
M  END
>  <minimizedAffinity>
-4.71238422

>  <minimizedRMSD>
1.59748411

$$$$
