
 OpenBabel03252506203D

 31 33  0  0  0  0  0  0  0  0999 V2000
   45.2360   36.5330   43.2780 C   0  0  0  0  0  0  0  0  0  0  0  0
   43.9720   35.9930   42.9380 C   0  0  0  0  0  0  0  0  0  0  0  0
   43.9450   34.6460   42.5110 C   0  0  0  0  0  0  0  0  0  0  0  0
   45.1100   33.9580   42.4520 N   0  0  0  0  0  0  0  0  0  0  0  0
   46.2890   34.5230   42.7880 C   0  0  0  0  0  0  0  0  0  0  0  0
   46.3580   35.8060   43.2020 N   0  0  0  0  0  0  0  0  0  0  0  0
   43.0460   36.5110   42.9760 H   0  0  0  0  0  0  0  0  0  0  0  0
   43.0520   34.1260   42.2260 H   0  0  0  0  0  0  0  0  0  0  0  0
   48.6710   35.8940   41.5040 Cl  0  0  0  0  0  0  0  0  0  0  0  0
   48.6360   34.2690   42.1070 C   0  0  0  0  0  0  0  0  0  0  0  0
   47.4970   33.6960   42.6910 C   0  0  0  0  0  0  0  0  0  0  0  0
   47.4460   32.4160   43.1730 C   0  0  0  0  0  0  0  0  0  0  0  0
   48.5940   31.6730   43.0660 C   0  0  0  0  0  0  0  0  0  0  0  0
   49.7790   32.1340   42.5070 C   0  0  0  0  0  0  0  0  0  0  0  0
   49.7380   33.4430   42.0440 C   0  0  0  0  0  0  0  0  0  0  0  0
   46.5480   32.0150   43.6150 H   0  0  0  0  0  0  0  0  0  0  0  0
   48.5940   30.6610   43.4330 H   0  0  0  0  0  0  0  0  0  0  0  0
   50.6770   31.5450   42.4240 H   0  0  0  0  0  0  0  0  0  0  0  0
   50.6370   33.8490   41.5990 H   0  0  0  0  0  0  0  0  0  0  0  0
   45.2430   37.9310   43.7200 C   0  0  0  0  0  3  0  0  0  0  0  0
   45.3900   38.8610   42.8080 C   0  0  0  0  0  3  0  0  0  0  0  0
   45.4090   40.3070   43.1710 C   0  0  0  0  0  0  0  0  0  0  0  0
   44.6270   40.8550   42.6180 H   0  0  0  0  0  0  0  0  0  0  0  0
   46.4100   40.7360   42.9240 H   0  0  0  0  0  0  0  0  0  0  0  0
   45.1540   40.3870   44.6350 C   0  0  0  0  0  0  0  0  0  0  0  0
   44.4250   41.2500   45.3650 N   0  0  0  0  0  0  0  0  0  0  0  0
   44.4870   40.9250   46.6770 C   0  0  0  0  0  0  0  0  0  0  0  0
   43.9770   41.4790   47.4600 H   0  0  0  0  0  0  0  0  0  0  0  0
   45.2830   39.8230   46.7530 N   0  0  0  0  0  0  0  0  0  0  0  0
   45.5110   39.3450   47.6640 H   0  0  0  0  0  0  0  0  0  0  0  0
   45.6800   39.5050   45.5320 N   0  0  0  0  0  0  0  0  0  0  0  0
  1 20  1  0  0  0  0
  2  7  1  0  0  0  0
  2  1  2  0  0  0  0
  3  2  1  0  0  0  0
  4  3  2  0  0  0  0
  4  5  1  0  0  0  0
  5  6  2  0  0  0  0
  6  1  1  0  0  0  0
  8  3  1  0  0  0  0
  9 10  1  0  0  0  0
 10 11  1  0  0  0  0
 11  5  1  0  0  0  0
 11 12  2  0  0  0  0
 12 16  1  0  0  0  0
 13 12  1  0  0  0  0
 13 17  1  0  0  0  0
 14 13  2  0  0  0  0
 15 10  2  0  0  0  0
 15 14  1  0  0  0  0
 18 14  1  0  0  0  0
 19 15  1  0  0  0  0
 21 22  1  0  0  0  0
 21 20  2  0  0  0  0
 22 25  1  0  0  0  0
 23 22  1  0  0  0  0
 24 22  1  0  0  0  0
 25 26  1  0  0  0  0
 25 31  2  0  0  0  0
 26 27  2  0  0  0  0
 27 29  1  0  0  0  0
 27 28  1  0  0  0  0
 29 30  1  0  0  0  0
 31 29  1  0  0  0  0
M  END
>  <minimizedAffinity>
-3.02414131

>  <minimizedRMSD>
1.30241263

$$$$
