
 OpenBabel03242520123D

 32 34  0  0  0  0  0  0  0  0999 V2000
   46.1380   32.5740   46.9360 C   0  0  0  0  0  0  0  0  0  0  0  0
   45.2130   32.5850   47.9310 C   0  0  0  0  0  0  0  0  0  0  0  0
   45.4090   31.7610   49.0230 C   0  0  0  0  0  0  0  0  0  0  0  0
   46.5250   30.9420   49.0980 C   0  0  0  0  0  0  0  0  0  0  0  0
   47.4540   30.9630   48.0450 C   0  0  0  0  0  0  0  0  0  0  0  0
   47.2310   31.7590   47.0290 N   0  0  0  0  0  0  0  0  0  0  0  0
   44.3550   33.2380   47.8380 H   0  0  0  0  0  0  0  0  0  0  0  0
   44.6900   31.7450   49.8340 H   0  0  0  0  0  0  0  0  0  0  0  0
   46.6980   30.2880   49.9430 H   0  0  0  0  0  0  0  0  0  0  0  0
   44.9240   35.0300   44.5310 C   0  0  0  0  0  0  0  0  0  0  0  0
   45.8900   34.9160   43.5030 C   0  0  0  0  0  0  0  0  0  0  0  0
   46.9520   34.0060   43.6230 C   0  0  0  0  0  0  0  0  0  0  0  0
   46.9460   33.2950   44.7660 N   0  0  0  0  0  0  0  0  0  0  0  0
   46.0440   33.4050   45.7240 C   0  0  0  0  0  0  0  0  0  0  0  0
   45.0420   34.2650   45.6060 N   0  0  0  0  0  0  0  0  0  0  0  0
   43.8680   35.9720   44.3400 N   0  0  0  0  0  0  0  0  0  0  0  0
   45.8330   35.5140   42.6190 H   0  0  0  0  0  0  0  0  0  0  0  0
   47.6900   33.9030   42.8620 H   0  0  0  0  0  0  0  0  0  0  0  0
   43.6500   36.3260   43.3850 H   0  0  0  0  0  0  0  0  0  0  0  0
   43.3420   36.2710   45.2130 H   0  0  0  0  0  0  0  0  0  0  0  0
   48.6390   30.1200   48.0820 C   0  0  0  0  0  3  0  0  0  0  0  0
   49.6760   30.3640   48.8690 C   0  0  0  0  0  3  0  0  0  0  0  0
   49.7150   31.5360   49.7950 C   0  0  0  0  0  0  0  0  0  0  0  0
   49.4800   31.1870   50.8070 H   0  0  0  0  0  0  0  0  0  0  0  0
   49.0550   32.3380   49.4460 H   0  0  0  0  0  0  0  0  0  0  0  0
   51.1270   32.0490   49.7080 C   0  0  0  0  0  0  0  0  0  0  0  0
   52.1590   31.3930   49.1580 N   0  0  0  0  0  0  0  0  0  0  0  0
   53.2390   32.1710   49.2740 C   0  0  0  0  0  0  0  0  0  0  0  0
   54.2260   31.9370   48.9330 H   0  0  0  0  0  0  0  0  0  0  0  0
   52.8510   33.3030   49.9000 N   0  0  0  0  0  0  0  0  0  0  0  0
   53.4160   34.1380   50.1630 H   0  0  0  0  0  0  0  0  0  0  0  0
   51.5470   33.2370   50.1720 N   0  0  0  0  0  0  0  0  0  0  0  0
  1  6  2  0  0  0  0
  1  2  1  0  0  0  0
  2  3  2  0  0  0  0
  3  4  1  0  0  0  0
  3  8  1  0  0  0  0
  4  9  1  0  0  0  0
  5 21  1  0  0  0  0
  5  4  2  0  0  0  0
  6  5  1  0  0  0  0
  7  2  1  0  0  0  0
 10 15  1  0  0  0  0
 11 12  1  0  0  0  0
 11 10  2  0  0  0  0
 12 13  2  0  0  0  0
 13 14  1  0  0  0  0
 14  1  1  0  0  0  0
 15 14  2  0  0  0  0
 16 10  1  0  0  0  0
 16 20  1  0  0  0  0
 17 11  1  0  0  0  0
 18 12  1  0  0  0  0
 19 16  1  0  0  0  0
 21 22  2  0  0  0  0
 22 23  1  0  0  0  0
 23 24  1  0  0  0  0
 25 23  1  0  0  0  0
 26 23  1  0  0  0  0
 26 32  2  0  0  0  0
 27 28  2  0  0  0  0
 27 26  1  0  0  0  0
 28 30  1  0  0  0  0
 29 28  1  0  0  0  0
 30 31  1  0  0  0  0
 30 32  1  0  0  0  0
M  END
>  <minimizedAffinity>
-6.27857256

>  <minimizedRMSD>
0.729308724

$$$$
