
 OpenBabel03252507023D

 36 38  0  0  0  0  0  0  0  0999 V2000
   44.2840   32.2120   42.6960 C   0  0  0  0  0  0  0  0  0  0  0  0
   43.5230   32.4500   43.4760 H   0  0  0  0  0  0  0  0  0  0  0  0
   44.9190   31.4410   43.2460 H   0  0  0  0  0  0  0  0  0  0  0  0
   44.8650   33.3200   42.2480 N   0  0  0  0  0  0  0  0  0  0  0  0
   44.6500   33.9920   41.0190 C   0  0  0  0  0  0  0  0  0  0  0  0
   43.7810   35.1630   41.5340 C   0  0  0  0  0  0  0  0  0  0  0  0
   44.4640   36.0020   42.5210 C   0  0  0  0  0  0  0  0  0  0  0  0
   45.5800   35.4330   43.2780 C   0  0  0  0  0  0  0  0  0  0  0  0
   45.8180   33.9530   43.1650 C   0  0  0  0  0  0  0  0  0  0  0  0
   43.9380   33.4020   40.3810 H   0  0  0  0  0  0  0  0  0  0  0  0
   45.4800   34.3340   40.4310 H   0  0  0  0  0  0  0  0  0  0  0  0
   42.8040   34.7280   41.8860 H   0  0  0  0  0  0  0  0  0  0  0  0
   43.5330   35.7530   40.6280 H   0  0  0  0  0  0  0  0  0  0  0  0
   43.7050   36.3490   43.2740 H   0  0  0  0  0  0  0  0  0  0  0  0
   44.8630   36.9430   42.0520 H   0  0  0  0  0  0  0  0  0  0  0  0
   46.2430   35.9440   43.9260 H   0  0  0  0  0  0  0  0  0  0  0  0
   47.0780   33.1450   44.0930 S   0  0  0  0  0  0  0  0  0  0  0  0
   46.4950   32.2620   45.0150 H   0  0  0  0  0  0  0  0  0  0  0  0
   43.5560   31.4480   41.6300 C   0  0  0  0  0  0  0  0  0  0  0  0
   42.9210   32.1670   41.0430 H   0  0  0  0  0  0  0  0  0  0  0  0
   44.1820   30.8850   40.9380 H   0  0  0  0  0  0  0  0  0  0  0  0
   42.6240   30.5190   42.3250 C   0  0  0  0  0  0  0  0  0  0  0  0
   43.0630   29.6210   43.2810 C   0  0  0  0  0  0  0  0  0  0  0  0
   42.1210   28.7830   43.8670 C   0  0  0  0  0  0  0  0  0  0  0  0
   40.8100   28.8820   43.4780 N   0  0  0  0  0  0  0  0  0  0  0  0
   40.4460   29.7700   42.5480 C   0  0  0  0  0  0  0  0  0  0  0  0
   41.3430   30.5680   41.9900 N   0  0  0  0  0  0  0  0  0  0  0  0
   44.1090   29.5810   43.5550 H   0  0  0  0  0  0  0  0  0  0  0  0
   42.4500   28.0710   44.6190 H   0  0  0  0  0  0  0  0  0  0  0  0
   39.0390   29.8650   42.1400 C   0  0  0  0  0  0  0  0  0  0  0  0
   38.4410   30.7930   41.3720 N   0  0  0  0  0  0  0  0  0  0  0  0
   37.1230   30.4790   41.2600 C   0  0  0  0  0  0  0  0  0  0  0  0
   36.3250   30.9810   40.7270 H   0  0  0  0  0  0  0  0  0  0  0  0
   36.9130   29.3640   41.9550 N   0  0  0  0  0  0  0  0  0  0  0  0
   36.0860   28.7670   42.1520 H   0  0  0  0  0  0  0  0  0  0  0  0
   38.0550   29.0010   42.4770 N   0  0  0  0  0  0  0  0  0  0  0  0
  1  3  1  0  0  0  0
  1  2  1  0  0  0  0
  4  1  1  0  0  0  0
  4  9  1  0  0  0  0
  5  6  1  0  0  0  0
  5  4  1  0  0  0  0
  6 12  1  0  0  0  0
  6  7  1  0  0  0  0
  7 14  1  0  0  0  0
  7  8  1  0  0  0  0
  8 16  1  0  0  0  0
  9  8  2  0  0  0  0
  9 17  1  0  0  0  0
 10  5  1  0  0  0  0
 11  5  1  0  0  0  0
 13  6  1  0  0  0  0
 15  7  1  0  0  0  0
 17 18  1  0  0  0  0
 19 22  1  0  0  0  0
 19  1  1  0  0  0  0
 20 19  1  0  0  0  0
 21 19  1  0  0  0  0
 22 23  1  0  0  0  0
 23 28  1  0  0  0  0
 23 24  2  0  0  0  0
 24 29  1  0  0  0  0
 25 24  1  0  0  0  0
 26 25  2  0  0  0  0
 27 22  2  0  0  0  0
 27 26  1  0  0  0  0
 30 36  2  0  0  0  0
 30 26  1  0  0  0  0
 31 30  1  0  0  0  0
 32 31  2  0  0  0  0
 32 34  1  0  0  0  0
 33 32  1  0  0  0  0
 34 35  1  0  0  0  0
 34 36  1  0  0  0  0
M  END
>  <minimizedAffinity>
-4.05389071

>  <minimizedRMSD>
5.6892662

$$$$
