
 OpenBabel03252507033D

 36 38  0  0  0  0  0  0  0  0999 V2000
   37.1130   26.8780   42.9310 C   0  0  0  0  0  0  0  0  0  0  0  0
   36.8420   26.3730   43.8880 H   0  0  0  0  0  0  0  0  0  0  0  0
   36.1510   26.7400   42.3370 H   0  0  0  0  0  0  0  0  0  0  0  0
   38.2470   26.3860   42.4410 N   0  0  0  0  0  0  0  0  0  0  0  0
   39.5740   26.8130   42.6960 C   0  0  0  0  0  0  0  0  0  0  0  0
   40.0040   25.6890   43.6690 C   0  0  0  0  0  0  0  0  0  0  0  0
   39.9470   24.3530   43.0730 C   0  0  0  0  0  0  0  0  0  0  0  0
   39.0700   24.1310   41.9230 C   0  0  0  0  0  0  0  0  0  0  0  0
   38.1050   25.2250   41.5580 C   0  0  0  0  0  0  0  0  0  0  0  0
   39.5630   27.7290   43.3460 H   0  0  0  0  0  0  0  0  0  0  0  0
   40.2720   26.9370   41.8900 H   0  0  0  0  0  0  0  0  0  0  0  0
   39.3970   25.8080   44.6100 H   0  0  0  0  0  0  0  0  0  0  0  0
   41.0460   25.9440   43.9530 H   0  0  0  0  0  0  0  0  0  0  0  0
   39.6290   23.6260   43.8690 H   0  0  0  0  0  0  0  0  0  0  0  0
   40.9670   24.0050   42.7500 H   0  0  0  0  0  0  0  0  0  0  0  0
   39.0150   23.2660   41.3150 H   0  0  0  0  0  0  0  0  0  0  0  0
   36.9460   25.0370   40.2460 S   0  0  0  0  0  0  0  0  0  0  0  0
   35.6410   25.0330   40.7640 H   0  0  0  0  0  0  0  0  0  0  0  0
   37.1860   28.3430   43.2450 C   0  0  0  0  0  0  0  0  0  0  0  0
   36.4330   28.5770   44.0470 H   0  0  0  0  0  0  0  0  0  0  0  0
   38.1610   28.7150   43.5590 H   0  0  0  0  0  0  0  0  0  0  0  0
   36.7490   29.0690   42.0210 C   0  0  0  0  0  0  0  0  0  0  0  0
   35.7740   28.5650   41.1800 C   0  0  0  0  0  0  0  0  0  0  0  0
   35.4400   29.3070   40.0520 C   0  0  0  0  0  0  0  0  0  0  0  0
   36.0850   30.4960   39.8250 N   0  0  0  0  0  0  0  0  0  0  0  0
   37.0190   30.9320   40.6760 C   0  0  0  0  0  0  0  0  0  0  0  0
   37.3370   30.2250   41.7490 N   0  0  0  0  0  0  0  0  0  0  0  0
   35.2940   27.6210   41.4020 H   0  0  0  0  0  0  0  0  0  0  0  0
   34.6770   28.9240   39.3800 H   0  0  0  0  0  0  0  0  0  0  0  0
   37.7010   32.2070   40.4200 C   0  0  0  0  0  0  0  0  0  0  0  0
   38.8030   32.7110   41.0050 N   0  0  0  0  0  0  0  0  0  0  0  0
   39.0710   33.9220   40.4500 C   0  0  0  0  0  0  0  0  0  0  0  0
   39.8690   34.6260   40.6560 H   0  0  0  0  0  0  0  0  0  0  0  0
   38.1410   34.1610   39.5310 N   0  0  0  0  0  0  0  0  0  0  0  0
   37.9440   34.9390   38.8710 H   0  0  0  0  0  0  0  0  0  0  0  0
   37.3270   33.1390   39.5150 N   0  0  0  0  0  0  0  0  0  0  0  0
  1 19  1  0  0  0  0
  1  2  1  0  0  0  0
  3  1  1  0  0  0  0
  4  5  1  0  0  0  0
  4  1  1  0  0  0  0
  5 10  1  0  0  0  0
  5  6  1  0  0  0  0
  6 13  1  0  0  0  0
  6 12  1  0  0  0  0
  7  6  1  0  0  0  0
  7 14  1  0  0  0  0
  8  7  1  0  0  0  0
  9  8  2  0  0  0  0
  9  4  1  0  0  0  0
 11  5  1  0  0  0  0
 15  7  1  0  0  0  0
 16  8  1  0  0  0  0
 17 18  1  0  0  0  0
 17  9  1  0  0  0  0
 19 21  1  0  0  0  0
 19 20  1  0  0  0  0
 22 19  1  0  0  0  0
 23 28  1  0  0  0  0
 23 22  2  0  0  0  0
 24 23  1  0  0  0  0
 25 24  2  0  0  0  0
 25 26  1  0  0  0  0
 26 27  2  0  0  0  0
 27 22  1  0  0  0  0
 29 24  1  0  0  0  0
 30 26  1  0  0  0  0
 30 31  1  0  0  0  0
 32 33  1  0  0  0  0
 32 31  2  0  0  0  0
 34 32  1  0  0  0  0
 35 34  1  0  0  0  0
 36 34  1  0  0  0  0
 36 30  2  0  0  0  0
M  END
>  <minimizedAffinity>
-5.51602697

$$$$

 OpenBabel03252507033D

 36 38  0  0  0  0  0  0  0  0999 V2000
   36.7840   27.5610   42.5660 C   0  0  0  0  0  0  0  0  0  0  0  0
   35.8990   27.1670   43.1170 H   0  0  0  0  0  0  0  0  0  0  0  0
   36.3330   28.4820   42.0680 H   0  0  0  0  0  0  0  0  0  0  0  0
   37.3240   26.6180   41.8000 N   0  0  0  0  0  0  0  0  0  0  0  0
   38.1420   25.5280   42.1920 C   0  0  0  0  0  0  0  0  0  0  0  0
   37.0890   24.3970   42.1090 C   0  0  0  0  0  0  0  0  0  0  0  0
   36.5270   24.2250   40.7680 C   0  0  0  0  0  0  0  0  0  0  0  0
   36.5760   25.3510   39.8330 C   0  0  0  0  0  0  0  0  0  0  0  0
   36.9930   26.6900   40.3750 C   0  0  0  0  0  0  0  0  0  0  0  0
   38.3650   25.5930   43.2910 H   0  0  0  0  0  0  0  0  0  0  0  0
   39.0330   25.2890   41.6450 H   0  0  0  0  0  0  0  0  0  0  0  0
   36.3260   24.5870   42.9150 H   0  0  0  0  0  0  0  0  0  0  0  0
   37.6310   23.4810   42.4230 H   0  0  0  0  0  0  0  0  0  0  0  0
   35.4460   23.9380   40.8730 H   0  0  0  0  0  0  0  0  0  0  0  0
   37.0080   23.3630   40.2290 H   0  0  0  0  0  0  0  0  0  0  0  0
   36.3280   25.3430   38.8050 H   0  0  0  0  0  0  0  0  0  0  0  0
   37.0100   28.1320   39.3640 S   0  0  0  0  0  0  0  0  0  0  0  0
   36.0450   29.0430   39.8220 H   0  0  0  0  0  0  0  0  0  0  0  0
   37.7210   28.0880   43.6120 C   0  0  0  0  0  0  0  0  0  0  0  0
   37.1390   28.7390   44.3200 H   0  0  0  0  0  0  0  0  0  0  0  0
   38.2610   27.3370   44.1890 H   0  0  0  0  0  0  0  0  0  0  0  0
   38.6930   28.9730   42.9150 C   0  0  0  0  0  0  0  0  0  0  0  0
   40.0530   28.7210   42.9300 C   0  0  0  0  0  0  0  0  0  0  0  0
   40.8870   29.6100   42.2610 C   0  0  0  0  0  0  0  0  0  0  0  0
   40.3310   30.6870   41.6200 N   0  0  0  0  0  0  0  0  0  0  0  0
   39.0080   30.8780   41.6400 C   0  0  0  0  0  0  0  0  0  0  0  0
   38.2150   30.0320   42.2770 N   0  0  0  0  0  0  0  0  0  0  0  0
   40.4440   27.8560   43.4500 H   0  0  0  0  0  0  0  0  0  0  0  0
   41.9580   29.4270   42.2650 H   0  0  0  0  0  0  0  0  0  0  0  0
   38.4270   32.0360   40.9500 C   0  0  0  0  0  0  0  0  0  0  0  0
   39.0040   33.2070   40.6260 N   0  0  0  0  0  0  0  0  0  0  0  0
   38.0840   33.9830   39.9940 C   0  0  0  0  0  0  0  0  0  0  0  0
   38.1710   34.9830   39.5870 H   0  0  0  0  0  0  0  0  0  0  0  0
   36.9490   33.2920   39.9300 N   0  0  0  0  0  0  0  0  0  0  0  0
   36.0010   33.4740   39.5460 H   0  0  0  0  0  0  0  0  0  0  0  0
   37.1560   32.1350   40.4990 N   0  0  0  0  0  0  0  0  0  0  0  0
  1  2  1  0  0  0  0
  1 19  1  0  0  0  0
  3  1  1  0  0  0  0
  4  5  1  0  0  0  0
  4  1  1  0  0  0  0
  5 10  1  0  0  0  0
  6  5  1  0  0  0  0
  6 13  1  0  0  0  0
  6 12  1  0  0  0  0
  7 14  1  0  0  0  0
  7  6  1  0  0  0  0
  8  9  2  0  0  0  0
  8  7  1  0  0  0  0
  9  4  1  0  0  0  0
 11  5  1  0  0  0  0
 15  7  1  0  0  0  0
 16  8  1  0  0  0  0
 17 18  1  0  0  0  0
 17  9  1  0  0  0  0
 19 21  1  0  0  0  0
 19 20  1  0  0  0  0
 22 23  1  0  0  0  0
 22 19  1  0  0  0  0
 23 28  1  0  0  0  0
 24 29  1  0  0  0  0
 24 23  2  0  0  0  0
 25 26  2  0  0  0  0
 25 24  1  0  0  0  0
 26 27  1  0  0  0  0
 27 22  2  0  0  0  0
 30 26  1  0  0  0  0
 31 30  1  0  0  0  0
 32 31  2  0  0  0  0
 33 32  1  0  0  0  0
 34 32  1  0  0  0  0
 34 36  1  0  0  0  0
 35 34  1  0  0  0  0
 36 30  2  0  0  0  0
M  END
>  <minimizedAffinity>
-5.48873949

$$$$

 OpenBabel03252507033D

 36 38  0  0  0  0  0  0  0  0999 V2000
   38.2190   26.7910   40.3840 C   0  0  0  0  0  0  0  0  0  0  0  0
   38.4860   25.9720   39.6760 H   0  0  0  0  0  0  0  0  0  0  0  0
   38.9950   27.5770   40.1040 H   0  0  0  0  0  0  0  0  0  0  0  0
   38.1820   26.3420   41.6340 N   0  0  0  0  0  0  0  0  0  0  0  0
   37.3510   25.3330   42.1830 C   0  0  0  0  0  0  0  0  0  0  0  0
   38.3840   24.1830   42.2500 C   0  0  0  0  0  0  0  0  0  0  0  0
   39.5360   24.4870   43.1010 C   0  0  0  0  0  0  0  0  0  0  0  0
   39.8730   25.8890   43.3580 C   0  0  0  0  0  0  0  0  0  0  0  0
   39.1570   26.9370   42.5520 C   0  0  0  0  0  0  0  0  0  0  0  0
   36.6190   24.9780   41.4080 H   0  0  0  0  0  0  0  0  0  0  0  0
   36.8550   25.4840   43.1220 H   0  0  0  0  0  0  0  0  0  0  0  0
   38.6460   23.9020   41.1920 H   0  0  0  0  0  0  0  0  0  0  0  0
   37.8200   23.3180   42.6550 H   0  0  0  0  0  0  0  0  0  0  0  0
   40.4470   24.0140   42.6430 H   0  0  0  0  0  0  0  0  0  0  0  0
   39.4350   24.0080   44.1140 H   0  0  0  0  0  0  0  0  0  0  0  0
   40.5880   26.2620   44.0420 H   0  0  0  0  0  0  0  0  0  0  0  0
   39.5380   28.6490   42.7150 S   0  0  0  0  0  0  0  0  0  0  0  0
   40.0970   29.1260   41.5200 H   0  0  0  0  0  0  0  0  0  0  0  0
   36.9050   27.3350   39.9070 C   0  0  0  0  0  0  0  0  0  0  0  0
   36.8170   27.1450   38.8020 H   0  0  0  0  0  0  0  0  0  0  0  0
   36.0180   26.9420   40.4040 H   0  0  0  0  0  0  0  0  0  0  0  0
   36.9590   28.8120   40.0860 C   0  0  0  0  0  0  0  0  0  0  0  0
   36.1120   29.4750   40.9550 C   0  0  0  0  0  0  0  0  0  0  0  0
   36.2260   30.8580   41.0460 C   0  0  0  0  0  0  0  0  0  0  0  0
   37.1670   31.4990   40.2810 N   0  0  0  0  0  0  0  0  0  0  0  0
   37.9590   30.8030   39.4590 C   0  0  0  0  0  0  0  0  0  0  0  0
   37.8490   29.4870   39.3720 N   0  0  0  0  0  0  0  0  0  0  0  0
   35.3860   28.9250   41.5380 H   0  0  0  0  0  0  0  0  0  0  0  0
   35.5670   31.3940   41.7230 H   0  0  0  0  0  0  0  0  0  0  0  0
   38.9600   31.5010   38.6450 C   0  0  0  0  0  0  0  0  0  0  0  0
   40.1260   32.0550   39.0260 N   0  0  0  0  0  0  0  0  0  0  0  0
   40.7270   32.5930   37.9320 C   0  0  0  0  0  0  0  0  0  0  0  0
   41.6700   33.1190   37.8380 H   0  0  0  0  0  0  0  0  0  0  0  0
   39.9370   32.3720   36.8860 N   0  0  0  0  0  0  0  0  0  0  0  0
   39.9820   32.5950   35.8720 H   0  0  0  0  0  0  0  0  0  0  0  0
   38.8860   31.7220   37.3130 N   0  0  0  0  0  0  0  0  0  0  0  0
  1  4  1  0  0  0  0
  2  1  1  0  0  0  0
  3  1  1  0  0  0  0
  4  5  1  0  0  0  0
  4  9  1  0  0  0  0
  5  6  1  0  0  0  0
  5 11  1  0  0  0  0
  6 13  1  0  0  0  0
  6  7  1  0  0  0  0
  7  8  1  0  0  0  0
  7 15  1  0  0  0  0
  8 16  1  0  0  0  0
  9 17  1  0  0  0  0
  9  8  2  0  0  0  0
 10  5  1  0  0  0  0
 12  6  1  0  0  0  0
 14  7  1  0  0  0  0
 18 17  1  0  0  0  0
 19 22  1  0  0  0  0
 19  1  1  0  0  0  0
 19 21  1  0  0  0  0
 20 19  1  0  0  0  0
 22 23  1  0  0  0  0
 23 24  2  0  0  0  0
 23 28  1  0  0  0  0
 24 29  1  0  0  0  0
 25 24  1  0  0  0  0
 26 25  2  0  0  0  0
 27 26  1  0  0  0  0
 27 22  2  0  0  0  0
 30 31  1  0  0  0  0
 30 26  1  0  0  0  0
 32 31  2  0  0  0  0
 33 32  1  0  0  0  0
 34 36  1  0  0  0  0
 34 32  1  0  0  0  0
 35 34  1  0  0  0  0
 36 30  2  0  0  0  0
M  END
>  <minimizedAffinity>
-5.19578362

$$$$

 OpenBabel03252507033D

 36 38  0  0  0  0  0  0  0  0999 V2000
   38.4010   27.1460   42.3880 C   0  0  0  0  0  0  0  0  0  0  0  0
   38.6580   27.6340   41.4190 H   0  0  0  0  0  0  0  0  0  0  0  0
   39.2770   27.4840   43.0350 H   0  0  0  0  0  0  0  0  0  0  0  0
   38.1920   25.8440   42.2230 N   0  0  0  0  0  0  0  0  0  0  0  0
   36.9590   25.1430   42.2260 C   0  0  0  0  0  0  0  0  0  0  0  0
   36.8000   24.9320   40.7020 C   0  0  0  0  0  0  0  0  0  0  0  0
   37.8870   24.1530   40.1080 C   0  0  0  0  0  0  0  0  0  0  0  0
   39.1780   24.1030   40.7970 C   0  0  0  0  0  0  0  0  0  0  0  0
   39.3860   25.0370   41.9570 C   0  0  0  0  0  0  0  0  0  0  0  0
   36.1210   25.8470   42.4790 H   0  0  0  0  0  0  0  0  0  0  0  0
   36.8540   24.2270   42.7740 H   0  0  0  0  0  0  0  0  0  0  0  0
   36.6400   25.9440   40.2360 H   0  0  0  0  0  0  0  0  0  0  0  0
   35.8330   24.3980   40.5900 H   0  0  0  0  0  0  0  0  0  0  0  0
   38.0860   24.5540   39.0770 H   0  0  0  0  0  0  0  0  0  0  0  0
   37.5850   23.0800   39.9510 H   0  0  0  0  0  0  0  0  0  0  0  0
   40.0080   23.4910   40.5620 H   0  0  0  0  0  0  0  0  0  0  0  0
   40.9240   25.1250   42.8090 S   0  0  0  0  0  0  0  0  0  0  0  0
   41.5070   26.3850   42.6070 H   0  0  0  0  0  0  0  0  0  0  0  0
   37.2050   27.8800   42.9150 C   0  0  0  0  0  0  0  0  0  0  0  0
   36.3570   27.1500   43.0310 H   0  0  0  0  0  0  0  0  0  0  0  0
   37.3470   28.4070   43.8590 H   0  0  0  0  0  0  0  0  0  0  0  0
   36.7950   28.8500   41.8630 C   0  0  0  0  0  0  0  0  0  0  0  0
   35.7330   28.6030   41.0130 C   0  0  0  0  0  0  0  0  0  0  0  0
   35.4320   29.5610   40.0510 C   0  0  0  0  0  0  0  0  0  0  0  0
   36.1920   30.7010   39.9900 N   0  0  0  0  0  0  0  0  0  0  0  0
   37.2070   30.8840   40.8410 C   0  0  0  0  0  0  0  0  0  0  0  0
   37.4940   29.9720   41.7550 N   0  0  0  0  0  0  0  0  0  0  0  0
   35.1630   27.6870   41.1010 H   0  0  0  0  0  0  0  0  0  0  0  0
   34.6020   29.3810   39.3750 H   0  0  0  0  0  0  0  0  0  0  0  0
   38.0130   32.1090   40.7630 C   0  0  0  0  0  0  0  0  0  0  0  0
   37.7390   33.2650   40.1320 N   0  0  0  0  0  0  0  0  0  0  0  0
   38.7740   34.1230   40.3310 C   0  0  0  0  0  0  0  0  0  0  0  0
   38.9190   35.1390   39.9850 H   0  0  0  0  0  0  0  0  0  0  0  0
   39.6790   33.4980   41.0790 N   0  0  0  0  0  0  0  0  0  0  0  0
   40.6070   33.7500   41.4720 H   0  0  0  0  0  0  0  0  0  0  0  0
   39.2230   32.3000   41.3340 N   0  0  0  0  0  0  0  0  0  0  0  0
  1 19  1  0  0  0  0
  1  3  1  0  0  0  0
  2  1  1  0  0  0  0
  4  5  1  0  0  0  0
  4  1  1  0  0  0  0
  5 10  1  0  0  0  0
  5 11  1  0  0  0  0
  6  5  1  0  0  0  0
  7  6  1  0  0  0  0
  7  8  1  0  0  0  0
  8  9  2  0  0  0  0
  9  4  1  0  0  0  0
  9 17  1  0  0  0  0
 12  6  1  0  0  0  0
 13  6  1  0  0  0  0
 14  7  1  0  0  0  0
 15  7  1  0  0  0  0
 16  8  1  0  0  0  0
 18 17  1  0  0  0  0
 19 20  1  0  0  0  0
 19 21  1  0  0  0  0
 22 19  1  0  0  0  0
 23 28  1  0  0  0  0
 23 22  2  0  0  0  0
 24 23  1  0  0  0  0
 25 24  2  0  0  0  0
 25 26  1  0  0  0  0
 26 27  2  0  0  0  0
 27 22  1  0  0  0  0
 29 24  1  0  0  0  0
 30 26  1  0  0  0  0
 30 36  2  0  0  0  0
 31 32  2  0  0  0  0
 31 30  1  0  0  0  0
 32 34  1  0  0  0  0
 33 32  1  0  0  0  0
 34 36  1  0  0  0  0
 34 35  1  0  0  0  0
M  END
>  <minimizedAffinity>
-5.18761492

$$$$

 OpenBabel03252507033D

 36 38  0  0  0  0  0  0  0  0999 V2000
   38.6360   27.4440   40.2450 C   0  0  0  0  0  0  0  0  0  0  0  0
   38.8670   26.5180   39.6690 H   0  0  0  0  0  0  0  0  0  0  0  0
   39.4480   28.1440   39.8590 H   0  0  0  0  0  0  0  0  0  0  0  0
   38.5750   27.1880   41.5490 N   0  0  0  0  0  0  0  0  0  0  0  0
   39.3950   27.7010   42.5850 C   0  0  0  0  0  0  0  0  0  0  0  0
   38.4140   28.7410   43.1750 C   0  0  0  0  0  0  0  0  0  0  0  0
   37.1740   28.1480   43.6800 C   0  0  0  0  0  0  0  0  0  0  0  0
   36.7520   26.8470   43.1590 C   0  0  0  0  0  0  0  0  0  0  0  0
   37.4910   26.2970   41.9710 C   0  0  0  0  0  0  0  0  0  0  0  0
   40.2120   28.3350   42.1470 H   0  0  0  0  0  0  0  0  0  0  0  0
   39.7930   27.0500   43.3390 H   0  0  0  0  0  0  0  0  0  0  0  0
   38.2660   29.5430   42.3980 H   0  0  0  0  0  0  0  0  0  0  0  0
   38.9760   29.2260   43.9990 H   0  0  0  0  0  0  0  0  0  0  0  0
   36.3330   28.8660   43.4800 H   0  0  0  0  0  0  0  0  0  0  0  0
   37.2010   28.0340   44.7990 H   0  0  0  0  0  0  0  0  0  0  0  0
   35.9590   26.2410   43.5110 H   0  0  0  0  0  0  0  0  0  0  0  0
   37.0200   24.7810   41.2080 S   0  0  0  0  0  0  0  0  0  0  0  0
   36.5550   25.0300   39.9080 H   0  0  0  0  0  0  0  0  0  0  0  0
   37.3500   27.9700   39.6810 C   0  0  0  0  0  0  0  0  0  0  0  0
   37.3390   27.7790   38.5730 H   0  0  0  0  0  0  0  0  0  0  0  0
   36.4370   27.5630   40.1170 H   0  0  0  0  0  0  0  0  0  0  0  0
   37.3710   29.4470   39.8620 C   0  0  0  0  0  0  0  0  0  0  0  0
   36.4030   30.1080   40.5970 C   0  0  0  0  0  0  0  0  0  0  0  0
   36.4970   31.4920   40.7010 C   0  0  0  0  0  0  0  0  0  0  0  0
   37.5360   32.1350   40.0780 N   0  0  0  0  0  0  0  0  0  0  0  0
   38.4420   31.4410   39.3830 C   0  0  0  0  0  0  0  0  0  0  0  0
   38.3520   30.1240   39.2830 N   0  0  0  0  0  0  0  0  0  0  0  0
   35.6020   29.5550   41.0700 H   0  0  0  0  0  0  0  0  0  0  0  0
   35.7440   32.0260   41.2730 H   0  0  0  0  0  0  0  0  0  0  0  0
   39.5490   32.1430   38.7210 C   0  0  0  0  0  0  0  0  0  0  0  0
   40.4880   32.9420   39.2590 N   0  0  0  0  0  0  0  0  0  0  0  0
   41.3100   33.3720   38.2660 C   0  0  0  0  0  0  0  0  0  0  0  0
   42.1760   34.0230   38.3050 H   0  0  0  0  0  0  0  0  0  0  0  0
   40.8800   32.8410   37.1260 N   0  0  0  0  0  0  0  0  0  0  0  0
   41.1850   32.8860   36.1330 H   0  0  0  0  0  0  0  0  0  0  0  0
   39.8310   32.1100   37.3990 N   0  0  0  0  0  0  0  0  0  0  0  0
  1  4  1  0  0  0  0
  2  1  1  0  0  0  0
  3  1  1  0  0  0  0
  4  9  1  0  0  0  0
  4  5  1  0  0  0  0
  5  6  1  0  0  0  0
  5 11  1  0  0  0  0
  6  7  1  0  0  0  0
  6 13  1  0  0  0  0
  7 15  1  0  0  0  0
  8 16  1  0  0  0  0
  8  7  1  0  0  0  0
  9  8  2  0  0  0  0
 10  5  1  0  0  0  0
 12  6  1  0  0  0  0
 14  7  1  0  0  0  0
 17  9  1  0  0  0  0
 18 17  1  0  0  0  0
 19 22  1  0  0  0  0
 19 21  1  0  0  0  0
 19  1  1  0  0  0  0
 20 19  1  0  0  0  0
 22 23  1  0  0  0  0
 23 24  2  0  0  0  0
 23 28  1  0  0  0  0
 24 29  1  0  0  0  0
 25 24  1  0  0  0  0
 26 25  2  0  0  0  0
 27 26  1  0  0  0  0
 27 22  2  0  0  0  0
 30 31  1  0  0  0  0
 30 26  1  0  0  0  0
 32 33  1  0  0  0  0
 32 31  2  0  0  0  0
 34 36  1  0  0  0  0
 34 32  1  0  0  0  0
 35 34  1  0  0  0  0
 36 30  2  0  0  0  0
M  END
>  <minimizedAffinity>
-5.12743711

$$$$

 OpenBabel03252507033D

 36 38  0  0  0  0  0  0  0  0999 V2000
   38.3920   27.4830   40.1780 C   0  0  0  0  0  0  0  0  0  0  0  0
   38.5160   26.4840   39.6980 H   0  0  0  0  0  0  0  0  0  0  0  0
   39.1510   28.0980   39.5910 H   0  0  0  0  0  0  0  0  0  0  0  0
   38.5240   27.3930   41.4980 N   0  0  0  0  0  0  0  0  0  0  0  0
   39.4270   28.0870   42.3420 C   0  0  0  0  0  0  0  0  0  0  0  0
   38.4480   29.1270   42.9360 C   0  0  0  0  0  0  0  0  0  0  0  0
   37.3380   28.5230   43.6760 C   0  0  0  0  0  0  0  0  0  0  0  0
   36.9610   27.1410   43.3760 C   0  0  0  0  0  0  0  0  0  0  0  0
   37.5820   26.4930   42.1700 C   0  0  0  0  0  0  0  0  0  0  0  0
   40.1250   28.7120   41.7220 H   0  0  0  0  0  0  0  0  0  0  0  0
   39.9720   27.5650   43.1040 H   0  0  0  0  0  0  0  0  0  0  0  0
   38.1350   29.8120   42.0990 H   0  0  0  0  0  0  0  0  0  0  0  0
   39.0710   29.7500   43.6110 H   0  0  0  0  0  0  0  0  0  0  0  0
   36.4220   29.1520   43.5120 H   0  0  0  0  0  0  0  0  0  0  0  0
   37.5210   28.5550   44.7860 H   0  0  0  0  0  0  0  0  0  0  0  0
   36.2730   26.5350   43.9050 H   0  0  0  0  0  0  0  0  0  0  0  0
   37.1420   24.8650   41.6650 S   0  0  0  0  0  0  0  0  0  0  0  0
   36.4920   24.9140   40.4220 H   0  0  0  0  0  0  0  0  0  0  0  0
   37.0470   27.9850   39.7460 C   0  0  0  0  0  0  0  0  0  0  0  0
   36.5850   27.2260   39.0570 H   0  0  0  0  0  0  0  0  0  0  0  0
   36.3420   28.2070   40.5480 H   0  0  0  0  0  0  0  0  0  0  0  0
   37.2830   29.2120   38.9390 C   0  0  0  0  0  0  0  0  0  0  0  0
   36.9790   29.2720   37.5910 C   0  0  0  0  0  0  0  0  0  0  0  0
   37.2460   30.4570   36.9150 C   0  0  0  0  0  0  0  0  0  0  0  0
   37.7930   31.5070   37.6070 N   0  0  0  0  0  0  0  0  0  0  0  0
   38.0650   31.3900   38.9100 C   0  0  0  0  0  0  0  0  0  0  0  0
   37.8110   30.2620   39.5530 N   0  0  0  0  0  0  0  0  0  0  0  0
   36.5470   28.4160   37.0890 H   0  0  0  0  0  0  0  0  0  0  0  0
   37.0140   30.5200   35.8560 H   0  0  0  0  0  0  0  0  0  0  0  0
   38.6510   32.5220   39.6390 C   0  0  0  0  0  0  0  0  0  0  0  0
   39.7980   33.1830   39.3970 N   0  0  0  0  0  0  0  0  0  0  0  0
   39.9380   34.1610   40.3310 C   0  0  0  0  0  0  0  0  0  0  0  0
   40.7250   34.8940   40.4640 H   0  0  0  0  0  0  0  0  0  0  0  0
   38.8850   34.1010   41.1400 N   0  0  0  0  0  0  0  0  0  0  0  0
   38.5700   34.6350   41.9740 H   0  0  0  0  0  0  0  0  0  0  0  0
   38.1210   33.1260   40.7270 N   0  0  0  0  0  0  0  0  0  0  0  0
  1  4  1  0  0  0  0
  2  1  1  0  0  0  0
  3  1  1  0  0  0  0
  4  9  1  0  0  0  0
  4  5  1  0  0  0  0
  5  6  1  0  0  0  0
  5 11  1  0  0  0  0
  6 13  1  0  0  0  0
  6  7  1  0  0  0  0
  7 15  1  0  0  0  0
  8  7  1  0  0  0  0
  8 16  1  0  0  0  0
  9  8  2  0  0  0  0
 10  5  1  0  0  0  0
 12  6  1  0  0  0  0
 14  7  1  0  0  0  0
 17  9  1  0  0  0  0
 18 17  1  0  0  0  0
 19  1  1  0  0  0  0
 19 21  1  0  0  0  0
 20 19  1  0  0  0  0
 22 27  1  0  0  0  0
 22 19  1  0  0  0  0
 23 22  2  0  0  0  0
 24 23  1  0  0  0  0
 24 25  2  0  0  0  0
 25 26  1  0  0  0  0
 26 27  2  0  0  0  0
 26 30  1  0  0  0  0
 28 23  1  0  0  0  0
 29 24  1  0  0  0  0
 30 36  2  0  0  0  0
 31 30  1  0  0  0  0
 31 32  2  0  0  0  0
 32 33  1  0  0  0  0
 32 34  1  0  0  0  0
 34 35  1  0  0  0  0
 36 34  1  0  0  0  0
M  END
>  <minimizedAffinity>
-5.12675142

$$$$

 OpenBabel03252507033D

 36 38  0  0  0  0  0  0  0  0999 V2000
   38.4850   29.4890   39.9140 C   0  0  0  0  0  0  0  0  0  0  0  0
   38.4220   28.5000   39.4030 H   0  0  0  0  0  0  0  0  0  0  0  0
   39.6130   29.6500   39.9290 H   0  0  0  0  0  0  0  0  0  0  0  0
   37.8240   29.4680   41.0670 N   0  0  0  0  0  0  0  0  0  0  0  0
   36.4320   29.3110   41.2810 C   0  0  0  0  0  0  0  0  0  0  0  0
   36.4250   27.8330   41.7390 C   0  0  0  0  0  0  0  0  0  0  0  0
   37.2100   27.5980   42.9520 C   0  0  0  0  0  0  0  0  0  0  0  0
   38.2720   28.5440   43.2990 C   0  0  0  0  0  0  0  0  0  0  0  0
   38.6490   29.5780   42.2740 C   0  0  0  0  0  0  0  0  0  0  0  0
   35.8950   29.2790   40.2950 H   0  0  0  0  0  0  0  0  0  0  0  0
   35.9100   29.9480   41.9690 H   0  0  0  0  0  0  0  0  0  0  0  0
   36.7300   27.2060   40.8550 H   0  0  0  0  0  0  0  0  0  0  0  0
   35.3560   27.5960   41.9160 H   0  0  0  0  0  0  0  0  0  0  0  0
   37.6920   26.5860   42.8690 H   0  0  0  0  0  0  0  0  0  0  0  0
   36.5500   27.5350   43.8610 H   0  0  0  0  0  0  0  0  0  0  0  0
   38.8340   28.5780   44.1950 H   0  0  0  0  0  0  0  0  0  0  0  0
   39.9660   30.7140   42.5470 S   0  0  0  0  0  0  0  0  0  0  0  0
   41.0050   30.4630   41.6380 H   0  0  0  0  0  0  0  0  0  0  0  0
   37.9480   30.4920   38.9380 C   0  0  0  0  0  0  0  0  0  0  0  0
   38.3280   30.2340   37.9110 H   0  0  0  0  0  0  0  0  0  0  0  0
   36.8630   30.5840   38.8980 H   0  0  0  0  0  0  0  0  0  0  0  0
   38.5450   31.8070   39.2980 C   0  0  0  0  0  0  0  0  0  0  0  0
   37.8720   32.7250   40.0850 C   0  0  0  0  0  0  0  0  0  0  0  0
   38.5030   33.9330   40.3590 C   0  0  0  0  0  0  0  0  0  0  0  0
   39.7540   34.1610   39.8450 N   0  0  0  0  0  0  0  0  0  0  0  0
   40.3540   33.2340   39.0910 C   0  0  0  0  0  0  0  0  0  0  0  0
   39.7530   32.0850   38.8300 N   0  0  0  0  0  0  0  0  0  0  0  0
   36.8860   32.4980   40.4680 H   0  0  0  0  0  0  0  0  0  0  0  0
   37.9880   34.6650   40.9740 H   0  0  0  0  0  0  0  0  0  0  0  0
   41.6930   33.4920   38.5460 C   0  0  0  0  0  0  0  0  0  0  0  0
   42.8620   33.6250   39.1980 N   0  0  0  0  0  0  0  0  0  0  0  0
   43.8430   33.8560   38.2860 C   0  0  0  0  0  0  0  0  0  0  0  0
   44.9060   34.0130   38.4240 H   0  0  0  0  0  0  0  0  0  0  0  0
   43.2800   33.8640   37.0810 N   0  0  0  0  0  0  0  0  0  0  0  0
   43.6260   33.9990   36.1100 H   0  0  0  0  0  0  0  0  0  0  0  0
   42.0010   33.6480   37.2390 N   0  0  0  0  0  0  0  0  0  0  0  0
  1  3  1  0  0  0  0
  1  4  1  0  0  0  0
  2  1  1  0  0  0  0
  4  5  1  0  0  0  0
  4  9  1  0  0  0  0
  5  6  1  0  0  0  0
  5 11  1  0  0  0  0
  6 13  1  0  0  0  0
  6  7  1  0  0  0  0
  7  8  1  0  0  0  0
  7 15  1  0  0  0  0
  8 16  1  0  0  0  0
  9 17  1  0  0  0  0
  9  8  2  0  0  0  0
 10  5  1  0  0  0  0
 12  6  1  0  0  0  0
 14  7  1  0  0  0  0
 18 17  1  0  0  0  0
 19 22  1  0  0  0  0
 19  1  1  0  0  0  0
 20 19  1  0  0  0  0
 21 19  1  0  0  0  0
 22 23  1  0  0  0  0
 23 24  2  0  0  0  0
 23 28  1  0  0  0  0
 24 29  1  0  0  0  0
 25 24  1  0  0  0  0
 26 25  2  0  0  0  0
 27 26  1  0  0  0  0
 27 22  2  0  0  0  0
 30 26  1  0  0  0  0
 30 31  1  0  0  0  0
 32 33  1  0  0  0  0
 32 31  2  0  0  0  0
 34 36  1  0  0  0  0
 34 32  1  0  0  0  0
 35 34  1  0  0  0  0
 36 30  2  0  0  0  0
M  END
>  <minimizedAffinity>
-5.09509516

$$$$

 OpenBabel03252507033D

 36 38  0  0  0  0  0  0  0  0999 V2000
   38.3750   30.0400   41.5300 C   0  0  0  0  0  0  0  0  0  0  0  0
   38.8680   30.9570   41.9280 H   0  0  0  0  0  0  0  0  0  0  0  0
   39.2850   29.3920   41.2990 H   0  0  0  0  0  0  0  0  0  0  0  0
   37.5370   30.3430   40.5440 N   0  0  0  0  0  0  0  0  0  0  0  0
   36.3920   31.1770   40.5870 C   0  0  0  0  0  0  0  0  0  0  0  0
   36.9830   32.4310   39.9010 C   0  0  0  0  0  0  0  0  0  0  0  0
   37.4450   32.1810   38.5340 C   0  0  0  0  0  0  0  0  0  0  0  0
   37.7890   30.8120   38.1460 C   0  0  0  0  0  0  0  0  0  0  0  0
   37.8670   29.7770   39.2330 C   0  0  0  0  0  0  0  0  0  0  0  0
   36.2100   31.5210   41.6410 H   0  0  0  0  0  0  0  0  0  0  0  0
   35.4710   30.8650   40.1330 H   0  0  0  0  0  0  0  0  0  0  0  0
   37.7670   32.8550   40.5890 H   0  0  0  0  0  0  0  0  0  0  0  0
   36.1560   33.1710   39.9020 H   0  0  0  0  0  0  0  0  0  0  0  0
   38.3580   32.8090   38.3500 H   0  0  0  0  0  0  0  0  0  0  0  0
   36.6900   32.5310   37.7760 H   0  0  0  0  0  0  0  0  0  0  0  0
   38.0140   30.4580   37.1740 H   0  0  0  0  0  0  0  0  0  0  0  0
   38.3520   28.1180   38.8970 S   0  0  0  0  0  0  0  0  0  0  0  0
   39.5760   27.8450   39.5270 H   0  0  0  0  0  0  0  0  0  0  0  0
   37.7050   29.3890   42.7020 C   0  0  0  0  0  0  0  0  0  0  0  0
   38.1670   29.7870   43.6470 H   0  0  0  0  0  0  0  0  0  0  0  0
   36.6230   29.5120   42.7610 H   0  0  0  0  0  0  0  0  0  0  0  0
   38.0360   27.9390   42.6390 C   0  0  0  0  0  0  0  0  0  0  0  0
   37.0800   26.9820   42.3550 C   0  0  0  0  0  0  0  0  0  0  0  0
   37.4800   25.6500   42.3310 C   0  0  0  0  0  0  0  0  0  0  0  0
   38.7930   25.3460   42.5850 N   0  0  0  0  0  0  0  0  0  0  0  0
   39.6720   26.3160   42.8530 C   0  0  0  0  0  0  0  0  0  0  0  0
   39.2910   27.5840   42.8770 N   0  0  0  0  0  0  0  0  0  0  0  0
   36.0560   27.2720   42.1610 H   0  0  0  0  0  0  0  0  0  0  0  0
   36.7400   24.8850   42.1100 H   0  0  0  0  0  0  0  0  0  0  0  0
   41.0740   25.9770   43.1230 C   0  0  0  0  0  0  0  0  0  0  0  0
   42.0630   26.7630   43.5840 N   0  0  0  0  0  0  0  0  0  0  0  0
   43.1980   26.0210   43.6790 C   0  0  0  0  0  0  0  0  0  0  0  0
   44.1920   26.2990   44.0080 H   0  0  0  0  0  0  0  0  0  0  0  0
   42.9080   24.7860   43.2810 N   0  0  0  0  0  0  0  0  0  0  0  0
   43.4440   23.9010   43.1850 H   0  0  0  0  0  0  0  0  0  0  0  0
   41.6440   24.7620   42.9500 N   0  0  0  0  0  0  0  0  0  0  0  0
  1  2  1  0  0  0  0
  1 19  1  0  0  0  0
  3  1  1  0  0  0  0
  4  5  1  0  0  0  0
  4  1  1  0  0  0  0
  5 10  1  0  0  0  0
  6 13  1  0  0  0  0
  6  5  1  0  0  0  0
  6 12  1  0  0  0  0
  7  6  1  0  0  0  0
  8  7  1  0  0  0  0
  8  9  2  0  0  0  0
  9  4  1  0  0  0  0
 11  5  1  0  0  0  0
 14  7  1  0  0  0  0
 15  7  1  0  0  0  0
 16  8  1  0  0  0  0
 17  9  1  0  0  0  0
 17 18  1  0  0  0  0
 19 21  1  0  0  0  0
 19 20  1  0  0  0  0
 22 19  1  0  0  0  0
 22 27  1  0  0  0  0
 23 22  2  0  0  0  0
 24 23  1  0  0  0  0
 24 25  2  0  0  0  0
 25 26  1  0  0  0  0
 26 27  2  0  0  0  0
 26 30  1  0  0  0  0
 28 23  1  0  0  0  0
 29 24  1  0  0  0  0
 30 31  1  0  0  0  0
 31 32  2  0  0  0  0
 32 33  1  0  0  0  0
 34 32  1  0  0  0  0
 35 34  1  0  0  0  0
 36 30  2  0  0  0  0
 36 34  1  0  0  0  0
M  END
>  <minimizedAffinity>
-5.02247477

$$$$

 OpenBabel03252507033D

 36 38  0  0  0  0  0  0  0  0999 V2000
   38.7650   29.0270   40.7500 C   0  0  0  0  0  0  0  0  0  0  0  0
   38.6110   28.5160   39.7710 H   0  0  0  0  0  0  0  0  0  0  0  0
   39.7760   29.5230   40.5750 H   0  0  0  0  0  0  0  0  0  0  0  0
   38.6350   28.1700   41.7570 N   0  0  0  0  0  0  0  0  0  0  0  0
   38.9080   28.3810   43.1330 C   0  0  0  0  0  0  0  0  0  0  0  0
   37.4560   28.5430   43.6420 C   0  0  0  0  0  0  0  0  0  0  0  0
   36.6240   27.3610   43.4080 C   0  0  0  0  0  0  0  0  0  0  0  0
   37.0050   26.4290   42.3460 C   0  0  0  0  0  0  0  0  0  0  0  0
   38.0990   26.8520   41.4050 C   0  0  0  0  0  0  0  0  0  0  0  0
   39.3500   29.4020   43.2820 H   0  0  0  0  0  0  0  0  0  0  0  0
   39.4540   27.6520   43.6990 H   0  0  0  0  0  0  0  0  0  0  0  0
   37.0490   29.4960   43.2030 H   0  0  0  0  0  0  0  0  0  0  0  0
   37.5570   28.7370   44.7300 H   0  0  0  0  0  0  0  0  0  0  0  0
   35.5800   27.7060   43.1770 H   0  0  0  0  0  0  0  0  0  0  0  0
   36.5270   26.7380   44.3400 H   0  0  0  0  0  0  0  0  0  0  0  0
   36.5820   25.4810   42.1410 H   0  0  0  0  0  0  0  0  0  0  0  0
   38.5860   25.8500   40.0410 S   0  0  0  0  0  0  0  0  0  0  0  0
   38.2720   26.5020   38.8390 H   0  0  0  0  0  0  0  0  0  0  0  0
   37.7690   30.1480   40.7900 C   0  0  0  0  0  0  0  0  0  0  0  0
   37.3830   30.2490   41.8410 H   0  0  0  0  0  0  0  0  0  0  0  0
   38.1330   31.1200   40.4540 H   0  0  0  0  0  0  0  0  0  0  0  0
   36.6160   29.7320   39.9460 C   0  0  0  0  0  0  0  0  0  0  0  0
   35.3690   29.4780   40.4860 C   0  0  0  0  0  0  0  0  0  0  0  0
   34.3540   29.0810   39.6210 C   0  0  0  0  0  0  0  0  0  0  0  0
   34.6310   28.9620   38.2830 N   0  0  0  0  0  0  0  0  0  0  0  0
   35.8570   29.2230   37.8210 C   0  0  0  0  0  0  0  0  0  0  0  0
   36.8230   29.6000   38.6430 N   0  0  0  0  0  0  0  0  0  0  0  0
   35.2000   29.5860   41.5490 H   0  0  0  0  0  0  0  0  0  0  0  0
   33.3690   28.8760   40.0300 H   0  0  0  0  0  0  0  0  0  0  0  0
   36.1390   29.0910   36.3860 C   0  0  0  0  0  0  0  0  0  0  0  0
   35.2930   29.1820   35.3440 N   0  0  0  0  0  0  0  0  0  0  0  0
   35.9970   28.9900   34.1970 C   0  0  0  0  0  0  0  0  0  0  0  0
   35.6680   28.9900   33.1640 H   0  0  0  0  0  0  0  0  0  0  0  0
   37.2670   28.7830   34.5320 N   0  0  0  0  0  0  0  0  0  0  0  0
   38.1440   28.5970   34.0060 H   0  0  0  0  0  0  0  0  0  0  0  0
   37.3490   28.8430   35.8350 N   0  0  0  0  0  0  0  0  0  0  0  0
  1 19  1  0  0  0  0
  1  4  1  0  0  0  0
  2  1  1  0  0  0  0
  3  1  1  0  0  0  0
  4  5  1  0  0  0  0
  5 10  1  0  0  0  0
  5  6  1  0  0  0  0
  5 11  1  0  0  0  0
  6 13  1  0  0  0  0
  7  6  1  0  0  0  0
  7 15  1  0  0  0  0
  8  7  1  0  0  0  0
  9  4  1  0  0  0  0
  9  8  2  0  0  0  0
 12  6  1  0  0  0  0
 14  7  1  0  0  0  0
 16  8  1  0  0  0  0
 17  9  1  0  0  0  0
 18 17  1  0  0  0  0
 19 20  1  0  0  0  0
 21 19  1  0  0  0  0
 22 23  1  0  0  0  0
 22 19  1  0  0  0  0
 23 28  1  0  0  0  0
 24 29  1  0  0  0  0
 24 23  2  0  0  0  0
 25 24  1  0  0  0  0
 26 25  2  0  0  0  0
 26 27  1  0  0  0  0
 27 22  2  0  0  0  0
 30 26  1  0  0  0  0
 31 30  1  0  0  0  0
 32 34  1  0  0  0  0
 32 31  2  0  0  0  0
 33 32  1  0  0  0  0
 34 36  1  0  0  0  0
 35 34  1  0  0  0  0
 36 30  2  0  0  0  0
M  END
>  <minimizedAffinity>
-4.94358158

$$$$
