
 OpenBabel03252502113D

 26 28  0  0  0  0  0  0  0  0999 V2000
   45.2470   34.4540   42.5320 Cl  0  0  0  0  0  0  0  0  0  0  0  0
   45.4080   33.9490   40.8760 C   0  0  0  0  0  0  0  0  0  0  0  0
   46.6290   33.8420   40.2670 C   0  0  0  0  0  0  0  0  0  0  0  0
   46.6260   33.4360   38.9630 C   0  0  0  0  0  0  0  0  0  0  0  0
   45.5000   33.1420   38.2740 C   0  0  0  0  0  0  0  0  0  0  0  0
   44.2670   33.2490   38.8860 C   0  0  0  0  0  0  0  0  0  0  0  0
   44.2390   33.6570   40.1980 C   0  0  0  0  0  0  0  0  0  0  0  0
   45.5230   32.8240   37.2480 H   0  0  0  0  0  0  0  0  0  0  0  0
   43.3540   33.0200   38.3520 H   0  0  0  0  0  0  0  0  0  0  0  0
   43.2640   33.7360   40.6620 H   0  0  0  0  0  0  0  0  0  0  0  0
   49.4890   35.7170   41.8960 C   0  0  0  0  0  0  0  0  0  0  0  0
   48.3390   35.4470   41.1380 C   0  0  0  0  0  0  0  0  0  0  0  0
   47.8200   34.1660   41.0430 C   0  0  0  0  0  0  0  0  0  0  0  0
   48.4970   33.2080   41.7280 N   0  0  0  0  0  0  0  0  0  0  0  0
   49.5950   33.4660   42.4520 C   0  0  0  0  0  0  0  0  0  0  0  0
   50.0940   34.7240   42.5380 N   0  0  0  0  0  0  0  0  0  0  0  0
   49.8960   36.7030   41.9750 H   0  0  0  0  0  0  0  0  0  0  0  0
   47.8430   36.2490   40.6150 H   0  0  0  0  0  0  0  0  0  0  0  0
   49.9800   32.5570   42.9200 H   0  0  0  0  0  0  0  0  0  0  0  0
   47.9130   33.3100   38.2800 C   0  0  0  0  0  0  0  0  0  0  0  0
   48.6440   32.1820   38.2570 N   0  0  0  0  0  0  0  0  0  0  0  0
   49.7790   32.3590   37.5560 C   0  0  0  0  0  0  0  0  0  0  0  0
   50.5600   31.6130   37.3730 H   0  0  0  0  0  0  0  0  0  0  0  0
   49.7500   33.6440   37.1310 N   0  0  0  0  0  0  0  0  0  0  0  0
   50.4700   34.1180   36.5620 H   0  0  0  0  0  0  0  0  0  0  0  0
   48.6300   34.1910   37.5730 N   0  0  0  0  0  0  0  0  0  0  0  0
  2  1  1  0  0  0  0
  3  2  1  0  0  0  0
  3 13  1  0  0  0  0
  4  3  2  0  0  0  0
  5  6  2  0  0  0  0
  5  4  1  0  0  0  0
  6  7  1  0  0  0  0
  7 10  1  0  0  0  0
  7  2  2  0  0  0  0
  8  5  1  0  0  0  0
  9  6  1  0  0  0  0
 11 17  1  0  0  0  0
 11 16  1  0  0  0  0
 12 11  2  0  0  0  0
 13 12  1  0  0  0  0
 13 14  2  0  0  0  0
 14 15  1  0  0  0  0
 15 16  2  0  0  0  0
 15 19  1  0  0  0  0
 18 12  1  0  0  0  0
 20  4  1  0  0  0  0
 21 20  1  0  0  0  0
 22 21  2  0  0  0  0
 23 22  1  0  0  0  0
 24 22  1  0  0  0  0
 24 26  1  0  0  0  0
 25 24  1  0  0  0  0
 26 20  2  0  0  0  0
M  END
>  <minimizedAffinity>
-4.78387928

>  <minimizedRMSD>
5.02328205

$$$$
