
 OpenBabel03252508073D

 42 45  0  0  0  0  0  0  0  0999 V2000
   45.2450   35.8290   42.9190 C   0  0  0  0  0  0  0  0  0  0  0  0
   45.5210   34.4710   42.9600 C   0  0  0  0  0  0  0  0  0  0  0  0
   45.3330   33.7640   44.1230 C   0  0  0  0  0  0  0  0  0  0  0  0
   44.8640   34.4720   45.2120 N   0  0  0  0  0  0  0  0  0  0  0  0
   44.6000   35.7760   45.1670 C   0  0  0  0  0  0  0  0  0  0  0  0
   44.7970   36.4430   44.0100 N   0  0  0  0  0  0  0  0  0  0  0  0
   45.3810   36.4280   42.0170 H   0  0  0  0  0  0  0  0  0  0  0  0
   44.2370   36.3100   46.0220 H   0  0  0  0  0  0  0  0  0  0  0  0
   45.5650   32.3860   44.3280 C   0  0  0  0  0  0  0  0  0  0  0  0
   45.1350   31.3810   43.4570 C   0  0  0  0  0  0  0  0  0  0  0  0
   45.3040   30.0390   43.6850 C   0  0  0  0  0  0  0  0  0  0  0  0
   45.9330   29.6160   44.8360 C   0  0  0  0  0  0  0  0  0  0  0  0
   46.3810   30.6270   45.7370 C   0  0  0  0  0  0  0  0  0  0  0  0
   47.0060   30.2150   46.8840 C   0  0  0  0  0  0  0  0  0  0  0  0
   47.4660   31.1390   47.7990 C   0  0  0  0  0  0  0  0  0  0  0  0
   47.2880   32.5070   47.5430 C   0  0  0  0  0  0  0  0  0  0  0  0
   46.6400   32.8780   46.3510 C   0  0  0  0  0  0  0  0  0  0  0  0
   46.1910   31.9390   45.4630 C   0  0  0  0  0  0  0  0  0  0  0  0
   44.6390   31.6840   42.5450 H   0  0  0  0  0  0  0  0  0  0  0  0
   44.9580   29.2930   42.9860 H   0  0  0  0  0  0  0  0  0  0  0  0
   46.0940   28.5750   45.0720 H   0  0  0  0  0  0  0  0  0  0  0  0
   47.1480   29.1650   47.0900 H   0  0  0  0  0  0  0  0  0  0  0  0
   47.9520   30.7620   48.6910 H   0  0  0  0  0  0  0  0  0  0  0  0
   47.6800   33.1400   48.3090 H   0  0  0  0  0  0  0  0  0  0  0  0
   46.6230   33.9470   46.3290 H   0  0  0  0  0  0  0  0  0  0  0  0
   45.9760   33.8910   41.8070 O   0  0  0  0  0  0  0  0  0  0  0  0
   48.0220   32.3530   41.2540 O   0  0  0  0  0  0  0  0  0  0  0  0
   47.6050   33.7770   41.3660 P   0  0  1  0  0  0  0  0  0  0  0  0
   47.8730   34.4890   39.8530 O   0  0  0  0  0  0  0  0  0  0  0  0
   47.4530   33.7960   38.7250 C   0  0  0  0  0  0  0  0  0  0  0  0
   48.2060   33.6640   37.6020 N   0  0  0  0  0  0  0  0  0  0  0  0
   47.5310   32.9440   36.6850 C   0  0  0  0  0  0  0  0  0  0  0  0
   47.8530   32.6610   35.6880 H   0  0  0  0  0  0  0  0  0  0  0  0
   46.3450   32.6200   37.2350 N   0  0  0  0  0  0  0  0  0  0  0  0
   45.5580   32.0560   36.7950 H   0  0  0  0  0  0  0  0  0  0  0  0
   46.3160   33.1370   38.4500 N   0  0  0  0  0  0  0  0  0  0  0  0
   48.5210   34.5900   42.5150 O   0  0  0  0  0  0  0  0  0  0  0  0
   49.7230   35.2440   42.3040 C   0  0  0  0  0  0  0  0  0  0  0  0
   49.4060   36.3460   41.8200 O   0  0  0  0  0  0  0  0  0  0  0  0
   50.8360   34.4210   42.7140 N   0  0  0  0  0  0  0  0  0  0  0  0
   50.9110   34.1960   43.7420 H   0  0  0  0  0  0  0  0  0  0  0  0
   51.5980   34.0040   42.1340 H   0  0  0  0  0  0  0  0  0  0  0  0
  1  2  2  0  0  0  0
  1  6  1  0  0  0  0
  2  3  1  0  0  0  0
  3  9  1  0  0  0  0
  3  4  2  0  0  0  0
  5  4  1  0  0  0  0
  5  8  1  0  0  0  0
  6  5  2  0  0  0  0
  7  1  1  0  0  0  0
  9 18  1  0  0  0  0
 10 11  1  0  0  0  0
 10  9  2  0  0  0  0
 11 12  2  0  0  0  0
 12 21  1  0  0  0  0
 12 13  1  0  0  0  0
 13 14  1  0  0  0  0
 14 22  1  0  0  0  0
 14 15  2  0  0  0  0
 15 23  1  0  0  0  0
 16 15  1  0  0  0  0
 16 24  1  0  0  0  0
 17 16  2  0  0  0  0
 18 13  2  0  0  0  0
 18 17  1  0  0  0  0
 19 10  1  0  0  0  0
 20 11  1  0  0  0  0
 25 17  1  0  0  0  0
 26  2  1  0  0  0  0
 28 27  2  6  0  0  0
 28 26  1  0  0  0  0
 28 37  1  0  0  0  0
 29 28  1  0  0  0  0
 30 29  1  0  0  0  0
 31 30  1  0  0  0  0
 32 34  1  0  0  0  0
 32 31  2  0  0  0  0
 33 32  1  0  0  0  0
 34 36  1  0  0  0  0
 35 34  1  0  0  0  0
 36 30  2  0  0  0  0
 38 37  1  0  0  0  0
 38 40  1  0  0  0  0
 39 38  2  0  0  0  0
 40 41  1  0  0  0  0
 42 40  1  0  0  0  0
M  END
>  <minimizedAffinity>
-5.98764658

>  <minimizedRMSD>
0.651437879

$$$$
