
 OpenBabel03252501163D

 33 36  0  0  1  0  0  0  0  0999 V2000
   46.1680   32.8880   43.8910 C   0  0  1  0  0  0  0  0  0  0  0  0
   45.9260   34.2960   44.2780 C   0  0  0  0  0  0  0  0  0  0  0  0
   47.3510   33.7450   43.8800 C   0  0  2  0  0  0  0  0  0  0  0  0
   45.7500   32.5850   42.8840 H   0  0  0  0  0  0  0  0  0  0  0  0
   45.8440   34.5890   45.3370 H   0  0  0  0  0  0  0  0  0  0  0  0
   45.4720   35.0080   43.5800 H   0  0  0  0  0  0  0  0  0  0  0  0
   48.0540   33.7010   44.7110 H   0  0  0  0  0  0  0  0  0  0  0  0
   45.8250   31.2610   47.2610 C   0  0  0  0  0  0  0  0  0  0  0  0
   45.9900   32.2660   46.3230 C   0  0  0  0  0  0  0  0  0  0  0  0
   45.9900   31.8890   44.9910 C   0  0  0  0  0  0  0  0  0  0  0  0
   45.8340   30.5880   44.6620 N   0  0  0  0  0  0  0  0  0  0  0  0
   45.6750   29.6330   45.6150 C   0  0  0  0  0  0  0  0  0  0  0  0
   45.6720   29.9820   46.9210 N   0  0  0  0  0  0  0  0  0  0  0  0
   46.1130   33.2910   46.5940 H   0  0  0  0  0  0  0  0  0  0  0  0
   45.5510   28.5950   45.3420 H   0  0  0  0  0  0  0  0  0  0  0  0
   45.8100   31.6510   48.7080 C   0  0  0  0  0  0  0  0  0  0  0  0
   46.9810   31.1940   49.2690 F   0  0  0  0  0  0  0  0  0  0  0  0
   44.7630   30.9760   49.3000 F   0  0  0  0  0  0  0  0  0  0  0  0
   45.7190   33.0040   48.8590 F   0  0  0  0  0  0  0  0  0  0  0  0
   47.7970   34.2420   42.5530 C   0  0  0  0  0  0  0  0  0  0  0  0
   48.6970   35.2720   42.3010 C   0  0  0  0  0  0  0  0  0  0  0  0
   48.7570   35.3180   40.9310 C   0  0  0  0  0  0  0  0  0  0  0  0
   47.9090   34.3290   40.3890 C   0  0  0  0  0  0  0  0  0  0  0  0
   47.3850   33.7450   41.4300 O   0  0  0  0  0  0  0  0  0  0  0  0
   49.2200   35.8900   43.0130 H   0  0  0  0  0  0  0  0  0  0  0  0
   49.3560   35.9980   40.3410 H   0  0  0  0  0  0  0  0  0  0  0  0
   47.7260   34.0930   38.9600 C   0  0  0  0  0  0  0  0  0  0  0  0
   46.7170   33.2480   38.6200 N   0  0  0  0  0  0  0  0  0  0  0  0
   46.7010   33.1540   37.2590 C   0  0  0  0  0  0  0  0  0  0  0  0
   46.0600   32.5890   36.5950 H   0  0  0  0  0  0  0  0  0  0  0  0
   47.7020   33.9430   36.8030 N   0  0  0  0  0  0  0  0  0  0  0  0
   47.9810   34.1100   35.7920 H   0  0  0  0  0  0  0  0  0  0  0  0
   48.3440   34.5290   37.8250 N   0  0  0  0  0  0  0  0  0  0  0  0
  1  4  1  6  0  0  0
  1  2  1  0  0  0  0
  1 10  1  0  0  0  0
  2  5  1  0  0  0  0
  3  1  1  0  0  0  0
  3  2  1  0  0  0  0
  3  7  1  1  0  0  0
  6  2  1  0  0  0  0
  8 16  1  0  0  0  0
  9 14  1  0  0  0  0
  9  8  2  0  0  0  0
 10  9  1  0  0  0  0
 11 10  2  0  0  0  0
 11 12  1  0  0  0  0
 12 13  2  0  0  0  0
 13  8  1  0  0  0  0
 15 12  1  0  0  0  0
 16 19  1  0  0  0  0
 16 17  1  0  0  0  0
 16 18  1  0  0  0  0
 20  3  1  0  0  0  0
 21 20  2  0  0  0  0
 21 25  1  0  0  0  0
 22 21  1  0  0  0  0
 23 22  2  0  0  0  0
 23 24  1  0  0  0  0
 24 20  1  0  0  0  0
 26 22  1  0  0  0  0
 27 23  1  0  0  0  0
 28 27  1  0  0  0  0
 29 28  2  0  0  0  0
 30 29  1  0  0  0  0
 31 29  1  0  0  0  0
 31 33  1  0  0  0  0
 32 31  1  0  0  0  0
 33 27  2  0  0  0  0
M  END
>  <minimizedAffinity>
-5.97070837

>  <minimizedRMSD>
2.52542377

$$$$
