
 OpenBabel03252501323D

 22 23  0  0  0  0  0  0  0  0999 V2000
   45.5580   34.1710   44.3460 C   0  0  0  0  0  0  0  0  0  0  0  0
   45.3130   34.2240   45.7050 C   0  0  0  0  0  0  0  0  0  0  0  0
   46.0780   33.3810   46.5020 C   0  0  0  0  0  0  0  0  0  0  0  0
   46.9840   32.5940   45.9070 N   0  0  0  0  0  0  0  0  0  0  0  0
   47.1990   32.5680   44.5780 C   0  0  0  0  0  0  0  0  0  0  0  0
   46.4750   33.3720   43.7620 N   0  0  0  0  0  0  0  0  0  0  0  0
   45.8770   33.4320   47.5560 H   0  0  0  0  0  0  0  0  0  0  0  0
   47.9600   31.8830   44.2500 H   0  0  0  0  0  0  0  0  0  0  0  0
   44.0740   34.0860   42.5290 C   0  0  0  0  0  0  0  0  0  0  0  0
   44.1920   32.8740   42.8810 O   0  0  0  0  0  0  0  0  0  0  0  0
   44.8710   34.9670   43.3410 N   0  0  0  0  0  0  0  0  0  0  0  0
   44.8940   35.9760   43.1730 H   0  0  0  0  0  0  0  0  0  0  0  0
   43.2460   34.6000   41.4430 C   0  0  0  0  0  0  0  0  0  0  0  0
   43.3520   34.5760   40.1050 N   0  0  0  0  0  0  0  0  0  0  0  0
   42.2810   35.2190   39.5560 C   0  0  0  0  0  0  0  0  0  0  0  0
   42.3500   35.2090   38.4720 H   0  0  0  0  0  0  0  0  0  0  0  0
   41.5170   35.6360   40.5910 N   0  0  0  0  0  0  0  0  0  0  0  0
   40.6580   36.1470   40.2890 H   0  0  0  0  0  0  0  0  0  0  0  0
   42.1050   35.2600   41.7230 N   0  0  0  0  0  0  0  0  0  0  0  0
   44.3090   35.1260   46.1410 N   0  0  0  0  0  0  0  0  0  0  0  0
   43.4590   35.2560   45.5490 H   0  0  0  0  0  0  0  0  0  0  0  0
   44.2840   35.7080   46.9970 H   0  0  0  0  0  0  0  0  0  0  0  0
  1  2  1  0  0  0  0
  2 20  1  0  0  0  0
  2  3  2  0  0  0  0
  3  7  1  0  0  0  0
  4  3  1  0  0  0  0
  5  4  2  0  0  0  0
  6  1  2  0  0  0  0
  6  5  1  0  0  0  0
  8  5  1  0  0  0  0
  9 10  2  0  0  0  0
  9 11  1  0  0  0  0
 11  1  1  0  0  0  0
 12 11  1  0  0  0  0
 13 19  2  0  0  0  0
 13  9  1  0  0  0  0
 14 13  1  0  0  0  0
 15 14  2  0  0  0  0
 15 17  1  0  0  0  0
 16 15  1  0  0  0  0
 17 19  1  0  0  0  0
 18 17  1  0  0  0  0
 20 22  1  0  0  0  0
 21 20  1  0  0  0  0
M  END
>  <minimizedAffinity>
-4.30713081

>  <minimizedRMSD>
1.69097579

$$$$
