
 OpenBabel03242511523D

 32 36  0  0  1  0  0  0  0  0999 V2000
   37.3440   27.5050   42.4080 C   0  0  1  0  0  0  0  0  0  0  0  0
   38.5790   28.1600   42.7310 C   0  0  2  0  0  0  0  0  0  0  0  0
   37.3710   28.3880   43.5600 C   0  0  0  0  0  0  0  0  0  0  0  0
   37.3060   26.3910   42.6010 H   0  0  0  0  0  0  0  0  0  0  0  0
   39.3590   27.5250   43.2520 H   0  0  0  0  0  0  0  0  0  0  0  0
   36.7760   29.3420   43.4850 H   0  0  0  0  0  0  0  0  0  0  0  0
   37.2920   27.9710   44.5890 H   0  0  0  0  0  0  0  0  0  0  0  0
   36.9220   27.0720   40.0450 C   0  0  0  0  0  0  0  0  0  0  0  0
   36.6510   27.8500   41.1610 C   0  0  0  0  0  0  0  0  0  0  0  0
   35.7200   28.8810   41.0990 C   0  0  0  0  0  0  0  0  0  0  0  0
   35.0990   29.0680   39.8840 N   0  0  0  0  0  0  0  0  0  0  0  0
   35.3630   28.3100   38.8030 C   0  0  0  0  0  0  0  0  0  0  0  0
   36.2830   27.3080   38.8930 N   0  0  0  0  0  0  0  0  0  0  0  0
   37.6380   26.2820   40.0920 H   0  0  0  0  0  0  0  0  0  0  0  0
   35.5050   29.4860   41.9480 H   0  0  0  0  0  0  0  0  0  0  0  0
   34.8910   28.4440   37.8620 H   0  0  0  0  0  0  0  0  0  0  0  0
   39.0760   29.3910   42.0880 C   0  0  1  0  0  0  0  0  0  0  0  0
   40.2900   29.3940   41.8080 O   0  0  0  0  0  0  0  0  0  0  0  0
   39.4890   30.2720   40.9940 C   0  0  2  0  0  0  0  0  0  0  0  0
   39.1890   31.7420   41.3030 C   0  0  0  0  0  0  0  0  0  0  0  0
   38.6940   31.0940   40.1160 C   0  0  1  0  0  0  0  0  0  0  0  0
   39.0520   30.0390   43.0780 H   0  0  0  0  0  0  0  0  0  0  0  0
   38.4630   32.0120   42.0860 H   0  0  0  0  0  0  0  0  0  0  0  0
   40.1140   32.3500   41.2910 H   0  0  0  0  0  0  0  0  0  0  0  0
   37.6120   30.7650   40.1100 H   0  0  0  0  0  0  0  0  0  0  0  0
   39.2760   31.5490   38.8530 C   0  0  0  0  0  0  0  0  0  0  0  0
   40.6050   31.8030   38.6710 N   0  0  0  0  0  0  0  0  0  0  0  0
   40.8020   32.2020   37.4020 C   0  0  0  0  0  0  0  0  0  0  0  0
   41.7760   32.4520   37.0500 H   0  0  0  0  0  0  0  0  0  0  0  0
   39.5710   32.1840   36.8220 N   0  0  0  0  0  0  0  0  0  0  0  0
   39.4350   32.4550   35.8160 H   0  0  0  0  0  0  0  0  0  0  0  0
   38.6530   31.7840   37.7180 N   0  0  0  0  0  0  0  0  0  0  0  0
  1  4  1  1  0  0  0
  1  2  1  0  0  0  0
  1  3  1  0  0  0  0
  2  5  1  1  0  0  0
  2  3  1  0  0  0  0
  3  7  1  0  0  0  0
  6  3  1  0  0  0  0
  8 14  1  0  0  0  0
  8  9  1  0  0  0  0
  9  1  1  0  0  0  0
 10  9  2  0  0  0  0
 10 15  1  0  0  0  0
 11 10  1  0  0  0  0
 12 13  1  0  0  0  0
 12 11  2  0  0  0  0
 13  8  2  0  0  0  0
 16 12  1  0  0  0  0
 17  2  1  0  0  0  0
 17 22  1  1  0  0  0
 18 17  1  0  0  0  0
 19 20  1  0  0  0  0
 19 18  1  6  0  0  0
 19 17  1  0  0  0  0
 20 23  1  0  0  0  0
 21 25  1  6  0  0  0
 21 19  1  0  0  0  0
 21 20  1  0  0  0  0
 24 20  1  0  0  0  0
 26 21  1  0  0  0  0
 27 26  1  0  0  0  0
 28 27  2  0  0  0  0
 29 28  1  0  0  0  0
 30 28  1  0  0  0  0
 30 32  1  0  0  0  0
 31 30  1  0  0  0  0
 32 26  2  0  0  0  0
M  END
>  <minimizedAffinity>
-5.02515507

$$$$

 OpenBabel03242511523D

 32 36  0  0  1  0  0  0  0  0999 V2000
   37.7790   26.8820   42.7790 C   0  0  1  0  0  0  0  0  0  0  0  0
   37.7810   28.2410   43.2400 C   0  0  2  0  0  0  0  0  0  0  0  0
   36.5390   27.4320   43.2960 C   0  0  0  0  0  0  0  0  0  0  0  0
   38.3320   26.1360   43.4260 H   0  0  0  0  0  0  0  0  0  0  0  0
   38.2370   28.4200   44.2620 H   0  0  0  0  0  0  0  0  0  0  0  0
   35.7020   27.5860   42.5570 H   0  0  0  0  0  0  0  0  0  0  0  0
   36.1270   27.0750   44.2660 H   0  0  0  0  0  0  0  0  0  0  0  0
   36.8620   26.4290   40.5640 C   0  0  0  0  0  0  0  0  0  0  0  0
   37.9900   26.6070   41.3530 C   0  0  0  0  0  0  0  0  0  0  0  0
   39.2610   26.5730   40.7910 C   0  0  0  0  0  0  0  0  0  0  0  0
   39.3200   26.3600   39.4320 N   0  0  0  0  0  0  0  0  0  0  0  0
   38.2240   26.1900   38.6690 C   0  0  0  0  0  0  0  0  0  0  0  0
   36.9900   26.2260   39.2480 N   0  0  0  0  0  0  0  0  0  0  0  0
   35.8860   26.4540   40.9960 H   0  0  0  0  0  0  0  0  0  0  0  0
   40.1340   26.7060   41.3860 H   0  0  0  0  0  0  0  0  0  0  0  0
   38.2570   26.0250   37.6220 H   0  0  0  0  0  0  0  0  0  0  0  0
   37.6560   29.4280   42.3740 C   0  0  1  0  0  0  0  0  0  0  0  0
   38.5520   30.2820   42.5080 O   0  0  0  0  0  0  0  0  0  0  0  0
   37.9110   30.2900   41.2180 C   0  0  2  0  0  0  0  0  0  0  0  0
   36.6780   31.1180   40.8430 C   0  0  0  0  0  0  0  0  0  0  0  0
   37.3370   30.2580   39.8950 C   0  0  1  0  0  0  0  0  0  0  0  0
   36.7660   29.9080   42.9880 H   0  0  0  0  0  0  0  0  0  0  0  0
   35.6780   30.8250   41.1990 H   0  0  0  0  0  0  0  0  0  0  0  0
   36.8950   32.2030   40.8950 H   0  0  0  0  0  0  0  0  0  0  0  0
   36.8620   29.2570   39.6750 H   0  0  0  0  0  0  0  0  0  0  0  0
   38.0390   30.9350   38.8040 C   0  0  0  0  0  0  0  0  0  0  0  0
   39.3770   31.2100   38.8090 N   0  0  0  0  0  0  0  0  0  0  0  0
   39.6960   31.8350   37.6620 C   0  0  0  0  0  0  0  0  0  0  0  0
   40.6980   32.1400   37.4640 H   0  0  0  0  0  0  0  0  0  0  0  0
   38.5310   31.9320   36.9650 N   0  0  0  0  0  0  0  0  0  0  0  0
   38.4950   32.3850   36.0180 H   0  0  0  0  0  0  0  0  0  0  0  0
   37.5320   31.3800   37.6740 N   0  0  0  0  0  0  0  0  0  0  0  0
  1  2  1  0  0  0  0
  1  3  1  0  0  0  0
  1  4  1  1  0  0  0
  2  3  1  0  0  0  0
  2  5  1  1  0  0  0
  3  7  1  0  0  0  0
  6  3  1  0  0  0  0
  8 14  1  0  0  0  0
  8  9  1  0  0  0  0
  9  1  1  0  0  0  0
 10  9  2  0  0  0  0
 10 15  1  0  0  0  0
 11 10  1  0  0  0  0
 12 13  1  0  0  0  0
 12 11  2  0  0  0  0
 13  8  2  0  0  0  0
 16 12  1  0  0  0  0
 17 18  1  0  0  0  0
 17 22  1  1  0  0  0
 17  2  1  0  0  0  0
 19 17  1  0  0  0  0
 19 18  1  1  0  0  0
 20 24  1  0  0  0  0
 20 23  1  0  0  0  0
 20 19  1  0  0  0  0
 21 25  1  6  0  0  0
 21 20  1  0  0  0  0
 21 19  1  0  0  0  0
 26 27  1  0  0  0  0
 26 21  1  0  0  0  0
 28 27  2  0  0  0  0
 29 28  1  0  0  0  0
 30 28  1  0  0  0  0
 30 32  1  0  0  0  0
 31 30  1  0  0  0  0
 32 26  2  0  0  0  0
M  END
>  <minimizedAffinity>
-4.9822135

$$$$

 OpenBabel03242511523D

 32 36  0  0  1  0  0  0  0  0999 V2000
   36.2400   27.9220   40.7220 C   0  0  1  0  0  0  0  0  0  0  0  0
   35.5380   29.1160   40.3500 C   0  0  2  0  0  0  0  0  0  0  0  0
   36.0030   28.1660   39.3110 C   0  0  0  0  0  0  0  0  0  0  0  0
   35.6240   27.1180   41.2270 H   0  0  0  0  0  0  0  0  0  0  0  0
   34.4140   29.0990   40.4920 H   0  0  0  0  0  0  0  0  0  0  0  0
   36.9050   28.3860   38.6730 H   0  0  0  0  0  0  0  0  0  0  0  0
   35.2830   27.5340   38.7450 H   0  0  0  0  0  0  0  0  0  0  0  0
   37.6290   28.1810   42.7110 C   0  0  0  0  0  0  0  0  0  0  0  0
   37.5700   28.0320   41.3330 C   0  0  0  0  0  0  0  0  0  0  0  0
   38.7350   27.9390   40.5790 C   0  0  0  0  0  0  0  0  0  0  0  0
   39.9190   28.0020   41.2780 N   0  0  0  0  0  0  0  0  0  0  0  0
   39.9730   28.1450   42.6160 C   0  0  0  0  0  0  0  0  0  0  0  0
   38.8140   28.2350   43.3290 N   0  0  0  0  0  0  0  0  0  0  0  0
   36.7350   28.2530   43.2900 H   0  0  0  0  0  0  0  0  0  0  0  0
   38.7020   27.8270   39.5210 H   0  0  0  0  0  0  0  0  0  0  0  0
   40.8790   28.1940   43.1650 H   0  0  0  0  0  0  0  0  0  0  0  0
   36.1490   30.4530   40.2230 C   0  0  1  0  0  0  0  0  0  0  0  0
   36.0880   31.1660   41.2410 O   0  0  0  0  0  0  0  0  0  0  0  0
   37.1780   31.4860   40.3560 C   0  0  2  0  0  0  0  0  0  0  0  0
   37.1220   32.4960   39.2060 C   0  0  0  0  0  0  0  0  0  0  0  0
   38.3220   31.7670   39.5240 C   0  0  1  0  0  0  0  0  0  0  0  0
   35.2780   30.9000   39.5580 H   0  0  0  0  0  0  0  0  0  0  0  0
   36.5990   32.2490   38.2690 H   0  0  0  0  0  0  0  0  0  0  0  0
   36.9470   33.5230   39.5840 H   0  0  0  0  0  0  0  0  0  0  0  0
   38.5860   30.8810   38.8730 H   0  0  0  0  0  0  0  0  0  0  0  0
   39.4210   32.5590   40.0760 C   0  0  0  0  0  0  0  0  0  0  0  0
   40.7190   32.1400   40.1200 N   0  0  0  0  0  0  0  0  0  0  0  0
   41.4680   33.1030   40.6870 C   0  0  0  0  0  0  0  0  0  0  0  0
   42.5180   32.9760   40.8180 H   0  0  0  0  0  0  0  0  0  0  0  0
   40.6010   34.1090   40.9830 N   0  0  0  0  0  0  0  0  0  0  0  0
   40.9270   34.9980   41.4400 H   0  0  0  0  0  0  0  0  0  0  0  0
   39.3590   33.7630   40.6050 N   0  0  0  0  0  0  0  0  0  0  0  0
  1  4  1  1  0  0  0
  1  9  1  0  0  0  0
  2  5  1  1  0  0  0
  2  1  1  0  0  0  0
  3  2  1  0  0  0  0
  3  1  1  0  0  0  0
  6  3  1  0  0  0  0
  7  3  1  0  0  0  0
  8 14  1  0  0  0  0
  8 13  1  0  0  0  0
  9  8  2  0  0  0  0
 10 11  2  0  0  0  0
 10  9  1  0  0  0  0
 11 12  1  0  0  0  0
 12 16  1  0  0  0  0
 12 13  2  0  0  0  0
 15 10  1  0  0  0  0
 17 22  1  6  0  0  0
 17  2  1  0  0  0  0
 17 19  1  0  0  0  0
 17 18  1  0  0  0  0
 19 18  1  1  0  0  0
 20 21  1  0  0  0  0
 20 24  1  0  0  0  0
 20 19  1  0  0  0  0
 21 25  1  6  0  0  0
 21 26  1  0  0  0  0
 21 19  1  0  0  0  0
 23 20  1  0  0  0  0
 26 27  1  0  0  0  0
 26 32  2  0  0  0  0
 27 28  2  0  0  0  0
 28 29  1  0  0  0  0
 28 30  1  0  0  0  0
 30 31  1  0  0  0  0
 32 30  1  0  0  0  0
M  END
>  <minimizedAffinity>
-4.96062279

$$$$

 OpenBabel03242511523D

 32 36  0  0  1  0  0  0  0  0999 V2000
   39.8790   24.8660   41.8760 C   0  0  1  0  0  0  0  0  0  0  0  0
   40.2720   25.9290   42.7570 C   0  0  2  0  0  0  0  0  0  0  0  0
   39.6230   24.7100   43.2970 C   0  0  0  0  0  0  0  0  0  0  0  0
   40.7190   24.2580   41.4240 H   0  0  0  0  0  0  0  0  0  0  0  0
   41.3760   25.9880   43.0050 H   0  0  0  0  0  0  0  0  0  0  0  0
   38.5450   24.7120   43.6240 H   0  0  0  0  0  0  0  0  0  0  0  0
   40.1990   23.9670   43.8920 H   0  0  0  0  0  0  0  0  0  0  0  0
   37.5410   24.6380   41.2210 C   0  0  0  0  0  0  0  0  0  0  0  0
   38.8090   25.1010   40.9000 C   0  0  0  0  0  0  0  0  0  0  0  0
   39.0310   25.8020   39.7200 C   0  0  0  0  0  0  0  0  0  0  0  0
   37.9320   26.0020   38.9150 N   0  0  0  0  0  0  0  0  0  0  0  0
   36.7020   25.5530   39.2290 C   0  0  0  0  0  0  0  0  0  0  0  0
   36.5150   24.8670   40.3930 N   0  0  0  0  0  0  0  0  0  0  0  0
   37.3700   24.0990   42.1260 H   0  0  0  0  0  0  0  0  0  0  0  0
   40.0000   26.1600   39.4620 H   0  0  0  0  0  0  0  0  0  0  0  0
   35.8490   25.7020   38.6180 H   0  0  0  0  0  0  0  0  0  0  0  0
   39.4900   27.1550   43.0050 C   0  0  1  0  0  0  0  0  0  0  0  0
   40.1610   28.1770   43.2420 O   0  0  0  0  0  0  0  0  0  0  0  0
   38.8540   28.4370   42.6960 C   0  0  2  0  0  0  0  0  0  0  0  0
   37.5760   28.6490   43.5130 C   0  0  0  0  0  0  0  0  0  0  0  0
   37.5820   28.7140   42.0750 C   0  0  1  0  0  0  0  0  0  0  0  0
   39.1400   26.8340   44.0880 H   0  0  0  0  0  0  0  0  0  0  0  0
   37.0690   27.7950   43.9900 H   0  0  0  0  0  0  0  0  0  0  0  0
   37.6470   29.5610   44.1380 H   0  0  0  0  0  0  0  0  0  0  0  0
   37.1960   27.8170   41.5070 H   0  0  0  0  0  0  0  0  0  0  0  0
   37.3510   30.0380   41.4980 C   0  0  0  0  0  0  0  0  0  0  0  0
   38.3470   30.8880   41.1090 N   0  0  0  0  0  0  0  0  0  0  0  0
   37.7940   32.0140   40.6240 C   0  0  0  0  0  0  0  0  0  0  0  0
   38.4010   32.8120   40.2640 H   0  0  0  0  0  0  0  0  0  0  0  0
   36.4500   31.8300   40.7250 N   0  0  0  0  0  0  0  0  0  0  0  0
   35.7690   32.5670   40.4120 H   0  0  0  0  0  0  0  0  0  0  0  0
   36.1960   30.6230   41.2590 N   0  0  0  0  0  0  0  0  0  0  0  0
  1  4  1  6  0  0  0
  1  2  1  0  0  0  0
  1  3  1  0  0  0  0
  2 17  1  0  0  0  0
  2  5  1  1  0  0  0
  2  3  1  0  0  0  0
  3  6  1  0  0  0  0
  3  7  1  0  0  0  0
  8 14  1  0  0  0  0
  9  8  1  0  0  0  0
  9  1  1  0  0  0  0
 10  9  2  0  0  0  0
 11 12  2  0  0  0  0
 11 10  1  0  0  0  0
 12 13  1  0  0  0  0
 13  8  2  0  0  0  0
 15 10  1  0  0  0  0
 16 12  1  0  0  0  0
 17 18  1  0  0  0  0
 17 22  1  1  0  0  0
 19 17  1  0  0  0  0
 19 18  1  1  0  0  0
 19 20  1  0  0  0  0
 20 23  1  0  0  0  0
 20 24  1  0  0  0  0
 21 25  1  6  0  0  0
 21 19  1  0  0  0  0
 21 20  1  0  0  0  0
 26 21  1  0  0  0  0
 27 26  1  0  0  0  0
 28 30  1  0  0  0  0
 28 27  2  0  0  0  0
 29 28  1  0  0  0  0
 30 32  1  0  0  0  0
 31 30  1  0  0  0  0
 32 26  2  0  0  0  0
M  END
>  <minimizedAffinity>
-4.95912695

$$$$

 OpenBabel03242511523D

 32 36  0  0  1  0  0  0  0  0999 V2000
   38.3330   25.9860   42.4980 C   0  0  1  0  0  0  0  0  0  0  0  0
   37.0990   26.7060   42.6240 C   0  0  2  0  0  0  0  0  0  0  0  0
   37.4020   25.9510   41.3850 C   0  0  0  0  0  0  0  0  0  0  0  0
   38.4310   25.0510   43.1290 H   0  0  0  0  0  0  0  0  0  0  0  0
   36.2960   26.2140   43.2550 H   0  0  0  0  0  0  0  0  0  0  0  0
   37.7190   26.4750   40.4380 H   0  0  0  0  0  0  0  0  0  0  0  0
   36.8600   25.0120   41.1340 H   0  0  0  0  0  0  0  0  0  0  0  0
   40.2270   26.9940   43.6590 C   0  0  0  0  0  0  0  0  0  0  0  0
   39.5970   26.7290   42.4510 C   0  0  0  0  0  0  0  0  0  0  0  0
   40.1800   27.1140   41.2480 C   0  0  0  0  0  0  0  0  0  0  0  0
   41.3940   27.7570   41.3380 N   0  0  0  0  0  0  0  0  0  0  0  0
   42.0030   28.0110   42.5120 C   0  0  0  0  0  0  0  0  0  0  0  0
   41.4070   27.6230   43.6760 N   0  0  0  0  0  0  0  0  0  0  0  0
   39.7800   26.6990   44.5820 H   0  0  0  0  0  0  0  0  0  0  0  0
   39.7050   26.9190   40.3160 H   0  0  0  0  0  0  0  0  0  0  0  0
   42.9380   28.5050   42.5940 H   0  0  0  0  0  0  0  0  0  0  0  0
   36.9370   28.1540   42.3910 C   0  0  1  0  0  0  0  0  0  0  0  0
   37.0680   28.8740   43.3980 O   0  0  0  0  0  0  0  0  0  0  0  0
   37.3490   29.5380   42.1520 C   0  0  2  0  0  0  0  0  0  0  0  0
   36.3270   30.2960   41.2990 C   0  0  0  0  0  0  0  0  0  0  0  0
   37.7130   30.1960   40.9210 C   0  0  1  0  0  0  0  0  0  0  0  0
   35.7600   28.1060   42.2760 H   0  0  0  0  0  0  0  0  0  0  0  0
   35.5850   29.7490   40.6960 H   0  0  0  0  0  0  0  0  0  0  0  0
   35.9330   31.1800   41.8390 H   0  0  0  0  0  0  0  0  0  0  0  0
   37.9850   29.4490   40.1180 H   0  0  0  0  0  0  0  0  0  0  0  0
   38.4810   31.4400   40.9850 C   0  0  0  0  0  0  0  0  0  0  0  0
   38.0270   32.6440   40.5270 N   0  0  0  0  0  0  0  0  0  0  0  0
   38.9750   33.5740   40.7360 C   0  0  0  0  0  0  0  0  0  0  0  0
   38.8200   34.5890   40.4490 H   0  0  0  0  0  0  0  0  0  0  0  0
   40.0060   32.9130   41.3280 N   0  0  0  0  0  0  0  0  0  0  0  0
   40.8900   33.4110   41.6040 H   0  0  0  0  0  0  0  0  0  0  0  0
   39.6900   31.6160   41.4720 N   0  0  0  0  0  0  0  0  0  0  0  0
  1  2  1  0  0  0  0
  1  4  1  1  0  0  0
  2  5  1  1  0  0  0
  3  1  1  0  0  0  0
  3  2  1  0  0  0  0
  6  3  1  0  0  0  0
  7  3  1  0  0  0  0
  8 13  1  0  0  0  0
  8 14  1  0  0  0  0
  9  1  1  0  0  0  0
  9  8  2  0  0  0  0
 10 11  2  0  0  0  0
 10  9  1  0  0  0  0
 11 12  1  0  0  0  0
 12 16  1  0  0  0  0
 12 13  2  0  0  0  0
 15 10  1  0  0  0  0
 17 22  1  6  0  0  0
 17  2  1  0  0  0  0
 17 18  1  0  0  0  0
 19 17  1  0  0  0  0
 19 18  1  1  0  0  0
 20 24  1  0  0  0  0
 20 19  1  0  0  0  0
 21 25  1  6  0  0  0
 21 26  1  0  0  0  0
 21 20  1  0  0  0  0
 21 19  1  0  0  0  0
 23 20  1  0  0  0  0
 26 32  2  0  0  0  0
 27 28  2  0  0  0  0
 27 26  1  0  0  0  0
 28 30  1  0  0  0  0
 29 28  1  0  0  0  0
 30 32  1  0  0  0  0
 30 31  1  0  0  0  0
M  END
>  <minimizedAffinity>
-4.88136292

$$$$

 OpenBabel03242511523D

 32 36  0  0  1  0  0  0  0  0999 V2000
   36.8760   29.9920   41.6820 C   0  0  1  0  0  0  0  0  0  0  0  0
   36.3990   31.0470   40.8340 C   0  0  2  0  0  0  0  0  0  0  0  0
   35.8930   29.6640   40.6650 C   0  0  0  0  0  0  0  0  0  0  0  0
   36.5280   30.0220   42.7580 H   0  0  0  0  0  0  0  0  0  0  0  0
   35.6320   31.7450   41.2890 H   0  0  0  0  0  0  0  0  0  0  0  0
   36.2380   29.0090   39.8150 H   0  0  0  0  0  0  0  0  0  0  0  0
   34.8540   29.3910   40.9560 H   0  0  0  0  0  0  0  0  0  0  0  0
   39.1970   30.2440   42.3880 C   0  0  0  0  0  0  0  0  0  0  0  0
   38.2800   29.5750   41.5900 C   0  0  0  0  0  0  0  0  0  0  0  0
   38.6820   28.5190   40.7800 C   0  0  0  0  0  0  0  0  0  0  0  0
   40.0190   28.1920   40.8260 N   0  0  0  0  0  0  0  0  0  0  0  0
   40.9060   28.8420   41.6020 C   0  0  0  0  0  0  0  0  0  0  0  0
   40.4830   29.8750   42.3860 N   0  0  0  0  0  0  0  0  0  0  0  0
   38.8890   31.0550   43.0100 H   0  0  0  0  0  0  0  0  0  0  0  0
   37.9880   28.0000   40.1610 H   0  0  0  0  0  0  0  0  0  0  0  0
   41.9370   28.5980   41.6460 H   0  0  0  0  0  0  0  0  0  0  0  0
   37.1000   31.5530   39.6380 C   0  0  1  0  0  0  0  0  0  0  0  0
   37.0650   32.7880   39.4830 O   0  0  0  0  0  0  0  0  0  0  0  0
   38.1920   32.1410   38.8600 C   0  0  2  0  0  0  0  0  0  0  0  0
   38.2250   31.6000   37.4280 C   0  0  0  0  0  0  0  0  0  0  0  0
   39.3680   31.5230   38.3010 C   0  0  1  0  0  0  0  0  0  0  0  0
   36.2740   31.1870   38.8750 H   0  0  0  0  0  0  0  0  0  0  0  0
   37.7060   30.6630   37.1720 H   0  0  0  0  0  0  0  0  0  0  0  0
   38.1110   32.4170   36.6890 H   0  0  0  0  0  0  0  0  0  0  0  0
   39.5860   30.5300   38.7940 H   0  0  0  0  0  0  0  0  0  0  0  0
   40.5050   32.3680   37.9350 C   0  0  0  0  0  0  0  0  0  0  0  0
   40.8850   33.4810   38.6290 N   0  0  0  0  0  0  0  0  0  0  0  0
   41.9600   34.0220   38.0290 C   0  0  0  0  0  0  0  0  0  0  0  0
   42.4180   34.9040   38.4140 H   0  0  0  0  0  0  0  0  0  0  0  0
   42.2230   33.2170   36.9640 N   0  0  0  0  0  0  0  0  0  0  0  0
   43.0250   33.4120   36.3130 H   0  0  0  0  0  0  0  0  0  0  0  0
   41.3290   32.2150   36.9200 N   0  0  0  0  0  0  0  0  0  0  0  0
  1  4  1  1  0  0  0
  2  5  1  1  0  0  0
  2  1  1  0  0  0  0
  3  2  1  0  0  0  0
  3  7  1  0  0  0  0
  3  1  1  0  0  0  0
  6  3  1  0  0  0  0
  8 14  1  0  0  0  0
  9  1  1  0  0  0  0
  9  8  2  0  0  0  0
 10 11  2  0  0  0  0
 10  9  1  0  0  0  0
 11 12  1  0  0  0  0
 12 16  1  0  0  0  0
 12 13  2  0  0  0  0
 13  8  1  0  0  0  0
 15 10  1  0  0  0  0
 17 22  1  6  0  0  0
 17  2  1  0  0  0  0
 18 17  1  0  0  0  0
 19 18  1  1  0  0  0
 19 17  1  0  0  0  0
 20 21  1  0  0  0  0
 20 19  1  0  0  0  0
 21 25  1  1  0  0  0
 21 19  1  0  0  0  0
 23 20  1  0  0  0  0
 24 20  1  0  0  0  0
 26 21  1  0  0  0  0
 26 27  1  0  0  0  0
 28 29  1  0  0  0  0
 28 27  2  0  0  0  0
 30 28  1  0  0  0  0
 31 30  1  0  0  0  0
 32 30  1  0  0  0  0
 32 26  2  0  0  0  0
M  END
>  <minimizedAffinity>
-4.80369663

$$$$

 OpenBabel03242511523D

 32 36  0  0  1  0  0  0  0  0999 V2000
   36.6240   26.6590   39.9730 C   0  0  1  0  0  0  0  0  0  0  0  0
   36.0170   27.2990   38.8420 C   0  0  2  0  0  0  0  0  0  0  0  0
   37.1640   26.3790   38.6550 C   0  0  0  0  0  0  0  0  0  0  0  0
   36.0140   25.8470   40.4730 H   0  0  0  0  0  0  0  0  0  0  0  0
   35.0360   26.8580   38.4860 H   0  0  0  0  0  0  0  0  0  0  0  0
   38.2000   26.7650   38.4360 H   0  0  0  0  0  0  0  0  0  0  0  0
   37.0290   25.3750   38.1940 H   0  0  0  0  0  0  0  0  0  0  0  0
   36.5860   28.0200   41.9970 C   0  0  0  0  0  0  0  0  0  0  0  0
   37.3350   27.4740   40.9640 C   0  0  0  0  0  0  0  0  0  0  0  0
   38.7130   27.6580   40.9130 C   0  0  0  0  0  0  0  0  0  0  0  0
   39.2660   28.3990   41.9330 N   0  0  0  0  0  0  0  0  0  0  0  0
   38.5370   28.9260   42.9350 C   0  0  0  0  0  0  0  0  0  0  0  0
   37.1880   28.7310   42.9580 N   0  0  0  0  0  0  0  0  0  0  0  0
   35.5290   27.8800   42.0360 H   0  0  0  0  0  0  0  0  0  0  0  0
   39.2980   27.2460   40.1250 H   0  0  0  0  0  0  0  0  0  0  0  0
   38.9520   29.4980   43.7260 H   0  0  0  0  0  0  0  0  0  0  0  0
   36.3040   28.6750   38.3940 C   0  0  1  0  0  0  0  0  0  0  0  0
   35.3320   29.4530   38.4050 O   0  0  0  0  0  0  0  0  0  0  0  0
   36.6130   30.1000   38.5210 C   0  0  2  0  0  0  0  0  0  0  0  0
   37.4630   30.6040   37.3510 C   0  0  0  0  0  0  0  0  0  0  0  0
   37.8800   30.7580   38.7200 C   0  0  1  0  0  0  0  0  0  0  0  0
   36.3790   28.3940   37.2470 H   0  0  0  0  0  0  0  0  0  0  0  0
   38.0190   29.8960   36.7170 H   0  0  0  0  0  0  0  0  0  0  0  0
   36.9480   31.4180   36.8040 H   0  0  0  0  0  0  0  0  0  0  0  0
   38.6600   30.0420   39.1150 H   0  0  0  0  0  0  0  0  0  0  0  0
   37.8920   32.1300   39.2310 C   0  0  0  0  0  0  0  0  0  0  0  0
   38.9150   32.6660   39.9580 N   0  0  0  0  0  0  0  0  0  0  0  0
   38.6090   33.9380   40.2680 C   0  0  0  0  0  0  0  0  0  0  0  0
   39.2780   34.5420   40.8370 H   0  0  0  0  0  0  0  0  0  0  0  0
   37.3850   34.1610   39.7150 N   0  0  0  0  0  0  0  0  0  0  0  0
   36.9020   35.0900   39.8060 H   0  0  0  0  0  0  0  0  0  0  0  0
   36.9630   33.0500   39.0870 N   0  0  0  0  0  0  0  0  0  0  0  0
  1  4  1  1  0  0  0
  1  9  1  0  0  0  0
  2  5  1  6  0  0  0
  2  1  1  0  0  0  0
  3  2  1  0  0  0  0
  3  1  1  0  0  0  0
  6  3  1  0  0  0  0
  7  3  1  0  0  0  0
  8 14  1  0  0  0  0
  8 13  1  0  0  0  0
  9  8  2  0  0  0  0
 10  9  1  0  0  0  0
 10 11  2  0  0  0  0
 11 12  1  0  0  0  0
 12 13  2  0  0  0  0
 12 16  1  0  0  0  0
 15 10  1  0  0  0  0
 17 22  1  6  0  0  0
 17 18  1  0  0  0  0
 17 19  1  0  0  0  0
 17  2  1  0  0  0  0
 19 18  1  1  0  0  0
 19 21  1  0  0  0  0
 20 19  1  0  0  0  0
 20 21  1  0  0  0  0
 21 25  1  1  0  0  0
 21 26  1  0  0  0  0
 23 20  1  0  0  0  0
 24 20  1  0  0  0  0
 26 27  1  0  0  0  0
 27 28  2  0  0  0  0
 28 29  1  0  0  0  0
 30 31  1  0  0  0  0
 30 28  1  0  0  0  0
 32 26  2  0  0  0  0
 32 30  1  0  0  0  0
M  END
>  <minimizedAffinity>
-4.80022478

$$$$

 OpenBabel03242511523D

 32 36  0  0  1  0  0  0  0  0999 V2000
   38.1960   25.1920   41.4380 C   0  0  1  0  0  0  0  0  0  0  0  0
   37.6300   26.1520   42.3420 C   0  0  2  0  0  0  0  0  0  0  0  0
   36.9170   24.8850   42.0510 C   0  0  0  0  0  0  0  0  0  0  0  0
   39.1050   24.6310   41.8120 H   0  0  0  0  0  0  0  0  0  0  0  0
   38.0740   26.1780   43.3840 H   0  0  0  0  0  0  0  0  0  0  0  0
   36.0180   24.8570   41.3700 H   0  0  0  0  0  0  0  0  0  0  0  0
   36.8380   24.0790   42.8140 H   0  0  0  0  0  0  0  0  0  0  0  0
   39.4700   26.2320   39.6370 C   0  0  0  0  0  0  0  0  0  0  0  0
   38.3320   25.5360   40.0180 C   0  0  0  0  0  0  0  0  0  0  0  0
   37.3920   25.1410   39.0730 C   0  0  0  0  0  0  0  0  0  0  0  0
   37.6650   25.4780   37.7660 N   0  0  0  0  0  0  0  0  0  0  0  0
   38.7700   26.1530   37.3990 C   0  0  0  0  0  0  0  0  0  0  0  0
   39.6740   26.5290   38.3480 N   0  0  0  0  0  0  0  0  0  0  0  0
   40.1920   26.5360   40.3620 H   0  0  0  0  0  0  0  0  0  0  0  0
   36.5140   24.6080   39.3530 H   0  0  0  0  0  0  0  0  0  0  0  0
   38.9910   26.4180   36.3960 H   0  0  0  0  0  0  0  0  0  0  0  0
   36.8670   27.3480   41.9370 C   0  0  1  0  0  0  0  0  0  0  0  0
   36.7260   28.2140   42.8200 O   0  0  0  0  0  0  0  0  0  0  0  0
   36.6510   28.7200   41.4730 C   0  0  2  0  0  0  0  0  0  0  0  0
   35.3720   28.8440   40.6410 C   0  0  0  0  0  0  0  0  0  0  0  0
   36.6560   29.2560   40.1350 C   0  0  1  0  0  0  0  0  0  0  0  0
   35.8150   26.8070   41.9550 H   0  0  0  0  0  0  0  0  0  0  0  0
   34.9040   27.9510   40.1980 H   0  0  0  0  0  0  0  0  0  0  0  0
   34.6670   29.5660   41.0970 H   0  0  0  0  0  0  0  0  0  0  0  0
   37.1830   28.5630   39.4140 H   0  0  0  0  0  0  0  0  0  0  0  0
   36.8340   30.6960   39.9510 C   0  0  0  0  0  0  0  0  0  0  0  0
   37.0530   31.2910   38.7410 N   0  0  0  0  0  0  0  0  0  0  0  0
   37.1730   32.6180   38.9250 C   0  0  0  0  0  0  0  0  0  0  0  0
   37.3490   33.2730   38.1020 H   0  0  0  0  0  0  0  0  0  0  0  0
   37.0220   32.8140   40.2630 N   0  0  0  0  0  0  0  0  0  0  0  0
   37.0710   33.7750   40.6860 H   0  0  0  0  0  0  0  0  0  0  0  0
   36.8170   31.6340   40.8730 N   0  0  0  0  0  0  0  0  0  0  0  0
  1  4  1  1  0  0  0
  1  3  1  0  0  0  0
  1  2  1  0  0  0  0
  2  5  1  1  0  0  0
  3  2  1  0  0  0  0
  3  7  1  0  0  0  0
  6  3  1  0  0  0  0
  8  9  1  0  0  0  0
  8 14  1  0  0  0  0
  9  1  1  0  0  0  0
 10 15  1  0  0  0  0
 10  9  2  0  0  0  0
 11 10  1  0  0  0  0
 12 11  2  0  0  0  0
 12 13  1  0  0  0  0
 13  8  2  0  0  0  0
 16 12  1  0  0  0  0
 17 22  1  6  0  0  0
 17  2  1  0  0  0  0
 17 18  1  0  0  0  0
 19 17  1  0  0  0  0
 19 18  1  1  0  0  0
 20 24  1  0  0  0  0
 20 19  1  0  0  0  0
 21 25  1  6  0  0  0
 21 20  1  0  0  0  0
 21 19  1  0  0  0  0
 23 20  1  0  0  0  0
 26 21  1  0  0  0  0
 26 32  2  0  0  0  0
 27 28  2  0  0  0  0
 27 26  1  0  0  0  0
 28 30  1  0  0  0  0
 29 28  1  0  0  0  0
 30 31  1  0  0  0  0
 30 32  1  0  0  0  0
M  END
>  <minimizedAffinity>
-4.75407457

$$$$

 OpenBabel03242511523D

 32 36  0  0  1  0  0  0  0  0999 V2000
   35.7980   29.6060   38.6130 C   0  0  1  0  0  0  0  0  0  0  0  0
   35.6620   28.2610   39.0930 C   0  0  2  0  0  0  0  0  0  0  0  0
   34.5860   29.2530   39.3290 C   0  0  0  0  0  0  0  0  0  0  0  0
   35.7240   29.7450   37.4920 H   0  0  0  0  0  0  0  0  0  0  0  0
   35.3830   27.4820   38.3200 H   0  0  0  0  0  0  0  0  0  0  0  0
   34.4330   29.7280   40.3390 H   0  0  0  0  0  0  0  0  0  0  0  0
   33.6140   29.1880   38.7900 H   0  0  0  0  0  0  0  0  0  0  0  0
   38.0760   30.4770   38.5710 C   0  0  0  0  0  0  0  0  0  0  0  0
   36.8330   30.4730   39.1870 C   0  0  0  0  0  0  0  0  0  0  0  0
   36.5780   31.3020   40.2740 C   0  0  0  0  0  0  0  0  0  0  0  0
   37.6170   32.1080   40.6830 N   0  0  0  0  0  0  0  0  0  0  0  0
   38.8220   32.1100   40.0820 C   0  0  0  0  0  0  0  0  0  0  0  0
   39.0440   31.2850   39.0190 N   0  0  0  0  0  0  0  0  0  0  0  0
   38.2730   29.8410   37.7370 H   0  0  0  0  0  0  0  0  0  0  0  0
   35.6290   31.3060   40.7570 H   0  0  0  0  0  0  0  0  0  0  0  0
   39.6290   32.7260   40.3870 H   0  0  0  0  0  0  0  0  0  0  0  0
   36.2530   27.7450   40.3420 C   0  0  1  0  0  0  0  0  0  0  0  0
   36.6940   26.5820   40.2830 O   0  0  0  0  0  0  0  0  0  0  0  0
   37.3100   27.4000   41.2960 C   0  0  2  0  0  0  0  0  0  0  0  0
   36.8320   27.5300   42.7450 C   0  0  0  0  0  0  0  0  0  0  0  0
   37.9940   28.2280   42.2580 C   0  0  1  0  0  0  0  0  0  0  0  0
   35.2150   27.5860   40.8860 H   0  0  0  0  0  0  0  0  0  0  0  0
   35.9360   28.1230   42.9880 H   0  0  0  0  0  0  0  0  0  0  0  0
   36.9150   26.5640   43.2810 H   0  0  0  0  0  0  0  0  0  0  0  0
   37.8820   29.3250   42.0120 H   0  0  0  0  0  0  0  0  0  0  0  0
   39.2780   27.7750   42.7940 C   0  0  0  0  0  0  0  0  0  0  0  0
   39.5160   26.5070   43.2400 N   0  0  0  0  0  0  0  0  0  0  0  0
   40.7900   26.4270   43.6640 C   0  0  0  0  0  0  0  0  0  0  0  0
   41.1830   25.5160   44.0540 H   0  0  0  0  0  0  0  0  0  0  0  0
   41.3170   27.6660   43.4640 N   0  0  0  0  0  0  0  0  0  0  0  0
   42.3140   27.8850   43.7120 H   0  0  0  0  0  0  0  0  0  0  0  0
   40.3830   28.4750   42.9340 N   0  0  0  0  0  0  0  0  0  0  0  0
  1  4  1  6  0  0  0
  1  2  1  0  0  0  0
  1  9  1  0  0  0  0
  1  3  1  0  0  0  0
  2  5  1  6  0  0  0
  2  3  1  0  0  0  0
  2 17  1  0  0  0  0
  3  6  1  0  0  0  0
  7  3  1  0  0  0  0
  8 13  2  0  0  0  0
  8  9  1  0  0  0  0
  9 10  2  0  0  0  0
 10 11  1  0  0  0  0
 10 15  1  0  0  0  0
 12 16  1  0  0  0  0
 12 11  2  0  0  0  0
 13 12  1  0  0  0  0
 14  8  1  0  0  0  0
 17 22  1  1  0  0  0
 17 19  1  0  0  0  0
 18 17  1  0  0  0  0
 19 18  1  6  0  0  0
 19 21  1  0  0  0  0
 19 20  1  0  0  0  0
 20 23  1  0  0  0  0
 20 24  1  0  0  0  0
 21 25  1  6  0  0  0
 21 20  1  0  0  0  0
 21 26  1  0  0  0  0
 26 32  2  0  0  0  0
 26 27  1  0  0  0  0
 27 28  2  0  0  0  0
 28 29  1  0  0  0  0
 30 28  1  0  0  0  0
 30 31  1  0  0  0  0
 32 30  1  0  0  0  0
M  END
>  <minimizedAffinity>
-4.69321537

$$$$
