
 OpenBabel03252508073D

 42 45  0  0  0  0  0  0  0  0999 V2000
   45.2390   35.8220   42.9300 C   0  0  0  0  0  0  0  0  0  0  0  0
   45.5170   34.4650   42.9730 C   0  0  0  0  0  0  0  0  0  0  0  0
   45.3350   33.7600   44.1390 C   0  0  0  0  0  0  0  0  0  0  0  0
   44.8710   34.4700   45.2290 N   0  0  0  0  0  0  0  0  0  0  0  0
   44.6050   35.7740   45.1820 C   0  0  0  0  0  0  0  0  0  0  0  0
   44.7950   36.4380   44.0220 N   0  0  0  0  0  0  0  0  0  0  0  0
   45.3690   36.4190   42.0260 H   0  0  0  0  0  0  0  0  0  0  0  0
   44.2450   36.3090   46.0370 H   0  0  0  0  0  0  0  0  0  0  0  0
   45.5720   32.3830   44.3460 C   0  0  0  0  0  0  0  0  0  0  0  0
   45.1450   31.3760   43.4760 C   0  0  0  0  0  0  0  0  0  0  0  0
   45.3170   30.0340   43.7060 C   0  0  0  0  0  0  0  0  0  0  0  0
   45.9460   29.6150   44.8590 C   0  0  0  0  0  0  0  0  0  0  0  0
   46.3900   30.6290   45.7590 C   0  0  0  0  0  0  0  0  0  0  0  0
   47.0140   30.2200   46.9070 C   0  0  0  0  0  0  0  0  0  0  0  0
   47.4710   31.1460   47.8210 C   0  0  0  0  0  0  0  0  0  0  0  0
   47.2900   32.5130   47.5630 C   0  0  0  0  0  0  0  0  0  0  0  0
   46.6430   32.8810   46.3700 C   0  0  0  0  0  0  0  0  0  0  0  0
   46.1970   31.9400   45.4830 C   0  0  0  0  0  0  0  0  0  0  0  0
   44.6490   31.6760   42.5630 H   0  0  0  0  0  0  0  0  0  0  0  0
   44.9730   29.2870   43.0080 H   0  0  0  0  0  0  0  0  0  0  0  0
   46.1080   28.5750   45.0970 H   0  0  0  0  0  0  0  0  0  0  0  0
   47.1590   29.1700   47.1150 H   0  0  0  0  0  0  0  0  0  0  0  0
   47.9570   30.7720   48.7150 H   0  0  0  0  0  0  0  0  0  0  0  0
   47.6790   33.1480   48.3290 H   0  0  0  0  0  0  0  0  0  0  0  0
   46.6220   33.9500   46.3470 H   0  0  0  0  0  0  0  0  0  0  0  0
   45.9670   33.8820   41.8200 O   0  0  0  0  0  0  0  0  0  0  0  0
   48.0180   32.3660   41.2280 O   0  0  0  0  0  0  0  0  0  0  0  0
   47.5930   33.7850   41.3630 P   0  0  1  0  0  0  0  0  0  0  0  0
   47.8420   34.5190   39.8560 O   0  0  0  0  0  0  0  0  0  0  0  0
   47.6780   33.7390   38.7180 C   0  0  0  0  0  0  0  0  0  0  0  0
   46.4790   33.2430   38.3170 N   0  0  0  0  0  0  0  0  0  0  0  0
   46.6390   32.5310   37.1850 C   0  0  0  0  0  0  0  0  0  0  0  0
   45.8780   32.0080   36.6110 H   0  0  0  0  0  0  0  0  0  0  0  0
   47.9460   32.5790   36.8710 N   0  0  0  0  0  0  0  0  0  0  0  0
   48.4330   32.1280   36.0390 H   0  0  0  0  0  0  0  0  0  0  0  0
   48.5500   33.3040   37.7960 N   0  0  0  0  0  0  0  0  0  0  0  0
   48.5130   34.5900   42.5130 O   0  0  0  0  0  0  0  0  0  0  0  0
   49.7150   35.2440   42.3020 C   0  0  0  0  0  0  0  0  0  0  0  0
   49.3970   36.3460   41.8160 O   0  0  0  0  0  0  0  0  0  0  0  0
   50.8280   34.4250   42.7160 N   0  0  0  0  0  0  0  0  0  0  0  0
   50.9030   34.2020   43.7440 H   0  0  0  0  0  0  0  0  0  0  0  0
   51.5910   34.0070   42.1370 H   0  0  0  0  0  0  0  0  0  0  0  0
  1  2  2  0  0  0  0
  1  6  1  0  0  0  0
  2  3  1  0  0  0  0
  3  9  1  0  0  0  0
  3  4  2  0  0  0  0
  5  4  1  0  0  0  0
  5  8  1  0  0  0  0
  6  5  2  0  0  0  0
  7  1  1  0  0  0  0
  9 18  1  0  0  0  0
 10 11  1  0  0  0  0
 10  9  2  0  0  0  0
 11 12  2  0  0  0  0
 12 21  1  0  0  0  0
 12 13  1  0  0  0  0
 13 14  1  0  0  0  0
 14 22  1  0  0  0  0
 14 15  2  0  0  0  0
 15 23  1  0  0  0  0
 16 15  1  0  0  0  0
 16 24  1  0  0  0  0
 17 16  2  0  0  0  0
 18 13  2  0  0  0  0
 18 17  1  0  0  0  0
 19 10  1  0  0  0  0
 20 11  1  0  0  0  0
 25 17  1  0  0  0  0
 26  2  1  0  0  0  0
 28 27  2  6  0  0  0
 28 26  1  0  0  0  0
 28 37  1  0  0  0  0
 29 28  1  0  0  0  0
 30 29  1  0  0  0  0
 31 30  1  0  0  0  0
 32 31  2  0  0  0  0
 33 32  1  0  0  0  0
 34 32  1  0  0  0  0
 34 36  1  0  0  0  0
 35 34  1  0  0  0  0
 36 30  2  0  0  0  0
 38 37  1  0  0  0  0
 38 40  1  0  0  0  0
 39 38  2  0  0  0  0
 40 41  1  0  0  0  0
 42 40  1  0  0  0  0
M  END
>  <minimizedAffinity>
-5.97523308

>  <minimizedRMSD>
0.829746485

$$$$
