
 OpenBabel03252507023D

 36 38  0  0  0  0  0  0  0  0999 V2000
   46.5350   33.1810   37.5980 C   0  0  0  0  0  0  0  0  0  0  0  0
   46.2260   33.8120   38.4640 H   0  0  0  0  0  0  0  0  0  0  0  0
   46.3840   33.9120   36.7360 H   0  0  0  0  0  0  0  0  0  0  0  0
   45.8680   32.0310   37.5880 N   0  0  0  0  0  0  0  0  0  0  0  0
   45.8290   31.0280   38.5880 C   0  0  0  0  0  0  0  0  0  0  0  0
   44.4370   31.3410   39.1870 C   0  0  0  0  0  0  0  0  0  0  0  0
   43.3460   31.2130   38.2190 C   0  0  0  0  0  0  0  0  0  0  0  0
   43.6530   31.3260   36.7920 C   0  0  0  0  0  0  0  0  0  0  0  0
   45.0300   31.7930   36.4090 C   0  0  0  0  0  0  0  0  0  0  0  0
   46.5350   31.2910   39.4210 H   0  0  0  0  0  0  0  0  0  0  0  0
   45.9310   29.9920   38.3270 H   0  0  0  0  0  0  0  0  0  0  0  0
   44.5040   32.3490   39.6860 H   0  0  0  0  0  0  0  0  0  0  0  0
   44.3120   30.6100   40.0120 H   0  0  0  0  0  0  0  0  0  0  0  0
   42.5770   31.9990   38.4480 H   0  0  0  0  0  0  0  0  0  0  0  0
   42.8070   30.2330   38.3370 H   0  0  0  0  0  0  0  0  0  0  0  0
   43.0040   31.1350   35.9790 H   0  0  0  0  0  0  0  0  0  0  0  0
   45.4860   32.0460   34.7270 S   0  0  0  0  0  0  0  0  0  0  0  0
   45.7340   33.4090   34.5030 H   0  0  0  0  0  0  0  0  0  0  0  0
   48.0190   33.0070   37.7230 C   0  0  0  0  0  0  0  0  0  0  0  0
   48.2640   31.9150   37.6180 H   0  0  0  0  0  0  0  0  0  0  0  0
   48.6260   33.5730   37.0160 H   0  0  0  0  0  0  0  0  0  0  0  0
   48.3840   33.3980   39.1120 C   0  0  0  0  0  0  0  0  0  0  0  0
   48.0780   34.6450   39.6260 C   0  0  0  0  0  0  0  0  0  0  0  0
   48.4700   34.9260   40.9300 C   0  0  0  0  0  0  0  0  0  0  0  0
   49.1360   33.9630   41.6450 N   0  0  0  0  0  0  0  0  0  0  0  0
   49.4030   32.7750   41.0940 C   0  0  0  0  0  0  0  0  0  0  0  0
   49.0300   32.5090   39.8530 N   0  0  0  0  0  0  0  0  0  0  0  0
   47.5500   35.3720   39.0220 H   0  0  0  0  0  0  0  0  0  0  0  0
   48.2380   35.9020   41.3480 H   0  0  0  0  0  0  0  0  0  0  0  0
   50.1160   31.7540   41.8710 C   0  0  0  0  0  0  0  0  0  0  0  0
   51.3980   31.3550   41.7700 N   0  0  0  0  0  0  0  0  0  0  0  0
   51.6220   30.3840   42.6940 C   0  0  0  0  0  0  0  0  0  0  0  0
   52.5210   29.8230   42.9160 H   0  0  0  0  0  0  0  0  0  0  0  0
   50.4860   30.1870   43.3570 N   0  0  0  0  0  0  0  0  0  0  0  0
   50.1880   29.5600   44.1300 H   0  0  0  0  0  0  0  0  0  0  0  0
   49.5930   31.0030   42.8660 N   0  0  0  0  0  0  0  0  0  0  0  0
  1 19  1  0  0  0  0
  1  2  1  0  0  0  0
  3  1  1  0  0  0  0
  4  1  1  0  0  0  0
  4  5  1  0  0  0  0
  5  6  1  0  0  0  0
  5 10  1  0  0  0  0
  6 12  1  0  0  0  0
  6 13  1  0  0  0  0
  7 15  1  0  0  0  0
  7 14  1  0  0  0  0
  7  6  1  0  0  0  0
  8  7  1  0  0  0  0
  9  8  2  0  0  0  0
  9  4  1  0  0  0  0
 11  5  1  0  0  0  0
 16  8  1  0  0  0  0
 17  9  1  0  0  0  0
 18 17  1  0  0  0  0
 19 22  1  0  0  0  0
 20 19  1  0  0  0  0
 21 19  1  0  0  0  0
 22 23  2  0  0  0  0
 22 27  1  0  0  0  0
 23 24  1  0  0  0  0
 24 29  1  0  0  0  0
 24 25  2  0  0  0  0
 26 25  1  0  0  0  0
 26 30  1  0  0  0  0
 27 26  2  0  0  0  0
 28 23  1  0  0  0  0
 30 36  2  0  0  0  0
 31 30  1  0  0  0  0
 31 32  2  0  0  0  0
 32 33  1  0  0  0  0
 32 34  1  0  0  0  0
 34 35  1  0  0  0  0
 36 34  1  0  0  0  0
M  END
>  <minimizedAffinity>
-3.19666433

>  <minimizedRMSD>
8.61043072

$$$$
