
 OpenBabel03252501333D

 22 23  0  0  0  0  0  0  0  0999 V2000
   36.7060   28.5720   41.3470 C   0  0  0  0  0  0  0  0  0  0  0  0
   36.9710   28.0500   42.5990 C   0  0  0  0  0  0  0  0  0  0  0  0
   37.1530   26.6740   42.6650 C   0  0  0  0  0  0  0  0  0  0  0  0
   37.0630   25.9650   41.5330 N   0  0  0  0  0  0  0  0  0  0  0  0
   36.8030   26.5070   40.3270 C   0  0  0  0  0  0  0  0  0  0  0  0
   36.6180   27.8450   40.2140 N   0  0  0  0  0  0  0  0  0  0  0  0
   37.3580   26.2810   43.6440 H   0  0  0  0  0  0  0  0  0  0  0  0
   36.7610   25.8080   39.5100 H   0  0  0  0  0  0  0  0  0  0  0  0
   37.7620   30.6110   40.8560 C   0  0  0  0  0  0  0  0  0  0  0  0
   38.7240   29.7980   40.9980 O   0  0  0  0  0  0  0  0  0  0  0  0
   36.4840   29.9810   41.0590 N   0  0  0  0  0  0  0  0  0  0  0  0
   35.6100   30.5080   40.9920 H   0  0  0  0  0  0  0  0  0  0  0  0
   37.8630   32.0280   40.5240 C   0  0  0  0  0  0  0  0  0  0  0  0
   38.7500   32.9910   40.8250 N   0  0  0  0  0  0  0  0  0  0  0  0
   38.3570   34.1610   40.2440 C   0  0  0  0  0  0  0  0  0  0  0  0
   39.0630   34.9530   40.4760 H   0  0  0  0  0  0  0  0  0  0  0  0
   37.2100   33.8910   39.5800 N   0  0  0  0  0  0  0  0  0  0  0  0
   36.8120   34.7230   39.0910 H   0  0  0  0  0  0  0  0  0  0  0  0
   36.9200   32.6050   39.7550 N   0  0  0  0  0  0  0  0  0  0  0  0
   37.0270   28.9680   43.6780 N   0  0  0  0  0  0  0  0  0  0  0  0
   36.3650   29.7760   43.6850 H   0  0  0  0  0  0  0  0  0  0  0  0
   37.6520   28.9650   44.5040 H   0  0  0  0  0  0  0  0  0  0  0  0
  1  2  1  0  0  0  0
  2  3  2  0  0  0  0
  2 20  1  0  0  0  0
  3  7  1  0  0  0  0
  4  3  1  0  0  0  0
  5  4  2  0  0  0  0
  6  5  1  0  0  0  0
  6  1  2  0  0  0  0
  8  5  1  0  0  0  0
  9 10  2  0  0  0  0
  9 11  1  0  0  0  0
 11  1  1  0  0  0  0
 12 11  1  0  0  0  0
 13 14  1  0  0  0  0
 13  9  1  0  0  0  0
 15 16  1  0  0  0  0
 15 14  2  0  0  0  0
 17 19  1  0  0  0  0
 17 15  1  0  0  0  0
 18 17  1  0  0  0  0
 19 13  2  0  0  0  0
 20 21  1  0  0  0  0
 20 22  1  0  0  0  0
M  END
>  <minimizedAffinity>
-4.80374336

$$$$

 OpenBabel03252501333D

 22 23  0  0  0  0  0  0  0  0999 V2000
   40.4800   33.1690   39.0380 C   0  0  0  0  0  0  0  0  0  0  0  0
   40.9920   32.9310   37.7760 C   0  0  0  0  0  0  0  0  0  0  0  0
   42.3180   33.2930   37.5720 C   0  0  0  0  0  0  0  0  0  0  0  0
   42.9930   33.8360   38.5930 N   0  0  0  0  0  0  0  0  0  0  0  0
   42.4640   34.0540   39.8120 C   0  0  0  0  0  0  0  0  0  0  0  0
   41.1740   33.7170   40.0570 N   0  0  0  0  0  0  0  0  0  0  0  0
   42.7030   33.1020   36.5870 H   0  0  0  0  0  0  0  0  0  0  0  0
   43.1310   34.4970   40.5300 H   0  0  0  0  0  0  0  0  0  0  0  0
   39.0720   31.4910   39.8810 C   0  0  0  0  0  0  0  0  0  0  0  0
   40.1930   30.9110   39.7580 O   0  0  0  0  0  0  0  0  0  0  0  0
   39.1210   32.8660   39.4600 N   0  0  0  0  0  0  0  0  0  0  0  0
   38.2920   33.4640   39.4860 H   0  0  0  0  0  0  0  0  0  0  0  0
   37.8370   30.8980   40.3850 C   0  0  0  0  0  0  0  0  0  0  0  0
   37.4300   29.6340   40.5870 N   0  0  0  0  0  0  0  0  0  0  0  0
   36.1600   29.6450   41.0850 C   0  0  0  0  0  0  0  0  0  0  0  0
   35.8130   28.6300   41.2560 H   0  0  0  0  0  0  0  0  0  0  0  0
   35.8000   30.9460   41.1820 N   0  0  0  0  0  0  0  0  0  0  0  0
   34.8340   31.0790   41.5560 H   0  0  0  0  0  0  0  0  0  0  0  0
   36.8160   31.6920   40.7580 N   0  0  0  0  0  0  0  0  0  0  0  0
   40.1140   32.3460   36.8280 N   0  0  0  0  0  0  0  0  0  0  0  0
   39.1090   32.6280   36.8340 H   0  0  0  0  0  0  0  0  0  0  0  0
   40.3230   31.6470   36.0930 H   0  0  0  0  0  0  0  0  0  0  0  0
  1 11  1  0  0  0  0
  1  6  1  0  0  0  0
  2  1  2  0  0  0  0
  3  2  1  0  0  0  0
  3  4  2  0  0  0  0
  4  5  1  0  0  0  0
  5  6  2  0  0  0  0
  5  8  1  0  0  0  0
  7  3  1  0  0  0  0
  9 13  1  0  0  0  0
 10  9  2  0  0  0  0
 11 12  1  0  0  0  0
 11  9  1  0  0  0  0
 13 14  1  0  0  0  0
 13 19  2  0  0  0  0
 14 15  2  0  0  0  0
 15 17  1  0  0  0  0
 15 16  1  0  0  0  0
 17 18  1  0  0  0  0
 19 17  1  0  0  0  0
 20 21  1  0  0  0  0
 20  2  1  0  0  0  0
 22 20  1  0  0  0  0
M  END
>  <minimizedAffinity>
-4.7723875

$$$$

 OpenBabel03252501333D

 22 23  0  0  0  0  0  0  0  0999 V2000
   38.5610   31.4370   40.8770 C   0  0  0  0  0  0  0  0  0  0  0  0
   37.2300   31.7560   40.6800 C   0  0  0  0  0  0  0  0  0  0  0  0
   36.3060   30.7800   41.0290 C   0  0  0  0  0  0  0  0  0  0  0  0
   36.7610   29.6210   41.5230 N   0  0  0  0  0  0  0  0  0  0  0  0
   38.0660   29.3420   41.7030 C   0  0  0  0  0  0  0  0  0  0  0  0
   39.0040   30.2650   41.3760 N   0  0  0  0  0  0  0  0  0  0  0  0
   35.2750   31.0410   40.8710 H   0  0  0  0  0  0  0  0  0  0  0  0
   38.2750   28.3690   42.1090 H   0  0  0  0  0  0  0  0  0  0  0  0
   40.0310   32.1530   39.1910 C   0  0  0  0  0  0  0  0  0  0  0  0
   39.2990   31.2960   38.6110 O   0  0  0  0  0  0  0  0  0  0  0  0
   39.6840   32.3130   40.5790 N   0  0  0  0  0  0  0  0  0  0  0  0
   40.1920   32.9590   41.1880 H   0  0  0  0  0  0  0  0  0  0  0  0
   41.1130   32.9250   38.5880 C   0  0  0  0  0  0  0  0  0  0  0  0
   42.1400   33.6300   39.0900 N   0  0  0  0  0  0  0  0  0  0  0  0
   42.8640   34.1610   38.0630 C   0  0  0  0  0  0  0  0  0  0  0  0
   43.7010   34.7370   38.4490 H   0  0  0  0  0  0  0  0  0  0  0  0
   42.2560   33.7620   36.9220 N   0  0  0  0  0  0  0  0  0  0  0  0
   42.7280   34.1140   36.0590 H   0  0  0  0  0  0  0  0  0  0  0  0
   41.2020   33.0190   37.2480 N   0  0  0  0  0  0  0  0  0  0  0  0
   36.9510   33.0390   40.1440 N   0  0  0  0  0  0  0  0  0  0  0  0
   37.5950   33.4330   39.4230 H   0  0  0  0  0  0  0  0  0  0  0  0
   36.1700   33.6810   40.3670 H   0  0  0  0  0  0  0  0  0  0  0  0
  1  6  1  0  0  0  0
  2  1  2  0  0  0  0
  2  3  1  0  0  0  0
  3  4  2  0  0  0  0
  4  5  1  0  0  0  0
  5  8  1  0  0  0  0
  6  5  2  0  0  0  0
  7  3  1  0  0  0  0
  9 11  1  0  0  0  0
 10  9  2  0  0  0  0
 11  1  1  0  0  0  0
 11 12  1  0  0  0  0
 13 14  1  0  0  0  0
 13  9  1  0  0  0  0
 15 16  1  0  0  0  0
 15 14  2  0  0  0  0
 17 19  1  0  0  0  0
 17 15  1  0  0  0  0
 18 17  1  0  0  0  0
 19 13  2  0  0  0  0
 20 22  1  0  0  0  0
 20  2  1  0  0  0  0
 21 20  1  0  0  0  0
M  END
>  <minimizedAffinity>
-4.62057972

$$$$

 OpenBabel03252501333D

 22 23  0  0  0  0  0  0  0  0999 V2000
   42.4350   34.1020   39.3060 C   0  0  0  0  0  0  0  0  0  0  0  0
   43.1520   34.0640   38.1250 C   0  0  0  0  0  0  0  0  0  0  0  0
   44.5350   34.0090   38.2460 C   0  0  0  0  0  0  0  0  0  0  0  0
   45.0650   33.9950   39.4750 N   0  0  0  0  0  0  0  0  0  0  0  0
   44.3370   34.0330   40.6080 C   0  0  0  0  0  0  0  0  0  0  0  0
   42.9840   34.0870   40.5380 N   0  0  0  0  0  0  0  0  0  0  0  0
   45.0800   33.9800   37.3200 H   0  0  0  0  0  0  0  0  0  0  0  0
   44.9070   34.0150   41.5200 H   0  0  0  0  0  0  0  0  0  0  0  0
   40.4740   32.8160   39.4070 C   0  0  0  0  0  0  0  0  0  0  0  0
   41.3960   31.9530   39.3070 O   0  0  0  0  0  0  0  0  0  0  0  0
   40.9850   34.1610   39.4030 N   0  0  0  0  0  0  0  0  0  0  0  0
   40.3630   34.9710   39.4620 H   0  0  0  0  0  0  0  0  0  0  0  0
   39.0430   32.5510   39.5190 C   0  0  0  0  0  0  0  0  0  0  0  0
   38.2230   31.6370   38.9750 N   0  0  0  0  0  0  0  0  0  0  0  0
   36.9540   31.8440   39.4280 C   0  0  0  0  0  0  0  0  0  0  0  0
   36.2750   31.1130   38.9990 H   0  0  0  0  0  0  0  0  0  0  0  0
   37.0170   32.9070   40.2640 N   0  0  0  0  0  0  0  0  0  0  0  0
   36.0920   33.1610   40.6760 H   0  0  0  0  0  0  0  0  0  0  0  0
   38.2780   33.3260   40.3110 N   0  0  0  0  0  0  0  0  0  0  0  0
   42.4040   34.0870   36.9200 N   0  0  0  0  0  0  0  0  0  0  0  0
   41.5410   34.6720   36.8760 H   0  0  0  0  0  0  0  0  0  0  0  0
   42.5870   33.5890   36.0310 H   0  0  0  0  0  0  0  0  0  0  0  0
  1 11  1  0  0  0  0
  1  6  1  0  0  0  0
  2  3  1  0  0  0  0
  2  1  2  0  0  0  0
  3  4  2  0  0  0  0
  4  5  1  0  0  0  0
  5  8  1  0  0  0  0
  6  5  2  0  0  0  0
  7  3  1  0  0  0  0
  9 13  1  0  0  0  0
 10  9  2  0  0  0  0
 11  9  1  0  0  0  0
 11 12  1  0  0  0  0
 13 19  2  0  0  0  0
 14 15  2  0  0  0  0
 14 13  1  0  0  0  0
 15 17  1  0  0  0  0
 16 15  1  0  0  0  0
 17 19  1  0  0  0  0
 17 18  1  0  0  0  0
 20  2  1  0  0  0  0
 21 20  1  0  0  0  0
 22 20  1  0  0  0  0
M  END
>  <minimizedAffinity>
-4.6020875

$$$$

 OpenBabel03252501333D

 22 23  0  0  0  0  0  0  0  0999 V2000
   38.9190   28.6380   42.6110 C   0  0  0  0  0  0  0  0  0  0  0  0
   37.8480   27.7810   42.7880 C   0  0  0  0  0  0  0  0  0  0  0  0
   38.1460   26.4240   42.8240 C   0  0  0  0  0  0  0  0  0  0  0  0
   39.4240   26.0500   42.6900 N   0  0  0  0  0  0  0  0  0  0  0  0
   40.4450   26.9120   42.5200 C   0  0  0  0  0  0  0  0  0  0  0  0
   40.2020   28.2450   42.4770 N   0  0  0  0  0  0  0  0  0  0  0  0
   37.3040   25.7700   42.9620 H   0  0  0  0  0  0  0  0  0  0  0  0
   41.4170   26.4600   42.4270 H   0  0  0  0  0  0  0  0  0  0  0  0
   38.5090   30.4630   41.1920 C   0  0  0  0  0  0  0  0  0  0  0  0
   38.4150   29.4570   40.4270 O   0  0  0  0  0  0  0  0  0  0  0  0
   38.8270   30.0880   42.5450 N   0  0  0  0  0  0  0  0  0  0  0  0
   38.9500   30.7880   43.2800 H   0  0  0  0  0  0  0  0  0  0  0  0
   38.3280   31.8610   40.8180 C   0  0  0  0  0  0  0  0  0  0  0  0
   39.1130   32.9490   40.8860 N   0  0  0  0  0  0  0  0  0  0  0  0
   38.4360   34.0240   40.3890 C   0  0  0  0  0  0  0  0  0  0  0  0
   39.0550   34.9150   40.4360 H   0  0  0  0  0  0  0  0  0  0  0  0
   37.2190   33.5670   40.0140 N   0  0  0  0  0  0  0  0  0  0  0  0
   36.6050   34.3120   39.6140 H   0  0  0  0  0  0  0  0  0  0  0  0
   37.1630   32.2650   40.2770 N   0  0  0  0  0  0  0  0  0  0  0  0
   36.5660   28.3740   42.9110 N   0  0  0  0  0  0  0  0  0  0  0  0
   36.3460   29.2180   42.3370 H   0  0  0  0  0  0  0  0  0  0  0  0
   35.7720   28.0890   43.5110 H   0  0  0  0  0  0  0  0  0  0  0  0
  1  2  1  0  0  0  0
  2  3  2  0  0  0  0
  2 20  1  0  0  0  0
  3  7  1  0  0  0  0
  4  3  1  0  0  0  0
  5  4  2  0  0  0  0
  6  5  1  0  0  0  0
  6  1  2  0  0  0  0
  8  5  1  0  0  0  0
  9 11  1  0  0  0  0
 10  9  2  0  0  0  0
 11  1  1  0  0  0  0
 11 12  1  0  0  0  0
 13 14  1  0  0  0  0
 13  9  1  0  0  0  0
 15 16  1  0  0  0  0
 15 14  2  0  0  0  0
 17 19  1  0  0  0  0
 17 15  1  0  0  0  0
 18 17  1  0  0  0  0
 19 13  2  0  0  0  0
 20 22  1  0  0  0  0
 21 20  1  0  0  0  0
M  END
>  <minimizedAffinity>
-4.45966864

$$$$

 OpenBabel03252501333D

 22 23  0  0  0  0  0  0  0  0999 V2000
   37.9120   30.2230   40.8880 C   0  0  0  0  0  0  0  0  0  0  0  0
   36.9120   31.1690   40.7650 C   0  0  0  0  0  0  0  0  0  0  0  0
   37.2580   32.3480   40.1170 C   0  0  0  0  0  0  0  0  0  0  0  0
   38.5110   32.4820   39.6650 N   0  0  0  0  0  0  0  0  0  0  0  0
   39.4630   31.5380   39.8010 C   0  0  0  0  0  0  0  0  0  0  0  0
   39.1710   30.3720   40.4260 N   0  0  0  0  0  0  0  0  0  0  0  0
   36.4710   33.0750   40.0290 H   0  0  0  0  0  0  0  0  0  0  0  0
   40.4220   31.7920   39.3860 H   0  0  0  0  0  0  0  0  0  0  0  0
   37.2960   27.9830   40.5450 C   0  0  0  0  0  0  0  0  0  0  0  0
   37.1230   28.5210   39.4110 O   0  0  0  0  0  0  0  0  0  0  0  0
   37.7620   28.9250   41.5290 N   0  0  0  0  0  0  0  0  0  0  0  0
   37.9360   28.6470   42.4980 H   0  0  0  0  0  0  0  0  0  0  0  0
   37.0730   26.5820   40.8870 C   0  0  0  0  0  0  0  0  0  0  0  0
   36.7600   25.4910   40.1690 N   0  0  0  0  0  0  0  0  0  0  0  0
   36.6700   24.4150   41.0020 C   0  0  0  0  0  0  0  0  0  0  0  0
   36.4170   23.5210   40.4400 H   0  0  0  0  0  0  0  0  0  0  0  0
   36.9360   24.8740   42.2470 N   0  0  0  0  0  0  0  0  0  0  0  0
   36.8960   24.1290   42.9780 H   0  0  0  0  0  0  0  0  0  0  0  0
   37.1770   26.1800   42.1680 N   0  0  0  0  0  0  0  0  0  0  0  0
   35.6460   30.8380   41.3120 N   0  0  0  0  0  0  0  0  0  0  0  0
   35.6100   30.2930   42.2020 H   0  0  0  0  0  0  0  0  0  0  0  0
   34.7020   31.0630   40.9500 H   0  0  0  0  0  0  0  0  0  0  0  0
  1 11  1  0  0  0  0
  2  1  1  0  0  0  0
  2 20  1  0  0  0  0
  3  2  2  0  0  0  0
  4  5  2  0  0  0  0
  4  3  1  0  0  0  0
  5  6  1  0  0  0  0
  6  1  2  0  0  0  0
  7  3  1  0  0  0  0
  8  5  1  0  0  0  0
  9 13  1  0  0  0  0
  9 11  1  0  0  0  0
 10  9  2  0  0  0  0
 11 12  1  0  0  0  0
 13 19  2  0  0  0  0
 14 13  1  0  0  0  0
 14 15  2  0  0  0  0
 15 17  1  0  0  0  0
 16 15  1  0  0  0  0
 17 18  1  0  0  0  0
 19 17  1  0  0  0  0
 20 21  1  0  0  0  0
 22 20  1  0  0  0  0
M  END
>  <minimizedAffinity>
-4.30566216

$$$$

 OpenBabel03252501333D

 22 23  0  0  0  0  0  0  0  0999 V2000
   38.1240   28.6640   42.2000 C   0  0  0  0  0  0  0  0  0  0  0  0
   38.8240   27.6520   41.5710 C   0  0  0  0  0  0  0  0  0  0  0  0
   38.3560   26.3600   41.7780 C   0  0  0  0  0  0  0  0  0  0  0  0
   37.2800   26.1910   42.5570 N   0  0  0  0  0  0  0  0  0  0  0  0
   36.6200   27.2010   43.1550 C   0  0  0  0  0  0  0  0  0  0  0  0
   37.0410   28.4780   42.9820 N   0  0  0  0  0  0  0  0  0  0  0  0
   38.9100   25.5830   41.2840 H   0  0  0  0  0  0  0  0  0  0  0  0
   35.7730   26.9070   43.7500 H   0  0  0  0  0  0  0  0  0  0  0  0
   37.8070   30.6230   40.9450 C   0  0  0  0  0  0  0  0  0  0  0  0
   37.1650   29.7420   40.2990 O   0  0  0  0  0  0  0  0  0  0  0  0
   38.4460   30.0810   42.1150 N   0  0  0  0  0  0  0  0  0  0  0  0
   39.0140   30.6640   42.7350 H   0  0  0  0  0  0  0  0  0  0  0  0
   37.9270   32.0370   40.6050 C   0  0  0  0  0  0  0  0  0  0  0  0
   38.8270   32.9890   40.9020 N   0  0  0  0  0  0  0  0  0  0  0  0
   38.4520   34.1610   40.3130 C   0  0  0  0  0  0  0  0  0  0  0  0
   39.1680   34.9450   40.5420 H   0  0  0  0  0  0  0  0  0  0  0  0
   37.3020   33.9020   39.6490 N   0  0  0  0  0  0  0  0  0  0  0  0
   36.9160   34.7370   39.1540 H   0  0  0  0  0  0  0  0  0  0  0  0
   36.9940   32.6220   39.8310 N   0  0  0  0  0  0  0  0  0  0  0  0
   39.9410   28.0360   40.7870 N   0  0  0  0  0  0  0  0  0  0  0  0
   40.5390   28.8260   41.1170 H   0  0  0  0  0  0  0  0  0  0  0  0
   40.2750   27.6380   39.8910 H   0  0  0  0  0  0  0  0  0  0  0  0
  1  6  1  0  0  0  0
  2  3  1  0  0  0  0
  2  1  2  0  0  0  0
  3  4  2  0  0  0  0
  4  5  1  0  0  0  0
  5  8  1  0  0  0  0
  6  5  2  0  0  0  0
  7  3  1  0  0  0  0
  9 11  1  0  0  0  0
 10  9  2  0  0  0  0
 11  1  1  0  0  0  0
 11 12  1  0  0  0  0
 13 14  1  0  0  0  0
 13  9  1  0  0  0  0
 15 16  1  0  0  0  0
 15 14  2  0  0  0  0
 17 19  1  0  0  0  0
 17 15  1  0  0  0  0
 18 17  1  0  0  0  0
 19 13  2  0  0  0  0
 20 21  1  0  0  0  0
 20  2  1  0  0  0  0
 22 20  1  0  0  0  0
M  END
>  <minimizedAffinity>
-4.27033043

$$$$

 OpenBabel03252501333D

 22 23  0  0  0  0  0  0  0  0999 V2000
   39.0640   32.1130   38.0510 C   0  0  0  0  0  0  0  0  0  0  0  0
   37.9220   31.3660   37.8280 C   0  0  0  0  0  0  0  0  0  0  0  0
   36.9420   31.4320   38.8110 C   0  0  0  0  0  0  0  0  0  0  0  0
   37.1680   32.2020   39.8830 N   0  0  0  0  0  0  0  0  0  0  0  0
   38.2930   32.9180   40.0690 C   0  0  0  0  0  0  0  0  0  0  0  0
   39.2770   32.8840   39.1370 N   0  0  0  0  0  0  0  0  0  0  0  0
   36.0600   30.8460   38.6250 H   0  0  0  0  0  0  0  0  0  0  0  0
   38.3280   33.4880   40.9810 H   0  0  0  0  0  0  0  0  0  0  0  0
   41.1070   31.1100   37.4760 C   0  0  0  0  0  0  0  0  0  0  0  0
   40.6920   30.4130   38.4490 O   0  0  0  0  0  0  0  0  0  0  0  0
   40.2050   32.1840   37.1520 N   0  0  0  0  0  0  0  0  0  0  0  0
   40.4070   32.8450   36.3980 H   0  0  0  0  0  0  0  0  0  0  0  0
   42.3410   30.9070   36.7240 C   0  0  0  0  0  0  0  0  0  0  0  0
   42.7550   29.9680   35.8560 N   0  0  0  0  0  0  0  0  0  0  0  0
   44.0200   30.2650   35.4420 C   0  0  0  0  0  0  0  0  0  0  0  0
   44.3730   29.5170   34.7380 H   0  0  0  0  0  0  0  0  0  0  0  0
   44.3700   31.4080   36.0770 N   0  0  0  0  0  0  0  0  0  0  0  0
   45.3320   31.7360   35.8340 H   0  0  0  0  0  0  0  0  0  0  0  0
   43.3530   31.7860   36.8460 N   0  0  0  0  0  0  0  0  0  0  0  0
   37.8730   30.6130   36.6270 N   0  0  0  0  0  0  0  0  0  0  0  0
   38.7490   30.1660   36.2780 H   0  0  0  0  0  0  0  0  0  0  0  0
   37.0640   30.4270   36.0080 H   0  0  0  0  0  0  0  0  0  0  0  0
  1  6  1  0  0  0  0
  2  1  2  0  0  0  0
  2  3  1  0  0  0  0
  3  4  2  0  0  0  0
  4  5  1  0  0  0  0
  5  8  1  0  0  0  0
  6  5  2  0  0  0  0
  7  3  1  0  0  0  0
  9 10  2  0  0  0  0
 11  9  1  0  0  0  0
 11  1  1  0  0  0  0
 12 11  1  0  0  0  0
 13 19  2  0  0  0  0
 13  9  1  0  0  0  0
 14 13  1  0  0  0  0
 15 14  2  0  0  0  0
 15 17  1  0  0  0  0
 16 15  1  0  0  0  0
 17 19  1  0  0  0  0
 18 17  1  0  0  0  0
 20  2  1  0  0  0  0
 21 20  1  0  0  0  0
 22 20  1  0  0  0  0
M  END
>  <minimizedAffinity>
-4.26473284

$$$$

 OpenBabel03252501333D

 22 23  0  0  0  0  0  0  0  0999 V2000
   38.2380   26.5820   42.4980 C   0  0  0  0  0  0  0  0  0  0  0  0
   37.9970   25.4060   41.8120 C   0  0  0  0  0  0  0  0  0  0  0  0
   38.8330   24.3370   42.1110 C   0  0  0  0  0  0  0  0  0  0  0  0
   39.7940   24.5180   43.0260 N   0  0  0  0  0  0  0  0  0  0  0  0
   40.0010   25.6780   43.6780 C   0  0  0  0  0  0  0  0  0  0  0  0
   39.2100   26.7480   43.4180 N   0  0  0  0  0  0  0  0  0  0  0  0
   38.6350   23.4300   41.5700 H   0  0  0  0  0  0  0  0  0  0  0  0
   40.8120   25.6690   44.3850 H   0  0  0  0  0  0  0  0  0  0  0  0
   38.0560   28.5600   41.2480 C   0  0  0  0  0  0  0  0  0  0  0  0
   39.0580   27.9730   40.7400 O   0  0  0  0  0  0  0  0  0  0  0  0
   37.4820   27.8140   42.3360 N   0  0  0  0  0  0  0  0  0  0  0  0
   36.6750   28.1630   42.8590 H   0  0  0  0  0  0  0  0  0  0  0  0
   37.4930   29.8400   40.8290 C   0  0  0  0  0  0  0  0  0  0  0  0
   37.7860   30.7030   39.8430 N   0  0  0  0  0  0  0  0  0  0  0  0
   36.9290   31.7630   39.9040 C   0  0  0  0  0  0  0  0  0  0  0  0
   37.1500   32.4740   39.1130 H   0  0  0  0  0  0  0  0  0  0  0  0
   36.1040   31.5260   40.9500 N   0  0  0  0  0  0  0  0  0  0  0  0
   35.3970   32.2800   41.0960 H   0  0  0  0  0  0  0  0  0  0  0  0
   36.4520   30.3660   41.5010 N   0  0  0  0  0  0  0  0  0  0  0  0
   36.9290   25.4160   40.8790 N   0  0  0  0  0  0  0  0  0  0  0  0
   36.7610   26.2790   40.3170 H   0  0  0  0  0  0  0  0  0  0  0  0
   36.2540   24.6630   40.6560 H   0  0  0  0  0  0  0  0  0  0  0  0
  1  6  1  0  0  0  0
  2  3  1  0  0  0  0
  2  1  2  0  0  0  0
  3  4  2  0  0  0  0
  4  5  1  0  0  0  0
  5  8  1  0  0  0  0
  6  5  2  0  0  0  0
  7  3  1  0  0  0  0
  9 11  1  0  0  0  0
 10  9  2  0  0  0  0
 11  1  1  0  0  0  0
 11 12  1  0  0  0  0
 13  9  1  0  0  0  0
 13 19  2  0  0  0  0
 14 15  2  0  0  0  0
 14 13  1  0  0  0  0
 15 17  1  0  0  0  0
 16 15  1  0  0  0  0
 17 18  1  0  0  0  0
 17 19  1  0  0  0  0
 20  2  1  0  0  0  0
 21 20  1  0  0  0  0
 22 20  1  0  0  0  0
M  END
>  <minimizedAffinity>
-4.24935865

$$$$
