
 OpenBabel03252500383D

 44 47  0  0  1  0  0  0  0  0999 V2000
   37.2870   28.3520   41.0100 C   0  0  0  0  0  0  0  0  0  0  0  0
   37.2430   27.4300   40.3960 H   0  0  0  0  0  0  0  0  0  0  0  0
   38.0170   29.0270   40.5180 H   0  0  0  0  0  0  0  0  0  0  0  0
   37.6910   28.1140   42.3490 N   0  0  0  0  0  0  0  0  0  0  0  0
   38.5440   29.0370   42.9580 C   0  0  0  0  0  0  0  0  0  0  0  0
   40.0260   28.6670   42.7490 C   0  0  0  0  0  0  0  0  0  0  0  0
   40.2600   27.3970   43.5250 C   0  0  0  0  0  0  0  0  0  0  0  0
   39.3350   26.3540   42.9370 C   0  0  0  0  0  0  0  0  0  0  0  0
   37.9090   26.7980   42.7770 C   0  0  2  0  0  0  0  0  0  0  0  0
   38.3520   30.1050   42.8560 H   0  0  0  0  0  0  0  0  0  0  0  0
   38.4180   28.8680   44.0720 H   0  0  0  0  0  0  0  0  0  0  0  0
   40.0980   28.3880   41.6710 H   0  0  0  0  0  0  0  0  0  0  0  0
   40.6800   29.4920   43.0490 H   0  0  0  0  0  0  0  0  0  0  0  0
   41.2930   27.0410   43.2770 H   0  0  0  0  0  0  0  0  0  0  0  0
   40.1450   27.5150   44.6130 H   0  0  0  0  0  0  0  0  0  0  0  0
   39.7300   25.9630   41.9920 H   0  0  0  0  0  0  0  0  0  0  0  0
   39.3570   25.5000   43.6510 H   0  0  0  0  0  0  0  0  0  0  0  0
   37.4170   26.6680   43.7790 H   0  0  0  0  0  0  0  0  0  0  0  0
   37.2350   25.7830   41.8650 C   0  0  0  0  0  0  0  0  0  0  0  0
   37.3390   24.7570   42.2540 H   0  0  0  0  0  0  0  0  0  0  0  0
   37.7760   25.8950   40.8820 H   0  0  0  0  0  0  0  0  0  0  0  0
   36.1650   26.0660   41.7090 H   0  0  0  0  0  0  0  0  0  0  0  0
   35.7650   30.3630   40.2900 C   0  0  1  0  0  0  0  0  0  0  0  0
   35.1660   29.1870   39.8310 C   0  0  0  0  0  0  0  0  0  0  0  0
   35.9650   29.0240   41.0590 C   0  0  1  0  0  0  0  0  0  0  0  0
   35.1690   31.1370   40.8500 H   0  0  0  0  0  0  0  0  0  0  0  0
   34.0430   29.0850   39.8900 H   0  0  0  0  0  0  0  0  0  0  0  0
   35.5370   28.6280   38.9230 H   0  0  0  0  0  0  0  0  0  0  0  0
   35.5410   29.1000   42.0720 H   0  0  0  0  0  0  0  0  0  0  0  0
   37.7310   31.8690   40.6280 C   0  0  0  0  0  0  0  0  0  0  0  0
   37.0020   31.0060   39.7490 C   0  0  0  0  0  0  0  0  0  0  0  0
   37.4440   30.8030   38.4800 C   0  0  0  0  0  0  0  0  0  0  0  0
   38.5860   31.4460   38.0950 N   0  0  0  0  0  0  0  0  0  0  0  0
   39.2660   32.2620   38.9390 C   0  0  0  0  0  0  0  0  0  0  0  0
   38.8610   32.5000   40.2320 N   0  0  0  0  0  0  0  0  0  0  0  0
   37.3510   32.0130   41.6410 H   0  0  0  0  0  0  0  0  0  0  0  0
   36.9050   30.1540   37.8040 H   0  0  0  0  0  0  0  0  0  0  0  0
   40.4590   32.8560   38.3430 C   0  0  0  0  0  0  0  0  0  0  0  0
   41.2320   33.9040   38.6840 N   0  0  0  0  0  0  0  0  0  0  0  0
   42.2390   34.0310   37.7710 C   0  0  0  0  0  0  0  0  0  0  0  0
   42.9960   34.8120   37.8350 H   0  0  0  0  0  0  0  0  0  0  0  0
   42.0570   33.0300   36.8660 N   0  0  0  0  0  0  0  0  0  0  0  0
   42.6940   32.8900   36.0480 H   0  0  0  0  0  0  0  0  0  0  0  0
   40.9880   32.3190   37.2050 N   0  0  0  0  0  0  0  0  0  0  0  0
  1 25  1  0  0  0  0
  1  4  1  0  0  0  0
  2  1  1  0  0  0  0
  3  1  1  0  0  0  0
  4  9  1  0  0  0  0
  4  5  1  0  0  0  0
  5 11  1  0  0  0  0
  6  5  1  0  0  0  0
  6 13  1  0  0  0  0
  6  7  1  0  0  0  0
  7 15  1  0  0  0  0
  8  7  1  0  0  0  0
  8 17  1  0  0  0  0
  9  8  1  0  0  0  0
  9 18  1  1  0  0  0
 10  5  1  0  0  0  0
 12  6  1  0  0  0  0
 14  7  1  0  0  0  0
 16  8  1  0  0  0  0
 19 20  1  0  0  0  0
 19  9  1  0  0  0  0
 21 19  1  0  0  0  0
 22 19  1  0  0  0  0
 23 26  1  1  0  0  0
 23 25  1  0  0  0  0
 24 27  1  0  0  0  0
 24 23  1  0  0  0  0
 24 25  1  0  0  0  0
 25 29  1  1  0  0  0
 28 24  1  0  0  0  0
 30 36  1  0  0  0  0
 31 23  1  0  0  0  0
 31 30  2  0  0  0  0
 32 31  1  0  0  0  0
 33 32  2  0  0  0  0
 33 34  1  0  0  0  0
 34 35  2  0  0  0  0
 35 30  1  0  0  0  0
 37 32  1  0  0  0  0
 38 39  1  0  0  0  0
 38 34  1  0  0  0  0
 40 41  1  0  0  0  0
 40 39  2  0  0  0  0
 42 44  1  0  0  0  0
 42 40  1  0  0  0  0
 43 42  1  0  0  0  0
 44 38  2  0  0  0  0
M  END
>  <minimizedAffinity>
-5.82025385

$$$$

 OpenBabel03252500383D

 44 47  0  0  1  0  0  0  0  0999 V2000
   37.7970   30.4430   41.4860 C   0  0  0  0  0  0  0  0  0  0  0  0
   38.7330   30.8670   41.0680 H   0  0  0  0  0  0  0  0  0  0  0  0
   37.7210   30.8080   42.5300 H   0  0  0  0  0  0  0  0  0  0  0  0
   37.7740   29.0250   41.4770 N   0  0  0  0  0  0  0  0  0  0  0  0
   36.8270   28.3730   42.2700 C   0  0  0  0  0  0  0  0  0  0  0  0
   37.3760   28.0690   43.6790 C   0  0  0  0  0  0  0  0  0  0  0  0
   38.4610   27.0400   43.4990 C   0  0  0  0  0  0  0  0  0  0  0  0
   39.5130   27.6700   42.6130 C   0  0  0  0  0  0  0  0  0  0  0  0
   38.9790   28.3180   41.3680 C   0  0  2  0  0  0  0  0  0  0  0  0
   35.7940   28.7200   42.2800 H   0  0  0  0  0  0  0  0  0  0  0  0
   36.7340   27.3330   41.8290 H   0  0  0  0  0  0  0  0  0  0  0  0
   37.8900   29.0090   43.9900 H   0  0  0  0  0  0  0  0  0  0  0  0
   36.5720   27.7470   44.3490 H   0  0  0  0  0  0  0  0  0  0  0  0
   38.9610   26.9060   44.4930 H   0  0  0  0  0  0  0  0  0  0  0  0
   38.0970   26.0740   43.1180 H   0  0  0  0  0  0  0  0  0  0  0  0
   40.1380   28.3710   43.1800 H   0  0  0  0  0  0  0  0  0  0  0  0
   40.1880   26.8380   42.3120 H   0  0  0  0  0  0  0  0  0  0  0  0
   38.8380   27.4980   40.6130 H   0  0  0  0  0  0  0  0  0  0  0  0
   40.0990   29.1860   40.8110 C   0  0  0  0  0  0  0  0  0  0  0  0
   41.0200   28.6020   40.6480 H   0  0  0  0  0  0  0  0  0  0  0  0
   40.2590   29.9710   41.6050 H   0  0  0  0  0  0  0  0  0  0  0  0
   39.7550   29.6960   39.8780 H   0  0  0  0  0  0  0  0  0  0  0  0
   36.8280   31.7260   39.4150 C   0  0  1  0  0  0  0  0  0  0  0  0
   36.3620   30.4100   39.3600 C   0  0  0  0  0  0  0  0  0  0  0  0
   36.6140   30.9100   40.7230 C   0  0  1  0  0  0  0  0  0  0  0  0
   36.1240   32.5960   39.2880 H   0  0  0  0  0  0  0  0  0  0  0  0
   35.2970   30.2190   39.0330 H   0  0  0  0  0  0  0  0  0  0  0  0
   37.0080   29.5480   39.0210 H   0  0  0  0  0  0  0  0  0  0  0  0
   35.8410   31.3860   41.3460 H   0  0  0  0  0  0  0  0  0  0  0  0
   38.6750   33.3520   39.8530 C   0  0  0  0  0  0  0  0  0  0  0  0
   38.2230   32.1920   39.1460 C   0  0  0  0  0  0  0  0  0  0  0  0
   39.0550   31.5660   38.2730 C   0  0  0  0  0  0  0  0  0  0  0  0
   40.3070   32.0830   38.1070 N   0  0  0  0  0  0  0  0  0  0  0  0
   40.7210   33.1840   38.7830 C   0  0  0  0  0  0  0  0  0  0  0  0
   39.9190   33.8540   39.6780 N   0  0  0  0  0  0  0  0  0  0  0  0
   37.9840   33.8340   40.5480 H   0  0  0  0  0  0  0  0  0  0  0  0
   38.7290   30.6890   37.7310 H   0  0  0  0  0  0  0  0  0  0  0  0
   42.0910   33.5830   38.4700 C   0  0  0  0  0  0  0  0  0  0  0  0
   43.1830   33.7950   39.2280 N   0  0  0  0  0  0  0  0  0  0  0  0
   44.2230   34.1570   38.4210 C   0  0  0  0  0  0  0  0  0  0  0  0
   45.2160   34.3820   38.8070 H   0  0  0  0  0  0  0  0  0  0  0  0
   43.7320   34.1570   37.1500 N   0  0  0  0  0  0  0  0  0  0  0  0
   44.3220   34.4000   36.3210 H   0  0  0  0  0  0  0  0  0  0  0  0
   42.4500   33.8110   37.1730 N   0  0  0  0  0  0  0  0  0  0  0  0
  1  3  1  0  0  0  0
  2  1  1  0  0  0  0
  4  1  1  0  0  0  0
  4  5  1  0  0  0  0
  5 10  1  0  0  0  0
  5  6  1  0  0  0  0
  6 12  1  0  0  0  0
  6 13  1  0  0  0  0
  7  6  1  0  0  0  0
  7 14  1  0  0  0  0
  8 16  1  0  0  0  0
  8  7  1  0  0  0  0
  9 18  1  6  0  0  0
  9  4  1  0  0  0  0
  9  8  1  0  0  0  0
 11  5  1  0  0  0  0
 15  7  1  0  0  0  0
 17  8  1  0  0  0  0
 19  9  1  0  0  0  0
 19 21  1  0  0  0  0
 20 19  1  0  0  0  0
 22 19  1  0  0  0  0
 23 26  1  6  0  0  0
 23 25  1  0  0  0  0
 24 23  1  0  0  0  0
 24 25  1  0  0  0  0
 25 29  1  1  0  0  0
 25  1  1  0  0  0  0
 27 24  1  0  0  0  0
 28 24  1  0  0  0  0
 30 36  1  0  0  0  0
 31 23  1  0  0  0  0
 31 30  2  0  0  0  0
 32 31  1  0  0  0  0
 33 32  2  0  0  0  0
 33 34  1  0  0  0  0
 34 35  2  0  0  0  0
 35 30  1  0  0  0  0
 37 32  1  0  0  0  0
 38 34  1  0  0  0  0
 38 39  1  0  0  0  0
 40 41  1  0  0  0  0
 40 39  2  0  0  0  0
 42 44  1  0  0  0  0
 42 40  1  0  0  0  0
 43 42  1  0  0  0  0
 44 38  2  0  0  0  0
M  END
>  <minimizedAffinity>
-5.74415112

$$$$

 OpenBabel03252500383D

 44 47  0  0  1  0  0  0  0  0999 V2000
   38.3890   26.6270   41.9000 C   0  0  0  0  0  0  0  0  0  0  0  0
   38.6770   27.4050   41.1650 H   0  0  0  0  0  0  0  0  0  0  0  0
   39.2350   25.9120   41.9540 H   0  0  0  0  0  0  0  0  0  0  0  0
   37.2050   25.9330   41.5430 N   0  0  0  0  0  0  0  0  0  0  0  0
   36.9890   24.6650   42.0900 C   0  0  0  0  0  0  0  0  0  0  0  0
   37.5680   23.5520   41.1930 C   0  0  0  0  0  0  0  0  0  0  0  0
   36.7380   23.5460   39.9360 C   0  0  0  0  0  0  0  0  0  0  0  0
   36.8970   24.9120   39.3050 C   0  0  0  0  0  0  0  0  0  0  0  0
   36.6950   26.0650   40.2450 C   0  0  2  0  0  0  0  0  0  0  0  0
   37.1650   24.4930   43.1520 H   0  0  0  0  0  0  0  0  0  0  0  0
   35.8740   24.4850   41.9920 H   0  0  0  0  0  0  0  0  0  0  0  0
   38.5760   23.9260   40.8960 H   0  0  0  0  0  0  0  0  0  0  0  0
   37.5750   22.5920   41.7200 H   0  0  0  0  0  0  0  0  0  0  0  0
   37.2270   22.8370   39.2190 H   0  0  0  0  0  0  0  0  0  0  0  0
   35.6880   23.2640   40.0990 H   0  0  0  0  0  0  0  0  0  0  0  0
   37.8590   24.9970   38.7850 H   0  0  0  0  0  0  0  0  0  0  0  0
   36.1190   24.9660   38.5110 H   0  0  0  0  0  0  0  0  0  0  0  0
   35.5860   26.2300   40.3180 H   0  0  0  0  0  0  0  0  0  0  0  0
   37.2380   27.3020   39.5440 C   0  0  0  0  0  0  0  0  0  0  0  0
   36.7690   27.4460   38.5570 H   0  0  0  0  0  0  0  0  0  0  0  0
   38.3410   27.0950   39.4360 H   0  0  0  0  0  0  0  0  0  0  0  0
   37.1130   28.1960   40.2020 H   0  0  0  0  0  0  0  0  0  0  0  0
   38.2380   28.7630   43.4140 C   0  0  1  0  0  0  0  0  0  0  0  0
   37.0120   28.0970   43.4900 C   0  0  0  0  0  0  0  0  0  0  0  0
   38.1690   27.2170   43.2430 C   0  0  1  0  0  0  0  0  0  0  0  0
   38.7700   29.1060   44.3450 H   0  0  0  0  0  0  0  0  0  0  0  0
   36.4810   28.0390   44.4850 H   0  0  0  0  0  0  0  0  0  0  0  0
   36.2410   28.1420   42.6660 H   0  0  0  0  0  0  0  0  0  0  0  0
   38.7340   26.7200   44.0470 H   0  0  0  0  0  0  0  0  0  0  0  0
   37.8110   30.2260   41.4330 C   0  0  0  0  0  0  0  0  0  0  0  0
   38.7650   29.5340   42.2460 C   0  0  0  0  0  0  0  0  0  0  0  0
   40.0860   29.5970   41.9380 C   0  0  0  0  0  0  0  0  0  0  0  0
   40.4500   30.3310   40.8460 N   0  0  0  0  0  0  0  0  0  0  0  0
   39.5350   30.9800   40.0840 C   0  0  0  0  0  0  0  0  0  0  0  0
   38.1860   30.9490   40.3530 N   0  0  0  0  0  0  0  0  0  0  0  0
   36.7560   30.1570   41.7040 H   0  0  0  0  0  0  0  0  0  0  0  0
   40.8190   29.0800   42.5420 H   0  0  0  0  0  0  0  0  0  0  0  0
   40.1190   31.7090   38.9620 C   0  0  0  0  0  0  0  0  0  0  0  0
   41.2460   32.4330   38.8230 N   0  0  0  0  0  0  0  0  0  0  0  0
   41.3170   32.9050   37.5440 C   0  0  0  0  0  0  0  0  0  0  0  0
   42.1440   33.5210   37.1900 H   0  0  0  0  0  0  0  0  0  0  0  0
   40.2020   32.4470   36.9100 N   0  0  0  0  0  0  0  0  0  0  0  0
   40.0000   32.6630   35.9060 H   0  0  0  0  0  0  0  0  0  0  0  0
   39.4780   31.7270   37.7570 N   0  0  0  0  0  0  0  0  0  0  0  0
  1  3  1  0  0  0  0
  1 25  1  0  0  0  0
  2  1  1  0  0  0  0
  4  1  1  0  0  0  0
  4  5  1  0  0  0  0
  5 10  1  0  0  0  0
  6 13  1  0  0  0  0
  6  5  1  0  0  0  0
  7 15  1  0  0  0  0
  7  6  1  0  0  0  0
  8  7  1  0  0  0  0
  8  9  1  0  0  0  0
  9 18  1  1  0  0  0
  9  4  1  0  0  0  0
 11  5  1  0  0  0  0
 12  6  1  0  0  0  0
 14  7  1  0  0  0  0
 16  8  1  0  0  0  0
 17  8  1  0  0  0  0
 19 22  1  0  0  0  0
 19  9  1  0  0  0  0
 20 19  1  0  0  0  0
 21 19  1  0  0  0  0
 23 24  1  0  0  0  0
 23 26  1  1  0  0  0
 24 27  1  0  0  0  0
 25 23  1  0  0  0  0
 25 24  1  0  0  0  0
 25 29  1  1  0  0  0
 28 24  1  0  0  0  0
 30 36  1  0  0  0  0
 30 31  1  0  0  0  0
 31 23  1  0  0  0  0
 32 31  2  0  0  0  0
 32 37  1  0  0  0  0
 33 32  1  0  0  0  0
 34 35  1  0  0  0  0
 34 33  2  0  0  0  0
 35 30  2  0  0  0  0
 38 34  1  0  0  0  0
 39 38  1  0  0  0  0
 40 39  2  0  0  0  0
 41 40  1  0  0  0  0
 42 40  1  0  0  0  0
 42 44  1  0  0  0  0
 43 42  1  0  0  0  0
 44 38  2  0  0  0  0
M  END
>  <minimizedAffinity>
-5.64269972

$$$$

 OpenBabel03252500383D

 44 47  0  0  1  0  0  0  0  0999 V2000
   39.4430   25.0150   41.4280 C   0  0  0  0  0  0  0  0  0  0  0  0
   39.6930   24.4200   40.5270 H   0  0  0  0  0  0  0  0  0  0  0  0
   39.1700   26.0300   41.0740 H   0  0  0  0  0  0  0  0  0  0  0  0
   40.5160   25.1090   42.3510 N   0  0  0  0  0  0  0  0  0  0  0  0
   40.2530   25.6180   43.6250 C   0  0  0  0  0  0  0  0  0  0  0  0
   40.4510   27.1460   43.6800 C   0  0  0  0  0  0  0  0  0  0  0  0
   41.9260   27.3890   43.4960 C   0  0  0  0  0  0  0  0  0  0  0  0
   42.2920   26.8260   42.1400 C   0  0  0  0  0  0  0  0  0  0  0  0
   41.7970   25.4310   41.8850 C   0  0  2  0  0  0  0  0  0  0  0  0
   39.3730   25.2810   44.1740 H   0  0  0  0  0  0  0  0  0  0  0  0
   41.1060   25.2500   44.2750 H   0  0  0  0  0  0  0  0  0  0  0  0
   39.9570   27.5280   42.7550 H   0  0  0  0  0  0  0  0  0  0  0  0
   40.0510   27.5580   44.6120 H   0  0  0  0  0  0  0  0  0  0  0  0
   42.0710   28.4960   43.3980 H   0  0  0  0  0  0  0  0  0  0  0  0
   42.5460   26.9900   44.3120 H   0  0  0  0  0  0  0  0  0  0  0  0
   41.9820   27.5030   41.3340 H   0  0  0  0  0  0  0  0  0  0  0  0
   43.4050   26.8130   42.1120 H   0  0  0  0  0  0  0  0  0  0  0  0
   42.5340   24.7350   42.3700 H   0  0  0  0  0  0  0  0  0  0  0  0
   41.9380   25.1830   40.3900 C   0  0  0  0  0  0  0  0  0  0  0  0
   42.9710   25.3580   40.0470 H   0  0  0  0  0  0  0  0  0  0  0  0
   41.2300   25.9240   39.9200 H   0  0  0  0  0  0  0  0  0  0  0  0
   41.5820   24.1530   40.1420 H   0  0  0  0  0  0  0  0  0  0  0  0
   36.9310   25.1900   42.1580 C   0  0  1  0  0  0  0  0  0  0  0  0
   37.0790   24.0180   41.4140 C   0  0  0  0  0  0  0  0  0  0  0  0
   38.2880   24.4280   42.1510 C   0  0  1  0  0  0  0  0  0  0  0  0
   36.3980   25.1840   43.1510 H   0  0  0  0  0  0  0  0  0  0  0  0
   36.5270   23.0880   41.7400 H   0  0  0  0  0  0  0  0  0  0  0  0
   37.1630   24.0160   40.2880 H   0  0  0  0  0  0  0  0  0  0  0  0
   38.5290   24.0720   43.1640 H   0  0  0  0  0  0  0  0  0  0  0  0
   36.7270   26.7700   40.2320 C   0  0  0  0  0  0  0  0  0  0  0  0
   36.9560   26.5910   41.6340 C   0  0  0  0  0  0  0  0  0  0  0  0
   37.1840   27.6710   42.4250 C   0  0  0  0  0  0  0  0  0  0  0  0
   37.1850   28.9020   41.8340 N   0  0  0  0  0  0  0  0  0  0  0  0
   36.9680   29.0570   40.5040 C   0  0  0  0  0  0  0  0  0  0  0  0
   36.7320   27.9960   39.6600 N   0  0  0  0  0  0  0  0  0  0  0  0
   36.5480   25.8830   39.6210 H   0  0  0  0  0  0  0  0  0  0  0  0
   37.3580   27.5530   43.4850 H   0  0  0  0  0  0  0  0  0  0  0  0
   37.0090   30.4480   40.0630 C   0  0  0  0  0  0  0  0  0  0  0  0
   37.4010   31.0380   38.9170 N   0  0  0  0  0  0  0  0  0  0  0  0
   37.2290   32.3870   39.0290 C   0  0  0  0  0  0  0  0  0  0  0  0
   37.4780   33.0800   38.2260 H   0  0  0  0  0  0  0  0  0  0  0  0
   36.7220   32.6010   40.2750 N   0  0  0  0  0  0  0  0  0  0  0  0
   36.4920   33.5580   40.6310 H   0  0  0  0  0  0  0  0  0  0  0  0
   36.5860   31.4390   40.9020 N   0  0  0  0  0  0  0  0  0  0  0  0
  1 25  1  0  0  0  0
  1  4  1  0  0  0  0
  2  1  1  0  0  0  0
  3  1  1  0  0  0  0
  4  5  1  0  0  0  0
  5  6  1  0  0  0  0
  5 10  1  0  0  0  0
  5 11  1  0  0  0  0
  6 13  1  0  0  0  0
  7  6  1  0  0  0  0
  7 15  1  0  0  0  0
  8  7  1  0  0  0  0
  9  8  1  0  0  0  0
  9  4  1  0  0  0  0
  9 18  1  1  0  0  0
 12  6  1  0  0  0  0
 14  7  1  0  0  0  0
 16  8  1  0  0  0  0
 17  8  1  0  0  0  0
 19  9  1  0  0  0  0
 20 19  1  0  0  0  0
 21 19  1  0  0  0  0
 22 19  1  0  0  0  0
 23 26  1  1  0  0  0
 24 27  1  0  0  0  0
 24 25  1  0  0  0  0
 24 23  1  0  0  0  0
 25 23  1  0  0  0  0
 25 29  1  1  0  0  0
 28 24  1  0  0  0  0
 30 31  1  0  0  0  0
 31 23  1  0  0  0  0
 31 32  2  0  0  0  0
 32 37  1  0  0  0  0
 33 32  1  0  0  0  0
 34 33  2  0  0  0  0
 35 30  2  0  0  0  0
 35 34  1  0  0  0  0
 36 30  1  0  0  0  0
 38 34  1  0  0  0  0
 38 44  2  0  0  0  0
 39 40  2  0  0  0  0
 39 38  1  0  0  0  0
 40 42  1  0  0  0  0
 41 40  1  0  0  0  0
 42 43  1  0  0  0  0
 42 44  1  0  0  0  0
M  END
>  <minimizedAffinity>
-5.50682116

$$$$

 OpenBabel03252500383D

 44 47  0  0  1  0  0  0  0  0999 V2000
   36.9210   27.9570   40.4720 C   0  0  0  0  0  0  0  0  0  0  0  0
   37.1510   27.1310   39.7700 H   0  0  0  0  0  0  0  0  0  0  0  0
   37.6830   28.7440   40.2970 H   0  0  0  0  0  0  0  0  0  0  0  0
   36.9540   27.5600   41.8330 N   0  0  0  0  0  0  0  0  0  0  0  0
   37.3870   28.4870   42.7850 C   0  0  0  0  0  0  0  0  0  0  0  0
   38.9090   28.3940   43.0180 C   0  0  0  0  0  0  0  0  0  0  0  0
   39.1560   27.0630   43.6790 C   0  0  0  0  0  0  0  0  0  0  0  0
   38.6740   26.0040   42.7120 C   0  0  0  0  0  0  0  0  0  0  0  0
   37.2990   26.2400   42.1560 C   0  0  2  0  0  0  0  0  0  0  0  0
   37.0230   29.5140   42.7490 H   0  0  0  0  0  0  0  0  0  0  0  0
   36.9780   28.1120   43.7730 H   0  0  0  0  0  0  0  0  0  0  0  0
   39.3480   28.3180   41.9960 H   0  0  0  0  0  0  0  0  0  0  0  0
   39.2660   29.2480   43.6040 H   0  0  0  0  0  0  0  0  0  0  0  0
   40.2660   26.9200   43.7340 H   0  0  0  0  0  0  0  0  0  0  0  0
   38.7060   26.9730   44.6780 H   0  0  0  0  0  0  0  0  0  0  0  0
   39.3990   25.8470   41.9040 H   0  0  0  0  0  0  0  0  0  0  0  0
   38.6570   25.0540   43.2920 H   0  0  0  0  0  0  0  0  0  0  0  0
   36.5710   25.8650   42.9260 H   0  0  0  0  0  0  0  0  0  0  0  0
   37.1400   25.3040   40.9660 C   0  0  0  0  0  0  0  0  0  0  0  0
   37.3300   24.2560   41.2490 H   0  0  0  0  0  0  0  0  0  0  0  0
   37.9110   25.6650   40.2270 H   0  0  0  0  0  0  0  0  0  0  0  0
   36.1280   25.4390   40.5110 H   0  0  0  0  0  0  0  0  0  0  0  0
   35.4570   29.9470   39.5930 C   0  0  1  0  0  0  0  0  0  0  0  0
   35.1480   28.8190   38.8300 C   0  0  0  0  0  0  0  0  0  0  0  0
   35.5750   28.5220   40.2090 C   0  0  1  0  0  0  0  0  0  0  0  0
   34.6440   30.5840   40.0420 H   0  0  0  0  0  0  0  0  0  0  0  0
   34.0730   28.6330   38.5360 H   0  0  0  0  0  0  0  0  0  0  0  0
   35.8230   28.4340   38.0100 H   0  0  0  0  0  0  0  0  0  0  0  0
   34.8730   28.4120   41.0490 H   0  0  0  0  0  0  0  0  0  0  0  0
   37.0450   31.5440   40.6770 C   0  0  0  0  0  0  0  0  0  0  0  0
   36.7190   30.7490   39.5330 C   0  0  0  0  0  0  0  0  0  0  0  0
   37.5430   30.7460   38.4540 C   0  0  0  0  0  0  0  0  0  0  0  0
   38.6670   31.5200   38.5120 N   0  0  0  0  0  0  0  0  0  0  0  0
   38.9630   32.2700   39.6030 C   0  0  0  0  0  0  0  0  0  0  0  0
   38.1610   32.3070   40.7200 N   0  0  0  0  0  0  0  0  0  0  0  0
   36.3620   31.5270   41.5290 H   0  0  0  0  0  0  0  0  0  0  0  0
   37.3110   30.1510   37.5820 H   0  0  0  0  0  0  0  0  0  0  0  0
   40.2050   33.0270   39.4730 C   0  0  0  0  0  0  0  0  0  0  0  0
   40.9540   33.3890   38.4150 N   0  0  0  0  0  0  0  0  0  0  0  0
   42.0330   34.1000   38.8550 C   0  0  0  0  0  0  0  0  0  0  0  0
   42.7880   34.5020   38.1800 H   0  0  0  0  0  0  0  0  0  0  0  0
   41.9170   34.1610   40.2110 N   0  0  0  0  0  0  0  0  0  0  0  0
   42.6180   34.6540   40.8120 H   0  0  0  0  0  0  0  0  0  0  0  0
   40.8200   33.5180   40.5890 N   0  0  0  0  0  0  0  0  0  0  0  0
  1  4  1  0  0  0  0
  2  1  1  0  0  0  0
  3  1  1  0  0  0  0
  4  9  1  0  0  0  0
  4  5  1  0  0  0  0
  5  6  1  0  0  0  0
  5 11  1  0  0  0  0
  6 13  1  0  0  0  0
  6  7  1  0  0  0  0
  7 14  1  0  0  0  0
  7 15  1  0  0  0  0
  8 17  1  0  0  0  0
  8  7  1  0  0  0  0
  9  8  1  0  0  0  0
  9 18  1  1  0  0  0
 10  5  1  0  0  0  0
 12  6  1  0  0  0  0
 16  8  1  0  0  0  0
 19 20  1  0  0  0  0
 19  9  1  0  0  0  0
 21 19  1  0  0  0  0
 22 19  1  0  0  0  0
 23 26  1  1  0  0  0
 23 25  1  0  0  0  0
 24 23  1  0  0  0  0
 24 25  1  0  0  0  0
 25  1  1  0  0  0  0
 25 29  1  1  0  0  0
 27 24  1  0  0  0  0
 28 24  1  0  0  0  0
 30 35  1  0  0  0  0
 30 36  1  0  0  0  0
 31 23  1  0  0  0  0
 31 30  2  0  0  0  0
 32 33  2  0  0  0  0
 32 31  1  0  0  0  0
 33 34  1  0  0  0  0
 34 35  2  0  0  0  0
 37 32  1  0  0  0  0
 38 34  1  0  0  0  0
 38 44  2  0  0  0  0
 39 40  2  0  0  0  0
 39 38  1  0  0  0  0
 40 42  1  0  0  0  0
 41 40  1  0  0  0  0
 42 44  1  0  0  0  0
 42 43  1  0  0  0  0
M  END
>  <minimizedAffinity>
-5.39576912

$$$$

 OpenBabel03252500383D

 44 47  0  0  1  0  0  0  0  0999 V2000
   37.7910   26.1670   41.6230 C   0  0  0  0  0  0  0  0  0  0  0  0
   36.8210   25.7760   41.2560 H   0  0  0  0  0  0  0  0  0  0  0  0
   38.0700   27.0050   40.9530 H   0  0  0  0  0  0  0  0  0  0  0  0
   38.8230   25.1940   41.6190 N   0  0  0  0  0  0  0  0  0  0  0  0
   39.2030   24.6260   42.8380 C   0  0  0  0  0  0  0  0  0  0  0  0
   40.3460   25.4190   43.5040 C   0  0  0  0  0  0  0  0  0  0  0  0
   41.5580   25.2320   42.6280 C   0  0  0  0  0  0  0  0  0  0  0  0
   41.2030   25.7970   41.2700 C   0  0  0  0  0  0  0  0  0  0  0  0
   39.8880   25.3260   40.7180 C   0  0  2  0  0  0  0  0  0  0  0  0
   38.4430   24.2980   43.5460 H   0  0  0  0  0  0  0  0  0  0  0  0
   39.7230   23.6560   42.5640 H   0  0  0  0  0  0  0  0  0  0  0  0
   40.0490   26.4880   43.3950 H   0  0  0  0  0  0  0  0  0  0  0  0
   40.4970   25.0910   44.5380 H   0  0  0  0  0  0  0  0  0  0  0  0
   42.3610   25.9070   43.0220 H   0  0  0  0  0  0  0  0  0  0  0  0
   41.9170   24.1930   42.5840 H   0  0  0  0  0  0  0  0  0  0  0  0
   41.2540   26.8930   41.2730 H   0  0  0  0  0  0  0  0  0  0  0  0
   42.0110   25.4580   40.5850 H   0  0  0  0  0  0  0  0  0  0  0  0
   40.0770   24.3220   40.2490 H   0  0  0  0  0  0  0  0  0  0  0  0
   39.5430   26.2510   39.5600 C   0  0  0  0  0  0  0  0  0  0  0  0
   40.3520   26.2820   38.8130 H   0  0  0  0  0  0  0  0  0  0  0  0
   39.4060   27.2590   40.0450 H   0  0  0  0  0  0  0  0  0  0  0  0
   38.5670   25.9440   39.1090 H   0  0  0  0  0  0  0  0  0  0  0  0
   37.8440   28.2010   43.2770 C   0  0  1  0  0  0  0  0  0  0  0  0
   36.5830   27.6070   43.3700 C   0  0  0  0  0  0  0  0  0  0  0  0
   37.6690   26.6770   43.0100 C   0  0  1  0  0  0  0  0  0  0  0  0
   38.4380   28.4480   44.2010 H   0  0  0  0  0  0  0  0  0  0  0  0
   36.0940   27.5140   44.3840 H   0  0  0  0  0  0  0  0  0  0  0  0
   35.7800   27.7550   42.5890 H   0  0  0  0  0  0  0  0  0  0  0  0
   38.2360   26.0950   43.7520 H   0  0  0  0  0  0  0  0  0  0  0  0
   37.4050   29.6970   41.3230 C   0  0  0  0  0  0  0  0  0  0  0  0
   38.3660   29.0160   42.1370 C   0  0  0  0  0  0  0  0  0  0  0  0
   39.6900   29.1280   41.8550 C   0  0  0  0  0  0  0  0  0  0  0  0
   40.0500   29.8990   40.7870 N   0  0  0  0  0  0  0  0  0  0  0  0
   39.1270   30.5370   40.0240 C   0  0  0  0  0  0  0  0  0  0  0  0
   37.7750   30.4560   40.2660 N   0  0  0  0  0  0  0  0  0  0  0  0
   36.3480   29.5870   41.5730 H   0  0  0  0  0  0  0  0  0  0  0  0
   40.4280   28.6210   42.4600 H   0  0  0  0  0  0  0  0  0  0  0  0
   39.7080   31.3100   38.9290 C   0  0  0  0  0  0  0  0  0  0  0  0
   40.8840   31.9460   38.7760 N   0  0  0  0  0  0  0  0  0  0  0  0
   40.9230   32.5220   37.5390 C   0  0  0  0  0  0  0  0  0  0  0  0
   41.7780   33.0950   37.1830 H   0  0  0  0  0  0  0  0  0  0  0  0
   39.7360   32.2170   36.9440 N   0  0  0  0  0  0  0  0  0  0  0  0
   39.4950   32.5360   35.9770 H   0  0  0  0  0  0  0  0  0  0  0  0
   39.0010   31.4870   37.7750 N   0  0  0  0  0  0  0  0  0  0  0  0
  1 25  1  0  0  0  0
  2  1  1  0  0  0  0
  3  1  1  0  0  0  0
  4  1  1  0  0  0  0
  4  5  1  0  0  0  0
  5  6  1  0  0  0  0
  5 10  1  0  0  0  0
  6 13  1  0  0  0  0
  7 14  1  0  0  0  0
  7  6  1  0  0  0  0
  8 16  1  0  0  0  0
  8  7  1  0  0  0  0
  9 18  1  6  0  0  0
  9  8  1  0  0  0  0
  9  4  1  0  0  0  0
 11  5  1  0  0  0  0
 12  6  1  0  0  0  0
 15  7  1  0  0  0  0
 17  8  1  0  0  0  0
 19 21  1  0  0  0  0
 19  9  1  0  0  0  0
 20 19  1  0  0  0  0
 22 19  1  0  0  0  0
 23 24  1  0  0  0  0
 23 26  1  1  0  0  0
 24 27  1  0  0  0  0
 25 23  1  0  0  0  0
 25 24  1  0  0  0  0
 25 29  1  1  0  0  0
 28 24  1  0  0  0  0
 30 36  1  0  0  0  0
 30 31  1  0  0  0  0
 31 23  1  0  0  0  0
 32 31  2  0  0  0  0
 32 37  1  0  0  0  0
 33 32  1  0  0  0  0
 34 35  1  0  0  0  0
 34 33  2  0  0  0  0
 35 30  2  0  0  0  0
 38 34  1  0  0  0  0
 39 38  1  0  0  0  0
 40 39  2  0  0  0  0
 41 40  1  0  0  0  0
 42 40  1  0  0  0  0
 42 44  1  0  0  0  0
 43 42  1  0  0  0  0
 44 38  2  0  0  0  0
M  END
>  <minimizedAffinity>
-5.35357189

$$$$

 OpenBabel03252500383D

 44 47  0  0  1  0  0  0  0  0999 V2000
   38.5860   31.3000   40.1680 C   0  0  0  0  0  0  0  0  0  0  0  0
   39.1640   31.2380   39.2240 H   0  0  0  0  0  0  0  0  0  0  0  0
   38.8830   30.4250   40.7810 H   0  0  0  0  0  0  0  0  0  0  0  0
   37.1830   31.2830   39.9660 N   0  0  0  0  0  0  0  0  0  0  0  0
   36.3670   30.8430   41.0120 C   0  0  0  0  0  0  0  0  0  0  0  0
   36.1080   29.3250   40.9320 C   0  0  0  0  0  0  0  0  0  0  0  0
   35.2650   29.1030   39.7030 C   0  0  0  0  0  0  0  0  0  0  0  0
   36.0780   29.5940   38.5250 C   0  0  0  0  0  0  0  0  0  0  0  0
   36.6740   30.9610   38.7010 C   0  0  2  0  0  0  0  0  0  0  0  0
   36.5510   31.1920   42.0280 H   0  0  0  0  0  0  0  0  0  0  0  0
   35.3400   31.2650   40.7860 H   0  0  0  0  0  0  0  0  0  0  0  0
   37.1060   28.8800   40.7060 H   0  0  0  0  0  0  0  0  0  0  0  0
   35.6450   28.9590   41.8540 H   0  0  0  0  0  0  0  0  0  0  0  0
   35.1790   27.9950   39.5540 H   0  0  0  0  0  0  0  0  0  0  0  0
   34.2670   29.5610   39.7620 H   0  0  0  0  0  0  0  0  0  0  0  0
   36.8480   28.8660   38.2460 H   0  0  0  0  0  0  0  0  0  0  0  0
   35.3690   29.6290   37.6680 H   0  0  0  0  0  0  0  0  0  0  0  0
   35.8650   31.7000   38.4480 H   0  0  0  0  0  0  0  0  0  0  0  0
   37.7210   31.1260   37.6080 C   0  0  0  0  0  0  0  0  0  0  0  0
   37.2920   30.9530   36.6080 H   0  0  0  0  0  0  0  0  0  0  0  0
   38.4960   30.3440   37.8510 H   0  0  0  0  0  0  0  0  0  0  0  0
   38.2000   32.1320   37.6910 H   0  0  0  0  0  0  0  0  0  0  0  0
   40.1110   33.4150   40.4410 C   0  0  1  0  0  0  0  0  0  0  0  0
   38.7990   33.8560   40.2510 C   0  0  0  0  0  0  0  0  0  0  0  0
   38.9110   32.5420   40.9110 C   0  0  1  0  0  0  0  0  0  0  0  0
   40.7450   33.8250   41.2770 H   0  0  0  0  0  0  0  0  0  0  0  0
   38.4260   34.7400   40.8470 H   0  0  0  0  0  0  0  0  0  0  0  0
   38.2980   33.8600   39.2390 H   0  0  0  0  0  0  0  0  0  0  0  0
   38.9390   32.4150   42.0040 H   0  0  0  0  0  0  0  0  0  0  0  0
   42.1970   32.1600   39.8740 C   0  0  0  0  0  0  0  0  0  0  0  0
   41.0080   32.8080   39.4100 C   0  0  0  0  0  0  0  0  0  0  0  0
   40.7380   32.8510   38.0790 C   0  0  0  0  0  0  0  0  0  0  0  0
   41.6310   32.2630   37.2300 N   0  0  0  0  0  0  0  0  0  0  0  0
   42.7540   31.6540   37.6850 C   0  0  0  0  0  0  0  0  0  0  0  0
   43.0740   31.5830   39.0210 N   0  0  0  0  0  0  0  0  0  0  0  0
   42.3890   32.1430   40.9490 H   0  0  0  0  0  0  0  0  0  0  0  0
   39.8440   33.3350   37.7120 H   0  0  0  0  0  0  0  0  0  0  0  0
   43.5820   31.0870   36.6240 C   0  0  0  0  0  0  0  0  0  0  0  0
   44.8880   31.2010   36.3160 N   0  0  0  0  0  0  0  0  0  0  0  0
   45.1520   30.4500   35.2080 C   0  0  0  0  0  0  0  0  0  0  0  0
   46.1460   30.3830   34.7650 H   0  0  0  0  0  0  0  0  0  0  0  0
   43.9700   29.8750   34.8500 N   0  0  0  0  0  0  0  0  0  0  0  0
   43.8830   29.2400   34.0230 H   0  0  0  0  0  0  0  0  0  0  0  0
   43.0220   30.2530   35.6990 N   0  0  0  0  0  0  0  0  0  0  0  0
  1  3  1  0  0  0  0
  1 25  1  0  0  0  0
  2  1  1  0  0  0  0
  4  1  1  0  0  0  0
  4  5  1  0  0  0  0
  5 10  1  0  0  0  0
  6  5  1  0  0  0  0
  6 13  1  0  0  0  0
  7 15  1  0  0  0  0
  7  6  1  0  0  0  0
  8  9  1  0  0  0  0
  8  7  1  0  0  0  0
  9 18  1  6  0  0  0
  9  4  1  0  0  0  0
 11  5  1  0  0  0  0
 12  6  1  0  0  0  0
 14  7  1  0  0  0  0
 16  8  1  0  0  0  0
 17  8  1  0  0  0  0
 19 22  1  0  0  0  0
 19 21  1  0  0  0  0
 19  9  1  0  0  0  0
 20 19  1  0  0  0  0
 23 25  1  0  0  0  0
 23 26  1  1  0  0  0
 24 23  1  0  0  0  0
 24 27  1  0  0  0  0
 24 25  1  0  0  0  0
 25 29  1  1  0  0  0
 28 24  1  0  0  0  0
 30 36  1  0  0  0  0
 31 30  1  0  0  0  0
 31 23  1  0  0  0  0
 32 31  2  0  0  0  0
 33 34  2  0  0  0  0
 33 32  1  0  0  0  0
 34 35  1  0  0  0  0
 35 30  2  0  0  0  0
 37 32  1  0  0  0  0
 38 34  1  0  0  0  0
 39 38  1  0  0  0  0
 40 39  2  0  0  0  0
 41 40  1  0  0  0  0
 42 40  1  0  0  0  0
 42 44  1  0  0  0  0
 43 42  1  0  0  0  0
 44 38  2  0  0  0  0
M  END
>  <minimizedAffinity>
-5.31136084

$$$$

 OpenBabel03252500383D

 44 47  0  0  1  0  0  0  0  0999 V2000
   40.4090   31.1090   40.1910 C   0  0  0  0  0  0  0  0  0  0  0  0
   41.4540   30.8920   39.8890 H   0  0  0  0  0  0  0  0  0  0  0  0
   39.8820   30.1350   40.2350 H   0  0  0  0  0  0  0  0  0  0  0  0
   39.7350   31.9720   39.2900 N   0  0  0  0  0  0  0  0  0  0  0  0
   39.7340   33.3430   39.5600 C   0  0  0  0  0  0  0  0  0  0  0  0
   38.5160   33.7540   40.4130 C   0  0  0  0  0  0  0  0  0  0  0  0
   37.3030   33.5600   39.5420 C   0  0  0  0  0  0  0  0  0  0  0  0
   37.2610   32.0920   39.1780 C   0  0  0  0  0  0  0  0  0  0  0  0
   38.5590   31.5340   38.6680 C   0  0  2  0  0  0  0  0  0  0  0  0
   40.6560   33.8390   39.8650 H   0  0  0  0  0  0  0  0  0  0  0  0
   39.5010   33.8420   38.5690 H   0  0  0  0  0  0  0  0  0  0  0  0
   38.4530   32.9750   41.2090 H   0  0  0  0  0  0  0  0  0  0  0  0
   38.6300   34.7770   40.7870 H   0  0  0  0  0  0  0  0  0  0  0  0
   36.4010   33.7250   40.1860 H   0  0  0  0  0  0  0  0  0  0  0  0
   37.2760   34.2240   38.6650 H   0  0  0  0  0  0  0  0  0  0  0  0
   36.8780   31.4900   40.0110 H   0  0  0  0  0  0  0  0  0  0  0  0
   36.5010   32.0060   38.3690 H   0  0  0  0  0  0  0  0  0  0  0  0
   38.6170   31.8000   37.5780 H   0  0  0  0  0  0  0  0  0  0  0  0
   38.4270   30.0180   38.7030 C   0  0  0  0  0  0  0  0  0  0  0  0
   37.5440   29.6760   38.1390 H   0  0  0  0  0  0  0  0  0  0  0  0
   38.3200   29.7770   39.8000 H   0  0  0  0  0  0  0  0  0  0  0  0
   39.3710   29.5480   38.3320 H   0  0  0  0  0  0  0  0  0  0  0  0
   39.9780   30.8810   42.7670 C   0  0  1  0  0  0  0  0  0  0  0  0
   41.2930   31.3170   42.5910 C   0  0  0  0  0  0  0  0  0  0  0  0
   40.3630   31.7450   41.5310 C   0  0  1  0  0  0  0  0  0  0  0  0
   39.2910   31.3930   43.4980 H   0  0  0  0  0  0  0  0  0  0  0  0
   41.7140   32.0920   43.2980 H   0  0  0  0  0  0  0  0  0  0  0  0
   42.1270   30.6270   42.2680 H   0  0  0  0  0  0  0  0  0  0  0  0
   39.8200   32.7020   41.5520 H   0  0  0  0  0  0  0  0  0  0  0  0
   38.0280   29.3840   42.3170 C   0  0  0  0  0  0  0  0  0  0  0  0
   39.4440   29.5140   42.4790 C   0  0  0  0  0  0  0  0  0  0  0  0
   40.2400   28.4180   42.3710 C   0  0  0  0  0  0  0  0  0  0  0  0
   39.6400   27.2210   42.1080 N   0  0  0  0  0  0  0  0  0  0  0  0
   38.2960   27.1130   41.9570 C   0  0  0  0  0  0  0  0  0  0  0  0
   37.4460   28.1900   42.0570 N   0  0  0  0  0  0  0  0  0  0  0  0
   37.4140   30.2820   42.4100 H   0  0  0  0  0  0  0  0  0  0  0  0
   41.3110   28.5000   42.4910 H   0  0  0  0  0  0  0  0  0  0  0  0
   37.8460   25.7510   41.6810 C   0  0  0  0  0  0  0  0  0  0  0  0
   36.8960   25.2430   40.8740 N   0  0  0  0  0  0  0  0  0  0  0  0
   36.8880   23.8840   40.9950 C   0  0  0  0  0  0  0  0  0  0  0  0
   36.2010   23.2470   40.4380 H   0  0  0  0  0  0  0  0  0  0  0  0
   37.8610   23.5790   41.8990 N   0  0  0  0  0  0  0  0  0  0  0  0
   38.0750   22.5950   42.1830 H   0  0  0  0  0  0  0  0  0  0  0  0
   38.4410   24.6980   42.3140 N   0  0  0  0  0  0  0  0  0  0  0  0
  1  3  1  0  0  0  0
  1 25  1  0  0  0  0
  2  1  1  0  0  0  0
  4  5  1  0  0  0  0
  4  1  1  0  0  0  0
  5 10  1  0  0  0  0
  5  6  1  0  0  0  0
  6 13  1  0  0  0  0
  6 12  1  0  0  0  0
  7 14  1  0  0  0  0
  7  6  1  0  0  0  0
  8  7  1  0  0  0  0
  8 16  1  0  0  0  0
  9 18  1  6  0  0  0
  9 19  1  0  0  0  0
  9  8  1  0  0  0  0
  9  4  1  0  0  0  0
 11  5  1  0  0  0  0
 15  7  1  0  0  0  0
 17  8  1  0  0  0  0
 19 21  1  0  0  0  0
 20 19  1  0  0  0  0
 22 19  1  0  0  0  0
 23 26  1  1  0  0  0
 24 23  1  0  0  0  0
 24 27  1  0  0  0  0
 25 29  1  1  0  0  0
 25 24  1  0  0  0  0
 25 23  1  0  0  0  0
 28 24  1  0  0  0  0
 30 36  1  0  0  0  0
 30 31  1  0  0  0  0
 31 23  1  0  0  0  0
 32 31  2  0  0  0  0
 32 37  1  0  0  0  0
 33 32  1  0  0  0  0
 34 35  1  0  0  0  0
 34 33  2  0  0  0  0
 35 30  2  0  0  0  0
 38 34  1  0  0  0  0
 38 44  2  0  0  0  0
 39 40  2  0  0  0  0
 39 38  1  0  0  0  0
 40 42  1  0  0  0  0
 41 40  1  0  0  0  0
 42 43  1  0  0  0  0
 42 44  1  0  0  0  0
M  END
>  <minimizedAffinity>
-5.291852

$$$$

 OpenBabel03252500383D

 44 47  0  0  1  0  0  0  0  0999 V2000
   39.3430   25.6720   41.0630 C   0  0  0  0  0  0  0  0  0  0  0  0
   39.0580   26.7180   40.8310 H   0  0  0  0  0  0  0  0  0  0  0  0
   39.8620   25.2780   40.1660 H   0  0  0  0  0  0  0  0  0  0  0  0
   38.2310   24.8450   41.3670 N   0  0  0  0  0  0  0  0  0  0  0  0
   38.4020   23.4590   41.3190 C   0  0  0  0  0  0  0  0  0  0  0  0
   38.0750   22.8940   39.9220 C   0  0  0  0  0  0  0  0  0  0  0  0
   36.5930   23.0780   39.7260 C   0  0  0  0  0  0  0  0  0  0  0  0
   36.3270   24.5650   39.8030 C   0  0  0  0  0  0  0  0  0  0  0  0
   36.9460   25.2540   40.9860 C   0  0  2  0  0  0  0  0  0  0  0  0
   39.2850   23.0040   41.7680 H   0  0  0  0  0  0  0  0  0  0  0  0
   37.5580   23.0340   41.9450 H   0  0  0  0  0  0  0  0  0  0  0  0
   38.5710   23.5950   39.2100 H   0  0  0  0  0  0  0  0  0  0  0  0
   38.4040   21.8520   39.8370 H   0  0  0  0  0  0  0  0  0  0  0  0
   36.3600   22.7960   38.6670 H   0  0  0  0  0  0  0  0  0  0  0  0
   35.9770   22.4920   40.4240 H   0  0  0  0  0  0  0  0  0  0  0  0
   36.6110   25.0660   38.8690 H   0  0  0  0  0  0  0  0  0  0  0  0
   35.2220   24.6680   39.8770 H   0  0  0  0  0  0  0  0  0  0  0  0
   36.2520   25.0870   41.8540 H   0  0  0  0  0  0  0  0  0  0  0  0
   36.8840   26.7480   40.7050 C   0  0  0  0  0  0  0  0  0  0  0  0
   35.8540   27.0760   40.4890 H   0  0  0  0  0  0  0  0  0  0  0  0
   37.5450   26.8860   39.8020 H   0  0  0  0  0  0  0  0  0  0  0  0
   37.3340   27.3130   41.5580 H   0  0  0  0  0  0  0  0  0  0  0  0
   40.5130   26.9020   43.0600 C   0  0  1  0  0  0  0  0  0  0  0  0
   39.7660   25.8470   43.5870 C   0  0  0  0  0  0  0  0  0  0  0  0
   40.2670   25.6140   42.2210 C   0  0  1  0  0  0  0  0  0  0  0  0
   41.5860   27.0620   43.3660 H   0  0  0  0  0  0  0  0  0  0  0  0
   40.1950   25.2420   44.4400 H   0  0  0  0  0  0  0  0  0  0  0  0
   38.6430   25.8920   43.7000 H   0  0  0  0  0  0  0  0  0  0  0  0
   41.2230   25.1140   42.0040 H   0  0  0  0  0  0  0  0  0  0  0  0
   40.7640   28.8210   41.4780 C   0  0  0  0  0  0  0  0  0  0  0  0
   39.9800   28.1770   42.4880 C   0  0  0  0  0  0  0  0  0  0  0  0
   38.8060   28.7300   42.8870 C   0  0  0  0  0  0  0  0  0  0  0  0
   38.4200   29.8990   42.2950 N   0  0  0  0  0  0  0  0  0  0  0  0
   39.1740   30.4980   41.3400 C   0  0  0  0  0  0  0  0  0  0  0  0
   40.3700   29.9790   40.9000 N   0  0  0  0  0  0  0  0  0  0  0  0
   41.7030   28.3530   41.1780 H   0  0  0  0  0  0  0  0  0  0  0  0
   38.2020   28.2570   43.6490 H   0  0  0  0  0  0  0  0  0  0  0  0
   38.5940   31.7370   40.8290 C   0  0  0  0  0  0  0  0  0  0  0  0
   39.1270   32.9150   40.4530 N   0  0  0  0  0  0  0  0  0  0  0  0
   38.1260   33.7490   40.0470 C   0  0  0  0  0  0  0  0  0  0  0  0
   38.3110   34.7630   39.6960 H   0  0  0  0  0  0  0  0  0  0  0  0
   36.9680   33.0440   40.1870 N   0  0  0  0  0  0  0  0  0  0  0  0
   36.0330   33.4470   39.9460 H   0  0  0  0  0  0  0  0  0  0  0  0
   37.2430   31.8330   40.6570 N   0  0  0  0  0  0  0  0  0  0  0  0
  1  4  1  0  0  0  0
  1 25  1  0  0  0  0
  2  1  1  0  0  0  0
  3  1  1  0  0  0  0
  5  4  1  0  0  0  0
  5 10  1  0  0  0  0
  5 11  1  0  0  0  0
  6  5  1  0  0  0  0
  7  8  1  0  0  0  0
  7  6  1  0  0  0  0
  7 15  1  0  0  0  0
  8 17  1  0  0  0  0
  8  9  1  0  0  0  0
  9  4  1  0  0  0  0
  9 18  1  1  0  0  0
 12  6  1  0  0  0  0
 13  6  1  0  0  0  0
 14  7  1  0  0  0  0
 16  8  1  0  0  0  0
 19  9  1  0  0  0  0
 19 22  1  0  0  0  0
 20 19  1  0  0  0  0
 21 19  1  0  0  0  0
 23 26  1  1  0  0  0
 23 24  1  0  0  0  0
 24 28  1  0  0  0  0
 24 27  1  0  0  0  0
 25 29  1  6  0  0  0
 25 23  1  0  0  0  0
 25 24  1  0  0  0  0
 30 31  1  0  0  0  0
 31 32  2  0  0  0  0
 31 23  1  0  0  0  0
 32 37  1  0  0  0  0
 33 32  1  0  0  0  0
 34 33  2  0  0  0  0
 35 34  1  0  0  0  0
 35 30  2  0  0  0  0
 36 30  1  0  0  0  0
 38 34  1  0  0  0  0
 39 38  1  0  0  0  0
 40 42  1  0  0  0  0
 40 39  2  0  0  0  0
 41 40  1  0  0  0  0
 42 44  1  0  0  0  0
 43 42  1  0  0  0  0
 44 38  2  0  0  0  0
M  END
>  <minimizedAffinity>
-5.23320866

$$$$
