
 OpenBabel03242514243D

 32 35  0  0  0  0  0  0  0  0999 V2000
   40.8000   30.6690   40.8740 Cl  0  0  0  0  0  0  0  0  0  0  0  0
   39.2570   31.3980   40.4790 C   0  0  0  0  0  0  0  0  0  0  0  0
   39.2240   32.5360   39.7190 C   0  0  0  0  0  0  0  0  0  0  0  0
   38.0070   33.1380   39.3890 C   0  0  0  0  0  0  0  0  0  0  0  0
   36.8750   32.5200   39.8710 C   0  0  0  0  0  0  0  0  0  0  0  0
   36.9250   31.3720   40.6360 C   0  0  0  0  0  0  0  0  0  0  0  0
   38.1230   30.8060   40.9420 C   0  0  0  0  0  0  0  0  0  0  0  0
   37.9650   34.0390   38.7890 H   0  0  0  0  0  0  0  0  0  0  0  0
   35.9290   32.9980   39.6060 H   0  0  0  0  0  0  0  0  0  0  0  0
   36.0060   30.9200   40.9940 H   0  0  0  0  0  0  0  0  0  0  0  0
   38.2060   29.5940   41.7500 C   0  0  0  0  0  0  0  0  0  0  0  0
   38.2210   29.5090   43.0810 N   0  0  0  0  0  0  0  0  0  0  0  0
   38.3050   28.2160   43.4360 C   0  0  0  0  0  0  0  0  0  0  0  0
   38.3440   27.4780   42.3120 N   0  0  0  0  0  0  0  0  0  0  0  0
   38.2820   28.3290   41.3010 N   0  0  0  0  0  0  0  0  0  0  0  0
   38.3370   27.8300   44.4620 H   0  0  0  0  0  0  0  0  0  0  0  0
   38.4320   26.0580   42.2550 C   0  0  0  0  0  0  0  0  0  0  0  0
   39.5720   25.3460   42.1950 N   0  0  0  0  0  0  0  0  0  0  0  0
   39.2810   24.0220   42.1520 C   0  0  0  0  0  0  0  0  0  0  0  0
   39.8410   23.0980   42.0990 H   0  0  0  0  0  0  0  0  0  0  0  0
   37.9370   23.9260   42.1880 N   0  0  0  0  0  0  0  0  0  0  0  0
   37.1950   23.1870   42.1820 H   0  0  0  0  0  0  0  0  0  0  0  0
   37.4250   25.1660   42.2520 N   0  0  0  0  0  0  0  0  0  0  0  0
   42.3140   34.5350   39.6120 C   0  0  0  0  0  0  0  0  0  0  0  0
   42.8040   34.2630   38.3240 C   0  0  0  0  0  0  0  0  0  0  0  0
   42.0730   33.4010   37.5090 C   0  0  0  0  0  0  0  0  0  0  0  0
   40.9320   32.8710   38.0010 N   0  0  0  0  0  0  0  0  0  0  0  0
   40.4700   33.1410   39.2400 C   0  0  0  0  0  0  0  0  0  0  0  0
   41.1650   33.9740   40.0430 N   0  0  0  0  0  0  0  0  0  0  0  0
   42.8930   35.2070   40.2320 H   0  0  0  0  0  0  0  0  0  0  0  0
   43.7110   34.6790   37.9230 H   0  0  0  0  0  0  0  0  0  0  0  0
   42.3340   33.1150   36.5210 H   0  0  0  0  0  0  0  0  0  0  0  0
  2  1  1  0  0  0  0
  2  7  1  0  0  0  0
  3  2  2  0  0  0  0
  4  3  1  0  0  0  0
  4  5  2  0  0  0  0
  5  6  1  0  0  0  0
  6  7  2  0  0  0  0
  6 10  1  0  0  0  0
  7 11  1  0  0  0  0
  8  4  1  0  0  0  0
  9  5  1  0  0  0  0
 11 12  1  0  0  0  0
 12 13  2  0  0  0  0
 13 16  1  0  0  0  0
 14 13  1  0  0  0  0
 15 11  2  0  0  0  0
 15 14  1  0  0  0  0
 17 14  1  0  0  0  0
 18 17  1  0  0  0  0
 19 21  1  0  0  0  0
 19 18  2  0  0  0  0
 20 19  1  0  0  0  0
 21 23  1  0  0  0  0
 22 21  1  0  0  0  0
 23 17  2  0  0  0  0
 24 29  1  0  0  0  0
 24 30  1  0  0  0  0
 25 24  2  0  0  0  0
 26 27  2  0  0  0  0
 26 25  1  0  0  0  0
 27 28  1  0  0  0  0
 28  3  1  0  0  0  0
 28 29  2  0  0  0  0
 31 25  1  0  0  0  0
 32 26  1  0  0  0  0
M  END
>  <minimizedAffinity>
-5.76595259

$$$$

 OpenBabel03242514243D

 32 35  0  0  0  0  0  0  0  0999 V2000
   39.4000   27.2370   40.3120 Cl  0  0  0  0  0  0  0  0  0  0  0  0
   38.3680   27.4590   41.7100 C   0  0  0  0  0  0  0  0  0  0  0  0
   37.4660   26.4850   42.0430 C   0  0  0  0  0  0  0  0  0  0  0  0
   36.6310   26.6360   43.1530 C   0  0  0  0  0  0  0  0  0  0  0  0
   36.7770   27.8050   43.8670 C   0  0  0  0  0  0  0  0  0  0  0  0
   37.6930   28.7770   43.5180 C   0  0  0  0  0  0  0  0  0  0  0  0
   38.4940   28.6040   42.4330 C   0  0  0  0  0  0  0  0  0  0  0  0
   35.9120   25.8740   43.4290 H   0  0  0  0  0  0  0  0  0  0  0  0
   36.1210   27.9130   44.7330 H   0  0  0  0  0  0  0  0  0  0  0  0
   37.7730   29.6820   44.1110 H   0  0  0  0  0  0  0  0  0  0  0  0
   39.4690   29.6170   42.0400 C   0  0  0  0  0  0  0  0  0  0  0  0
   40.7100   29.7660   42.5070 N   0  0  0  0  0  0  0  0  0  0  0  0
   41.2840   30.8140   41.8930 C   0  0  0  0  0  0  0  0  0  0  0  0
   40.3920   31.3300   41.0290 N   0  0  0  0  0  0  0  0  0  0  0  0
   39.2990   30.5920   41.1310 N   0  0  0  0  0  0  0  0  0  0  0  0
   42.3020   31.1840   42.0660 H   0  0  0  0  0  0  0  0  0  0  0  0
   40.6120   32.4520   40.1810 C   0  0  0  0  0  0  0  0  0  0  0  0
   40.3390   33.7330   40.4900 N   0  0  0  0  0  0  0  0  0  0  0  0
   40.6750   34.5350   39.4490 C   0  0  0  0  0  0  0  0  0  0  0  0
   40.6410   35.5940   39.2330 H   0  0  0  0  0  0  0  0  0  0  0  0
   41.1630   33.7260   38.4870 N   0  0  0  0  0  0  0  0  0  0  0  0
   41.5540   33.7950   37.5180 H   0  0  0  0  0  0  0  0  0  0  0  0
   41.1240   32.4610   38.9360 N   0  0  0  0  0  0  0  0  0  0  0  0
   36.4720   24.1310   39.3930 C   0  0  0  0  0  0  0  0  0  0  0  0
   37.1860   22.9710   39.7370 C   0  0  0  0  0  0  0  0  0  0  0  0
   37.9980   23.0080   40.8700 C   0  0  0  0  0  0  0  0  0  0  0  0
   38.0550   24.1580   41.5770 N   0  0  0  0  0  0  0  0  0  0  0  0
   37.3630   25.2660   41.2360 C   0  0  0  0  0  0  0  0  0  0  0  0
   36.5730   25.2480   40.1430 N   0  0  0  0  0  0  0  0  0  0  0  0
   35.8470   24.0840   38.5110 H   0  0  0  0  0  0  0  0  0  0  0  0
   37.1480   22.0510   39.1820 H   0  0  0  0  0  0  0  0  0  0  0  0
   38.5860   22.2040   41.2350 H   0  0  0  0  0  0  0  0  0  0  0  0
  1  2  1  0  0  0  0
  2  3  2  0  0  0  0
  2  7  1  0  0  0  0
  3  4  1  0  0  0  0
  4  8  1  0  0  0  0
  4  5  2  0  0  0  0
  5  9  1  0  0  0  0
  6  5  1  0  0  0  0
  6 10  1  0  0  0  0
  7  6  2  0  0  0  0
 11  7  1  0  0  0  0
 11 12  1  0  0  0  0
 13 16  1  0  0  0  0
 13 12  2  0  0  0  0
 14 15  1  0  0  0  0
 14 13  1  0  0  0  0
 15 11  2  0  0  0  0
 17 18  1  0  0  0  0
 17 14  1  0  0  0  0
 19 18  2  0  0  0  0
 20 19  1  0  0  0  0
 21 23  1  0  0  0  0
 21 19  1  0  0  0  0
 22 21  1  0  0  0  0
 23 17  2  0  0  0  0
 24 25  2  0  0  0  0
 24 29  1  0  0  0  0
 25 26  1  0  0  0  0
 26 32  1  0  0  0  0
 26 27  2  0  0  0  0
 28 27  1  0  0  0  0
 28  3  1  0  0  0  0
 29 28  2  0  0  0  0
 30 24  1  0  0  0  0
 31 25  1  0  0  0  0
M  END
>  <minimizedAffinity>
-5.67373991

$$$$

 OpenBabel03242514243D

 32 35  0  0  0  0  0  0  0  0999 V2000
   38.0600   28.0470   39.4240 Cl  0  0  0  0  0  0  0  0  0  0  0  0
   37.7400   27.9470   41.1430 C   0  0  0  0  0  0  0  0  0  0  0  0
   37.5150   26.7240   41.7160 C   0  0  0  0  0  0  0  0  0  0  0  0
   37.2580   26.6150   43.0850 C   0  0  0  0  0  0  0  0  0  0  0  0
   37.2460   27.7950   43.7960 C   0  0  0  0  0  0  0  0  0  0  0  0
   37.4750   29.0200   43.2020 C   0  0  0  0  0  0  0  0  0  0  0  0
   37.7230   29.0980   41.8680 C   0  0  0  0  0  0  0  0  0  0  0  0
   37.0770   25.6550   43.5530 H   0  0  0  0  0  0  0  0  0  0  0  0
   37.0440   27.6990   44.8650 H   0  0  0  0  0  0  0  0  0  0  0  0
   37.4550   29.9230   43.8030 H   0  0  0  0  0  0  0  0  0  0  0  0
   37.9680   30.3800   41.2150 C   0  0  0  0  0  0  0  0  0  0  0  0
   37.0570   31.2670   40.8110 N   0  0  0  0  0  0  0  0  0  0  0  0
   37.6860   32.3170   40.2570 C   0  0  0  0  0  0  0  0  0  0  0  0
   39.0100   32.0860   40.3130 N   0  0  0  0  0  0  0  0  0  0  0  0
   39.1620   30.9080   40.8960 N   0  0  0  0  0  0  0  0  0  0  0  0
   37.2040   33.2060   39.8330 H   0  0  0  0  0  0  0  0  0  0  0  0
   40.0250   32.9600   39.8310 C   0  0  0  0  0  0  0  0  0  0  0  0
   40.5550   32.9370   38.5940 N   0  0  0  0  0  0  0  0  0  0  0  0
   41.4950   33.9090   38.4830 C   0  0  0  0  0  0  0  0  0  0  0  0
   42.1660   34.2660   37.7140 H   0  0  0  0  0  0  0  0  0  0  0  0
   41.5380   34.5360   39.6760 N   0  0  0  0  0  0  0  0  0  0  0  0
   42.0510   35.3220   40.1390 H   0  0  0  0  0  0  0  0  0  0  0  0
   40.6420   33.9560   40.4920 N   0  0  0  0  0  0  0  0  0  0  0  0
   38.6880   23.6230   40.1150 C   0  0  0  0  0  0  0  0  0  0  0  0
   37.5700   23.2330   39.3590 C   0  0  0  0  0  0  0  0  0  0  0  0
   36.4300   24.0350   39.4060 C   0  0  0  0  0  0  0  0  0  0  0  0
   36.4610   25.1440   40.1770 N   0  0  0  0  0  0  0  0  0  0  0  0
   37.5420   25.5080   40.8980 C   0  0  0  0  0  0  0  0  0  0  0  0
   38.6540   24.7450   40.8650 N   0  0  0  0  0  0  0  0  0  0  0  0
   39.5640   22.9900   40.0660 H   0  0  0  0  0  0  0  0  0  0  0  0
   37.5340   22.3530   38.7430 H   0  0  0  0  0  0  0  0  0  0  0  0
   35.5240   23.8510   38.8850 H   0  0  0  0  0  0  0  0  0  0  0  0
  1  2  1  0  0  0  0
  2  3  2  0  0  0  0
  2  7  1  0  0  0  0
  3  4  1  0  0  0  0
  4  8  1  0  0  0  0
  4  5  2  0  0  0  0
  5  9  1  0  0  0  0
  6  5  1  0  0  0  0
  6 10  1  0  0  0  0
  7  6  2  0  0  0  0
 11  7  1  0  0  0  0
 12 11  1  0  0  0  0
 13 14  1  0  0  0  0
 13 12  2  0  0  0  0
 14 15  1  0  0  0  0
 15 11  2  0  0  0  0
 16 13  1  0  0  0  0
 17 14  1  0  0  0  0
 17 23  2  0  0  0  0
 18 17  1  0  0  0  0
 19 18  2  0  0  0  0
 19 21  1  0  0  0  0
 20 19  1  0  0  0  0
 21 22  1  0  0  0  0
 21 23  1  0  0  0  0
 24 29  1  0  0  0  0
 25 26  1  0  0  0  0
 25 24  2  0  0  0  0
 26 27  2  0  0  0  0
 27 28  1  0  0  0  0
 28  3  1  0  0  0  0
 29 28  2  0  0  0  0
 30 24  1  0  0  0  0
 31 25  1  0  0  0  0
 32 26  1  0  0  0  0
M  END
>  <minimizedAffinity>
-5.64969301

$$$$

 OpenBabel03242514243D

 32 35  0  0  0  0  0  0  0  0999 V2000
   36.9060   30.7590   38.1120 Cl  0  0  0  0  0  0  0  0  0  0  0  0
   36.9810   30.0460   39.7100 C   0  0  0  0  0  0  0  0  0  0  0  0
   36.2680   28.9070   39.9730 C   0  0  0  0  0  0  0  0  0  0  0  0
   36.3090   28.3170   41.2390 C   0  0  0  0  0  0  0  0  0  0  0  0
   37.0960   28.9480   42.1770 C   0  0  0  0  0  0  0  0  0  0  0  0
   37.8100   30.0960   41.8940 C   0  0  0  0  0  0  0  0  0  0  0  0
   37.7520   30.6490   40.6540 C   0  0  0  0  0  0  0  0  0  0  0  0
   35.7500   27.4170   41.4630 H   0  0  0  0  0  0  0  0  0  0  0  0
   37.1230   28.4790   43.1620 H   0  0  0  0  0  0  0  0  0  0  0  0
   38.4170   30.5580   42.6650 H   0  0  0  0  0  0  0  0  0  0  0  0
   38.4950   31.8630   40.3280 C   0  0  0  0  0  0  0  0  0  0  0  0
   38.0690   33.1230   40.4310 N   0  0  0  0  0  0  0  0  0  0  0  0
   39.0500   33.9500   40.0340 C   0  0  0  0  0  0  0  0  0  0  0  0
   40.1080   33.1990   39.6780 N   0  0  0  0  0  0  0  0  0  0  0  0
   39.7530   31.9380   39.8630 N   0  0  0  0  0  0  0  0  0  0  0  0
   38.9980   35.0440   40.0060 H   0  0  0  0  0  0  0  0  0  0  0  0
   41.3530   33.6960   39.2000 C   0  0  0  0  0  0  0  0  0  0  0  0
   41.6690   33.9050   37.9090 N   0  0  0  0  0  0  0  0  0  0  0  0
   42.9360   34.3810   37.8210 C   0  0  0  0  0  0  0  0  0  0  0  0
   43.6060   34.6850   37.0280 H   0  0  0  0  0  0  0  0  0  0  0  0
   43.4010   34.4650   39.0840 N   0  0  0  0  0  0  0  0  0  0  0  0
   44.2700   34.7520   39.5900 H   0  0  0  0  0  0  0  0  0  0  0  0
   42.4350   34.0470   39.9190 N   0  0  0  0  0  0  0  0  0  0  0  0
   33.5490   28.3310   37.5590 C   0  0  0  0  0  0  0  0  0  0  0  0
   33.9280   27.1160   36.9630 C   0  0  0  0  0  0  0  0  0  0  0  0
   35.1070   26.5100   37.3940 C   0  0  0  0  0  0  0  0  0  0  0  0
   35.8230   27.1240   38.3610 N   0  0  0  0  0  0  0  0  0  0  0  0
   35.4480   28.2900   38.9270 C   0  0  0  0  0  0  0  0  0  0  0  0
   34.3100   28.8910   38.5220 N   0  0  0  0  0  0  0  0  0  0  0  0
   32.6300   28.7870   37.2130 H   0  0  0  0  0  0  0  0  0  0  0  0
   33.3650   26.6200   36.1930 H   0  0  0  0  0  0  0  0  0  0  0  0
   35.5020   25.5970   37.0250 H   0  0  0  0  0  0  0  0  0  0  0  0
  1  2  1  0  0  0  0
  2  3  2  0  0  0  0
  2  7  1  0  0  0  0
  3  4  1  0  0  0  0
  4  8  1  0  0  0  0
  4  5  2  0  0  0  0
  5  9  1  0  0  0  0
  6  5  1  0  0  0  0
  6 10  1  0  0  0  0
  7  6  2  0  0  0  0
 11 12  1  0  0  0  0
 11  7  1  0  0  0  0
 13 12  2  0  0  0  0
 14 15  1  0  0  0  0
 14 13  1  0  0  0  0
 15 11  2  0  0  0  0
 16 13  1  0  0  0  0
 17 14  1  0  0  0  0
 17 23  2  0  0  0  0
 18 17  1  0  0  0  0
 19 18  2  0  0  0  0
 19 21  1  0  0  0  0
 20 19  1  0  0  0  0
 21 22  1  0  0  0  0
 21 23  1  0  0  0  0
 24 29  1  0  0  0  0
 25 26  1  0  0  0  0
 25 24  2  0  0  0  0
 26 27  2  0  0  0  0
 27 28  1  0  0  0  0
 28  3  1  0  0  0  0
 29 28  2  0  0  0  0
 30 24  1  0  0  0  0
 31 25  1  0  0  0  0
 32 26  1  0  0  0  0
M  END
>  <minimizedAffinity>
-5.6034503

$$$$

 OpenBabel03242514243D

 32 35  0  0  0  0  0  0  0  0999 V2000
   39.5710   28.0700   40.6160 Cl  0  0  0  0  0  0  0  0  0  0  0  0
   38.0180   28.8780   40.6540 C   0  0  0  0  0  0  0  0  0  0  0  0
   36.8740   28.1340   40.7650 C   0  0  0  0  0  0  0  0  0  0  0  0
   35.6220   28.7530   40.7980 C   0  0  0  0  0  0  0  0  0  0  0  0
   35.6220   30.1270   40.7120 C   0  0  0  0  0  0  0  0  0  0  0  0
   36.7850   30.8630   40.6010 C   0  0  0  0  0  0  0  0  0  0  0  0
   37.9910   30.2350   40.5710 C   0  0  0  0  0  0  0  0  0  0  0  0
   34.7080   28.1770   40.8850 H   0  0  0  0  0  0  0  0  0  0  0  0
   34.6380   30.6010   40.7400 H   0  0  0  0  0  0  0  0  0  0  0  0
   36.7360   31.9450   40.5360 H   0  0  0  0  0  0  0  0  0  0  0  0
   39.2350   30.9880   40.4530 C   0  0  0  0  0  0  0  0  0  0  0  0
   40.0440   31.3720   41.4420 N   0  0  0  0  0  0  0  0  0  0  0  0
   41.0840   32.0440   40.9210 C   0  0  0  0  0  0  0  0  0  0  0  0
   40.9270   32.0820   39.5860 N   0  0  0  0  0  0  0  0  0  0  0  0
   39.8020   31.4380   39.3210 N   0  0  0  0  0  0  0  0  0  0  0  0
   41.9150   32.4830   41.4850 H   0  0  0  0  0  0  0  0  0  0  0  0
   41.8170   32.7020   38.6630 C   0  0  0  0  0  0  0  0  0  0  0  0
   41.7360   33.9740   38.2320 N   0  0  0  0  0  0  0  0  0  0  0  0
   42.7450   34.2260   37.3610 C   0  0  0  0  0  0  0  0  0  0  0  0
   43.0820   35.0690   36.7750 H   0  0  0  0  0  0  0  0  0  0  0  0
   43.4550   33.0830   37.2610 N   0  0  0  0  0  0  0  0  0  0  0  0
   44.2970   32.7160   36.7590 H   0  0  0  0  0  0  0  0  0  0  0  0
   42.8870   32.1600   38.0540 N   0  0  0  0  0  0  0  0  0  0  0  0
   37.1510   24.7320   42.1430 C   0  0  0  0  0  0  0  0  0  0  0  0
   37.0840   23.9330   40.9890 C   0  0  0  0  0  0  0  0  0  0  0  0
   36.9470   24.5670   39.7560 C   0  0  0  0  0  0  0  0  0  0  0  0
   36.8830   25.9170   39.7350 N   0  0  0  0  0  0  0  0  0  0  0  0
   36.9480   26.6730   40.8510 C   0  0  0  0  0  0  0  0  0  0  0  0
   37.0820   26.0760   42.0540 N   0  0  0  0  0  0  0  0  0  0  0  0
   37.2580   24.2230   43.0930 H   0  0  0  0  0  0  0  0  0  0  0  0
   37.1340   22.8590   40.9940 H   0  0  0  0  0  0  0  0  0  0  0  0
   36.8850   24.0810   38.8150 H   0  0  0  0  0  0  0  0  0  0  0  0
  1  2  1  0  0  0  0
  2  3  1  0  0  0  0
  3  4  2  0  0  0  0
  3 28  1  0  0  0  0
  4  8  1  0  0  0  0
  5  9  1  0  0  0  0
  5  4  1  0  0  0  0
  6  5  2  0  0  0  0
  7  6  1  0  0  0  0
  7  2  2  0  0  0  0
 10  6  1  0  0  0  0
 11  7  1  0  0  0  0
 11 12  1  0  0  0  0
 13 12  2  0  0  0  0
 13 16  1  0  0  0  0
 14 13  1  0  0  0  0
 15 14  1  0  0  0  0
 15 11  2  0  0  0  0
 17 14  1  0  0  0  0
 18 17  1  0  0  0  0
 19 18  2  0  0  0  0
 20 19  1  0  0  0  0
 21 19  1  0  0  0  0
 21 23  1  0  0  0  0
 22 21  1  0  0  0  0
 23 17  2  0  0  0  0
 24 30  1  0  0  0  0
 25 31  1  0  0  0  0
 25 24  2  0  0  0  0
 26 25  1  0  0  0  0
 27 26  2  0  0  0  0
 27 28  1  0  0  0  0
 28 29  2  0  0  0  0
 29 24  1  0  0  0  0
 32 26  1  0  0  0  0
M  END
>  <minimizedAffinity>
-5.50103188

$$$$

 OpenBabel03242514243D

 32 35  0  0  0  0  0  0  0  0999 V2000
   40.1670   29.3350   40.2160 Cl  0  0  0  0  0  0  0  0  0  0  0  0
   38.9120   30.5440   40.0440 C   0  0  0  0  0  0  0  0  0  0  0  0
   37.7200   30.3760   40.6960 C   0  0  0  0  0  0  0  0  0  0  0  0
   36.7020   31.3250   40.5760 C   0  0  0  0  0  0  0  0  0  0  0  0
   36.9760   32.4110   39.7750 C   0  0  0  0  0  0  0  0  0  0  0  0
   38.1840   32.5660   39.1240 C   0  0  0  0  0  0  0  0  0  0  0  0
   39.1590   31.6270   39.2590 C   0  0  0  0  0  0  0  0  0  0  0  0
   35.7530   31.2050   41.0860 H   0  0  0  0  0  0  0  0  0  0  0  0
   36.1740   33.1470   39.6890 H   0  0  0  0  0  0  0  0  0  0  0  0
   38.3550   33.4390   38.5030 H   0  0  0  0  0  0  0  0  0  0  0  0
   40.4440   31.7650   38.5810 C   0  0  0  0  0  0  0  0  0  0  0  0
   40.7960   31.2480   37.4030 N   0  0  0  0  0  0  0  0  0  0  0  0
   42.0610   31.6030   37.1290 C   0  0  0  0  0  0  0  0  0  0  0  0
   42.5120   32.3550   38.1500 N   0  0  0  0  0  0  0  0  0  0  0  0
   41.5190   32.4420   39.0200 N   0  0  0  0  0  0  0  0  0  0  0  0
   42.6280   31.3300   36.2320 H   0  0  0  0  0  0  0  0  0  0  0  0
   43.8100   32.9310   38.2460 C   0  0  0  0  0  0  0  0  0  0  0  0
   44.8820   32.3560   38.8210 N   0  0  0  0  0  0  0  0  0  0  0  0
   45.9490   33.1880   38.7310 C   0  0  0  0  0  0  0  0  0  0  0  0
   46.9870   33.1670   39.0360 H   0  0  0  0  0  0  0  0  0  0  0  0
   45.5190   34.2920   38.0870 N   0  0  0  0  0  0  0  0  0  0  0  0
   45.8930   35.2120   37.7580 H   0  0  0  0  0  0  0  0  0  0  0  0
   44.2180   34.1310   37.7940 N   0  0  0  0  0  0  0  0  0  0  0  0
   37.4390   28.1960   43.6490 C   0  0  0  0  0  0  0  0  0  0  0  0
   37.0700   26.9650   43.0810 C   0  0  0  0  0  0  0  0  0  0  0  0
   36.9230   26.8960   41.6960 C   0  0  0  0  0  0  0  0  0  0  0  0
   37.1410   28.0170   40.9750 N   0  0  0  0  0  0  0  0  0  0  0  0
   37.4960   29.1930   41.5320 C   0  0  0  0  0  0  0  0  0  0  0  0
   37.6430   29.2780   42.8710 N   0  0  0  0  0  0  0  0  0  0  0  0
   37.5490   28.2320   44.7250 H   0  0  0  0  0  0  0  0  0  0  0  0
   36.8930   26.0670   43.6460 H   0  0  0  0  0  0  0  0  0  0  0  0
   36.6490   26.0310   41.1470 H   0  0  0  0  0  0  0  0  0  0  0  0
  2  1  1  0  0  0  0
  2  3  1  0  0  0  0
  3 28  1  0  0  0  0
  4  3  2  0  0  0  0
  4  8  1  0  0  0  0
  5  4  1  0  0  0  0
  6  7  1  0  0  0  0
  6  5  2  0  0  0  0
  7  2  2  0  0  0  0
  9  5  1  0  0  0  0
 10  6  1  0  0  0  0
 11 15  2  0  0  0  0
 11  7  1  0  0  0  0
 12 11  1  0  0  0  0
 13 12  2  0  0  0  0
 13 14  1  0  0  0  0
 14 17  1  0  0  0  0
 14 15  1  0  0  0  0
 16 13  1  0  0  0  0
 17 18  1  0  0  0  0
 19 18  2  0  0  0  0
 19 20  1  0  0  0  0
 21 19  1  0  0  0  0
 22 21  1  0  0  0  0
 23 21  1  0  0  0  0
 23 17  2  0  0  0  0
 24 30  1  0  0  0  0
 25 31  1  0  0  0  0
 25 24  1  0  0  0  0
 26 25  2  0  0  0  0
 27 28  2  0  0  0  0
 27 26  1  0  0  0  0
 28 29  1  0  0  0  0
 29 24  2  0  0  0  0
 32 26  1  0  0  0  0
M  END
>  <minimizedAffinity>
-5.44705629

$$$$

 OpenBabel03242514243D

 32 35  0  0  0  0  0  0  0  0999 V2000
   36.3990   27.2330   38.4430 Cl  0  0  0  0  0  0  0  0  0  0  0  0
   36.6560   26.4040   39.9640 C   0  0  0  0  0  0  0  0  0  0  0  0
   36.5890   25.0380   40.0060 C   0  0  0  0  0  0  0  0  0  0  0  0
   36.7910   24.3510   41.2070 C   0  0  0  0  0  0  0  0  0  0  0  0
   37.0530   25.1280   42.3130 C   0  0  0  0  0  0  0  0  0  0  0  0
   37.1180   26.5060   42.2530 C   0  0  0  0  0  0  0  0  0  0  0  0
   36.9180   27.1490   41.0720 C   0  0  0  0  0  0  0  0  0  0  0  0
   36.7400   23.2700   41.2560 H   0  0  0  0  0  0  0  0  0  0  0  0
   37.2100   24.5820   43.2460 H   0  0  0  0  0  0  0  0  0  0  0  0
   37.3280   27.0770   43.1510 H   0  0  0  0  0  0  0  0  0  0  0  0
   36.9800   28.6040   40.9800 C   0  0  0  0  0  0  0  0  0  0  0  0
   35.9640   29.4640   41.0760 N   0  0  0  0  0  0  0  0  0  0  0  0
   36.4340   30.7140   40.9380 C   0  0  0  0  0  0  0  0  0  0  0  0
   37.7640   30.6400   40.7510 N   0  0  0  0  0  0  0  0  0  0  0  0
   38.0770   29.3540   40.7800 N   0  0  0  0  0  0  0  0  0  0  0  0
   35.8380   31.6340   40.9710 H   0  0  0  0  0  0  0  0  0  0  0  0
   38.6390   31.7480   40.5640 C   0  0  0  0  0  0  0  0  0  0  0  0
   38.9810   32.2820   39.3780 N   0  0  0  0  0  0  0  0  0  0  0  0
   39.8300   33.3230   39.5750 C   0  0  0  0  0  0  0  0  0  0  0  0
   40.3560   34.0340   38.9520 H   0  0  0  0  0  0  0  0  0  0  0  0
   40.0060   33.4240   40.9080 N   0  0  0  0  0  0  0  0  0  0  0  0
   40.5290   34.0160   41.5950 H   0  0  0  0  0  0  0  0  0  0  0  0
   39.2790   32.4640   41.5050 N   0  0  0  0  0  0  0  0  0  0  0  0
   37.0670   23.1390   36.8890 C   0  0  0  0  0  0  0  0  0  0  0  0
   35.7460   22.8420   36.5120 C   0  0  0  0  0  0  0  0  0  0  0  0
   34.7100   23.2960   37.3270 C   0  0  0  0  0  0  0  0  0  0  0  0
   35.0310   23.9950   38.4370 N   0  0  0  0  0  0  0  0  0  0  0  0
   36.3040   24.2740   38.7890 C   0  0  0  0  0  0  0  0  0  0  0  0
   37.3190   23.8430   38.0120 N   0  0  0  0  0  0  0  0  0  0  0  0
   37.8590   22.7800   36.2450 H   0  0  0  0  0  0  0  0  0  0  0  0
   35.4800   22.2870   35.6310 H   0  0  0  0  0  0  0  0  0  0  0  0
   33.6750   23.1390   37.1550 H   0  0  0  0  0  0  0  0  0  0  0  0
  1  2  1  0  0  0  0
  2  3  2  0  0  0  0
  2  7  1  0  0  0  0
  3  4  1  0  0  0  0
  4  8  1  0  0  0  0
  4  5  2  0  0  0  0
  5  9  1  0  0  0  0
  6  5  1  0  0  0  0
  6 10  1  0  0  0  0
  7  6  2  0  0  0  0
 11  7  1  0  0  0  0
 11 12  1  0  0  0  0
 13 16  1  0  0  0  0
 13 12  2  0  0  0  0
 14 15  1  0  0  0  0
 14 13  1  0  0  0  0
 15 11  2  0  0  0  0
 17 14  1  0  0  0  0
 17 23  2  0  0  0  0
 18 19  2  0  0  0  0
 18 17  1  0  0  0  0
 19 21  1  0  0  0  0
 20 19  1  0  0  0  0
 21 23  1  0  0  0  0
 21 22  1  0  0  0  0
 24 29  1  0  0  0  0
 25 24  2  0  0  0  0
 25 26  1  0  0  0  0
 26 27  2  0  0  0  0
 27 28  1  0  0  0  0
 28  3  1  0  0  0  0
 29 28  2  0  0  0  0
 30 24  1  0  0  0  0
 31 25  1  0  0  0  0
 32 26  1  0  0  0  0
M  END
>  <minimizedAffinity>
-5.40399218

$$$$

 OpenBabel03242514243D

 32 35  0  0  0  0  0  0  0  0999 V2000
   37.2500   26.2430   38.4010 Cl  0  0  0  0  0  0  0  0  0  0  0  0
   37.2170   26.0920   40.1460 C   0  0  0  0  0  0  0  0  0  0  0  0
   36.8360   24.9050   40.7120 C   0  0  0  0  0  0  0  0  0  0  0  0
   36.8000   24.7580   42.1010 C   0  0  0  0  0  0  0  0  0  0  0  0
   37.1650   25.8630   42.8380 C   0  0  0  0  0  0  0  0  0  0  0  0
   37.5470   27.0520   42.2510 C   0  0  0  0  0  0  0  0  0  0  0  0
   37.5730   27.1690   40.8960 C   0  0  0  0  0  0  0  0  0  0  0  0
   36.5010   23.8250   42.5640 H   0  0  0  0  0  0  0  0  0  0  0  0
   37.1350   25.7370   43.9230 H   0  0  0  0  0  0  0  0  0  0  0  0
   37.8270   27.8970   42.8720 H   0  0  0  0  0  0  0  0  0  0  0  0
   37.9720   28.4150   40.2490 C   0  0  0  0  0  0  0  0  0  0  0  0
   38.8500   28.5650   39.2560 N   0  0  0  0  0  0  0  0  0  0  0  0
   38.9380   29.8670   38.9430 C   0  0  0  0  0  0  0  0  0  0  0  0
   38.1040   30.5470   39.7500 N   0  0  0  0  0  0  0  0  0  0  0  0
   37.5270   29.6510   40.5350 N   0  0  0  0  0  0  0  0  0  0  0  0
   39.5780   30.3020   38.1660 H   0  0  0  0  0  0  0  0  0  0  0  0
   37.9010   31.9560   39.7380 C   0  0  0  0  0  0  0  0  0  0  0  0
   38.5810   32.8510   40.4770 N   0  0  0  0  0  0  0  0  0  0  0  0
   38.1270   34.1010   40.2120 C   0  0  0  0  0  0  0  0  0  0  0  0
   38.3520   35.1050   40.5460 H   0  0  0  0  0  0  0  0  0  0  0  0
   37.1510   33.9640   39.2910 N   0  0  0  0  0  0  0  0  0  0  0  0
   36.4850   34.5620   38.7490 H   0  0  0  0  0  0  0  0  0  0  0  0
   37.0180   32.6580   39.0060 N   0  0  0  0  0  0  0  0  0  0  0  0
   37.0590   21.8330   38.6970 C   0  0  0  0  0  0  0  0  0  0  0  0
   35.7300   21.6480   38.2810 C   0  0  0  0  0  0  0  0  0  0  0  0
   34.7750   22.5770   38.6940 C   0  0  0  0  0  0  0  0  0  0  0  0
   35.1780   23.6030   39.4740 N   0  0  0  0  0  0  0  0  0  0  0  0
   36.4590   23.7700   39.8660 C   0  0  0  0  0  0  0  0  0  0  0  0
   37.3960   22.8810   39.4760 N   0  0  0  0  0  0  0  0  0  0  0  0
   37.7870   21.1030   38.3670 H   0  0  0  0  0  0  0  0  0  0  0  0
   35.3980   20.8350   37.6610 H   0  0  0  0  0  0  0  0  0  0  0  0
   33.7430   22.5510   38.4500 H   0  0  0  0  0  0  0  0  0  0  0  0
  1  2  1  0  0  0  0
  2  3  2  0  0  0  0
  2  7  1  0  0  0  0
  3  4  1  0  0  0  0
  4  8  1  0  0  0  0
  4  5  2  0  0  0  0
  5  9  1  0  0  0  0
  6  5  1  0  0  0  0
  6 10  1  0  0  0  0
  7  6  2  0  0  0  0
 11 15  2  0  0  0  0
 11  7  1  0  0  0  0
 12 11  1  0  0  0  0
 13 12  2  0  0  0  0
 13 14  1  0  0  0  0
 14 15  1  0  0  0  0
 16 13  1  0  0  0  0
 17 14  1  0  0  0  0
 17 18  1  0  0  0  0
 19 18  2  0  0  0  0
 19 20  1  0  0  0  0
 21 19  1  0  0  0  0
 22 21  1  0  0  0  0
 23 21  1  0  0  0  0
 23 17  2  0  0  0  0
 24 29  1  0  0  0  0
 25 26  1  0  0  0  0
 25 24  2  0  0  0  0
 26 27  2  0  0  0  0
 27 28  1  0  0  0  0
 28  3  1  0  0  0  0
 29 28  2  0  0  0  0
 30 24  1  0  0  0  0
 31 25  1  0  0  0  0
 32 26  1  0  0  0  0
M  END
>  <minimizedAffinity>
-5.37722206

$$$$

 OpenBabel03242514243D

 32 35  0  0  0  0  0  0  0  0999 V2000
   39.6870   30.4040   38.9030 Cl  0  0  0  0  0  0  0  0  0  0  0  0
   39.2540   32.0300   39.3910 C   0  0  0  0  0  0  0  0  0  0  0  0
   40.1950   33.0230   39.3370 C   0  0  0  0  0  0  0  0  0  0  0  0
   39.8760   34.3280   39.7210 C   0  0  0  0  0  0  0  0  0  0  0  0
   38.5830   34.5360   40.1470 C   0  0  0  0  0  0  0  0  0  0  0  0
   37.6460   33.5230   40.1950 C   0  0  0  0  0  0  0  0  0  0  0  0
   37.9830   32.2620   39.8160 C   0  0  0  0  0  0  0  0  0  0  0  0
   40.6090   35.1240   39.6830 H   0  0  0  0  0  0  0  0  0  0  0  0
   38.3440   35.5600   40.4440 H   0  0  0  0  0  0  0  0  0  0  0  0
   36.6390   33.7350   40.5380 H   0  0  0  0  0  0  0  0  0  0  0  0
   37.0130   31.1720   39.8580 C   0  0  0  0  0  0  0  0  0  0  0  0
   36.4960   30.5920   40.9420 N   0  0  0  0  0  0  0  0  0  0  0  0
   35.6400   29.6310   40.5590 C   0  0  0  0  0  0  0  0  0  0  0  0
   35.6190   29.6060   39.2140 N   0  0  0  0  0  0  0  0  0  0  0  0
   36.4560   30.5460   38.8070 N   0  0  0  0  0  0  0  0  0  0  0  0
   35.0610   28.9800   41.2240 H   0  0  0  0  0  0  0  0  0  0  0  0
   34.8360   28.7270   38.4130 C   0  0  0  0  0  0  0  0  0  0  0  0
   35.2300   27.5250   37.9550 N   0  0  0  0  0  0  0  0  0  0  0  0
   34.2310   26.9650   37.2270 C   0  0  0  0  0  0  0  0  0  0  0  0
   34.0820   26.0440   36.6790 H   0  0  0  0  0  0  0  0  0  0  0  0
   33.2090   27.8430   37.2430 N   0  0  0  0  0  0  0  0  0  0  0  0
   32.2360   27.9330   36.8680 H   0  0  0  0  0  0  0  0  0  0  0  0
   33.5800   28.9130   37.9660 N   0  0  0  0  0  0  0  0  0  0  0  0
   43.8050   32.3020   39.3540 C   0  0  0  0  0  0  0  0  0  0  0  0
   44.0930   32.1770   37.9850 C   0  0  0  0  0  0  0  0  0  0  0  0
   43.0510   32.3410   37.0740 C   0  0  0  0  0  0  0  0  0  0  0  0
   41.8180   32.6100   37.5560 N   0  0  0  0  0  0  0  0  0  0  0  0
   41.5530   32.7290   38.8740 C   0  0  0  0  0  0  0  0  0  0  0  0
   42.5500   32.5740   39.7700 N   0  0  0  0  0  0  0  0  0  0  0  0
   44.6250   32.1730   40.0470 H   0  0  0  0  0  0  0  0  0  0  0  0
   45.0700   31.9630   37.5900 H   0  0  0  0  0  0  0  0  0  0  0  0
   43.1360   32.2710   36.0180 H   0  0  0  0  0  0  0  0  0  0  0  0
  1  2  1  0  0  0  0
  2  7  1  0  0  0  0
  3  2  2  0  0  0  0
  3  4  1  0  0  0  0
  4  5  2  0  0  0  0
  5  6  1  0  0  0  0
  5  9  1  0  0  0  0
  6 10  1  0  0  0  0
  7 11  1  0  0  0  0
  7  6  2  0  0  0  0
  8  4  1  0  0  0  0
 11 12  1  0  0  0  0
 13 12  2  0  0  0  0
 13 16  1  0  0  0  0
 14 13  1  0  0  0  0
 15 14  1  0  0  0  0
 15 11  2  0  0  0  0
 17 14  1  0  0  0  0
 18 17  1  0  0  0  0
 19 21  1  0  0  0  0
 19 18  2  0  0  0  0
 20 19  1  0  0  0  0
 21 23  1  0  0  0  0
 22 21  1  0  0  0  0
 23 17  2  0  0  0  0
 24 29  1  0  0  0  0
 24 30  1  0  0  0  0
 25 24  2  0  0  0  0
 26 27  2  0  0  0  0
 26 25  1  0  0  0  0
 27 28  1  0  0  0  0
 28  3  1  0  0  0  0
 28 29  2  0  0  0  0
 31 25  1  0  0  0  0
 32 26  1  0  0  0  0
M  END
>  <minimizedAffinity>
-5.28654385

$$$$
