
 OpenBabel03252509033D

 46 48  0  0  1  0  0  0  0  0999 V2000
   47.1830   34.0280   42.9880 N   0  0  0  0  0  0  0  0  0  0  0  0
   46.7460   35.2620   42.4470 C   0  0  0  0  0  0  0  0  0  0  0  0
   45.2890   35.5690   42.6760 C   0  0  0  0  0  0  0  0  0  0  0  0
   44.7320   35.0460   43.9800 C   0  0  0  0  0  0  0  0  0  0  0  0
   45.8120   34.3980   44.8160 C   0  0  0  0  0  0  0  0  0  0  0  0
   46.3940   33.2990   43.8560 C   0  0  2  0  0  0  0  0  0  0  0  0
   47.2990   36.0740   42.9990 H   0  0  0  0  0  0  0  0  0  0  0  0
   46.9570   35.4360   41.3900 H   0  0  0  0  0  0  0  0  0  0  0  0
   45.1210   36.6640   42.5640 H   0  0  0  0  0  0  0  0  0  0  0  0
   44.7340   35.0900   41.8330 H   0  0  0  0  0  0  0  0  0  0  0  0
   44.3160   35.9270   44.5460 H   0  0  0  0  0  0  0  0  0  0  0  0
   43.9150   34.3410   43.8350 H   0  0  0  0  0  0  0  0  0  0  0  0
   46.6280   35.0800   45.0680 H   0  0  0  0  0  0  0  0  0  0  0  0
   45.3320   33.8870   45.6690 H   0  0  0  0  0  0  0  0  0  0  0  0
   45.4990   32.7820   43.4540 H   0  0  0  0  0  0  0  0  0  0  0  0
   48.1220   33.3200   42.1530 C   0  0  0  0  0  0  0  0  0  0  0  0
   48.9190   34.0010   41.8050 H   0  0  0  0  0  0  0  0  0  0  0  0
   48.6100   32.5650   42.8330 H   0  0  0  0  0  0  0  0  0  0  0  0
   47.3840   32.6160   41.0780 C   0  0  0  0  0  0  0  0  0  0  0  0
   47.3670   31.5280   41.2300 H   0  0  0  0  0  0  0  0  0  0  0  0
   46.2980   32.9150   41.0350 H   0  0  0  0  0  0  0  0  0  0  0  0
   49.3720   32.3320   37.9030 C   0  0  0  0  0  0  0  0  0  0  0  0
   48.8010   32.0340   39.1540 C   0  0  0  0  0  0  0  0  0  0  0  0
   47.9790   32.9420   39.7590 C   0  0  0  0  0  0  0  0  0  0  0  0
   47.7530   34.0960   39.1170 N   0  0  0  0  0  0  0  0  0  0  0  0
   48.2970   34.3830   37.9220 C   0  0  0  0  0  0  0  0  0  0  0  0
   49.1070   33.5140   37.3030 N   0  0  0  0  0  0  0  0  0  0  0  0
   50.0130   31.5250   37.5170 H   0  0  0  0  0  0  0  0  0  0  0  0
   48.9970   31.0920   39.6570 H   0  0  0  0  0  0  0  0  0  0  0  0
   48.1190   35.3220   37.3890 H   0  0  0  0  0  0  0  0  0  0  0  0
   47.1410   32.5370   44.7390 O   0  0  0  0  0  0  0  0  0  0  0  0
   45.3420   30.6580   44.2120 O   0  0  0  0  0  0  0  0  0  0  0  0
   46.3200   31.1600   45.2700 P   0  0  2  0  0  0  0  0  0  0  0  0
   45.3720   31.6430   46.5970 O   0  0  0  0  0  0  0  0  0  0  0  0
   44.6220   32.2150   46.3280 H   0  0  0  0  0  0  0  0  0  0  0  0
   47.3600   29.9540   45.7740 O   0  0  0  0  0  0  0  0  0  0  0  0
   46.7790   28.7180   45.5800 C   0  0  0  0  0  0  0  0  0  0  0  0
   47.5250   28.0320   45.1700 H   0  0  0  0  0  0  0  0  0  0  0  0
   46.0280   28.8580   44.7480 H   0  0  0  0  0  0  0  0  0  0  0  0
   46.0720   28.1790   46.7600 C   0  0  0  0  0  0  0  0  0  0  0  0
   45.9840   26.8420   46.9540 N   0  0  0  0  0  0  0  0  0  0  0  0
   45.2970   26.5850   48.0900 C   0  0  0  0  0  0  0  0  0  0  0  0
   45.1110   25.5590   48.4340 H   0  0  0  0  0  0  0  0  0  0  0  0
   44.9560   27.7930   48.6060 N   0  0  0  0  0  0  0  0  0  0  0  0
   44.4150   27.8920   49.4930 H   0  0  0  0  0  0  0  0  0  0  0  0
   45.4250   28.7180   47.8040 N   0  0  0  0  0  0  0  0  0  0  0  0
  1  6  1  0  0  0  0
  2  3  1  0  0  0  0
  2  1  1  0  0  0  0
  2  7  1  0  0  0  0
  3  4  1  0  0  0  0
  4 11  1  0  0  0  0
  4  5  1  0  0  0  0
  5 13  1  0  0  0  0
  5 14  1  0  0  0  0
  6 15  1  6  0  0  0
  6 31  1  0  0  0  0
  6  5  1  0  0  0  0
  8  2  1  0  0  0  0
  9  3  1  0  0  0  0
 10  3  1  0  0  0  0
 12  4  1  0  0  0  0
 16 18  1  0  0  0  0
 16  1  1  0  0  0  0
 17 16  1  0  0  0  0
 19 20  1  0  0  0  0
 19 16  1  0  0  0  0
 21 19  1  0  0  0  0
 22 23  1  0  0  0  0
 23 29  1  0  0  0  0
 23 24  2  0  0  0  0
 24 19  1  0  0  0  0
 25 24  1  0  0  0  0
 26 25  2  0  0  0  0
 27 22  2  0  0  0  0
 27 26  1  0  0  0  0
 28 22  1  0  0  0  0
 30 26  1  0  0  0  0
 31 33  1  0  0  0  0
 33 32  2  6  0  0  0
 33 36  1  0  0  0  0
 33 34  1  0  0  0  0
 35 34  1  0  0  0  0
 37 36  1  0  0  0  0
 37 40  1  0  0  0  0
 38 37  1  0  0  0  0
 39 37  1  0  0  0  0
 40 41  1  0  0  0  0
 40 46  2  0  0  0  0
 41 42  2  0  0  0  0
 42 43  1  0  0  0  0
 42 44  1  0  0  0  0
 44 45  1  0  0  0  0
 46 44  1  0  0  0  0
M  END
>  <minimizedAffinity>
-4.22749901

>  <minimizedRMSD>
1.11351681

$$$$
