
 OpenBabel03242519173D

 40 43  0  0  1  0  0  0  0  0999 V2000
   48.4260   34.1430   40.9660 C   0  0  0  0  0  0  0  0  0  0  0  0
   47.8680   34.3750   39.7290 C   0  0  0  0  0  0  0  0  0  0  0  0
   48.1490   33.5890   38.6010 C   0  0  0  0  0  0  0  0  0  0  0  0
   49.0250   32.5660   38.8120 N   0  0  0  0  0  0  0  0  0  0  0  0
   49.5630   32.3500   40.0200 C   0  0  0  0  0  0  0  0  0  0  0  0
   49.2690   33.1230   41.0710 N   0  0  0  0  0  0  0  0  0  0  0  0
   47.1810   35.2070   39.6450 H   0  0  0  0  0  0  0  0  0  0  0  0
   47.6920   33.8000   37.6480 H   0  0  0  0  0  0  0  0  0  0  0  0
   50.5060   31.2090   40.2620 C   0  0  2  0  0  0  0  0  0  0  0  0
   51.0260   30.9920   41.6480 C   0  0  0  0  0  0  0  0  0  0  0  0
   51.9240   31.5680   40.5380 C   0  0  1  0  0  0  0  0  0  0  0  0
   50.3480   30.3820   39.5400 H   0  0  0  0  0  0  0  0  0  0  0  0
   50.6580   31.7010   42.4240 H   0  0  0  0  0  0  0  0  0  0  0  0
   51.1680   29.9510   41.9650 H   0  0  0  0  0  0  0  0  0  0  0  0
   52.2170   32.6170   40.7020 H   0  0  0  0  0  0  0  0  0  0  0  0
   53.0150   30.6320   40.1540 C   0  0  0  0  0  0  0  0  0  0  0  0
   53.1570   29.9600   39.0110 N   0  0  0  0  0  0  0  0  0  0  0  0
   54.2900   29.2010   39.0310 C   0  0  0  0  0  0  0  0  0  0  0  0
   54.4600   28.6290   38.1280 H   0  0  0  0  0  0  0  0  0  0  0  0
   54.8450   29.4350   40.2400 N   0  0  0  0  0  0  0  0  0  0  0  0
   55.7400   28.9260   40.4340 H   0  0  0  0  0  0  0  0  0  0  0  0
   54.0780   30.2910   40.9040 N   0  0  0  0  0  0  0  0  0  0  0  0
   48.1110   34.9600   42.1100 C   0  0  0  0  0  0  0  0  0  0  0  0
   48.3420   36.0330   41.8440 H   0  0  0  0  0  0  0  0  0  0  0  0
   48.7530   34.7480   42.9880 H   0  0  0  0  0  0  0  0  0  0  0  0
   46.6740   34.8980   42.4360 C   0  0  0  0  0  0  0  0  0  0  0  0
   46.1170   34.2530   41.6990 H   0  0  0  0  0  0  0  0  0  0  0  0
   46.1360   35.8790   42.3860 H   0  0  0  0  0  0  0  0  0  0  0  0
   44.6890   36.3340   44.1230 Cl  0  0  0  0  0  0  0  0  0  0  0  0
   45.4930   34.8760   44.6450 C   0  0  0  0  0  0  0  0  0  0  0  0
   46.3890   34.3040   43.7800 C   0  0  0  0  0  0  0  0  0  0  0  0
   47.0260   33.1530   44.1890 C   0  0  0  0  0  0  0  0  0  0  0  0
   46.7710   32.5960   45.4250 C   0  0  0  0  0  0  0  0  0  0  0  0
   45.8530   33.1940   46.2940 C   0  0  0  0  0  0  0  0  0  0  0  0
   45.2170   34.3520   45.8720 C   0  0  0  0  0  0  0  0  0  0  0  0
   47.7460   32.6500   43.5550 H   0  0  0  0  0  0  0  0  0  0  0  0
   47.2220   31.7130   45.8050 H   0  0  0  0  0  0  0  0  0  0  0  0
   45.6360   32.7770   47.2670 H   0  0  0  0  0  0  0  0  0  0  0  0
   44.2830   35.0230   46.6720 O   0  0  0  0  0  0  0  0  0  0  0  0
   43.4700   34.5040   46.9870 H   0  0  0  0  0  0  0  0  0  0  0  0
  1  6  1  0  0  0  0
  1 23  1  0  0  0  0
  2  1  2  0  0  0  0
  3  4  2  0  0  0  0
  3  2  1  0  0  0  0
  4  5  1  0  0  0  0
  5  9  1  0  0  0  0
  5  6  2  0  0  0  0
  7  2  1  0  0  0  0
  8  3  1  0  0  0  0
  9 12  1  6  0  0  0
  9 11  1  0  0  0  0
  9 10  1  0  0  0  0
 10 14  1  0  0  0  0
 10 13  1  0  0  0  0
 11 15  1  1  0  0  0
 11 10  1  0  0  0  0
 16 11  1  0  0  0  0
 16 22  2  0  0  0  0
 17 18  2  0  0  0  0
 17 16  1  0  0  0  0
 18 20  1  0  0  0  0
 19 18  1  0  0  0  0
 20 21  1  0  0  0  0
 20 22  1  0  0  0  0
 23 26  1  0  0  0  0
 23 25  1  0  0  0  0
 24 23  1  0  0  0  0
 26 31  1  0  0  0  0
 27 26  1  0  0  0  0
 28 26  1  0  0  0  0
 29 30  1  0  0  0  0
 30 35  1  0  0  0  0
 31 32  1  0  0  0  0
 31 30  2  0  0  0  0
 32 33  2  0  0  0  0
 33 37  1  0  0  0  0
 33 34  1  0  0  0  0
 34 38  1  0  0  0  0
 35 34  2  0  0  0  0
 35 39  1  0  0  0  0
 36 32  1  0  0  0  0
 39 40  1  0  0  0  0
M  END
>  <minimizedAffinity>
-5.70741701

>  <minimizedRMSD>
0.272381902

$$$$
