
 OpenBabel03252506553D

 36 40  0  0  0  0  0  0  0  0999 V2000
   47.2430   31.3230   45.1490 C   0  0  0  0  0  0  0  0  0  0  0  0
   46.9010   32.6570   45.1110 C   0  0  0  0  0  0  0  0  0  0  0  0
   46.3030   33.3040   46.1690 C   0  0  0  0  0  0  0  0  0  0  0  0
   46.0140   32.6130   47.3500 C   0  0  0  0  0  0  0  0  0  0  0  0
   45.4520   32.9140   48.5480 N   0  0  0  0  0  0  0  0  0  0  0  0
   45.4480   31.7860   49.3100 C   0  0  0  0  0  0  0  0  0  0  0  0
   46.0090   30.8090   48.5630 N   0  0  0  0  0  0  0  0  0  0  0  0
   46.3660   31.2810   47.3590 C   0  0  0  0  0  0  0  0  0  0  0  0
   46.9560   30.6190   46.3330 C   0  0  0  0  0  0  0  0  0  0  0  0
   47.7120   30.8170   44.3180 H   0  0  0  0  0  0  0  0  0  0  0  0
   46.0190   34.3570   46.1750 H   0  0  0  0  0  0  0  0  0  0  0  0
   45.1110   33.8960   48.7410 H   0  0  0  0  0  0  0  0  0  0  0  0
   45.0520   31.7590   50.3120 H   0  0  0  0  0  0  0  0  0  0  0  0
   46.5910   35.1320   42.4050 C   0  0  0  0  0  0  0  0  0  0  0  0
   47.7250   34.8790   41.6330 C   0  0  0  0  0  0  0  0  0  0  0  0
   48.5950   33.8560   42.0450 C   0  0  0  0  0  0  0  0  0  0  0  0
   48.2920   33.1540   43.1840 N   0  0  0  0  0  0  0  0  0  0  0  0
   47.1770   33.4340   43.9060 C   0  0  0  0  0  0  0  0  0  0  0  0
   46.3470   34.4070   43.5170 N   0  0  0  0  0  0  0  0  0  0  0  0
   45.9370   35.9270   42.0630 H   0  0  0  0  0  0  0  0  0  0  0  0
   48.0070   35.4040   40.7290 H   0  0  0  0  0  0  0  0  0  0  0  0
   49.4830   33.5810   41.5340 H   0  0  0  0  0  0  0  0  0  0  0  0
   47.2940   29.1910   46.4430 C   0  0  0  0  0  0  0  0  0  0  0  0
   48.5750   28.6790   46.3510 C   0  0  0  0  0  0  0  0  0  0  0  0
   48.3980   27.3000   46.5140 C   0  0  0  0  0  0  0  0  0  0  0  0
   47.0370   27.0550   46.6960 C   0  0  0  0  0  0  0  0  0  0  0  0
   46.4160   28.2320   46.6440 O   0  0  0  0  0  0  0  0  0  0  0  0
   49.4900   29.2110   46.1900 H   0  0  0  0  0  0  0  0  0  0  0  0
   49.1690   26.5420   46.5050 H   0  0  0  0  0  0  0  0  0  0  0  0
   46.4740   25.7260   46.8990 C   0  0  0  0  0  0  0  0  0  0  0  0
   45.3120   25.0770   46.6710 N   0  0  0  0  0  0  0  0  0  0  0  0
   45.4270   23.8070   47.1050 C   0  0  0  0  0  0  0  0  0  0  0  0
   44.6810   23.0370   47.0680 H   0  0  0  0  0  0  0  0  0  0  0  0
   46.6770   23.6600   47.6130 N   0  0  0  0  0  0  0  0  0  0  0  0
   47.0860   22.7780   48.0370 H   0  0  0  0  0  0  0  0  0  0  0  0
   47.2890   24.8230   47.4790 N   0  0  0  0  0  0  0  0  0  0  0  0
  1  9  1  0  0  0  0
  2  1  2  0  0  0  0
  2  3  1  0  0  0  0
  3 11  1  0  0  0  0
  3  4  2  0  0  0  0
  4  8  1  0  0  0  0
  4  5  1  0  0  0  0
  5 12  1  0  0  0  0
  5  6  1  0  0  0  0
  6 13  1  0  0  0  0
  7  6  2  0  0  0  0
  8  7  1  0  0  0  0
  9 23  1  0  0  0  0
  9  8  2  0  0  0  0
 10  1  1  0  0  0  0
 14 19  1  0  0  0  0
 15 16  1  0  0  0  0
 15 14  2  0  0  0  0
 16 17  2  0  0  0  0
 17 18  1  0  0  0  0
 18  2  1  0  0  0  0
 19 18  2  0  0  0  0
 20 14  1  0  0  0  0
 21 15  1  0  0  0  0
 22 16  1  0  0  0  0
 23 27  1  0  0  0  0
 24 23  2  0  0  0  0
 24 25  1  0  0  0  0
 25 26  2  0  0  0  0
 26 30  1  0  0  0  0
 27 26  1  0  0  0  0
 28 24  1  0  0  0  0
 29 25  1  0  0  0  0
 30 36  2  0  0  0  0
 31 30  1  0  0  0  0
 31 32  2  0  0  0  0
 32 34  1  0  0  0  0
 33 32  1  0  0  0  0
 34 35  1  0  0  0  0
 36 34  1  0  0  0  0
M  END
>  <minimizedAffinity>
-5.36523247

>  <minimizedRMSD>
0.388269752

$$$$
