
 OpenBabel03242510293D

 32 34  0  0  1  0  0  0  0  0999 V2000
   45.7260   33.9470   41.3950 C   0  0  1  0  0  0  0  0  0  0  0  0
   46.4500   33.9240   40.0730 C   0  0  0  0  0  0  0  0  0  0  0  0
   47.9180   33.7070   40.4230 C   0  0  0  0  0  0  0  0  0  0  0  0
   48.4040   34.9740   41.0940 C   0  0  0  0  0  0  0  0  0  0  0  0
   47.6000   35.3550   42.2880 C   0  0  0  0  0  0  0  0  0  0  0  0
   46.1300   35.1790   42.1770 C   0  0  2  0  0  0  0  0  0  0  0  0
   46.0380   33.0490   41.9600 H   0  0  0  0  0  0  0  0  0  0  0  0
   46.0820   33.1480   39.4010 H   0  0  0  0  0  0  0  0  0  0  0  0
   46.4290   34.9250   39.5700 H   0  0  0  0  0  0  0  0  0  0  0  0
   48.4460   33.6260   39.4640 H   0  0  0  0  0  0  0  0  0  0  0  0
   48.0350   32.8420   41.0760 H   0  0  0  0  0  0  0  0  0  0  0  0
   48.4760   35.7580   40.3050 H   0  0  0  0  0  0  0  0  0  0  0  0
   49.4520   34.7810   41.4210 H   0  0  0  0  0  0  0  0  0  0  0  0
   47.9540   34.7610   43.1650 H   0  0  0  0  0  0  0  0  0  0  0  0
   47.7980   36.4210   42.5260 H   0  0  0  0  0  0  0  0  0  0  0  0
   45.7350   36.0530   41.6110 H   0  0  0  0  0  0  0  0  0  0  0  0
   42.1470   34.9150   40.5850 C   0  0  0  0  0  0  0  0  0  0  0  0
   43.5320   35.0280   40.6880 C   0  0  0  0  0  0  0  0  0  0  0  0
   44.2620   33.9510   41.2290 C   0  0  0  0  0  0  0  0  0  0  0  0
   43.5360   32.8660   41.6160 N   0  0  0  0  0  0  0  0  0  0  0  0
   42.2050   32.7770   41.5090 C   0  0  0  0  0  0  0  0  0  0  0  0
   41.4960   33.7930   40.9950 N   0  0  0  0  0  0  0  0  0  0  0  0
   41.5890   35.7350   40.1710 H   0  0  0  0  0  0  0  0  0  0  0  0
   44.0840   35.8910   40.3770 H   0  0  0  0  0  0  0  0  0  0  0  0
   41.6980   31.8770   41.8390 H   0  0  0  0  0  0  0  0  0  0  0  0
   45.5180   35.1300   43.5080 C   0  0  0  0  0  0  0  0  0  0  0  0
   45.8820   34.1860   44.3960 N   0  0  0  0  0  0  0  0  0  0  0  0
   45.1680   34.3640   45.5410 C   0  0  0  0  0  0  0  0  0  0  0  0
   45.1820   33.8010   46.4850 H   0  0  0  0  0  0  0  0  0  0  0  0
   44.3880   35.4250   45.3000 N   0  0  0  0  0  0  0  0  0  0  0  0
   43.6940   35.8850   45.9130 H   0  0  0  0  0  0  0  0  0  0  0  0
   44.5890   35.9040   44.0620 N   0  0  0  0  0  0  0  0  0  0  0  0
  1  7  1  1  0  0  0
  1  6  1  0  0  0  0
  2  3  1  0  0  0  0
  2  1  1  0  0  0  0
  3 11  1  0  0  0  0
  3  4  1  0  0  0  0
  4 13  1  0  0  0  0
  4  5  1  0  0  0  0
  5 15  1  0  0  0  0
  5 14  1  0  0  0  0
  6 16  1  6  0  0  0
  6  5  1  0  0  0  0
  6 26  1  0  0  0  0
  8  2  1  0  0  0  0
  9  2  1  0  0  0  0
 10  3  1  0  0  0  0
 12  4  1  0  0  0  0
 17 18  2  0  0  0  0
 17 22  1  0  0  0  0
 18 19  1  0  0  0  0
 19  1  1  0  0  0  0
 19 20  2  0  0  0  0
 21 20  1  0  0  0  0
 21 25  1  0  0  0  0
 22 21  2  0  0  0  0
 23 17  1  0  0  0  0
 24 18  1  0  0  0  0
 26 32  2  0  0  0  0
 26 27  1  0  0  0  0
 27 28  2  0  0  0  0
 28 29  1  0  0  0  0
 30 28  1  0  0  0  0
 30 31  1  0  0  0  0
 32 30  1  0  0  0  0
M  END
>  <minimizedAffinity>
-5.40871668

>  <minimizedRMSD>
3.75295806

$$$$
