
 OpenBabel03252509123D

 30 33  0  0  0  0  0  0  0  0999 V2000
   48.7690   34.0560   41.9850 C   0  0  0  0  0  0  0  0  0  0  0  0
   49.0790   32.6970   41.9760 C   0  0  0  0  0  0  0  0  0  0  0  0
   48.5160   31.8000   42.8420 C   0  0  0  0  0  0  0  0  0  0  0  0
   47.5830   32.2570   43.7870 C   0  0  0  0  0  0  0  0  0  0  0  0
   46.8450   31.6700   44.7690 N   0  0  0  0  0  0  0  0  0  0  0  0
   46.1000   32.6150   45.3750 C   0  0  0  0  0  0  0  0  0  0  0  0
   46.3920   33.7820   44.7510 N   0  0  0  0  0  0  0  0  0  0  0  0
   47.2920   33.5900   43.7810 C   0  0  0  0  0  0  0  0  0  0  0  0
   47.8410   34.5160   42.9220 C   0  0  0  0  0  0  0  0  0  0  0  0
   49.2000   34.7810   41.3110 H   0  0  0  0  0  0  0  0  0  0  0  0
   46.9060   30.6400   44.9620 H   0  0  0  0  0  0  0  0  0  0  0  0
   45.4510   32.3140   46.1850 H   0  0  0  0  0  0  0  0  0  0  0  0
   47.5830   35.5540   42.9540 H   0  0  0  0  0  0  0  0  0  0  0  0
   52.2370   31.5940   40.4500 C   0  0  0  0  0  0  0  0  0  0  0  0
   51.8570   31.2840   39.1470 C   0  0  0  0  0  0  0  0  0  0  0  0
   50.5170   31.4550   38.8010 C   0  0  0  0  0  0  0  0  0  0  0  0
   49.6360   31.9160   39.7430 N   0  0  0  0  0  0  0  0  0  0  0  0
   50.0440   32.2070   40.9970 C   0  0  0  0  0  0  0  0  0  0  0  0
   51.3370   32.0480   41.3510 N   0  0  0  0  0  0  0  0  0  0  0  0
   53.2680   31.4750   40.7580 H   0  0  0  0  0  0  0  0  0  0  0  0
   52.5580   30.9250   38.4250 H   0  0  0  0  0  0  0  0  0  0  0  0
   50.1650   31.2320   37.8090 H   0  0  0  0  0  0  0  0  0  0  0  0
   48.9130   30.0670   42.8220 S   0  0  0  0  0  0  0  0  0  0  0  0
   50.1230   29.6180   44.0470 C   0  0  0  0  0  0  0  0  0  0  0  0
   49.8450   29.1550   45.3010 N   0  0  0  0  0  0  0  0  0  0  0  0
   51.0240   28.9230   45.9240 C   0  0  0  0  0  0  0  0  0  0  0  0
   51.0330   28.5480   46.9370 H   0  0  0  0  0  0  0  0  0  0  0  0
   52.0390   29.2360   45.0760 N   0  0  0  0  0  0  0  0  0  0  0  0
   53.0530   29.1440   45.3190 H   0  0  0  0  0  0  0  0  0  0  0  0
   51.4700   29.6420   43.9760 N   0  0  0  0  0  0  0  0  0  0  0  0
  1  9  1  0  0  0  0
  2  1  2  0  0  0  0
  2  3  1  0  0  0  0
  3  4  2  0  0  0  0
  4  5  1  0  0  0  0
  5 11  1  0  0  0  0
  5  6  1  0  0  0  0
  6 12  1  0  0  0  0
  7  6  2  0  0  0  0
  8  4  1  0  0  0  0
  8  7  1  0  0  0  0
  9 13  1  0  0  0  0
  9  8  2  0  0  0  0
 10  1  1  0  0  0  0
 14 20  1  0  0  0  0
 14 19  1  0  0  0  0
 15 14  2  0  0  0  0
 16 15  1  0  0  0  0
 16 17  2  0  0  0  0
 17 18  1  0  0  0  0
 18 19  2  0  0  0  0
 18  2  1  0  0  0  0
 21 15  1  0  0  0  0
 22 16  1  0  0  0  0
 23  3  1  0  0  0  0
 23 24  1  0  0  0  0
 24 25  1  0  0  0  0
 25 26  2  0  0  0  0
 26 27  1  0  0  0  0
 28 29  1  0  0  0  0
 28 26  1  0  0  0  0
 30 24  2  0  0  0  0
 30 28  1  0  0  0  0
M  END
>  <minimizedAffinity>
-3.74135423

>  <minimizedRMSD>
6.42198467

$$$$
