
 OpenBabel03252505093D

 41 44  0  0  1  0  0  0  0  0999 V2000
   35.7390   24.1750   38.9370 C   0  0  0  0  0  0  0  0  0  0  0  0
   35.8590   25.3700   38.1840 C   0  0  0  0  0  0  0  0  0  0  0  0
   36.4660   26.4820   38.8270 C   0  0  0  0  0  0  0  0  0  0  0  0
   36.8990   26.3590   40.1120 N   0  0  0  0  0  0  0  0  0  0  0  0
   36.7610   25.2010   40.7850 C   0  0  0  0  0  0  0  0  0  0  0  0
   36.1820   24.1030   40.2020 N   0  0  0  0  0  0  0  0  0  0  0  0
   35.2780   23.3260   38.4540 H   0  0  0  0  0  0  0  0  0  0  0  0
   35.5040   25.4340   37.1630 H   0  0  0  0  0  0  0  0  0  0  0  0
   37.2470   25.1200   42.1890 C   0  0  2  0  0  0  0  0  0  0  0  0
   37.3150   26.5410   42.6750 C   0  0  0  0  0  0  0  0  0  0  0  0
   38.6600   27.1360   42.7720 C   0  0  0  0  0  0  0  0  0  0  0  0
   39.4500   26.1800   43.6730 C   0  0  0  0  0  0  0  0  0  0  0  0
   39.6430   24.8700   43.0490 C   0  0  0  0  0  0  0  0  0  0  0  0
   38.4730   24.3610   42.2880 C   0  0  0  0  0  0  0  0  0  0  0  0
   36.4370   24.5840   42.7380 H   0  0  0  0  0  0  0  0  0  0  0  0
   36.8590   26.5750   43.6890 H   0  0  0  0  0  0  0  0  0  0  0  0
   36.6790   27.2320   42.0700 H   0  0  0  0  0  0  0  0  0  0  0  0
   38.5800   28.0820   43.3280 H   0  0  0  0  0  0  0  0  0  0  0  0
   39.1220   27.2540   41.7930 H   0  0  0  0  0  0  0  0  0  0  0  0
   40.4450   26.6310   43.7440 H   0  0  0  0  0  0  0  0  0  0  0  0
   38.9930   26.1540   44.6590 H   0  0  0  0  0  0  0  0  0  0  0  0
   40.4940   24.2030   43.0420 H   0  0  0  0  0  0  0  0  0  0  0  0
   38.5350   23.0980   41.6330 N   0  0  0  0  0  0  0  0  0  0  0  0
   37.8100   22.4230   42.0050 H   0  0  0  0  0  0  0  0  0  0  0  0
   39.2550   22.9660   40.8850 H   0  0  0  0  0  0  0  0  0  0  0  0
   36.6110   27.7220   38.0830 C   0  0  0  0  0  0  0  0  0  0  0  0
   36.6320   27.6660   36.7270 C   0  0  0  0  0  0  0  0  0  0  0  0
   36.7730   28.8840   36.0460 C   0  0  0  0  0  0  0  0  0  0  0  0
   36.8760   30.0190   36.8230 C   0  0  0  0  0  0  0  0  0  0  0  0
   36.8530   30.0780   38.1850 C   0  0  0  0  0  0  0  0  0  0  0  0
   36.7150   28.8620   38.7930 N   0  0  0  0  0  0  0  0  0  0  0  0
   36.5500   26.7590   36.1540 H   0  0  0  0  0  0  0  0  0  0  0  0
   36.7980   28.9080   34.9760 H   0  0  0  0  0  0  0  0  0  0  0  0
   36.9820   30.9320   36.2550 H   0  0  0  0  0  0  0  0  0  0  0  0
   36.9650   31.2920   38.9570 C   0  0  0  0  0  0  0  0  0  0  0  0
   37.3320   32.4740   38.3950 N   0  0  0  0  0  0  0  0  0  0  0  0
   37.3350   33.3870   39.3820 C   0  0  0  0  0  0  0  0  0  0  0  0
   37.5610   34.4350   39.3900 H   0  0  0  0  0  0  0  0  0  0  0  0
   36.9770   32.7810   40.5290 N   0  0  0  0  0  0  0  0  0  0  0  0
   36.8690   33.1720   41.5100 H   0  0  0  0  0  0  0  0  0  0  0  0
   36.7540   31.5050   40.2590 N   0  0  0  0  0  0  0  0  0  0  0  0
  1  6  1  0  0  0  0
  2  3  1  0  0  0  0
  2  1  2  0  0  0  0
  3  4  2  0  0  0  0
  4  5  1  0  0  0  0
  5  9  1  0  0  0  0
  6  5  2  0  0  0  0
  7  1  1  0  0  0  0
  8  2  1  0  0  0  0
  9 14  1  0  0  0  0
  9 10  1  0  0  0  0
  9 15  1  1  0  0  0
 10 11  1  0  0  0  0
 10 16  1  0  0  0  0
 11 18  1  0  0  0  0
 11 12  1  0  0  0  0
 12 20  1  0  0  0  0
 12 21  1  0  0  0  0
 13 12  1  0  0  0  0
 14 13  2  0  0  0  0
 17 10  1  0  0  0  0
 19 11  1  0  0  0  0
 22 13  1  0  0  0  0
 23 24  1  0  0  0  0
 23 14  1  0  0  0  0
 25 23  1  0  0  0  0
 26 31  1  0  0  0  0
 26  3  1  0  0  0  0
 27 26  2  0  0  0  0
 28 27  1  0  0  0  0
 28 29  2  0  0  0  0
 29 30  1  0  0  0  0
 30 31  2  0  0  0  0
 30 35  1  0  0  0  0
 32 27  1  0  0  0  0
 33 28  1  0  0  0  0
 34 29  1  0  0  0  0
 35 41  2  0  0  0  0
 36 35  1  0  0  0  0
 36 37  2  0  0  0  0
 37 38  1  0  0  0  0
 37 39  1  0  0  0  0
 39 40  1  0  0  0  0
 41 39  1  0  0  0  0
M  END
>  <minimizedAffinity>
-6.4590168

$$$$

 OpenBabel03252505093D

 41 44  0  0  1  0  0  0  0  0999 V2000
   38.3340   32.7800   40.2030 C   0  0  0  0  0  0  0  0  0  0  0  0
   37.4790   32.1140   39.2880 C   0  0  0  0  0  0  0  0  0  0  0  0
   37.2050   30.7420   39.5390 C   0  0  0  0  0  0  0  0  0  0  0  0
   37.7620   30.1360   40.6240 N   0  0  0  0  0  0  0  0  0  0  0  0
   38.5680   30.8140   41.4630 C   0  0  0  0  0  0  0  0  0  0  0  0
   38.8580   32.1380   41.2580 N   0  0  0  0  0  0  0  0  0  0  0  0
   38.5460   33.8230   40.0170 H   0  0  0  0  0  0  0  0  0  0  0  0
   37.0530   32.6260   38.4340 H   0  0  0  0  0  0  0  0  0  0  0  0
   39.1540   30.1030   42.6310 C   0  0  2  0  0  0  0  0  0  0  0  0
   40.5340   29.6900   42.2010 C   0  0  0  0  0  0  0  0  0  0  0  0
   40.7190   28.2640   41.8760 C   0  0  0  0  0  0  0  0  0  0  0  0
   40.2550   27.5110   43.1270 C   0  0  0  0  0  0  0  0  0  0  0  0
   38.8210   27.6770   43.3690 C   0  0  0  0  0  0  0  0  0  0  0  0
   38.2940   29.0390   43.0960 C   0  0  0  0  0  0  0  0  0  0  0  0
   39.2360   30.8830   43.4250 H   0  0  0  0  0  0  0  0  0  0  0  0
   41.2360   29.9390   43.0280 H   0  0  0  0  0  0  0  0  0  0  0  0
   40.9110   30.2890   41.3370 H   0  0  0  0  0  0  0  0  0  0  0  0
   41.7970   28.0680   41.7840 H   0  0  0  0  0  0  0  0  0  0  0  0
   40.1560   27.9740   40.9900 H   0  0  0  0  0  0  0  0  0  0  0  0
   40.4000   26.4540   42.8800 H   0  0  0  0  0  0  0  0  0  0  0  0
   40.8940   27.7760   43.9660 H   0  0  0  0  0  0  0  0  0  0  0  0
   38.0700   26.9770   43.7110 H   0  0  0  0  0  0  0  0  0  0  0  0
   36.9130   29.3280   43.2910 N   0  0  0  0  0  0  0  0  0  0  0  0
   36.7660   30.0840   44.0180 H   0  0  0  0  0  0  0  0  0  0  0  0
   36.2140   28.7930   42.7270 H   0  0  0  0  0  0  0  0  0  0  0  0
   36.3300   30.0290   38.6250 C   0  0  0  0  0  0  0  0  0  0  0  0
   35.2870   29.3290   39.1400 C   0  0  0  0  0  0  0  0  0  0  0  0
   34.4660   28.6530   38.2260 C   0  0  0  0  0  0  0  0  0  0  0  0
   34.8000   28.7680   36.8920 C   0  0  0  0  0  0  0  0  0  0  0  0
   35.8460   29.4710   36.3720 C   0  0  0  0  0  0  0  0  0  0  0  0
   36.6100   30.1070   37.3100 N   0  0  0  0  0  0  0  0  0  0  0  0
   35.0580   29.2620   40.1890 H   0  0  0  0  0  0  0  0  0  0  0  0
   33.6270   28.0830   38.5680 H   0  0  0  0  0  0  0  0  0  0  0  0
   34.1390   28.2310   36.2260 H   0  0  0  0  0  0  0  0  0  0  0  0
   36.1580   29.5620   34.9660 C   0  0  0  0  0  0  0  0  0  0  0  0
   36.2450   30.7560   34.3220 N   0  0  0  0  0  0  0  0  0  0  0  0
   36.5460   30.4820   33.0410 C   0  0  0  0  0  0  0  0  0  0  0  0
   36.7070   31.1150   32.1900 H   0  0  0  0  0  0  0  0  0  0  0  0
   36.6440   29.1490   32.8970 N   0  0  0  0  0  0  0  0  0  0  0  0
   36.8650   28.5610   32.0400 H   0  0  0  0  0  0  0  0  0  0  0  0
   36.4050   28.5970   34.0760 N   0  0  0  0  0  0  0  0  0  0  0  0
  1  6  1  0  0  0  0
  2  3  1  0  0  0  0
  2  1  2  0  0  0  0
  3  4  2  0  0  0  0
  4  5  1  0  0  0  0
  5  9  1  0  0  0  0
  6  5  2  0  0  0  0
  7  1  1  0  0  0  0
  8  2  1  0  0  0  0
  9 14  1  0  0  0  0
  9 15  1  1  0  0  0
 10  9  1  0  0  0  0
 10 16  1  0  0  0  0
 11 10  1  0  0  0  0
 11 12  1  0  0  0  0
 12 13  1  0  0  0  0
 12 21  1  0  0  0  0
 13 22  1  0  0  0  0
 14 23  1  0  0  0  0
 14 13  2  0  0  0  0
 17 10  1  0  0  0  0
 18 11  1  0  0  0  0
 19 11  1  0  0  0  0
 20 12  1  0  0  0  0
 23 24  1  0  0  0  0
 25 23  1  0  0  0  0
 26 27  1  0  0  0  0
 26  3  1  0  0  0  0
 27 32  1  0  0  0  0
 28 33  1  0  0  0  0
 28 27  2  0  0  0  0
 29 28  1  0  0  0  0
 30 29  2  0  0  0  0
 30 31  1  0  0  0  0
 31 26  2  0  0  0  0
 34 29  1  0  0  0  0
 35 30  1  0  0  0  0
 36 35  1  0  0  0  0
 37 36  2  0  0  0  0
 38 37  1  0  0  0  0
 39 37  1  0  0  0  0
 39 41  1  0  0  0  0
 40 39  1  0  0  0  0
 41 35  2  0  0  0  0
M  END
>  <minimizedAffinity>
-6.42364073

$$$$

 OpenBabel03252505093D

 41 44  0  0  1  0  0  0  0  0999 V2000
   33.1300   27.0010   36.3090 C   0  0  0  0  0  0  0  0  0  0  0  0
   34.1790   27.4840   37.1310 C   0  0  0  0  0  0  0  0  0  0  0  0
   33.9730   28.7350   37.7750 C   0  0  0  0  0  0  0  0  0  0  0  0
   32.8030   29.4040   37.5790 N   0  0  0  0  0  0  0  0  0  0  0  0
   31.8380   28.9010   36.7870 C   0  0  0  0  0  0  0  0  0  0  0  0
   31.9950   27.6990   36.1490 N   0  0  0  0  0  0  0  0  0  0  0  0
   33.2800   26.0510   35.8170 H   0  0  0  0  0  0  0  0  0  0  0  0
   35.0970   26.9270   37.2650 H   0  0  0  0  0  0  0  0  0  0  0  0
   30.5800   29.6750   36.6040 C   0  0  2  0  0  0  0  0  0  0  0  0
   30.7430   30.4080   35.3020 C   0  0  0  0  0  0  0  0  0  0  0  0
   31.0280   31.8510   35.3940 C   0  0  0  0  0  0  0  0  0  0  0  0
   29.8850   32.4250   36.2400 C   0  0  0  0  0  0  0  0  0  0  0  0
   29.9170   31.9280   37.6170 C   0  0  0  0  0  0  0  0  0  0  0  0
   30.2840   30.4960   37.7570 C   0  0  0  0  0  0  0  0  0  0  0  0
   29.7850   28.9000   36.4910 H   0  0  0  0  0  0  0  0  0  0  0  0
   29.7990   30.2890   34.7250 H   0  0  0  0  0  0  0  0  0  0  0  0
   31.5210   29.9480   34.6460 H   0  0  0  0  0  0  0  0  0  0  0  0
   30.9150   32.2900   34.3920 H   0  0  0  0  0  0  0  0  0  0  0  0
   32.0030   32.0440   35.8380 H   0  0  0  0  0  0  0  0  0  0  0  0
   30.1010   33.4970   36.3000 H   0  0  0  0  0  0  0  0  0  0  0  0
   28.9410   32.2750   35.7210 H   0  0  0  0  0  0  0  0  0  0  0  0
   29.7220   32.4240   38.5580 H   0  0  0  0  0  0  0  0  0  0  0  0
   30.3520   29.8930   39.0450 N   0  0  0  0  0  0  0  0  0  0  0  0
   29.6660   29.0930   39.1440 H   0  0  0  0  0  0  0  0  0  0  0  0
   31.0380   30.2800   39.7340 H   0  0  0  0  0  0  0  0  0  0  0  0
   35.0250   29.2590   38.6290 C   0  0  0  0  0  0  0  0  0  0  0  0
   34.9170   29.0860   39.9710 C   0  0  0  0  0  0  0  0  0  0  0  0
   35.9510   29.6060   40.7620 C   0  0  0  0  0  0  0  0  0  0  0  0
   36.9780   30.2430   40.0960 C   0  0  0  0  0  0  0  0  0  0  0  0
   37.0900   30.4170   38.7480 C   0  0  0  0  0  0  0  0  0  0  0  0
   36.0530   29.8900   38.0310 N   0  0  0  0  0  0  0  0  0  0  0  0
   34.0980   28.5830   40.4560 H   0  0  0  0  0  0  0  0  0  0  0  0
   35.9250   29.5030   41.8270 H   0  0  0  0  0  0  0  0  0  0  0  0
   37.7520   30.6270   40.7460 H   0  0  0  0  0  0  0  0  0  0  0  0
   38.1850   31.0920   38.0950 C   0  0  0  0  0  0  0  0  0  0  0  0
   39.4580   31.0280   38.5670 N   0  0  0  0  0  0  0  0  0  0  0  0
   40.2180   31.7580   37.7330 C   0  0  0  0  0  0  0  0  0  0  0  0
   41.2670   31.9790   37.7240 H   0  0  0  0  0  0  0  0  0  0  0  0
   39.4310   32.2630   36.7650 N   0  0  0  0  0  0  0  0  0  0  0  0
   39.6680   32.8820   35.9360 H   0  0  0  0  0  0  0  0  0  0  0  0
   38.1940   31.8510   36.9960 N   0  0  0  0  0  0  0  0  0  0  0  0
  1  2  1  0  0  0  0
  2  8  1  0  0  0  0
  2  3  2  0  0  0  0
  3 26  1  0  0  0  0
  4  3  1  0  0  0  0
  5  4  2  0  0  0  0
  6  1  2  0  0  0  0
  6  5  1  0  0  0  0
  7  1  1  0  0  0  0
  9 15  1  6  0  0  0
  9  5  1  0  0  0  0
  9 14  1  0  0  0  0
 10 11  1  0  0  0  0
 10  9  1  0  0  0  0
 11 19  1  0  0  0  0
 11 12  1  0  0  0  0
 12 20  1  0  0  0  0
 12 13  1  0  0  0  0
 13 14  2  0  0  0  0
 13 22  1  0  0  0  0
 14 23  1  0  0  0  0
 16 10  1  0  0  0  0
 17 10  1  0  0  0  0
 18 11  1  0  0  0  0
 21 12  1  0  0  0  0
 23 24  1  0  0  0  0
 23 25  1  0  0  0  0
 26 27  1  0  0  0  0
 27 32  1  0  0  0  0
 27 28  2  0  0  0  0
 28 33  1  0  0  0  0
 29 34  1  0  0  0  0
 29 28  1  0  0  0  0
 30 29  2  0  0  0  0
 31 26  2  0  0  0  0
 31 30  1  0  0  0  0
 35 36  1  0  0  0  0
 35 30  1  0  0  0  0
 37 36  2  0  0  0  0
 38 37  1  0  0  0  0
 39 41  1  0  0  0  0
 39 37  1  0  0  0  0
 40 39  1  0  0  0  0
 41 35  2  0  0  0  0
M  END
>  <minimizedAffinity>
-6.40584612

$$$$

 OpenBabel03252505093D

 41 44  0  0  1  0  0  0  0  0999 V2000
   36.4860   28.9380   38.0230 C   0  0  0  0  0  0  0  0  0  0  0  0
   36.7670   28.2650   39.2390 C   0  0  0  0  0  0  0  0  0  0  0  0
   37.5910   28.9420   40.1780 C   0  0  0  0  0  0  0  0  0  0  0  0
   38.0660   30.1830   39.8800 N   0  0  0  0  0  0  0  0  0  0  0  0
   37.7690   30.7800   38.7100 C   0  0  0  0  0  0  0  0  0  0  0  0
   36.9780   30.1620   37.7760 N   0  0  0  0  0  0  0  0  0  0  0  0
   35.8600   28.4280   37.3050 H   0  0  0  0  0  0  0  0  0  0  0  0
   36.3740   27.2770   39.4440 H   0  0  0  0  0  0  0  0  0  0  0  0
   38.3180   32.1340   38.4310 C   0  0  2  0  0  0  0  0  0  0  0  0
   39.7060   31.9070   37.8990 C   0  0  0  0  0  0  0  0  0  0  0  0
   40.8170   32.1940   38.8240 C   0  0  0  0  0  0  0  0  0  0  0  0
   40.5990   33.6460   39.2630 C   0  0  0  0  0  0  0  0  0  0  0  0
   39.3770   33.8040   40.0540 C   0  0  0  0  0  0  0  0  0  0  0  0
   38.2200   32.9990   39.5860 C   0  0  0  0  0  0  0  0  0  0  0  0
   37.6740   32.5380   37.6150 H   0  0  0  0  0  0  0  0  0  0  0  0
   39.8370   32.5560   37.0050 H   0  0  0  0  0  0  0  0  0  0  0  0
   39.8480   30.8710   37.5050 H   0  0  0  0  0  0  0  0  0  0  0  0
   41.7550   32.1870   38.2490 H   0  0  0  0  0  0  0  0  0  0  0  0
   40.8290   31.5070   39.6690 H   0  0  0  0  0  0  0  0  0  0  0  0
   41.4300   33.8530   39.9440 H   0  0  0  0  0  0  0  0  0  0  0  0
   40.6700   34.3000   38.3970 H   0  0  0  0  0  0  0  0  0  0  0  0
   39.1670   34.4060   40.9280 H   0  0  0  0  0  0  0  0  0  0  0  0
   36.9740   33.0630   40.2730 N   0  0  0  0  0  0  0  0  0  0  0  0
   36.1960   33.4160   39.6480 H   0  0  0  0  0  0  0  0  0  0  0  0
   36.9500   32.7700   41.2770 H   0  0  0  0  0  0  0  0  0  0  0  0
   37.8970   28.2840   41.4370 C   0  0  0  0  0  0  0  0  0  0  0  0
   36.9930   28.3650   42.4470 C   0  0  0  0  0  0  0  0  0  0  0  0
   37.3250   27.7180   43.6460 C   0  0  0  0  0  0  0  0  0  0  0  0
   38.5390   27.0620   43.6800 C   0  0  0  0  0  0  0  0  0  0  0  0
   39.4480   26.9790   42.6670 C   0  0  0  0  0  0  0  0  0  0  0  0
   39.0700   27.6290   41.5250 N   0  0  0  0  0  0  0  0  0  0  0  0
   36.0550   28.8870   42.3830 H   0  0  0  0  0  0  0  0  0  0  0  0
   36.6550   27.7440   44.4810 H   0  0  0  0  0  0  0  0  0  0  0  0
   38.7510   26.5780   44.6220 H   0  0  0  0  0  0  0  0  0  0  0  0
   40.7080   26.2810   42.7480 C   0  0  0  0  0  0  0  0  0  0  0  0
   41.8990   26.9250   42.6320 N   0  0  0  0  0  0  0  0  0  0  0  0
   42.8580   25.9900   42.7540 C   0  0  0  0  0  0  0  0  0  0  0  0
   43.9280   26.0510   42.7270 H   0  0  0  0  0  0  0  0  0  0  0  0
   42.2710   24.7940   42.9400 N   0  0  0  0  0  0  0  0  0  0  0  0
   42.6960   23.8310   43.0750 H   0  0  0  0  0  0  0  0  0  0  0  0
   40.9600   24.9820   42.9340 N   0  0  0  0  0  0  0  0  0  0  0  0
  1  2  1  0  0  0  0
  2  8  1  0  0  0  0
  2  3  2  0  0  0  0
  3 26  1  0  0  0  0
  4  3  1  0  0  0  0
  5  4  2  0  0  0  0
  6  1  2  0  0  0  0
  6  5  1  0  0  0  0
  7  1  1  0  0  0  0
  9 15  1  6  0  0  0
  9  5  1  0  0  0  0
  9 14  1  0  0  0  0
 10  9  1  0  0  0  0
 10 11  1  0  0  0  0
 11 12  1  0  0  0  0
 11 19  1  0  0  0  0
 12 20  1  0  0  0  0
 12 13  1  0  0  0  0
 13 22  1  0  0  0  0
 14 13  2  0  0  0  0
 14 23  1  0  0  0  0
 16 10  1  0  0  0  0
 17 10  1  0  0  0  0
 18 11  1  0  0  0  0
 21 12  1  0  0  0  0
 23 25  1  0  0  0  0
 24 23  1  0  0  0  0
 26 31  2  0  0  0  0
 26 27  1  0  0  0  0
 27 28  2  0  0  0  0
 28 29  1  0  0  0  0
 28 33  1  0  0  0  0
 29 34  1  0  0  0  0
 30 35  1  0  0  0  0
 30 29  2  0  0  0  0
 31 30  1  0  0  0  0
 32 27  1  0  0  0  0
 35 41  2  0  0  0  0
 36 35  1  0  0  0  0
 36 37  2  0  0  0  0
 37 39  1  0  0  0  0
 38 37  1  0  0  0  0
 39 40  1  0  0  0  0
 41 39  1  0  0  0  0
M  END
>  <minimizedAffinity>
-6.28512812

$$$$

 OpenBabel03252505093D

 41 44  0  0  1  0  0  0  0  0999 V2000
   33.0640   26.8210   36.1420 C   0  0  0  0  0  0  0  0  0  0  0  0
   34.2310   27.3290   36.7660 C   0  0  0  0  0  0  0  0  0  0  0  0
   34.1500   28.6330   37.3260 C   0  0  0  0  0  0  0  0  0  0  0  0
   32.9800   29.3260   37.2420 N   0  0  0  0  0  0  0  0  0  0  0  0
   31.9000   28.7980   36.6370 C   0  0  0  0  0  0  0  0  0  0  0  0
   31.9350   27.5440   36.0840 N   0  0  0  0  0  0  0  0  0  0  0  0
   33.1190   25.8300   35.7140 H   0  0  0  0  0  0  0  0  0  0  0  0
   35.1450   26.7510   36.8160 H   0  0  0  0  0  0  0  0  0  0  0  0
   30.6480   29.6000   36.5680 C   0  0  2  0  0  0  0  0  0  0  0  0
   30.7070   30.3290   35.2540 C   0  0  0  0  0  0  0  0  0  0  0  0
   31.0320   31.7650   35.3160 C   0  0  0  0  0  0  0  0  0  0  0  0
   29.9850   32.3650   36.2620 C   0  0  0  0  0  0  0  0  0  0  0  0
   30.1330   31.8680   37.6310 C   0  0  0  0  0  0  0  0  0  0  0  0
   30.4780   30.4280   37.7410 C   0  0  0  0  0  0  0  0  0  0  0  0
   29.8290   28.8430   36.5300 H   0  0  0  0  0  0  0  0  0  0  0  0
   29.7120   30.2300   34.7670 H   0  0  0  0  0  0  0  0  0  0  0  0
   31.4120   29.8510   34.5310 H   0  0  0  0  0  0  0  0  0  0  0  0
   30.8380   32.2060   34.3280 H   0  0  0  0  0  0  0  0  0  0  0  0
   32.0480   31.9360   35.6680 H   0  0  0  0  0  0  0  0  0  0  0  0
   30.2290   33.4320   36.2990 H   0  0  0  0  0  0  0  0  0  0  0  0
   28.9950   32.2360   35.8330 H   0  0  0  0  0  0  0  0  0  0  0  0
   30.0350   32.3690   38.5850 H   0  0  0  0  0  0  0  0  0  0  0  0
   30.6510   29.8250   39.0190 N   0  0  0  0  0  0  0  0  0  0  0  0
   29.9590   29.0410   39.1830 H   0  0  0  0  0  0  0  0  0  0  0  0
   31.4050   30.1970   39.6410 H   0  0  0  0  0  0  0  0  0  0  0  0
   35.3250   29.1840   37.9790 C   0  0  0  0  0  0  0  0  0  0  0  0
   36.1600   29.9710   37.2540 C   0  0  0  0  0  0  0  0  0  0  0  0
   37.2830   30.4830   37.9190 C   0  0  0  0  0  0  0  0  0  0  0  0
   37.4270   30.1370   39.2460 C   0  0  0  0  0  0  0  0  0  0  0  0
   36.5890   29.3480   39.9780 C   0  0  0  0  0  0  0  0  0  0  0  0
   35.5140   28.8780   39.2760 N   0  0  0  0  0  0  0  0  0  0  0  0
   36.0150   30.2190   36.2170 H   0  0  0  0  0  0  0  0  0  0  0  0
   37.9810   31.1100   37.4030 H   0  0  0  0  0  0  0  0  0  0  0  0
   38.3060   30.5550   39.7170 H   0  0  0  0  0  0  0  0  0  0  0  0
   36.7810   29.0120   41.3680 C   0  0  0  0  0  0  0  0  0  0  0  0
   36.4570   27.7890   41.8660 N   0  0  0  0  0  0  0  0  0  0  0  0
   36.7590   27.8130   43.1760 C   0  0  0  0  0  0  0  0  0  0  0  0
   36.6690   27.0740   43.9470 H   0  0  0  0  0  0  0  0  0  0  0  0
   37.2590   29.0240   43.4790 N   0  0  0  0  0  0  0  0  0  0  0  0
   37.6050   29.4160   44.4040 H   0  0  0  0  0  0  0  0  0  0  0  0
   37.2670   29.7480   42.3710 N   0  0  0  0  0  0  0  0  0  0  0  0
  1  2  1  0  0  0  0
  2  8  1  0  0  0  0
  2  3  2  0  0  0  0
  3 26  1  0  0  0  0
  4  3  1  0  0  0  0
  5  4  2  0  0  0  0
  6  1  2  0  0  0  0
  6  5  1  0  0  0  0
  7  1  1  0  0  0  0
  9 15  1  6  0  0  0
  9  5  1  0  0  0  0
  9 14  1  0  0  0  0
 10 11  1  0  0  0  0
 10  9  1  0  0  0  0
 11 19  1  0  0  0  0
 11 12  1  0  0  0  0
 12 20  1  0  0  0  0
 12 13  1  0  0  0  0
 13 14  2  0  0  0  0
 13 22  1  0  0  0  0
 14 23  1  0  0  0  0
 16 10  1  0  0  0  0
 17 10  1  0  0  0  0
 18 11  1  0  0  0  0
 21 12  1  0  0  0  0
 23 24  1  0  0  0  0
 23 25  1  0  0  0  0
 26 31  1  0  0  0  0
 27 28  1  0  0  0  0
 27 26  2  0  0  0  0
 28 29  2  0  0  0  0
 29 34  1  0  0  0  0
 29 30  1  0  0  0  0
 30 35  1  0  0  0  0
 31 30  2  0  0  0  0
 32 27  1  0  0  0  0
 33 28  1  0  0  0  0
 35 36  1  0  0  0  0
 35 41  2  0  0  0  0
 36 37  2  0  0  0  0
 37 39  1  0  0  0  0
 37 38  1  0  0  0  0
 39 40  1  0  0  0  0
 41 39  1  0  0  0  0
M  END
>  <minimizedAffinity>
-6.27810526

$$$$

 OpenBabel03252505093D

 41 44  0  0  1  0  0  0  0  0999 V2000
   37.3190   32.3380   39.8550 C   0  0  0  0  0  0  0  0  0  0  0  0
   36.9940   31.1720   40.5940 C   0  0  0  0  0  0  0  0  0  0  0  0
   38.0430   30.2430   40.8320 C   0  0  0  0  0  0  0  0  0  0  0  0
   39.2910   30.5040   40.3510 N   0  0  0  0  0  0  0  0  0  0  0  0
   39.5480   31.6270   39.6550 C   0  0  0  0  0  0  0  0  0  0  0  0
   38.5650   32.5500   39.4040 N   0  0  0  0  0  0  0  0  0  0  0  0
   36.5260   33.0480   39.6710 H   0  0  0  0  0  0  0  0  0  0  0  0
   35.9910   30.9950   40.9610 H   0  0  0  0  0  0  0  0  0  0  0  0
   40.9270   31.8620   39.1490 C   0  0  2  0  0  0  0  0  0  0  0  0
   41.6950   32.4200   40.3150 C   0  0  0  0  0  0  0  0  0  0  0  0
   41.9740   33.8670   40.2830 C   0  0  0  0  0  0  0  0  0  0  0  0
   42.6960   34.1000   38.9520 C   0  0  0  0  0  0  0  0  0  0  0  0
   41.8280   33.8410   37.8020 C   0  0  0  0  0  0  0  0  0  0  0  0
   40.9260   32.6700   37.9510 C   0  0  0  0  0  0  0  0  0  0  0  0
   41.3170   30.8450   38.9070 H   0  0  0  0  0  0  0  0  0  0  0  0
   42.6730   31.8910   40.3610 H   0  0  0  0  0  0  0  0  0  0  0  0
   41.2140   32.1860   41.2960 H   0  0  0  0  0  0  0  0  0  0  0  0
   42.7060   34.0950   41.0710 H   0  0  0  0  0  0  0  0  0  0  0  0
   41.0620   34.4570   40.3640 H   0  0  0  0  0  0  0  0  0  0  0  0
   42.9050   35.1750   38.9380 H   0  0  0  0  0  0  0  0  0  0  0  0
   43.6350   33.5500   38.9490 H   0  0  0  0  0  0  0  0  0  0  0  0
   41.7250   34.3560   36.8570 H   0  0  0  0  0  0  0  0  0  0  0  0
   40.0310   32.3140   36.9020 N   0  0  0  0  0  0  0  0  0  0  0  0
   40.2240   31.3420   36.5300 H   0  0  0  0  0  0  0  0  0  0  0  0
   39.3070   33.0120   36.6150 H   0  0  0  0  0  0  0  0  0  0  0  0
   37.7480   29.0380   41.5890 C   0  0  0  0  0  0  0  0  0  0  0  0
   37.4950   29.1540   42.9180 C   0  0  0  0  0  0  0  0  0  0  0  0
   37.2150   27.9690   43.6140 C   0  0  0  0  0  0  0  0  0  0  0  0
   37.2230   26.8030   42.8770 C   0  0  0  0  0  0  0  0  0  0  0  0
   37.4740   26.6840   41.5420 C   0  0  0  0  0  0  0  0  0  0  0  0
   37.7410   27.8710   40.9190 N   0  0  0  0  0  0  0  0  0  0  0  0
   37.4990   30.0840   43.4590 H   0  0  0  0  0  0  0  0  0  0  0  0
   37.0080   27.9920   44.6640 H   0  0  0  0  0  0  0  0  0  0  0  0
   37.0010   25.9160   43.4550 H   0  0  0  0  0  0  0  0  0  0  0  0
   37.4720   25.4390   40.8130 C   0  0  0  0  0  0  0  0  0  0  0  0
   36.5900   24.4420   41.0890 N   0  0  0  0  0  0  0  0  0  0  0  0
   36.8600   23.4400   40.2350 C   0  0  0  0  0  0  0  0  0  0  0  0
   36.4170   22.4720   40.0990 H   0  0  0  0  0  0  0  0  0  0  0  0
   37.8860   23.8100   39.4480 N   0  0  0  0  0  0  0  0  0  0  0  0
   38.3760   23.2900   38.6620 H   0  0  0  0  0  0  0  0  0  0  0  0
   38.2520   25.0300   39.8080 N   0  0  0  0  0  0  0  0  0  0  0  0
  1  2  1  0  0  0  0
  2  3  2  0  0  0  0
  2  8  1  0  0  0  0
  3 26  1  0  0  0  0
  4  3  1  0  0  0  0
  5  4  2  0  0  0  0
  6  5  1  0  0  0  0
  6  1  2  0  0  0  0
  7  1  1  0  0  0  0
  9 15  1  6  0  0  0
  9  5  1  0  0  0  0
  9 10  1  0  0  0  0
 10 16  1  0  0  0  0
 10 17  1  0  0  0  0
 11 10  1  0  0  0  0
 11 19  1  0  0  0  0
 11 18  1  0  0  0  0
 12 11  1  0  0  0  0
 13 14  2  0  0  0  0
 13 12  1  0  0  0  0
 14  9  1  0  0  0  0
 20 12  1  0  0  0  0
 21 12  1  0  0  0  0
 22 13  1  0  0  0  0
 23 14  1  0  0  0  0
 24 23  1  0  0  0  0
 25 23  1  0  0  0  0
 26 27  1  0  0  0  0
 27 32  1  0  0  0  0
 27 28  2  0  0  0  0
 28 33  1  0  0  0  0
 29 34  1  0  0  0  0
 29 28  1  0  0  0  0
 30 29  2  0  0  0  0
 31 30  1  0  0  0  0
 31 26  2  0  0  0  0
 35 36  1  0  0  0  0
 35 30  1  0  0  0  0
 37 36  2  0  0  0  0
 38 37  1  0  0  0  0
 39 41  1  0  0  0  0
 39 37  1  0  0  0  0
 40 39  1  0  0  0  0
 41 35  2  0  0  0  0
M  END
>  <minimizedAffinity>
-6.26104116

$$$$

 OpenBabel03252505093D

 41 44  0  0  1  0  0  0  0  0999 V2000
   36.1340   29.3290   38.0940 C   0  0  0  0  0  0  0  0  0  0  0  0
   36.8520   30.5480   38.1960 C   0  0  0  0  0  0  0  0  0  0  0  0
   37.7440   30.6830   39.2940 C   0  0  0  0  0  0  0  0  0  0  0  0
   37.8710   29.6600   40.1850 N   0  0  0  0  0  0  0  0  0  0  0  0
   37.1650   28.5230   40.0430 C   0  0  0  0  0  0  0  0  0  0  0  0
   36.2940   28.3500   38.9980 N   0  0  0  0  0  0  0  0  0  0  0  0
   35.4540   29.2210   37.2620 H   0  0  0  0  0  0  0  0  0  0  0  0
   36.7280   31.3420   37.4710 H   0  0  0  0  0  0  0  0  0  0  0  0
   37.3360   27.4370   41.0460 C   0  0  2  0  0  0  0  0  0  0  0  0
   36.6470   27.9250   42.2900 C   0  0  0  0  0  0  0  0  0  0  0  0
   37.5200   28.3900   43.3830 C   0  0  0  0  0  0  0  0  0  0  0  0
   38.4580   27.2110   43.6670 C   0  0  0  0  0  0  0  0  0  0  0  0
   39.3500   26.9350   42.5410 C   0  0  0  0  0  0  0  0  0  0  0  0
   38.7250   27.0660   41.2000 C   0  0  0  0  0  0  0  0  0  0  0  0
   36.7690   26.5730   40.6280 H   0  0  0  0  0  0  0  0  0  0  0  0
   36.0310   27.0880   42.6870 H   0  0  0  0  0  0  0  0  0  0  0  0
   35.9040   28.7320   42.0800 H   0  0  0  0  0  0  0  0  0  0  0  0
   36.9060   28.5160   44.2860 H   0  0  0  0  0  0  0  0  0  0  0  0
   38.0660   29.2920   43.1090 H   0  0  0  0  0  0  0  0  0  0  0  0
   39.0990   27.5620   44.4820 H   0  0  0  0  0  0  0  0  0  0  0  0
   37.8740   26.3600   44.0080 H   0  0  0  0  0  0  0  0  0  0  0  0
   40.3940   26.6510   42.5110 H   0  0  0  0  0  0  0  0  0  0  0  0
   39.4890   26.8240   40.0220 N   0  0  0  0  0  0  0  0  0  0  0  0
   39.0940   26.0260   39.4510 H   0  0  0  0  0  0  0  0  0  0  0  0
   40.3250   27.4280   39.8460 H   0  0  0  0  0  0  0  0  0  0  0  0
   38.5010   31.9160   39.4290 C   0  0  0  0  0  0  0  0  0  0  0  0
   37.9760   32.9210   40.1760 C   0  0  0  0  0  0  0  0  0  0  0  0
   38.7360   34.0940   40.2810 C   0  0  0  0  0  0  0  0  0  0  0  0
   39.9430   34.1120   39.6140 C   0  0  0  0  0  0  0  0  0  0  0  0
   40.4730   33.1040   38.8630 C   0  0  0  0  0  0  0  0  0  0  0  0
   39.6880   31.9870   38.7970 N   0  0  0  0  0  0  0  0  0  0  0  0
   37.0290   32.8710   40.6830 H   0  0  0  0  0  0  0  0  0  0  0  0
   38.3780   34.9240   40.8560 H   0  0  0  0  0  0  0  0  0  0  0  0
   40.4930   35.0360   39.7240 H   0  0  0  0  0  0  0  0  0  0  0  0
   41.7430   33.1670   38.1810 C   0  0  0  0  0  0  0  0  0  0  0  0
   42.6170   32.1260   38.1840 N   0  0  0  0  0  0  0  0  0  0  0  0
   43.6840   32.5150   37.4640 C   0  0  0  0  0  0  0  0  0  0  0  0
   44.5990   32.0170   37.2100 H   0  0  0  0  0  0  0  0  0  0  0  0
   43.4730   33.7690   37.0260 N   0  0  0  0  0  0  0  0  0  0  0  0
   44.0840   34.4040   36.4330 H   0  0  0  0  0  0  0  0  0  0  0  0
   42.2870   34.1570   37.4680 N   0  0  0  0  0  0  0  0  0  0  0  0
  1  2  2  0  0  0  0
  1  6  1  0  0  0  0
  2  3  1  0  0  0  0
  3 26  1  0  0  0  0
  3  4  2  0  0  0  0
  5  4  1  0  0  0  0
  5  9  1  0  0  0  0
  6  5  2  0  0  0  0
  7  1  1  0  0  0  0
  8  2  1  0  0  0  0
  9 15  1  6  0  0  0
  9 14  1  0  0  0  0
  9 10  1  0  0  0  0
 10 16  1  0  0  0  0
 10 11  1  0  0  0  0
 11 12  1  0  0  0  0
 11 18  1  0  0  0  0
 12 21  1  0  0  0  0
 12 20  1  0  0  0  0
 13 12  1  0  0  0  0
 14 13  2  0  0  0  0
 17 10  1  0  0  0  0
 19 11  1  0  0  0  0
 22 13  1  0  0  0  0
 23 14  1  0  0  0  0
 24 23  1  0  0  0  0
 25 23  1  0  0  0  0
 26 27  1  0  0  0  0
 27 28  2  0  0  0  0
 27 32  1  0  0  0  0
 28 33  1  0  0  0  0
 29 34  1  0  0  0  0
 29 28  1  0  0  0  0
 30 29  2  0  0  0  0
 31 30  1  0  0  0  0
 31 26  2  0  0  0  0
 35 36  1  0  0  0  0
 35 30  1  0  0  0  0
 37 36  2  0  0  0  0
 38 37  1  0  0  0  0
 39 37  1  0  0  0  0
 39 41  1  0  0  0  0
 40 39  1  0  0  0  0
 41 35  2  0  0  0  0
M  END
>  <minimizedAffinity>
-6.17430496

$$$$

 OpenBabel03252505093D

 41 44  0  0  1  0  0  0  0  0999 V2000
   36.1840   29.4810   37.2660 C   0  0  0  0  0  0  0  0  0  0  0  0
   36.1620   28.5320   38.3190 C   0  0  0  0  0  0  0  0  0  0  0  0
   36.9290   28.8310   39.4780 C   0  0  0  0  0  0  0  0  0  0  0  0
   37.6380   29.9930   39.5290 N   0  0  0  0  0  0  0  0  0  0  0  0
   37.6260   30.8620   38.5010 C   0  0  0  0  0  0  0  0  0  0  0  0
   36.9000   30.6120   37.3650 N   0  0  0  0  0  0  0  0  0  0  0  0
   35.6040   29.2580   36.3830 H   0  0  0  0  0  0  0  0  0  0  0  0
   35.5870   27.6170   38.2460 H   0  0  0  0  0  0  0  0  0  0  0  0
   38.4230   32.1140   38.6060 C   0  0  2  0  0  0  0  0  0  0  0  0
   39.8430   31.7150   38.3180 C   0  0  0  0  0  0  0  0  0  0  0  0
   40.7490   31.6340   39.4780 C   0  0  0  0  0  0  0  0  0  0  0  0
   40.6600   33.0110   40.1440 C   0  0  0  0  0  0  0  0  0  0  0  0
   39.3310   33.2700   40.6990 C   0  0  0  0  0  0  0  0  0  0  0  0
   38.2000   32.7850   39.8660 C   0  0  0  0  0  0  0  0  0  0  0  0
   38.0480   32.7580   37.7750 H   0  0  0  0  0  0  0  0  0  0  0  0
   40.2690   32.4620   37.6120 H   0  0  0  0  0  0  0  0  0  0  0  0
   39.9120   30.7480   37.7630 H   0  0  0  0  0  0  0  0  0  0  0  0
   41.7790   31.5400   39.1060 H   0  0  0  0  0  0  0  0  0  0  0  0
   40.4660   30.8310   40.1580 H   0  0  0  0  0  0  0  0  0  0  0  0
   41.3390   32.9450   41.0010 H   0  0  0  0  0  0  0  0  0  0  0  0
   41.0230   33.7690   39.4540 H   0  0  0  0  0  0  0  0  0  0  0  0
   39.0240   33.7540   41.6160 H   0  0  0  0  0  0  0  0  0  0  0  0
   36.8560   32.9750   40.2980 N   0  0  0  0  0  0  0  0  0  0  0  0
   36.3020   33.5650   39.6160 H   0  0  0  0  0  0  0  0  0  0  0  0
   36.5630   32.5360   41.2010 H   0  0  0  0  0  0  0  0  0  0  0  0
   36.9260   27.8830   40.5790 C   0  0  0  0  0  0  0  0  0  0  0  0
   36.6710   28.3440   41.8300 C   0  0  0  0  0  0  0  0  0  0  0  0
   36.6770   27.3990   42.8660 C   0  0  0  0  0  0  0  0  0  0  0  0
   36.9420   26.0930   42.5090 C   0  0  0  0  0  0  0  0  0  0  0  0
   37.1970   25.6270   41.2530 C   0  0  0  0  0  0  0  0  0  0  0  0
   37.1780   26.5940   40.2870 N   0  0  0  0  0  0  0  0  0  0  0  0
   36.4690   29.3740   42.0700 H   0  0  0  0  0  0  0  0  0  0  0  0
   36.4840   27.6990   43.8750 H   0  0  0  0  0  0  0  0  0  0  0  0
   36.9360   25.4010   43.3390 H   0  0  0  0  0  0  0  0  0  0  0  0
   37.4690   24.2480   40.9270 C   0  0  0  0  0  0  0  0  0  0  0  0
   36.7290   23.5620   40.0160 N   0  0  0  0  0  0  0  0  0  0  0  0
   37.2460   22.3220   39.9550 C   0  0  0  0  0  0  0  0  0  0  0  0
   36.9770   21.4600   39.3760 H   0  0  0  0  0  0  0  0  0  0  0  0
   38.2820   22.2450   40.8090 N   0  0  0  0  0  0  0  0  0  0  0  0
   38.9310   21.4350   41.0340 H   0  0  0  0  0  0  0  0  0  0  0  0
   38.4100   23.4240   41.3970 N   0  0  0  0  0  0  0  0  0  0  0  0
  1  6  2  0  0  0  0
  1  2  1  0  0  0  0
  2  3  2  0  0  0  0
  3  4  1  0  0  0  0
  3 26  1  0  0  0  0
  5  9  1  0  0  0  0
  5  4  2  0  0  0  0
  6  5  1  0  0  0  0
  7  1  1  0  0  0  0
  8  2  1  0  0  0  0
  9 15  1  6  0  0  0
  9 14  1  0  0  0  0
 10  9  1  0  0  0  0
 10 11  1  0  0  0  0
 11 12  1  0  0  0  0
 11 19  1  0  0  0  0
 12 13  1  0  0  0  0
 12 20  1  0  0  0  0
 13 22  1  0  0  0  0
 14 23  1  0  0  0  0
 14 13  2  0  0  0  0
 16 10  1  0  0  0  0
 17 10  1  0  0  0  0
 18 11  1  0  0  0  0
 21 12  1  0  0  0  0
 23 25  1  0  0  0  0
 24 23  1  0  0  0  0
 26 27  1  0  0  0  0
 27 32  1  0  0  0  0
 27 28  2  0  0  0  0
 28 33  1  0  0  0  0
 29 28  1  0  0  0  0
 29 34  1  0  0  0  0
 30 29  2  0  0  0  0
 31 26  2  0  0  0  0
 31 30  1  0  0  0  0
 35 30  1  0  0  0  0
 35 41  2  0  0  0  0
 36 35  1  0  0  0  0
 37 36  2  0  0  0  0
 37 39  1  0  0  0  0
 38 37  1  0  0  0  0
 39 40  1  0  0  0  0
 39 41  1  0  0  0  0
M  END
>  <minimizedAffinity>
-6.09440565

$$$$

 OpenBabel03252505093D

 41 44  0  0  1  0  0  0  0  0999 V2000
   36.0880   25.5250   38.1330 C   0  0  0  0  0  0  0  0  0  0  0  0
   36.6890   25.6430   39.4110 C   0  0  0  0  0  0  0  0  0  0  0  0
   36.6860   26.9310   40.0120 C   0  0  0  0  0  0  0  0  0  0  0  0
   36.1170   27.9770   39.3490 N   0  0  0  0  0  0  0  0  0  0  0  0
   35.5590   27.8120   38.1360 C   0  0  0  0  0  0  0  0  0  0  0  0
   35.5410   26.5870   37.5210 N   0  0  0  0  0  0  0  0  0  0  0  0
   36.0870   24.5480   37.6710 H   0  0  0  0  0  0  0  0  0  0  0  0
   37.1320   24.7910   39.9100 H   0  0  0  0  0  0  0  0  0  0  0  0
   34.9560   28.9880   37.4530 C   0  0  2  0  0  0  0  0  0  0  0  0
   33.4760   28.8820   37.6980 C   0  0  0  0  0  0  0  0  0  0  0  0
   32.6550   28.4310   36.5610 C   0  0  0  0  0  0  0  0  0  0  0  0
   32.9830   29.4070   35.4250 C   0  0  0  0  0  0  0  0  0  0  0  0
   34.3720   29.2860   34.9800 C   0  0  0  0  0  0  0  0  0  0  0  0
   35.3610   29.0680   36.0680 C   0  0  0  0  0  0  0  0  0  0  0  0
   35.3560   29.8710   38.0040 H   0  0  0  0  0  0  0  0  0  0  0  0
   33.1100   29.8890   37.9980 H   0  0  0  0  0  0  0  0  0  0  0  0
   33.2330   28.2340   38.5740 H   0  0  0  0  0  0  0  0  0  0  0  0
   31.5970   28.5990   36.8110 H   0  0  0  0  0  0  0  0  0  0  0  0
   32.8710   27.3990   36.2890 H   0  0  0  0  0  0  0  0  0  0  0  0
   32.3660   29.0690   34.5870 H   0  0  0  0  0  0  0  0  0  0  0  0
   32.6810   30.4110   35.7140 H   0  0  0  0  0  0  0  0  0  0  0  0
   34.8100   29.3250   33.9920 H   0  0  0  0  0  0  0  0  0  0  0  0
   36.7460   28.9320   35.7640 N   0  0  0  0  0  0  0  0  0  0  0  0
   37.3270   29.6880   36.2230 H   0  0  0  0  0  0  0  0  0  0  0  0
   37.0390   28.1390   35.1480 H   0  0  0  0  0  0  0  0  0  0  0  0
   37.2890   27.0890   41.3240 C   0  0  0  0  0  0  0  0  0  0  0  0
   36.5890   27.7460   42.2840 C   0  0  0  0  0  0  0  0  0  0  0  0
   37.2060   27.8790   43.5370 C   0  0  0  0  0  0  0  0  0  0  0  0
   38.4630   27.3270   43.6690 C   0  0  0  0  0  0  0  0  0  0  0  0
   39.1670   26.6650   42.7070 C   0  0  0  0  0  0  0  0  0  0  0  0
   38.5160   26.5690   41.5080 N   0  0  0  0  0  0  0  0  0  0  0  0
   35.6080   28.1650   42.1430 H   0  0  0  0  0  0  0  0  0  0  0  0
   36.7070   28.3870   44.3360 H   0  0  0  0  0  0  0  0  0  0  0  0
   38.8970   27.4530   44.6510 H   0  0  0  0  0  0  0  0  0  0  0  0
   40.4830   26.1040   42.8910 C   0  0  0  0  0  0  0  0  0  0  0  0
   41.5800   26.8830   43.0900 N   0  0  0  0  0  0  0  0  0  0  0  0
   42.6260   26.0500   43.2230 C   0  0  0  0  0  0  0  0  0  0  0  0
   43.6700   26.2300   43.3920 H   0  0  0  0  0  0  0  0  0  0  0  0
   42.1860   24.7840   43.1090 N   0  0  0  0  0  0  0  0  0  0  0  0
   42.7140   23.8630   43.1570 H   0  0  0  0  0  0  0  0  0  0  0  0
   40.8790   24.8280   42.9060 N   0  0  0  0  0  0  0  0  0  0  0  0
  1  2  1  0  0  0  0
  2  8  1  0  0  0  0
  2  3  2  0  0  0  0
  3 26  1  0  0  0  0
  4  3  1  0  0  0  0
  5  4  2  0  0  0  0
  6  1  2  0  0  0  0
  6  5  1  0  0  0  0
  7  1  1  0  0  0  0
  9 10  1  0  0  0  0
  9 15  1  1  0  0  0
  9  5  1  0  0  0  0
 10 16  1  0  0  0  0
 10 17  1  0  0  0  0
 11 18  1  0  0  0  0
 11 10  1  0  0  0  0
 12 21  1  0  0  0  0
 12 11  1  0  0  0  0
 13 12  1  0  0  0  0
 13 14  2  0  0  0  0
 14  9  1  0  0  0  0
 19 11  1  0  0  0  0
 20 12  1  0  0  0  0
 22 13  1  0  0  0  0
 23 14  1  0  0  0  0
 23 24  1  0  0  0  0
 25 23  1  0  0  0  0
 26 31  2  0  0  0  0
 26 27  1  0  0  0  0
 27 28  2  0  0  0  0
 28 29  1  0  0  0  0
 28 33  1  0  0  0  0
 29 34  1  0  0  0  0
 30 35  1  0  0  0  0
 30 29  2  0  0  0  0
 31 30  1  0  0  0  0
 32 27  1  0  0  0  0
 35 41  2  0  0  0  0
 35 36  1  0  0  0  0
 36 37  2  0  0  0  0
 37 38  1  0  0  0  0
 39 40  1  0  0  0  0
 39 37  1  0  0  0  0
 41 39  1  0  0  0  0
M  END
>  <minimizedAffinity>
-5.84239626

$$$$
