
 OpenBabel03242516283D

 44 48  0  0  0  0  0  0  0  0999 V2000
   49.7980   30.2580   49.5890 C   0  0  0  0  0  0  0  0  0  0  0  0
   50.0140   31.5010   50.1140 N   0  0  0  0  0  0  0  0  0  0  0  0
   50.7340   31.7260   51.2070 C   0  0  0  0  0  0  0  0  0  0  0  0
   51.2730   30.6690   51.8190 N   0  0  0  0  0  0  0  0  0  0  0  0
   51.1120   29.4210   51.3750 C   0  0  0  0  0  0  0  0  0  0  0  0
   51.6780   28.3140   51.9970 C   0  0  0  0  0  0  0  0  0  0  0  0
   51.5090   27.0560   51.5210 C   0  0  0  0  0  0  0  0  0  0  0  0
   50.7660   26.8470   50.4040 C   0  0  0  0  0  0  0  0  0  0  0  0
   50.1700   27.9210   49.7340 C   0  0  0  0  0  0  0  0  0  0  0  0
   50.3510   29.1820   50.2230 C   0  0  0  0  0  0  0  0  0  0  0  0
   50.8590   32.7390   51.5600 H   0  0  0  0  0  0  0  0  0  0  0  0
   52.2540   28.5480   52.8780 H   0  0  0  0  0  0  0  0  0  0  0  0
   51.9790   26.2260   52.0520 H   0  0  0  0  0  0  0  0  0  0  0  0
   50.6660   25.8170   50.0710 H   0  0  0  0  0  0  0  0  0  0  0  0
   49.3530   27.5710   48.5510 C   0  0  0  0  0  0  0  0  0  0  0  0
   48.3120   27.8980   48.5820 H   0  0  0  0  0  0  0  0  0  0  0  0
   49.8870   27.6490   47.5830 H   0  0  0  0  0  0  0  0  0  0  0  0
   49.0940   26.0690   48.5340 C   0  0  0  0  0  0  0  0  0  0  0  0
   49.8260   25.0800   47.9410 N   0  0  0  0  0  0  0  0  0  0  0  0
   49.2600   23.8860   48.1530 C   0  0  0  0  0  0  0  0  0  0  0  0
   49.6810   22.9660   47.7670 H   0  0  0  0  0  0  0  0  0  0  0  0
   48.1580   24.0970   48.8870 N   0  0  0  0  0  0  0  0  0  0  0  0
   47.4950   23.3640   49.2190 H   0  0  0  0  0  0  0  0  0  0  0  0
   48.0680   25.3780   49.1050 N   0  0  0  0  0  0  0  0  0  0  0  0
   48.8960   30.0300   48.1400 S   0  0  0  0  0  0  0  0  0  0  0  0
   46.1140   32.6450   46.9440 C   0  0  0  0  0  0  0  0  0  0  0  0
   47.2450   31.8420   47.0160 C   0  0  0  0  0  0  0  0  0  0  0  0
   47.4410   31.0040   48.0830 C   0  0  0  0  0  0  0  0  0  0  0  0
   46.5180   30.9460   49.1020 C   0  0  0  0  0  0  0  0  0  0  0  0
   45.3940   31.7150   49.0740 C   0  0  0  0  0  0  0  0  0  0  0  0
   45.2160   32.5530   47.9900 C   0  0  0  0  0  0  0  0  0  0  0  0
   47.9430   31.9180   46.1970 H   0  0  0  0  0  0  0  0  0  0  0  0
   46.7070   30.2760   49.9200 H   0  0  0  0  0  0  0  0  0  0  0  0
   44.6730   31.6630   49.8800 H   0  0  0  0  0  0  0  0  0  0  0  0
   44.3350   33.1580   47.9650 H   0  0  0  0  0  0  0  0  0  0  0  0
   44.7260   35.3350   44.9000 C   0  0  0  0  0  0  0  0  0  0  0  0
   45.4750   35.2580   43.7000 C   0  0  0  0  0  0  0  0  0  0  0  0
   46.4580   34.2790   43.5970 C   0  0  0  0  0  0  0  0  0  0  0  0
   46.6800   33.4190   44.6420 N   0  0  0  0  0  0  0  0  0  0  0  0
   45.9190   33.5380   45.7920 C   0  0  0  0  0  0  0  0  0  0  0  0
   44.9540   34.4830   45.9190 N   0  0  0  0  0  0  0  0  0  0  0  0
   43.9500   36.0720   45.0420 H   0  0  0  0  0  0  0  0  0  0  0  0
   45.2680   35.9560   42.9000 H   0  0  0  0  0  0  0  0  0  0  0  0
   47.0530   34.1870   42.6980 H   0  0  0  0  0  0  0  0  0  0  0  0
  1  2  2  0  0  0  0
  1 10  1  0  0  0  0
  2  3  1  0  0  0  0
  3 11  1  0  0  0  0
  3  4  2  0  0  0  0
  5  4  1  0  0  0  0
  5  6  1  0  0  0  0
  6 12  1  0  0  0  0
  7  6  2  0  0  0  0
  7 13  1  0  0  0  0
  8  7  1  0  0  0  0
  9 10  1  0  0  0  0
  9  8  2  0  0  0  0
 10  5  2  0  0  0  0
 14  8  1  0  0  0  0
 15 16  1  0  0  0  0
 15  9  1  0  0  0  0
 17 15  1  0  0  0  0
 18 15  1  0  0  0  0
 18 24  2  0  0  0  0
 19 20  2  0  0  0  0
 19 18  1  0  0  0  0
 20 22  1  0  0  0  0
 21 20  1  0  0  0  0
 22 24  1  0  0  0  0
 22 23  1  0  0  0  0
 25  1  1  0  0  0  0
 26 27  2  0  0  0  0
 26 31  1  0  0  0  0
 27 28  1  0  0  0  0
 28 25  1  0  0  0  0
 28 29  2  0  0  0  0
 29 33  1  0  0  0  0
 30 29  1  0  0  0  0
 30 34  1  0  0  0  0
 31 30  2  0  0  0  0
 32 27  1  0  0  0  0
 35 31  1  0  0  0  0
 36 42  1  0  0  0  0
 36 41  1  0  0  0  0
 37 36  2  0  0  0  0
 38 37  1  0  0  0  0
 38 39  2  0  0  0  0
 39 40  1  0  0  0  0
 40 41  2  0  0  0  0
 40 26  1  0  0  0  0
 43 37  1  0  0  0  0
 44 38  1  0  0  0  0
M  END
>  <minimizedAffinity>
-6.59044838

>  <minimizedRMSD>
0.464130342

$$$$
