
 OpenBabel03242519163D

 40 43  0  0  1  0  0  0  0  0999 V2000
   48.3340   34.2210   40.9280 C   0  0  0  0  0  0  0  0  0  0  0  0
   47.8640   34.3650   39.6420 C   0  0  0  0  0  0  0  0  0  0  0  0
   48.2270   33.5070   38.5920 C   0  0  0  0  0  0  0  0  0  0  0  0
   49.0880   32.5070   38.9330 N   0  0  0  0  0  0  0  0  0  0  0  0
   49.5390   32.3760   40.1880 C   0  0  0  0  0  0  0  0  0  0  0  0
   49.1700   33.2160   41.1610 N   0  0  0  0  0  0  0  0  0  0  0  0
   47.1830   35.1850   39.4540 H   0  0  0  0  0  0  0  0  0  0  0  0
   47.8380   33.6510   37.5970 H   0  0  0  0  0  0  0  0  0  0  0  0
   50.4640   31.2600   40.5730 C   0  0  2  0  0  0  0  0  0  0  0  0
   51.1850   31.3470   41.8820 C   0  0  0  0  0  0  0  0  0  0  0  0
   51.9210   31.5680   40.5480 C   0  0  1  0  0  0  0  0  0  0  0  0
   50.1660   30.2980   40.1110 H   0  0  0  0  0  0  0  0  0  0  0  0
   50.9680   32.2480   42.4990 H   0  0  0  0  0  0  0  0  0  0  0  0
   51.3350   30.4060   42.4250 H   0  0  0  0  0  0  0  0  0  0  0  0
   52.2740   32.6010   40.4010 H   0  0  0  0  0  0  0  0  0  0  0  0
   52.9030   30.4890   40.2600 C   0  0  0  0  0  0  0  0  0  0  0  0
   52.8000   29.4990   39.3730 N   0  0  0  0  0  0  0  0  0  0  0  0
   53.9090   28.7060   39.3990 C   0  0  0  0  0  0  0  0  0  0  0  0
   53.8860   27.8810   38.6990 H   0  0  0  0  0  0  0  0  0  0  0  0
   54.7060   29.2500   40.3450 N   0  0  0  0  0  0  0  0  0  0  0  0
   55.6190   28.7620   40.5050 H   0  0  0  0  0  0  0  0  0  0  0  0
   54.0980   30.3150   40.8540 N   0  0  0  0  0  0  0  0  0  0  0  0
   47.9370   35.1100   41.9900 C   0  0  0  0  0  0  0  0  0  0  0  0
   48.0750   36.1700   41.6230 H   0  0  0  0  0  0  0  0  0  0  0  0
   48.5860   35.0410   42.8850 H   0  0  0  0  0  0  0  0  0  0  0  0
   46.5080   34.9520   42.3180 C   0  0  0  0  0  0  0  0  0  0  0  0
   46.0010   34.2460   41.6010 H   0  0  0  0  0  0  0  0  0  0  0  0
   45.8990   35.8890   42.2380 H   0  0  0  0  0  0  0  0  0  0  0  0
   44.5770   36.4170   44.0440 Cl  0  0  0  0  0  0  0  0  0  0  0  0
   45.3970   34.9670   44.5630 C   0  0  0  0  0  0  0  0  0  0  0  0
   46.2650   34.3810   43.6800 C   0  0  0  0  0  0  0  0  0  0  0  0
   46.9140   33.2350   44.0860 C   0  0  0  0  0  0  0  0  0  0  0  0
   46.6980   32.6980   45.3390 C   0  0  0  0  0  0  0  0  0  0  0  0
   45.8080   33.3110   46.2260 C   0  0  0  0  0  0  0  0  0  0  0  0
   45.1600   34.4630   45.8070 C   0  0  0  0  0  0  0  0  0  0  0  0
   47.6130   32.7210   43.4390 H   0  0  0  0  0  0  0  0  0  0  0  0
   47.1610   31.8210   45.7190 H   0  0  0  0  0  0  0  0  0  0  0  0
   45.6220   32.9100   47.2120 H   0  0  0  0  0  0  0  0  0  0  0  0
   44.2520   35.1480   46.6250 O   0  0  0  0  0  0  0  0  0  0  0  0
   43.4490   34.6350   46.9740 H   0  0  0  0  0  0  0  0  0  0  0  0
  1  6  1  0  0  0  0
  1 23  1  0  0  0  0
  2  1  2  0  0  0  0
  3  4  2  0  0  0  0
  3  2  1  0  0  0  0
  4  5  1  0  0  0  0
  5  9  1  0  0  0  0
  5  6  2  0  0  0  0
  7  2  1  0  0  0  0
  8  3  1  0  0  0  0
  9 12  1  6  0  0  0
  9 10  1  0  0  0  0
 10 14  1  0  0  0  0
 10 13  1  0  0  0  0
 11 15  1  6  0  0  0
 11  9  1  0  0  0  0
 11 10  1  0  0  0  0
 16 11  1  0  0  0  0
 16 22  2  0  0  0  0
 17 18  2  0  0  0  0
 17 16  1  0  0  0  0
 18 20  1  0  0  0  0
 19 18  1  0  0  0  0
 20 21  1  0  0  0  0
 20 22  1  0  0  0  0
 23 26  1  0  0  0  0
 23 25  1  0  0  0  0
 24 23  1  0  0  0  0
 26 31  1  0  0  0  0
 27 26  1  0  0  0  0
 28 26  1  0  0  0  0
 29 30  1  0  0  0  0
 30 35  1  0  0  0  0
 31 32  1  0  0  0  0
 31 30  2  0  0  0  0
 32 33  2  0  0  0  0
 33 37  1  0  0  0  0
 33 34  1  0  0  0  0
 34 38  1  0  0  0  0
 35 34  2  0  0  0  0
 35 39  1  0  0  0  0
 36 32  1  0  0  0  0
 39 40  1  0  0  0  0
M  END
>  <minimizedAffinity>
-5.7239399

>  <minimizedRMSD>
0.16080156

$$$$
