
 OpenBabel03242520123D

 32 34  0  0  0  0  0  0  0  0999 V2000
   46.1390   32.5750   46.9360 C   0  0  0  0  0  0  0  0  0  0  0  0
   45.2130   32.5850   47.9310 C   0  0  0  0  0  0  0  0  0  0  0  0
   45.4100   31.7610   49.0240 C   0  0  0  0  0  0  0  0  0  0  0  0
   46.5270   30.9440   49.1000 C   0  0  0  0  0  0  0  0  0  0  0  0
   47.4570   30.9660   48.0480 C   0  0  0  0  0  0  0  0  0  0  0  0
   47.2330   31.7610   47.0300 N   0  0  0  0  0  0  0  0  0  0  0  0
   44.3540   33.2360   47.8370 H   0  0  0  0  0  0  0  0  0  0  0  0
   44.6910   31.7450   49.8340 H   0  0  0  0  0  0  0  0  0  0  0  0
   46.7010   30.2910   49.9450 H   0  0  0  0  0  0  0  0  0  0  0  0
   44.9240   35.0290   44.5310 C   0  0  0  0  0  0  0  0  0  0  0  0
   45.8900   34.9150   43.5030 C   0  0  0  0  0  0  0  0  0  0  0  0
   46.9520   34.0050   43.6230 C   0  0  0  0  0  0  0  0  0  0  0  0
   46.9470   33.2940   44.7660 N   0  0  0  0  0  0  0  0  0  0  0  0
   46.0440   33.4050   45.7240 C   0  0  0  0  0  0  0  0  0  0  0  0
   45.0430   34.2650   45.6070 N   0  0  0  0  0  0  0  0  0  0  0  0
   43.8680   35.9710   44.3410 N   0  0  0  0  0  0  0  0  0  0  0  0
   45.8330   35.5120   42.6180 H   0  0  0  0  0  0  0  0  0  0  0  0
   47.6900   33.9020   42.8610 H   0  0  0  0  0  0  0  0  0  0  0  0
   43.6500   36.3250   43.3850 H   0  0  0  0  0  0  0  0  0  0  0  0
   43.3420   36.2710   45.2130 H   0  0  0  0  0  0  0  0  0  0  0  0
   48.6430   30.1240   48.0860 C   0  0  0  0  0  3  0  0  0  0  0  0
   49.6810   30.3740   48.8690 C   0  0  0  0  0  3  0  0  0  0  0  0
   49.7220   31.5500   49.7880 C   0  0  0  0  0  0  0  0  0  0  0  0
   49.4810   31.2070   50.8010 H   0  0  0  0  0  0  0  0  0  0  0  0
   49.0660   32.3530   49.4330 H   0  0  0  0  0  0  0  0  0  0  0  0
   51.1360   32.0570   49.7050 C   0  0  0  0  0  0  0  0  0  0  0  0
   52.1650   31.3990   49.1520 N   0  0  0  0  0  0  0  0  0  0  0  0
   53.2480   32.1720   49.2730 C   0  0  0  0  0  0  0  0  0  0  0  0
   54.2340   31.9340   48.9310 H   0  0  0  0  0  0  0  0  0  0  0  0
   52.8660   33.3030   49.9030 N   0  0  0  0  0  0  0  0  0  0  0  0
   53.4330   34.1340   50.1710 H   0  0  0  0  0  0  0  0  0  0  0  0
   51.5610   33.2420   50.1750 N   0  0  0  0  0  0  0  0  0  0  0  0
  1  6  2  0  0  0  0
  1  2  1  0  0  0  0
  2  3  2  0  0  0  0
  3  4  1  0  0  0  0
  3  8  1  0  0  0  0
  4  9  1  0  0  0  0
  5 21  1  0  0  0  0
  5  4  2  0  0  0  0
  6  5  1  0  0  0  0
  7  2  1  0  0  0  0
 10 15  1  0  0  0  0
 11 12  1  0  0  0  0
 11 10  2  0  0  0  0
 12 13  2  0  0  0  0
 13 14  1  0  0  0  0
 14  1  1  0  0  0  0
 15 14  2  0  0  0  0
 16 10  1  0  0  0  0
 16 20  1  0  0  0  0
 17 11  1  0  0  0  0
 18 12  1  0  0  0  0
 19 16  1  0  0  0  0
 21 22  2  0  0  0  0
 22 23  1  0  0  0  0
 23 24  1  0  0  0  0
 25 23  1  0  0  0  0
 26 23  1  0  0  0  0
 26 32  2  0  0  0  0
 27 28  2  0  0  0  0
 27 26  1  0  0  0  0
 28 30  1  0  0  0  0
 29 28  1  0  0  0  0
 30 31  1  0  0  0  0
 30 32  1  0  0  0  0
M  END
>  <minimizedAffinity>
-6.27475786

>  <minimizedRMSD>
0.707600892

$$$$
