
 OpenBabel03252507413D

 23 24  0  0  0  0  0  0  0  0999 V2000
   47.0870   34.5430   41.7590 C   0  0  0  0  0  0  0  0  0  0  0  0
   47.2870   35.5160   41.2660 H   0  0  0  0  0  0  0  0  0  0  0  0
   48.0820   34.1500   42.0440 H   0  0  0  0  0  0  0  0  0  0  0  0
   46.2330   34.8380   42.9250 C   0  0  0  0  0  0  0  0  0  0  0  0
   46.3440   33.9510   43.9890 C   0  0  0  0  0  0  0  0  0  0  0  0
   45.5650   34.1750   45.1200 C   0  0  0  0  0  0  0  0  0  0  0  0
   44.7170   35.2600   45.1420 N   0  0  0  0  0  0  0  0  0  0  0  0
   44.6440   36.0930   44.0850 C   0  0  0  0  0  0  0  0  0  0  0  0
   45.3880   35.8960   42.9810 N   0  0  0  0  0  0  0  0  0  0  0  0
   45.6210   33.5100   45.9680 H   0  0  0  0  0  0  0  0  0  0  0  0
   43.9950   36.9380   44.0820 H   0  0  0  0  0  0  0  0  0  0  0  0
   47.4450   32.5550   43.9410 S   0  0  0  0  0  0  0  0  0  0  0  0
   48.1860   32.5850   45.1540 H   0  0  0  0  0  0  0  0  0  0  0  0
   46.4190   33.6540   40.7400 C   0  0  0  0  0  0  0  0  0  0  0  0
   46.5170   32.5890   41.0760 H   0  0  0  0  0  0  0  0  0  0  0  0
   45.3200   33.8760   40.7760 H   0  0  0  0  0  0  0  0  0  0  0  0
   46.9830   33.8700   39.4020 C   0  0  0  0  0  0  0  0  0  0  0  0
   48.1690   34.4230   39.0980 N   0  0  0  0  0  0  0  0  0  0  0  0
   48.3020   34.4340   37.7600 C   0  0  0  0  0  0  0  0  0  0  0  0
   48.9990   34.7360   36.9910 H   0  0  0  0  0  0  0  0  0  0  0  0
   47.1800   33.8780   37.2290 N   0  0  0  0  0  0  0  0  0  0  0  0
   46.7880   33.6530   36.2690 H   0  0  0  0  0  0  0  0  0  0  0  0
   46.3700   33.5320   38.2330 N   0  0  0  0  0  0  0  0  0  0  0  0
  1  3  1  0  0  0  0
  1  4  1  0  0  0  0
  2  1  1  0  0  0  0
  4  9  2  0  0  0  0
  4  5  1  0  0  0  0
  5  6  2  0  0  0  0
  6  7  1  0  0  0  0
  6 10  1  0  0  0  0
  8  7  2  0  0  0  0
  9  8  1  0  0  0  0
 11  8  1  0  0  0  0
 12  5  1  0  0  0  0
 12 13  1  0  0  0  0
 14 16  1  0  0  0  0
 14 15  1  0  0  0  0
 14  1  1  0  0  0  0
 17 14  1  0  0  0  0
 18 17  1  0  0  0  0
 19 18  2  0  0  0  0
 20 19  1  0  0  0  0
 21 19  1  0  0  0  0
 21 23  1  0  0  0  0
 22 21  1  0  0  0  0
 23 17  2  0  0  0  0
M  END
>  <minimizedAffinity>
-4.11245012

>  <minimizedRMSD>
2.45452952

$$$$
