
 OpenBabel03252509143D

 43 47  0  0  1  0  0  0  0  0999 V2000
   47.4420   32.8410   42.9230 C   0  0  0  0  0  0  0  0  0  0  0  0
   46.6210   33.5510   42.0510 C   0  0  0  0  0  0  0  0  0  0  0  0
   45.5700   34.3440   42.4900 C   0  0  0  0  0  0  0  0  0  0  0  0
   45.3140   34.4430   43.8690 C   0  0  0  0  0  0  0  0  0  0  0  0
   44.4160   35.0910   44.6350 N   0  0  0  0  0  0  0  0  0  0  0  0
   44.6460   34.8150   45.9300 C   0  0  0  0  0  0  0  0  0  0  0  0
   45.6990   33.9860   45.9500 N   0  0  0  0  0  0  0  0  0  0  0  0
   46.1410   33.7310   44.7010 C   0  0  0  0  0  0  0  0  0  0  0  0
   47.1960   32.9320   44.2970 C   0  0  0  0  0  0  0  0  0  0  0  0
   48.2410   32.2430   42.5150 H   0  0  0  0  0  0  0  0  0  0  0  0
   43.6600   35.7130   44.2630 H   0  0  0  0  0  0  0  0  0  0  0  0
   44.1080   35.1730   46.8040 H   0  0  0  0  0  0  0  0  0  0  0  0
   47.8180   32.3920   44.9870 H   0  0  0  0  0  0  0  0  0  0  0  0
   46.4260   32.4520   38.5670 C   0  0  0  0  0  0  0  0  0  0  0  0
   47.3320   33.2850   37.9140 C   0  0  0  0  0  0  0  0  0  0  0  0
   48.0110   34.2300   38.6930 C   0  0  0  0  0  0  0  0  0  0  0  0
   47.7650   34.3030   40.0450 N   0  0  0  0  0  0  0  0  0  0  0  0
   46.8710   33.4610   40.6130 C   0  0  0  0  0  0  0  0  0  0  0  0
   46.1800   32.5200   39.9110 N   0  0  0  0  0  0  0  0  0  0  0  0
   45.8400   31.6790   38.0730 H   0  0  0  0  0  0  0  0  0  0  0  0
   47.4690   33.1690   36.8650 H   0  0  0  0  0  0  0  0  0  0  0  0
   48.7160   34.8870   38.2170 H   0  0  0  0  0  0  0  0  0  0  0  0
   44.5370   35.2390   41.3690 S   0  0  0  0  0  0  0  0  0  0  0  0
   42.4040   33.7340   41.7180 N   0  0  0  0  0  0  0  0  0  0  0  0
   43.2250   34.2310   40.6250 C   0  0  1  0  0  0  0  0  0  0  0  0
   42.4270   35.1880   39.7360 C   0  0  0  0  0  0  0  0  0  0  0  0
   41.1510   34.7480   39.4570 O   0  0  0  0  0  0  0  0  0  0  0  0
   40.8890   33.4430   39.8050 C   0  0  0  0  0  0  0  0  0  0  0  0
   41.1240   33.2620   41.2800 C   0  0  1  0  0  0  0  0  0  0  0  0
   42.3270   34.4960   42.4560 H   0  0  0  0  0  0  0  0  0  0  0  0
   43.5990   33.3840   40.0340 H   0  0  0  0  0  0  0  0  0  0  0  0
   42.9090   35.2770   38.7660 H   0  0  0  0  0  0  0  0  0  0  0  0
   42.3810   36.1940   40.2050 H   0  0  0  0  0  0  0  0  0  0  0  0
   39.8520   33.2180   39.5710 H   0  0  0  0  0  0  0  0  0  0  0  0
   41.6160   32.7980   39.2750 H   0  0  0  0  0  0  0  0  0  0  0  0
   40.3500   33.8040   41.8810 H   0  0  0  0  0  0  0  0  0  0  0  0
   40.9440   31.8100   41.5780 C   0  0  0  0  0  0  0  0  0  0  0  0
   40.4310   31.3130   42.7390 N   0  0  0  0  0  0  0  0  0  0  0  0
   40.4300   29.9530   42.6240 C   0  0  0  0  0  0  0  0  0  0  0  0
   40.0690   29.3230   43.4160 H   0  0  0  0  0  0  0  0  0  0  0  0
   40.9300   29.6150   41.4200 N   0  0  0  0  0  0  0  0  0  0  0  0
   41.0470   28.6340   41.0620 H   0  0  0  0  0  0  0  0  0  0  0  0
   41.2380   30.7630   40.7950 N   0  0  0  0  0  0  0  0  0  0  0  0
  1  9  1  0  0  0  0
  2  3  1  0  0  0  0
  2  1  2  0  0  0  0
  3  4  2  0  0  0  0
  4  5  1  0  0  0  0
  4  8  1  0  0  0  0
  5  6  1  0  0  0  0
  6  7  2  0  0  0  0
  6 12  1  0  0  0  0
  8  7  1  0  0  0  0
  9  8  2  0  0  0  0
  9 13  1  0  0  0  0
 10  1  1  0  0  0  0
 11  5  1  0  0  0  0
 14 19  1  0  0  0  0
 15 14  2  0  0  0  0
 15 16  1  0  0  0  0
 16 17  2  0  0  0  0
 17 18  1  0  0  0  0
 18  2  1  0  0  0  0
 19 18  2  0  0  0  0
 20 14  1  0  0  0  0
 21 15  1  0  0  0  0
 22 16  1  0  0  0  0
 23  3  1  0  0  0  0
 24 30  1  0  0  0  0
 25 31  1  6  0  0  0
 25 23  1  0  0  0  0
 25 24  1  0  0  0  0
 26 33  1  0  0  0  0
 26 25  1  0  0  0  0
 27 26  1  0  0  0  0
 27 28  1  0  0  0  0
 28 29  1  0  0  0  0
 29 37  1  0  0  0  0
 29 24  1  0  0  0  0
 29 36  1  1  0  0  0
 32 26  1  0  0  0  0
 34 28  1  0  0  0  0
 35 28  1  0  0  0  0
 37 38  1  0  0  0  0
 39 38  2  0  0  0  0
 39 40  1  0  0  0  0
 41 39  1  0  0  0  0
 42 41  1  0  0  0  0
 43 41  1  0  0  0  0
 43 37  2  0  0  0  0
M  END
>  <minimizedAffinity>
-5.77188158

>  <minimizedRMSD>
2.39754391

$$$$
