
 OpenBabel03252509123D

 30 33  0  0  0  0  0  0  0  0999 V2000
   47.7120   30.8670   44.7130 C   0  0  0  0  0  0  0  0  0  0  0  0
   47.4390   32.0190   43.9800 C   0  0  0  0  0  0  0  0  0  0  0  0
   46.6590   33.0370   44.4540 C   0  0  0  0  0  0  0  0  0  0  0  0
   46.1010   32.9270   45.7390 C   0  0  0  0  0  0  0  0  0  0  0  0
   45.3050   33.7170   46.5110 N   0  0  0  0  0  0  0  0  0  0  0  0
   45.0830   33.0920   47.6840 C   0  0  0  0  0  0  0  0  0  0  0  0
   45.7510   31.9160   47.6180 N   0  0  0  0  0  0  0  0  0  0  0  0
   46.3790   31.7920   46.4430 C   0  0  0  0  0  0  0  0  0  0  0  0
   47.1600   30.7520   45.9920 C   0  0  0  0  0  0  0  0  0  0  0  0
   48.3250   30.0520   44.3590 H   0  0  0  0  0  0  0  0  0  0  0  0
   44.9610   34.6500   46.1730 H   0  0  0  0  0  0  0  0  0  0  0  0
   44.4640   33.5880   48.4190 H   0  0  0  0  0  0  0  0  0  0  0  0
   47.3520   29.8780   46.5800 H   0  0  0  0  0  0  0  0  0  0  0  0
   47.8180   31.9030   40.3240 C   0  0  0  0  0  0  0  0  0  0  0  0
   49.1060   32.3970   40.1330 C   0  0  0  0  0  0  0  0  0  0  0  0
   49.8360   32.7680   41.2610 C   0  0  0  0  0  0  0  0  0  0  0  0
   49.2670   32.6340   42.5000 N   0  0  0  0  0  0  0  0  0  0  0  0
   48.0150   32.1500   42.6440 C   0  0  0  0  0  0  0  0  0  0  0  0
   47.2920   31.7850   41.5640 N   0  0  0  0  0  0  0  0  0  0  0  0
   47.2190   31.6030   39.4740 H   0  0  0  0  0  0  0  0  0  0  0  0
   49.5330   32.4940   39.1580 H   0  0  0  0  0  0  0  0  0  0  0  0
   50.8350   33.1570   41.1750 H   0  0  0  0  0  0  0  0  0  0  0  0
   46.3190   34.5070   43.5140 S   0  0  0  0  0  0  0  0  0  0  0  0
   44.7410   34.4560   42.6920 C   0  0  0  0  0  0  0  0  0  0  0  0
   44.0280   35.5450   42.2810 N   0  0  0  0  0  0  0  0  0  0  0  0
   42.8920   35.0950   41.6990 C   0  0  0  0  0  0  0  0  0  0  0  0
   42.1770   35.7980   41.2980 H   0  0  0  0  0  0  0  0  0  0  0  0
   42.8840   33.7360   41.7390 N   0  0  0  0  0  0  0  0  0  0  0  0
   42.1130   33.1440   41.3540 H   0  0  0  0  0  0  0  0  0  0  0  0
   43.9930   33.3930   42.3330 N   0  0  0  0  0  0  0  0  0  0  0  0
  1  9  1  0  0  0  0
  2  3  1  0  0  0  0
  2  1  2  0  0  0  0
  3  4  2  0  0  0  0
  4  8  1  0  0  0  0
  4  5  1  0  0  0  0
  5  6  1  0  0  0  0
  6 12  1  0  0  0  0
  7  6  2  0  0  0  0
  8  7  1  0  0  0  0
  9  8  2  0  0  0  0
  9 13  1  0  0  0  0
 10  1  1  0  0  0  0
 11  5  1  0  0  0  0
 14 19  1  0  0  0  0
 15 14  2  0  0  0  0
 15 16  1  0  0  0  0
 16 17  2  0  0  0  0
 17 18  1  0  0  0  0
 18  2  1  0  0  0  0
 19 18  2  0  0  0  0
 20 14  1  0  0  0  0
 21 15  1  0  0  0  0
 22 16  1  0  0  0  0
 23  3  1  0  0  0  0
 24 23  1  0  0  0  0
 25 24  1  0  0  0  0
 26 28  1  0  0  0  0
 26 25  2  0  0  0  0
 27 26  1  0  0  0  0
 28 30  1  0  0  0  0
 29 28  1  0  0  0  0
 30 24  2  0  0  0  0
M  END
>  <minimizedAffinity>
-4.81530666

>  <minimizedRMSD>
1.86775577

$$$$
