
 OpenBabel03252507363D

 30 33  0  0  0  0  0  0  0  0999 V2000
   40.5640   33.8400   40.2960 C   0  0  0  0  0  0  0  0  0  0  0  0
   40.4390   32.5690   40.9090 C   0  0  0  0  0  0  0  0  0  0  0  0
   39.1500   32.0670   41.0760 C   0  0  0  0  0  0  0  0  0  0  0  0
   38.1120   32.7990   40.6550 N   0  0  0  0  0  0  0  0  0  0  0  0
   38.2550   34.0120   40.0720 C   0  0  0  0  0  0  0  0  0  0  0  0
   39.4780   34.5140   39.9000 N   0  0  0  0  0  0  0  0  0  0  0  0
   41.2670   31.9820   41.2470 H   0  0  0  0  0  0  0  0  0  0  0  0
   37.3980   34.5650   39.7480 H   0  0  0  0  0  0  0  0  0  0  0  0
   39.9240   30.1040   42.2660 C   0  0  0  0  0  0  0  0  0  0  0  0
   38.8620   30.7740   41.6910 C   0  0  0  0  0  0  0  0  0  0  0  0
   37.6150   30.1930   41.7310 C   0  0  0  0  0  0  0  0  0  0  0  0
   37.3930   28.9710   42.3220 C   0  0  0  0  0  0  0  0  0  0  0  0
   36.2800   28.2110   42.4820 N   0  0  0  0  0  0  0  0  0  0  0  0
   36.6300   27.0730   43.1500 C   0  0  0  0  0  0  0  0  0  0  0  0
   37.9520   27.1470   43.3920 N   0  0  0  0  0  0  0  0  0  0  0  0
   38.4480   28.2970   42.8980 C   0  0  0  0  0  0  0  0  0  0  0  0
   39.7010   28.8620   42.8680 C   0  0  0  0  0  0  0  0  0  0  0  0
   40.9490   30.4610   42.2970 H   0  0  0  0  0  0  0  0  0  0  0  0
   36.8320   30.7580   41.2700 H   0  0  0  0  0  0  0  0  0  0  0  0
   35.3530   28.5400   42.1140 H   0  0  0  0  0  0  0  0  0  0  0  0
   35.8290   26.3740   43.3460 H   0  0  0  0  0  0  0  0  0  0  0  0
   40.5010   28.3020   43.3300 H   0  0  0  0  0  0  0  0  0  0  0  0
   41.8610   34.3360   40.1330 O   0  0  0  0  0  0  0  0  0  0  0  0
   42.5370   34.2880   38.9460 C   0  0  0  0  0  0  0  0  0  0  0  0
   43.7320   33.6340   38.9670 N   0  0  0  0  0  0  0  0  0  0  0  0
   44.2560   33.6850   37.7170 C   0  0  0  0  0  0  0  0  0  0  0  0
   45.2200   33.2390   37.4270 H   0  0  0  0  0  0  0  0  0  0  0  0
   43.3940   34.3640   36.9410 N   0  0  0  0  0  0  0  0  0  0  0  0
   43.5240   34.5650   35.9260 H   0  0  0  0  0  0  0  0  0  0  0  0
   42.3600   34.7230   37.6870 N   0  0  0  0  0  0  0  0  0  0  0  0
  1  2  1  0  0  0  0
  2  3  2  0  0  0  0
  2  7  1  0  0  0  0
  3 10  1  0  0  0  0
  4  3  1  0  0  0  0
  5  4  2  0  0  0  0
  6  5  1  0  0  0  0
  6  1  2  0  0  0  0
  8  5  1  0  0  0  0
  9 18  1  0  0  0  0
  9 17  1  0  0  0  0
 10 11  1  0  0  0  0
 10  9  2  0  0  0  0
 11 12  2  0  0  0  0
 12 13  1  0  0  0  0
 12 16  1  0  0  0  0
 13 14  1  0  0  0  0
 14 21  1  0  0  0  0
 14 15  2  0  0  0  0
 16 15  1  0  0  0  0
 17 16  2  0  0  0  0
 17 22  1  0  0  0  0
 19 11  1  0  0  0  0
 20 13  1  0  0  0  0
 23  1  1  0  0  0  0
 24 25  1  0  0  0  0
 24 23  1  0  0  0  0
 26 25  2  0  0  0  0
 27 26  1  0  0  0  0
 28 30  1  0  0  0  0
 28 26  1  0  0  0  0
 29 28  1  0  0  0  0
 30 24  2  0  0  0  0
M  END
>  <minimizedAffinity>
-6.11469364

$$$$

 OpenBabel03252507363D

 30 33  0  0  0  0  0  0  0  0999 V2000
   38.4530   27.5510   43.1570 C   0  0  0  0  0  0  0  0  0  0  0  0
   38.8820   28.8380   42.7460 C   0  0  0  0  0  0  0  0  0  0  0  0
   38.0620   29.5250   41.8510 C   0  0  0  0  0  0  0  0  0  0  0  0
   36.9320   28.9440   41.4340 N   0  0  0  0  0  0  0  0  0  0  0  0
   36.5420   27.7140   41.8410 C   0  0  0  0  0  0  0  0  0  0  0  0
   37.3080   27.0360   42.6960 N   0  0  0  0  0  0  0  0  0  0  0  0
   39.7850   29.3040   43.0770 H   0  0  0  0  0  0  0  0  0  0  0  0
   35.6290   27.2860   41.4830 H   0  0  0  0  0  0  0  0  0  0  0  0
   37.3730   31.5040   40.6360 C   0  0  0  0  0  0  0  0  0  0  0  0
   38.3710   30.8560   41.3370 C   0  0  0  0  0  0  0  0  0  0  0  0
   39.5790   31.4940   41.5070 C   0  0  0  0  0  0  0  0  0  0  0  0
   39.8240   32.7510   41.0030 C   0  0  0  0  0  0  0  0  0  0  0  0
   40.9090   33.5650   41.0390 N   0  0  0  0  0  0  0  0  0  0  0  0
   40.6040   34.7150   40.3700 C   0  0  0  0  0  0  0  0  0  0  0  0
   39.3370   34.5950   39.9310 N   0  0  0  0  0  0  0  0  0  0  0  0
   38.8310   33.4030   40.3030 C   0  0  0  0  0  0  0  0  0  0  0  0
   37.6190   32.7820   40.1240 C   0  0  0  0  0  0  0  0  0  0  0  0
   36.3830   31.1040   40.4390 H   0  0  0  0  0  0  0  0  0  0  0  0
   40.3130   30.9440   42.0570 H   0  0  0  0  0  0  0  0  0  0  0  0
   41.7870   33.2610   41.5290 H   0  0  0  0  0  0  0  0  0  0  0  0
   41.3880   35.4570   40.3240 H   0  0  0  0  0  0  0  0  0  0  0  0
   36.8680   33.3260   39.5690 H   0  0  0  0  0  0  0  0  0  0  0  0
   39.2810   26.8690   44.0540 O   0  0  0  0  0  0  0  0  0  0  0  0
   40.3700   26.1420   43.6630 C   0  0  0  0  0  0  0  0  0  0  0  0
   41.5830   26.6470   44.0200 N   0  0  0  0  0  0  0  0  0  0  0  0
   42.5390   25.8050   43.5540 C   0  0  0  0  0  0  0  0  0  0  0  0
   43.6210   25.9530   43.6900 H   0  0  0  0  0  0  0  0  0  0  0  0
   41.9170   24.7960   42.9180 N   0  0  0  0  0  0  0  0  0  0  0  0
   42.3910   23.9920   42.4540 H   0  0  0  0  0  0  0  0  0  0  0  0
   40.6110   25.0050   42.9880 N   0  0  0  0  0  0  0  0  0  0  0  0
  1 23  1  0  0  0  0
  2  7  1  0  0  0  0
  2  1  1  0  0  0  0
  3  2  2  0  0  0  0
  4  5  2  0  0  0  0
  4  3  1  0  0  0  0
  5  6  1  0  0  0  0
  6  1  2  0  0  0  0
  8  5  1  0  0  0  0
  9 10  1  0  0  0  0
 10 11  2  0  0  0  0
 10  3  1  0  0  0  0
 11 19  1  0  0  0  0
 12 13  1  0  0  0  0
 12 11  1  0  0  0  0
 13 20  1  0  0  0  0
 14 13  1  0  0  0  0
 15 16  1  0  0  0  0
 15 14  2  0  0  0  0
 16 12  2  0  0  0  0
 17 16  1  0  0  0  0
 17  9  2  0  0  0  0
 18  9  1  0  0  0  0
 21 14  1  0  0  0  0
 22 17  1  0  0  0  0
 24 25  1  0  0  0  0
 24 23  1  0  0  0  0
 26 27  1  0  0  0  0
 26 25  2  0  0  0  0
 28 30  1  0  0  0  0
 28 26  1  0  0  0  0
 29 28  1  0  0  0  0
 30 24  2  0  0  0  0
M  END
>  <minimizedAffinity>
-6.01202536

$$$$

 OpenBabel03252507363D

 30 33  0  0  0  0  0  0  0  0999 V2000
   38.2740   29.1420   42.0470 C   0  0  0  0  0  0  0  0  0  0  0  0
   38.1780   27.9930   41.2230 C   0  0  0  0  0  0  0  0  0  0  0  0
   37.5590   26.8690   41.7670 C   0  0  0  0  0  0  0  0  0  0  0  0
   37.0940   26.9310   43.0200 N   0  0  0  0  0  0  0  0  0  0  0  0
   37.1960   28.0400   43.7890 C   0  0  0  0  0  0  0  0  0  0  0  0
   37.7840   29.1280   43.2920 N   0  0  0  0  0  0  0  0  0  0  0  0
   38.5500   27.9410   40.2210 H   0  0  0  0  0  0  0  0  0  0  0  0
   36.8090   28.0480   44.7870 H   0  0  0  0  0  0  0  0  0  0  0  0
   36.5960   25.6470   39.9110 C   0  0  0  0  0  0  0  0  0  0  0  0
   37.3870   25.6140   41.0410 C   0  0  0  0  0  0  0  0  0  0  0  0
   37.9600   24.4170   41.4120 C   0  0  0  0  0  0  0  0  0  0  0  0
   37.7680   23.2590   40.6950 C   0  0  0  0  0  0  0  0  0  0  0  0
   38.2150   21.9880   40.8590 N   0  0  0  0  0  0  0  0  0  0  0  0
   37.7140   21.2240   39.8450 C   0  0  0  0  0  0  0  0  0  0  0  0
   36.9660   22.0330   39.0710 N   0  0  0  0  0  0  0  0  0  0  0  0
   36.9790   23.2860   39.5650 C   0  0  0  0  0  0  0  0  0  0  0  0
   36.4000   24.4710   39.1800 C   0  0  0  0  0  0  0  0  0  0  0  0
   36.0940   26.5280   39.5210 H   0  0  0  0  0  0  0  0  0  0  0  0
   38.5620   24.4530   42.2950 H   0  0  0  0  0  0  0  0  0  0  0  0
   38.8390   21.7420   41.6670 H   0  0  0  0  0  0  0  0  0  0  0  0
   37.9960   20.1810   39.8540 H   0  0  0  0  0  0  0  0  0  0  0  0
   35.7890   24.4490   38.2890 H   0  0  0  0  0  0  0  0  0  0  0  0
   38.8970   30.2640   41.4930 O   0  0  0  0  0  0  0  0  0  0  0  0
   38.2060   31.3300   40.9860 C   0  0  0  0  0  0  0  0  0  0  0  0
   38.9410   32.4480   40.7300 N   0  0  0  0  0  0  0  0  0  0  0  0
   38.1020   33.3930   40.2380 C   0  0  0  0  0  0  0  0  0  0  0  0
   38.4120   34.4060   39.9380 H   0  0  0  0  0  0  0  0  0  0  0  0
   36.8690   32.8600   40.1940 N   0  0  0  0  0  0  0  0  0  0  0  0
   36.0110   33.3500   39.8600 H   0  0  0  0  0  0  0  0  0  0  0  0
   36.9390   31.6170   40.6460 N   0  0  0  0  0  0  0  0  0  0  0  0
  1  6  1  0  0  0  0
  2  3  1  0  0  0  0
  2  1  2  0  0  0  0
  3  4  2  0  0  0  0
  4  5  1  0  0  0  0
  5  8  1  0  0  0  0
  6  5  2  0  0  0  0
  7  2  1  0  0  0  0
  9 10  1  0  0  0  0
 10 11  2  0  0  0  0
 10  3  1  0  0  0  0
 11 19  1  0  0  0  0
 12 13  1  0  0  0  0
 12 11  1  0  0  0  0
 13 20  1  0  0  0  0
 14 21  1  0  0  0  0
 14 13  1  0  0  0  0
 15 16  1  0  0  0  0
 15 14  2  0  0  0  0
 16 12  2  0  0  0  0
 17 16  1  0  0  0  0
 17  9  2  0  0  0  0
 18  9  1  0  0  0  0
 22 17  1  0  0  0  0
 23  1  1  0  0  0  0
 24 23  1  0  0  0  0
 25 24  1  0  0  0  0
 26 25  2  0  0  0  0
 27 26  1  0  0  0  0
 28 26  1  0  0  0  0
 28 30  1  0  0  0  0
 29 28  1  0  0  0  0
 30 24  2  0  0  0  0
M  END
>  <minimizedAffinity>
-5.75128508

$$$$

 OpenBabel03252507363D

 30 33  0  0  0  0  0  0  0  0999 V2000
   37.0680   27.1740   41.4960 C   0  0  0  0  0  0  0  0  0  0  0  0
   37.3650   28.4160   40.8820 C   0  0  0  0  0  0  0  0  0  0  0  0
   37.6850   29.4800   41.7230 C   0  0  0  0  0  0  0  0  0  0  0  0
   37.6970   29.2780   43.0450 N   0  0  0  0  0  0  0  0  0  0  0  0
   37.4100   28.0820   43.6100 C   0  0  0  0  0  0  0  0  0  0  0  0
   37.1010   27.0480   42.8270 N   0  0  0  0  0  0  0  0  0  0  0  0
   37.3560   28.5810   39.8260 H   0  0  0  0  0  0  0  0  0  0  0  0
   37.4320   27.9630   44.6730 H   0  0  0  0  0  0  0  0  0  0  0  0
   37.0340   31.4840   40.5260 C   0  0  0  0  0  0  0  0  0  0  0  0
   38.0120   30.8190   41.2390 C   0  0  0  0  0  0  0  0  0  0  0  0
   39.2200   31.4470   41.4480 C   0  0  0  0  0  0  0  0  0  0  0  0
   39.4820   32.7110   40.9710 C   0  0  0  0  0  0  0  0  0  0  0  0
   40.5700   33.5180   41.0460 N   0  0  0  0  0  0  0  0  0  0  0  0
   40.2860   34.6810   40.3890 C   0  0  0  0  0  0  0  0  0  0  0  0
   39.0290   34.5750   39.9190 N   0  0  0  0  0  0  0  0  0  0  0  0
   38.5100   33.3790   40.2590 C   0  0  0  0  0  0  0  0  0  0  0  0
   37.2980   32.7680   40.0410 C   0  0  0  0  0  0  0  0  0  0  0  0
   36.0470   31.0920   40.2990 H   0  0  0  0  0  0  0  0  0  0  0  0
   39.9370   30.8840   42.0060 H   0  0  0  0  0  0  0  0  0  0  0  0
   41.4350   33.2010   41.5500 H   0  0  0  0  0  0  0  0  0  0  0  0
   41.0750   35.4190   40.3740 H   0  0  0  0  0  0  0  0  0  0  0  0
   36.5640   33.3260   39.4780 H   0  0  0  0  0  0  0  0  0  0  0  0
   36.7470   26.1120   40.6450 O   0  0  0  0  0  0  0  0  0  0  0  0
   37.3390   24.8820   40.7260 C   0  0  0  0  0  0  0  0  0  0  0  0
   38.3370   24.6410   39.8320 N   0  0  0  0  0  0  0  0  0  0  0  0
   38.8030   23.3870   40.0560 C   0  0  0  0  0  0  0  0  0  0  0  0
   39.6160   22.9130   39.4840 H   0  0  0  0  0  0  0  0  0  0  0  0
   38.0980   22.8670   41.0760 N   0  0  0  0  0  0  0  0  0  0  0  0
   38.2300   21.9140   41.4760 H   0  0  0  0  0  0  0  0  0  0  0  0
   37.2190   23.7730   41.4750 N   0  0  0  0  0  0  0  0  0  0  0  0
  1  6  1  0  0  0  0
  2  1  2  0  0  0  0
  2  3  1  0  0  0  0
  3  4  2  0  0  0  0
  4  5  1  0  0  0  0
  5  8  1  0  0  0  0
  6  5  2  0  0  0  0
  7  2  1  0  0  0  0
  9 10  1  0  0  0  0
 10 11  2  0  0  0  0
 10  3  1  0  0  0  0
 11 19  1  0  0  0  0
 12 13  1  0  0  0  0
 12 11  1  0  0  0  0
 13 20  1  0  0  0  0
 14 13  1  0  0  0  0
 15 16  1  0  0  0  0
 15 14  2  0  0  0  0
 16 12  2  0  0  0  0
 17 16  1  0  0  0  0
 17  9  2  0  0  0  0
 18  9  1  0  0  0  0
 21 14  1  0  0  0  0
 22 17  1  0  0  0  0
 23 24  1  0  0  0  0
 23  1  1  0  0  0  0
 24 30  2  0  0  0  0
 25 26  2  0  0  0  0
 25 24  1  0  0  0  0
 26 28  1  0  0  0  0
 27 26  1  0  0  0  0
 28 30  1  0  0  0  0
 28 29  1  0  0  0  0
M  END
>  <minimizedAffinity>
-5.72821856

$$$$

 OpenBabel03252507363D

 30 33  0  0  0  0  0  0  0  0999 V2000
   33.2820   28.9520   36.7910 C   0  0  0  0  0  0  0  0  0  0  0  0
   33.7920   28.6150   38.0700 C   0  0  0  0  0  0  0  0  0  0  0  0
   35.1780   28.5540   38.2060 C   0  0  0  0  0  0  0  0  0  0  0  0
   35.9440   28.8130   37.1400 N   0  0  0  0  0  0  0  0  0  0  0  0
   35.4350   29.1330   35.9280 C   0  0  0  0  0  0  0  0  0  0  0  0
   34.1130   29.1980   35.7710 N   0  0  0  0  0  0  0  0  0  0  0  0
   33.1820   28.4070   38.9230 H   0  0  0  0  0  0  0  0  0  0  0  0
   36.0840   29.3340   35.1010 H   0  0  0  0  0  0  0  0  0  0  0  0
   36.3930   26.9540   39.5600 C   0  0  0  0  0  0  0  0  0  0  0  0
   35.8500   28.2200   39.4590 C   0  0  0  0  0  0  0  0  0  0  0  0
   35.9710   29.0780   40.5290 C   0  0  0  0  0  0  0  0  0  0  0  0
   36.6130   28.7180   41.6900 C   0  0  0  0  0  0  0  0  0  0  0  0
   36.8540   29.3730   42.8530 N   0  0  0  0  0  0  0  0  0  0  0  0
   37.5420   28.5350   43.6830 C   0  0  0  0  0  0  0  0  0  0  0  0
   37.7160   27.3760   43.0210 N   0  0  0  0  0  0  0  0  0  0  0  0
   37.1580   27.4560   41.7970 C   0  0  0  0  0  0  0  0  0  0  0  0
   37.0480   26.5860   40.7400 C   0  0  0  0  0  0  0  0  0  0  0  0
   36.3610   26.1940   38.7860 H   0  0  0  0  0  0  0  0  0  0  0  0
   35.5310   30.0440   40.3920 H   0  0  0  0  0  0  0  0  0  0  0  0
   36.5220   30.3610   42.9880 H   0  0  0  0  0  0  0  0  0  0  0  0
   37.8000   28.9370   44.6530 H   0  0  0  0  0  0  0  0  0  0  0  0
   37.4880   25.6070   40.8640 H   0  0  0  0  0  0  0  0  0  0  0  0
   31.8920   29.0100   36.6630 O   0  0  0  0  0  0  0  0  0  0  0  0
   31.1270   29.9860   37.2400 C   0  0  0  0  0  0  0  0  0  0  0  0
   30.8690   31.0760   36.4660 N   0  0  0  0  0  0  0  0  0  0  0  0
   30.1060   31.9310   37.1920 C   0  0  0  0  0  0  0  0  0  0  0  0
   29.7400   32.9030   36.8270 H   0  0  0  0  0  0  0  0  0  0  0  0
   29.9000   31.3700   38.3960 N   0  0  0  0  0  0  0  0  0  0  0  0
   29.3470   31.7930   39.1720 H   0  0  0  0  0  0  0  0  0  0  0  0
   30.5170   30.1980   38.4180 N   0  0  0  0  0  0  0  0  0  0  0  0
  1  2  1  0  0  0  0
  2  3  2  0  0  0  0
  2  7  1  0  0  0  0
  3 10  1  0  0  0  0
  4  3  1  0  0  0  0
  5  4  2  0  0  0  0
  6  5  1  0  0  0  0
  6  1  2  0  0  0  0
  8  5  1  0  0  0  0
  9 17  1  0  0  0  0
 10  9  2  0  0  0  0
 10 11  1  0  0  0  0
 11 12  2  0  0  0  0
 12 16  1  0  0  0  0
 12 13  1  0  0  0  0
 13 20  1  0  0  0  0
 13 14  1  0  0  0  0
 14 21  1  0  0  0  0
 15 14  2  0  0  0  0
 16 15  1  0  0  0  0
 17 22  1  0  0  0  0
 17 16  2  0  0  0  0
 18  9  1  0  0  0  0
 19 11  1  0  0  0  0
 23  1  1  0  0  0  0
 23 24  1  0  0  0  0
 24 30  2  0  0  0  0
 25 26  2  0  0  0  0
 25 24  1  0  0  0  0
 26 28  1  0  0  0  0
 27 26  1  0  0  0  0
 28 30  1  0  0  0  0
 28 29  1  0  0  0  0
M  END
>  <minimizedAffinity>
-5.65408373

$$$$

 OpenBabel03252507363D

 30 33  0  0  0  0  0  0  0  0999 V2000
   38.6340   29.9330   41.1810 C   0  0  0  0  0  0  0  0  0  0  0  0
   38.1470   28.7470   40.5760 C   0  0  0  0  0  0  0  0  0  0  0  0
   37.7010   27.7370   41.4260 C   0  0  0  0  0  0  0  0  0  0  0  0
   37.7540   27.9340   42.7480 N   0  0  0  0  0  0  0  0  0  0  0  0
   38.2220   29.0750   43.3030 C   0  0  0  0  0  0  0  0  0  0  0  0
   38.6550   30.0570   42.5130 N   0  0  0  0  0  0  0  0  0  0  0  0
   38.1040   28.5870   39.5200 H   0  0  0  0  0  0  0  0  0  0  0  0
   38.2470   29.1930   44.3670 H   0  0  0  0  0  0  0  0  0  0  0  0
   37.2020   25.4020   41.8380 C   0  0  0  0  0  0  0  0  0  0  0  0
   37.1740   26.4600   40.9510 C   0  0  0  0  0  0  0  0  0  0  0  0
   36.6580   26.2520   39.6910 C   0  0  0  0  0  0  0  0  0  0  0  0
   36.1720   25.0300   39.2890 C   0  0  0  0  0  0  0  0  0  0  0  0
   35.6290   24.5900   38.1260 N   0  0  0  0  0  0  0  0  0  0  0  0
   35.3150   23.2700   38.2720 C   0  0  0  0  0  0  0  0  0  0  0  0
   35.6700   22.9140   39.5210 N   0  0  0  0  0  0  0  0  0  0  0  0
   36.1970   23.9700   40.1690 C   0  0  0  0  0  0  0  0  0  0  0  0
   36.7080   24.1580   41.4310 C   0  0  0  0  0  0  0  0  0  0  0  0
   37.5820   25.4440   42.8540 H   0  0  0  0  0  0  0  0  0  0  0  0
   36.6620   27.1080   39.0490 H   0  0  0  0  0  0  0  0  0  0  0  0
   35.5140   25.2430   37.3110 H   0  0  0  0  0  0  0  0  0  0  0  0
   34.8700   22.7910   37.4110 H   0  0  0  0  0  0  0  0  0  0  0  0
   36.7100   23.3020   42.0900 H   0  0  0  0  0  0  0  0  0  0  0  0
   39.0790   30.9410   40.3210 O   0  0  0  0  0  0  0  0  0  0  0  0
   38.4210   32.1270   40.1540 C   0  0  0  0  0  0  0  0  0  0  0  0
   39.1340   33.2500   40.4440 N   0  0  0  0  0  0  0  0  0  0  0  0
   38.3320   34.3220   40.2240 C   0  0  0  0  0  0  0  0  0  0  0  0
   38.6360   35.3690   40.3730 H   0  0  0  0  0  0  0  0  0  0  0  0
   37.1420   33.8590   39.8030 N   0  0  0  0  0  0  0  0  0  0  0  0
   36.3190   34.4490   39.5530 H   0  0  0  0  0  0  0  0  0  0  0  0
   37.2030   32.5370   39.7630 N   0  0  0  0  0  0  0  0  0  0  0  0
  1  6  1  0  0  0  0
  2  1  2  0  0  0  0
  2  3  1  0  0  0  0
  3  4  2  0  0  0  0
  4  5  1  0  0  0  0
  5  8  1  0  0  0  0
  6  5  2  0  0  0  0
  7  2  1  0  0  0  0
  9 18  1  0  0  0  0
 10  3  1  0  0  0  0
 10  9  2  0  0  0  0
 11 10  1  0  0  0  0
 12 11  2  0  0  0  0
 12 16  1  0  0  0  0
 13 14  1  0  0  0  0
 13 12  1  0  0  0  0
 14 15  2  0  0  0  0
 15 16  1  0  0  0  0
 16 17  2  0  0  0  0
 17  9  1  0  0  0  0
 17 22  1  0  0  0  0
 19 11  1  0  0  0  0
 20 13  1  0  0  0  0
 21 14  1  0  0  0  0
 23  1  1  0  0  0  0
 24 23  1  0  0  0  0
 24 25  1  0  0  0  0
 26 27  1  0  0  0  0
 26 25  2  0  0  0  0
 28 26  1  0  0  0  0
 29 28  1  0  0  0  0
 30 28  1  0  0  0  0
 30 24  2  0  0  0  0
M  END
>  <minimizedAffinity>
-5.3993392

$$$$

 OpenBabel03252507363D

 30 33  0  0  0  0  0  0  0  0999 V2000
   38.3700   26.3000   42.1100 C   0  0  0  0  0  0  0  0  0  0  0  0
   38.8170   27.5640   41.6520 C   0  0  0  0  0  0  0  0  0  0  0  0
   38.0100   28.6650   41.9340 C   0  0  0  0  0  0  0  0  0  0  0  0
   36.8730   28.4760   42.6120 N   0  0  0  0  0  0  0  0  0  0  0  0
   36.4650   27.2580   43.0400 C   0  0  0  0  0  0  0  0  0  0  0  0
   37.2190   26.1890   42.7830 N   0  0  0  0  0  0  0  0  0  0  0  0
   39.7260   27.7190   41.1090 H   0  0  0  0  0  0  0  0  0  0  0  0
   35.5480   27.1500   43.5800 H   0  0  0  0  0  0  0  0  0  0  0  0
   39.6470   30.4350   41.6920 C   0  0  0  0  0  0  0  0  0  0  0  0
   38.3380   30.0290   41.5270 C   0  0  0  0  0  0  0  0  0  0  0  0
   37.4320   30.9200   40.9960 C   0  0  0  0  0  0  0  0  0  0  0  0
   37.7880   32.1970   40.6270 C   0  0  0  0  0  0  0  0  0  0  0  0
   37.0910   33.2320   40.0950 N   0  0  0  0  0  0  0  0  0  0  0  0
   37.9470   34.2820   39.9250 C   0  0  0  0  0  0  0  0  0  0  0  0
   39.1580   33.8800   40.3540 N   0  0  0  0  0  0  0  0  0  0  0  0
   39.0940   32.6070   40.7890 C   0  0  0  0  0  0  0  0  0  0  0  0
   40.0120   31.7320   41.3170 C   0  0  0  0  0  0  0  0  0  0  0  0
   40.4470   29.8230   42.0980 H   0  0  0  0  0  0  0  0  0  0  0  0
   36.4340   30.5500   40.8910 H   0  0  0  0  0  0  0  0  0  0  0  0
   36.0660   33.1340   39.8870 H   0  0  0  0  0  0  0  0  0  0  0  0
   37.5160   35.1800   39.5040 H   0  0  0  0  0  0  0  0  0  0  0  0
   41.0240   32.0920   41.4290 H   0  0  0  0  0  0  0  0  0  0  0  0
   39.1850   25.2020   41.8230 O   0  0  0  0  0  0  0  0  0  0  0  0
   40.5450   25.2200   41.9670 C   0  0  0  0  0  0  0  0  0  0  0  0
   41.0080   25.2070   43.2480 N   0  0  0  0  0  0  0  0  0  0  0  0
   42.3630   25.2290   43.2010 C   0  0  0  0  0  0  0  0  0  0  0  0
   43.0170   25.2250   44.0860 H   0  0  0  0  0  0  0  0  0  0  0  0
   42.7250   25.2550   41.9060 N   0  0  0  0  0  0  0  0  0  0  0  0
   43.7060   25.2740   41.5550 H   0  0  0  0  0  0  0  0  0  0  0  0
   41.6250   25.2490   41.1690 N   0  0  0  0  0  0  0  0  0  0  0  0
  1  6  1  0  0  0  0
  2  3  1  0  0  0  0
  2  1  2  0  0  0  0
  3  4  2  0  0  0  0
  4  5  1  0  0  0  0
  5  8  1  0  0  0  0
  6  5  2  0  0  0  0
  7  2  1  0  0  0  0
  9 18  1  0  0  0  0
 10  9  1  0  0  0  0
 10  3  1  0  0  0  0
 11 10  2  0  0  0  0
 12 16  2  0  0  0  0
 12 11  1  0  0  0  0
 13 12  1  0  0  0  0
 14 13  1  0  0  0  0
 14 15  2  0  0  0  0
 15 16  1  0  0  0  0
 16 17  1  0  0  0  0
 17 22  1  0  0  0  0
 17  9  2  0  0  0  0
 19 11  1  0  0  0  0
 20 13  1  0  0  0  0
 21 14  1  0  0  0  0
 23 24  1  0  0  0  0
 23  1  1  0  0  0  0
 24 25  1  0  0  0  0
 26 25  2  0  0  0  0
 26 27  1  0  0  0  0
 28 26  1  0  0  0  0
 29 28  1  0  0  0  0
 30 28  1  0  0  0  0
 30 24  2  0  0  0  0
M  END
>  <minimizedAffinity>
-5.32946682

$$$$

 OpenBabel03252507363D

 30 33  0  0  0  0  0  0  0  0999 V2000
   36.8700   27.9530   42.0330 C   0  0  0  0  0  0  0  0  0  0  0  0
   36.4190   27.8640   40.6920 C   0  0  0  0  0  0  0  0  0  0  0  0
   36.5030   29.0190   39.9160 C   0  0  0  0  0  0  0  0  0  0  0  0
   36.9970   30.1330   40.4650 N   0  0  0  0  0  0  0  0  0  0  0  0
   37.4230   30.1940   41.7480 C   0  0  0  0  0  0  0  0  0  0  0  0
   37.3540   29.1040   42.5130 N   0  0  0  0  0  0  0  0  0  0  0  0
   36.0230   26.9750   40.2510 H   0  0  0  0  0  0  0  0  0  0  0  0
   37.8130   31.1070   42.1500 H   0  0  0  0  0  0  0  0  0  0  0  0
   34.7760   28.7070   38.2440 C   0  0  0  0  0  0  0  0  0  0  0  0
   36.0770   29.0820   38.5200 C   0  0  0  0  0  0  0  0  0  0  0  0
   36.8820   29.4870   37.4790 C   0  0  0  0  0  0  0  0  0  0  0  0
   36.4360   29.5300   36.1790 C   0  0  0  0  0  0  0  0  0  0  0  0
   37.0280   29.8840   35.0110 N   0  0  0  0  0  0  0  0  0  0  0  0
   36.1160   29.7370   34.0060 C   0  0  0  0  0  0  0  0  0  0  0  0
   34.9750   29.2940   34.5670 N   0  0  0  0  0  0  0  0  0  0  0  0
   35.1390   29.1580   35.8970 C   0  0  0  0  0  0  0  0  0  0  0  0
   34.3200   28.7510   36.9230 C   0  0  0  0  0  0  0  0  0  0  0  0
   34.0510   28.3720   38.9790 H   0  0  0  0  0  0  0  0  0  0  0  0
   37.8780   29.7650   37.7540 H   0  0  0  0  0  0  0  0  0  0  0  0
   38.0280   30.2050   34.9960 H   0  0  0  0  0  0  0  0  0  0  0  0
   36.4610   29.9890   33.0130 H   0  0  0  0  0  0  0  0  0  0  0  0
   33.3110   28.4670   36.6600 H   0  0  0  0  0  0  0  0  0  0  0  0
   36.7820   26.7910   42.8050 O   0  0  0  0  0  0  0  0  0  0  0  0
   37.3800   25.6120   42.4560 C   0  0  0  0  0  0  0  0  0  0  0  0
   38.7350   25.5730   42.5760 N   0  0  0  0  0  0  0  0  0  0  0  0
   39.1530   24.3420   42.1900 C   0  0  0  0  0  0  0  0  0  0  0  0
   40.2040   24.0150   42.1810 H   0  0  0  0  0  0  0  0  0  0  0  0
   38.0650   23.6360   41.8370 N   0  0  0  0  0  0  0  0  0  0  0  0
   38.0690   22.6510   41.4960 H   0  0  0  0  0  0  0  0  0  0  0  0
   37.0000   24.4070   42.0000 N   0  0  0  0  0  0  0  0  0  0  0  0
  1  6  1  0  0  0  0
  1 23  1  0  0  0  0
  2  1  2  0  0  0  0
  3  4  2  0  0  0  0
  3  2  1  0  0  0  0
  4  5  1  0  0  0  0
  5  8  1  0  0  0  0
  5  6  2  0  0  0  0
  7  2  1  0  0  0  0
  9 10  1  0  0  0  0
  9 18  1  0  0  0  0
 10  3  1  0  0  0  0
 11 19  1  0  0  0  0
 11 10  2  0  0  0  0
 12 11  1  0  0  0  0
 13 12  1  0  0  0  0
 14 15  2  0  0  0  0
 14 13  1  0  0  0  0
 15 16  1  0  0  0  0
 16 12  2  0  0  0  0
 16 17  1  0  0  0  0
 17  9  2  0  0  0  0
 20 13  1  0  0  0  0
 21 14  1  0  0  0  0
 22 17  1  0  0  0  0
 24 25  1  0  0  0  0
 24 23  1  0  0  0  0
 26 25  2  0  0  0  0
 27 26  1  0  0  0  0
 28 30  1  0  0  0  0
 28 26  1  0  0  0  0
 29 28  1  0  0  0  0
 30 24  2  0  0  0  0
M  END
>  <minimizedAffinity>
-5.29790592

$$$$

 OpenBabel03252507363D

 30 33  0  0  0  0  0  0  0  0999 V2000
   35.4610   29.2980   38.3390 C   0  0  0  0  0  0  0  0  0  0  0  0
   36.4270   30.3340   38.3760 C   0  0  0  0  0  0  0  0  0  0  0  0
   36.8530   30.7620   39.6330 C   0  0  0  0  0  0  0  0  0  0  0  0
   36.3370   30.1820   40.7220 N   0  0  0  0  0  0  0  0  0  0  0  0
   35.4160   29.1930   40.6630 C   0  0  0  0  0  0  0  0  0  0  0  0
   34.9920   28.7650   39.4730 N   0  0  0  0  0  0  0  0  0  0  0  0
   36.8400   30.8000   37.5070 H   0  0  0  0  0  0  0  0  0  0  0  0
   35.0290   28.7540   41.5590 H   0  0  0  0  0  0  0  0  0  0  0  0
   37.3740   33.1190   39.8370 C   0  0  0  0  0  0  0  0  0  0  0  0
   37.8410   31.8200   39.8310 C   0  0  0  0  0  0  0  0  0  0  0  0
   39.1880   31.6010   40.0080 C   0  0  0  0  0  0  0  0  0  0  0  0
   40.0820   32.6310   40.1910 C   0  0  0  0  0  0  0  0  0  0  0  0
   41.4250   32.6650   40.3810 N   0  0  0  0  0  0  0  0  0  0  0  0
   41.8070   33.9690   40.5070 C   0  0  0  0  0  0  0  0  0  0  0  0
   40.6950   34.7210   40.3930 N   0  0  0  0  0  0  0  0  0  0  0  0
   39.6220   33.9300   40.1990 C   0  0  0  0  0  0  0  0  0  0  0  0
   38.2800   34.1680   40.0230 C   0  0  0  0  0  0  0  0  0  0  0  0
   36.3380   33.4150   39.7080 H   0  0  0  0  0  0  0  0  0  0  0  0
   39.4900   30.5750   39.9940 H   0  0  0  0  0  0  0  0  0  0  0  0
   41.9820   31.7750   40.4100 H   0  0  0  0  0  0  0  0  0  0  0  0
   42.8620   34.1400   40.6650 H   0  0  0  0  0  0  0  0  0  0  0  0
   37.9610   35.2000   40.0350 H   0  0  0  0  0  0  0  0  0  0  0  0
   35.0390   28.8750   37.0750 O   0  0  0  0  0  0  0  0  0  0  0  0
   35.8380   28.9160   35.9670 C   0  0  0  0  0  0  0  0  0  0  0  0
   35.3500   29.6170   34.9060 N   0  0  0  0  0  0  0  0  0  0  0  0
   36.2640   29.5500   33.9070 C   0  0  0  0  0  0  0  0  0  0  0  0
   36.1460   30.0250   32.9210 H   0  0  0  0  0  0  0  0  0  0  0  0
   37.3000   28.8170   34.3510 N   0  0  0  0  0  0  0  0  0  0  0  0
   38.1580   28.5910   33.8040 H   0  0  0  0  0  0  0  0  0  0  0  0
   37.0370   28.4380   35.5920 N   0  0  0  0  0  0  0  0  0  0  0  0
  1  2  2  0  0  0  0
  1  6  1  0  0  0  0
  2  3  1  0  0  0  0
  3 10  1  0  0  0  0
  3  4  2  0  0  0  0
  5  4  1  0  0  0  0
  5  8  1  0  0  0  0
  6  5  2  0  0  0  0
  7  2  1  0  0  0  0
  9 17  1  0  0  0  0
 10  9  2  0  0  0  0
 10 11  1  0  0  0  0
 11 12  2  0  0  0  0
 12 16  1  0  0  0  0
 12 13  1  0  0  0  0
 13 20  1  0  0  0  0
 13 14  1  0  0  0  0
 14 21  1  0  0  0  0
 15 14  2  0  0  0  0
 16 15  1  0  0  0  0
 17 22  1  0  0  0  0
 17 16  2  0  0  0  0
 18  9  1  0  0  0  0
 19 11  1  0  0  0  0
 23  1  1  0  0  0  0
 24 23  1  0  0  0  0
 25 24  1  0  0  0  0
 26 28  1  0  0  0  0
 26 25  2  0  0  0  0
 27 26  1  0  0  0  0
 28 30  1  0  0  0  0
 29 28  1  0  0  0  0
 30 24  2  0  0  0  0
M  END
>  <minimizedAffinity>
-5.28384447

$$$$
