
 OpenBabel03242511593D

 39 42  0  0  1  0  0  0  0  0999 V2000
   37.6570   28.2930   40.7340 C   0  0  2  0  0  0  0  0  0  0  0  0
   37.1660   27.1170   41.4970 C   0  0  0  0  0  0  0  0  0  0  0  0
   36.5760   27.4770   42.8140 C   0  0  0  0  0  0  0  0  0  0  0  0
   37.4840   28.2970   43.6790 C   0  0  0  0  0  0  0  0  0  0  0  0
   38.2900   29.3230   42.9120 C   0  0  0  0  0  0  0  0  0  0  0  0
   37.7310   29.5630   41.5330 C   0  0  1  0  0  0  0  0  0  0  0  0
   38.7030   28.0660   40.3590 H   0  0  0  0  0  0  0  0  0  0  0  0
   36.4120   26.5570   40.9160 H   0  0  0  0  0  0  0  0  0  0  0  0
   38.0040   26.4160   41.6910 H   0  0  0  0  0  0  0  0  0  0  0  0
   35.5900   27.9640   42.6420 H   0  0  0  0  0  0  0  0  0  0  0  0
   36.3640   26.5260   43.3570 H   0  0  0  0  0  0  0  0  0  0  0  0
   38.1060   27.6970   44.3790 H   0  0  0  0  0  0  0  0  0  0  0  0
   36.8040   28.8830   44.3630 H   0  0  0  0  0  0  0  0  0  0  0  0
   39.3000   28.8790   42.7670 H   0  0  0  0  0  0  0  0  0  0  0  0
   38.3400   30.3010   43.4060 H   0  0  0  0  0  0  0  0  0  0  0  0
   36.7720   30.0850   41.6730 H   0  0  0  0  0  0  0  0  0  0  0  0
   36.8710   28.5470   39.5080 C   0  0  0  0  0  0  0  0  0  0  0  0
   35.5200   28.8160   39.7310 C   0  0  0  0  0  0  0  0  0  0  0  0
   34.6660   29.0800   38.6480 C   0  0  0  0  0  0  0  0  0  0  0  0
   35.2620   29.0470   37.3940 N   0  0  0  0  0  0  0  0  0  0  0  0
   36.5680   28.7820   37.2200 C   0  0  0  0  0  0  0  0  0  0  0  0
   37.3650   28.5330   38.2810 N   0  0  0  0  0  0  0  0  0  0  0  0
   34.9030   28.8700   40.6130 H   0  0  0  0  0  0  0  0  0  0  0  0
   33.6310   29.3010   38.6420 H   0  0  0  0  0  0  0  0  0  0  0  0
   37.0170   28.7590   36.2550 H   0  0  0  0  0  0  0  0  0  0  0  0
   38.6980   30.4800   40.8260 C   0  0  2  0  0  0  0  0  0  0  0  0
   38.8320   31.9020   41.3320 C   0  0  0  0  0  0  0  0  0  0  0  0
   38.2430   31.6170   40.0010 C   0  0  1  0  0  0  0  0  0  0  0  0
   39.6490   29.9640   40.5680 H   0  0  0  0  0  0  0  0  0  0  0  0
   39.8610   32.2960   41.4150 H   0  0  0  0  0  0  0  0  0  0  0  0
   38.1880   32.2380   42.1780 H   0  0  0  0  0  0  0  0  0  0  0  0
   37.1660   31.8370   39.8980 H   0  0  0  0  0  0  0  0  0  0  0  0
   39.0920   31.9050   38.8130 C   0  0  0  0  0  0  0  0  0  0  0  0
   40.3880   32.3030   38.7800 N   0  0  0  0  0  0  0  0  0  0  0  0
   40.7840   32.4560   37.5000 C   0  0  0  0  0  0  0  0  0  0  0  0
   41.7700   32.7670   37.1460 H   0  0  0  0  0  0  0  0  0  0  0  0
   39.7270   32.1520   36.7150 N   0  0  0  0  0  0  0  0  0  0  0  0
   39.6610   32.1580   35.6570 H   0  0  0  0  0  0  0  0  0  0  0  0
   38.7040   31.8190   37.5070 N   0  0  0  0  0  0  0  0  0  0  0  0
  1  7  1  6  0  0  0
  1  2  1  0  0  0  0
  1  6  1  0  0  0  0
  2  9  1  0  0  0  0
  2  3  1  0  0  0  0
  3 11  1  0  0  0  0
  3  4  1  0  0  0  0
  4 13  1  0  0  0  0
  4 12  1  0  0  0  0
  5 15  1  0  0  0  0
  5  4  1  0  0  0  0
  6 16  1  1  0  0  0
  6  5  1  0  0  0  0
  8  2  1  0  0  0  0
 10  3  1  0  0  0  0
 14  5  1  0  0  0  0
 17 18  1  0  0  0  0
 17  1  1  0  0  0  0
 18 23  1  0  0  0  0
 19 18  2  0  0  0  0
 20 19  1  0  0  0  0
 21 20  2  0  0  0  0
 21 22  1  0  0  0  0
 22 17  2  0  0  0  0
 24 19  1  0  0  0  0
 25 21  1  0  0  0  0
 26 29  1  6  0  0  0
 26 27  1  0  0  0  0
 26  6  1  0  0  0  0
 27 30  1  0  0  0  0
 27 31  1  0  0  0  0
 28 32  1  6  0  0  0
 28 26  1  0  0  0  0
 28 27  1  0  0  0  0
 33 28  1  0  0  0  0
 34 33  1  0  0  0  0
 35 34  2  0  0  0  0
 36 35  1  0  0  0  0
 37 35  1  0  0  0  0
 37 39  1  0  0  0  0
 38 37  1  0  0  0  0
 39 33  2  0  0  0  0
M  END
>  <minimizedAffinity>
-5.40632105

$$$$

 OpenBabel03242511593D

 39 42  0  0  1  0  0  0  0  0999 V2000
   39.5230   26.1830   42.7550 C   0  0  2  0  0  0  0  0  0  0  0  0
   39.3730   24.7350   43.0500 C   0  0  0  0  0  0  0  0  0  0  0  0
   38.4520   24.0380   42.1110 C   0  0  0  0  0  0  0  0  0  0  0  0
   37.1010   24.6760   42.0050 C   0  0  0  0  0  0  0  0  0  0  0  0
   37.1400   26.1880   42.0340 C   0  0  0  0  0  0  0  0  0  0  0  0
   38.5240   26.7230   41.7720 C   0  0  1  0  0  0  0  0  0  0  0  0
   39.3960   26.7610   43.7220 H   0  0  0  0  0  0  0  0  0  0  0  0
   40.3510   24.2240   43.0270 H   0  0  0  0  0  0  0  0  0  0  0  0
   38.9650   24.5990   44.0740 H   0  0  0  0  0  0  0  0  0  0  0  0
   38.9590   23.9360   41.1260 H   0  0  0  0  0  0  0  0  0  0  0  0
   38.3060   23.0010   42.4960 H   0  0  0  0  0  0  0  0  0  0  0  0
   36.3440   24.2510   42.7010 H   0  0  0  0  0  0  0  0  0  0  0  0
   36.7120   24.3930   40.9840 H   0  0  0  0  0  0  0  0  0  0  0  0
   36.8810   26.4860   43.0750 H   0  0  0  0  0  0  0  0  0  0  0  0
   36.4760   26.6590   41.2970 H   0  0  0  0  0  0  0  0  0  0  0  0
   38.7450   26.5090   40.7140 H   0  0  0  0  0  0  0  0  0  0  0  0
   40.8830   26.5320   42.2920 C   0  0  0  0  0  0  0  0  0  0  0  0
   41.6650   27.1990   43.2370 C   0  0  0  0  0  0  0  0  0  0  0  0
   42.9780   27.5810   42.9230 C   0  0  0  0  0  0  0  0  0  0  0  0
   43.4070   27.2520   41.6440 N   0  0  0  0  0  0  0  0  0  0  0  0
   42.6230   26.6100   40.7600 C   0  0  0  0  0  0  0  0  0  0  0  0
   41.3640   26.2540   41.0920 N   0  0  0  0  0  0  0  0  0  0  0  0
   41.4930   27.5360   44.2470 H   0  0  0  0  0  0  0  0  0  0  0  0
   43.6960   28.0850   43.5150 H   0  0  0  0  0  0  0  0  0  0  0  0
   42.9600   26.3610   39.7820 H   0  0  0  0  0  0  0  0  0  0  0  0
   38.4600   28.2160   41.9740 C   0  0  2  0  0  0  0  0  0  0  0  0
   37.8720   28.7360   43.2690 C   0  0  0  0  0  0  0  0  0  0  0  0
   37.1820   28.9550   41.9750 C   0  0  1  0  0  0  0  0  0  0  0  0
   39.3840   28.7240   41.6220 H   0  0  0  0  0  0  0  0  0  0  0  0
   38.4190   29.5620   43.7590 H   0  0  0  0  0  0  0  0  0  0  0  0
   37.4680   28.0060   44.0110 H   0  0  0  0  0  0  0  0  0  0  0  0
   36.2260   28.4180   41.8450 H   0  0  0  0  0  0  0  0  0  0  0  0
   37.2530   30.3250   41.3980 C   0  0  0  0  0  0  0  0  0  0  0  0
   38.3490   31.0940   41.1850 N   0  0  0  0  0  0  0  0  0  0  0  0
   37.9800   32.2730   40.6440 C   0  0  0  0  0  0  0  0  0  0  0  0
   38.6320   33.1020   40.3600 H   0  0  0  0  0  0  0  0  0  0  0  0
   36.6350   32.2500   40.5140 N   0  0  0  0  0  0  0  0  0  0  0  0
   35.9910   32.9980   40.1280 H   0  0  0  0  0  0  0  0  0  0  0  0
   36.1940   31.0730   40.9690 N   0  0  0  0  0  0  0  0  0  0  0  0
  1  2  1  0  0  0  0
  1  7  1  1  0  0  0
  2  9  1  0  0  0  0
  3 11  1  0  0  0  0
  3  2  1  0  0  0  0
  4  5  1  0  0  0  0
  4  3  1  0  0  0  0
  4 12  1  0  0  0  0
  5 14  1  0  0  0  0
  6 16  1  6  0  0  0
  6 26  1  0  0  0  0
  6  5  1  0  0  0  0
  6  1  1  0  0  0  0
  8  2  1  0  0  0  0
 10  3  1  0  0  0  0
 13  4  1  0  0  0  0
 15  5  1  0  0  0  0
 17  1  1  0  0  0  0
 17 18  1  0  0  0  0
 18 23  1  0  0  0  0
 19 18  2  0  0  0  0
 19 24  1  0  0  0  0
 20 19  1  0  0  0  0
 21 22  1  0  0  0  0
 21 20  2  0  0  0  0
 22 17  2  0  0  0  0
 25 21  1  0  0  0  0
 26 29  1  6  0  0  0
 26 28  1  0  0  0  0
 26 27  1  0  0  0  0
 27 30  1  0  0  0  0
 27 31  1  0  0  0  0
 28 32  1  6  0  0  0
 28 27  1  0  0  0  0
 33 28  1  0  0  0  0
 34 33  1  0  0  0  0
 35 34  2  0  0  0  0
 36 35  1  0  0  0  0
 37 35  1  0  0  0  0
 37 39  1  0  0  0  0
 38 37  1  0  0  0  0
 39 33  2  0  0  0  0
M  END
>  <minimizedAffinity>
-5.37067986

$$$$

 OpenBabel03242511593D

 39 42  0  0  1  0  0  0  0  0999 V2000
   36.9430   25.4800   41.1850 C   0  0  2  0  0  0  0  0  0  0  0  0
   36.9140   24.0260   41.4870 C   0  0  0  0  0  0  0  0  0  0  0  0
   37.2420   23.1770   40.3100 C   0  0  0  0  0  0  0  0  0  0  0  0
   36.3980   23.4610   39.1060 C   0  0  0  0  0  0  0  0  0  0  0  0
   36.0940   24.9300   38.9090 C   0  0  0  0  0  0  0  0  0  0  0  0
   37.0110   25.8090   39.7210 C   0  0  1  0  0  0  0  0  0  0  0  0
   35.9970   25.9510   41.5950 H   0  0  0  0  0  0  0  0  0  0  0  0
   37.6140   23.7790   42.3040 H   0  0  0  0  0  0  0  0  0  0  0  0
   35.9010   23.7330   41.8330 H   0  0  0  0  0  0  0  0  0  0  0  0
   38.3320   23.2630   40.1020 H   0  0  0  0  0  0  0  0  0  0  0  0
   37.0630   22.1160   40.6040 H   0  0  0  0  0  0  0  0  0  0  0  0
   35.4910   22.8190   39.0270 H   0  0  0  0  0  0  0  0  0  0  0  0
   37.0210   23.1500   38.2180 H   0  0  0  0  0  0  0  0  0  0  0  0
   35.0690   25.0920   39.3110 H   0  0  0  0  0  0  0  0  0  0  0  0
   36.1820   25.2610   37.8670 H   0  0  0  0  0  0  0  0  0  0  0  0
   38.0100   25.7190   39.2660 H   0  0  0  0  0  0  0  0  0  0  0  0
   38.0390   26.1860   41.8820 C   0  0  0  0  0  0  0  0  0  0  0  0
   37.6240   27.0120   42.9290 C   0  0  0  0  0  0  0  0  0  0  0  0
   38.5700   27.7340   43.6740 C   0  0  0  0  0  0  0  0  0  0  0  0
   39.8930   27.5600   43.2910 N   0  0  0  0  0  0  0  0  0  0  0  0
   40.2530   26.7560   42.2750 C   0  0  0  0  0  0  0  0  0  0  0  0
   39.3210   26.0730   41.5770 N   0  0  0  0  0  0  0  0  0  0  0  0
   36.6630   27.2680   43.3450 H   0  0  0  0  0  0  0  0  0  0  0  0
   38.4270   28.3950   44.4880 H   0  0  0  0  0  0  0  0  0  0  0  0
   41.2700   26.6280   41.9880 H   0  0  0  0  0  0  0  0  0  0  0  0
   36.5150   27.2230   39.5560 C   0  0  2  0  0  0  0  0  0  0  0  0
   36.6710   27.8810   38.2000 C   0  0  0  0  0  0  0  0  0  0  0  0
   37.4350   28.3640   39.3760 C   0  0  1  0  0  0  0  0  0  0  0  0
   35.5390   27.3850   40.0650 H   0  0  0  0  0  0  0  0  0  0  0  0
   35.7980   28.4490   37.8290 H   0  0  0  0  0  0  0  0  0  0  0  0
   37.1810   27.3190   37.3830 H   0  0  0  0  0  0  0  0  0  0  0  0
   38.5270   28.2000   39.3360 H   0  0  0  0  0  0  0  0  0  0  0  0
   36.9810   29.6370   39.9980 C   0  0  0  0  0  0  0  0  0  0  0  0
   37.5100   30.8780   39.8590 N   0  0  0  0  0  0  0  0  0  0  0  0
   36.8000   31.7590   40.5940 C   0  0  0  0  0  0  0  0  0  0  0  0
   36.9780   32.8330   40.6900 H   0  0  0  0  0  0  0  0  0  0  0  0
   35.8120   31.0670   41.2040 N   0  0  0  0  0  0  0  0  0  0  0  0
   35.0590   31.4220   41.8590 H   0  0  0  0  0  0  0  0  0  0  0  0
   35.9200   29.7850   40.8440 N   0  0  0  0  0  0  0  0  0  0  0  0
  1  2  1  0  0  0  0
  1  7  1  1  0  0  0
  1 17  1  0  0  0  0
  2  9  1  0  0  0  0
  2  8  1  0  0  0  0
  3 11  1  0  0  0  0
  3  2  1  0  0  0  0
  4  3  1  0  0  0  0
  5  4  1  0  0  0  0
  5 14  1  0  0  0  0
  5  6  1  0  0  0  0
  6 16  1  6  0  0  0
  6  1  1  0  0  0  0
 10  3  1  0  0  0  0
 12  4  1  0  0  0  0
 13  4  1  0  0  0  0
 15  5  1  0  0  0  0
 17 18  1  0  0  0  0
 18 23  1  0  0  0  0
 18 19  2  0  0  0  0
 19 24  1  0  0  0  0
 20 19  1  0  0  0  0
 21 20  2  0  0  0  0
 22 17  2  0  0  0  0
 22 21  1  0  0  0  0
 25 21  1  0  0  0  0
 26  6  1  0  0  0  0
 26 29  1  1  0  0  0
 27 28  1  0  0  0  0
 27 26  1  0  0  0  0
 28 32  1  1  0  0  0
 28 26  1  0  0  0  0
 28 33  1  0  0  0  0
 30 27  1  0  0  0  0
 31 27  1  0  0  0  0
 33 39  2  0  0  0  0
 34 33  1  0  0  0  0
 34 35  2  0  0  0  0
 35 36  1  0  0  0  0
 35 37  1  0  0  0  0
 37 38  1  0  0  0  0
 39 37  1  0  0  0  0
M  END
>  <minimizedAffinity>
-5.28780699

$$$$

 OpenBabel03242511593D

 39 42  0  0  1  0  0  0  0  0999 V2000
   39.4240   26.5640   41.1960 C   0  0  2  0  0  0  0  0  0  0  0  0
   40.1840   25.2870   41.1780 C   0  0  0  0  0  0  0  0  0  0  0  0
   39.8950   24.4170   42.3490 C   0  0  0  0  0  0  0  0  0  0  0  0
   40.0830   25.0990   43.6700 C   0  0  0  0  0  0  0  0  0  0  0  0
   39.6290   26.5430   43.6770 C   0  0  0  0  0  0  0  0  0  0  0  0
   38.7430   26.8610   42.5010 C   0  0  1  0  0  0  0  0  0  0  0  0
   40.1440   27.4130   40.9860 H   0  0  0  0  0  0  0  0  0  0  0  0
   39.9740   24.7170   40.2560 H   0  0  0  0  0  0  0  0  0  0  0  0
   41.2740   25.4980   41.1830 H   0  0  0  0  0  0  0  0  0  0  0  0
   38.8770   23.9840   42.2290 H   0  0  0  0  0  0  0  0  0  0  0  0
   40.6070   23.5580   42.3100 H   0  0  0  0  0  0  0  0  0  0  0  0
   41.0970   24.9650   44.1090 H   0  0  0  0  0  0  0  0  0  0  0  0
   39.4070   24.5560   44.3910 H   0  0  0  0  0  0  0  0  0  0  0  0
   40.5480   27.1580   43.5530 H   0  0  0  0  0  0  0  0  0  0  0  0
   39.0680   26.8220   44.5780 H   0  0  0  0  0  0  0  0  0  0  0  0
   37.7970   26.3230   42.6700 H   0  0  0  0  0  0  0  0  0  0  0  0
   38.4260   26.6480   40.1080 C   0  0  0  0  0  0  0  0  0  0  0  0
   37.3700   25.7410   40.2170 C   0  0  0  0  0  0  0  0  0  0  0  0
   36.3540   25.7240   39.2500 C   0  0  0  0  0  0  0  0  0  0  0  0
   36.4890   26.6480   38.2220 N   0  0  0  0  0  0  0  0  0  0  0  0
   37.5220   27.5050   38.1510 C   0  0  0  0  0  0  0  0  0  0  0  0
   38.4850   27.4990   39.0970 N   0  0  0  0  0  0  0  0  0  0  0  0
   37.1190   24.9670   40.9230 H   0  0  0  0  0  0  0  0  0  0  0  0
   35.4930   25.1100   39.1840 H   0  0  0  0  0  0  0  0  0  0  0  0
   37.6180   28.2110   37.3590 H   0  0  0  0  0  0  0  0  0  0  0  0
   38.4840   28.3470   42.5410 C   0  0  2  0  0  0  0  0  0  0  0  0
   37.5660   28.8820   43.6210 C   0  0  0  0  0  0  0  0  0  0  0  0
   37.1720   28.9270   42.1920 C   0  0  1  0  0  0  0  0  0  0  0  0
   39.4090   28.9360   42.3540 H   0  0  0  0  0  0  0  0  0  0  0  0
   37.9010   29.7990   44.1380 H   0  0  0  0  0  0  0  0  0  0  0  0
   37.0790   28.1630   44.3210 H   0  0  0  0  0  0  0  0  0  0  0  0
   36.3290   28.2720   41.9070 H   0  0  0  0  0  0  0  0  0  0  0  0
   37.2350   30.2510   41.5180 C   0  0  0  0  0  0  0  0  0  0  0  0
   38.3320   30.9730   41.1770 N   0  0  0  0  0  0  0  0  0  0  0  0
   37.9540   32.1220   40.5820 C   0  0  0  0  0  0  0  0  0  0  0  0
   38.6040   32.9110   40.1960 H   0  0  0  0  0  0  0  0  0  0  0  0
   36.6030   32.1290   40.5460 N   0  0  0  0  0  0  0  0  0  0  0  0
   35.9510   32.8670   40.1540 H   0  0  0  0  0  0  0  0  0  0  0  0
   36.1670   30.9990   41.1110 N   0  0  0  0  0  0  0  0  0  0  0  0
  1  7  1  6  0  0  0
  1  6  1  0  0  0  0
  2  9  1  0  0  0  0
  2  1  1  0  0  0  0
  2  3  1  0  0  0  0
  3  4  1  0  0  0  0
  4  5  1  0  0  0  0
  4 12  1  0  0  0  0
  4 13  1  0  0  0  0
  5 15  1  0  0  0  0
  6 26  1  0  0  0  0
  6 16  1  1  0  0  0
  6  5  1  0  0  0  0
  8  2  1  0  0  0  0
 10  3  1  0  0  0  0
 11  3  1  0  0  0  0
 14  5  1  0  0  0  0
 17 18  1  0  0  0  0
 17  1  1  0  0  0  0
 18 23  1  0  0  0  0
 19 18  2  0  0  0  0
 20 19  1  0  0  0  0
 21 20  2  0  0  0  0
 21 22  1  0  0  0  0
 22 17  2  0  0  0  0
 24 19  1  0  0  0  0
 25 21  1  0  0  0  0
 26 29  1  6  0  0  0
 26 27  1  0  0  0  0
 27 30  1  0  0  0  0
 27 31  1  0  0  0  0
 28 32  1  6  0  0  0
 28 26  1  0  0  0  0
 28 27  1  0  0  0  0
 33 28  1  0  0  0  0
 34 33  1  0  0  0  0
 35 34  2  0  0  0  0
 36 35  1  0  0  0  0
 37 35  1  0  0  0  0
 37 39  1  0  0  0  0
 38 37  1  0  0  0  0
 39 33  2  0  0  0  0
M  END
>  <minimizedAffinity>
-5.27286625

$$$$

 OpenBabel03242511593D

 39 42  0  0  1  0  0  0  0  0999 V2000
   39.6330   26.2070   41.3760 C   0  0  2  0  0  0  0  0  0  0  0  0
   40.8940   25.4270   41.2820 C   0  0  0  0  0  0  0  0  0  0  0  0
   41.3320   24.8620   42.5870 C   0  0  0  0  0  0  0  0  0  0  0  0
   41.4480   25.8810   43.6790 C   0  0  0  0  0  0  0  0  0  0  0  0
   40.3610   26.9340   43.6440 C   0  0  0  0  0  0  0  0  0  0  0  0
   39.1990   26.5170   42.7800 C   0  0  1  0  0  0  0  0  0  0  0  0
   39.7810   27.1950   40.8400 H   0  0  0  0  0  0  0  0  0  0  0  0
   40.7940   24.6000   40.5580 H   0  0  0  0  0  0  0  0  0  0  0  0
   41.7140   26.0790   40.9140 H   0  0  0  0  0  0  0  0  0  0  0  0
   40.6570   24.0190   42.8550 H   0  0  0  0  0  0  0  0  0  0  0  0
   42.3440   24.4160   42.4350 H   0  0  0  0  0  0  0  0  0  0  0  0
   42.4660   26.3170   43.7860 H   0  0  0  0  0  0  0  0  0  0  0  0
   41.2990   25.3120   44.6420 H   0  0  0  0  0  0  0  0  0  0  0  0
   40.8100   27.8270   43.1550 H   0  0  0  0  0  0  0  0  0  0  0  0
   39.9490   27.1730   44.6330 H   0  0  0  0  0  0  0  0  0  0  0  0
   38.6990   25.6910   43.3100 H   0  0  0  0  0  0  0  0  0  0  0  0
   38.5100   25.5630   40.6620 C   0  0  0  0  0  0  0  0  0  0  0  0
   38.0090   24.4170   41.2810 C   0  0  0  0  0  0  0  0  0  0  0  0
   36.9380   23.7160   40.7060 C   0  0  0  0  0  0  0  0  0  0  0  0
   36.4480   24.2420   39.5180 N   0  0  0  0  0  0  0  0  0  0  0  0
   36.9590   25.3490   38.9510 C   0  0  0  0  0  0  0  0  0  0  0  0
   37.9890   26.0030   39.5290 N   0  0  0  0  0  0  0  0  0  0  0  0
   38.2700   23.8750   42.1760 H   0  0  0  0  0  0  0  0  0  0  0  0
   36.4440   22.8420   41.0410 H   0  0  0  0  0  0  0  0  0  0  0  0
   36.5760   25.7460   38.0400 H   0  0  0  0  0  0  0  0  0  0  0  0
   38.2640   27.6980   42.7090 C   0  0  2  0  0  0  0  0  0  0  0  0
   37.1030   27.7500   43.6800 C   0  0  0  0  0  0  0  0  0  0  0  0
   36.8750   27.5750   42.2250 C   0  0  1  0  0  0  0  0  0  0  0  0
   38.8120   28.6540   42.5560 H   0  0  0  0  0  0  0  0  0  0  0  0
   36.9110   28.7250   44.1630 H   0  0  0  0  0  0  0  0  0  0  0  0
   36.9500   26.8980   44.3840 H   0  0  0  0  0  0  0  0  0  0  0  0
   36.4760   26.5920   41.9180 H   0  0  0  0  0  0  0  0  0  0  0  0
   36.3670   28.7560   41.4760 C   0  0  0  0  0  0  0  0  0  0  0  0
   36.8190   30.0340   41.5120 N   0  0  0  0  0  0  0  0  0  0  0  0
   36.0810   30.8010   40.6820 C   0  0  0  0  0  0  0  0  0  0  0  0
   36.1980   31.8700   40.4920 H   0  0  0  0  0  0  0  0  0  0  0  0
   35.1520   29.9980   40.1160 N   0  0  0  0  0  0  0  0  0  0  0  0
   34.3990   30.2460   39.4140 H   0  0  0  0  0  0  0  0  0  0  0  0
   35.3240   28.7620   40.5950 N   0  0  0  0  0  0  0  0  0  0  0  0
  1  7  1  6  0  0  0
  1  6  1  0  0  0  0
  2  1  1  0  0  0  0
  2  3  1  0  0  0  0
  3 10  1  0  0  0  0
  3  4  1  0  0  0  0
  4 12  1  0  0  0  0
  4 13  1  0  0  0  0
  5  4  1  0  0  0  0
  5 15  1  0  0  0  0
  6 16  1  1  0  0  0
  6  5  1  0  0  0  0
  8  2  1  0  0  0  0
  9  2  1  0  0  0  0
 11  3  1  0  0  0  0
 14  5  1  0  0  0  0
 17 18  1  0  0  0  0
 17  1  1  0  0  0  0
 18 23  1  0  0  0  0
 19 24  1  0  0  0  0
 19 18  2  0  0  0  0
 20 19  1  0  0  0  0
 21 20  2  0  0  0  0
 21 22  1  0  0  0  0
 22 17  2  0  0  0  0
 25 21  1  0  0  0  0
 26 29  1  6  0  0  0
 26  6  1  0  0  0  0
 26 27  1  0  0  0  0
 27 30  1  0  0  0  0
 27 31  1  0  0  0  0
 28 32  1  6  0  0  0
 28 26  1  0  0  0  0
 28 27  1  0  0  0  0
 33 34  1  0  0  0  0
 33 28  1  0  0  0  0
 35 34  2  0  0  0  0
 36 35  1  0  0  0  0
 37 39  1  0  0  0  0
 37 35  1  0  0  0  0
 38 37  1  0  0  0  0
 39 33  2  0  0  0  0
M  END
>  <minimizedAffinity>
-5.25107574

$$$$

 OpenBabel03242511593D

 39 42  0  0  1  0  0  0  0  0999 V2000
   36.0100   29.6590   40.0650 C   0  0  2  0  0  0  0  0  0  0  0  0
   34.6860   29.0570   39.7640 C   0  0  0  0  0  0  0  0  0  0  0  0
   34.6450   28.3580   38.4500 C   0  0  0  0  0  0  0  0  0  0  0  0
   35.0880   29.2090   37.2990 C   0  0  0  0  0  0  0  0  0  0  0  0
   36.2520   30.1180   37.6290 C   0  0  0  0  0  0  0  0  0  0  0  0
   36.9530   29.7010   38.8960 C   0  0  1  0  0  0  0  0  0  0  0  0
   35.8490   30.7260   40.4100 H   0  0  0  0  0  0  0  0  0  0  0  0
   34.3900   28.3420   40.5510 H   0  0  0  0  0  0  0  0  0  0  0  0
   33.9090   29.8480   39.7400 H   0  0  0  0  0  0  0  0  0  0  0  0
   35.2230   27.4100   38.5330 H   0  0  0  0  0  0  0  0  0  0  0  0
   33.5860   28.0630   38.2630 H   0  0  0  0  0  0  0  0  0  0  0  0
   34.2580   29.7410   36.7840 H   0  0  0  0  0  0  0  0  0  0  0  0
   35.4680   28.4880   36.5190 H   0  0  0  0  0  0  0  0  0  0  0  0
   35.8140   31.1220   37.8300 H   0  0  0  0  0  0  0  0  0  0  0  0
   37.0170   30.1560   36.8430 H   0  0  0  0  0  0  0  0  0  0  0  0
   37.4630   28.7510   38.6700 H   0  0  0  0  0  0  0  0  0  0  0  0
   36.6910   29.0010   41.2010 C   0  0  0  0  0  0  0  0  0  0  0  0
   36.8590   27.6230   41.0580 C   0  0  0  0  0  0  0  0  0  0  0  0
   37.4950   26.8820   42.0650 C   0  0  0  0  0  0  0  0  0  0  0  0
   37.9210   27.6120   43.1670 N   0  0  0  0  0  0  0  0  0  0  0  0
   37.7390   28.9400   43.2700 C   0  0  0  0  0  0  0  0  0  0  0  0
   37.1240   29.6260   42.2830 N   0  0  0  0  0  0  0  0  0  0  0  0
   36.5880   26.9110   40.2950 H   0  0  0  0  0  0  0  0  0  0  0  0
   37.7020   25.8450   42.1140 H   0  0  0  0  0  0  0  0  0  0  0  0
   38.0690   29.4930   44.1180 H   0  0  0  0  0  0  0  0  0  0  0  0
   37.9840   30.7610   39.1920 C   0  0  2  0  0  0  0  0  0  0  0  0
   37.4980   32.1520   39.5420 C   0  0  0  0  0  0  0  0  0  0  0  0
   38.2310   31.8950   38.2790 C   0  0  1  0  0  0  0  0  0  0  0  0
   38.8200   30.3680   39.8120 H   0  0  0  0  0  0  0  0  0  0  0  0
   38.0030   32.6470   40.3910 H   0  0  0  0  0  0  0  0  0  0  0  0
   36.4020   32.3600   39.5300 H   0  0  0  0  0  0  0  0  0  0  0  0
   37.6410   32.0050   37.3520 H   0  0  0  0  0  0  0  0  0  0  0  0
   39.6460   32.3500   38.2180 C   0  0  0  0  0  0  0  0  0  0  0  0
   40.3360   33.0850   39.1250 N   0  0  0  0  0  0  0  0  0  0  0  0
   41.5960   33.2820   38.6880 C   0  0  0  0  0  0  0  0  0  0  0  0
   42.3920   33.8340   39.1940 H   0  0  0  0  0  0  0  0  0  0  0  0
   41.7050   32.6660   37.4900 N   0  0  0  0  0  0  0  0  0  0  0  0
   42.5460   32.6060   36.8470 H   0  0  0  0  0  0  0  0  0  0  0  0
   40.5280   32.1020   37.2050 N   0  0  0  0  0  0  0  0  0  0  0  0
  1  7  1  1  0  0  0
  1 17  1  0  0  0  0
  2  1  1  0  0  0  0
  2  8  1  0  0  0  0
  3 10  1  0  0  0  0
  3  2  1  0  0  0  0
  4  5  1  0  0  0  0
  4  3  1  0  0  0  0
  5 14  1  0  0  0  0
  5  6  1  0  0  0  0
  6 16  1  6  0  0  0
  6 26  1  0  0  0  0
  6  1  1  0  0  0  0
  9  2  1  0  0  0  0
 11  3  1  0  0  0  0
 12  4  1  0  0  0  0
 13  4  1  0  0  0  0
 15  5  1  0  0  0  0
 17 22  1  0  0  0  0
 18 17  2  0  0  0  0
 18 19  1  0  0  0  0
 19 24  1  0  0  0  0
 19 20  2  0  0  0  0
 20 21  1  0  0  0  0
 21 25  1  0  0  0  0
 22 21  2  0  0  0  0
 23 18  1  0  0  0  0
 26 27  1  0  0  0  0
 26 29  1  1  0  0  0
 27 30  1  0  0  0  0
 28 32  1  6  0  0  0
 28 26  1  0  0  0  0
 28 27  1  0  0  0  0
 31 27  1  0  0  0  0
 33 28  1  0  0  0  0
 33 34  1  0  0  0  0
 35 34  2  0  0  0  0
 35 36  1  0  0  0  0
 37 35  1  0  0  0  0
 38 37  1  0  0  0  0
 39 37  1  0  0  0  0
 39 33  2  0  0  0  0
M  END
>  <minimizedAffinity>
-5.17992878

$$$$

 OpenBabel03242511593D

 39 42  0  0  1  0  0  0  0  0999 V2000
   37.6400   26.6440   39.9870 C   0  0  2  0  0  0  0  0  0  0  0  0
   37.3410   25.3260   39.3690 C   0  0  0  0  0  0  0  0  0  0  0  0
   36.3780   24.5120   40.1600 C   0  0  0  0  0  0  0  0  0  0  0  0
   36.7820   24.3200   41.5900 C   0  0  0  0  0  0  0  0  0  0  0  0
   37.4170   25.5450   42.2110 C   0  0  0  0  0  0  0  0  0  0  0  0
   37.1550   26.7890   41.4020 C   0  0  1  0  0  0  0  0  0  0  0  0
   38.7640   26.7890   39.9960 H   0  0  0  0  0  0  0  0  0  0  0  0
   36.9380   25.4520   38.3480 H   0  0  0  0  0  0  0  0  0  0  0  0
   38.2740   24.7340   39.2740 H   0  0  0  0  0  0  0  0  0  0  0  0
   35.3640   24.9580   40.0550 H   0  0  0  0  0  0  0  0  0  0  0  0
   36.3270   23.5030   39.6860 H   0  0  0  0  0  0  0  0  0  0  0  0
   37.3670   23.3920   41.7740 H   0  0  0  0  0  0  0  0  0  0  0  0
   35.8220   24.1460   42.1550 H   0  0  0  0  0  0  0  0  0  0  0  0
   38.5170   25.3760   42.1770 H   0  0  0  0  0  0  0  0  0  0  0  0
   37.0660   25.7530   43.2300 H   0  0  0  0  0  0  0  0  0  0  0  0
   36.0810   27.0090   41.5100 H   0  0  0  0  0  0  0  0  0  0  0  0
   37.1260   27.7780   39.1900 C   0  0  0  0  0  0  0  0  0  0  0  0
   35.7340   27.8800   39.1550 C   0  0  0  0  0  0  0  0  0  0  0  0
   35.1220   28.9180   38.4360 C   0  0  0  0  0  0  0  0  0  0  0  0
   35.9870   29.7910   37.7910 N   0  0  0  0  0  0  0  0  0  0  0  0
   37.3240   29.6580   37.8460 C   0  0  0  0  0  0  0  0  0  0  0  0
   37.8850   28.6500   38.5470 N   0  0  0  0  0  0  0  0  0  0  0  0
   34.9310   27.2990   39.5770 H   0  0  0  0  0  0  0  0  0  0  0  0
   34.0940   29.1380   38.3090 H   0  0  0  0  0  0  0  0  0  0  0  0
   37.9810   30.3330   37.3490 H   0  0  0  0  0  0  0  0  0  0  0  0
   37.9560   27.8980   42.0370 C   0  0  2  0  0  0  0  0  0  0  0  0
   37.4740   28.4590   43.3590 C   0  0  0  0  0  0  0  0  0  0  0  0
   37.4510   29.2820   42.1250 C   0  0  1  0  0  0  0  0  0  0  0  0
   39.0510   27.7200   41.9550 H   0  0  0  0  0  0  0  0  0  0  0  0
   38.2470   28.6290   44.1290 H   0  0  0  0  0  0  0  0  0  0  0  0
   36.5260   28.0690   43.7980 H   0  0  0  0  0  0  0  0  0  0  0  0
   36.4470   29.5370   41.7390 H   0  0  0  0  0  0  0  0  0  0  0  0
   38.4930   30.3360   41.9990 C   0  0  0  0  0  0  0  0  0  0  0  0
   38.6340   31.2710   41.0270 N   0  0  0  0  0  0  0  0  0  0  0  0
   39.7120   32.0380   41.2850 C   0  0  0  0  0  0  0  0  0  0  0  0
   40.0870   32.8730   40.6890 H   0  0  0  0  0  0  0  0  0  0  0  0
   40.2610   31.5830   42.4340 N   0  0  0  0  0  0  0  0  0  0  0  0
   41.1180   31.9370   42.9470 H   0  0  0  0  0  0  0  0  0  0  0  0
   39.5250   30.5550   42.8670 N   0  0  0  0  0  0  0  0  0  0  0  0
  1  7  1  1  0  0  0
  1  6  1  0  0  0  0
  2  1  1  0  0  0  0
  2  3  1  0  0  0  0
  3  4  1  0  0  0  0
  4 12  1  0  0  0  0
  4 13  1  0  0  0  0
  4  5  1  0  0  0  0
  5 15  1  0  0  0  0
  6 16  1  1  0  0  0
  6 26  1  0  0  0  0
  6  5  1  0  0  0  0
  8  2  1  0  0  0  0
  9  2  1  0  0  0  0
 10  3  1  0  0  0  0
 11  3  1  0  0  0  0
 14  5  1  0  0  0  0
 17  1  1  0  0  0  0
 18 17  1  0  0  0  0
 18 23  1  0  0  0  0
 19 18  2  0  0  0  0
 20 21  2  0  0  0  0
 20 19  1  0  0  0  0
 21 22  1  0  0  0  0
 22 17  2  0  0  0  0
 24 19  1  0  0  0  0
 25 21  1  0  0  0  0
 26 29  1  6  0  0  0
 26 28  1  0  0  0  0
 26 27  1  0  0  0  0
 27 31  1  0  0  0  0
 27 30  1  0  0  0  0
 28 32  1  6  0  0  0
 28 27  1  0  0  0  0
 33 28  1  0  0  0  0
 33 39  2  0  0  0  0
 34 35  2  0  0  0  0
 34 33  1  0  0  0  0
 35 37  1  0  0  0  0
 36 35  1  0  0  0  0
 37 39  1  0  0  0  0
 37 38  1  0  0  0  0
M  END
>  <minimizedAffinity>
-5.15089798

$$$$

 OpenBabel03242511593D

 39 42  0  0  1  0  0  0  0  0999 V2000
   36.6880   30.3500   40.7220 C   0  0  2  0  0  0  0  0  0  0  0  0
   36.9210   31.8140   40.6390 C   0  0  0  0  0  0  0  0  0  0  0  0
   38.3560   32.1700   40.4680 C   0  0  0  0  0  0  0  0  0  0  0  0
   39.2550   31.5720   41.5070 C   0  0  0  0  0  0  0  0  0  0  0  0
   38.8730   30.1620   41.9020 C   0  0  0  0  0  0  0  0  0  0  0  0
   37.9340   29.5320   40.9050 C   0  0  1  0  0  0  0  0  0  0  0  0
   36.0130   30.1440   41.6100 H   0  0  0  0  0  0  0  0  0  0  0  0
   36.3480   32.2590   39.8060 H   0  0  0  0  0  0  0  0  0  0  0  0
   36.5680   32.3060   41.5690 H   0  0  0  0  0  0  0  0  0  0  0  0
   38.6660   31.9120   39.4310 H   0  0  0  0  0  0  0  0  0  0  0  0
   38.4370   33.2800   40.5510 H   0  0  0  0  0  0  0  0  0  0  0  0
   39.4320   32.2320   42.3860 H   0  0  0  0  0  0  0  0  0  0  0  0
   40.2700   31.4960   41.0220 H   0  0  0  0  0  0  0  0  0  0  0  0
   38.3050   30.2490   42.8550 H   0  0  0  0  0  0  0  0  0  0  0  0
   39.7310   29.4850   41.9970 H   0  0  0  0  0  0  0  0  0  0  0  0
   38.5220   29.3620   39.9900 H   0  0  0  0  0  0  0  0  0  0  0  0
   35.9400   29.8250   39.5600 C   0  0  0  0  0  0  0  0  0  0  0  0
   36.6100   29.9370   38.3400 C   0  0  0  0  0  0  0  0  0  0  0  0
   36.0100   29.4700   37.1610 C   0  0  0  0  0  0  0  0  0  0  0  0
   34.7470   28.9140   37.3110 N   0  0  0  0  0  0  0  0  0  0  0  0
   34.1320   28.8250   38.5040 C   0  0  0  0  0  0  0  0  0  0  0  0
   34.7360   29.2820   39.6220 N   0  0  0  0  0  0  0  0  0  0  0  0
   37.5660   30.3400   38.0460 H   0  0  0  0  0  0  0  0  0  0  0  0
   36.3760   29.4770   36.1670 H   0  0  0  0  0  0  0  0  0  0  0  0
   33.1630   28.3970   38.6110 H   0  0  0  0  0  0  0  0  0  0  0  0
   37.5160   28.2030   41.4820 C   0  0  2  0  0  0  0  0  0  0  0  0
   37.0760   28.1600   42.9300 C   0  0  0  0  0  0  0  0  0  0  0  0
   38.3260   27.4940   42.4930 C   0  0  1  0  0  0  0  0  0  0  0  0
   36.8970   27.6150   40.7680 H   0  0  0  0  0  0  0  0  0  0  0  0
   36.1710   27.5640   43.1500 H   0  0  0  0  0  0  0  0  0  0  0  0
   37.1130   29.0970   43.5350 H   0  0  0  0  0  0  0  0  0  0  0  0
   39.2630   27.9400   42.8710 H   0  0  0  0  0  0  0  0  0  0  0  0
   38.2970   26.0100   42.3870 C   0  0  0  0  0  0  0  0  0  0  0  0
   37.3780   25.2270   41.7700 N   0  0  0  0  0  0  0  0  0  0  0  0
   37.7200   23.9290   41.9070 C   0  0  0  0  0  0  0  0  0  0  0  0
   37.1820   23.0600   41.5220 H   0  0  0  0  0  0  0  0  0  0  0  0
   38.8680   23.8920   42.6190 N   0  0  0  0  0  0  0  0  0  0  0  0
   39.4350   23.0490   42.9230 H   0  0  0  0  0  0  0  0  0  0  0  0
   39.2180   25.1480   42.9100 N   0  0  0  0  0  0  0  0  0  0  0  0
  1  6  1  0  0  0  0
  1  7  1  1  0  0  0
  2  1  1  0  0  0  0
  2  9  1  0  0  0  0
  3 11  1  0  0  0  0
  3  2  1  0  0  0  0
  3  4  1  0  0  0  0
  4  5  1  0  0  0  0
  4 12  1  0  0  0  0
  5 15  1  0  0  0  0
  5 14  1  0  0  0  0
  6 16  1  6  0  0  0
  6 26  1  0  0  0  0
  6  5  1  0  0  0  0
  8  2  1  0  0  0  0
 10  3  1  0  0  0  0
 13  4  1  0  0  0  0
 17 22  1  0  0  0  0
 17  1  1  0  0  0  0
 18 17  2  0  0  0  0
 19 20  2  0  0  0  0
 19 18  1  0  0  0  0
 20 21  1  0  0  0  0
 21 25  1  0  0  0  0
 21 22  2  0  0  0  0
 23 18  1  0  0  0  0
 24 19  1  0  0  0  0
 26 29  1  6  0  0  0
 26 28  1  0  0  0  0
 26 27  1  0  0  0  0
 27 30  1  0  0  0  0
 27 31  1  0  0  0  0
 28 32  1  1  0  0  0
 28 27  1  0  0  0  0
 33 28  1  0  0  0  0
 33 39  2  0  0  0  0
 34 35  2  0  0  0  0
 34 33  1  0  0  0  0
 35 37  1  0  0  0  0
 36 35  1  0  0  0  0
 37 39  1  0  0  0  0
 37 38  1  0  0  0  0
M  END
>  <minimizedAffinity>
-5.08899117

$$$$

 OpenBabel03242511593D

 39 42  0  0  1  0  0  0  0  0999 V2000
   38.8500   28.6470   42.7160 C   0  0  2  0  0  0  0  0  0  0  0  0
   39.1010   27.4070   43.4950 C   0  0  0  0  0  0  0  0  0  0  0  0
   38.4500   26.2050   42.9090 C   0  0  0  0  0  0  0  0  0  0  0  0
   36.9780   26.3680   42.6770 C   0  0  0  0  0  0  0  0  0  0  0  0
   36.5900   27.7460   42.1870 C   0  0  0  0  0  0  0  0  0  0  0  0
   37.7780   28.5180   41.6730 C   0  0  1  0  0  0  0  0  0  0  0  0
   38.5290   29.4630   43.4350 H   0  0  0  0  0  0  0  0  0  0  0  0
   40.1840   27.2110   43.5850 H   0  0  0  0  0  0  0  0  0  0  0  0
   38.7100   27.5240   44.5270 H   0  0  0  0  0  0  0  0  0  0  0  0
   39.0010   25.9150   41.9870 H   0  0  0  0  0  0  0  0  0  0  0  0
   38.5860   25.3660   43.6320 H   0  0  0  0  0  0  0  0  0  0  0  0
   36.3450   26.0170   43.5220 H   0  0  0  0  0  0  0  0  0  0  0  0
   36.7230   25.6560   41.8400 H   0  0  0  0  0  0  0  0  0  0  0  0
   36.2190   28.2990   43.0790 H   0  0  0  0  0  0  0  0  0  0  0  0
   35.8490   27.7310   41.3780 H   0  0  0  0  0  0  0  0  0  0  0  0
   38.0880   28.0230   40.7390 H   0  0  0  0  0  0  0  0  0  0  0  0
   40.0740   29.1770   42.0780 C   0  0  0  0  0  0  0  0  0  0  0  0
   40.5690   28.3940   41.0330 C   0  0  0  0  0  0  0  0  0  0  0  0
   41.7230   28.7910   40.3410 C   0  0  0  0  0  0  0  0  0  0  0  0
   42.3020   29.9780   40.7720 N   0  0  0  0  0  0  0  0  0  0  0  0
   41.7950   30.7040   41.7850 C   0  0  0  0  0  0  0  0  0  0  0  0
   40.6820   30.2970   42.4310 N   0  0  0  0  0  0  0  0  0  0  0  0
   40.2620   27.4640   40.5850 H   0  0  0  0  0  0  0  0  0  0  0  0
   42.2240   28.3220   39.5350 H   0  0  0  0  0  0  0  0  0  0  0  0
   42.2450   31.6130   42.1090 H   0  0  0  0  0  0  0  0  0  0  0  0
   37.2890   29.9090   41.3590 C   0  0  2  0  0  0  0  0  0  0  0  0
   36.1350   30.0590   40.3890 C   0  0  0  0  0  0  0  0  0  0  0  0
   37.4940   30.5370   40.0390 C   0  0  1  0  0  0  0  0  0  0  0  0
   37.2460   30.5500   42.2670 H   0  0  0  0  0  0  0  0  0  0  0  0
   35.3460   30.7770   40.6740 H   0  0  0  0  0  0  0  0  0  0  0  0
   35.7130   29.1460   39.9070 H   0  0  0  0  0  0  0  0  0  0  0  0
   38.0030   29.9820   39.2300 H   0  0  0  0  0  0  0  0  0  0  0  0
   37.7210   32.0070   40.0740 C   0  0  0  0  0  0  0  0  0  0  0  0
   38.6230   32.7030   40.8100 N   0  0  0  0  0  0  0  0  0  0  0  0
   38.5030   34.0210   40.5500 C   0  0  0  0  0  0  0  0  0  0  0  0
   39.0860   34.8350   40.9840 H   0  0  0  0  0  0  0  0  0  0  0  0
   37.5130   34.1600   39.6400 N   0  0  0  0  0  0  0  0  0  0  0  0
   37.1350   35.0460   39.1980 H   0  0  0  0  0  0  0  0  0  0  0  0
   37.0400   32.9440   39.3510 N   0  0  0  0  0  0  0  0  0  0  0  0
  1  7  1  1  0  0  0
  1  2  1  0  0  0  0
  2  8  1  0  0  0  0
  2  9  1  0  0  0  0
  3  2  1  0  0  0  0
  3 11  1  0  0  0  0
  4  3  1  0  0  0  0
  4 12  1  0  0  0  0
  5  4  1  0  0  0  0
  5 14  1  0  0  0  0
  6 16  1  6  0  0  0
  6  5  1  0  0  0  0
  6  1  1  0  0  0  0
 10  3  1  0  0  0  0
 13  4  1  0  0  0  0
 15  5  1  0  0  0  0
 17 22  1  0  0  0  0
 17  1  1  0  0  0  0
 18 17  2  0  0  0  0
 19 20  2  0  0  0  0
 19 18  1  0  0  0  0
 20 21  1  0  0  0  0
 21 25  1  0  0  0  0
 21 22  2  0  0  0  0
 23 18  1  0  0  0  0
 24 19  1  0  0  0  0
 26  6  1  0  0  0  0
 26 29  1  1  0  0  0
 27 30  1  0  0  0  0
 27 26  1  0  0  0  0
 28 32  1  6  0  0  0
 28 33  1  0  0  0  0
 28 27  1  0  0  0  0
 28 26  1  0  0  0  0
 31 27  1  0  0  0  0
 33 34  1  0  0  0  0
 35 34  2  0  0  0  0
 35 36  1  0  0  0  0
 37 35  1  0  0  0  0
 38 37  1  0  0  0  0
 39 37  1  0  0  0  0
 39 33  2  0  0  0  0
M  END
>  <minimizedAffinity>
-5.06971169

$$$$
