
 OpenBabel03252501163D

 33 36  0  0  1  0  0  0  0  0999 V2000
   48.0390   33.7020   41.9300 C   0  0  1  0  0  0  0  0  0  0  0  0
   48.2420   34.7540   40.9100 C   0  0  0  0  0  0  0  0  0  0  0  0
   47.0210   33.7530   40.8840 C   0  0  2  0  0  0  0  0  0  0  0  0
   47.7350   34.0740   42.9540 H   0  0  0  0  0  0  0  0  0  0  0  0
   48.9500   34.6110   40.0780 H   0  0  0  0  0  0  0  0  0  0  0  0
   48.0020   35.8020   41.1180 H   0  0  0  0  0  0  0  0  0  0  0  0
   47.0560   33.0370   40.0630 H   0  0  0  0  0  0  0  0  0  0  0  0
   50.8700   31.4210   40.9770 C   0  0  0  0  0  0  0  0  0  0  0  0
   49.9790   32.4780   40.8940 C   0  0  0  0  0  0  0  0  0  0  0  0
   49.0550   32.6020   41.9170 C   0  0  0  0  0  0  0  0  0  0  0  0
   49.0540   31.7110   42.9340 N   0  0  0  0  0  0  0  0  0  0  0  0
   49.9470   30.6870   42.9750 C   0  0  0  0  0  0  0  0  0  0  0  0
   50.8570   30.5500   41.9850 N   0  0  0  0  0  0  0  0  0  0  0  0
   49.9870   33.1760   40.0870 H   0  0  0  0  0  0  0  0  0  0  0  0
   49.9380   29.9810   43.7920 H   0  0  0  0  0  0  0  0  0  0  0  0
   51.8860   31.2760   39.8850 C   0  0  0  0  0  0  0  0  0  0  0  0
   52.0620   29.9300   39.6630 F   0  0  0  0  0  0  0  0  0  0  0  0
   53.0740   31.7870   40.3640 F   0  0  0  0  0  0  0  0  0  0  0  0
   51.4740   31.8870   38.7360 F   0  0  0  0  0  0  0  0  0  0  0  0
   45.7400   34.4170   41.2370 C   0  0  0  0  0  0  0  0  0  0  0  0
   45.4490   35.1150   42.4040 C   0  0  0  0  0  0  0  0  0  0  0  0
   44.1510   35.5190   42.2210 C   0  0  0  0  0  0  0  0  0  0  0  0
   43.6880   35.0680   40.9670 C   0  0  0  0  0  0  0  0  0  0  0  0
   44.7030   34.4240   40.4600 O   0  0  0  0  0  0  0  0  0  0  0  0
   46.0910   35.2940   43.2520 H   0  0  0  0  0  0  0  0  0  0  0  0
   43.5580   36.0960   42.9190 H   0  0  0  0  0  0  0  0  0  0  0  0
   42.3490   35.3180   40.4440 C   0  0  0  0  0  0  0  0  0  0  0  0
   41.4330   35.7650   41.3460 N   0  0  0  0  0  0  0  0  0  0  0  0
   40.2550   35.9390   40.6810 C   0  0  0  0  0  0  0  0  0  0  0  0
   39.2880   36.2790   41.0300 H   0  0  0  0  0  0  0  0  0  0  0  0
   40.4800   35.5950   39.3920 N   0  0  0  0  0  0  0  0  0  0  0  0
   39.7850   35.6080   38.5900 H   0  0  0  0  0  0  0  0  0  0  0  0
   41.7550   35.2110   39.2230 N   0  0  0  0  0  0  0  0  0  0  0  0
  1  4  1  1  0  0  0
  2  6  1  0  0  0  0
  2  1  1  0  0  0  0
  3  7  1  6  0  0  0
  3  2  1  0  0  0  0
  3 20  1  0  0  0  0
  3  1  1  0  0  0  0
  5  2  1  0  0  0  0
  8 13  1  0  0  0  0
  9  8  2  0  0  0  0
  9 10  1  0  0  0  0
 10  1  1  0  0  0  0
 10 11  2  0  0  0  0
 11 12  1  0  0  0  0
 12 15  1  0  0  0  0
 13 12  2  0  0  0  0
 14  9  1  0  0  0  0
 16 18  1  0  0  0  0
 16  8  1  0  0  0  0
 17 16  1  0  0  0  0
 19 16  1  0  0  0  0
 20 21  2  0  0  0  0
 21 25  1  0  0  0  0
 22 21  1  0  0  0  0
 22 26  1  0  0  0  0
 23 22  2  0  0  0  0
 24 23  1  0  0  0  0
 24 20  1  0  0  0  0
 27 23  1  0  0  0  0
 27 28  1  0  0  0  0
 29 30  1  0  0  0  0
 29 28  2  0  0  0  0
 31 29  1  0  0  0  0
 32 31  1  0  0  0  0
 33 31  1  0  0  0  0
 33 27  2  0  0  0  0
M  END
>  <minimizedAffinity>
-5.12778759

>  <minimizedRMSD>
7.35589314

$$$$
