
 OpenBabel03252508383D

 39 42  0  0  0  0  0  0  0  0999 V2000
   45.1340   33.9600   40.7090 C   0  0  0  0  0  0  0  0  0  0  0  0
   44.0890   33.6360   39.8900 C   0  0  0  0  0  0  0  0  0  0  0  0
   44.3870   33.1330   38.6620 C   0  0  0  0  0  0  0  0  0  0  0  0
   45.6720   32.9350   38.2040 C   0  0  0  0  0  0  0  0  0  0  0  0
   46.6990   33.2690   39.0500 C   0  0  0  0  0  0  0  0  0  0  0  0
   46.4480   33.7830   40.3030 C   0  0  0  0  0  0  0  0  0  0  0  0
   43.5640   32.8730   38.0050 H   0  0  0  0  0  0  0  0  0  0  0  0
   45.8930   32.5290   37.2140 H   0  0  0  0  0  0  0  0  0  0  0  0
   47.7060   33.1120   38.6870 H   0  0  0  0  0  0  0  0  0  0  0  0
   40.8080   35.2770   40.7940 C   0  0  0  0  0  0  0  0  0  0  0  0
   42.1030   35.0970   40.2810 C   0  0  0  0  0  0  0  0  0  0  0  0
   42.7540   33.8590   40.4070 C   0  0  0  0  0  0  0  0  0  0  0  0
   42.0360   32.9020   41.0470 N   0  0  0  0  0  0  0  0  0  0  0  0
   40.8060   33.0860   41.5300 C   0  0  0  0  0  0  0  0  0  0  0  0
   40.1960   34.2750   41.4010 N   0  0  0  0  0  0  0  0  0  0  0  0
   40.2030   36.5370   40.6390 N   0  0  0  0  0  0  0  0  0  0  0  0
   42.6750   35.8640   39.7700 H   0  0  0  0  0  0  0  0  0  0  0  0
   40.3750   32.2160   42.0130 H   0  0  0  0  0  0  0  0  0  0  0  0
   40.7380   37.2720   41.1510 H   0  0  0  0  0  0  0  0  0  0  0  0
   39.3260   36.7040   40.0760 H   0  0  0  0  0  0  0  0  0  0  0  0
   47.6140   34.1070   41.1260 C   0  0  0  0  0  0  0  0  0  0  0  0
   48.1360   35.3590   40.9440 C   0  0  0  0  0  0  0  0  0  0  0  0
   49.2440   35.8320   41.6430 C   0  0  0  0  0  0  0  0  0  0  0  0
   49.8310   34.9740   42.5660 C   0  0  0  0  0  0  0  0  0  0  0  0
   49.3200   33.7170   42.7600 C   0  0  0  0  0  0  0  0  0  0  0  0
   48.2180   33.2730   42.0500 C   0  0  0  0  0  0  0  0  0  0  0  0
   47.7390   36.0850   40.2470 H   0  0  0  0  0  0  0  0  0  0  0  0
   49.6560   36.8030   41.5090 H   0  0  0  0  0  0  0  0  0  0  0  0
   50.6950   35.2540   43.1560 H   0  0  0  0  0  0  0  0  0  0  0  0
   49.7350   33.0070   43.4640 H   0  0  0  0  0  0  0  0  0  0  0  0
   47.6180   31.9400   42.2070 C   0  0  0  0  0  0  0  0  0  0  0  0
   46.6460   31.5330   43.0530 N   0  0  0  0  0  0  0  0  0  0  0  0
   46.4190   30.2090   42.8340 C   0  0  0  0  0  0  0  0  0  0  0  0
   45.6400   29.8370   43.4980 H   0  0  0  0  0  0  0  0  0  0  0  0
   47.2640   29.8380   41.8540 N   0  0  0  0  0  0  0  0  0  0  0  0
   47.1750   28.8190   41.5980 H   0  0  0  0  0  0  0  0  0  0  0  0
   47.9830   30.8570   41.4710 N   0  0  0  0  0  0  0  0  0  0  0  0
   44.7270   34.9220   43.0980 N   0  0  0  0  0  0  0  0  0  0  0  0
   44.9130   34.4970   42.0200 C   0  0  0  0  0  0  0  0  0  0  0  0
  1 39  1  0  0  0  0
  2 12  1  0  0  0  0
  2  1  2  0  0  0  0
  3  2  1  0  0  0  0
  4  3  2  0  0  0  0
  4  5  1  0  0  0  0
  5  6  2  0  0  0  0
  6  1  1  0  0  0  0
  6 21  1  0  0  0  0
  7  3  1  0  0  0  0
  8  4  1  0  0  0  0
  9  5  1  0  0  0  0
 10 15  1  0  0  0  0
 11 12  1  0  0  0  0
 11 10  2  0  0  0  0
 12 13  2  0  0  0  0
 13 14  1  0  0  0  0
 14 18  1  0  0  0  0
 15 14  2  0  0  0  0
 16 10  1  0  0  0  0
 16 19  1  0  0  0  0
 17 11  1  0  0  0  0
 20 16  1  0  0  0  0
 21 26  1  0  0  0  0
 22 21  2  0  0  0  0
 22 23  1  0  0  0  0
 23 24  2  0  0  0  0
 24 25  1  0  0  0  0
 24 29  1  0  0  0  0
 25 30  1  0  0  0  0
 26 31  1  0  0  0  0
 26 25  2  0  0  0  0
 27 22  1  0  0  0  0
 28 23  1  0  0  0  0
 31 32  1  0  0  0  0
 33 32  2  0  0  0  0
 33 34  1  0  0  0  0
 35 33  1  0  0  0  0
 36 35  1  0  0  0  0
 37 35  1  0  0  0  0
 37 31  2  0  0  0  0
 39 38  3  0  0  0  0
M  END
>  <minimizedAffinity>
-5.92235708

>  <minimizedRMSD>
0.0973351076

$$$$
