
 OpenBabel03252501053D

 38 41  0  0  1  0  0  0  0  0999 V2000
   48.5670   32.3460   38.1170 O   0  0  0  0  0  0  0  0  0  0  0  0
   48.0330   33.7630   38.3160 P   0  0  2  0  0  0  0  0  0  0  0  0
   49.1600   34.7800   37.5630 O   0  0  0  0  0  0  0  0  0  0  0  0
   49.8130   34.3120   37.0140 H   0  0  0  0  0  0  0  0  0  0  0  0
   47.7440   34.1070   39.8880 O   0  0  0  0  0  0  0  0  0  0  0  0
   48.1250   35.4910   41.8400 C   0  0  1  0  0  0  0  0  0  0  0  0
   49.3450   34.6800   41.7270 C   0  0  0  0  0  0  0  0  0  0  0  0
   48.4990   35.0380   40.4940 C   0  0  1  0  0  0  0  0  0  0  0  0
   48.1500   36.5770   42.0530 H   0  0  0  0  0  0  0  0  0  0  0  0
   50.2950   35.1990   41.9030 H   0  0  0  0  0  0  0  0  0  0  0  0
   49.3530   33.5990   41.9370 H   0  0  0  0  0  0  0  0  0  0  0  0
   49.0870   35.6880   39.8170 H   0  0  0  0  0  0  0  0  0  0  0  0
   46.0720   33.0980   43.9430 C   0  0  0  0  0  0  0  0  0  0  0  0
   47.1700   33.7410   43.3800 C   0  0  0  0  0  0  0  0  0  0  0  0
   46.9500   34.7940   42.4690 C   0  0  0  0  0  0  0  0  0  0  0  0
   45.6810   35.1570   42.1620 N   0  0  0  0  0  0  0  0  0  0  0  0
   44.6240   34.5090   42.7280 C   0  0  0  0  0  0  0  0  0  0  0  0
   44.8210   33.4830   43.6170 N   0  0  0  0  0  0  0  0  0  0  0  0
   46.2710   32.3020   44.6310 H   0  0  0  0  0  0  0  0  0  0  0  0
   48.1540   33.4220   43.6500 H   0  0  0  0  0  0  0  0  0  0  0  0
   43.6480   34.8580   42.4320 H   0  0  0  0  0  0  0  0  0  0  0  0
   46.6190   33.8150   37.4110 O   0  0  0  0  0  0  0  0  0  0  0  0
   45.5440   32.9660   37.5910 C   0  0  0  0  0  0  0  0  0  0  0  0
   45.2520   31.8010   36.8940 C   0  0  0  0  0  0  0  0  0  0  0  0
   44.1330   31.0650   37.1990 C   0  0  0  0  0  0  0  0  0  0  0  0
   43.2780   31.4700   38.2040 C   0  0  0  0  0  0  0  0  0  0  0  0
   43.6170   32.6480   38.8740 C   0  0  0  0  0  0  0  0  0  0  0  0
   44.7260   33.3630   38.5610 N   0  0  0  0  0  0  0  0  0  0  0  0
   45.9830   31.5670   36.1250 H   0  0  0  0  0  0  0  0  0  0  0  0
   43.9830   30.1820   36.6150 H   0  0  0  0  0  0  0  0  0  0  0  0
   42.4000   30.8920   38.4430 H   0  0  0  0  0  0  0  0  0  0  0  0
   42.6840   33.0350   39.9270 C   0  0  0  0  0  0  0  0  0  0  0  0
   42.0510   34.2360   40.0080 N   0  0  0  0  0  0  0  0  0  0  0  0
   41.2700   34.2440   41.1040 C   0  0  0  0  0  0  0  0  0  0  0  0
   40.6250   35.0470   41.4690 H   0  0  0  0  0  0  0  0  0  0  0  0
   41.4080   33.0410   41.7230 N   0  0  0  0  0  0  0  0  0  0  0  0
   40.9390   32.7260   42.5940 H   0  0  0  0  0  0  0  0  0  0  0  0
   42.2590   32.3380   40.9970 N   0  0  0  0  0  0  0  0  0  0  0  0
  2  1  2  6  0  0  0
  2  5  1  0  0  0  0
  3  2  1  0  0  0  0
  4  3  1  0  0  0  0
  5  8  1  0  0  0  0
  6  9  1  1  0  0  0
  6 15  1  0  0  0  0
  7  6  1  0  0  0  0
  7 10  1  0  0  0  0
  7 11  1  0  0  0  0
  8 12  1  6  0  0  0
  8  7  1  0  0  0  0
  8  6  1  0  0  0  0
 13 19  1  0  0  0  0
 14 20  1  0  0  0  0
 14 13  2  0  0  0  0
 15 14  1  0  0  0  0
 16 15  2  0  0  0  0
 16 17  1  0  0  0  0
 17 18  2  0  0  0  0
 18 13  1  0  0  0  0
 21 17  1  0  0  0  0
 22 23  1  0  0  0  0
 22  2  1  0  0  0  0
 23 28  1  0  0  0  0
 24 25  1  0  0  0  0
 24 23  2  0  0  0  0
 25 26  2  0  0  0  0
 26 31  1  0  0  0  0
 26 27  1  0  0  0  0
 27 32  1  0  0  0  0
 28 27  2  0  0  0  0
 29 24  1  0  0  0  0
 30 25  1  0  0  0  0
 32 33  1  0  0  0  0
 32 38  2  0  0  0  0
 33 34  2  0  0  0  0
 34 35  1  0  0  0  0
 34 36  1  0  0  0  0
 36 37  1  0  0  0  0
 38 36  1  0  0  0  0
M  END
>  <minimizedAffinity>
-4.98880672

>  <minimizedRMSD>
1.05682182

$$$$
