
 OpenBabel03252508403D

 39 42  0  0  0  0  0  0  0  0999 V2000
   37.9540   27.9680   41.1510 C   0  0  0  0  0  0  0  0  0  0  0  0
   37.8650   29.0380   41.9970 C   0  0  0  0  0  0  0  0  0  0  0  0
   37.3480   28.8160   43.2360 C   0  0  0  0  0  0  0  0  0  0  0  0
   36.9150   27.5850   43.6790 C   0  0  0  0  0  0  0  0  0  0  0  0
   37.0170   26.5310   42.8060 C   0  0  0  0  0  0  0  0  0  0  0  0
   37.5330   26.7060   41.5410 C   0  0  0  0  0  0  0  0  0  0  0  0
   37.2740   29.6590   43.9150 H   0  0  0  0  0  0  0  0  0  0  0  0
   36.5020   27.4240   44.6780 H   0  0  0  0  0  0  0  0  0  0  0  0
   36.6760   25.5670   43.1560 H   0  0  0  0  0  0  0  0  0  0  0  0
   37.9440   32.4890   40.4630 C   0  0  0  0  0  0  0  0  0  0  0  0
   37.4560   31.2620   40.9400 C   0  0  0  0  0  0  0  0  0  0  0  0
   38.3310   30.3140   41.4960 C   0  0  0  0  0  0  0  0  0  0  0  0
   39.6350   30.6920   41.5220 N   0  0  0  0  0  0  0  0  0  0  0  0
   40.0850   31.8620   41.0670 C   0  0  0  0  0  0  0  0  0  0  0  0
   39.2360   32.7570   40.5380 N   0  0  0  0  0  0  0  0  0  0  0  0
   37.0220   33.4000   39.9170 N   0  0  0  0  0  0  0  0  0  0  0  0
   36.4140   30.9620   40.9170 H   0  0  0  0  0  0  0  0  0  0  0  0
   41.1560   32.0030   41.1650 H   0  0  0  0  0  0  0  0  0  0  0  0
   36.5710   33.0070   39.0640 H   0  0  0  0  0  0  0  0  0  0  0  0
   36.8230   34.3530   40.3270 H   0  0  0  0  0  0  0  0  0  0  0  0
   37.5980   25.5170   40.6880 C   0  0  0  0  0  0  0  0  0  0  0  0
   36.5070   25.3000   39.8920 C   0  0  0  0  0  0  0  0  0  0  0  0
   36.4010   24.2190   39.0210 C   0  0  0  0  0  0  0  0  0  0  0  0
   37.4690   23.3300   38.9740 C   0  0  0  0  0  0  0  0  0  0  0  0
   38.5700   23.5340   39.7650 C   0  0  0  0  0  0  0  0  0  0  0  0
   38.6470   24.6170   40.6220 C   0  0  0  0  0  0  0  0  0  0  0  0
   35.6370   25.9430   39.8690 H   0  0  0  0  0  0  0  0  0  0  0  0
   35.5570   24.0430   38.3980 H   0  0  0  0  0  0  0  0  0  0  0  0
   37.4770   22.4610   38.3270 H   0  0  0  0  0  0  0  0  0  0  0  0
   39.4300   22.8750   39.7700 H   0  0  0  0  0  0  0  0  0  0  0  0
   39.7950   24.8960   41.4970 C   0  0  0  0  0  0  0  0  0  0  0  0
   40.8830   25.6630   41.2630 N   0  0  0  0  0  0  0  0  0  0  0  0
   41.6760   25.6220   42.3680 C   0  0  0  0  0  0  0  0  0  0  0  0
   42.5700   26.2280   42.2230 H   0  0  0  0  0  0  0  0  0  0  0  0
   41.0500   24.8250   43.2540 N   0  0  0  0  0  0  0  0  0  0  0  0
   41.5810   24.7200   44.1600 H   0  0  0  0  0  0  0  0  0  0  0  0
   39.9290   24.3870   42.7500 N   0  0  0  0  0  0  0  0  0  0  0  0
   38.9200   28.2110   38.7420 N   0  0  0  0  0  0  0  0  0  0  0  0
   38.4850   28.1100   39.8270 C   0  0  0  0  0  0  0  0  0  0  0  0
  1  6  2  0  0  0  0
  1  2  1  0  0  0  0
  2  3  2  0  0  0  0
  3  4  1  0  0  0  0
  3  7  1  0  0  0  0
  4  8  1  0  0  0  0
  5  9  1  0  0  0  0
  5  4  2  0  0  0  0
  6  5  1  0  0  0  0
 10 15  2  0  0  0  0
 10 11  1  0  0  0  0
 11 12  2  0  0  0  0
 12 13  1  0  0  0  0
 12  2  1  0  0  0  0
 14 18  1  0  0  0  0
 14 13  2  0  0  0  0
 15 14  1  0  0  0  0
 16 20  1  0  0  0  0
 16 10  1  0  0  0  0
 17 11  1  0  0  0  0
 19 16  1  0  0  0  0
 21  6  1  0  0  0  0
 22 21  2  0  0  0  0
 23 22  1  0  0  0  0
 24 23  2  0  0  0  0
 24 25  1  0  0  0  0
 25 30  1  0  0  0  0
 25 26  2  0  0  0  0
 26 21  1  0  0  0  0
 26 31  1  0  0  0  0
 27 22  1  0  0  0  0
 28 23  1  0  0  0  0
 29 24  1  0  0  0  0
 31 37  2  0  0  0  0
 32 31  1  0  0  0  0
 32 33  2  0  0  0  0
 33 35  1  0  0  0  0
 34 33  1  0  0  0  0
 35 36  1  0  0  0  0
 37 35  1  0  0  0  0
 38 39  3  0  0  0  0
 39  1  1  0  0  0  0
M  END
>  <minimizedAffinity>
-6.31268692

$$$$

 OpenBabel03252508403D

 39 42  0  0  0  0  0  0  0  0999 V2000
   38.6090   27.5240   41.4030 C   0  0  0  0  0  0  0  0  0  0  0  0
   39.0380   27.4860   42.7000 C   0  0  0  0  0  0  0  0  0  0  0  0
   38.0920   27.5540   43.6760 C   0  0  0  0  0  0  0  0  0  0  0  0
   36.7400   27.6570   43.4290 C   0  0  0  0  0  0  0  0  0  0  0  0
   36.3410   27.6920   42.1170 C   0  0  0  0  0  0  0  0  0  0  0  0
   37.2610   27.6280   41.0940 C   0  0  0  0  0  0  0  0  0  0  0  0
   38.4230   27.5240   44.7090 H   0  0  0  0  0  0  0  0  0  0  0  0
   35.9930   27.7100   44.2260 H   0  0  0  0  0  0  0  0  0  0  0  0
   35.2790   27.7740   41.9270 H   0  0  0  0  0  0  0  0  0  0  0  0
   42.4890   26.0680   43.2930 C   0  0  0  0  0  0  0  0  0  0  0  0
   41.1020   26.1350   43.0830 C   0  0  0  0  0  0  0  0  0  0  0  0
   40.4660   27.3770   42.9190 C   0  0  0  0  0  0  0  0  0  0  0  0
   41.2920   28.4520   42.9840 N   0  0  0  0  0  0  0  0  0  0  0  0
   42.6080   28.3730   43.1840 C   0  0  0  0  0  0  0  0  0  0  0  0
   43.2020   27.1800   43.3380 N   0  0  0  0  0  0  0  0  0  0  0  0
   43.0740   24.7980   43.4500 N   0  0  0  0  0  0  0  0  0  0  0  0
   40.4440   25.2750   43.0320 H   0  0  0  0  0  0  0  0  0  0  0  0
   43.1190   29.3300   43.2080 H   0  0  0  0  0  0  0  0  0  0  0  0
   42.7070   24.3220   44.3020 H   0  0  0  0  0  0  0  0  0  0  0  0
   43.7870   24.3930   42.7850 H   0  0  0  0  0  0  0  0  0  0  0  0
   36.7310   27.6730   39.7300 C   0  0  0  0  0  0  0  0  0  0  0  0
   36.4240   26.4610   39.1740 C   0  0  0  0  0  0  0  0  0  0  0  0
   35.9110   26.3200   37.8880 C   0  0  0  0  0  0  0  0  0  0  0  0
   35.7080   27.4800   37.1500 C   0  0  0  0  0  0  0  0  0  0  0  0
   36.0100   28.7040   37.6930 C   0  0  0  0  0  0  0  0  0  0  0  0
   36.5200   28.8130   38.9740 C   0  0  0  0  0  0  0  0  0  0  0  0
   36.5530   25.5130   39.6810 H   0  0  0  0  0  0  0  0  0  0  0  0
   35.6700   25.3820   37.4480 H   0  0  0  0  0  0  0  0  0  0  0  0
   35.3130   27.4710   36.1420 H   0  0  0  0  0  0  0  0  0  0  0  0
   35.8730   29.6390   37.1660 H   0  0  0  0  0  0  0  0  0  0  0  0
   36.8650   30.0880   39.6180 C   0  0  0  0  0  0  0  0  0  0  0  0
   38.0420   30.7540   39.6230 N   0  0  0  0  0  0  0  0  0  0  0  0
   37.8820   31.8930   40.3510 C   0  0  0  0  0  0  0  0  0  0  0  0
   38.8110   32.4620   40.3830 H   0  0  0  0  0  0  0  0  0  0  0  0
   36.6050   31.8950   40.7740 N   0  0  0  0  0  0  0  0  0  0  0  0
   36.3650   32.7430   41.3550 H   0  0  0  0  0  0  0  0  0  0  0  0
   35.9870   30.8290   40.3460 N   0  0  0  0  0  0  0  0  0  0  0  0
   40.2830   27.4070   39.4080 N   0  0  0  0  0  0  0  0  0  0  0  0
   39.5360   27.4590   40.3120 C   0  0  0  0  0  0  0  0  0  0  0  0
  1  2  1  0  0  0  0
  2 12  1  0  0  0  0
  2  3  2  0  0  0  0
  3  7  1  0  0  0  0
  4  3  1  0  0  0  0
  4  8  1  0  0  0  0
  5  4  2  0  0  0  0
  6  1  2  0  0  0  0
  6  5  1  0  0  0  0
  9  5  1  0  0  0  0
 10 15  1  0  0  0  0
 10 16  1  0  0  0  0
 11 10  2  0  0  0  0
 12 13  2  0  0  0  0
 12 11  1  0  0  0  0
 13 14  1  0  0  0  0
 14 18  1  0  0  0  0
 14 15  2  0  0  0  0
 16 19  1  0  0  0  0
 17 11  1  0  0  0  0
 20 16  1  0  0  0  0
 21  6  1  0  0  0  0
 22 27  1  0  0  0  0
 22 21  1  0  0  0  0
 23 22  2  0  0  0  0
 24 25  2  0  0  0  0
 24 23  1  0  0  0  0
 25 26  1  0  0  0  0
 26 31  1  0  0  0  0
 26 21  2  0  0  0  0
 28 23  1  0  0  0  0
 29 24  1  0  0  0  0
 30 25  1  0  0  0  0
 31 32  1  0  0  0  0
 31 37  2  0  0  0  0
 32 33  2  0  0  0  0
 33 34  1  0  0  0  0
 33 35  1  0  0  0  0
 35 36  1  0  0  0  0
 37 35  1  0  0  0  0
 38 39  3  0  0  0  0
 39  1  1  0  0  0  0
M  END
>  <minimizedAffinity>
-6.30806303

$$$$

 OpenBabel03252508403D

 39 42  0  0  0  0  0  0  0  0999 V2000
   39.0960   28.6180   41.7330 C   0  0  0  0  0  0  0  0  0  0  0  0
   37.8380   29.1490   41.6500 C   0  0  0  0  0  0  0  0  0  0  0  0
   36.9360   28.7740   42.5970 C   0  0  0  0  0  0  0  0  0  0  0  0
   37.2170   27.8980   43.6230 C   0  0  0  0  0  0  0  0  0  0  0  0
   38.4880   27.3830   43.6790 C   0  0  0  0  0  0  0  0  0  0  0  0
   39.4370   27.7320   42.7430 C   0  0  0  0  0  0  0  0  0  0  0  0
   35.9350   29.1900   42.5390 H   0  0  0  0  0  0  0  0  0  0  0  0
   36.4800   27.6080   44.3750 H   0  0  0  0  0  0  0  0  0  0  0  0
   38.7060   26.6960   44.4860 H   0  0  0  0  0  0  0  0  0  0  0  0
   37.2160   32.3090   39.6750 C   0  0  0  0  0  0  0  0  0  0  0  0
   37.4660   31.4500   40.7580 C   0  0  0  0  0  0  0  0  0  0  0  0
   37.5810   30.0650   40.5580 C   0  0  0  0  0  0  0  0  0  0  0  0
   37.4310   29.6630   39.2710 N   0  0  0  0  0  0  0  0  0  0  0  0
   37.1940   30.4890   38.2510 C   0  0  0  0  0  0  0  0  0  0  0  0
   37.0870   31.8110   38.4580 N   0  0  0  0  0  0  0  0  0  0  0  0
   37.1110   33.6870   39.9340 N   0  0  0  0  0  0  0  0  0  0  0  0
   37.5860   31.7740   41.7870 H   0  0  0  0  0  0  0  0  0  0  0  0
   37.1010   30.0020   37.2860 H   0  0  0  0  0  0  0  0  0  0  0  0
   36.2990   33.8890   40.5560 H   0  0  0  0  0  0  0  0  0  0  0  0
   37.7750   34.4110   39.5450 H   0  0  0  0  0  0  0  0  0  0  0  0
   40.7610   27.1260   42.8930 C   0  0  0  0  0  0  0  0  0  0  0  0
   41.7160   27.9260   43.4610 C   0  0  0  0  0  0  0  0  0  0  0  0
   43.0270   27.5110   43.6790 C   0  0  0  0  0  0  0  0  0  0  0  0
   43.3600   26.2180   43.2930 C   0  0  0  0  0  0  0  0  0  0  0  0
   42.4150   25.4040   42.7230 C   0  0  0  0  0  0  0  0  0  0  0  0
   41.1190   25.8440   42.5190 C   0  0  0  0  0  0  0  0  0  0  0  0
   41.5380   28.9420   43.7880 H   0  0  0  0  0  0  0  0  0  0  0  0
   43.7760   28.1250   44.1190 H   0  0  0  0  0  0  0  0  0  0  0  0
   44.3540   25.8070   43.4220 H   0  0  0  0  0  0  0  0  0  0  0  0
   42.6170   24.3890   42.4030 H   0  0  0  0  0  0  0  0  0  0  0  0
   40.0570   25.0270   41.9140 C   0  0  0  0  0  0  0  0  0  0  0  0
   39.6170   25.0030   40.6370 N   0  0  0  0  0  0  0  0  0  0  0  0
   38.6180   24.0840   40.5490 C   0  0  0  0  0  0  0  0  0  0  0  0
   38.2310   24.0330   39.5310 H   0  0  0  0  0  0  0  0  0  0  0  0
   38.4700   23.5660   41.7820 N   0  0  0  0  0  0  0  0  0  0  0  0
   37.7140   22.8330   41.8320 H   0  0  0  0  0  0  0  0  0  0  0  0
   39.3200   24.1160   42.6040 N   0  0  0  0  0  0  0  0  0  0  0  0
   40.9370   29.2210   39.9890 N   0  0  0  0  0  0  0  0  0  0  0  0
   40.1100   28.9570   40.7780 C   0  0  0  0  0  0  0  0  0  0  0  0
  1  6  1  0  0  0  0
  2  1  2  0  0  0  0
  2  3  1  0  0  0  0
  3  4  2  0  0  0  0
  4  5  1  0  0  0  0
  4  8  1  0  0  0  0
  5  9  1  0  0  0  0
  6 21  1  0  0  0  0
  6  5  2  0  0  0  0
  7  3  1  0  0  0  0
 10 16  1  0  0  0  0
 10 11  1  0  0  0  0
 11 17  1  0  0  0  0
 12 11  2  0  0  0  0
 12  2  1  0  0  0  0
 13 12  1  0  0  0  0
 14 15  1  0  0  0  0
 14 13  2  0  0  0  0
 15 10  2  0  0  0  0
 16 19  1  0  0  0  0
 18 14  1  0  0  0  0
 20 16  1  0  0  0  0
 21 22  1  0  0  0  0
 22 23  2  0  0  0  0
 22 27  1  0  0  0  0
 23 28  1  0  0  0  0
 24 29  1  0  0  0  0
 24 23  1  0  0  0  0
 25 24  2  0  0  0  0
 26 25  1  0  0  0  0
 26 21  2  0  0  0  0
 30 25  1  0  0  0  0
 31 26  1  0  0  0  0
 31 37  2  0  0  0  0
 32 31  1  0  0  0  0
 33 32  2  0  0  0  0
 33 35  1  0  0  0  0
 34 33  1  0  0  0  0
 35 36  1  0  0  0  0
 35 37  1  0  0  0  0
 38 39  3  0  0  0  0
 39  1  1  0  0  0  0
M  END
>  <minimizedAffinity>
-6.26221371

$$$$

 OpenBabel03252508403D

 39 42  0  0  0  0  0  0  0  0999 V2000
   38.4490   27.3430   41.5620 C   0  0  0  0  0  0  0  0  0  0  0  0
   37.3970   26.5110   41.8260 C   0  0  0  0  0  0  0  0  0  0  0  0
   36.5930   26.8320   42.8760 C   0  0  0  0  0  0  0  0  0  0  0  0
   36.7790   27.9370   43.6780 C   0  0  0  0  0  0  0  0  0  0  0  0
   37.8430   28.7530   43.3860 C   0  0  0  0  0  0  0  0  0  0  0  0
   38.6860   28.4700   42.3340 C   0  0  0  0  0  0  0  0  0  0  0  0
   35.7550   26.1770   43.0940 H   0  0  0  0  0  0  0  0  0  0  0  0
   36.1230   28.1800   44.5170 H   0  0  0  0  0  0  0  0  0  0  0  0
   37.9870   29.6200   44.0170 H   0  0  0  0  0  0  0  0  0  0  0  0
   37.6150   23.0160   40.4090 C   0  0  0  0  0  0  0  0  0  0  0  0
   37.7940   24.1100   41.2720 C   0  0  0  0  0  0  0  0  0  0  0  0
   37.2340   25.3600   40.9620 C   0  0  0  0  0  0  0  0  0  0  0  0
   36.5370   25.3980   39.7980 N   0  0  0  0  0  0  0  0  0  0  0  0
   36.3750   24.3510   38.9880 C   0  0  0  0  0  0  0  0  0  0  0  0
   36.9160   23.1620   39.2980 N   0  0  0  0  0  0  0  0  0  0  0  0
   38.1980   21.7880   40.7700 N   0  0  0  0  0  0  0  0  0  0  0  0
   38.3520   24.0780   42.2010 H   0  0  0  0  0  0  0  0  0  0  0  0
   35.7890   24.5540   38.0980 H   0  0  0  0  0  0  0  0  0  0  0  0
   39.2370   21.8640   40.8030 H   0  0  0  0  0  0  0  0  0  0  0  0
   37.6450   20.9120   40.9780 H   0  0  0  0  0  0  0  0  0  0  0  0
   39.7910   29.4040   42.1080 C   0  0  0  0  0  0  0  0  0  0  0  0
   40.9500   29.1210   42.7780 C   0  0  0  0  0  0  0  0  0  0  0  0
   42.0990   29.9020   42.6790 C   0  0  0  0  0  0  0  0  0  0  0  0
   42.0420   31.0190   41.8540 C   0  0  0  0  0  0  0  0  0  0  0  0
   40.8880   31.3170   41.1750 C   0  0  0  0  0  0  0  0  0  0  0  0
   39.7620   30.5220   41.2930 C   0  0  0  0  0  0  0  0  0  0  0  0
   41.0760   28.2720   43.4380 H   0  0  0  0  0  0  0  0  0  0  0  0
   43.0040   29.6900   43.1950 H   0  0  0  0  0  0  0  0  0  0  0  0
   42.8840   31.6850   41.7140 H   0  0  0  0  0  0  0  0  0  0  0  0
   40.7860   32.1720   40.5190 H   0  0  0  0  0  0  0  0  0  0  0  0
   38.4930   30.7810   40.5970 C   0  0  0  0  0  0  0  0  0  0  0  0
   38.0590   30.3110   39.4060 N   0  0  0  0  0  0  0  0  0  0  0  0
   36.8210   30.8250   39.1730 C   0  0  0  0  0  0  0  0  0  0  0  0
   36.4310   30.4720   38.2180 H   0  0  0  0  0  0  0  0  0  0  0  0
   36.5270   31.5990   40.2340 N   0  0  0  0  0  0  0  0  0  0  0  0
   35.5770   32.0530   40.1610 H   0  0  0  0  0  0  0  0  0  0  0  0
   37.5120   31.5820   41.0890 N   0  0  0  0  0  0  0  0  0  0  0  0
   40.0920   26.8610   39.5960 N   0  0  0  0  0  0  0  0  0  0  0  0
   39.3470   27.0830   40.4760 C   0  0  0  0  0  0  0  0  0  0  0  0
  1  2  2  0  0  0  0
  1  6  1  0  0  0  0
  2  3  1  0  0  0  0
  3  7  1  0  0  0  0
  3  4  2  0  0  0  0
  4  8  1  0  0  0  0
  5  4  1  0  0  0  0
  5  9  1  0  0  0  0
  6  5  2  0  0  0  0
 10 16  1  0  0  0  0
 10 11  1  0  0  0  0
 11 17  1  0  0  0  0
 12 11  2  0  0  0  0
 12  2  1  0  0  0  0
 13 12  1  0  0  0  0
 14 15  1  0  0  0  0
 14 13  2  0  0  0  0
 15 10  2  0  0  0  0
 16 19  1  0  0  0  0
 16 20  1  0  0  0  0
 18 14  1  0  0  0  0
 21  6  1  0  0  0  0
 21 22  1  0  0  0  0
 22 27  1  0  0  0  0
 23 22  2  0  0  0  0
 23 28  1  0  0  0  0
 24 23  1  0  0  0  0
 25 26  1  0  0  0  0
 25 24  2  0  0  0  0
 26 21  2  0  0  0  0
 29 24  1  0  0  0  0
 30 25  1  0  0  0  0
 31 37  2  0  0  0  0
 31 26  1  0  0  0  0
 32 31  1  0  0  0  0
 33 32  2  0  0  0  0
 33 35  1  0  0  0  0
 34 33  1  0  0  0  0
 35 37  1  0  0  0  0
 36 35  1  0  0  0  0
 38 39  3  0  0  0  0
 39  1  1  0  0  0  0
M  END
>  <minimizedAffinity>
-5.93171692

$$$$

 OpenBabel03252508403D

 39 42  0  0  0  0  0  0  0  0999 V2000
   38.9900   29.8340   39.3730 C   0  0  0  0  0  0  0  0  0  0  0  0
   39.0110   30.5690   38.2200 C   0  0  0  0  0  0  0  0  0  0  0  0
   37.8120   30.9090   37.6730 C   0  0  0  0  0  0  0  0  0  0  0  0
   36.5930   30.5590   38.2120 C   0  0  0  0  0  0  0  0  0  0  0  0
   36.6070   29.8230   39.3700 C   0  0  0  0  0  0  0  0  0  0  0  0
   37.7940   29.4530   39.9620 C   0  0  0  0  0  0  0  0  0  0  0  0
   37.8180   31.4920   36.7570 H   0  0  0  0  0  0  0  0  0  0  0  0
   35.6400   30.8420   37.7590 H   0  0  0  0  0  0  0  0  0  0  0  0
   35.6490   29.5490   39.7900 H   0  0  0  0  0  0  0  0  0  0  0  0
   41.9970   32.5530   37.0280 C   0  0  0  0  0  0  0  0  0  0  0  0
   40.7290   32.2520   37.5530 C   0  0  0  0  0  0  0  0  0  0  0  0
   40.3100   30.9180   37.6840 C   0  0  0  0  0  0  0  0  0  0  0  0
   41.2150   29.9950   37.2700 N   0  0  0  0  0  0  0  0  0  0  0  0
   42.4170   30.2950   36.7740 C   0  0  0  0  0  0  0  0  0  0  0  0
   42.8030   31.5750   36.6550 N   0  0  0  0  0  0  0  0  0  0  0  0
   42.3640   33.9060   36.9200 N   0  0  0  0  0  0  0  0  0  0  0  0
   40.0070   32.9910   37.8830 H   0  0  0  0  0  0  0  0  0  0  0  0
   43.0160   29.4360   36.4920 H   0  0  0  0  0  0  0  0  0  0  0  0
   41.7360   34.4100   36.2590 H   0  0  0  0  0  0  0  0  0  0  0  0
   43.1690   34.3410   37.4460 H   0  0  0  0  0  0  0  0  0  0  0  0
   37.6980   28.6680   41.1940 C   0  0  0  0  0  0  0  0  0  0  0  0
   37.6340   29.3930   42.3530 C   0  0  0  0  0  0  0  0  0  0  0  0
   37.5400   28.8090   43.6130 C   0  0  0  0  0  0  0  0  0  0  0  0
   37.5090   27.4210   43.6740 C   0  0  0  0  0  0  0  0  0  0  0  0
   37.5710   26.6800   42.5210 C   0  0  0  0  0  0  0  0  0  0  0  0
   37.6660   27.2880   41.2820 C   0  0  0  0  0  0  0  0  0  0  0  0
   37.6520   30.4750   42.3920 H   0  0  0  0  0  0  0  0  0  0  0  0
   37.4900   29.3650   44.5190 H   0  0  0  0  0  0  0  0  0  0  0  0
   37.4360   26.8780   44.6080 H   0  0  0  0  0  0  0  0  0  0  0  0
   37.5520   25.5970   42.5070 H   0  0  0  0  0  0  0  0  0  0  0  0
   37.7360   26.5570   40.0090 C   0  0  0  0  0  0  0  0  0  0  0  0
   38.8170   26.0700   39.3600 N   0  0  0  0  0  0  0  0  0  0  0  0
   38.3900   25.4660   38.2180 C   0  0  0  0  0  0  0  0  0  0  0  0
   39.2330   25.0580   37.6600 H   0  0  0  0  0  0  0  0  0  0  0  0
   37.0510   25.5990   38.1970 N   0  0  0  0  0  0  0  0  0  0  0  0
   36.6080   25.1620   37.3460 H   0  0  0  0  0  0  0  0  0  0  0  0
   36.6480   26.2460   39.2560 N   0  0  0  0  0  0  0  0  0  0  0  0
   41.1950   29.1070   40.5590 N   0  0  0  0  0  0  0  0  0  0  0  0
   40.2050   29.4310   40.0180 C   0  0  0  0  0  0  0  0  0  0  0  0
  1  6  1  0  0  0  0
  1 39  1  0  0  0  0
  2  1  2  0  0  0  0
  3  4  2  0  0  0  0
  3  2  1  0  0  0  0
  4  5  1  0  0  0  0
  5  9  1  0  0  0  0
  5  6  2  0  0  0  0
  6 21  1  0  0  0  0
  7  3  1  0  0  0  0
  8  4  1  0  0  0  0
 10 11  1  0  0  0  0
 11 12  2  0  0  0  0
 11 17  1  0  0  0  0
 12  2  1  0  0  0  0
 13 12  1  0  0  0  0
 14 13  2  0  0  0  0
 15 14  1  0  0  0  0
 15 10  2  0  0  0  0
 16 10  1  0  0  0  0
 16 20  1  0  0  0  0
 18 14  1  0  0  0  0
 19 16  1  0  0  0  0
 21 26  2  0  0  0  0
 21 22  1  0  0  0  0
 22 27  1  0  0  0  0
 22 23  2  0  0  0  0
 23 24  1  0  0  0  0
 23 28  1  0  0  0  0
 24 29  1  0  0  0  0
 25 24  2  0  0  0  0
 26 25  1  0  0  0  0
 30 25  1  0  0  0  0
 31 26  1  0  0  0  0
 32 31  1  0  0  0  0
 33 32  2  0  0  0  0
 34 33  1  0  0  0  0
 35 33  1  0  0  0  0
 35 37  1  0  0  0  0
 36 35  1  0  0  0  0
 37 31  2  0  0  0  0
 39 38  3  0  0  0  0
M  END
>  <minimizedAffinity>
-5.87952518

$$$$

 OpenBabel03252508403D

 39 42  0  0  0  0  0  0  0  0999 V2000
   38.4320   28.1830   41.3580 C   0  0  0  0  0  0  0  0  0  0  0  0
   38.9970   28.4970   42.5630 C   0  0  0  0  0  0  0  0  0  0  0  0
   38.2490   28.2870   43.6790 C   0  0  0  0  0  0  0  0  0  0  0  0
   36.9670   27.7800   43.6620 C   0  0  0  0  0  0  0  0  0  0  0  0
   36.4290   27.4740   42.4370 C   0  0  0  0  0  0  0  0  0  0  0  0
   37.1470   27.6700   41.2780 C   0  0  0  0  0  0  0  0  0  0  0  0
   38.6890   28.5330   44.6400 H   0  0  0  0  0  0  0  0  0  0  0  0
   36.3810   27.6170   44.5690 H   0  0  0  0  0  0  0  0  0  0  0  0
   35.4230   27.0770   42.4270 H   0  0  0  0  0  0  0  0  0  0  0  0
   41.9250   30.8840   42.5430 C   0  0  0  0  0  0  0  0  0  0  0  0
   40.6040   30.4070   42.5670 C   0  0  0  0  0  0  0  0  0  0  0  0
   40.3450   29.0270   42.5400 C   0  0  0  0  0  0  0  0  0  0  0  0
   41.4510   28.2420   42.4900 N   0  0  0  0  0  0  0  0  0  0  0  0
   42.7000   28.7090   42.4690 C   0  0  0  0  0  0  0  0  0  0  0  0
   42.9320   30.0300   42.4950 N   0  0  0  0  0  0  0  0  0  0  0  0
   42.1260   32.2760   42.5720 N   0  0  0  0  0  0  0  0  0  0  0  0
   39.7220   31.0360   42.6060 H   0  0  0  0  0  0  0  0  0  0  0  0
   43.4680   27.9430   42.4290 H   0  0  0  0  0  0  0  0  0  0  0  0
   41.7220   32.7280   41.7250 H   0  0  0  0  0  0  0  0  0  0  0  0
   42.6200   32.7830   43.3560 H   0  0  0  0  0  0  0  0  0  0  0  0
   36.4800   27.3120   40.0250 C   0  0  0  0  0  0  0  0  0  0  0  0
   35.7660   28.3150   39.4270 C   0  0  0  0  0  0  0  0  0  0  0  0
   35.0710   28.1490   38.2320 C   0  0  0  0  0  0  0  0  0  0  0  0
   35.1200   26.8960   37.6340 C   0  0  0  0  0  0  0  0  0  0  0  0
   35.8310   25.8800   38.2190 C   0  0  0  0  0  0  0  0  0  0  0  0
   36.5120   26.0740   39.4080 C   0  0  0  0  0  0  0  0  0  0  0  0
   35.6790   29.3170   39.8270 H   0  0  0  0  0  0  0  0  0  0  0  0
   34.5140   28.9230   37.7610 H   0  0  0  0  0  0  0  0  0  0  0  0
   34.6120   26.6720   36.7040 H   0  0  0  0  0  0  0  0  0  0  0  0
   35.9040   24.8840   37.8000 H   0  0  0  0  0  0  0  0  0  0  0  0
   37.2930   25.0320   40.0900 C   0  0  0  0  0  0  0  0  0  0  0  0
   38.6150   24.7620   40.0100 N   0  0  0  0  0  0  0  0  0  0  0  0
   38.8820   23.7050   40.8250 C   0  0  0  0  0  0  0  0  0  0  0  0
   39.9420   23.4520   40.7900 H   0  0  0  0  0  0  0  0  0  0  0  0
   37.7110   23.3530   41.3850 N   0  0  0  0  0  0  0  0  0  0  0  0
   37.8000   22.5340   42.0440 H   0  0  0  0  0  0  0  0  0  0  0  0
   36.7560   24.1340   40.9580 N   0  0  0  0  0  0  0  0  0  0  0  0
   39.7240   28.5390   39.1210 N   0  0  0  0  0  0  0  0  0  0  0  0
   39.1480   28.3730   40.1300 C   0  0  0  0  0  0  0  0  0  0  0  0
  1  2  1  0  0  0  0
  2  3  2  0  0  0  0
  3  7  1  0  0  0  0
  4  3  1  0  0  0  0
  4  8  1  0  0  0  0
  5  4  2  0  0  0  0
  6  1  2  0  0  0  0
  6  5  1  0  0  0  0
  9  5  1  0  0  0  0
 10 11  1  0  0  0  0
 10 16  1  0  0  0  0
 11 17  1  0  0  0  0
 12  2  1  0  0  0  0
 12 11  2  0  0  0  0
 13 12  1  0  0  0  0
 14 13  2  0  0  0  0
 14 15  1  0  0  0  0
 15 10  2  0  0  0  0
 16 20  1  0  0  0  0
 18 14  1  0  0  0  0
 19 16  1  0  0  0  0
 21  6  1  0  0  0  0
 22 27  1  0  0  0  0
 22 21  1  0  0  0  0
 23 22  2  0  0  0  0
 24 25  2  0  0  0  0
 24 23  1  0  0  0  0
 25 26  1  0  0  0  0
 26 21  2  0  0  0  0
 26 31  1  0  0  0  0
 28 23  1  0  0  0  0
 29 24  1  0  0  0  0
 30 25  1  0  0  0  0
 31 37  2  0  0  0  0
 32 31  1  0  0  0  0
 32 33  2  0  0  0  0
 33 35  1  0  0  0  0
 34 33  1  0  0  0  0
 35 36  1  0  0  0  0
 37 35  1  0  0  0  0
 38 39  3  0  0  0  0
 39  1  1  0  0  0  0
M  END
>  <minimizedAffinity>
-5.83131742

$$$$

 OpenBabel03252508403D

 39 42  0  0  0  0  0  0  0  0999 V2000
   39.3930   31.8260   39.2940 C   0  0  0  0  0  0  0  0  0  0  0  0
   39.6960   33.0660   39.7830 C   0  0  0  0  0  0  0  0  0  0  0  0
   38.6690   33.9430   39.9510 C   0  0  0  0  0  0  0  0  0  0  0  0
   37.3540   33.6510   39.6580 C   0  0  0  0  0  0  0  0  0  0  0  0
   37.0820   32.3980   39.1690 C   0  0  0  0  0  0  0  0  0  0  0  0
   38.0880   31.4760   38.9810 C   0  0  0  0  0  0  0  0  0  0  0  0
   38.9000   34.9290   40.3390 H   0  0  0  0  0  0  0  0  0  0  0  0
   36.5410   34.3670   39.7990 H   0  0  0  0  0  0  0  0  0  0  0  0
   36.0490   32.1730   38.9400 H   0  0  0  0  0  0  0  0  0  0  0  0
   42.9800   33.4300   41.6150 C   0  0  0  0  0  0  0  0  0  0  0  0
   41.6250   33.1590   41.3650 C   0  0  0  0  0  0  0  0  0  0  0  0
   41.0880   33.3350   40.0790 C   0  0  0  0  0  0  0  0  0  0  0  0
   41.9740   33.7740   39.1490 N   0  0  0  0  0  0  0  0  0  0  0  0
   43.2600   34.0270   39.4000 C   0  0  0  0  0  0  0  0  0  0  0  0
   43.7580   33.8530   40.6350 N   0  0  0  0  0  0  0  0  0  0  0  0
   43.4630   33.2360   42.9220 N   0  0  0  0  0  0  0  0  0  0  0  0
   40.9190   32.8090   42.1100 H   0  0  0  0  0  0  0  0  0  0  0  0
   43.8280   34.3700   38.5430 H   0  0  0  0  0  0  0  0  0  0  0  0
   42.9910   33.8790   43.5920 H   0  0  0  0  0  0  0  0  0  0  0  0
   44.2050   32.5280   43.1760 H   0  0  0  0  0  0  0  0  0  0  0  0
   37.6910   30.1690   38.4550 C   0  0  0  0  0  0  0  0  0  0  0  0
   37.6020   30.0830   37.0920 C   0  0  0  0  0  0  0  0  0  0  0  0
   37.2390   28.9170   36.4230 C   0  0  0  0  0  0  0  0  0  0  0  0
   36.9570   27.7980   37.1980 C   0  0  0  0  0  0  0  0  0  0  0  0
   37.0420   27.8670   38.5660 C   0  0  0  0  0  0  0  0  0  0  0  0
   37.4050   29.0410   39.2020 C   0  0  0  0  0  0  0  0  0  0  0  0
   37.8050   30.9060   36.4190 H   0  0  0  0  0  0  0  0  0  0  0  0
   37.1670   28.8400   35.3650 H   0  0  0  0  0  0  0  0  0  0  0  0
   36.6670   26.8470   36.7680 H   0  0  0  0  0  0  0  0  0  0  0  0
   36.8340   27.0290   39.2190 H   0  0  0  0  0  0  0  0  0  0  0  0
   37.5160   29.1860   40.6610 C   0  0  0  0  0  0  0  0  0  0  0  0
   38.5750   28.9500   41.4670 N   0  0  0  0  0  0  0  0  0  0  0  0
   38.2040   29.2280   42.7460 C   0  0  0  0  0  0  0  0  0  0  0  0
   39.0310   29.0500   43.4340 H   0  0  0  0  0  0  0  0  0  0  0  0
   36.9210   29.6290   42.6900 N   0  0  0  0  0  0  0  0  0  0  0  0
   36.5250   29.8740   43.6370 H   0  0  0  0  0  0  0  0  0  0  0  0
   36.4980   29.6100   41.4560 N   0  0  0  0  0  0  0  0  0  0  0  0
   41.2360   30.0220   38.9180 N   0  0  0  0  0  0  0  0  0  0  0  0
   40.4120   30.8400   39.0850 C   0  0  0  0  0  0  0  0  0  0  0  0
  1  2  1  0  0  0  0
  2  3  2  0  0  0  0
  2 12  1  0  0  0  0
  3  7  1  0  0  0  0
  4  8  1  0  0  0  0
  4  3  1  0  0  0  0
  5  4  2  0  0  0  0
  6  5  1  0  0  0  0
  6  1  2  0  0  0  0
  9  5  1  0  0  0  0
 10 16  1  0  0  0  0
 11 10  1  0  0  0  0
 11 17  1  0  0  0  0
 12 11  2  0  0  0  0
 13 14  2  0  0  0  0
 13 12  1  0  0  0  0
 14 15  1  0  0  0  0
 15 10  2  0  0  0  0
 16 20  1  0  0  0  0
 16 19  1  0  0  0  0
 18 14  1  0  0  0  0
 21  6  1  0  0  0  0
 21 26  1  0  0  0  0
 22 21  2  0  0  0  0
 23 22  1  0  0  0  0
 23 24  2  0  0  0  0
 24 25  1  0  0  0  0
 25 26  2  0  0  0  0
 25 30  1  0  0  0  0
 26 31  1  0  0  0  0
 27 22  1  0  0  0  0
 28 23  1  0  0  0  0
 29 24  1  0  0  0  0
 31 37  2  0  0  0  0
 31 32  1  0  0  0  0
 32 33  2  0  0  0  0
 33 34  1  0  0  0  0
 35 33  1  0  0  0  0
 35 36  1  0  0  0  0
 37 35  1  0  0  0  0
 38 39  3  0  0  0  0
 39  1  1  0  0  0  0
M  END
>  <minimizedAffinity>
-5.75379086

$$$$

 OpenBabel03252508403D

 39 42  0  0  0  0  0  0  0  0999 V2000
   37.8820   28.9810   40.2170 C   0  0  0  0  0  0  0  0  0  0  0  0
   37.7850   30.3420   40.1370 C   0  0  0  0  0  0  0  0  0  0  0  0
   36.5700   30.9000   40.3910 C   0  0  0  0  0  0  0  0  0  0  0  0
   35.4450   30.1750   40.7220 C   0  0  0  0  0  0  0  0  0  0  0  0
   35.5750   28.8110   40.7950 C   0  0  0  0  0  0  0  0  0  0  0  0
   36.7840   28.1990   40.5460 C   0  0  0  0  0  0  0  0  0  0  0  0
   36.4830   31.9800   40.3290 H   0  0  0  0  0  0  0  0  0  0  0  0
   34.4770   30.6400   40.9230 H   0  0  0  0  0  0  0  0  0  0  0  0
   34.6910   28.2450   41.0540 H   0  0  0  0  0  0  0  0  0  0  0  0
   40.4300   32.1860   38.1690 C   0  0  0  0  0  0  0  0  0  0  0  0
   39.2520   31.4840   38.4710 C   0  0  0  0  0  0  0  0  0  0  0  0
   38.9880   31.0680   39.7870 C   0  0  0  0  0  0  0  0  0  0  0  0
   39.9440   31.4000   40.6900 N   0  0  0  0  0  0  0  0  0  0  0  0
   41.0590   32.0680   40.3890 C   0  0  0  0  0  0  0  0  0  0  0  0
   41.2970   32.4590   39.1270 N   0  0  0  0  0  0  0  0  0  0  0  0
   40.6430   32.5780   36.8350 N   0  0  0  0  0  0  0  0  0  0  0  0
   38.4890   31.2190   37.7470 H   0  0  0  0  0  0  0  0  0  0  0  0
   41.7170   32.2510   41.2320 H   0  0  0  0  0  0  0  0  0  0  0  0
   40.7260   31.7470   36.2110 H   0  0  0  0  0  0  0  0  0  0  0  0
   40.7060   33.5840   36.5200 H   0  0  0  0  0  0  0  0  0  0  0  0
   36.8150   26.7400   40.6500 C   0  0  0  0  0  0  0  0  0  0  0  0
   37.0860   26.2420   41.8960 C   0  0  0  0  0  0  0  0  0  0  0  0
   37.1540   24.8790   42.1750 C   0  0  0  0  0  0  0  0  0  0  0  0
   36.9320   24.0000   41.1210 C   0  0  0  0  0  0  0  0  0  0  0  0
   36.6600   24.4830   39.8670 C   0  0  0  0  0  0  0  0  0  0  0  0
   36.5990   25.8430   39.6190 C   0  0  0  0  0  0  0  0  0  0  0  0
   37.2700   26.8580   42.7670 H   0  0  0  0  0  0  0  0  0  0  0  0
   37.3630   24.4840   43.1390 H   0  0  0  0  0  0  0  0  0  0  0  0
   36.9640   22.9240   41.2410 H   0  0  0  0  0  0  0  0  0  0  0  0
   36.4790   23.8460   39.0100 H   0  0  0  0  0  0  0  0  0  0  0  0
   36.3120   26.4280   38.3020 C   0  0  0  0  0  0  0  0  0  0  0  0
   35.1300   26.8210   37.7790 N   0  0  0  0  0  0  0  0  0  0  0  0
   35.3590   27.3040   36.5270 C   0  0  0  0  0  0  0  0  0  0  0  0
   34.4280   27.6320   36.0650 H   0  0  0  0  0  0  0  0  0  0  0  0
   36.6830   27.1950   36.3160 N   0  0  0  0  0  0  0  0  0  0  0  0
   36.9780   27.5450   35.3660 H   0  0  0  0  0  0  0  0  0  0  0  0
   37.2630   26.6760   37.3630 N   0  0  0  0  0  0  0  0  0  0  0  0
   40.1300   27.7440   39.7560 N   0  0  0  0  0  0  0  0  0  0  0  0
   39.1220   28.3080   39.9650 C   0  0  0  0  0  0  0  0  0  0  0  0
  1  6  1  0  0  0  0
  2  1  2  0  0  0  0
  2  3  1  0  0  0  0
  3  4  2  0  0  0  0
  4  5  1  0  0  0  0
  4  8  1  0  0  0  0
  5  9  1  0  0  0  0
  6 21  1  0  0  0  0
  6  5  2  0  0  0  0
  7  3  1  0  0  0  0
 10 11  2  0  0  0  0
 10 15  1  0  0  0  0
 11 12  1  0  0  0  0
 12  2  1  0  0  0  0
 12 13  2  0  0  0  0
 14 13  1  0  0  0  0
 14 18  1  0  0  0  0
 15 14  2  0  0  0  0
 16 10  1  0  0  0  0
 17 11  1  0  0  0  0
 19 16  1  0  0  0  0
 20 16  1  0  0  0  0
 21 22  1  0  0  0  0
 22 23  2  0  0  0  0
 22 27  1  0  0  0  0
 23 28  1  0  0  0  0
 24 29  1  0  0  0  0
 24 23  1  0  0  0  0
 25 24  2  0  0  0  0
 26 25  1  0  0  0  0
 26 21  2  0  0  0  0
 30 25  1  0  0  0  0
 31 26  1  0  0  0  0
 32 31  1  0  0  0  0
 33 32  2  0  0  0  0
 34 33  1  0  0  0  0
 35 33  1  0  0  0  0
 35 37  1  0  0  0  0
 36 35  1  0  0  0  0
 37 31  2  0  0  0  0
 38 39  3  0  0  0  0
 39  1  1  0  0  0  0
M  END
>  <minimizedAffinity>
-5.75000143

$$$$

 OpenBabel03252508403D

 39 42  0  0  0  0  0  0  0  0999 V2000
   40.4680   28.2740   40.5360 C   0  0  0  0  0  0  0  0  0  0  0  0
   41.3230   29.3400   40.5020 C   0  0  0  0  0  0  0  0  0  0  0  0
   41.8210   29.7820   41.6880 C   0  0  0  0  0  0  0  0  0  0  0  0
   41.5140   29.2190   42.9080 C   0  0  0  0  0  0  0  0  0  0  0  0
   40.6530   28.1510   42.9090 C   0  0  0  0  0  0  0  0  0  0  0  0
   40.1220   27.6670   41.7330 C   0  0  0  0  0  0  0  0  0  0  0  0
   42.5000   30.6280   41.6710 H   0  0  0  0  0  0  0  0  0  0  0  0
   41.9240   29.5870   43.8520 H   0  0  0  0  0  0  0  0  0  0  0  0
   40.4140   27.7120   43.8680 H   0  0  0  0  0  0  0  0  0  0  0  0
   41.1580   31.4440   37.3680 C   0  0  0  0  0  0  0  0  0  0  0  0
   40.8390   30.9220   38.6330 C   0  0  0  0  0  0  0  0  0  0  0  0
   41.6210   29.9040   39.2010 C   0  0  0  0  0  0  0  0  0  0  0  0
   42.6670   29.4970   38.4370 N   0  0  0  0  0  0  0  0  0  0  0  0
   42.9590   30.0020   37.2380 C   0  0  0  0  0  0  0  0  0  0  0  0
   42.2020   30.9760   36.7080 N   0  0  0  0  0  0  0  0  0  0  0  0
   40.3400   32.4630   36.8480 N   0  0  0  0  0  0  0  0  0  0  0  0
   40.0020   31.2480   39.2410 H   0  0  0  0  0  0  0  0  0  0  0  0
   43.8300   29.5630   36.7630 H   0  0  0  0  0  0  0  0  0  0  0  0
   39.3680   32.1190   36.6950 H   0  0  0  0  0  0  0  0  0  0  0  0
   40.6780   33.4430   36.6450 H   0  0  0  0  0  0  0  0  0  0  0  0
   39.2150   26.5230   41.8440 C   0  0  0  0  0  0  0  0  0  0  0  0
   39.8170   25.2980   41.9380 C   0  0  0  0  0  0  0  0  0  0  0  0
   39.1060   24.1060   42.0500 C   0  0  0  0  0  0  0  0  0  0  0  0
   37.7190   24.1880   42.0660 C   0  0  0  0  0  0  0  0  0  0  0  0
   37.1000   25.4090   41.9740 C   0  0  0  0  0  0  0  0  0  0  0  0
   37.8330   26.5770   41.8630 C   0  0  0  0  0  0  0  0  0  0  0  0
   40.8890   25.1480   41.9330 H   0  0  0  0  0  0  0  0  0  0  0  0
   39.5650   23.1490   42.1230 H   0  0  0  0  0  0  0  0  0  0  0  0
   37.0830   23.3160   42.1500 H   0  0  0  0  0  0  0  0  0  0  0  0
   36.0250   25.5340   41.9810 H   0  0  0  0  0  0  0  0  0  0  0  0
   37.2360   27.9170   41.7600 C   0  0  0  0  0  0  0  0  0  0  0  0
   36.6470   28.5120   40.7000 N   0  0  0  0  0  0  0  0  0  0  0  0
   36.2440   29.7550   41.0810 C   0  0  0  0  0  0  0  0  0  0  0  0
   35.7620   30.2740   40.2520 H   0  0  0  0  0  0  0  0  0  0  0  0
   36.6000   29.8890   42.3710 N   0  0  0  0  0  0  0  0  0  0  0  0
   36.3340   30.8260   42.7760 H   0  0  0  0  0  0  0  0  0  0  0  0
   37.1910   28.8040   42.7890 N   0  0  0  0  0  0  0  0  0  0  0  0
   39.4140   27.3150   38.3520 N   0  0  0  0  0  0  0  0  0  0  0  0
   39.8950   27.7420   39.3340 C   0  0  0  0  0  0  0  0  0  0  0  0
  1  6  1  0  0  0  0
  2  1  2  0  0  0  0
  2  3  1  0  0  0  0
  3  4  2  0  0  0  0
  4  5  1  0  0  0  0
  4  8  1  0  0  0  0
  5  9  1  0  0  0  0
  6 21  1  0  0  0  0
  6  5  2  0  0  0  0
  7  3  1  0  0  0  0
 10 11  1  0  0  0  0
 11 12  2  0  0  0  0
 11 17  1  0  0  0  0
 12  2  1  0  0  0  0
 13 12  1  0  0  0  0
 14 13  2  0  0  0  0
 15 14  1  0  0  0  0
 15 10  2  0  0  0  0
 16 10  1  0  0  0  0
 18 14  1  0  0  0  0
 19 16  1  0  0  0  0
 20 16  1  0  0  0  0
 21 26  2  0  0  0  0
 21 22  1  0  0  0  0
 22 23  2  0  0  0  0
 23 24  1  0  0  0  0
 23 28  1  0  0  0  0
 24 29  1  0  0  0  0
 25 30  1  0  0  0  0
 25 24  2  0  0  0  0
 26 25  1  0  0  0  0
 27 22  1  0  0  0  0
 31 26  1  0  0  0  0
 31 37  2  0  0  0  0
 32 33  2  0  0  0  0
 32 31  1  0  0  0  0
 33 35  1  0  0  0  0
 34 33  1  0  0  0  0
 35 36  1  0  0  0  0
 35 37  1  0  0  0  0
 38 39  3  0  0  0  0
 39  1  1  0  0  0  0
M  END
>  <minimizedAffinity>
-5.73828888

$$$$
