
 OpenBabel03242514143D

 32 34  0  0  0  0  0  0  0  0999 V2000
   37.3870   28.4400   41.3130 C   0  0  0  0  0  0  0  0  0  0  0  0
   38.8760   28.3070   41.2910 C   0  0  0  0  0  0  0  0  0  0  0  0
   39.3550   27.3020   42.1830 C   0  0  0  0  0  0  0  0  0  0  0  0
   38.7150   27.1250   43.5560 C   0  0  0  0  0  0  0  0  0  0  0  0
   37.3950   27.8700   43.6790 C   0  0  0  0  0  0  0  0  0  0  0  0
   36.6460   27.7590   42.3550 C   0  0  0  0  0  0  0  0  0  0  0  0
   37.1670   29.5370   41.5330 H   0  0  0  0  0  0  0  0  0  0  0  0
   39.3730   29.3240   41.3350 H   0  0  0  0  0  0  0  0  0  0  0  0
   39.1400   27.9920   40.2330 H   0  0  0  0  0  0  0  0  0  0  0  0
   39.8250   26.3640   41.8380 H   0  0  0  0  0  0  0  0  0  0  0  0
   40.3770   27.7800   42.5420 H   0  0  0  0  0  0  0  0  0  0  0  0
   38.4560   26.0310   43.6380 H   0  0  0  0  0  0  0  0  0  0  0  0
   39.3270   27.3840   44.4050 H   0  0  0  0  0  0  0  0  0  0  0  0
   37.6030   28.9350   43.9090 H   0  0  0  0  0  0  0  0  0  0  0  0
   36.7850   27.3960   44.4690 H   0  0  0  0  0  0  0  0  0  0  0  0
   36.3520   26.7320   42.3020 H   0  0  0  0  0  0  0  0  0  0  0  0
   35.6760   28.3150   42.5630 H   0  0  0  0  0  0  0  0  0  0  0  0
   36.7780   28.2420   39.9910 C   0  0  0  0  0  0  0  0  0  0  0  0
   36.4670   29.4260   39.3550 C   0  0  0  0  0  0  0  0  0  0  0  0
   35.7580   29.2490   38.1540 C   0  0  0  0  0  0  0  0  0  0  0  0
   35.4550   27.9910   37.7220 N   0  0  0  0  0  0  0  0  0  0  0  0
   35.7990   26.8760   38.3870 C   0  0  0  0  0  0  0  0  0  0  0  0
   36.4650   27.0030   39.5320 N   0  0  0  0  0  0  0  0  0  0  0  0
   35.3670   29.9540   37.4350 H   0  0  0  0  0  0  0  0  0  0  0  0
   35.5790   25.8800   38.0680 H   0  0  0  0  0  0  0  0  0  0  0  0
   36.6760   30.8560   39.4770 C   0  0  0  0  0  0  0  0  0  0  0  0
   37.1410   31.6800   38.5170 N   0  0  0  0  0  0  0  0  0  0  0  0
   37.2960   32.8820   39.0880 C   0  0  0  0  0  0  0  0  0  0  0  0
   37.6670   33.6760   38.4490 H   0  0  0  0  0  0  0  0  0  0  0  0
   36.9440   32.8390   40.3750 N   0  0  0  0  0  0  0  0  0  0  0  0
   36.9880   33.6720   41.0140 H   0  0  0  0  0  0  0  0  0  0  0  0
   36.5720   31.6080   40.5920 N   0  0  0  0  0  0  0  0  0  0  0  0
  1  7  1  0  0  0  0
  1  6  1  0  0  0  0
  2  1  1  0  0  0  0
  2  8  1  0  0  0  0
  2  3  1  0  0  0  0
  3 11  1  0  0  0  0
  3  4  1  0  0  0  0
  4 12  1  0  0  0  0
  4  5  1  0  0  0  0
  4 13  1  0  0  0  0
  5 14  1  0  0  0  0
  5 15  1  0  0  0  0
  6 17  1  0  0  0  0
  6  5  1  0  0  0  0
  9  2  1  0  0  0  0
 10  3  1  0  0  0  0
 16  6  1  0  0  0  0
 18  1  1  0  0  0  0
 19 26  1  0  0  0  0
 19 18  2  0  0  0  0
 20 19  1  0  0  0  0
 21 20  2  0  0  0  0
 21 22  1  0  0  0  0
 22 23  2  0  0  0  0
 23 18  1  0  0  0  0
 24 20  1  0  0  0  0
 25 22  1  0  0  0  0
 26 32  2  0  0  0  0
 27 28  2  0  0  0  0
 27 26  1  0  0  0  0
 28 30  1  0  0  0  0
 29 28  1  0  0  0  0
 30 32  1  0  0  0  0
 30 31  1  0  0  0  0
M  END
>  <minimizedAffinity>
-5.12263536

$$$$

 OpenBabel03242514143D

 32 34  0  0  0  0  0  0  0  0999 V2000
   35.9870   28.1170   40.1380 C   0  0  0  0  0  0  0  0  0  0  0  0
   36.8940   27.9550   38.9600 C   0  0  0  0  0  0  0  0  0  0  0  0
   36.6640   28.9310   37.9460 C   0  0  0  0  0  0  0  0  0  0  0  0
   35.2430   29.3650   37.6060 C   0  0  0  0  0  0  0  0  0  0  0  0
   34.2330   28.9070   38.6460 C   0  0  0  0  0  0  0  0  0  0  0  0
   34.8670   29.0290   40.0280 C   0  0  0  0  0  0  0  0  0  0  0  0
   35.4700   27.1110   40.2840 H   0  0  0  0  0  0  0  0  0  0  0  0
   36.9490   26.8700   38.6390 H   0  0  0  0  0  0  0  0  0  0  0  0
   37.9460   28.1060   39.3610 H   0  0  0  0  0  0  0  0  0  0  0  0
   37.3940   29.7210   37.6930 H   0  0  0  0  0  0  0  0  0  0  0  0
   36.8800   28.3020   36.9670 H   0  0  0  0  0  0  0  0  0  0  0  0
   35.2420   30.4910   37.6560 H   0  0  0  0  0  0  0  0  0  0  0  0
   34.8760   29.0770   36.6330 H   0  0  0  0  0  0  0  0  0  0  0  0
   33.9630   27.8500   38.4460 H   0  0  0  0  0  0  0  0  0  0  0  0
   33.3480   29.5660   38.6060 H   0  0  0  0  0  0  0  0  0  0  0  0
   34.9400   30.0830   40.1940 H   0  0  0  0  0  0  0  0  0  0  0  0
   34.0300   28.6960   40.7240 H   0  0  0  0  0  0  0  0  0  0  0  0
   36.7170   28.2980   41.3990 C   0  0  0  0  0  0  0  0  0  0  0  0
   37.3680   29.5120   41.4790 C   0  0  0  0  0  0  0  0  0  0  0  0
   38.1820   29.6390   42.6180 C   0  0  0  0  0  0  0  0  0  0  0  0
   38.2580   28.6170   43.5180 N   0  0  0  0  0  0  0  0  0  0  0  0
   37.5860   27.4610   43.3840 C   0  0  0  0  0  0  0  0  0  0  0  0
   36.8110   27.3000   42.3150 N   0  0  0  0  0  0  0  0  0  0  0  0
   38.8160   30.4410   42.9680 H   0  0  0  0  0  0  0  0  0  0  0  0
   37.6240   26.6480   44.0760 H   0  0  0  0  0  0  0  0  0  0  0  0
   37.4640   30.7830   40.7870 C   0  0  0  0  0  0  0  0  0  0  0  0
   38.5560   31.2730   40.1670 N   0  0  0  0  0  0  0  0  0  0  0  0
   38.2470   32.5170   39.7750 C   0  0  0  0  0  0  0  0  0  0  0  0
   39.0220   33.0650   39.2520 H   0  0  0  0  0  0  0  0  0  0  0  0
   36.9970   32.8230   40.1300 N   0  0  0  0  0  0  0  0  0  0  0  0
   36.5480   33.7500   39.9230 H   0  0  0  0  0  0  0  0  0  0  0  0
   36.5400   31.7640   40.7400 N   0  0  0  0  0  0  0  0  0  0  0  0
  1  7  1  0  0  0  0
  1 18  1  0  0  0  0
  2  9  1  0  0  0  0
  2  1  1  0  0  0  0
  3  2  1  0  0  0  0
  4 12  1  0  0  0  0
  4  3  1  0  0  0  0
  4  5  1  0  0  0  0
  5  6  1  0  0  0  0
  6  1  1  0  0  0  0
  6 16  1  0  0  0  0
  6 17  1  0  0  0  0
  8  2  1  0  0  0  0
 10  3  1  0  0  0  0
 11  3  1  0  0  0  0
 13  4  1  0  0  0  0
 14  5  1  0  0  0  0
 15  5  1  0  0  0  0
 18 19  2  0  0  0  0
 18 23  1  0  0  0  0
 19 20  1  0  0  0  0
 20 24  1  0  0  0  0
 20 21  2  0  0  0  0
 22 21  1  0  0  0  0
 22 25  1  0  0  0  0
 23 22  2  0  0  0  0
 26 19  1  0  0  0  0
 27 26  1  0  0  0  0
 28 30  1  0  0  0  0
 28 27  2  0  0  0  0
 29 28  1  0  0  0  0
 30 32  1  0  0  0  0
 31 30  1  0  0  0  0
 32 26  2  0  0  0  0
M  END
>  <minimizedAffinity>
-5.10029507

$$$$

 OpenBabel03242514143D

 32 34  0  0  0  0  0  0  0  0999 V2000
   37.4700   26.7510   41.5800 C   0  0  0  0  0  0  0  0  0  0  0  0
   36.9400   25.7140   42.5170 C   0  0  0  0  0  0  0  0  0  0  0  0
   36.9450   24.4030   41.9530 C   0  0  0  0  0  0  0  0  0  0  0  0
   36.5730   24.1960   40.4890 C   0  0  0  0  0  0  0  0  0  0  0  0
   36.5400   25.5000   39.7100 C   0  0  0  0  0  0  0  0  0  0  0  0
   37.6830   26.3870   40.1940 C   0  0  0  0  0  0  0  0  0  0  0  0
   36.6640   27.5530   41.5010 H   0  0  0  0  0  0  0  0  0  0  0  0
   35.9830   26.0660   43.0100 H   0  0  0  0  0  0  0  0  0  0  0  0
   37.6450   25.7160   43.4070 H   0  0  0  0  0  0  0  0  0  0  0  0
   37.6020   23.5930   42.3160 H   0  0  0  0  0  0  0  0  0  0  0  0
   35.9680   23.9410   42.4360 H   0  0  0  0  0  0  0  0  0  0  0  0
   37.4120   23.5930   40.0390 H   0  0  0  0  0  0  0  0  0  0  0  0
   35.6500   23.6700   40.3020 H   0  0  0  0  0  0  0  0  0  0  0  0
   35.5680   26.0040   39.8900 H   0  0  0  0  0  0  0  0  0  0  0  0
   36.6910   25.2850   38.6370 H   0  0  0  0  0  0  0  0  0  0  0  0
   38.5650   25.9010   39.8350 H   0  0  0  0  0  0  0  0  0  0  0  0
   37.5870   27.3100   39.5350 H   0  0  0  0  0  0  0  0  0  0  0  0
   38.6140   27.4880   42.1330 C   0  0  0  0  0  0  0  0  0  0  0  0
   38.5510   28.8450   41.8900 C   0  0  0  0  0  0  0  0  0  0  0  0
   39.7060   29.5410   42.2910 C   0  0  0  0  0  0  0  0  0  0  0  0
   40.7410   28.8650   42.8690 N   0  0  0  0  0  0  0  0  0  0  0  0
   40.7310   27.5390   43.0860 C   0  0  0  0  0  0  0  0  0  0  0  0
   39.6590   26.8460   42.7140 N   0  0  0  0  0  0  0  0  0  0  0  0
   39.9750   30.5850   42.2380 H   0  0  0  0  0  0  0  0  0  0  0  0
   41.5250   26.9880   43.5410 H   0  0  0  0  0  0  0  0  0  0  0  0
   37.6410   29.8570   41.3890 C   0  0  0  0  0  0  0  0  0  0  0  0
   37.9610   30.8880   40.5820 N   0  0  0  0  0  0  0  0  0  0  0  0
   36.8570   31.6400   40.4700 C   0  0  0  0  0  0  0  0  0  0  0  0
   36.9370   32.5240   39.8460 H   0  0  0  0  0  0  0  0  0  0  0  0
   35.8570   31.1150   41.1810 N   0  0  0  0  0  0  0  0  0  0  0  0
   34.8990   31.5440   41.2350 H   0  0  0  0  0  0  0  0  0  0  0  0
   36.3490   30.0390   41.7290 N   0  0  0  0  0  0  0  0  0  0  0  0
  1 18  1  0  0  0  0
  1  2  1  0  0  0  0
  2  8  1  0  0  0  0
  2  9  1  0  0  0  0
  3 10  1  0  0  0  0
  3 11  1  0  0  0  0
  3  2  1  0  0  0  0
  4  3  1  0  0  0  0
  5 14  1  0  0  0  0
  5  6  1  0  0  0  0
  5  4  1  0  0  0  0
  6  1  1  0  0  0  0
  7  1  1  0  0  0  0
 12  4  1  0  0  0  0
 13  4  1  0  0  0  0
 15  5  1  0  0  0  0
 16  6  1  0  0  0  0
 17  6  1  0  0  0  0
 18 23  1  0  0  0  0
 19 18  2  0  0  0  0
 19 20  1  0  0  0  0
 20 21  2  0  0  0  0
 21 22  1  0  0  0  0
 22 25  1  0  0  0  0
 23 22  2  0  0  0  0
 24 20  1  0  0  0  0
 26 32  2  0  0  0  0
 26 19  1  0  0  0  0
 27 26  1  0  0  0  0
 28 27  2  0  0  0  0
 28 30  1  0  0  0  0
 29 28  1  0  0  0  0
 30 31  1  0  0  0  0
 30 32  1  0  0  0  0
M  END
>  <minimizedAffinity>
-5.06522846

$$$$

 OpenBabel03242514143D

 32 34  0  0  0  0  0  0  0  0999 V2000
   38.2330   29.2510   42.0750 C   0  0  0  0  0  0  0  0  0  0  0  0
   37.7910   28.9210   43.4650 C   0  0  0  0  0  0  0  0  0  0  0  0
   37.6370   27.5190   43.6790 C   0  0  0  0  0  0  0  0  0  0  0  0
   37.0380   26.6370   42.5890 C   0  0  0  0  0  0  0  0  0  0  0  0
   36.9630   27.3470   41.2460 C   0  0  0  0  0  0  0  0  0  0  0  0
   38.2150   28.2020   41.0760 C   0  0  0  0  0  0  0  0  0  0  0  0
   37.4720   29.9930   41.6640 H   0  0  0  0  0  0  0  0  0  0  0  0
   36.9410   29.5960   43.7890 H   0  0  0  0  0  0  0  0  0  0  0  0
   38.6210   29.2910   44.1460 H   0  0  0  0  0  0  0  0  0  0  0  0
   38.2940   26.9350   44.3480 H   0  0  0  0  0  0  0  0  0  0  0  0
   36.7190   27.5000   44.4260 H   0  0  0  0  0  0  0  0  0  0  0  0
   37.7640   25.7880   42.4440 H   0  0  0  0  0  0  0  0  0  0  0  0
   36.0690   26.2120   42.7970 H   0  0  0  0  0  0  0  0  0  0  0  0
   36.0600   27.9900   41.2280 H   0  0  0  0  0  0  0  0  0  0  0  0
   36.9400   26.5930   40.4390 H   0  0  0  0  0  0  0  0  0  0  0  0
   39.0040   27.4930   40.9430 H   0  0  0  0  0  0  0  0  0  0  0  0
   38.0750   28.6580   40.0430 H   0  0  0  0  0  0  0  0  0  0  0  0
   39.4870   30.0150   42.0420 C   0  0  0  0  0  0  0  0  0  0  0  0
   39.4160   31.1380   41.2440 C   0  0  0  0  0  0  0  0  0  0  0  0
   40.6480   31.7990   41.0930 C   0  0  0  0  0  0  0  0  0  0  0  0
   41.7600   31.3170   41.7200 N   0  0  0  0  0  0  0  0  0  0  0  0
   41.7570   30.2200   42.4950 C   0  0  0  0  0  0  0  0  0  0  0  0
   40.6110   29.5630   42.6560 N   0  0  0  0  0  0  0  0  0  0  0  0
   40.9310   32.6830   40.5410 H   0  0  0  0  0  0  0  0  0  0  0  0
   42.6110   29.8250   43.0000 H   0  0  0  0  0  0  0  0  0  0  0  0
   38.4520   31.9400   40.5150 C   0  0  0  0  0  0  0  0  0  0  0  0
   37.8780   31.6230   39.3370 N   0  0  0  0  0  0  0  0  0  0  0  0
   37.1560   32.6890   38.9660 C   0  0  0  0  0  0  0  0  0  0  0  0
   36.6200   32.6050   38.0270 H   0  0  0  0  0  0  0  0  0  0  0  0
   37.2600   33.6650   39.8710 N   0  0  0  0  0  0  0  0  0  0  0  0
   36.7750   34.5920   39.7790 H   0  0  0  0  0  0  0  0  0  0  0  0
   38.0460   33.1940   40.7990 N   0  0  0  0  0  0  0  0  0  0  0  0
  1  2  1  0  0  0  0
  2  3  1  0  0  0  0
  2  8  1  0  0  0  0
  2  9  1  0  0  0  0
  3 10  1  0  0  0  0
  3 11  1  0  0  0  0
  4 13  1  0  0  0  0
  4  3  1  0  0  0  0
  5  4  1  0  0  0  0
  6  5  1  0  0  0  0
  6  1  1  0  0  0  0
  7  1  1  0  0  0  0
 12  4  1  0  0  0  0
 14  5  1  0  0  0  0
 15  5  1  0  0  0  0
 16  6  1  0  0  0  0
 17  6  1  0  0  0  0
 18  1  1  0  0  0  0
 18 23  1  0  0  0  0
 19 18  2  0  0  0  0
 20 19  1  0  0  0  0
 20 21  2  0  0  0  0
 21 22  1  0  0  0  0
 22 23  2  0  0  0  0
 22 25  1  0  0  0  0
 24 20  1  0  0  0  0
 26 32  2  0  0  0  0
 26 19  1  0  0  0  0
 27 26  1  0  0  0  0
 28 27  2  0  0  0  0
 28 30  1  0  0  0  0
 29 28  1  0  0  0  0
 30 32  1  0  0  0  0
 31 30  1  0  0  0  0
M  END
>  <minimizedAffinity>
-4.79230738

$$$$

 OpenBabel03242514143D

 32 34  0  0  0  0  0  0  0  0999 V2000
   37.3200   25.6530   40.8450 C   0  0  0  0  0  0  0  0  0  0  0  0
   36.5870   24.4160   41.2550 C   0  0  0  0  0  0  0  0  0  0  0  0
   36.8960   23.2910   40.4350 C   0  0  0  0  0  0  0  0  0  0  0  0
   37.0710   23.4630   38.9300 C   0  0  0  0  0  0  0  0  0  0  0  0
   37.2010   24.9230   38.5260 C   0  0  0  0  0  0  0  0  0  0  0  0
   38.0280   25.6500   39.5820 C   0  0  0  0  0  0  0  0  0  0  0  0
   36.5270   26.4550   40.6790 H   0  0  0  0  0  0  0  0  0  0  0  0
   35.4920   24.6390   41.4450 H   0  0  0  0  0  0  0  0  0  0  0  0
   36.9380   24.1880   42.3110 H   0  0  0  0  0  0  0  0  0  0  0  0
   37.4520   22.4100   40.8030 H   0  0  0  0  0  0  0  0  0  0  0  0
   35.8550   22.7280   40.4130 H   0  0  0  0  0  0  0  0  0  0  0  0
   38.0620   22.9880   38.6770 H   0  0  0  0  0  0  0  0  0  0  0  0
   36.3180   23.0080   38.3060 H   0  0  0  0  0  0  0  0  0  0  0  0
   36.1890   25.3710   38.4630 H   0  0  0  0  0  0  0  0  0  0  0  0
   37.7320   24.9850   37.5590 H   0  0  0  0  0  0  0  0  0  0  0  0
   39.0180   25.2640   39.4550 H   0  0  0  0  0  0  0  0  0  0  0  0
   38.0900   26.7100   39.1730 H   0  0  0  0  0  0  0  0  0  0  0  0
   38.1360   26.2170   41.9280 C   0  0  0  0  0  0  0  0  0  0  0  0
   37.9910   27.5830   42.0590 C   0  0  0  0  0  0  0  0  0  0  0  0
   38.8700   28.1540   42.9960 C   0  0  0  0  0  0  0  0  0  0  0  0
   39.7450   27.3600   43.6790 N   0  0  0  0  0  0  0  0  0  0  0  0
   39.8260   26.0300   43.5100 C   0  0  0  0  0  0  0  0  0  0  0  0
   39.0150   25.4540   42.6260 N   0  0  0  0  0  0  0  0  0  0  0  0
   39.0160   29.1720   43.3240 H   0  0  0  0  0  0  0  0  0  0  0  0
   40.4980   25.3860   44.0360 H   0  0  0  0  0  0  0  0  0  0  0  0
   37.1700   28.6780   41.5780 C   0  0  0  0  0  0  0  0  0  0  0  0
   37.5570   29.9610   41.4320 N   0  0  0  0  0  0  0  0  0  0  0  0
   36.4620   30.6520   41.0870 C   0  0  0  0  0  0  0  0  0  0  0  0
   36.5930   31.7160   40.9260 H   0  0  0  0  0  0  0  0  0  0  0  0
   35.4010   29.8440   41.0130 N   0  0  0  0  0  0  0  0  0  0  0  0
   34.4370   30.1780   40.7590 H   0  0  0  0  0  0  0  0  0  0  0  0
   35.8480   28.6570   41.3130 N   0  0  0  0  0  0  0  0  0  0  0  0
  1  2  1  0  0  0  0
  1 18  1  0  0  0  0
  2  8  1  0  0  0  0
  2  9  1  0  0  0  0
  3 10  1  0  0  0  0
  3  2  1  0  0  0  0
  4  3  1  0  0  0  0
  5  4  1  0  0  0  0
  5  6  1  0  0  0  0
  6  1  1  0  0  0  0
  7  1  1  0  0  0  0
 11  3  1  0  0  0  0
 12  4  1  0  0  0  0
 13  4  1  0  0  0  0
 14  5  1  0  0  0  0
 15  5  1  0  0  0  0
 16  6  1  0  0  0  0
 17  6  1  0  0  0  0
 18 19  2  0  0  0  0
 18 23  1  0  0  0  0
 19 20  1  0  0  0  0
 20 24  1  0  0  0  0
 20 21  2  0  0  0  0
 22 21  1  0  0  0  0
 22 25  1  0  0  0  0
 23 22  2  0  0  0  0
 26 19  1  0  0  0  0
 27 26  1  0  0  0  0
 28 27  2  0  0  0  0
 29 28  1  0  0  0  0
 30 28  1  0  0  0  0
 30 32  1  0  0  0  0
 31 30  1  0  0  0  0
 32 26  2  0  0  0  0
M  END
>  <minimizedAffinity>
-4.7479105

$$$$

 OpenBabel03242514143D

 32 34  0  0  0  0  0  0  0  0999 V2000
   38.1040   29.4250   41.0580 C   0  0  0  0  0  0  0  0  0  0  0  0
   38.7450   29.5950   42.3980 C   0  0  0  0  0  0  0  0  0  0  0  0
   38.5450   28.4710   43.2540 C   0  0  0  0  0  0  0  0  0  0  0  0
   37.2020   27.7490   43.2720 C   0  0  0  0  0  0  0  0  0  0  0  0
   36.3140   28.1480   42.1040 C   0  0  0  0  0  0  0  0  0  0  0  0
   37.1860   28.3200   40.8650 C   0  0  0  0  0  0  0  0  0  0  0  0
   37.4280   30.3320   40.9090 H   0  0  0  0  0  0  0  0  0  0  0  0
   38.5260   30.6210   42.8240 H   0  0  0  0  0  0  0  0  0  0  0  0
   39.8580   29.6870   42.1950 H   0  0  0  0  0  0  0  0  0  0  0  0
   39.3630   27.7990   43.5680 H   0  0  0  0  0  0  0  0  0  0  0  0
   38.4600   28.9980   44.3110 H   0  0  0  0  0  0  0  0  0  0  0  0
   37.4350   26.6570   43.1180 H   0  0  0  0  0  0  0  0  0  0  0  0
   36.6240   27.8390   44.1790 H   0  0  0  0  0  0  0  0  0  0  0  0
   35.8080   29.1050   42.3470 H   0  0  0  0  0  0  0  0  0  0  0  0
   35.5850   27.3410   41.9120 H   0  0  0  0  0  0  0  0  0  0  0  0
   37.4960   27.3270   40.6180 H   0  0  0  0  0  0  0  0  0  0  0  0
   36.4310   28.5840   40.0560 H   0  0  0  0  0  0  0  0  0  0  0  0
   39.0600   29.5420   39.9500 C   0  0  0  0  0  0  0  0  0  0  0  0
   39.0360   30.7810   39.3430 C   0  0  0  0  0  0  0  0  0  0  0  0
   39.8440   30.8600   38.1950 C   0  0  0  0  0  0  0  0  0  0  0  0
   40.5620   29.7720   37.7920 N   0  0  0  0  0  0  0  0  0  0  0  0
   40.5470   28.5940   38.4380 C   0  0  0  0  0  0  0  0  0  0  0  0
   39.7890   28.4780   39.5250 N   0  0  0  0  0  0  0  0  0  0  0  0
   40.0390   31.6650   37.5020 H   0  0  0  0  0  0  0  0  0  0  0  0
   41.1030   27.7290   38.1470 H   0  0  0  0  0  0  0  0  0  0  0  0
   38.4800   32.1100   39.5200 C   0  0  0  0  0  0  0  0  0  0  0  0
   39.1100   33.1730   40.0580 N   0  0  0  0  0  0  0  0  0  0  0  0
   38.1990   34.1520   40.1440 C   0  0  0  0  0  0  0  0  0  0  0  0
   38.5400   35.0930   40.5600 H   0  0  0  0  0  0  0  0  0  0  0  0
   37.0190   33.7370   39.6790 N   0  0  0  0  0  0  0  0  0  0  0  0
   36.1620   34.3440   39.6530 H   0  0  0  0  0  0  0  0  0  0  0  0
   37.2080   32.5010   39.3060 N   0  0  0  0  0  0  0  0  0  0  0  0
  1  2  1  0  0  0  0
  2  8  1  0  0  0  0
  2  3  1  0  0  0  0
  3  4  1  0  0  0  0
  3 10  1  0  0  0  0
  3 11  1  0  0  0  0
  4 13  1  0  0  0  0
  5 14  1  0  0  0  0
  5  4  1  0  0  0  0
  6  1  1  0  0  0  0
  6  5  1  0  0  0  0
  7  1  1  0  0  0  0
  9  2  1  0  0  0  0
 12  4  1  0  0  0  0
 15  5  1  0  0  0  0
 16  6  1  0  0  0  0
 17  6  1  0  0  0  0
 18  1  1  0  0  0  0
 19 26  1  0  0  0  0
 19 18  2  0  0  0  0
 20 19  1  0  0  0  0
 21 20  2  0  0  0  0
 21 22  1  0  0  0  0
 22 23  2  0  0  0  0
 23 18  1  0  0  0  0
 24 20  1  0  0  0  0
 25 22  1  0  0  0  0
 26 27  1  0  0  0  0
 27 28  2  0  0  0  0
 28 29  1  0  0  0  0
 30 28  1  0  0  0  0
 31 30  1  0  0  0  0
 32 26  2  0  0  0  0
 32 30  1  0  0  0  0
M  END
>  <minimizedAffinity>
-4.71993971

$$$$

 OpenBabel03242514143D

 32 34  0  0  0  0  0  0  0  0999 V2000
   39.1180   27.2370   42.3220 C   0  0  0  0  0  0  0  0  0  0  0  0
   39.6070   26.8220   43.6730 C   0  0  0  0  0  0  0  0  0  0  0  0
   40.1720   25.5130   43.6800 C   0  0  0  0  0  0  0  0  0  0  0  0
   39.5370   24.3970   42.8570 C   0  0  0  0  0  0  0  0  0  0  0  0
   38.5200   24.9230   41.8560 C   0  0  0  0  0  0  0  0  0  0  0  0
   39.0390   26.2350   41.2780 C   0  0  0  0  0  0  0  0  0  0  0  0
   38.0270   27.5380   42.4540 H   0  0  0  0  0  0  0  0  0  0  0  0
   38.8400   27.0640   44.4710 H   0  0  0  0  0  0  0  0  0  0  0  0
   40.4260   27.5610   43.9410 H   0  0  0  0  0  0  0  0  0  0  0  0
   41.2470   25.3210   43.8480 H   0  0  0  0  0  0  0  0  0  0  0  0
   39.8500   25.1280   44.7520 H   0  0  0  0  0  0  0  0  0  0  0  0
   40.3690   23.9530   42.2410 H   0  0  0  0  0  0  0  0  0  0  0  0
   39.0750   23.5970   43.4150 H   0  0  0  0  0  0  0  0  0  0  0  0
   37.5560   25.0940   42.3780 H   0  0  0  0  0  0  0  0  0  0  0  0
   38.4120   24.1940   41.0340 H   0  0  0  0  0  0  0  0  0  0  0  0
   39.8680   25.9460   40.6670 H   0  0  0  0  0  0  0  0  0  0  0  0
   38.2310   26.5220   40.5300 H   0  0  0  0  0  0  0  0  0  0  0  0
   39.7450   28.4760   41.8440 C   0  0  0  0  0  0  0  0  0  0  0  0
   38.8420   29.3620   41.2930 C   0  0  0  0  0  0  0  0  0  0  0  0
   39.4460   30.4880   40.7070 C   0  0  0  0  0  0  0  0  0  0  0  0
   40.8030   30.6230   40.7340 N   0  0  0  0  0  0  0  0  0  0  0  0
   41.6270   29.7240   41.2990 C   0  0  0  0  0  0  0  0  0  0  0  0
   41.0920   28.6420   41.8580 N   0  0  0  0  0  0  0  0  0  0  0  0
   39.0340   31.3460   40.1960 H   0  0  0  0  0  0  0  0  0  0  0  0
   42.6910   29.8090   41.3380 H   0  0  0  0  0  0  0  0  0  0  0  0
   37.4130   29.5670   41.1500 C   0  0  0  0  0  0  0  0  0  0  0  0
   36.5270   28.6870   40.6420 N   0  0  0  0  0  0  0  0  0  0  0  0
   35.3500   29.3240   40.5790 C   0  0  0  0  0  0  0  0  0  0  0  0
   34.5140   28.7550   40.1890 H   0  0  0  0  0  0  0  0  0  0  0  0
   35.4690   30.5760   41.0290 N   0  0  0  0  0  0  0  0  0  0  0  0
   34.6680   31.2540   41.0670 H   0  0  0  0  0  0  0  0  0  0  0  0
   36.7220   30.7040   41.3690 N   0  0  0  0  0  0  0  0  0  0  0  0
  1  7  1  0  0  0  0
  1  2  1  0  0  0  0
  2  3  1  0  0  0  0
  2  9  1  0  0  0  0
  2  8  1  0  0  0  0
  3 10  1  0  0  0  0
  3 11  1  0  0  0  0
  4 13  1  0  0  0  0
  4  3  1  0  0  0  0
  5 14  1  0  0  0  0
  5  4  1  0  0  0  0
  6  5  1  0  0  0  0
  6  1  1  0  0  0  0
 12  4  1  0  0  0  0
 15  5  1  0  0  0  0
 16  6  1  0  0  0  0
 17  6  1  0  0  0  0
 18 23  1  0  0  0  0
 18  1  1  0  0  0  0
 19 18  2  0  0  0  0
 20 21  2  0  0  0  0
 20 19  1  0  0  0  0
 21 22  1  0  0  0  0
 22 25  1  0  0  0  0
 22 23  2  0  0  0  0
 24 20  1  0  0  0  0
 26 19  1  0  0  0  0
 26 32  2  0  0  0  0
 27 26  1  0  0  0  0
 28 27  2  0  0  0  0
 28 30  1  0  0  0  0
 29 28  1  0  0  0  0
 30 31  1  0  0  0  0
 30 32  1  0  0  0  0
M  END
>  <minimizedAffinity>
-4.68895817

$$$$

 OpenBabel03242514143D

 32 34  0  0  0  0  0  0  0  0999 V2000
   38.0150   28.9430   41.3290 C   0  0  0  0  0  0  0  0  0  0  0  0
   39.3220   28.2320   41.4730 C   0  0  0  0  0  0  0  0  0  0  0  0
   39.2620   27.1430   42.3920 C   0  0  0  0  0  0  0  0  0  0  0  0
   38.4550   27.2680   43.6800 C   0  0  0  0  0  0  0  0  0  0  0  0
   37.5320   28.4770   43.6690 C   0  0  0  0  0  0  0  0  0  0  0  0
   36.9540   28.6360   42.2660 C   0  0  0  0  0  0  0  0  0  0  0  0
   38.2220   30.0430   41.5450 H   0  0  0  0  0  0  0  0  0  0  0  0
   40.1720   28.9710   41.5930 H   0  0  0  0  0  0  0  0  0  0  0  0
   39.5570   27.8110   40.4450 H   0  0  0  0  0  0  0  0  0  0  0  0
   39.3590   26.0870   42.0840 H   0  0  0  0  0  0  0  0  0  0  0  0
   40.3430   27.1880   42.8740 H   0  0  0  0  0  0  0  0  0  0  0  0
   37.7770   26.3680   43.7090 H   0  0  0  0  0  0  0  0  0  0  0  0
   39.0200   27.2870   44.5980 H   0  0  0  0  0  0  0  0  0  0  0  0
   38.1160   29.3790   43.9420 H   0  0  0  0  0  0  0  0  0  0  0  0
   36.7000   28.3030   44.3750 H   0  0  0  0  0  0  0  0  0  0  0  0
   36.2860   27.8080   42.1590 H   0  0  0  0  0  0  0  0  0  0  0  0
   36.2640   29.5350   42.3750 H   0  0  0  0  0  0  0  0  0  0  0  0
   37.5290   28.9670   39.9430 C   0  0  0  0  0  0  0  0  0  0  0  0
   37.3790   30.2440   39.4440 C   0  0  0  0  0  0  0  0  0  0  0  0
   36.7830   30.2840   38.1710 C   0  0  0  0  0  0  0  0  0  0  0  0
   36.4270   29.1230   37.5500 N   0  0  0  0  0  0  0  0  0  0  0  0
   36.6130   27.9070   38.0900 C   0  0  0  0  0  0  0  0  0  0  0  0
   37.1670   27.8290   39.2970 N   0  0  0  0  0  0  0  0  0  0  0  0
   36.5240   31.1060   37.5200 H   0  0  0  0  0  0  0  0  0  0  0  0
   36.3480   26.9830   37.6230 H   0  0  0  0  0  0  0  0  0  0  0  0
   37.6860   31.6240   39.7740 C   0  0  0  0  0  0  0  0  0  0  0  0
   38.7090   32.0520   40.5400 N   0  0  0  0  0  0  0  0  0  0  0  0
   38.5480   33.3740   40.6860 C   0  0  0  0  0  0  0  0  0  0  0  0
   39.2930   33.8880   41.2820 H   0  0  0  0  0  0  0  0  0  0  0  0
   37.4560   33.7880   40.0380 N   0  0  0  0  0  0  0  0  0  0  0  0
   37.1400   34.7900   40.0210 H   0  0  0  0  0  0  0  0  0  0  0  0
   36.9490   32.7170   39.4930 N   0  0  0  0  0  0  0  0  0  0  0  0
  1  2  1  0  0  0  0
  1  7  1  0  0  0  0
  1  6  1  0  0  0  0
  2  8  1  0  0  0  0
  2  3  1  0  0  0  0
  3 11  1  0  0  0  0
  3  4  1  0  0  0  0
  4 12  1  0  0  0  0
  4 13  1  0  0  0  0
  5  4  1  0  0  0  0
  5 14  1  0  0  0  0
  5 15  1  0  0  0  0
  6 17  1  0  0  0  0
  6  5  1  0  0  0  0
  9  2  1  0  0  0  0
 10  3  1  0  0  0  0
 16  6  1  0  0  0  0
 18  1  1  0  0  0  0
 19 26  1  0  0  0  0
 19 18  1  0  0  0  0
 20 19  2  0  0  0  0
 21 22  2  0  0  0  0
 21 20  1  0  0  0  0
 22 23  1  0  0  0  0
 23 18  2  0  0  0  0
 24 20  1  0  0  0  0
 25 22  1  0  0  0  0
 26 27  1  0  0  0  0
 27 28  2  0  0  0  0
 28 29  1  0  0  0  0
 30 28  1  0  0  0  0
 31 30  1  0  0  0  0
 32 26  2  0  0  0  0
 32 30  1  0  0  0  0
M  END
>  <minimizedAffinity>
-4.6778779

$$$$

 OpenBabel03242514143D

 32 34  0  0  0  0  0  0  0  0999 V2000
   38.8170   27.7160   41.8140 C   0  0  0  0  0  0  0  0  0  0  0  0
   39.0710   26.5300   40.9410 C   0  0  0  0  0  0  0  0  0  0  0  0
   38.9850   25.2930   41.6470 C   0  0  0  0  0  0  0  0  0  0  0  0
   39.5390   25.1780   43.0630 C   0  0  0  0  0  0  0  0  0  0  0  0
   39.8470   26.5340   43.6770 C   0  0  0  0  0  0  0  0  0  0  0  0
   38.7650   27.5210   43.2490 C   0  0  0  0  0  0  0  0  0  0  0  0
   39.7190   28.4020   41.6940 H   0  0  0  0  0  0  0  0  0  0  0  0
   39.9820   26.6960   40.2890 H   0  0  0  0  0  0  0  0  0  0  0  0
   38.2490   26.5450   40.1580 H   0  0  0  0  0  0  0  0  0  0  0  0
   38.1860   24.5510   41.4700 H   0  0  0  0  0  0  0  0  0  0  0  0
   39.8160   24.6550   41.0960 H   0  0  0  0  0  0  0  0  0  0  0  0
   38.7060   24.7440   43.6870 H   0  0  0  0  0  0  0  0  0  0  0  0
   40.4060   24.5490   43.1870 H   0  0  0  0  0  0  0  0  0  0  0  0
   40.8370   26.8780   43.3130 H   0  0  0  0  0  0  0  0  0  0  0  0
   39.8280   26.4460   44.7780 H   0  0  0  0  0  0  0  0  0  0  0  0
   37.8900   27.1990   43.7740 H   0  0  0  0  0  0  0  0  0  0  0  0
   39.0690   28.4800   43.7790 H   0  0  0  0  0  0  0  0  0  0  0  0
   37.7050   28.5480   41.3360 C   0  0  0  0  0  0  0  0  0  0  0  0
   38.0100   29.8930   41.3060 C   0  0  0  0  0  0  0  0  0  0  0  0
   36.9130   30.7110   40.9840 C   0  0  0  0  0  0  0  0  0  0  0  0
   35.6960   30.1480   40.7280 N   0  0  0  0  0  0  0  0  0  0  0  0
   35.4700   28.8240   40.7640 C   0  0  0  0  0  0  0  0  0  0  0  0
   36.4830   28.0180   41.0720 N   0  0  0  0  0  0  0  0  0  0  0  0
   36.8130   31.7820   40.8860 H   0  0  0  0  0  0  0  0  0  0  0  0
   34.5300   28.3580   40.5630 H   0  0  0  0  0  0  0  0  0  0  0  0
   39.1390   30.7940   41.4460 C   0  0  0  0  0  0  0  0  0  0  0  0
   39.8190   31.3830   40.4420 N   0  0  0  0  0  0  0  0  0  0  0  0
   40.8510   32.0250   41.0070 C   0  0  0  0  0  0  0  0  0  0  0  0
   41.5120   32.5610   40.3350 H   0  0  0  0  0  0  0  0  0  0  0  0
   40.8410   31.8560   42.3310 N   0  0  0  0  0  0  0  0  0  0  0  0
   41.5620   32.2720   42.9720 H   0  0  0  0  0  0  0  0  0  0  0  0
   39.8000   31.1100   42.5780 N   0  0  0  0  0  0  0  0  0  0  0  0
  1  6  1  0  0  0  0
  2  3  1  0  0  0  0
  2  1  1  0  0  0  0
  3  4  1  0  0  0  0
  4 13  1  0  0  0  0
  4  5  1  0  0  0  0
  4 12  1  0  0  0  0
  5 15  1  0  0  0  0
  6  5  1  0  0  0  0
  6 16  1  0  0  0  0
  6 17  1  0  0  0  0
  7  1  1  0  0  0  0
  8  2  1  0  0  0  0
  9  2  1  0  0  0  0
 10  3  1  0  0  0  0
 11  3  1  0  0  0  0
 14  5  1  0  0  0  0
 18  1  1  0  0  0  0
 19 18  1  0  0  0  0
 19 26  1  0  0  0  0
 20 19  2  0  0  0  0
 21 22  2  0  0  0  0
 21 20  1  0  0  0  0
 22 23  1  0  0  0  0
 23 18  2  0  0  0  0
 24 20  1  0  0  0  0
 25 22  1  0  0  0  0
 26 32  2  0  0  0  0
 27 28  2  0  0  0  0
 27 26  1  0  0  0  0
 28 30  1  0  0  0  0
 29 28  1  0  0  0  0
 30 32  1  0  0  0  0
 30 31  1  0  0  0  0
M  END
>  <minimizedAffinity>
-4.6407032

$$$$
