
 OpenBabel03242515193D

 35 37  0  0  0  0  0  0  0  0999 V2000
   33.9410   28.3120   37.7310 C   0  0  0  0  0  0  0  0  0  0  0  0
   34.2890   27.2420   37.7730 H   0  0  0  0  0  0  0  0  0  0  0  0
   33.1310   28.3910   38.4860 H   0  0  0  0  0  0  0  0  0  0  0  0
   35.0990   29.1550   38.1180 C   0  0  0  0  0  0  0  0  0  0  0  0
   36.2160   29.5020   37.3940 C   0  0  0  0  0  0  0  0  0  0  0  0
   36.9750   30.2920   38.2090 C   0  0  0  0  0  0  0  0  0  0  0  0
   36.3480   30.4210   39.3820 N   0  0  0  0  0  0  0  0  0  0  0  0
   35.2200   29.7300   39.3110 N   0  0  0  0  0  0  0  0  0  0  0  0
   36.4220   29.1870   36.3640 H   0  0  0  0  0  0  0  0  0  0  0  0
   38.2570   30.8900   37.8500 C   0  0  0  0  0  0  0  0  0  0  0  0
   39.5280   30.6030   38.1910 N   0  0  0  0  0  0  0  0  0  0  0  0
   40.3720   31.4710   37.5800 C   0  0  0  0  0  0  0  0  0  0  0  0
   41.4530   31.4330   37.7080 H   0  0  0  0  0  0  0  0  0  0  0  0
   39.5880   32.3080   36.8460 N   0  0  0  0  0  0  0  0  0  0  0  0
   40.0030   33.0830   36.2710 H   0  0  0  0  0  0  0  0  0  0  0  0
   38.3350   31.9450   37.0220 N   0  0  0  0  0  0  0  0  0  0  0  0
   36.7920   31.1810   40.5600 C   0  0  0  0  0  0  0  0  0  0  0  0
   35.8580   31.0580   41.5880 F   0  0  0  0  0  0  0  0  0  0  0  0
   37.0260   32.4840   40.2100 F   0  0  0  0  0  0  0  0  0  0  0  0
   37.9690   30.6390   41.0090 F   0  0  0  0  0  0  0  0  0  0  0  0
   33.4680   28.6390   36.3400 C   0  0  0  0  0  0  0  0  0  0  0  0
   33.3160   27.7030   35.8300 H   0  0  0  0  0  0  0  0  0  0  0  0
   34.2980   29.2250   35.8510 H   0  0  0  0  0  0  0  0  0  0  0  0
   30.8290   31.1480   35.5470 C   0  0  0  0  0  0  0  0  0  0  0  0
   30.0310   31.0470   36.6980 C   0  0  0  0  0  0  0  0  0  0  0  0
   30.4150   30.1490   37.6740 C   0  0  0  0  0  0  0  0  0  0  0  0
   31.5310   29.4510   37.4200 N   0  0  0  0  0  0  0  0  0  0  0  0
   32.2920   29.5420   36.3330 C   0  0  0  0  0  0  0  0  0  0  0  0
   31.9280   30.3990   35.3980 N   0  0  0  0  0  0  0  0  0  0  0  0
   30.5590   31.8430   34.7590 H   0  0  0  0  0  0  0  0  0  0  0  0
   29.1370   31.6670   36.8020 H   0  0  0  0  0  0  0  0  0  0  0  0
   29.5730   30.0550   38.8590 C   0  0  0  0  0  0  0  0  0  0  0  0
   30.3560   29.6840   39.9520 F   0  0  0  0  0  0  0  0  0  0  0  0
   28.7380   28.9540   38.6520 F   0  0  0  0  0  0  0  0  0  0  0  0
   28.8970   31.2050   39.1250 F   0  0  0  0  0  0  0  0  0  0  0  0
  1  2  1  0  0  0  0
  1  4  1  0  0  0  0
  1  3  1  0  0  0  0
  4  8  2  0  0  0  0
  5  4  1  0  0  0  0
  5  6  2  0  0  0  0
  6  7  1  0  0  0  0
  7 17  1  0  0  0  0
  8  7  1  0  0  0  0
  9  5  1  0  0  0  0
 10 11  1  0  0  0  0
 10  6  1  0  0  0  0
 12 13  1  0  0  0  0
 12 11  2  0  0  0  0
 14 16  1  0  0  0  0
 14 12  1  0  0  0  0
 15 14  1  0  0  0  0
 16 10  2  0  0  0  0
 17 20  1  0  0  0  0
 17 18  1  0  0  0  0
 19 17  1  0  0  0  0
 21  1  1  0  0  0  0
 22 21  1  0  0  0  0
 23 21  1  0  0  0  0
 24 25  1  0  0  0  0
 25 31  1  0  0  0  0
 25 26  2  0  0  0  0
 26 32  1  0  0  0  0
 27 26  1  0  0  0  0
 28 21  1  0  0  0  0
 28 27  2  0  0  0  0
 29 24  2  0  0  0  0
 29 28  1  0  0  0  0
 30 24  1  0  0  0  0
 32 35  1  0  0  0  0
 32 33  1  0  0  0  0
 34 32  1  0  0  0  0
M  END
>  <minimizedAffinity>
-5.91956806

$$$$

 OpenBabel03242515193D

 35 37  0  0  0  0  0  0  0  0999 V2000
   35.2450   29.2960   38.5970 C   0  0  0  0  0  0  0  0  0  0  0  0
   34.3180   28.7590   38.2500 H   0  0  0  0  0  0  0  0  0  0  0  0
   34.8850   30.2230   39.0900 H   0  0  0  0  0  0  0  0  0  0  0  0
   35.9130   28.4070   39.5810 C   0  0  0  0  0  0  0  0  0  0  0  0
   36.4060   27.1330   39.4220 C   0  0  0  0  0  0  0  0  0  0  0  0
   36.9180   26.7640   40.6330 C   0  0  0  0  0  0  0  0  0  0  0  0
   36.7450   27.7700   41.4950 N   0  0  0  0  0  0  0  0  0  0  0  0
   36.1370   28.7530   40.8450 N   0  0  0  0  0  0  0  0  0  0  0  0
   36.3770   26.5570   38.4890 H   0  0  0  0  0  0  0  0  0  0  0  0
   37.5490   25.4810   40.9280 C   0  0  0  0  0  0  0  0  0  0  0  0
   38.7510   24.9600   40.6160 N   0  0  0  0  0  0  0  0  0  0  0  0
   38.8550   23.7110   41.1340 C   0  0  0  0  0  0  0  0  0  0  0  0
   39.7430   23.0920   41.0090 H   0  0  0  0  0  0  0  0  0  0  0  0
   37.6810   23.4690   41.7800 N   0  0  0  0  0  0  0  0  0  0  0  0
   37.5050   22.5590   42.2730 H   0  0  0  0  0  0  0  0  0  0  0  0
   36.9200   24.5350   41.6440 N   0  0  0  0  0  0  0  0  0  0  0  0
   37.1400   27.8210   42.9100 C   0  0  0  0  0  0  0  0  0  0  0  0
   38.4470   27.3590   43.0590 F   0  0  0  0  0  0  0  0  0  0  0  0
   36.2400   27.1210   43.6680 F   0  0  0  0  0  0  0  0  0  0  0  0
   37.1190   29.1300   43.3200 F   0  0  0  0  0  0  0  0  0  0  0  0
   36.1410   29.5770   37.4210 C   0  0  0  0  0  0  0  0  0  0  0  0
   35.5700   30.1670   36.7230 H   0  0  0  0  0  0  0  0  0  0  0  0
   36.4020   28.5760   36.9720 H   0  0  0  0  0  0  0  0  0  0  0  0
   39.7280   30.3970   38.0090 C   0  0  0  0  0  0  0  0  0  0  0  0
   39.5980   31.5920   38.7350 C   0  0  0  0  0  0  0  0  0  0  0  0
   38.3240   32.0590   38.9870 C   0  0  0  0  0  0  0  0  0  0  0  0
   37.3200   31.3110   38.5060 N   0  0  0  0  0  0  0  0  0  0  0  0
   37.4360   30.1790   37.8190 C   0  0  0  0  0  0  0  0  0  0  0  0
   38.6530   29.7290   37.5750 N   0  0  0  0  0  0  0  0  0  0  0  0
   40.7140   29.9990   37.7920 H   0  0  0  0  0  0  0  0  0  0  0  0
   40.4880   32.1230   39.0810 H   0  0  0  0  0  0  0  0  0  0  0  0
   38.2080   33.3020   39.7380 C   0  0  0  0  0  0  0  0  0  0  0  0
   38.1080   33.0110   41.0980 F   0  0  0  0  0  0  0  0  0  0  0  0
   36.9570   33.8340   39.4130 F   0  0  0  0  0  0  0  0  0  0  0  0
   39.2380   34.1610   39.5080 F   0  0  0  0  0  0  0  0  0  0  0  0
  1  3  1  0  0  0  0
  1  4  1  0  0  0  0
  2  1  1  0  0  0  0
  4  8  2  0  0  0  0
  5  4  1  0  0  0  0
  5  6  2  0  0  0  0
  6 10  1  0  0  0  0
  6  7  1  0  0  0  0
  7 17  1  0  0  0  0
  8  7  1  0  0  0  0
  9  5  1  0  0  0  0
 10 16  2  0  0  0  0
 11 10  1  0  0  0  0
 11 12  2  0  0  0  0
 12 14  1  0  0  0  0
 13 12  1  0  0  0  0
 14 15  1  0  0  0  0
 16 14  1  0  0  0  0
 17 18  1  0  0  0  0
 17 20  1  0  0  0  0
 17 19  1  0  0  0  0
 21 28  1  0  0  0  0
 21  1  1  0  0  0  0
 22 21  1  0  0  0  0
 23 21  1  0  0  0  0
 24 25  1  0  0  0  0
 25 26  2  0  0  0  0
 25 31  1  0  0  0  0
 26 32  1  0  0  0  0
 27 26  1  0  0  0  0
 28 27  2  0  0  0  0
 29 28  1  0  0  0  0
 29 24  2  0  0  0  0
 30 24  1  0  0  0  0
 32 33  1  0  0  0  0
 34 32  1  0  0  0  0
 35 32  1  0  0  0  0
M  END
>  <minimizedAffinity>
-5.87260342

$$$$

 OpenBabel03242515193D

 35 37  0  0  0  0  0  0  0  0999 V2000
   38.4720   29.4330   43.2440 C   0  0  0  0  0  0  0  0  0  0  0  0
   39.5170   29.1340   43.5390 H   0  0  0  0  0  0  0  0  0  0  0  0
   38.1880   30.2470   43.9420 H   0  0  0  0  0  0  0  0  0  0  0  0
   38.5470   29.9420   41.8510 C   0  0  0  0  0  0  0  0  0  0  0  0
   39.6260   30.4280   41.1500 C   0  0  0  0  0  0  0  0  0  0  0  0
   39.1610   30.7650   39.9120 C   0  0  0  0  0  0  0  0  0  0  0  0
   37.8540   30.4960   39.8590 N   0  0  0  0  0  0  0  0  0  0  0  0
   37.4990   30.0010   41.0360 N   0  0  0  0  0  0  0  0  0  0  0  0
   40.6470   30.5130   41.5430 H   0  0  0  0  0  0  0  0  0  0  0  0
   39.9660   31.3250   38.8310 C   0  0  0  0  0  0  0  0  0  0  0  0
   40.8070   30.7730   37.9350 N   0  0  0  0  0  0  0  0  0  0  0  0
   41.3150   31.7390   37.1300 C   0  0  0  0  0  0  0  0  0  0  0  0
   42.0210   31.5270   36.3270 H   0  0  0  0  0  0  0  0  0  0  0  0
   40.7650   32.9110   37.5500 N   0  0  0  0  0  0  0  0  0  0  0  0
   40.9980   33.8230   37.0840 H   0  0  0  0  0  0  0  0  0  0  0  0
   39.9670   32.6420   38.5620 N   0  0  0  0  0  0  0  0  0  0  0  0
   36.9390   30.6960   38.7250 C   0  0  0  0  0  0  0  0  0  0  0  0
   37.4070   30.0080   37.6060 F   0  0  0  0  0  0  0  0  0  0  0  0
   36.7740   32.0350   38.4930 F   0  0  0  0  0  0  0  0  0  0  0  0
   35.7180   30.1640   39.0520 F   0  0  0  0  0  0  0  0  0  0  0  0
   37.5560   28.2430   43.3400 C   0  0  0  0  0  0  0  0  0  0  0  0
   36.7430   28.4130   42.6540 H   0  0  0  0  0  0  0  0  0  0  0  0
   37.1780   28.2160   44.4020 H   0  0  0  0  0  0  0  0  0  0  0  0
   39.9200   25.3630   43.3950 C   0  0  0  0  0  0  0  0  0  0  0  0
   39.2650   24.4810   42.5210 C   0  0  0  0  0  0  0  0  0  0  0  0
   38.0710   24.8930   41.9630 C   0  0  0  0  0  0  0  0  0  0  0  0
   37.6510   26.1170   42.3170 N   0  0  0  0  0  0  0  0  0  0  0  0
   38.2670   26.9560   43.1430 C   0  0  0  0  0  0  0  0  0  0  0  0
   39.4080   26.5650   43.6790 N   0  0  0  0  0  0  0  0  0  0  0  0
   40.8610   25.0730   43.8530 H   0  0  0  0  0  0  0  0  0  0  0  0
   39.6990   23.5020   42.3010 H   0  0  0  0  0  0  0  0  0  0  0  0
   37.4030   23.9640   41.0610 C   0  0  0  0  0  0  0  0  0  0  0  0
   37.4170   24.4870   39.7680 F   0  0  0  0  0  0  0  0  0  0  0  0
   36.0520   23.9850   41.4190 F   0  0  0  0  0  0  0  0  0  0  0  0
   37.9490   22.7180   41.0790 F   0  0  0  0  0  0  0  0  0  0  0  0
  1 21  1  0  0  0  0
  1  2  1  0  0  0  0
  1  3  1  0  0  0  0
  4  1  1  0  0  0  0
  5  9  1  0  0  0  0
  5  4  1  0  0  0  0
  6  5  2  0  0  0  0
  7  6  1  0  0  0  0
  7  8  1  0  0  0  0
  8  4  2  0  0  0  0
 10  6  1  0  0  0  0
 11 10  1  0  0  0  0
 12 14  1  0  0  0  0
 12 11  2  0  0  0  0
 13 12  1  0  0  0  0
 14 16  1  0  0  0  0
 15 14  1  0  0  0  0
 16 10  2  0  0  0  0
 17 20  1  0  0  0  0
 17  7  1  0  0  0  0
 18 17  1  0  0  0  0
 19 17  1  0  0  0  0
 21 23  1  0  0  0  0
 22 21  1  0  0  0  0
 24 29  1  0  0  0  0
 24 30  1  0  0  0  0
 25 24  2  0  0  0  0
 26 27  2  0  0  0  0
 26 25  1  0  0  0  0
 27 28  1  0  0  0  0
 28 21  1  0  0  0  0
 28 29  2  0  0  0  0
 31 25  1  0  0  0  0
 32 35  1  0  0  0  0
 32 34  1  0  0  0  0
 32 26  1  0  0  0  0
 33 32  1  0  0  0  0
M  END
>  <minimizedAffinity>
-5.82983351

$$$$

 OpenBabel03242515193D

 35 37  0  0  0  0  0  0  0  0999 V2000
   35.1460   29.1310   38.4900 C   0  0  0  0  0  0  0  0  0  0  0  0
   34.3820   29.7640   39.0230 H   0  0  0  0  0  0  0  0  0  0  0  0
   35.8550   29.8480   38.0270 H   0  0  0  0  0  0  0  0  0  0  0  0
   35.8290   28.3170   39.5270 C   0  0  0  0  0  0  0  0  0  0  0  0
   36.3880   27.0650   39.4350 C   0  0  0  0  0  0  0  0  0  0  0  0
   36.8850   26.7720   40.6730 C   0  0  0  0  0  0  0  0  0  0  0  0
   36.6390   27.8020   41.4860 N   0  0  0  0  0  0  0  0  0  0  0  0
   36.0020   28.7260   40.7800 N   0  0  0  0  0  0  0  0  0  0  0  0
   36.4120   26.4500   38.5270 H   0  0  0  0  0  0  0  0  0  0  0  0
   37.5690   25.5350   41.0370 C   0  0  0  0  0  0  0  0  0  0  0  0
   38.8090   25.0690   40.7920 N   0  0  0  0  0  0  0  0  0  0  0  0
   38.9570   23.8450   41.3580 C   0  0  0  0  0  0  0  0  0  0  0  0
   39.8800   23.2710   41.2900 H   0  0  0  0  0  0  0  0  0  0  0  0
   37.7710   23.5620   41.9630 N   0  0  0  0  0  0  0  0  0  0  0  0
   37.6220   22.6600   42.4810 H   0  0  0  0  0  0  0  0  0  0  0  0
   36.9610   24.5800   41.7600 N   0  0  0  0  0  0  0  0  0  0  0  0
   36.9930   27.9310   42.9080 C   0  0  0  0  0  0  0  0  0  0  0  0
   38.3020   27.4980   43.1160 F   0  0  0  0  0  0  0  0  0  0  0  0
   36.0820   27.2540   43.6750 F   0  0  0  0  0  0  0  0  0  0  0  0
   36.9410   29.2580   43.2500 F   0  0  0  0  0  0  0  0  0  0  0  0
   34.4620   28.2570   37.4740 C   0  0  0  0  0  0  0  0  0  0  0  0
   34.1900   27.3430   37.9750 H   0  0  0  0  0  0  0  0  0  0  0  0
   35.2200   28.0540   36.6650 H   0  0  0  0  0  0  0  0  0  0  0  0
   32.1050   29.8250   35.0510 C   0  0  0  0  0  0  0  0  0  0  0  0
   31.0920   30.2530   35.9240 C   0  0  0  0  0  0  0  0  0  0  0  0
   31.2490   29.9940   37.2710 C   0  0  0  0  0  0  0  0  0  0  0  0
   32.3740   29.3500   37.6160 N   0  0  0  0  0  0  0  0  0  0  0  0
   33.3360   28.9430   36.7950 C   0  0  0  0  0  0  0  0  0  0  0  0
   33.1890   29.1880   35.5060 N   0  0  0  0  0  0  0  0  0  0  0  0
   32.0160   30.0100   33.9850 H   0  0  0  0  0  0  0  0  0  0  0  0
   30.2130   30.7720   35.5330 H   0  0  0  0  0  0  0  0  0  0  0  0
   30.1870   30.4420   38.1620 C   0  0  0  0  0  0  0  0  0  0  0  0
   30.3490   29.8400   39.4100 F   0  0  0  0  0  0  0  0  0  0  0  0
   29.0070   29.8810   37.6670 F   0  0  0  0  0  0  0  0  0  0  0  0
   30.1320   31.7960   38.2880 F   0  0  0  0  0  0  0  0  0  0  0  0
  1  2  1  0  0  0  0
  1  4  1  0  0  0  0
  3  1  1  0  0  0  0
  4  8  2  0  0  0  0
  5  4  1  0  0  0  0
  5  6  2  0  0  0  0
  6 10  1  0  0  0  0
  6  7  1  0  0  0  0
  7 17  1  0  0  0  0
  8  7  1  0  0  0  0
  9  5  1  0  0  0  0
 10 16  2  0  0  0  0
 11 10  1  0  0  0  0
 11 12  2  0  0  0  0
 12 14  1  0  0  0  0
 13 12  1  0  0  0  0
 14 15  1  0  0  0  0
 16 14  1  0  0  0  0
 17 18  1  0  0  0  0
 17 20  1  0  0  0  0
 17 19  1  0  0  0  0
 21 22  1  0  0  0  0
 21  1  1  0  0  0  0
 23 21  1  0  0  0  0
 24 29  2  0  0  0  0
 24 25  1  0  0  0  0
 25 26  2  0  0  0  0
 26 27  1  0  0  0  0
 26 32  1  0  0  0  0
 28 21  1  0  0  0  0
 28 27  2  0  0  0  0
 29 28  1  0  0  0  0
 30 24  1  0  0  0  0
 31 25  1  0  0  0  0
 32 35  1  0  0  0  0
 32 33  1  0  0  0  0
 34 32  1  0  0  0  0
M  END
>  <minimizedAffinity>
-5.81855392

$$$$

 OpenBabel03242515193D

 35 37  0  0  0  0  0  0  0  0999 V2000
   35.5730   27.0780   38.3070 C   0  0  0  0  0  0  0  0  0  0  0  0
   34.8670   26.9800   39.1800 H   0  0  0  0  0  0  0  0  0  0  0  0
   34.9250   27.1840   37.4120 H   0  0  0  0  0  0  0  0  0  0  0  0
   36.3610   28.3160   38.5300 C   0  0  0  0  0  0  0  0  0  0  0  0
   37.4400   28.8090   37.8340 C   0  0  0  0  0  0  0  0  0  0  0  0
   37.7930   29.9770   38.4470 C   0  0  0  0  0  0  0  0  0  0  0  0
   36.9650   30.1880   39.4740 N   0  0  0  0  0  0  0  0  0  0  0  0
   36.1080   29.1780   39.5100 N   0  0  0  0  0  0  0  0  0  0  0  0
   37.9000   28.3290   36.9620 H   0  0  0  0  0  0  0  0  0  0  0  0
   38.8950   30.8440   38.0410 C   0  0  0  0  0  0  0  0  0  0  0  0
   40.1570   30.9920   38.4890 N   0  0  0  0  0  0  0  0  0  0  0  0
   40.7900   31.9460   37.7640 C   0  0  0  0  0  0  0  0  0  0  0  0
   41.8240   32.2380   37.9470 H   0  0  0  0  0  0  0  0  0  0  0  0
   39.8850   32.3890   36.8480 N   0  0  0  0  0  0  0  0  0  0  0  0
   40.1300   33.1410   36.1560 H   0  0  0  0  0  0  0  0  0  0  0  0
   38.7660   31.7210   37.0310 N   0  0  0  0  0  0  0  0  0  0  0  0
   36.9670   31.3190   40.4140 C   0  0  0  0  0  0  0  0  0  0  0  0
   36.7310   32.5110   39.7290 F   0  0  0  0  0  0  0  0  0  0  0  0
   38.1420   31.3350   41.1170 F   0  0  0  0  0  0  0  0  0  0  0  0
   35.9360   31.1470   41.3030 F   0  0  0  0  0  0  0  0  0  0  0  0
   36.4650   25.8690   38.2360 C   0  0  0  0  0  0  0  0  0  0  0  0
   37.3150   26.1380   37.6310 H   0  0  0  0  0  0  0  0  0  0  0  0
   35.8640   25.0580   37.7340 H   0  0  0  0  0  0  0  0  0  0  0  0
   37.3000   23.7520   41.1870 C   0  0  0  0  0  0  0  0  0  0  0  0
   37.4340   24.7400   42.1760 C   0  0  0  0  0  0  0  0  0  0  0  0
   37.2400   26.0560   41.8060 C   0  0  0  0  0  0  0  0  0  0  0  0
   36.9380   26.2620   40.5160 N   0  0  0  0  0  0  0  0  0  0  0  0
   36.8090   25.3310   39.5750 C   0  0  0  0  0  0  0  0  0  0  0  0
   36.9940   24.0730   39.9250 N   0  0  0  0  0  0  0  0  0  0  0  0
   37.4450   22.7070   41.4410 H   0  0  0  0  0  0  0  0  0  0  0  0
   37.6850   24.4580   43.2020 H   0  0  0  0  0  0  0  0  0  0  0  0
   37.3870   27.0670   42.8440 C   0  0  0  0  0  0  0  0  0  0  0  0
   38.4620   26.7290   43.6660 F   0  0  0  0  0  0  0  0  0  0  0  0
   36.2710   26.9320   43.6740 F   0  0  0  0  0  0  0  0  0  0  0  0
   37.5430   28.3230   42.3460 F   0  0  0  0  0  0  0  0  0  0  0  0
  1  4  1  0  0  0  0
  1  2  1  0  0  0  0
  3  1  1  0  0  0  0
  4  8  2  0  0  0  0
  5  6  2  0  0  0  0
  5  4  1  0  0  0  0
  6  7  1  0  0  0  0
  7  8  1  0  0  0  0
  7 17  1  0  0  0  0
  9  5  1  0  0  0  0
 10  6  1  0  0  0  0
 10 11  1  0  0  0  0
 12 13  1  0  0  0  0
 12 11  2  0  0  0  0
 14 16  1  0  0  0  0
 14 12  1  0  0  0  0
 15 14  1  0  0  0  0
 16 10  2  0  0  0  0
 17 19  1  0  0  0  0
 17 20  1  0  0  0  0
 18 17  1  0  0  0  0
 21  1  1  0  0  0  0
 21 28  1  0  0  0  0
 22 21  1  0  0  0  0
 23 21  1  0  0  0  0
 24 30  1  0  0  0  0
 24 25  1  0  0  0  0
 25 31  1  0  0  0  0
 26 25  2  0  0  0  0
 26 32  1  0  0  0  0
 27 26  1  0  0  0  0
 28 29  1  0  0  0  0
 28 27  2  0  0  0  0
 29 24  2  0  0  0  0
 32 33  1  0  0  0  0
 32 34  1  0  0  0  0
 35 32  1  0  0  0  0
M  END
>  <minimizedAffinity>
-5.8024416

$$$$

 OpenBabel03242515193D

 35 37  0  0  0  0  0  0  0  0999 V2000
   38.0770   29.0590   43.4020 C   0  0  0  0  0  0  0  0  0  0  0  0
   39.1060   28.7020   43.6900 H   0  0  0  0  0  0  0  0  0  0  0  0
   37.7300   29.6820   44.2520 H   0  0  0  0  0  0  0  0  0  0  0  0
   38.2360   29.8850   42.1790 C   0  0  0  0  0  0  0  0  0  0  0  0
   39.2640   30.7210   41.8100 C   0  0  0  0  0  0  0  0  0  0  0  0
   38.9200   31.2420   40.5960 C   0  0  0  0  0  0  0  0  0  0  0  0
   37.7320   30.7460   40.2390 N   0  0  0  0  0  0  0  0  0  0  0  0
   37.3340   29.9300   41.2040 N   0  0  0  0  0  0  0  0  0  0  0  0
   40.1680   30.9070   42.4020 H   0  0  0  0  0  0  0  0  0  0  0  0
   39.7240   32.1850   39.8240 C   0  0  0  0  0  0  0  0  0  0  0  0
   40.6940   32.0220   38.9040 N   0  0  0  0  0  0  0  0  0  0  0  0
   41.1300   33.2340   38.4790 C   0  0  0  0  0  0  0  0  0  0  0  0
   41.9150   33.3500   37.7330 H   0  0  0  0  0  0  0  0  0  0  0  0
   40.4000   34.1590   39.1610 N   0  0  0  0  0  0  0  0  0  0  0  0
   40.5460   35.1890   39.0130 H   0  0  0  0  0  0  0  0  0  0  0  0
   39.5710   33.5130   39.9550 N   0  0  0  0  0  0  0  0  0  0  0  0
   36.9720   31.0250   39.0110 C   0  0  0  0  0  0  0  0  0  0  0  0
   36.7070   32.3900   38.9130 F   0  0  0  0  0  0  0  0  0  0  0  0
   35.8360   30.2610   38.9860 F   0  0  0  0  0  0  0  0  0  0  0  0
   37.7460   30.6790   37.9320 F   0  0  0  0  0  0  0  0  0  0  0  0
   37.1810   27.8760   43.1490 C   0  0  0  0  0  0  0  0  0  0  0  0
   36.4870   28.1650   42.3770 H   0  0  0  0  0  0  0  0  0  0  0  0
   36.6370   27.6760   44.1150 H   0  0  0  0  0  0  0  0  0  0  0  0
   39.6730   25.1120   42.9640 C   0  0  0  0  0  0  0  0  0  0  0  0
   39.0180   24.2400   42.0780 C   0  0  0  0  0  0  0  0  0  0  0  0
   37.7830   24.6210   41.5930 C   0  0  0  0  0  0  0  0  0  0  0  0
   37.3250   25.8060   42.0230 N   0  0  0  0  0  0  0  0  0  0  0  0
   37.9400   26.6350   42.8600 C   0  0  0  0  0  0  0  0  0  0  0  0
   39.1200   26.2750   43.3270 N   0  0  0  0  0  0  0  0  0  0  0  0
   40.6450   24.8460   43.3660 H   0  0  0  0  0  0  0  0  0  0  0  0
   39.4860   23.2940   41.7940 H   0  0  0  0  0  0  0  0  0  0  0  0
   37.1170   23.7030   40.6790 C   0  0  0  0  0  0  0  0  0  0  0  0
   37.6230   22.4170   40.8670 F   0  0  0  0  0  0  0  0  0  0  0  0
   37.5510   24.0530   39.3970 F   0  0  0  0  0  0  0  0  0  0  0  0
   35.7630   23.7070   40.8120 F   0  0  0  0  0  0  0  0  0  0  0  0
  1  2  1  0  0  0  0
  1  3  1  0  0  0  0
  4  1  1  0  0  0  0
  5  4  1  0  0  0  0
  5  9  1  0  0  0  0
  6  5  2  0  0  0  0
  7  6  1  0  0  0  0
  7  8  1  0  0  0  0
  8  4  2  0  0  0  0
 10 16  2  0  0  0  0
 10  6  1  0  0  0  0
 11 10  1  0  0  0  0
 12 11  2  0  0  0  0
 12 14  1  0  0  0  0
 13 12  1  0  0  0  0
 14 16  1  0  0  0  0
 15 14  1  0  0  0  0
 17  7  1  0  0  0  0
 18 17  1  0  0  0  0
 19 17  1  0  0  0  0
 20 17  1  0  0  0  0
 21  1  1  0  0  0  0
 21 23  1  0  0  0  0
 22 21  1  0  0  0  0
 24 29  1  0  0  0  0
 24 30  1  0  0  0  0
 25 24  2  0  0  0  0
 26 27  2  0  0  0  0
 26 25  1  0  0  0  0
 27 28  1  0  0  0  0
 28 21  1  0  0  0  0
 28 29  2  0  0  0  0
 31 25  1  0  0  0  0
 32 35  1  0  0  0  0
 32 33  1  0  0  0  0
 32 26  1  0  0  0  0
 34 32  1  0  0  0  0
M  END
>  <minimizedAffinity>
-5.80143547

$$$$

 OpenBabel03242515193D

 35 37  0  0  0  0  0  0  0  0999 V2000
   35.5350   29.5350   38.8270 C   0  0  0  0  0  0  0  0  0  0  0  0
   34.7950   28.9760   38.1870 H   0  0  0  0  0  0  0  0  0  0  0  0
   34.9370   30.2820   39.3880 H   0  0  0  0  0  0  0  0  0  0  0  0
   36.1350   28.5440   39.7540 C   0  0  0  0  0  0  0  0  0  0  0  0
   36.6190   27.2810   39.5000 C   0  0  0  0  0  0  0  0  0  0  0  0
   37.0600   26.7890   40.6950 C   0  0  0  0  0  0  0  0  0  0  0  0
   36.8540   27.7120   41.6390 N   0  0  0  0  0  0  0  0  0  0  0  0
   36.2960   28.7630   41.0560 N   0  0  0  0  0  0  0  0  0  0  0  0
   36.6310   26.7980   38.5150 H   0  0  0  0  0  0  0  0  0  0  0  0
   37.6550   25.4720   40.8970 C   0  0  0  0  0  0  0  0  0  0  0  0
   38.8930   24.9850   40.6870 N   0  0  0  0  0  0  0  0  0  0  0  0
   38.9360   23.6770   41.0400 C   0  0  0  0  0  0  0  0  0  0  0  0
   39.8390   23.0720   40.9560 H   0  0  0  0  0  0  0  0  0  0  0  0
   37.6870   23.3620   41.4790 N   0  0  0  0  0  0  0  0  0  0  0  0
   37.4520   22.3950   41.8150 H   0  0  0  0  0  0  0  0  0  0  0  0
   36.9420   24.4430   41.3840 N   0  0  0  0  0  0  0  0  0  0  0  0
   37.1740   27.6200   43.0710 C   0  0  0  0  0  0  0  0  0  0  0  0
   37.1110   28.8840   43.6570 F   0  0  0  0  0  0  0  0  0  0  0  0
   38.3930   27.0190   43.2360 F   0  0  0  0  0  0  0  0  0  0  0  0
   36.2240   26.8390   43.6800 F   0  0  0  0  0  0  0  0  0  0  0  0
   36.5830   30.1710   37.9540 C   0  0  0  0  0  0  0  0  0  0  0  0
   36.0940   30.4740   37.0430 H   0  0  0  0  0  0  0  0  0  0  0  0
   37.3500   29.3720   37.7450 H   0  0  0  0  0  0  0  0  0  0  0  0
   37.7000   32.9730   40.1420 C   0  0  0  0  0  0  0  0  0  0  0  0
   39.0060   33.1630   39.6620 C   0  0  0  0  0  0  0  0  0  0  0  0
   39.4430   32.3470   38.6370 C   0  0  0  0  0  0  0  0  0  0  0  0
   38.5600   31.4390   38.1950 N   0  0  0  0  0  0  0  0  0  0  0  0
   37.3220   31.2550   38.6450 C   0  0  0  0  0  0  0  0  0  0  0  0
   36.9020   32.0320   39.6250 N   0  0  0  0  0  0  0  0  0  0  0  0
   37.3220   33.5960   40.9460 H   0  0  0  0  0  0  0  0  0  0  0  0
   39.6430   33.9370   40.0970 H   0  0  0  0  0  0  0  0  0  0  0  0
   40.8010   32.5560   38.1540 C   0  0  0  0  0  0  0  0  0  0  0  0
   41.6820   31.7780   38.9070 F   0  0  0  0  0  0  0  0  0  0  0  0
   41.1340   33.8690   38.4960 F   0  0  0  0  0  0  0  0  0  0  0  0
   40.9420   32.2890   36.8280 F   0  0  0  0  0  0  0  0  0  0  0  0
  1  3  1  0  0  0  0
  1  4  1  0  0  0  0
  2  1  1  0  0  0  0
  4  8  2  0  0  0  0
  5  4  1  0  0  0  0
  5  6  2  0  0  0  0
  6 10  1  0  0  0  0
  6  7  1  0  0  0  0
  7 17  1  0  0  0  0
  8  7  1  0  0  0  0
  9  5  1  0  0  0  0
 10 16  2  0  0  0  0
 11 10  1  0  0  0  0
 11 12  2  0  0  0  0
 12 14  1  0  0  0  0
 13 12  1  0  0  0  0
 14 15  1  0  0  0  0
 16 14  1  0  0  0  0
 17 19  1  0  0  0  0
 17 18  1  0  0  0  0
 17 20  1  0  0  0  0
 21 28  1  0  0  0  0
 21  1  1  0  0  0  0
 22 21  1  0  0  0  0
 23 21  1  0  0  0  0
 24 30  1  0  0  0  0
 25 31  1  0  0  0  0
 25 24  1  0  0  0  0
 26 25  2  0  0  0  0
 27 26  1  0  0  0  0
 27 28  2  0  0  0  0
 28 29  1  0  0  0  0
 29 24  2  0  0  0  0
 32 34  1  0  0  0  0
 32 26  1  0  0  0  0
 32 33  1  0  0  0  0
 35 32  1  0  0  0  0
M  END
>  <minimizedAffinity>
-5.74978638

$$$$

 OpenBabel03242515193D

 35 37  0  0  0  0  0  0  0  0999 V2000
   33.9810   28.2280   37.6760 C   0  0  0  0  0  0  0  0  0  0  0  0
   34.3830   27.1810   37.5700 H   0  0  0  0  0  0  0  0  0  0  0  0
   33.2370   28.1790   38.4980 H   0  0  0  0  0  0  0  0  0  0  0  0
   35.1270   29.0900   38.0600 C   0  0  0  0  0  0  0  0  0  0  0  0
   36.2630   29.4090   37.3530 C   0  0  0  0  0  0  0  0  0  0  0  0
   36.9970   30.2350   38.1550 C   0  0  0  0  0  0  0  0  0  0  0  0
   36.3380   30.4120   39.3030 N   0  0  0  0  0  0  0  0  0  0  0  0
   35.2130   29.7150   39.2300 N   0  0  0  0  0  0  0  0  0  0  0  0
   36.4980   29.0510   36.3430 H   0  0  0  0  0  0  0  0  0  0  0  0
   38.2880   30.8210   37.8070 C   0  0  0  0  0  0  0  0  0  0  0  0
   39.5580   30.4730   38.0910 N   0  0  0  0  0  0  0  0  0  0  0  0
   40.4130   31.3600   37.5240 C   0  0  0  0  0  0  0  0  0  0  0  0
   41.4950   31.2800   37.6200 H   0  0  0  0  0  0  0  0  0  0  0  0
   39.6370   32.2720   36.8770 N   0  0  0  0  0  0  0  0  0  0  0  0
   40.0610   33.0760   36.3500 H   0  0  0  0  0  0  0  0  0  0  0  0
   38.3780   31.9330   37.0590 N   0  0  0  0  0  0  0  0  0  0  0  0
   36.7470   31.2220   40.4600 C   0  0  0  0  0  0  0  0  0  0  0  0
   35.8210   31.0820   41.4940 F   0  0  0  0  0  0  0  0  0  0  0  0
   36.9180   32.5260   40.0760 F   0  0  0  0  0  0  0  0  0  0  0  0
   37.9490   30.7490   40.9200 F   0  0  0  0  0  0  0  0  0  0  0  0
   33.3750   28.6740   36.3730 C   0  0  0  0  0  0  0  0  0  0  0  0
   33.1570   27.7840   35.8050 H   0  0  0  0  0  0  0  0  0  0  0  0
   34.1600   29.2930   35.8520 H   0  0  0  0  0  0  0  0  0  0  0  0
   30.4220   30.5700   37.6250 C   0  0  0  0  0  0  0  0  0  0  0  0
   30.1640   31.3960   36.5190 C   0  0  0  0  0  0  0  0  0  0  0  0
   30.9890   31.2760   35.4180 C   0  0  0  0  0  0  0  0  0  0  0  0
   31.9700   30.3670   35.5170 N   0  0  0  0  0  0  0  0  0  0  0  0
   32.2180   29.5820   36.5610 C   0  0  0  0  0  0  0  0  0  0  0  0
   31.4330   29.6940   37.6160 N   0  0  0  0  0  0  0  0  0  0  0  0
   29.7950   30.6360   38.5080 H   0  0  0  0  0  0  0  0  0  0  0  0
   29.3330   32.1050   36.5450 H   0  0  0  0  0  0  0  0  0  0  0  0
   30.7090   32.1430   34.2810 C   0  0  0  0  0  0  0  0  0  0  0  0
   29.5680   32.8990   34.5480 F   0  0  0  0  0  0  0  0  0  0  0  0
   30.3180   31.2980   33.2390 F   0  0  0  0  0  0  0  0  0  0  0  0
   31.7530   32.9530   33.9580 F   0  0  0  0  0  0  0  0  0  0  0  0
  1  4  1  0  0  0  0
  1  3  1  0  0  0  0
  2  1  1  0  0  0  0
  4  8  2  0  0  0  0
  5  4  1  0  0  0  0
  5  6  2  0  0  0  0
  6  7  1  0  0  0  0
  7 17  1  0  0  0  0
  8  7  1  0  0  0  0
  9  5  1  0  0  0  0
 10 11  1  0  0  0  0
 10  6  1  0  0  0  0
 12 13  1  0  0  0  0
 12 11  2  0  0  0  0
 14 16  1  0  0  0  0
 14 12  1  0  0  0  0
 15 14  1  0  0  0  0
 16 10  2  0  0  0  0
 17 20  1  0  0  0  0
 17 18  1  0  0  0  0
 19 17  1  0  0  0  0
 21 28  1  0  0  0  0
 21  1  1  0  0  0  0
 22 21  1  0  0  0  0
 23 21  1  0  0  0  0
 24 30  1  0  0  0  0
 25 31  1  0  0  0  0
 25 24  2  0  0  0  0
 26 27  2  0  0  0  0
 26 25  1  0  0  0  0
 27 28  1  0  0  0  0
 28 29  2  0  0  0  0
 29 24  1  0  0  0  0
 32 33  1  0  0  0  0
 32 26  1  0  0  0  0
 34 32  1  0  0  0  0
 35 32  1  0  0  0  0
M  END
>  <minimizedAffinity>
-5.68914032

$$$$

 OpenBabel03242515193D

 35 37  0  0  0  0  0  0  0  0999 V2000
   38.4640   29.3720   43.0980 C   0  0  0  0  0  0  0  0  0  0  0  0
   39.5540   29.0890   43.0960 H   0  0  0  0  0  0  0  0  0  0  0  0
   38.3700   30.1900   43.8410 H   0  0  0  0  0  0  0  0  0  0  0  0
   38.1450   29.8650   41.7350 C   0  0  0  0  0  0  0  0  0  0  0  0
   37.5940   29.1990   40.6660 C   0  0  0  0  0  0  0  0  0  0  0  0
   37.5120   30.1050   39.6480 C   0  0  0  0  0  0  0  0  0  0  0  0
   37.9930   31.2750   40.0770 N   0  0  0  0  0  0  0  0  0  0  0  0
   38.3710   31.1130   41.3380 N   0  0  0  0  0  0  0  0  0  0  0  0
   37.2910   28.1450   40.6680 H   0  0  0  0  0  0  0  0  0  0  0  0
   36.9840   29.8320   38.3140 C   0  0  0  0  0  0  0  0  0  0  0  0
   37.5590   29.7690   37.0980 N   0  0  0  0  0  0  0  0  0  0  0  0
   36.6200   29.4780   36.1630 C   0  0  0  0  0  0  0  0  0  0  0  0
   36.8540   29.3770   35.1040 H   0  0  0  0  0  0  0  0  0  0  0  0
   35.4420   29.3600   36.8350 N   0  0  0  0  0  0  0  0  0  0  0  0
   34.5470   29.1350   36.3330 H   0  0  0  0  0  0  0  0  0  0  0  0
   35.6810   29.5750   38.1110 N   0  0  0  0  0  0  0  0  0  0  0  0
   38.1010   32.5350   39.3260 C   0  0  0  0  0  0  0  0  0  0  0  0
   38.5470   33.5550   40.1650 F   0  0  0  0  0  0  0  0  0  0  0  0
   36.9020   32.8230   38.7310 F   0  0  0  0  0  0  0  0  0  0  0  0
   39.0420   32.3740   38.3410 F   0  0  0  0  0  0  0  0  0  0  0  0
   37.6290   28.1710   43.4530 C   0  0  0  0  0  0  0  0  0  0  0  0
   36.6890   28.2760   42.9370 H   0  0  0  0  0  0  0  0  0  0  0  0
   37.4730   28.2090   44.5690 H   0  0  0  0  0  0  0  0  0  0  0  0
   39.9940   25.2940   43.3410 C   0  0  0  0  0  0  0  0  0  0  0  0
   39.3010   24.4300   42.4780 C   0  0  0  0  0  0  0  0  0  0  0  0
   38.0840   24.8530   41.9830 C   0  0  0  0  0  0  0  0  0  0  0  0
   37.6790   26.0670   42.3810 N   0  0  0  0  0  0  0  0  0  0  0  0
   38.3310   26.8900   43.1970 C   0  0  0  0  0  0  0  0  0  0  0  0
   39.4950   26.4890   43.6740 N   0  0  0  0  0  0  0  0  0  0  0  0
   40.9540   24.9950   43.7510 H   0  0  0  0  0  0  0  0  0  0  0  0
   39.7250   23.4570   42.2190 H   0  0  0  0  0  0  0  0  0  0  0  0
   37.3760   23.9420   41.0920 C   0  0  0  0  0  0  0  0  0  0  0  0
   37.3720   24.4710   39.8020 F   0  0  0  0  0  0  0  0  0  0  0  0
   36.0350   23.9880   41.4810 F   0  0  0  0  0  0  0  0  0  0  0  0
   37.8980   22.6850   41.0910 F   0  0  0  0  0  0  0  0  0  0  0  0
  1 21  1  0  0  0  0
  1  3  1  0  0  0  0
  2  1  1  0  0  0  0
  4  1  1  0  0  0  0
  5  9  1  0  0  0  0
  5  4  1  0  0  0  0
  6  7  1  0  0  0  0
  6  5  2  0  0  0  0
  7  8  1  0  0  0  0
  8  4  2  0  0  0  0
 10  6  1  0  0  0  0
 11 10  1  0  0  0  0
 12 14  1  0  0  0  0
 12 11  2  0  0  0  0
 13 12  1  0  0  0  0
 14 16  1  0  0  0  0
 15 14  1  0  0  0  0
 16 10  2  0  0  0  0
 17  7  1  0  0  0  0
 17 18  1  0  0  0  0
 19 17  1  0  0  0  0
 20 17  1  0  0  0  0
 21 23  1  0  0  0  0
 22 21  1  0  0  0  0
 24 29  1  0  0  0  0
 24 30  1  0  0  0  0
 25 24  2  0  0  0  0
 26 27  2  0  0  0  0
 26 25  1  0  0  0  0
 27 28  1  0  0  0  0
 28 21  1  0  0  0  0
 28 29  2  0  0  0  0
 31 25  1  0  0  0  0
 32 34  1  0  0  0  0
 32 26  1  0  0  0  0
 33 32  1  0  0  0  0
 35 32  1  0  0  0  0
M  END
>  <minimizedAffinity>
-5.6144371

$$$$
