
 OpenBabel03252507023D

 36 38  0  0  0  0  0  0  0  0999 V2000
   45.0010   33.7980   39.7660 C   0  0  0  0  0  0  0  0  0  0  0  0
   44.7710   34.8870   39.8320 H   0  0  0  0  0  0  0  0  0  0  0  0
   45.5360   33.7540   38.7610 H   0  0  0  0  0  0  0  0  0  0  0  0
   43.9020   33.0700   39.9400 N   0  0  0  0  0  0  0  0  0  0  0  0
   42.8320   33.2950   40.8430 C   0  0  0  0  0  0  0  0  0  0  0  0
   41.7910   33.8550   39.8450 C   0  0  0  0  0  0  0  0  0  0  0  0
   41.4410   32.9120   38.7810 C   0  0  0  0  0  0  0  0  0  0  0  0
   42.3860   31.8460   38.4450 C   0  0  0  0  0  0  0  0  0  0  0  0
   43.7600   31.9130   39.0530 C   0  0  0  0  0  0  0  0  0  0  0  0
   43.0640   34.1770   41.4980 H   0  0  0  0  0  0  0  0  0  0  0  0
   42.4350   32.4890   41.4290 H   0  0  0  0  0  0  0  0  0  0  0  0
   42.1740   34.8500   39.4810 H   0  0  0  0  0  0  0  0  0  0  0  0
   40.9010   34.0890   40.4650 H   0  0  0  0  0  0  0  0  0  0  0  0
   41.2630   33.4960   37.8370 H   0  0  0  0  0  0  0  0  0  0  0  0
   40.4640   32.3970   38.9950 H   0  0  0  0  0  0  0  0  0  0  0  0
   42.2240   31.0260   37.7960 H   0  0  0  0  0  0  0  0  0  0  0  0
   45.0050   30.7320   38.6570 S   0  0  0  0  0  0  0  0  0  0  0  0
   46.0530   31.3620   37.9690 H   0  0  0  0  0  0  0  0  0  0  0  0
   46.0580   33.5370   40.7960 C   0  0  0  0  0  0  0  0  0  0  0  0
   45.9370   32.4860   41.1780 H   0  0  0  0  0  0  0  0  0  0  0  0
   47.0890   33.6740   40.4670 H   0  0  0  0  0  0  0  0  0  0  0  0
   45.7790   34.4450   41.9420 C   0  0  0  0  0  0  0  0  0  0  0  0
   44.8190   34.1500   42.8920 C   0  0  0  0  0  0  0  0  0  0  0  0
   44.6180   35.0660   43.9200 C   0  0  0  0  0  0  0  0  0  0  0  0
   45.3750   36.2090   43.9480 N   0  0  0  0  0  0  0  0  0  0  0  0
   46.2890   36.4380   43.0010 C   0  0  0  0  0  0  0  0  0  0  0  0
   46.4800   35.5670   42.0230 N   0  0  0  0  0  0  0  0  0  0  0  0
   44.2470   33.2340   42.8270 H   0  0  0  0  0  0  0  0  0  0  0  0
   43.8660   34.8490   44.6740 H   0  0  0  0  0  0  0  0  0  0  0  0
   47.0920   37.6660   43.0430 C   0  0  0  0  0  0  0  0  0  0  0  0
   48.2780   37.9250   42.4630 N   0  0  0  0  0  0  0  0  0  0  0  0
   48.6460   39.1960   42.7750 C   0  0  0  0  0  0  0  0  0  0  0  0
   49.5270   39.7590   42.4970 H   0  0  0  0  0  0  0  0  0  0  0  0
   47.6910   39.7140   43.5430 N   0  0  0  0  0  0  0  0  0  0  0  0
   47.5440   40.6320   44.0090 H   0  0  0  0  0  0  0  0  0  0  0  0
   46.7690   38.8030   43.7010 N   0  0  0  0  0  0  0  0  0  0  0  0
  1  2  1  0  0  0  0
  1  4  1  0  0  0  0
  1 19  1  0  0  0  0
  3  1  1  0  0  0  0
  4  5  1  0  0  0  0
  5 11  1  0  0  0  0
  5 10  1  0  0  0  0
  6 13  1  0  0  0  0
  6  5  1  0  0  0  0
  7 15  1  0  0  0  0
  7  6  1  0  0  0  0
  8  7  1  0  0  0  0
  8  9  2  0  0  0  0
  9  4  1  0  0  0  0
 12  6  1  0  0  0  0
 14  7  1  0  0  0  0
 16  8  1  0  0  0  0
 17  9  1  0  0  0  0
 18 17  1  0  0  0  0
 19 20  1  0  0  0  0
 19 22  1  0  0  0  0
 21 19  1  0  0  0  0
 22 27  2  0  0  0  0
 22 23  1  0  0  0  0
 23 24  2  0  0  0  0
 24 25  1  0  0  0  0
 24 29  1  0  0  0  0
 26 30  1  0  0  0  0
 26 25  2  0  0  0  0
 27 26  1  0  0  0  0
 28 23  1  0  0  0  0
 30 36  2  0  0  0  0
 31 32  2  0  0  0  0
 31 30  1  0  0  0  0
 32 34  1  0  0  0  0
 33 32  1  0  0  0  0
 34 36  1  0  0  0  0
 34 35  1  0  0  0  0
M  END
>  <minimizedAffinity>
8.26861

>  <minimizedRMSD>
6.00009298

$$$$
