
 OpenBabel03242519173D

 40 43  0  0  1  0  0  0  0  0999 V2000
   48.3430   34.2180   40.9320 C   0  0  0  0  0  0  0  0  0  0  0  0
   47.8710   34.3620   39.6470 C   0  0  0  0  0  0  0  0  0  0  0  0
   48.2310   33.5040   38.5970 C   0  0  0  0  0  0  0  0  0  0  0  0
   49.0930   32.5030   38.9360 N   0  0  0  0  0  0  0  0  0  0  0  0
   49.5470   32.3720   40.1900 C   0  0  0  0  0  0  0  0  0  0  0  0
   49.1800   33.2120   41.1640 N   0  0  0  0  0  0  0  0  0  0  0  0
   47.1890   35.1810   39.4610 H   0  0  0  0  0  0  0  0  0  0  0  0
   47.8400   33.6480   37.6020 H   0  0  0  0  0  0  0  0  0  0  0  0
   50.4730   31.2570   40.5720 C   0  0  2  0  0  0  0  0  0  0  0  0
   51.1970   31.3440   41.8790 C   0  0  0  0  0  0  0  0  0  0  0  0
   51.9290   31.5650   40.5440 C   0  0  1  0  0  0  0  0  0  0  0  0
   50.1740   30.2940   40.1110 H   0  0  0  0  0  0  0  0  0  0  0  0
   50.9810   32.2450   42.4970 H   0  0  0  0  0  0  0  0  0  0  0  0
   51.3480   30.4030   42.4220 H   0  0  0  0  0  0  0  0  0  0  0  0
   52.2820   32.5970   40.3950 H   0  0  0  0  0  0  0  0  0  0  0  0
   52.9110   30.4850   40.2530 C   0  0  0  0  0  0  0  0  0  0  0  0
   54.1010   30.2810   40.8190 N   0  0  0  0  0  0  0  0  0  0  0  0
   54.7110   29.1850   40.2840 C   0  0  0  0  0  0  0  0  0  0  0  0
   55.6850   28.9670   40.7040 H   0  0  0  0  0  0  0  0  0  0  0  0
   53.8450   28.7180   39.3600 N   0  0  0  0  0  0  0  0  0  0  0  0
   54.1530   27.8620   38.8390 H   0  0  0  0  0  0  0  0  0  0  0  0
   52.7710   29.5010   39.3470 N   0  0  0  0  0  0  0  0  0  0  0  0
   47.9480   35.1070   41.9950 C   0  0  0  0  0  0  0  0  0  0  0  0
   48.0910   36.1660   41.6300 H   0  0  0  0  0  0  0  0  0  0  0  0
   48.5970   35.0330   42.8900 H   0  0  0  0  0  0  0  0  0  0  0  0
   46.5180   34.9540   42.3210 C   0  0  0  0  0  0  0  0  0  0  0  0
   46.0100   34.2500   41.6030 H   0  0  0  0  0  0  0  0  0  0  0  0
   45.9130   35.8920   42.2420 H   0  0  0  0  0  0  0  0  0  0  0  0
   44.5840   36.4170   44.0430 Cl  0  0  0  0  0  0  0  0  0  0  0  0
   45.4020   34.9670   44.5630 C   0  0  0  0  0  0  0  0  0  0  0  0
   46.2730   34.3810   43.6820 C   0  0  0  0  0  0  0  0  0  0  0  0
   46.9200   33.2350   44.0900 C   0  0  0  0  0  0  0  0  0  0  0  0
   46.7010   32.6970   45.3420 C   0  0  0  0  0  0  0  0  0  0  0  0
   45.8090   33.3100   46.2270 C   0  0  0  0  0  0  0  0  0  0  0  0
   45.1620   34.4620   45.8060 C   0  0  0  0  0  0  0  0  0  0  0  0
   47.6210   32.7220   43.4440 H   0  0  0  0  0  0  0  0  0  0  0  0
   47.1630   31.8200   45.7220 H   0  0  0  0  0  0  0  0  0  0  0  0
   45.6200   32.9080   47.2120 H   0  0  0  0  0  0  0  0  0  0  0  0
   44.2510   35.1460   46.6230 O   0  0  0  0  0  0  0  0  0  0  0  0
   43.4480   34.6330   46.9690 H   0  0  0  0  0  0  0  0  0  0  0  0
  1  6  1  0  0  0  0
  1 23  1  0  0  0  0
  2  1  2  0  0  0  0
  3  4  2  0  0  0  0
  3  2  1  0  0  0  0
  4  5  1  0  0  0  0
  5  9  1  0  0  0  0
  5  6  2  0  0  0  0
  7  2  1  0  0  0  0
  8  3  1  0  0  0  0
  9 12  1  6  0  0  0
  9 10  1  0  0  0  0
 10 14  1  0  0  0  0
 10 13  1  0  0  0  0
 11 15  1  6  0  0  0
 11  9  1  0  0  0  0
 11 10  1  0  0  0  0
 16 11  1  0  0  0  0
 16 17  1  0  0  0  0
 18 19  1  0  0  0  0
 18 17  2  0  0  0  0
 20 18  1  0  0  0  0
 21 20  1  0  0  0  0
 22 20  1  0  0  0  0
 22 16  2  0  0  0  0
 23 26  1  0  0  0  0
 23 25  1  0  0  0  0
 24 23  1  0  0  0  0
 26 31  1  0  0  0  0
 27 26  1  0  0  0  0
 28 26  1  0  0  0  0
 29 30  1  0  0  0  0
 30 35  1  0  0  0  0
 31 32  1  0  0  0  0
 31 30  2  0  0  0  0
 32 33  2  0  0  0  0
 33 37  1  0  0  0  0
 33 34  1  0  0  0  0
 34 38  1  0  0  0  0
 35 34  2  0  0  0  0
 35 39  1  0  0  0  0
 36 32  1  0  0  0  0
 39 40  1  0  0  0  0
M  END
>  <minimizedAffinity>
-5.73195887

>  <minimizedRMSD>
0.204918459

$$$$
