
 OpenBabel03252502133D

 35 38  0  0  0  0  0  0  0  0999 V2000
   41.2360   35.4820   41.9330 Cl  0  0  0  0  0  0  0  0  0  0  0  0
   42.0380   34.6770   40.6140 C   0  0  0  0  0  0  0  0  0  0  0  0
   43.3320   34.2600   40.7080 C   0  0  0  0  0  0  0  0  0  0  0  0
   43.8470   33.6400   39.6010 C   0  0  0  0  0  0  0  0  0  0  0  0
   43.1420   33.4290   38.4520 C   0  0  0  0  0  0  0  0  0  0  0  0
   41.8450   33.8500   38.3690 C   0  0  0  0  0  0  0  0  0  0  0  0
   41.2910   34.4790   39.4610 C   0  0  0  0  0  0  0  0  0  0  0  0
   43.6380   32.9290   37.6320 H   0  0  0  0  0  0  0  0  0  0  0  0
   41.2880   33.6800   37.4520 H   0  0  0  0  0  0  0  0  0  0  0  0
   40.2610   34.8110   39.3910 H   0  0  0  0  0  0  0  0  0  0  0  0
   45.1780   35.9510   43.5430 C   0  0  0  0  0  0  0  0  0  0  0  0
   44.4810   35.7480   42.3450 C   0  0  0  0  0  0  0  0  0  0  0  0
   44.0530   34.4990   41.9400 C   0  0  0  0  0  0  0  0  0  0  0  0
   44.3560   33.4740   42.7910 N   0  0  0  0  0  0  0  0  0  0  0  0
   45.0200   33.6690   43.9330 C   0  0  0  0  0  0  0  0  0  0  0  0
   45.4290   34.8810   44.3140 N   0  0  0  0  0  0  0  0  0  0  0  0
   45.5120   36.9400   43.8530 H   0  0  0  0  0  0  0  0  0  0  0  0
   44.2720   36.6130   41.7090 H   0  0  0  0  0  0  0  0  0  0  0  0
   45.1670   32.7460   44.4730 H   0  0  0  0  0  0  0  0  0  0  0  0
   45.2510   33.1770   39.6720 C   0  0  0  0  0  0  0  0  0  0  0  0
   45.5770   32.0350   38.9270 C   0  0  0  0  0  0  0  0  0  0  0  0
   46.9040   31.7010   39.0700 C   0  0  0  0  0  0  0  0  0  0  0  0
   47.8450   32.3390   39.8150 C   0  0  0  0  0  0  0  0  0  0  0  0
   47.4200   33.4610   40.5170 C   0  0  0  0  0  0  0  0  0  0  0  0
   46.1300   33.8250   40.4080 N   0  0  0  0  0  0  0  0  0  0  0  0
   44.8900   31.4740   38.3120 H   0  0  0  0  0  0  0  0  0  0  0  0
   47.2660   30.8030   38.5140 H   0  0  0  0  0  0  0  0  0  0  0  0
   48.8550   32.0180   39.8760 H   0  0  0  0  0  0  0  0  0  0  0  0
   48.3440   34.2220   41.3490 C   0  0  0  0  0  0  0  0  0  0  0  0
   48.7520   35.4680   41.1600 N   0  0  0  0  0  0  0  0  0  0  0  0
   49.6170   35.8410   42.1470 C   0  0  0  0  0  0  0  0  0  0  0  0
   50.1790   36.7320   42.3920 H   0  0  0  0  0  0  0  0  0  0  0  0
   49.7110   34.7450   42.9500 N   0  0  0  0  0  0  0  0  0  0  0  0
   50.2540   34.5630   43.8250 H   0  0  0  0  0  0  0  0  0  0  0  0
   48.9410   33.7630   42.4700 N   0  0  0  0  0  0  0  0  0  0  0  0
  2  3  1  0  0  0  0
  2  1  1  0  0  0  0
  3 13  1  0  0  0  0
  4 20  1  0  0  0  0
  4  3  2  0  0  0  0
  5  4  1  0  0  0  0
  6  5  2  0  0  0  0
  6  7  1  0  0  0  0
  7  2  2  0  0  0  0
  8  5  1  0  0  0  0
  9  6  1  0  0  0  0
 10  7  1  0  0  0  0
 11 17  1  0  0  0  0
 11 16  1  0  0  0  0
 12 11  2  0  0  0  0
 13 12  1  0  0  0  0
 13 14  2  0  0  0  0
 14 15  1  0  0  0  0
 15 16  2  0  0  0  0
 15 19  1  0  0  0  0
 18 12  1  0  0  0  0
 20 25  1  0  0  0  0
 21 22  1  0  0  0  0
 21 20  2  0  0  0  0
 22 23  2  0  0  0  0
 23 28  1  0  0  0  0
 23 24  1  0  0  0  0
 24 29  1  0  0  0  0
 25 24  2  0  0  0  0
 26 21  1  0  0  0  0
 27 22  1  0  0  0  0
 29 35  2  0  0  0  0
 30 29  1  0  0  0  0
 30 31  2  0  0  0  0
 31 32  1  0  0  0  0
 31 33  1  0  0  0  0
 33 34  1  0  0  0  0
 35 33  1  0  0  0  0
M  END
>  <minimizedAffinity>
-5.70931149

>  <minimizedRMSD>
3.05872369

$$$$
