
 OpenBabel03242519173D

 40 43  0  0  1  0  0  0  0  0999 V2000
   48.4040   34.1400   40.9580 C   0  0  0  0  0  0  0  0  0  0  0  0
   47.8160   34.3410   39.7300 C   0  0  0  0  0  0  0  0  0  0  0  0
   48.0960   33.5480   38.6070 C   0  0  0  0  0  0  0  0  0  0  0  0
   49.0030   32.5510   38.8130 N   0  0  0  0  0  0  0  0  0  0  0  0
   49.5700   32.3650   40.0130 C   0  0  0  0  0  0  0  0  0  0  0  0
   49.2770   33.1440   41.0600 N   0  0  0  0  0  0  0  0  0  0  0  0
   47.1060   35.1530   39.6500 H   0  0  0  0  0  0  0  0  0  0  0  0
   47.6150   33.7340   37.6600 H   0  0  0  0  0  0  0  0  0  0  0  0
   50.5470   31.2520   40.2510 C   0  0  2  0  0  0  0  0  0  0  0  0
   50.9490   30.9410   41.6580 C   0  0  0  0  0  0  0  0  0  0  0  0
   51.9120   31.6510   40.6900 C   0  0  1  0  0  0  0  0  0  0  0  0
   50.5020   30.4840   39.4520 H   0  0  0  0  0  0  0  0  0  0  0  0
   50.4730   31.5630   42.4500 H   0  0  0  0  0  0  0  0  0  0  0  0
   51.1180   29.8850   41.9010 H   0  0  0  0  0  0  0  0  0  0  0  0
   52.1310   32.6950   40.9660 H   0  0  0  0  0  0  0  0  0  0  0  0
   53.0830   30.8040   40.3370 C   0  0  0  0  0  0  0  0  0  0  0  0
   53.8460   30.0740   41.1500 N   0  0  0  0  0  0  0  0  0  0  0  0
   54.8270   29.4330   40.4520 C   0  0  0  0  0  0  0  0  0  0  0  0
   55.4820   28.8230   41.0600 H   0  0  0  0  0  0  0  0  0  0  0  0
   54.6370   29.8000   39.1660 N   0  0  0  0  0  0  0  0  0  0  0  0
   55.3120   29.3950   38.4740 H   0  0  0  0  0  0  0  0  0  0  0  0
   53.5930   30.6190   39.1050 N   0  0  0  0  0  0  0  0  0  0  0  0
   48.0900   34.9630   42.0990 C   0  0  0  0  0  0  0  0  0  0  0  0
   48.3160   36.0350   41.8240 H   0  0  0  0  0  0  0  0  0  0  0  0
   48.7370   34.7600   42.9760 H   0  0  0  0  0  0  0  0  0  0  0  0
   46.6550   34.8970   42.4310 C   0  0  0  0  0  0  0  0  0  0  0  0
   46.0970   34.2500   41.6970 H   0  0  0  0  0  0  0  0  0  0  0  0
   46.1140   35.8770   42.3820 H   0  0  0  0  0  0  0  0  0  0  0  0
   44.6730   36.3310   44.1240 Cl  0  0  0  0  0  0  0  0  0  0  0  0
   45.4840   34.8760   44.6440 C   0  0  0  0  0  0  0  0  0  0  0  0
   46.3780   34.3060   43.7770 C   0  0  0  0  0  0  0  0  0  0  0  0
   47.0200   33.1560   44.1850 C   0  0  0  0  0  0  0  0  0  0  0  0
   46.7720   32.6010   45.4240 C   0  0  0  0  0  0  0  0  0  0  0  0
   45.8560   33.1980   46.2950 C   0  0  0  0  0  0  0  0  0  0  0  0
   45.2150   34.3540   45.8740 C   0  0  0  0  0  0  0  0  0  0  0  0
   47.7390   32.6550   43.5500 H   0  0  0  0  0  0  0  0  0  0  0  0
   47.2280   31.7200   45.8030 H   0  0  0  0  0  0  0  0  0  0  0  0
   45.6440   32.7830   47.2700 H   0  0  0  0  0  0  0  0  0  0  0  0
   44.2820   35.0230   46.6770 O   0  0  0  0  0  0  0  0  0  0  0  0
   43.4720   34.5030   46.9970 H   0  0  0  0  0  0  0  0  0  0  0  0
  1  6  1  0  0  0  0
  1 23  1  0  0  0  0
  2  1  2  0  0  0  0
  3  4  2  0  0  0  0
  3  2  1  0  0  0  0
  4  5  1  0  0  0  0
  5  9  1  0  0  0  0
  5  6  2  0  0  0  0
  7  2  1  0  0  0  0
  8  3  1  0  0  0  0
  9 12  1  6  0  0  0
  9 11  1  0  0  0  0
  9 10  1  0  0  0  0
 10 14  1  0  0  0  0
 10 13  1  0  0  0  0
 11 15  1  1  0  0  0
 11 10  1  0  0  0  0
 16 11  1  0  0  0  0
 16 17  1  0  0  0  0
 18 19  1  0  0  0  0
 18 17  2  0  0  0  0
 20 18  1  0  0  0  0
 21 20  1  0  0  0  0
 22 20  1  0  0  0  0
 22 16  2  0  0  0  0
 23 26  1  0  0  0  0
 23 25  1  0  0  0  0
 24 23  1  0  0  0  0
 26 31  1  0  0  0  0
 27 26  1  0  0  0  0
 28 26  1  0  0  0  0
 29 30  1  0  0  0  0
 30 35  1  0  0  0  0
 31 32  1  0  0  0  0
 31 30  2  0  0  0  0
 32 33  2  0  0  0  0
 33 37  1  0  0  0  0
 33 34  1  0  0  0  0
 34 38  1  0  0  0  0
 35 34  2  0  0  0  0
 35 39  1  0  0  0  0
 36 32  1  0  0  0  0
 39 40  1  0  0  0  0
M  END
>  <minimizedAffinity>
-5.80513239

>  <minimizedRMSD>
0.376790017

$$$$
