
 OpenBabel03252509033D

 46 48  0  0  1  0  0  0  0  0999 V2000
   46.9710   34.3570   43.3430 N   0  0  0  0  0  0  0  0  0  0  0  0
   46.5270   35.5490   42.7200 C   0  0  0  0  0  0  0  0  0  0  0  0
   45.0470   35.8080   42.8380 C   0  0  0  0  0  0  0  0  0  0  0  0
   44.4230   35.3190   44.1240 C   0  0  0  0  0  0  0  0  0  0  0  0
   45.4670   34.7500   45.0580 C   0  0  0  0  0  0  0  0  0  0  0  0
   46.1520   33.6350   44.1890 C   0  0  2  0  0  0  0  0  0  0  0  0
   47.0110   36.4050   43.2700 H   0  0  0  0  0  0  0  0  0  0  0  0
   46.8020   35.6860   41.6720 H   0  0  0  0  0  0  0  0  0  0  0  0
   44.8470   36.8900   42.6660 H   0  0  0  0  0  0  0  0  0  0  0  0
   44.5690   35.2720   41.9820 H   0  0  0  0  0  0  0  0  0  0  0  0
   43.9370   36.2060   44.6210 H   0  0  0  0  0  0  0  0  0  0  0  0
   43.6440   34.5770   43.9570 H   0  0  0  0  0  0  0  0  0  0  0  0
   46.2380   35.4750   45.3330 H   0  0  0  0  0  0  0  0  0  0  0  0
   44.9490   34.2570   45.9000 H   0  0  0  0  0  0  0  0  0  0  0  0
   45.3060   33.0670   43.7530 H   0  0  0  0  0  0  0  0  0  0  0  0
   47.9890   33.6530   42.6050 C   0  0  0  0  0  0  0  0  0  0  0  0
   48.6990   34.3650   42.1490 H   0  0  0  0  0  0  0  0  0  0  0  0
   48.5640   33.0690   43.3790 H   0  0  0  0  0  0  0  0  0  0  0  0
   47.3440   32.7160   41.6550 C   0  0  0  0  0  0  0  0  0  0  0  0
   47.4600   31.6680   41.9630 H   0  0  0  0  0  0  0  0  0  0  0  0
   46.2300   32.8720   41.5880 H   0  0  0  0  0  0  0  0  0  0  0  0
   49.2710   32.1610   38.4790 C   0  0  0  0  0  0  0  0  0  0  0  0
   48.7410   31.9810   39.7700 C   0  0  0  0  0  0  0  0  0  0  0  0
   47.8950   32.9170   40.2930 C   0  0  0  0  0  0  0  0  0  0  0  0
   47.6060   33.9830   39.5340 N   0  0  0  0  0  0  0  0  0  0  0  0
   48.1100   34.1570   38.3010 C   0  0  0  0  0  0  0  0  0  0  0  0
   48.9430   33.2570   37.7600 N   0  0  0  0  0  0  0  0  0  0  0  0
   49.9370   31.3420   38.1670 H   0  0  0  0  0  0  0  0  0  0  0  0
   48.9880   31.1100   40.3680 H   0  0  0  0  0  0  0  0  0  0  0  0
   47.8820   35.0230   37.6720 H   0  0  0  0  0  0  0  0  0  0  0  0
   46.8650   32.9420   45.1530 O   0  0  0  0  0  0  0  0  0  0  0  0
   45.3920   30.9090   44.2930 O   0  0  0  0  0  0  0  0  0  0  0  0
   46.2180   31.4140   45.4710 P   0  0  2  0  0  0  0  0  0  0  0  0
   45.1270   31.6100   46.7620 O   0  0  0  0  0  0  0  0  0  0  0  0
   44.3220   32.1020   46.4950 H   0  0  0  0  0  0  0  0  0  0  0  0
   47.3860   30.3120   45.9290 O   0  0  0  0  0  0  0  0  0  0  0  0
   47.0890   29.0680   45.4110 C   0  0  0  0  0  0  0  0  0  0  0  0
   48.0140   28.4970   45.2990 H   0  0  0  0  0  0  0  0  0  0  0  0
   46.7330   29.2510   44.3550 H   0  0  0  0  0  0  0  0  0  0  0  0
   46.0320   28.3350   46.1390 C   0  0  0  0  0  0  0  0  0  0  0  0
   46.1060   28.1830   47.4830 N   0  0  0  0  0  0  0  0  0  0  0  0
   45.0370   27.4830   47.9270 C   0  0  0  0  0  0  0  0  0  0  0  0
   44.9010   27.2480   48.9890 H   0  0  0  0  0  0  0  0  0  0  0  0
   44.2900   27.1990   46.8290 N   0  0  0  0  0  0  0  0  0  0  0  0
   43.3980   26.6610   46.8830 H   0  0  0  0  0  0  0  0  0  0  0  0
   44.8980   27.7130   45.7870 N   0  0  0  0  0  0  0  0  0  0  0  0
  1  6  1  0  0  0  0
  2  3  1  0  0  0  0
  2  7  1  0  0  0  0
  2  1  1  0  0  0  0
  3  4  1  0  0  0  0
  4 11  1  0  0  0  0
  4  5  1  0  0  0  0
  5 13  1  0  0  0  0
  5 14  1  0  0  0  0
  6 15  1  6  0  0  0
  6  5  1  0  0  0  0
  6 31  1  0  0  0  0
  8  2  1  0  0  0  0
  9  3  1  0  0  0  0
 10  3  1  0  0  0  0
 12  4  1  0  0  0  0
 16  1  1  0  0  0  0
 16 18  1  0  0  0  0
 17 16  1  0  0  0  0
 19 20  1  0  0  0  0
 19 16  1  0  0  0  0
 21 19  1  0  0  0  0
 22 23  1  0  0  0  0
 23 24  2  0  0  0  0
 23 29  1  0  0  0  0
 24 19  1  0  0  0  0
 25 24  1  0  0  0  0
 26 25  2  0  0  0  0
 27 26  1  0  0  0  0
 27 22  2  0  0  0  0
 28 22  1  0  0  0  0
 30 26  1  0  0  0  0
 31 33  1  0  0  0  0
 33 32  2  6  0  0  0
 33 36  1  0  0  0  0
 33 34  1  0  0  0  0
 35 34  1  0  0  0  0
 37 36  1  0  0  0  0
 37 40  1  0  0  0  0
 38 37  1  0  0  0  0
 39 37  1  0  0  0  0
 40 41  1  0  0  0  0
 41 42  2  0  0  0  0
 42 43  1  0  0  0  0
 44 45  1  0  0  0  0
 44 42  1  0  0  0  0
 46 40  2  0  0  0  0
 46 44  1  0  0  0  0
M  END
>  <minimizedAffinity>
-3.97865486

>  <minimizedRMSD>
0.691160798

$$$$
