
 OpenBabel03252506563D

 36 40  0  0  0  0  0  0  0  0999 V2000
   47.2810   31.2820   45.2020 C   0  0  0  0  0  0  0  0  0  0  0  0
   46.9230   32.6110   45.1250 C   0  0  0  0  0  0  0  0  0  0  0  0
   46.3130   33.2800   46.1620 C   0  0  0  0  0  0  0  0  0  0  0  0
   46.0270   32.6180   47.3610 C   0  0  0  0  0  0  0  0  0  0  0  0
   45.4560   32.9450   48.5480 N   0  0  0  0  0  0  0  0  0  0  0  0
   45.4620   31.8390   49.3410 C   0  0  0  0  0  0  0  0  0  0  0  0
   46.0370   30.8490   48.6240 N   0  0  0  0  0  0  0  0  0  0  0  0
   46.3950   31.2920   47.4090 C   0  0  0  0  0  0  0  0  0  0  0  0
   46.9970   30.6080   46.4040 C   0  0  0  0  0  0  0  0  0  0  0  0
   47.7600   30.7590   44.3880 H   0  0  0  0  0  0  0  0  0  0  0  0
   46.0170   34.3290   46.1380 H   0  0  0  0  0  0  0  0  0  0  0  0
   45.1030   33.9280   48.7120 H   0  0  0  0  0  0  0  0  0  0  0  0
   45.0610   31.8350   50.3410 H   0  0  0  0  0  0  0  0  0  0  0  0
   46.6510   35.0720   42.4020 C   0  0  0  0  0  0  0  0  0  0  0  0
   47.7360   34.7440   41.5890 C   0  0  0  0  0  0  0  0  0  0  0  0
   48.5600   33.6740   41.9800 C   0  0  0  0  0  0  0  0  0  0  0  0
   48.2620   33.0040   43.1380 N   0  0  0  0  0  0  0  0  0  0  0  0
   47.1960   33.3570   43.9010 C   0  0  0  0  0  0  0  0  0  0  0  0
   46.4100   34.3740   43.5320 N   0  0  0  0  0  0  0  0  0  0  0  0
   46.0320   35.9010   42.0770 H   0  0  0  0  0  0  0  0  0  0  0  0
   48.0120   35.2410   40.6680 H   0  0  0  0  0  0  0  0  0  0  0  0
   49.4090   33.3420   41.4370 H   0  0  0  0  0  0  0  0  0  0  0  0
   47.3510   29.1880   46.5550 C   0  0  0  0  0  0  0  0  0  0  0  0
   48.6170   28.6690   46.3540 C   0  0  0  0  0  0  0  0  0  0  0  0
   48.4650   27.3020   46.6110 C   0  0  0  0  0  0  0  0  0  0  0  0
   47.1310   27.0690   46.9500 C   0  0  0  0  0  0  0  0  0  0  0  0
   46.5040   28.2420   46.9000 O   0  0  0  0  0  0  0  0  0  0  0  0
   49.5070   29.1910   46.0690 H   0  0  0  0  0  0  0  0  0  0  0  0
   49.2340   26.5430   46.5610 H   0  0  0  0  0  0  0  0  0  0  0  0
   46.5990   25.7540   47.2840 C   0  0  0  0  0  0  0  0  0  0  0  0
   47.0660   24.5390   47.6400 N   0  0  0  0  0  0  0  0  0  0  0  0
   46.0230   23.7030   47.8170 C   0  0  0  0  0  0  0  0  0  0  0  0
   46.0570   22.6700   48.1030 H   0  0  0  0  0  0  0  0  0  0  0  0
   44.8880   24.4070   47.5680 N   0  0  0  0  0  0  0  0  0  0  0  0
   43.8950   24.0400   47.6180 H   0  0  0  0  0  0  0  0  0  0  0  0
   45.2570   25.6360   47.2500 N   0  0  0  0  0  0  0  0  0  0  0  0
  1  9  1  0  0  0  0
  2  1  2  0  0  0  0
  2  3  1  0  0  0  0
  3  4  2  0  0  0  0
  4  8  1  0  0  0  0
  4  5  1  0  0  0  0
  5 12  1  0  0  0  0
  5  6  1  0  0  0  0
  6 13  1  0  0  0  0
  7  6  2  0  0  0  0
  8  7  1  0  0  0  0
  9 23  1  0  0  0  0
  9  8  2  0  0  0  0
 10  1  1  0  0  0  0
 11  3  1  0  0  0  0
 14 19  1  0  0  0  0
 15 16  1  0  0  0  0
 15 14  2  0  0  0  0
 16 17  2  0  0  0  0
 17 18  1  0  0  0  0
 18  2  1  0  0  0  0
 19 18  2  0  0  0  0
 20 14  1  0  0  0  0
 21 15  1  0  0  0  0
 22 16  1  0  0  0  0
 23 27  1  0  0  0  0
 24 23  2  0  0  0  0
 24 25  1  0  0  0  0
 25 26  2  0  0  0  0
 26 30  1  0  0  0  0
 27 26  1  0  0  0  0
 28 24  1  0  0  0  0
 29 25  1  0  0  0  0
 30 31  1  0  0  0  0
 31 32  2  0  0  0  0
 32 33  1  0  0  0  0
 34 35  1  0  0  0  0
 34 32  1  0  0  0  0
 36 30  2  0  0  0  0
 36 34  1  0  0  0  0
M  END
>  <minimizedAffinity>
-5.47184563

>  <minimizedRMSD>
0.708028436

$$$$
