
 OpenBabel03252501163D

 33 36  0  0  1  0  0  0  0  0999 V2000
   46.5740   30.2370   45.9930 C   0  0  1  0  0  0  0  0  0  0  0  0
   45.5830   30.5290   47.0510 C   0  0  0  0  0  0  0  0  0  0  0  0
   46.6350   31.5890   46.5400 C   0  0  2  0  0  0  0  0  0  0  0  0
   46.1500   30.1280   44.9500 H   0  0  0  0  0  0  0  0  0  0  0  0
   45.7490   30.2070   48.0920 H   0  0  0  0  0  0  0  0  0  0  0  0
   44.5350   30.7340   46.8080 H   0  0  0  0  0  0  0  0  0  0  0  0
   47.4010   31.8390   47.2730 H   0  0  0  0  0  0  0  0  0  0  0  0
   48.3750   27.2540   47.4010 C   0  0  0  0  0  0  0  0  0  0  0  0
   47.3260   28.1060   47.1020 C   0  0  0  0  0  0  0  0  0  0  0  0
   47.6270   29.2410   46.3690 C   0  0  0  0  0  0  0  0  0  0  0  0
   48.9010   29.4720   45.9820 N   0  0  0  0  0  0  0  0  0  0  0  0
   49.9020   28.6090   46.2990 C   0  0  0  0  0  0  0  0  0  0  0  0
   49.6270   27.4950   47.0140 N   0  0  0  0  0  0  0  0  0  0  0  0
   46.3220   27.9140   47.4120 H   0  0  0  0  0  0  0  0  0  0  0  0
   50.9170   28.8020   45.9860 H   0  0  0  0  0  0  0  0  0  0  0  0
   48.0670   26.0130   48.1840 C   0  0  0  0  0  0  0  0  0  0  0  0
   48.8270   26.0510   49.3300 F   0  0  0  0  0  0  0  0  0  0  0  0
   48.4900   24.9400   47.4280 F   0  0  0  0  0  0  0  0  0  0  0  0
   46.7430   25.9420   48.5060 F   0  0  0  0  0  0  0  0  0  0  0  0
   46.0070   32.6620   45.7270 C   0  0  0  0  0  0  0  0  0  0  0  0
   45.5490   33.8970   46.1750 C   0  0  0  0  0  0  0  0  0  0  0  0
   45.0710   34.4940   45.0350 C   0  0  0  0  0  0  0  0  0  0  0  0
   45.2470   33.6250   43.9380 C   0  0  0  0  0  0  0  0  0  0  0  0
   45.8090   32.5650   44.4500 O   0  0  0  0  0  0  0  0  0  0  0  0
   45.5650   34.2900   47.1780 H   0  0  0  0  0  0  0  0  0  0  0  0
   44.6260   35.4780   44.9690 H   0  0  0  0  0  0  0  0  0  0  0  0
   44.8520   33.9370   42.5680 C   0  0  0  0  0  0  0  0  0  0  0  0
   43.7740   33.2560   42.0900 N   0  0  0  0  0  0  0  0  0  0  0  0
   43.5580   33.6760   40.8110 C   0  0  0  0  0  0  0  0  0  0  0  0
   42.8080   33.3860   40.0870 H   0  0  0  0  0  0  0  0  0  0  0  0
   44.5060   34.6010   40.5390 N   0  0  0  0  0  0  0  0  0  0  0  0
   44.6410   35.1410   39.6340 H   0  0  0  0  0  0  0  0  0  0  0  0
   45.3100   34.7790   41.5980 N   0  0  0  0  0  0  0  0  0  0  0  0
  1  4  1  6  0  0  0
  1 10  1  0  0  0  0
  1  3  1  0  0  0  0
  1  2  1  0  0  0  0
  2  5  1  0  0  0  0
  3  2  1  0  0  0  0
  3  7  1  1  0  0  0
  6  2  1  0  0  0  0
  8 16  1  0  0  0  0
  9  8  1  0  0  0  0
  9 14  1  0  0  0  0
 10  9  2  0  0  0  0
 11 12  2  0  0  0  0
 11 10  1  0  0  0  0
 12 13  1  0  0  0  0
 13  8  2  0  0  0  0
 15 12  1  0  0  0  0
 16 19  1  0  0  0  0
 16 17  1  0  0  0  0
 18 16  1  0  0  0  0
 20 21  2  0  0  0  0
 20  3  1  0  0  0  0
 21 25  1  0  0  0  0
 22 21  1  0  0  0  0
 23 24  1  0  0  0  0
 23 22  2  0  0  0  0
 24 20  1  0  0  0  0
 26 22  1  0  0  0  0
 27 23  1  0  0  0  0
 28 27  1  0  0  0  0
 29 28  2  0  0  0  0
 30 29  1  0  0  0  0
 31 29  1  0  0  0  0
 31 33  1  0  0  0  0
 32 31  1  0  0  0  0
 33 27  2  0  0  0  0
M  END
>  <minimizedAffinity>
-4.15935278

>  <minimizedRMSD>
5.04175091

$$$$
