
 OpenBabel03242518333D

 26 28  0  0  0  0  0  0  0  0999 V2000
   37.0320   29.7150   41.0950 C   0  0  0  0  0  0  0  0  0  0  0  0
   36.2150   30.8090   41.0530 C   0  0  0  0  0  0  0  0  0  0  0  0
   36.7300   31.7140   40.1450 C   0  0  0  0  0  0  0  0  0  0  0  0
   37.8700   31.1120   39.6630 C   0  0  0  0  0  0  0  0  0  0  0  0
   38.0250   29.9310   40.2430 O   0  0  0  0  0  0  0  0  0  0  0  0
   35.3140   30.9250   41.6430 H   0  0  0  0  0  0  0  0  0  0  0  0
   36.3520   32.6780   39.8570 H   0  0  0  0  0  0  0  0  0  0  0  0
   38.8260   31.6050   38.6760 C   0  0  0  0  0  0  0  0  0  0  0  0
   40.0360   32.0790   39.0940 N   0  0  0  0  0  0  0  0  0  0  0  0
   40.7410   32.4760   38.0070 C   0  0  0  0  0  0  0  0  0  0  0  0
   41.7360   32.9040   37.9180 H   0  0  0  0  0  0  0  0  0  0  0  0
   39.9660   32.2460   36.9230 N   0  0  0  0  0  0  0  0  0  0  0  0
   40.1140   32.4020   35.8890 H   0  0  0  0  0  0  0  0  0  0  0  0
   38.8000   31.7170   37.3170 N   0  0  0  0  0  0  0  0  0  0  0  0
   36.9440   28.5370   41.8500 O   0  0  0  0  0  0  0  0  0  0  0  0
   37.8650   28.2400   42.8500 C   0  0  0  0  0  0  0  0  0  0  0  0
   38.1390   29.1780   43.6380 O   0  0  0  0  0  0  0  0  0  0  0  0
   38.3750   26.9090   42.8520 C   0  0  0  0  0  0  0  0  0  0  0  0
   39.5040   26.7590   43.6300 C   0  0  0  0  0  0  0  0  0  0  0  0
   40.0640   25.4630   43.6790 C   0  0  0  0  0  0  0  0  0  0  0  0
   39.4800   24.4730   42.9800 N   0  0  0  0  0  0  0  0  0  0  0  0
   38.3730   24.6810   42.2330 C   0  0  0  0  0  0  0  0  0  0  0  0
   37.8210   25.9030   42.1720 N   0  0  0  0  0  0  0  0  0  0  0  0
   40.0050   27.5250   44.2060 H   0  0  0  0  0  0  0  0  0  0  0  0
   40.9660   25.2790   44.2830 H   0  0  0  0  0  0  0  0  0  0  0  0
   37.9510   23.8360   41.6920 H   0  0  0  0  0  0  0  0  0  0  0  0
  1 15  1  0  0  0  0
  2  1  2  0  0  0  0
  2  6  1  0  0  0  0
  3  2  1  0  0  0  0
  4  3  2  0  0  0  0
  4  5  1  0  0  0  0
  5  1  1  0  0  0  0
  7  3  1  0  0  0  0
  8  9  1  0  0  0  0
  8  4  1  0  0  0  0
 10  9  2  0  0  0  0
 11 10  1  0  0  0  0
 12 14  1  0  0  0  0
 12 10  1  0  0  0  0
 13 12  1  0  0  0  0
 14  8  2  0  0  0  0
 15 16  1  0  0  0  0
 16 18  1  0  0  0  0
 16 17  2  0  0  0  0
 18 19  1  0  0  0  0
 19 20  2  0  0  0  0
 19 24  1  0  0  0  0
 20 25  1  0  0  0  0
 21 20  1  0  0  0  0
 22 21  2  0  0  0  0
 23 22  1  0  0  0  0
 23 18  2  0  0  0  0
 26 22  1  0  0  0  0
M  END
>  <minimizedAffinity>
-5.2624054

$$$$

 OpenBabel03242518333D

 26 28  0  0  0  0  0  0  0  0999 V2000
   37.0520   28.8840   42.1690 C   0  0  0  0  0  0  0  0  0  0  0  0
   37.8050   28.8430   43.3080 C   0  0  0  0  0  0  0  0  0  0  0  0
   38.2640   27.5530   43.4910 C   0  0  0  0  0  0  0  0  0  0  0  0
   37.7550   26.8480   42.4250 C   0  0  0  0  0  0  0  0  0  0  0  0
   37.0410   27.6610   41.6580 O   0  0  0  0  0  0  0  0  0  0  0  0
   37.9980   29.6960   43.9460 H   0  0  0  0  0  0  0  0  0  0  0  0
   38.8800   27.1560   44.2770 H   0  0  0  0  0  0  0  0  0  0  0  0
   37.9110   25.4340   42.0950 C   0  0  0  0  0  0  0  0  0  0  0  0
   37.0880   24.8700   41.1630 N   0  0  0  0  0  0  0  0  0  0  0  0
   37.4220   23.5640   41.0310 C   0  0  0  0  0  0  0  0  0  0  0  0
   37.0110   22.7810   40.3980 H   0  0  0  0  0  0  0  0  0  0  0  0
   38.4470   23.3250   41.8790 N   0  0  0  0  0  0  0  0  0  0  0  0
   39.0100   22.4590   42.1010 H   0  0  0  0  0  0  0  0  0  0  0  0
   38.7540   24.4550   42.5320 N   0  0  0  0  0  0  0  0  0  0  0  0
   36.3750   29.9490   41.5590 O   0  0  0  0  0  0  0  0  0  0  0  0
   35.7380   29.8010   40.3300 C   0  0  0  0  0  0  0  0  0  0  0  0
   34.6390   29.1950   40.3530 O   0  0  0  0  0  0  0  0  0  0  0  0
   36.4140   30.3600   39.2060 C   0  0  0  0  0  0  0  0  0  0  0  0
   36.9640   31.5980   39.4620 C   0  0  0  0  0  0  0  0  0  0  0  0
   37.6520   32.2120   38.3900 C   0  0  0  0  0  0  0  0  0  0  0  0
   37.7270   31.5690   37.2110 N   0  0  0  0  0  0  0  0  0  0  0  0
   37.1670   30.3540   37.0200 C   0  0  0  0  0  0  0  0  0  0  0  0
   36.5100   29.7510   38.0230 N   0  0  0  0  0  0  0  0  0  0  0  0
   36.9270   32.1490   40.3910 H   0  0  0  0  0  0  0  0  0  0  0  0
   38.1130   33.2010   38.5310 H   0  0  0  0  0  0  0  0  0  0  0  0
   37.2650   29.8910   36.0410 H   0  0  0  0  0  0  0  0  0  0  0  0
  1  2  2  0  0  0  0
  2  3  1  0  0  0  0
  2  6  1  0  0  0  0
  3  7  1  0  0  0  0
  4  3  2  0  0  0  0
  5  1  1  0  0  0  0
  5  4  1  0  0  0  0
  8  4  1  0  0  0  0
  8 14  2  0  0  0  0
  9  8  1  0  0  0  0
 10  9  2  0  0  0  0
 10 12  1  0  0  0  0
 11 10  1  0  0  0  0
 12 13  1  0  0  0  0
 12 14  1  0  0  0  0
 15  1  1  0  0  0  0
 16 17  2  0  0  0  0
 16 15  1  0  0  0  0
 18 19  1  0  0  0  0
 18 16  1  0  0  0  0
 19 24  1  0  0  0  0
 20 25  1  0  0  0  0
 20 19  2  0  0  0  0
 21 20  1  0  0  0  0
 22 21  2  0  0  0  0
 22 23  1  0  0  0  0
 23 18  2  0  0  0  0
 26 22  1  0  0  0  0
M  END
>  <minimizedAffinity>
-5.10110569

$$$$

 OpenBabel03242518333D

 26 28  0  0  0  0  0  0  0  0999 V2000
   38.9780   28.8040   42.7860 C   0  0  0  0  0  0  0  0  0  0  0  0
   40.2690   29.2130   42.6060 C   0  0  0  0  0  0  0  0  0  0  0  0
   40.2640   30.4130   41.9200 C   0  0  0  0  0  0  0  0  0  0  0  0
   38.9310   30.6850   41.7080 C   0  0  0  0  0  0  0  0  0  0  0  0
   38.1930   29.7170   42.2310 O   0  0  0  0  0  0  0  0  0  0  0  0
   41.1390   28.6700   42.9540 H   0  0  0  0  0  0  0  0  0  0  0  0
   41.0920   31.0200   41.6070 H   0  0  0  0  0  0  0  0  0  0  0  0
   38.3200   31.8250   41.0300 C   0  0  0  0  0  0  0  0  0  0  0  0
   39.0550   32.9580   40.8310 N   0  0  0  0  0  0  0  0  0  0  0  0
   38.2790   33.8650   40.1900 C   0  0  0  0  0  0  0  0  0  0  0  0
   38.4920   34.8770   39.8540 H   0  0  0  0  0  0  0  0  0  0  0  0
   37.0710   33.2910   39.9960 N   0  0  0  0  0  0  0  0  0  0  0  0
   36.1790   33.6310   39.5430 H   0  0  0  0  0  0  0  0  0  0  0  0
   37.0830   32.0510   40.5020 N   0  0  0  0  0  0  0  0  0  0  0  0
   38.4610   27.6640   43.4170 O   0  0  0  0  0  0  0  0  0  0  0  0
   37.2990   27.0450   42.9670 C   0  0  0  0  0  0  0  0  0  0  0  0
   36.2390   27.3790   43.5510 O   0  0  0  0  0  0  0  0  0  0  0  0
   37.4620   26.1130   41.9000 C   0  0  0  0  0  0  0  0  0  0  0  0
   36.9820   24.8540   42.1980 C   0  0  0  0  0  0  0  0  0  0  0  0
   37.1110   23.8790   41.1850 C   0  0  0  0  0  0  0  0  0  0  0  0
   37.6820   24.2230   40.0160 N   0  0  0  0  0  0  0  0  0  0  0  0
   38.1340   25.4740   39.7820 C   0  0  0  0  0  0  0  0  0  0  0  0
   38.0220   26.4190   40.7290 N   0  0  0  0  0  0  0  0  0  0  0  0
   36.5190   24.5350   43.1210 H   0  0  0  0  0  0  0  0  0  0  0  0
   36.7470   22.8550   41.3620 H   0  0  0  0  0  0  0  0  0  0  0  0
   38.5850   25.6850   38.8150 H   0  0  0  0  0  0  0  0  0  0  0  0
  1 15  1  0  0  0  0
  2  1  2  0  0  0  0
  2  6  1  0  0  0  0
  3  2  1  0  0  0  0
  4  3  2  0  0  0  0
  4  5  1  0  0  0  0
  5  1  1  0  0  0  0
  7  3  1  0  0  0  0
  8  4  1  0  0  0  0
  9  8  1  0  0  0  0
 10  9  2  0  0  0  0
 11 10  1  0  0  0  0
 12 10  1  0  0  0  0
 12 14  1  0  0  0  0
 13 12  1  0  0  0  0
 14  8  2  0  0  0  0
 16 15  1  0  0  0  0
 16 17  2  0  0  0  0
 18 19  1  0  0  0  0
 18 16  1  0  0  0  0
 19 24  1  0  0  0  0
 20 25  1  0  0  0  0
 20 19  2  0  0  0  0
 21 20  1  0  0  0  0
 22 21  2  0  0  0  0
 22 23  1  0  0  0  0
 23 18  2  0  0  0  0
 26 22  1  0  0  0  0
M  END
>  <minimizedAffinity>
-5.09916353

$$$$

 OpenBabel03242518333D

 26 28  0  0  0  0  0  0  0  0999 V2000
   36.5500   28.5180   40.9440 C   0  0  0  0  0  0  0  0  0  0  0  0
   35.6250   29.1060   40.1290 C   0  0  0  0  0  0  0  0  0  0  0  0
   35.9950   30.4190   39.9120 C   0  0  0  0  0  0  0  0  0  0  0  0
   37.1610   30.5740   40.6260 C   0  0  0  0  0  0  0  0  0  0  0  0
   37.4660   29.4330   41.2270 O   0  0  0  0  0  0  0  0  0  0  0  0
   34.7530   28.6040   39.7300 H   0  0  0  0  0  0  0  0  0  0  0  0
   35.5060   31.1740   39.3250 H   0  0  0  0  0  0  0  0  0  0  0  0
   38.0050   31.7570   40.7670 C   0  0  0  0  0  0  0  0  0  0  0  0
   37.6230   32.9270   40.1750 N   0  0  0  0  0  0  0  0  0  0  0  0
   38.5580   33.8690   40.4440 C   0  0  0  0  0  0  0  0  0  0  0  0
   38.6200   34.9160   40.1580 H   0  0  0  0  0  0  0  0  0  0  0  0
   39.5120   33.2810   41.2000 N   0  0  0  0  0  0  0  0  0  0  0  0
   40.4100   33.6370   41.6290 H   0  0  0  0  0  0  0  0  0  0  0  0
   39.1880   31.9970   41.4030 N   0  0  0  0  0  0  0  0  0  0  0  0
   36.6240   27.2130   41.4510 O   0  0  0  0  0  0  0  0  0  0  0  0
   37.0310   26.9580   42.7570 C   0  0  0  0  0  0  0  0  0  0  0  0
   36.2500   27.3470   43.6600 O   0  0  0  0  0  0  0  0  0  0  0  0
   38.2800   26.2860   42.9010 C   0  0  0  0  0  0  0  0  0  0  0  0
   39.2490   27.0610   43.5040 C   0  0  0  0  0  0  0  0  0  0  0  0
   40.5140   26.4570   43.6790 C   0  0  0  0  0  0  0  0  0  0  0  0
   40.6980   25.1920   43.2580 N   0  0  0  0  0  0  0  0  0  0  0  0
   39.7090   24.4820   42.6730 C   0  0  0  0  0  0  0  0  0  0  0  0
   38.4980   25.0330   42.4960 N   0  0  0  0  0  0  0  0  0  0  0  0
   39.1450   28.0770   43.8560 H   0  0  0  0  0  0  0  0  0  0  0  0
   41.3290   27.0240   44.1540 H   0  0  0  0  0  0  0  0  0  0  0  0
   39.9250   23.4640   42.3550 H   0  0  0  0  0  0  0  0  0  0  0  0
  1  5  1  0  0  0  0
  1 15  1  0  0  0  0
  2  1  2  0  0  0  0
  3  2  1  0  0  0  0
  3  4  2  0  0  0  0
  4  8  1  0  0  0  0
  4  5  1  0  0  0  0
  6  2  1  0  0  0  0
  7  3  1  0  0  0  0
  8 14  2  0  0  0  0
  9 10  2  0  0  0  0
  9  8  1  0  0  0  0
 10 12  1  0  0  0  0
 11 10  1  0  0  0  0
 12 14  1  0  0  0  0
 12 13  1  0  0  0  0
 15 16  1  0  0  0  0
 16 18  1  0  0  0  0
 16 17  2  0  0  0  0
 18 19  1  0  0  0  0
 19 20  2  0  0  0  0
 19 24  1  0  0  0  0
 20 25  1  0  0  0  0
 21 20  1  0  0  0  0
 22 21  2  0  0  0  0
 23 22  1  0  0  0  0
 23 18  2  0  0  0  0
 26 22  1  0  0  0  0
M  END
>  <minimizedAffinity>
-5.06972647

$$$$

 OpenBabel03242518333D

 26 28  0  0  0  0  0  0  0  0999 V2000
   37.1110   29.0900   42.1530 C   0  0  0  0  0  0  0  0  0  0  0  0
   37.8140   28.9630   43.3170 C   0  0  0  0  0  0  0  0  0  0  0  0
   38.1740   27.6390   43.4760 C   0  0  0  0  0  0  0  0  0  0  0  0
   37.6590   27.0030   42.3700 C   0  0  0  0  0  0  0  0  0  0  0  0
   37.0340   27.8860   41.6040 O   0  0  0  0  0  0  0  0  0  0  0  0
   38.0400   29.7810   43.9890 H   0  0  0  0  0  0  0  0  0  0  0  0
   38.7290   27.1760   44.2710 H   0  0  0  0  0  0  0  0  0  0  0  0
   37.7290   25.5920   42.0010 C   0  0  0  0  0  0  0  0  0  0  0  0
   36.8790   25.1060   41.0500 N   0  0  0  0  0  0  0  0  0  0  0  0
   37.1320   23.7850   40.8830 C   0  0  0  0  0  0  0  0  0  0  0  0
   36.6770   23.0480   40.2260 H   0  0  0  0  0  0  0  0  0  0  0  0
   38.1340   23.4600   41.7300 N   0  0  0  0  0  0  0  0  0  0  0  0
   38.6400   22.5550   41.9300 H   0  0  0  0  0  0  0  0  0  0  0  0
   38.5060   24.5500   42.4150 N   0  0  0  0  0  0  0  0  0  0  0  0
   36.5330   30.2170   41.5520 O   0  0  0  0  0  0  0  0  0  0  0  0
   36.9520   30.6770   40.3070 C   0  0  0  0  0  0  0  0  0  0  0  0
   36.3860   30.1580   39.3140 O   0  0  0  0  0  0  0  0  0  0  0  0
   37.9670   31.6780   40.3210 C   0  0  0  0  0  0  0  0  0  0  0  0
   37.4840   32.9460   40.0730 C   0  0  0  0  0  0  0  0  0  0  0  0
   38.4370   33.9900   40.0720 C   0  0  0  0  0  0  0  0  0  0  0  0
   39.7290   33.6940   40.3050 N   0  0  0  0  0  0  0  0  0  0  0  0
   40.1420   32.4300   40.5420 C   0  0  0  0  0  0  0  0  0  0  0  0
   39.2560   31.4220   40.5490 N   0  0  0  0  0  0  0  0  0  0  0  0
   36.4580   33.2270   39.8800 H   0  0  0  0  0  0  0  0  0  0  0  0
   38.1140   35.0240   39.8800 H   0  0  0  0  0  0  0  0  0  0  0  0
   41.2020   32.2610   40.7230 H   0  0  0  0  0  0  0  0  0  0  0  0
  1  2  2  0  0  0  0
  2  3  1  0  0  0  0
  2  6  1  0  0  0  0
  3  7  1  0  0  0  0
  4  3  2  0  0  0  0
  5  1  1  0  0  0  0
  5  4  1  0  0  0  0
  8  4  1  0  0  0  0
  8 14  2  0  0  0  0
  9  8  1  0  0  0  0
 10  9  2  0  0  0  0
 10 12  1  0  0  0  0
 11 10  1  0  0  0  0
 12 13  1  0  0  0  0
 12 14  1  0  0  0  0
 15  1  1  0  0  0  0
 16 18  1  0  0  0  0
 16 15  1  0  0  0  0
 17 16  2  0  0  0  0
 18 23  1  0  0  0  0
 19 18  2  0  0  0  0
 20 19  1  0  0  0  0
 20 21  2  0  0  0  0
 21 22  1  0  0  0  0
 22 23  2  0  0  0  0
 22 26  1  0  0  0  0
 24 19  1  0  0  0  0
 25 20  1  0  0  0  0
M  END
>  <minimizedAffinity>
-5.02937794

$$$$

 OpenBabel03242518333D

 26 28  0  0  0  0  0  0  0  0999 V2000
   36.5460   28.9380   41.5840 C   0  0  0  0  0  0  0  0  0  0  0  0
   35.8220   28.8640   40.4270 C   0  0  0  0  0  0  0  0  0  0  0  0
   36.0080   30.0310   39.7110 C   0  0  0  0  0  0  0  0  0  0  0  0
   36.8600   30.7820   40.4870 C   0  0  0  0  0  0  0  0  0  0  0  0
   37.1620   30.1120   41.5890 O   0  0  0  0  0  0  0  0  0  0  0  0
   35.2100   28.0180   40.1410 H   0  0  0  0  0  0  0  0  0  0  0  0
   35.5960   30.3180   38.7620 H   0  0  0  0  0  0  0  0  0  0  0  0
   37.4060   32.1130   40.2340 C   0  0  0  0  0  0  0  0  0  0  0  0
   38.5970   32.4670   40.8010 N   0  0  0  0  0  0  0  0  0  0  0  0
   38.8900   33.7350   40.4240 C   0  0  0  0  0  0  0  0  0  0  0  0
   39.7390   34.3720   40.6590 H   0  0  0  0  0  0  0  0  0  0  0  0
   37.8840   34.1590   39.6270 N   0  0  0  0  0  0  0  0  0  0  0  0
   37.7030   35.0680   39.1200 H   0  0  0  0  0  0  0  0  0  0  0  0
   36.9750   33.1820   39.5040 N   0  0  0  0  0  0  0  0  0  0  0  0
   36.6870   28.0210   42.6340 O   0  0  0  0  0  0  0  0  0  0  0  0
   37.8870   27.3560   42.8660 C   0  0  0  0  0  0  0  0  0  0  0  0
   38.6700   27.9070   43.6780 O   0  0  0  0  0  0  0  0  0  0  0  0
   38.0720   26.1340   42.1550 C   0  0  0  0  0  0  0  0  0  0  0  0
   36.9870   25.2860   42.2380 C   0  0  0  0  0  0  0  0  0  0  0  0
   37.1010   24.0550   41.5540 C   0  0  0  0  0  0  0  0  0  0  0  0
   38.2330   23.7860   40.8790 N   0  0  0  0  0  0  0  0  0  0  0  0
   39.2640   24.6580   40.8340 C   0  0  0  0  0  0  0  0  0  0  0  0
   39.1800   25.8340   41.4740 N   0  0  0  0  0  0  0  0  0  0  0  0
   36.0620   25.4620   42.7680 H   0  0  0  0  0  0  0  0  0  0  0  0
   36.2690   23.3350   41.5830 H   0  0  0  0  0  0  0  0  0  0  0  0
   40.1510   24.3770   40.2690 H   0  0  0  0  0  0  0  0  0  0  0  0
  1  5  1  0  0  0  0
  1 15  1  0  0  0  0
  2  1  2  0  0  0  0
  3  2  1  0  0  0  0
  3  4  2  0  0  0  0
  4  5  1  0  0  0  0
  6  2  1  0  0  0  0
  7  3  1  0  0  0  0
  8  4  1  0  0  0  0
  8  9  1  0  0  0  0
 10 11  1  0  0  0  0
 10  9  2  0  0  0  0
 12 10  1  0  0  0  0
 13 12  1  0  0  0  0
 14 12  1  0  0  0  0
 14  8  2  0  0  0  0
 15 16  1  0  0  0  0
 16 17  2  0  0  0  0
 18 19  1  0  0  0  0
 18 16  1  0  0  0  0
 19 24  1  0  0  0  0
 20 25  1  0  0  0  0
 20 19  2  0  0  0  0
 21 20  1  0  0  0  0
 22 21  2  0  0  0  0
 22 23  1  0  0  0  0
 23 18  2  0  0  0  0
 26 22  1  0  0  0  0
M  END
>  <minimizedAffinity>
-4.99038267

$$$$

 OpenBabel03242518333D

 26 28  0  0  0  0  0  0  0  0999 V2000
   36.3300   28.9870   40.6990 C   0  0  0  0  0  0  0  0  0  0  0  0
   36.2740   30.3420   40.5350 C   0  0  0  0  0  0  0  0  0  0  0  0
   36.5080   30.6400   39.2070 C   0  0  0  0  0  0  0  0  0  0  0  0
   36.7020   29.4170   38.6060 C   0  0  0  0  0  0  0  0  0  0  0  0
   36.5920   28.4560   39.5120 O   0  0  0  0  0  0  0  0  0  0  0  0
   36.0750   31.0470   41.3320 H   0  0  0  0  0  0  0  0  0  0  0  0
   36.5390   31.5970   38.7200 H   0  0  0  0  0  0  0  0  0  0  0  0
   36.9900   29.1120   37.2070 C   0  0  0  0  0  0  0  0  0  0  0  0
   36.0760   29.4430   36.2490 N   0  0  0  0  0  0  0  0  0  0  0  0
   36.5620   29.0630   35.0430 C   0  0  0  0  0  0  0  0  0  0  0  0
   36.1430   29.1490   34.0430 H   0  0  0  0  0  0  0  0  0  0  0  0
   37.7730   28.5020   35.2590 N   0  0  0  0  0  0  0  0  0  0  0  0
   38.4930   28.0760   34.6140 H   0  0  0  0  0  0  0  0  0  0  0  0
   38.0440   28.5260   36.5710 N   0  0  0  0  0  0  0  0  0  0  0  0
   36.1630   28.1960   41.8440 O   0  0  0  0  0  0  0  0  0  0  0  0
   37.2200   27.9290   42.7090 C   0  0  0  0  0  0  0  0  0  0  0  0
   37.4860   28.8290   43.5420 O   0  0  0  0  0  0  0  0  0  0  0  0
   37.8620   26.6680   42.5380 C   0  0  0  0  0  0  0  0  0  0  0  0
   36.9830   25.6420   42.2620 C   0  0  0  0  0  0  0  0  0  0  0  0
   37.5520   24.3620   42.0800 C   0  0  0  0  0  0  0  0  0  0  0  0
   38.8860   24.2190   42.1840 N   0  0  0  0  0  0  0  0  0  0  0  0
   39.6980   25.2640   42.4560 C   0  0  0  0  0  0  0  0  0  0  0  0
   39.1820   26.4900   42.6330 N   0  0  0  0  0  0  0  0  0  0  0  0
   35.9080   25.7110   42.1710 H   0  0  0  0  0  0  0  0  0  0  0  0
   36.9020   23.5010   41.8580 H   0  0  0  0  0  0  0  0  0  0  0  0
   40.7670   25.0790   42.5270 H   0  0  0  0  0  0  0  0  0  0  0  0
  1 15  1  0  0  0  0
  2  1  2  0  0  0  0
  2  6  1  0  0  0  0
  3  2  1  0  0  0  0
  4  3  2  0  0  0  0
  4  5  1  0  0  0  0
  5  1  1  0  0  0  0
  7  3  1  0  0  0  0
  8  4  1  0  0  0  0
  9  8  1  0  0  0  0
 10 12  1  0  0  0  0
 10  9  2  0  0  0  0
 11 10  1  0  0  0  0
 12 14  1  0  0  0  0
 13 12  1  0  0  0  0
 14  8  2  0  0  0  0
 15 16  1  0  0  0  0
 16 17  2  0  0  0  0
 18 23  1  0  0  0  0
 18 16  1  0  0  0  0
 19 18  2  0  0  0  0
 20 21  2  0  0  0  0
 20 19  1  0  0  0  0
 21 22  1  0  0  0  0
 22 26  1  0  0  0  0
 22 23  2  0  0  0  0
 24 19  1  0  0  0  0
 25 20  1  0  0  0  0
M  END
>  <minimizedAffinity>
-4.6741271

$$$$

 OpenBabel03242518333D

 26 28  0  0  0  0  0  0  0  0999 V2000
   37.1510   29.4240   41.9220 C   0  0  0  0  0  0  0  0  0  0  0  0
   38.1920   29.5240   42.8010 C   0  0  0  0  0  0  0  0  0  0  0  0
   38.7070   28.2620   43.0250 C   0  0  0  0  0  0  0  0  0  0  0  0
   37.9340   27.4280   42.2500 C   0  0  0  0  0  0  0  0  0  0  0  0
   37.0200   28.1420   41.6080 O   0  0  0  0  0  0  0  0  0  0  0  0
   38.5380   30.4520   43.2370 H   0  0  0  0  0  0  0  0  0  0  0  0
   39.5240   27.9630   43.6550 H   0  0  0  0  0  0  0  0  0  0  0  0
   38.0170   25.9790   42.0880 C   0  0  0  0  0  0  0  0  0  0  0  0
   39.1490   25.4300   41.5550 N   0  0  0  0  0  0  0  0  0  0  0  0
   38.9890   24.0860   41.5050 C   0  0  0  0  0  0  0  0  0  0  0  0
   39.6530   23.3000   41.1520 H   0  0  0  0  0  0  0  0  0  0  0  0
   37.7640   23.8090   42.0050 N   0  0  0  0  0  0  0  0  0  0  0  0
   37.2350   22.9060   42.1520 H   0  0  0  0  0  0  0  0  0  0  0  0
   37.1640   24.9520   42.3630 N   0  0  0  0  0  0  0  0  0  0  0  0
   36.3110   30.4080   41.3840 O   0  0  0  0  0  0  0  0  0  0  0  0
   36.6570   31.1180   40.2380 C   0  0  0  0  0  0  0  0  0  0  0  0
   37.0740   32.2880   40.4240 O   0  0  0  0  0  0  0  0  0  0  0  0
   36.4960   30.4250   39.0030 C   0  0  0  0  0  0  0  0  0  0  0  0
   37.5620   30.5890   38.1430 C   0  0  0  0  0  0  0  0  0  0  0  0
   37.4700   29.9280   36.8980 C   0  0  0  0  0  0  0  0  0  0  0  0
   36.3740   29.1960   36.6270 N   0  0  0  0  0  0  0  0  0  0  0  0
   35.3590   29.0730   37.5100 C   0  0  0  0  0  0  0  0  0  0  0  0
   35.4240   29.6910   38.7010 N   0  0  0  0  0  0  0  0  0  0  0  0
   38.4590   31.1660   38.3190 H   0  0  0  0  0  0  0  0  0  0  0  0
   38.2890   30.0190   36.1680 H   0  0  0  0  0  0  0  0  0  0  0  0
   34.5010   28.4660   37.2280 H   0  0  0  0  0  0  0  0  0  0  0  0
  1  2  2  0  0  0  0
  2  3  1  0  0  0  0
  2  6  1  0  0  0  0
  3  7  1  0  0  0  0
  4  3  2  0  0  0  0
  5  1  1  0  0  0  0
  5  4  1  0  0  0  0
  8  4  1  0  0  0  0
  8 14  2  0  0  0  0
  9  8  1  0  0  0  0
 10  9  2  0  0  0  0
 10 12  1  0  0  0  0
 11 10  1  0  0  0  0
 12 13  1  0  0  0  0
 12 14  1  0  0  0  0
 15  1  1  0  0  0  0
 16 17  2  0  0  0  0
 16 15  1  0  0  0  0
 18 16  1  0  0  0  0
 19 24  1  0  0  0  0
 19 18  2  0  0  0  0
 20 19  1  0  0  0  0
 21 20  2  0  0  0  0
 21 22  1  0  0  0  0
 22 23  2  0  0  0  0
 23 18  1  0  0  0  0
 25 20  1  0  0  0  0
 26 22  1  0  0  0  0
M  END
>  <minimizedAffinity>
-4.60755253

$$$$

 OpenBabel03242518333D

 26 28  0  0  0  0  0  0  0  0999 V2000
   36.2800   28.0090   40.4930 C   0  0  0  0  0  0  0  0  0  0  0  0
   36.0220   27.7290   39.1810 C   0  0  0  0  0  0  0  0  0  0  0  0
   36.3530   26.4110   38.9340 C   0  0  0  0  0  0  0  0  0  0  0  0
   36.8120   25.9360   40.1410 C   0  0  0  0  0  0  0  0  0  0  0  0
   36.7580   26.9020   41.0460 O   0  0  0  0  0  0  0  0  0  0  0  0
   35.6210   28.4410   38.4710 H   0  0  0  0  0  0  0  0  0  0  0  0
   36.2820   25.8530   38.0190 H   0  0  0  0  0  0  0  0  0  0  0  0
   37.3030   24.6030   40.4810 C   0  0  0  0  0  0  0  0  0  0  0  0
   37.1560   23.5870   39.5810 N   0  0  0  0  0  0  0  0  0  0  0  0
   37.6820   22.4600   40.1190 C   0  0  0  0  0  0  0  0  0  0  0  0
   37.7610   21.4500   39.7240 H   0  0  0  0  0  0  0  0  0  0  0  0
   38.1510   22.7820   41.3450 N   0  0  0  0  0  0  0  0  0  0  0  0
   38.6320   22.2220   42.1000 H   0  0  0  0  0  0  0  0  0  0  0  0
   37.9260   24.0820   41.5770 N   0  0  0  0  0  0  0  0  0  0  0  0
   36.1160   29.1920   41.2250 O   0  0  0  0  0  0  0  0  0  0  0  0
   37.1980   29.8570   41.7930 C   0  0  0  0  0  0  0  0  0  0  0  0
   37.6090   29.4000   42.8880 O   0  0  0  0  0  0  0  0  0  0  0  0
   37.7020   30.9700   41.0580 C   0  0  0  0  0  0  0  0  0  0  0  0
   36.7760   31.5160   40.1940 C   0  0  0  0  0  0  0  0  0  0  0  0
   37.2080   32.6250   39.4320 C   0  0  0  0  0  0  0  0  0  0  0  0
   38.4670   33.0730   39.5880 N   0  0  0  0  0  0  0  0  0  0  0  0
   39.3310   32.4960   40.4520 C   0  0  0  0  0  0  0  0  0  0  0  0
   38.9440   31.4420   41.1880 N   0  0  0  0  0  0  0  0  0  0  0  0
   35.7580   31.1880   40.0370 H   0  0  0  0  0  0  0  0  0  0  0  0
   36.5150   33.1050   38.7240 H   0  0  0  0  0  0  0  0  0  0  0  0
   40.3340   32.9080   40.5290 H   0  0  0  0  0  0  0  0  0  0  0  0
  1  5  1  0  0  0  0
  1 15  1  0  0  0  0
  2  1  2  0  0  0  0
  3  2  1  0  0  0  0
  3  4  2  0  0  0  0
  4  8  1  0  0  0  0
  4  5  1  0  0  0  0
  6  2  1  0  0  0  0
  7  3  1  0  0  0  0
  8 14  2  0  0  0  0
  9 10  2  0  0  0  0
  9  8  1  0  0  0  0
 10 12  1  0  0  0  0
 11 10  1  0  0  0  0
 12 14  1  0  0  0  0
 12 13  1  0  0  0  0
 15 16  1  0  0  0  0
 16 17  2  0  0  0  0
 18 23  1  0  0  0  0
 18 16  1  0  0  0  0
 19 18  2  0  0  0  0
 20 21  2  0  0  0  0
 20 19  1  0  0  0  0
 21 22  1  0  0  0  0
 22 26  1  0  0  0  0
 22 23  2  0  0  0  0
 24 19  1  0  0  0  0
 25 20  1  0  0  0  0
M  END
>  <minimizedAffinity>
-4.55169106

$$$$
