
 OpenBabel03252507413D

 23 24  0  0  0  0  0  0  0  0999 V2000
   46.5200   34.7640   42.9470 C   0  0  0  0  0  0  0  0  0  0  0  0
   46.4340   35.6000   43.6720 H   0  0  0  0  0  0  0  0  0  0  0  0
   46.8800   33.9010   43.5390 H   0  0  0  0  0  0  0  0  0  0  0  0
   45.1690   34.5540   42.3950 C   0  0  0  0  0  0  0  0  0  0  0  0
   44.7270   33.2380   42.3770 C   0  0  0  0  0  0  0  0  0  0  0  0
   43.4590   32.9730   41.8670 C   0  0  0  0  0  0  0  0  0  0  0  0
   42.6950   34.0200   41.4020 N   0  0  0  0  0  0  0  0  0  0  0  0
   43.1680   35.2810   41.4390 C   0  0  0  0  0  0  0  0  0  0  0  0
   44.3910   35.5610   41.9280 N   0  0  0  0  0  0  0  0  0  0  0  0
   43.0770   31.9640   41.8360 H   0  0  0  0  0  0  0  0  0  0  0  0
   42.5930   36.1050   41.0850 H   0  0  0  0  0  0  0  0  0  0  0  0
   45.7290   31.8990   42.9830 S   0  0  0  0  0  0  0  0  0  0  0  0
   44.9020   31.1420   43.8580 H   0  0  0  0  0  0  0  0  0  0  0  0
   47.5330   35.1760   41.9090 C   0  0  0  0  0  0  0  0  0  0  0  0
   47.1030   34.9790   40.8920 H   0  0  0  0  0  0  0  0  0  0  0  0
   47.6400   36.2910   41.9730 H   0  0  0  0  0  0  0  0  0  0  0  0
   48.8120   34.4860   42.1160 C   0  0  0  0  0  0  0  0  0  0  0  0
   49.1050   33.2100   41.8200 N   0  0  0  0  0  0  0  0  0  0  0  0
   50.3830   32.9750   42.1670 C   0  0  0  0  0  0  0  0  0  0  0  0
   51.1200   32.1840   42.1650 H   0  0  0  0  0  0  0  0  0  0  0  0
   50.8880   34.1280   42.6850 N   0  0  0  0  0  0  0  0  0  0  0  0
   51.8030   34.4760   43.0930 H   0  0  0  0  0  0  0  0  0  0  0  0
   49.9270   35.0550   42.6560 N   0  0  0  0  0  0  0  0  0  0  0  0
  1  3  1  0  0  0  0
  1  2  1  0  0  0  0
  4  1  1  0  0  0  0
  5  4  1  0  0  0  0
  5 12  1  0  0  0  0
  6  5  2  0  0  0  0
  7  8  2  0  0  0  0
  7  6  1  0  0  0  0
  8  9  1  0  0  0  0
  9  4  2  0  0  0  0
 10  6  1  0  0  0  0
 11  8  1  0  0  0  0
 12 13  1  0  0  0  0
 14 16  1  0  0  0  0
 14 17  1  0  0  0  0
 14  1  1  0  0  0  0
 15 14  1  0  0  0  0
 17 23  2  0  0  0  0
 18 17  1  0  0  0  0
 18 19  2  0  0  0  0
 19 21  1  0  0  0  0
 20 19  1  0  0  0  0
 21 22  1  0  0  0  0
 23 21  1  0  0  0  0
M  END
>  <minimizedAffinity>
-3.91617227

>  <minimizedRMSD>
4.11425734

$$$$
