
 OpenBabel03252508143D

 35 38  0  0  1  0  0  0  0  0999 V2000
   46.1190   30.8840   46.8730 C   0  0  0  0  0  0  0  0  0  0  0  0
   47.0820   30.3610   46.8210 H   0  0  0  0  0  0  0  0  0  0  0  0
   45.3100   30.1500   46.6550 H   0  0  0  0  0  0  0  0  0  0  0  0
   45.9360   31.5640   48.2030 C   0  0  1  0  0  0  0  0  0  0  0  0
   45.7010   30.6730   49.3710 C   0  0  0  0  0  0  0  0  0  0  0  0
   46.9590   31.3880   49.2610 C   0  0  1  0  0  0  0  0  0  0  0  0
   45.4470   32.5530   48.1830 H   0  0  0  0  0  0  0  0  0  0  0  0
   45.6140   29.5720   49.1680 H   0  0  0  0  0  0  0  0  0  0  0  0
   44.9120   30.9940   50.0930 H   0  0  0  0  0  0  0  0  0  0  0  0
   47.0780   32.2360   50.0020 H   0  0  0  0  0  0  0  0  0  0  0  0
   48.2490   30.7690   48.8810 C   0  0  0  0  0  0  0  0  0  0  0  0
   49.1840   30.4370   50.0700 C   0  0  0  0  0  0  0  0  0  0  0  0
   49.5160   31.5980   49.2000 C   0  0  0  0  0  0  0  0  0  0  0  0
   48.3020   30.0870   48.0120 H   0  0  0  0  0  0  0  0  0  0  0  0
   48.7940   30.6230   51.0820 H   0  0  0  0  0  0  0  0  0  0  0  0
   49.7910   29.5070   49.9170 H   0  0  0  0  0  0  0  0  0  0  0  0
   50.3370   31.4620   48.4370 H   0  0  0  0  0  0  0  0  0  0  0  0
   49.3340   32.6090   49.5670 H   0  0  0  0  0  0  0  0  0  0  0  0
   45.7040   33.0820   46.1190 C   0  0  0  0  0  3  0  0  0  0  0  0
   46.0030   31.8980   45.7490 C   0  0  0  0  0  3  0  0  0  0  0  0
   44.6440   36.1280   44.3390 C   0  0  0  0  0  0  0  0  0  0  0  0
   45.2460   35.9960   43.0960 C   0  0  0  0  0  0  0  0  0  0  0  0
   46.0080   34.8820   42.9050 C   0  0  0  0  0  0  0  0  0  0  0  0
   46.1430   33.9710   43.9060 N   0  0  0  0  0  0  0  0  0  0  0  0
   45.5460   34.1210   45.1030 C   0  0  0  0  0  0  0  0  0  0  0  0
   44.7990   35.2160   45.2910 N   0  0  0  0  0  0  0  0  0  0  0  0
   44.0140   36.9500   44.6410 H   0  0  0  0  0  0  0  0  0  0  0  0
   45.0880   36.7540   42.3700 H   0  0  0  0  0  0  0  0  0  0  0  0
   46.6720   34.6790   41.6200 C   0  0  0  0  0  0  0  0  0  0  0  0
   47.9560   35.0400   41.3750 N   0  0  0  0  0  0  0  0  0  0  0  0
   48.2440   34.7060   40.0870 C   0  0  0  0  0  0  0  0  0  0  0  0
   49.1900   34.8580   39.5710 H   0  0  0  0  0  0  0  0  0  0  0  0
   47.1410   34.1400   39.5430 N   0  0  0  0  0  0  0  0  0  0  0  0
   47.0250   33.7690   38.5610 H   0  0  0  0  0  0  0  0  0  0  0  0
   46.1920   34.1320   40.4890 N   0  0  0  0  0  0  0  0  0  0  0  0
  1  4  1  0  0  0  0
  2  1  1  0  0  0  0
  3  1  1  0  0  0  0
  4  7  1  6  0  0  0
  4  6  1  0  0  0  0
  4  5  1  0  0  0  0
  5  9  1  0  0  0  0
  6  5  1  0  0  0  0
  6 10  1  1  0  0  0
  8  5  1  0  0  0  0
 11 13  1  0  0  0  0
 11  6  1  0  0  0  0
 11 12  1  0  0  0  0
 12 15  1  0  0  0  0
 13 18  1  0  0  0  0
 13 12  1  0  0  0  0
 14 11  1  0  0  0  0
 16 12  1  0  0  0  0
 17 13  1  0  0  0  0
 20 19  2  0  0  0  0
 20  1  1  0  0  0  0
 21 27  1  0  0  0  0
 21 26  1  0  0  0  0
 22 21  2  0  0  0  0
 23 22  1  0  0  0  0
 23 24  2  0  0  0  0
 24 25  1  0  0  0  0
 25 26  2  0  0  0  0
 25 19  1  0  0  0  0
 28 22  1  0  0  0  0
 29 23  1  0  0  0  0
 30 29  1  0  0  0  0
 31 30  2  0  0  0  0
 32 31  1  0  0  0  0
 33 31  1  0  0  0  0
 33 35  1  0  0  0  0
 34 33  1  0  0  0  0
 35 29  2  0  0  0  0
M  END
>  <minimizedAffinity>
-5.60889626

>  <minimizedRMSD>
0.632060051

$$$$
