
 OpenBabel03252509033D

 46 48  0  0  1  0  0  0  0  0999 V2000
   46.9510   34.3480   43.3520 N   0  0  0  0  0  0  0  0  0  0  0  0
   46.5050   35.5350   42.7200 C   0  0  0  0  0  0  0  0  0  0  0  0
   45.0250   35.7930   42.8380 C   0  0  0  0  0  0  0  0  0  0  0  0
   44.4030   35.3130   44.1300 C   0  0  0  0  0  0  0  0  0  0  0  0
   45.4490   34.7530   45.0660 C   0  0  0  0  0  0  0  0  0  0  0  0
   46.1340   33.6320   44.2050 C   0  0  2  0  0  0  0  0  0  0  0  0
   46.9890   36.3950   43.2630 H   0  0  0  0  0  0  0  0  0  0  0  0
   46.7780   35.6640   41.6710 H   0  0  0  0  0  0  0  0  0  0  0  0
   44.8230   36.8730   42.6580 H   0  0  0  0  0  0  0  0  0  0  0  0
   44.5460   35.2500   41.9870 H   0  0  0  0  0  0  0  0  0  0  0  0
   43.9170   36.2030   44.6200 H   0  0  0  0  0  0  0  0  0  0  0  0
   43.6240   34.5690   43.9690 H   0  0  0  0  0  0  0  0  0  0  0  0
   46.2190   35.4810   45.3340 H   0  0  0  0  0  0  0  0  0  0  0  0
   44.9330   34.2660   45.9130 H   0  0  0  0  0  0  0  0  0  0  0  0
   45.2880   33.0590   43.7750 H   0  0  0  0  0  0  0  0  0  0  0  0
   47.9690   33.6390   42.6180 C   0  0  0  0  0  0  0  0  0  0  0  0
   48.6870   34.3480   42.1690 H   0  0  0  0  0  0  0  0  0  0  0  0
   48.5350   33.0480   43.3940 H   0  0  0  0  0  0  0  0  0  0  0  0
   47.3230   32.7100   41.6610 C   0  0  0  0  0  0  0  0  0  0  0  0
   47.4320   31.6600   41.9640 H   0  0  0  0  0  0  0  0  0  0  0  0
   46.2100   32.8730   41.5900 H   0  0  0  0  0  0  0  0  0  0  0  0
   49.2680   32.1650   38.4930 C   0  0  0  0  0  0  0  0  0  0  0  0
   48.7310   31.9820   39.7810 C   0  0  0  0  0  0  0  0  0  0  0  0
   47.8820   32.9160   40.3020 C   0  0  0  0  0  0  0  0  0  0  0  0
   47.5950   33.9830   39.5440 N   0  0  0  0  0  0  0  0  0  0  0  0
   48.1060   34.1610   38.3140 C   0  0  0  0  0  0  0  0  0  0  0  0
   48.9420   33.2620   37.7750 N   0  0  0  0  0  0  0  0  0  0  0  0
   49.9360   31.3480   38.1830 H   0  0  0  0  0  0  0  0  0  0  0  0
   48.9760   31.1090   40.3780 H   0  0  0  0  0  0  0  0  0  0  0  0
   47.8800   35.0280   37.6870 H   0  0  0  0  0  0  0  0  0  0  0  0
   46.8500   32.9470   45.1730 O   0  0  0  0  0  0  0  0  0  0  0  0
   45.4470   30.8860   44.2620 O   0  0  0  0  0  0  0  0  0  0  0  0
   46.2420   31.3970   45.4590 P   0  0  2  0  0  0  0  0  0  0  0  0
   45.1290   31.5420   46.7370 O   0  0  0  0  0  0  0  0  0  0  0  0
   44.3140   32.0140   46.4670 H   0  0  0  0  0  0  0  0  0  0  0  0
   47.4350   30.3210   45.9160 O   0  0  0  0  0  0  0  0  0  0  0  0
   47.1660   29.0710   45.3990 C   0  0  0  0  0  0  0  0  0  0  0  0
   48.1070   28.5330   45.2540 H   0  0  0  0  0  0  0  0  0  0  0  0
   46.7720   29.2480   44.3550 H   0  0  0  0  0  0  0  0  0  0  0  0
   46.1580   28.2970   46.1530 C   0  0  0  0  0  0  0  0  0  0  0  0
   45.9870   28.5050   47.4790 N   0  0  0  0  0  0  0  0  0  0  0  0
   45.0180   27.6880   47.9540 C   0  0  0  0  0  0  0  0  0  0  0  0
   44.7210   27.6960   49.0100 H   0  0  0  0  0  0  0  0  0  0  0  0
   44.5860   26.9620   46.8920 N   0  0  0  0  0  0  0  0  0  0  0  0
   43.8320   26.2450   46.9730 H   0  0  0  0  0  0  0  0  0  0  0  0
   45.2730   27.3390   45.8410 N   0  0  0  0  0  0  0  0  0  0  0  0
  1  6  1  0  0  0  0
  2  3  1  0  0  0  0
  2  7  1  0  0  0  0
  2  1  1  0  0  0  0
  3  4  1  0  0  0  0
  4 11  1  0  0  0  0
  4  5  1  0  0  0  0
  5 13  1  0  0  0  0
  5 14  1  0  0  0  0
  6 15  1  6  0  0  0
  6  5  1  0  0  0  0
  6 31  1  0  0  0  0
  8  2  1  0  0  0  0
  9  3  1  0  0  0  0
 10  3  1  0  0  0  0
 12  4  1  0  0  0  0
 16  1  1  0  0  0  0
 16 18  1  0  0  0  0
 17 16  1  0  0  0  0
 19 20  1  0  0  0  0
 19 16  1  0  0  0  0
 21 19  1  0  0  0  0
 22 23  1  0  0  0  0
 23 24  2  0  0  0  0
 23 29  1  0  0  0  0
 24 19  1  0  0  0  0
 25 24  1  0  0  0  0
 26 25  2  0  0  0  0
 27 26  1  0  0  0  0
 27 22  2  0  0  0  0
 28 22  1  0  0  0  0
 30 26  1  0  0  0  0
 31 33  1  0  0  0  0
 33 32  2  6  0  0  0
 33 36  1  0  0  0  0
 33 34  1  0  0  0  0
 35 34  1  0  0  0  0
 37 36  1  0  0  0  0
 37 40  1  0  0  0  0
 38 37  1  0  0  0  0
 39 37  1  0  0  0  0
 40 41  1  0  0  0  0
 41 42  2  0  0  0  0
 42 43  1  0  0  0  0
 44 45  1  0  0  0  0
 44 42  1  0  0  0  0
 46 40  2  0  0  0  0
 46 44  1  0  0  0  0
M  END
>  <minimizedAffinity>
-3.97281814

>  <minimizedRMSD>
0.707160354

$$$$
