
 OpenBabel03252509143D

 43 47  0  0  1  0  0  0  0  0999 V2000
   47.4150   32.4510   44.2840 C   0  0  0  0  0  0  0  0  0  0  0  0
   46.6880   33.3930   43.5620 C   0  0  0  0  0  0  0  0  0  0  0  0
   45.6650   34.1420   44.1260 C   0  0  0  0  0  0  0  0  0  0  0  0
   45.3400   33.9520   45.4800 C   0  0  0  0  0  0  0  0  0  0  0  0
   44.4430   34.4760   46.3360 N   0  0  0  0  0  0  0  0  0  0  0  0
   44.5850   33.9040   47.5440 C   0  0  0  0  0  0  0  0  0  0  0  0
   45.5830   33.0190   47.4200 N   0  0  0  0  0  0  0  0  0  0  0  0
   46.0760   33.0160   46.1630 C   0  0  0  0  0  0  0  0  0  0  0  0
   47.1010   32.2530   45.6330 C   0  0  0  0  0  0  0  0  0  0  0  0
   48.1980   31.9030   43.7840 H   0  0  0  0  0  0  0  0  0  0  0  0
   43.7470   35.2180   46.0840 H   0  0  0  0  0  0  0  0  0  0  0  0
   44.0220   34.0980   48.4550 H   0  0  0  0  0  0  0  0  0  0  0  0
   47.6510   31.5310   46.2080 H   0  0  0  0  0  0  0  0  0  0  0  0
   46.8170   32.9350   39.9340 C   0  0  0  0  0  0  0  0  0  0  0  0
   47.6080   33.9980   39.5030 C   0  0  0  0  0  0  0  0  0  0  0  0
   48.0960   34.8740   40.4800 C   0  0  0  0  0  0  0  0  0  0  0  0
   47.7850   34.6600   41.8040 N   0  0  0  0  0  0  0  0  0  0  0  0
   47.0100   33.6060   42.1520 C   0  0  0  0  0  0  0  0  0  0  0  0
   46.5060   32.7190   41.2490 N   0  0  0  0  0  0  0  0  0  0  0  0
   46.3820   32.1890   39.2730 H   0  0  0  0  0  0  0  0  0  0  0  0
   47.8060   34.0970   38.4620 H   0  0  0  0  0  0  0  0  0  0  0  0
   48.7090   35.7030   40.1770 H   0  0  0  0  0  0  0  0  0  0  0  0
   44.7510   35.3340   43.1940 S   0  0  0  0  0  0  0  0  0  0  0  0
   42.3560   34.8050   42.2350 N   0  0  0  0  0  0  0  0  0  0  0  0
   43.7490   34.6090   41.8670 C   0  0  1  0  0  0  0  0  0  0  0  0
   44.0970   35.4070   40.6080 C   0  0  0  0  0  0  0  0  0  0  0  0
   43.1360   35.3320   39.6230 O   0  0  0  0  0  0  0  0  0  0  0  0
   42.1620   34.3800   39.8220 C   0  0  0  0  0  0  0  0  0  0  0  0
   41.4610   34.6480   41.1270 C   0  0  1  0  0  0  0  0  0  0  0  0
   42.2610   35.7550   42.7040 H   0  0  0  0  0  0  0  0  0  0  0  0
   43.9380   33.5400   41.7040 H   0  0  0  0  0  0  0  0  0  0  0  0
   44.9950   35.0010   40.1520 H   0  0  0  0  0  0  0  0  0  0  0  0
   44.2790   36.4710   40.8700 H   0  0  0  0  0  0  0  0  0  0  0  0
   41.4460   34.4330   39.0070 H   0  0  0  0  0  0  0  0  0  0  0  0
   42.6620   33.3970   39.9150 H   0  0  0  0  0  0  0  0  0  0  0  0
   40.8420   35.5790   41.0680 H   0  0  0  0  0  0  0  0  0  0  0  0
   40.5050   33.5230   41.3500 C   0  0  0  0  0  0  0  0  0  0  0  0
   40.8470   32.2990   41.8460 N   0  0  0  0  0  0  0  0  0  0  0  0
   39.7030   31.5570   41.8980 C   0  0  0  0  0  0  0  0  0  0  0  0
   39.7070   30.5450   42.2570 H   0  0  0  0  0  0  0  0  0  0  0  0
   38.6770   32.3020   41.4440 N   0  0  0  0  0  0  0  0  0  0  0  0
   37.6780   31.9840   41.3720 H   0  0  0  0  0  0  0  0  0  0  0  0
   39.1860   33.4990   41.1140 N   0  0  0  0  0  0  0  0  0  0  0  0
  1  9  1  0  0  0  0
  2  3  1  0  0  0  0
  2  1  2  0  0  0  0
  3  4  2  0  0  0  0
  4  8  1  0  0  0  0
  4  5  1  0  0  0  0
  5  6  1  0  0  0  0
  6 12  1  0  0  0  0
  7  6  2  0  0  0  0
  8  7  1  0  0  0  0
  9  8  2  0  0  0  0
  9 13  1  0  0  0  0
 10  1  1  0  0  0  0
 11  5  1  0  0  0  0
 14 19  1  0  0  0  0
 15 14  2  0  0  0  0
 15 16  1  0  0  0  0
 16 17  2  0  0  0  0
 17 18  1  0  0  0  0
 18  2  1  0  0  0  0
 19 18  2  0  0  0  0
 20 14  1  0  0  0  0
 21 15  1  0  0  0  0
 22 16  1  0  0  0  0
 23  3  1  0  0  0  0
 24 30  1  0  0  0  0
 25 31  1  6  0  0  0
 25 24  1  0  0  0  0
 25 23  1  0  0  0  0
 26 33  1  0  0  0  0
 26 25  1  0  0  0  0
 27 28  1  0  0  0  0
 27 26  1  0  0  0  0
 28 35  1  0  0  0  0
 28 29  1  0  0  0  0
 29 36  1  6  0  0  0
 29 37  1  0  0  0  0
 29 24  1  0  0  0  0
 32 26  1  0  0  0  0
 34 28  1  0  0  0  0
 37 38  1  0  0  0  0
 38 39  2  0  0  0  0
 39 40  1  0  0  0  0
 41 39  1  0  0  0  0
 42 41  1  0  0  0  0
 43 37  2  0  0  0  0
 43 41  1  0  0  0  0
M  END
>  <minimizedAffinity>
-5.85341406

>  <minimizedRMSD>
1.1188066

$$$$
