
 OpenBabel03252508083D

 42 45  0  0  0  0  0  0  0  0999 V2000
   45.2600   35.9100   42.8750 C   0  0  0  0  0  0  0  0  0  0  0  0
   45.5090   34.5470   42.9010 C   0  0  0  0  0  0  0  0  0  0  0  0
   45.3000   33.8290   44.0530 C   0  0  0  0  0  0  0  0  0  0  0  0
   44.8370   34.5310   45.1490 N   0  0  0  0  0  0  0  0  0  0  0  0
   44.5990   35.8410   45.1180 C   0  0  0  0  0  0  0  0  0  0  0  0
   44.8160   36.5190   43.9710 N   0  0  0  0  0  0  0  0  0  0  0  0
   45.4130   36.5190   41.9820 H   0  0  0  0  0  0  0  0  0  0  0  0
   44.2410   36.3710   45.9780 H   0  0  0  0  0  0  0  0  0  0  0  0
   45.5050   32.4440   44.2410 C   0  0  0  0  0  0  0  0  0  0  0  0
   45.0460   31.4580   43.3640 C   0  0  0  0  0  0  0  0  0  0  0  0
   45.1880   30.1100   43.5770 C   0  0  0  0  0  0  0  0  0  0  0  0
   45.8180   29.6620   44.7170 C   0  0  0  0  0  0  0  0  0  0  0  0
   46.2960   30.6540   45.6250 C   0  0  0  0  0  0  0  0  0  0  0  0
   46.9210   30.2170   46.7620 C   0  0  0  0  0  0  0  0  0  0  0  0
   47.4080   31.1210   47.6830 C   0  0  0  0  0  0  0  0  0  0  0  0
   47.2580   32.4950   47.4420 C   0  0  0  0  0  0  0  0  0  0  0  0
   46.6080   32.8920   46.2600 C   0  0  0  0  0  0  0  0  0  0  0  0
   46.1310   31.9730   45.3670 C   0  0  0  0  0  0  0  0  0  0  0  0
   44.5490   31.7810   42.4600 H   0  0  0  0  0  0  0  0  0  0  0  0
   44.8200   29.3790   42.8730 H   0  0  0  0  0  0  0  0  0  0  0  0
   45.9590   28.6150   44.9420 H   0  0  0  0  0  0  0  0  0  0  0  0
   47.0430   29.1620   46.9560 H   0  0  0  0  0  0  0  0  0  0  0  0
   47.8940   30.7240   48.5670 H   0  0  0  0  0  0  0  0  0  0  0  0
   47.6690   33.1110   48.2120 H   0  0  0  0  0  0  0  0  0  0  0  0
   46.6120   33.9610   46.2500 H   0  0  0  0  0  0  0  0  0  0  0  0
   45.9600   33.9730   41.7430 O   0  0  0  0  0  0  0  0  0  0  0  0
   47.9630   32.3760   41.1990 O   0  0  0  0  0  0  0  0  0  0  0  0
   47.5910   33.8110   41.3230 P   0  0  1  0  0  0  0  0  0  0  0  0
   47.9030   34.5320   39.8220 O   0  0  0  0  0  0  0  0  0  0  0  0
   47.6770   33.7770   38.6780 C   0  0  0  0  0  0  0  0  0  0  0  0
   48.6490   33.4560   37.7860 N   0  0  0  0  0  0  0  0  0  0  0  0
   48.1240   32.7210   36.7880 C   0  0  0  0  0  0  0  0  0  0  0  0
   48.6330   32.3070   35.9220 H   0  0  0  0  0  0  0  0  0  0  0  0
   46.8120   32.5760   37.0530 N   0  0  0  0  0  0  0  0  0  0  0  0
   46.0860   32.0540   36.4780 H   0  0  0  0  0  0  0  0  0  0  0  0
   46.5630   33.2130   38.1830 N   0  0  0  0  0  0  0  0  0  0  0  0
   48.5170   34.5810   42.4930 O   0  0  0  0  0  0  0  0  0  0  0  0
   49.7180   35.2420   42.2970 C   0  0  0  0  0  0  0  0  0  0  0  0
   49.3980   36.3450   41.8160 O   0  0  0  0  0  0  0  0  0  0  0  0
   50.8310   34.4250   42.7130 N   0  0  0  0  0  0  0  0  0  0  0  0
   50.8980   34.1950   43.7410 H   0  0  0  0  0  0  0  0  0  0  0  0
   51.6010   34.0150   42.1380 H   0  0  0  0  0  0  0  0  0  0  0  0
  1  2  2  0  0  0  0
  1  6  1  0  0  0  0
  2  3  1  0  0  0  0
  3  9  1  0  0  0  0
  3  4  2  0  0  0  0
  5  4  1  0  0  0  0
  5  8  1  0  0  0  0
  6  5  2  0  0  0  0
  7  1  1  0  0  0  0
  9 18  1  0  0  0  0
 10 11  1  0  0  0  0
 10  9  2  0  0  0  0
 11 12  2  0  0  0  0
 12 21  1  0  0  0  0
 12 13  1  0  0  0  0
 13 14  1  0  0  0  0
 14 22  1  0  0  0  0
 14 15  2  0  0  0  0
 15 23  1  0  0  0  0
 16 15  1  0  0  0  0
 16 24  1  0  0  0  0
 17 16  2  0  0  0  0
 18 13  2  0  0  0  0
 18 17  1  0  0  0  0
 19 10  1  0  0  0  0
 20 11  1  0  0  0  0
 25 17  1  0  0  0  0
 26  2  1  0  0  0  0
 28 27  2  6  0  0  0
 28 26  1  0  0  0  0
 28 37  1  0  0  0  0
 29 28  1  0  0  0  0
 30 29  1  0  0  0  0
 31 30  1  0  0  0  0
 32 34  1  0  0  0  0
 32 31  2  0  0  0  0
 33 32  1  0  0  0  0
 34 36  1  0  0  0  0
 35 34  1  0  0  0  0
 36 30  2  0  0  0  0
 38 37  1  0  0  0  0
 38 40  1  0  0  0  0
 39 38  2  0  0  0  0
 40 41  1  0  0  0  0
 42 40  1  0  0  0  0
M  END
>  <minimizedAffinity>
-5.96611261

>  <minimizedRMSD>
0.821491241

$$$$
