
 OpenBabel03252509133D

 30 33  0  0  0  0  0  0  0  0999 V2000
   40.2640   29.9520   42.2220 C   0  0  0  0  0  0  0  0  0  0  0  0
   39.3290   30.6510   41.4610 C   0  0  0  0  0  0  0  0  0  0  0  0
   38.0090   30.2990   41.3960 C   0  0  0  0  0  0  0  0  0  0  0  0
   37.5640   29.1840   42.1250 C   0  0  0  0  0  0  0  0  0  0  0  0
   36.3630   28.5640   42.2950 N   0  0  0  0  0  0  0  0  0  0  0  0
   36.5300   27.5180   43.1270 C   0  0  0  0  0  0  0  0  0  0  0  0
   37.8430   27.5060   43.4620 N   0  0  0  0  0  0  0  0  0  0  0  0
   38.4940   28.5110   42.8640 C   0  0  0  0  0  0  0  0  0  0  0  0
   39.8270   28.8420   42.9490 C   0  0  0  0  0  0  0  0  0  0  0  0
   41.3100   30.2120   42.2880 H   0  0  0  0  0  0  0  0  0  0  0  0
   35.4940   28.9080   41.8180 H   0  0  0  0  0  0  0  0  0  0  0  0
   35.6670   26.9140   43.3690 H   0  0  0  0  0  0  0  0  0  0  0  0
   40.5220   28.2840   43.5430 H   0  0  0  0  0  0  0  0  0  0  0  0
   41.0260   32.7230   38.9420 C   0  0  0  0  0  0  0  0  0  0  0  0
   40.6160   34.0110   39.2760 C   0  0  0  0  0  0  0  0  0  0  0  0
   39.7580   34.1590   40.3660 C   0  0  0  0  0  0  0  0  0  0  0  0
   39.3560   33.0470   41.0570 N   0  0  0  0  0  0  0  0  0  0  0  0
   39.7770   31.8150   40.7020 C   0  0  0  0  0  0  0  0  0  0  0  0
   40.6080   31.6500   39.6500 N   0  0  0  0  0  0  0  0  0  0  0  0
   41.6920   32.5660   38.1040 H   0  0  0  0  0  0  0  0  0  0  0  0
   40.9400   34.8670   38.7250 H   0  0  0  0  0  0  0  0  0  0  0  0
   39.4070   35.1290   40.6710 H   0  0  0  0  0  0  0  0  0  0  0  0
   36.8210   31.1980   40.4280 S   0  0  0  0  0  0  0  0  0  0  0  0
   37.0260   30.9530   38.6770 C   0  0  0  0  0  0  0  0  0  0  0  0
   36.5360   29.8970   37.9640 N   0  0  0  0  0  0  0  0  0  0  0  0
   36.8960   30.0720   36.6710 C   0  0  0  0  0  0  0  0  0  0  0  0
   36.6090   29.3440   35.9270 H   0  0  0  0  0  0  0  0  0  0  0  0
   37.6060   31.2270   36.5630 N   0  0  0  0  0  0  0  0  0  0  0  0
   38.0000   31.5890   35.6650 H   0  0  0  0  0  0  0  0  0  0  0  0
   37.6620   31.7210   37.7690 N   0  0  0  0  0  0  0  0  0  0  0  0
  1 10  1  0  0  0  0
  1  9  1  0  0  0  0
  2  1  2  0  0  0  0
  3  2  1  0  0  0  0
  3  4  2  0  0  0  0
  4  5  1  0  0  0  0
  4  8  1  0  0  0  0
  5  6  1  0  0  0  0
  6 12  1  0  0  0  0
  6  7  2  0  0  0  0
  8  9  2  0  0  0  0
  8  7  1  0  0  0  0
  9 13  1  0  0  0  0
 11  5  1  0  0  0  0
 14 15  2  0  0  0  0
 14 19  1  0  0  0  0
 15 16  1  0  0  0  0
 16 22  1  0  0  0  0
 16 17  2  0  0  0  0
 18 17  1  0  0  0  0
 18  2  1  0  0  0  0
 19 18  2  0  0  0  0
 20 14  1  0  0  0  0
 21 15  1  0  0  0  0
 23  3  1  0  0  0  0
 24 23  1  0  0  0  0
 25 24  1  0  0  0  0
 26 25  2  0  0  0  0
 27 26  1  0  0  0  0
 28 26  1  0  0  0  0
 28 30  1  0  0  0  0
 29 28  1  0  0  0  0
 30 24  2  0  0  0  0
M  END
>  <minimizedAffinity>
-5.49893332

$$$$

 OpenBabel03252509133D

 30 33  0  0  0  0  0  0  0  0999 V2000
   37.2210   33.0050   39.5860 C   0  0  0  0  0  0  0  0  0  0  0  0
   37.5590   31.6540   39.6370 C   0  0  0  0  0  0  0  0  0  0  0  0
   38.8080   31.2110   39.9720 C   0  0  0  0  0  0  0  0  0  0  0  0
   39.8050   32.1500   40.2820 C   0  0  0  0  0  0  0  0  0  0  0  0
   41.1140   32.0770   40.6500 N   0  0  0  0  0  0  0  0  0  0  0  0
   41.5860   33.3270   40.8250 C   0  0  0  0  0  0  0  0  0  0  0  0
   40.5520   34.1610   40.5600 N   0  0  0  0  0  0  0  0  0  0  0  0
   39.4560   33.4690   40.2270 C   0  0  0  0  0  0  0  0  0  0  0  0
   38.2080   33.9440   39.8930 C   0  0  0  0  0  0  0  0  0  0  0  0
   36.2420   33.3760   39.3240 H   0  0  0  0  0  0  0  0  0  0  0  0
   41.6040   31.1550   40.7570 H   0  0  0  0  0  0  0  0  0  0  0  0
   42.6180   33.4470   41.1200 H   0  0  0  0  0  0  0  0  0  0  0  0
   37.9790   34.9900   39.8630 H   0  0  0  0  0  0  0  0  0  0  0  0
   35.4220   29.3340   37.7460 C   0  0  0  0  0  0  0  0  0  0  0  0
   34.5960   28.8030   38.7330 C   0  0  0  0  0  0  0  0  0  0  0  0
   34.7780   29.2460   40.0430 C   0  0  0  0  0  0  0  0  0  0  0  0
   35.7510   30.1740   40.3060 N   0  0  0  0  0  0  0  0  0  0  0  0
   36.5320   30.6650   39.3210 C   0  0  0  0  0  0  0  0  0  0  0  0
   36.3700   30.2500   38.0460 N   0  0  0  0  0  0  0  0  0  0  0  0
   35.3110   29.0170   36.7170 H   0  0  0  0  0  0  0  0  0  0  0  0
   33.8420   28.0800   38.5090 H   0  0  0  0  0  0  0  0  0  0  0  0
   34.1710   28.8710   40.8480 H   0  0  0  0  0  0  0  0  0  0  0  0
   39.2300   29.4850   40.0400 S   0  0  0  0  0  0  0  0  0  0  0  0
   38.9160   28.7560   41.6330 C   0  0  0  0  0  0  0  0  0  0  0  0
   39.5580   27.6640   42.1420 N   0  0  0  0  0  0  0  0  0  0  0  0
   39.0440   27.4220   43.3710 C   0  0  0  0  0  0  0  0  0  0  0  0
   39.4130   26.5940   43.9570 H   0  0  0  0  0  0  0  0  0  0  0  0
   38.0870   28.3500   43.6390 N   0  0  0  0  0  0  0  0  0  0  0  0
   37.5360   28.3830   44.5280 H   0  0  0  0  0  0  0  0  0  0  0  0
   38.0390   29.1220   42.5890 N   0  0  0  0  0  0  0  0  0  0  0  0
  1  2  2  0  0  0  0
  1  9  1  0  0  0  0
  2  3  1  0  0  0  0
  3 23  1  0  0  0  0
  3  4  2  0  0  0  0
  4  5  1  0  0  0  0
  5 11  1  0  0  0  0
  5  6  1  0  0  0  0
  6 12  1  0  0  0  0
  7  6  2  0  0  0  0
  8  4  1  0  0  0  0
  8  7  1  0  0  0  0
  9  8  2  0  0  0  0
 10  1  1  0  0  0  0
 13  9  1  0  0  0  0
 14 19  2  0  0  0  0
 14 15  1  0  0  0  0
 15 16  2  0  0  0  0
 16 17  1  0  0  0  0
 16 22  1  0  0  0  0
 18  2  1  0  0  0  0
 18 17  2  0  0  0  0
 19 18  1  0  0  0  0
 20 14  1  0  0  0  0
 21 15  1  0  0  0  0
 23 24  1  0  0  0  0
 24 25  1  0  0  0  0
 24 30  2  0  0  0  0
 25 26  2  0  0  0  0
 26 28  1  0  0  0  0
 26 27  1  0  0  0  0
 28 29  1  0  0  0  0
 30 28  1  0  0  0  0
M  END
>  <minimizedAffinity>
-5.24233103

$$$$

 OpenBabel03252509133D

 30 33  0  0  0  0  0  0  0  0999 V2000
   37.0220   30.1160   36.8690 C   0  0  0  0  0  0  0  0  0  0  0  0
   36.3710   29.4600   37.9110 C   0  0  0  0  0  0  0  0  0  0  0  0
   36.2470   29.9930   39.1650 C   0  0  0  0  0  0  0  0  0  0  0  0
   36.7980   31.2580   39.4250 C   0  0  0  0  0  0  0  0  0  0  0  0
   36.8620   32.0720   40.5160 N   0  0  0  0  0  0  0  0  0  0  0  0
   37.5260   33.1950   40.1790 C   0  0  0  0  0  0  0  0  0  0  0  0
   37.8650   33.0570   38.8740 N   0  0  0  0  0  0  0  0  0  0  0  0
   37.4320   31.8860   38.3930 C   0  0  0  0  0  0  0  0  0  0  0  0
   37.5720   31.3750   37.1220 C   0  0  0  0  0  0  0  0  0  0  0  0
   37.1310   29.7140   35.8730 H   0  0  0  0  0  0  0  0  0  0  0  0
   36.4380   31.7950   41.4350 H   0  0  0  0  0  0  0  0  0  0  0  0
   37.6660   33.9530   40.9360 H   0  0  0  0  0  0  0  0  0  0  0  0
   38.0790   31.9040   36.3420 H   0  0  0  0  0  0  0  0  0  0  0  0
   36.0090   25.8160   37.5870 C   0  0  0  0  0  0  0  0  0  0  0  0
   34.6880   25.6740   37.1680 C   0  0  0  0  0  0  0  0  0  0  0  0
   33.9300   26.8320   37.0000 C   0  0  0  0  0  0  0  0  0  0  0  0
   34.5050   28.0500   37.2500 N   0  0  0  0  0  0  0  0  0  0  0  0
   35.7890   28.1460   37.6540 C   0  0  0  0  0  0  0  0  0  0  0  0
   36.5400   27.0360   37.8230 N   0  0  0  0  0  0  0  0  0  0  0  0
   36.6300   24.9410   37.7280 H   0  0  0  0  0  0  0  0  0  0  0  0
   34.2570   24.7150   36.9770 H   0  0  0  0  0  0  0  0  0  0  0  0
   32.9040   26.7850   36.6780 H   0  0  0  0  0  0  0  0  0  0  0  0
   35.4090   29.1520   40.4880 S   0  0  0  0  0  0  0  0  0  0  0  0
   36.4570   28.8590   41.8970 C   0  0  0  0  0  0  0  0  0  0  0  0
   36.4750   27.7170   42.6450 N   0  0  0  0  0  0  0  0  0  0  0  0
   37.4020   27.8780   43.6180 C   0  0  0  0  0  0  0  0  0  0  0  0
   37.5810   27.0860   44.3300 H   0  0  0  0  0  0  0  0  0  0  0  0
   37.9670   29.1080   43.4890 N   0  0  0  0  0  0  0  0  0  0  0  0
   38.7140   29.4770   44.1210 H   0  0  0  0  0  0  0  0  0  0  0  0
   37.3840   29.6600   42.4610 N   0  0  0  0  0  0  0  0  0  0  0  0
  1  9  2  0  0  0  0
  1  2  1  0  0  0  0
  2  3  2  0  0  0  0
  3  4  1  0  0  0  0
  3 23  1  0  0  0  0
  4  5  1  0  0  0  0
  5 11  1  0  0  0  0
  6  5  1  0  0  0  0
  6 12  1  0  0  0  0
  7  6  2  0  0  0  0
  8  7  1  0  0  0  0
  8  4  2  0  0  0  0
  9  8  1  0  0  0  0
 10  1  1  0  0  0  0
 13  9  1  0  0  0  0
 14 20  1  0  0  0  0
 14 19  1  0  0  0  0
 15 14  2  0  0  0  0
 16 15  1  0  0  0  0
 16 17  2  0  0  0  0
 17 18  1  0  0  0  0
 18 19  2  0  0  0  0
 18  2  1  0  0  0  0
 21 15  1  0  0  0  0
 22 16  1  0  0  0  0
 23 24  1  0  0  0  0
 24 30  2  0  0  0  0
 24 25  1  0  0  0  0
 25 26  2  0  0  0  0
 26 27  1  0  0  0  0
 28 26  1  0  0  0  0
 28 29  1  0  0  0  0
 30 28  1  0  0  0  0
M  END
>  <minimizedAffinity>
-5.22400045

$$$$

 OpenBabel03252509133D

 30 33  0  0  0  0  0  0  0  0999 V2000
   40.3420   30.4000   42.2750 C   0  0  0  0  0  0  0  0  0  0  0  0
   39.0700   30.2310   41.7330 C   0  0  0  0  0  0  0  0  0  0  0  0
   38.5120   31.1140   40.8500 C   0  0  0  0  0  0  0  0  0  0  0  0
   39.2460   32.2480   40.4650 C   0  0  0  0  0  0  0  0  0  0  0  0
   39.0190   33.3020   39.6330 N   0  0  0  0  0  0  0  0  0  0  0  0
   40.1010   34.1060   39.6480 C   0  0  0  0  0  0  0  0  0  0  0  0
   40.9870   33.5310   40.4960 N   0  0  0  0  0  0  0  0  0  0  0  0
   40.4900   32.3980   41.0060 C   0  0  0  0  0  0  0  0  0  0  0  0
   41.0760   31.5260   41.8960 C   0  0  0  0  0  0  0  0  0  0  0  0
   40.8010   29.7160   42.9730 H   0  0  0  0  0  0  0  0  0  0  0  0
   38.1190   33.4010   39.1030 H   0  0  0  0  0  0  0  0  0  0  0  0
   40.0850   34.9970   39.0370 H   0  0  0  0  0  0  0  0  0  0  0  0
   42.0570   31.6840   42.2950 H   0  0  0  0  0  0  0  0  0  0  0  0
   36.9260   27.9560   43.6690 C   0  0  0  0  0  0  0  0  0  0  0  0
   36.8430   26.8360   42.8450 C   0  0  0  0  0  0  0  0  0  0  0  0
   37.5240   26.8700   41.6290 C   0  0  0  0  0  0  0  0  0  0  0  0
   38.2400   27.9880   41.2940 N   0  0  0  0  0  0  0  0  0  0  0  0
   38.2960   29.0540   42.1210 C   0  0  0  0  0  0  0  0  0  0  0  0
   37.6440   29.0410   43.3030 N   0  0  0  0  0  0  0  0  0  0  0  0
   36.4120   27.9680   44.6210 H   0  0  0  0  0  0  0  0  0  0  0  0
   36.2790   25.9720   43.1230 H   0  0  0  0  0  0  0  0  0  0  0  0
   37.4960   26.0350   40.9510 H   0  0  0  0  0  0  0  0  0  0  0  0
   36.8910   30.8880   40.1580 S   0  0  0  0  0  0  0  0  0  0  0  0
   36.9200   30.5970   38.4030 C   0  0  0  0  0  0  0  0  0  0  0  0
   36.2020   29.6370   37.7490 N   0  0  0  0  0  0  0  0  0  0  0  0
   36.4910   29.7360   36.4300 C   0  0  0  0  0  0  0  0  0  0  0  0
   36.0270   29.0630   35.7240 H   0  0  0  0  0  0  0  0  0  0  0  0
   37.3820   30.7460   36.2480 N   0  0  0  0  0  0  0  0  0  0  0  0
   37.7660   31.0270   35.3170 H   0  0  0  0  0  0  0  0  0  0  0  0
   37.6120   31.2330   37.4360 N   0  0  0  0  0  0  0  0  0  0  0  0
  1 10  1  0  0  0  0
  2 18  1  0  0  0  0
  2  1  2  0  0  0  0
  3  2  1  0  0  0  0
  4  3  2  0  0  0  0
  4  8  1  0  0  0  0
  5  6  1  0  0  0  0
  5  4  1  0  0  0  0
  6  7  2  0  0  0  0
  7  8  1  0  0  0  0
  8  9  2  0  0  0  0
  9  1  1  0  0  0  0
  9 13  1  0  0  0  0
 11  5  1  0  0  0  0
 12  6  1  0  0  0  0
 14 20  1  0  0  0  0
 15 21  1  0  0  0  0
 15 14  2  0  0  0  0
 16 15  1  0  0  0  0
 17 16  2  0  0  0  0
 17 18  1  0  0  0  0
 18 19  2  0  0  0  0
 19 14  1  0  0  0  0
 22 16  1  0  0  0  0
 23  3  1  0  0  0  0
 24 23  1  0  0  0  0
 25 24  1  0  0  0  0
 26 25  2  0  0  0  0
 27 26  1  0  0  0  0
 28 26  1  0  0  0  0
 28 30  1  0  0  0  0
 29 28  1  0  0  0  0
 30 24  2  0  0  0  0
M  END
>  <minimizedAffinity>
-5.21547031

$$$$

 OpenBabel03252509133D

 30 33  0  0  0  0  0  0  0  0999 V2000
   36.7320   26.7490   39.5490 C   0  0  0  0  0  0  0  0  0  0  0  0
   36.6100   28.0870   39.1780 C   0  0  0  0  0  0  0  0  0  0  0  0
   36.7460   29.1210   40.0630 C   0  0  0  0  0  0  0  0  0  0  0  0
   37.0210   28.8340   41.4100 C   0  0  0  0  0  0  0  0  0  0  0  0
   37.2170   29.5820   42.5310 N   0  0  0  0  0  0  0  0  0  0  0  0
   37.4540   28.7550   43.5680 C   0  0  0  0  0  0  0  0  0  0  0  0
   37.4000   27.4970   43.0670 N   0  0  0  0  0  0  0  0  0  0  0  0
   37.1380   27.5190   41.7550 C   0  0  0  0  0  0  0  0  0  0  0  0
   37.0070   26.4580   40.8880 C   0  0  0  0  0  0  0  0  0  0  0  0
   36.6300   25.9180   38.8680 H   0  0  0  0  0  0  0  0  0  0  0  0
   37.1730   30.6310   42.5070 H   0  0  0  0  0  0  0  0  0  0  0  0
   37.6310   29.1910   44.5400 H   0  0  0  0  0  0  0  0  0  0  0  0
   37.1070   25.4400   41.2040 H   0  0  0  0  0  0  0  0  0  0  0  0
   34.8030   29.0240   36.1160 C   0  0  0  0  0  0  0  0  0  0  0  0
   35.8020   28.9890   35.1470 C   0  0  0  0  0  0  0  0  0  0  0  0
   37.0910   28.6440   35.5520 C   0  0  0  0  0  0  0  0  0  0  0  0
   37.3230   28.3560   36.8700 N   0  0  0  0  0  0  0  0  0  0  0  0
   36.3270   28.4010   37.7800 C   0  0  0  0  0  0  0  0  0  0  0  0
   35.0720   28.7320   37.4080 N   0  0  0  0  0  0  0  0  0  0  0  0
   33.7890   29.2860   35.8420 H   0  0  0  0  0  0  0  0  0  0  0  0
   35.6020   29.2170   34.1220 H   0  0  0  0  0  0  0  0  0  0  0  0
   37.9030   28.6010   34.8480 H   0  0  0  0  0  0  0  0  0  0  0  0
   36.5930   30.8250   39.5810 S   0  0  0  0  0  0  0  0  0  0  0  0
   37.9130   31.3660   38.5170 C   0  0  0  0  0  0  0  0  0  0  0  0
   39.2390   31.3760   38.8450 N   0  0  0  0  0  0  0  0  0  0  0  0
   39.9220   31.8500   37.7770 C   0  0  0  0  0  0  0  0  0  0  0  0
   40.9970   31.9420   37.8210 H   0  0  0  0  0  0  0  0  0  0  0  0
   39.0410   32.1380   36.7820 N   0  0  0  0  0  0  0  0  0  0  0  0
   39.3170   32.5200   35.8490 H   0  0  0  0  0  0  0  0  0  0  0  0
   37.8630   31.8390   37.2550 N   0  0  0  0  0  0  0  0  0  0  0  0
  1  9  1  0  0  0  0
  2  1  2  0  0  0  0
  2  3  1  0  0  0  0
  3  4  2  0  0  0  0
  4  8  1  0  0  0  0
  4  5  1  0  0  0  0
  5  6  1  0  0  0  0
  6 12  1  0  0  0  0
  7  6  2  0  0  0  0
  8  7  1  0  0  0  0
  9 13  1  0  0  0  0
  9  8  2  0  0  0  0
 10  1  1  0  0  0  0
 11  5  1  0  0  0  0
 14 19  1  0  0  0  0
 15 16  1  0  0  0  0
 15 14  2  0  0  0  0
 16 17  2  0  0  0  0
 17 18  1  0  0  0  0
 18  2  1  0  0  0  0
 19 18  2  0  0  0  0
 20 14  1  0  0  0  0
 21 15  1  0  0  0  0
 22 16  1  0  0  0  0
 23  3  1  0  0  0  0
 24 25  1  0  0  0  0
 24 23  1  0  0  0  0
 26 27  1  0  0  0  0
 26 25  2  0  0  0  0
 28 30  1  0  0  0  0
 28 26  1  0  0  0  0
 29 28  1  0  0  0  0
 30 24  2  0  0  0  0
M  END
>  <minimizedAffinity>
-5.19905949

$$$$

 OpenBabel03252509133D

 30 33  0  0  0  0  0  0  0  0999 V2000
   37.6740   30.9800   37.1180 C   0  0  0  0  0  0  0  0  0  0  0  0
   37.4750   31.1320   38.4890 C   0  0  0  0  0  0  0  0  0  0  0  0
   36.5230   30.4390   39.1840 C   0  0  0  0  0  0  0  0  0  0  0  0
   35.7040   29.5290   38.4970 C   0  0  0  0  0  0  0  0  0  0  0  0
   34.6900   28.6910   38.8510 N   0  0  0  0  0  0  0  0  0  0  0  0
   34.2650   28.0370   37.7520 C   0  0  0  0  0  0  0  0  0  0  0  0
   35.0300   28.4830   36.7270 N   0  0  0  0  0  0  0  0  0  0  0  0
   35.9130   29.3930   37.1550 C   0  0  0  0  0  0  0  0  0  0  0  0
   36.8620   30.0760   36.4290 C   0  0  0  0  0  0  0  0  0  0  0  0
   38.4190   31.5160   36.5500 H   0  0  0  0  0  0  0  0  0  0  0  0
   34.3510   28.6260   39.8420 H   0  0  0  0  0  0  0  0  0  0  0  0
   33.4570   27.3270   37.8600 H   0  0  0  0  0  0  0  0  0  0  0  0
   36.9920   29.9370   35.3750 H   0  0  0  0  0  0  0  0  0  0  0  0
   38.6120   34.1570   40.2420 C   0  0  0  0  0  0  0  0  0  0  0  0
   39.9220   33.8360   40.5900 C   0  0  0  0  0  0  0  0  0  0  0  0
   40.4060   32.5820   40.2200 C   0  0  0  0  0  0  0  0  0  0  0  0
   39.5860   31.7240   39.5380 N   0  0  0  0  0  0  0  0  0  0  0  0
   38.3220   32.0720   39.2180 C   0  0  0  0  0  0  0  0  0  0  0  0
   37.8340   33.2820   39.5670 N   0  0  0  0  0  0  0  0  0  0  0  0
   38.2000   35.1210   40.5100 H   0  0  0  0  0  0  0  0  0  0  0  0
   40.5470   34.5200   41.1230 H   0  0  0  0  0  0  0  0  0  0  0  0
   41.4090   32.2790   40.4620 H   0  0  0  0  0  0  0  0  0  0  0  0
   36.2770   30.6350   40.9340 S   0  0  0  0  0  0  0  0  0  0  0  0
   36.8080   29.2180   41.8720 C   0  0  0  0  0  0  0  0  0  0  0  0
   36.4370   27.9260   41.6310 N   0  0  0  0  0  0  0  0  0  0  0  0
   37.0490   27.1460   42.5520 C   0  0  0  0  0  0  0  0  0  0  0  0
   36.8920   26.0770   42.5430 H   0  0  0  0  0  0  0  0  0  0  0  0
   37.7990   27.9320   43.3690 N   0  0  0  0  0  0  0  0  0  0  0  0
   38.3710   27.5690   44.1650 H   0  0  0  0  0  0  0  0  0  0  0  0
   37.6320   29.1510   42.9370 N   0  0  0  0  0  0  0  0  0  0  0  0
  1  2  1  0  0  0  0
  2  3  2  0  0  0  0
  2 18  1  0  0  0  0
  3 23  1  0  0  0  0
  4  5  1  0  0  0  0
  4  3  1  0  0  0  0
  5 11  1  0  0  0  0
  6 12  1  0  0  0  0
  6  5  1  0  0  0  0
  7  8  1  0  0  0  0
  7  6  2  0  0  0  0
  8  4  2  0  0  0  0
  9  1  2  0  0  0  0
  9  8  1  0  0  0  0
 10  1  1  0  0  0  0
 13  9  1  0  0  0  0
 14 20  1  0  0  0  0
 14 15  1  0  0  0  0
 15 21  1  0  0  0  0
 16 22  1  0  0  0  0
 16 15  2  0  0  0  0
 17 16  1  0  0  0  0
 18 17  2  0  0  0  0
 18 19  1  0  0  0  0
 19 14  2  0  0  0  0
 23 24  1  0  0  0  0
 24 30  2  0  0  0  0
 25 24  1  0  0  0  0
 25 26  2  0  0  0  0
 26 28  1  0  0  0  0
 27 26  1  0  0  0  0
 28 29  1  0  0  0  0
 30 28  1  0  0  0  0
M  END
>  <minimizedAffinity>
-5.19747305

$$$$

 OpenBabel03252509133D

 30 33  0  0  0  0  0  0  0  0999 V2000
   35.4590   27.9370   38.7000 C   0  0  0  0  0  0  0  0  0  0  0  0
   36.6010   28.6860   38.9770 C   0  0  0  0  0  0  0  0  0  0  0  0
   37.1980   29.5020   38.0560 C   0  0  0  0  0  0  0  0  0  0  0  0
   36.6440   29.5970   36.7690 C   0  0  0  0  0  0  0  0  0  0  0  0
   36.9570   30.2870   35.6370 N   0  0  0  0  0  0  0  0  0  0  0  0
   36.0530   29.9880   34.6830 C   0  0  0  0  0  0  0  0  0  0  0  0
   35.1870   29.1100   35.2460 N   0  0  0  0  0  0  0  0  0  0  0  0
   35.5260   28.8570   36.5150 C   0  0  0  0  0  0  0  0  0  0  0  0
   34.9030   28.0280   37.4220 C   0  0  0  0  0  0  0  0  0  0  0  0
   34.9710   27.2880   39.4120 H   0  0  0  0  0  0  0  0  0  0  0  0
   37.7870   30.9270   35.5940 H   0  0  0  0  0  0  0  0  0  0  0  0
   36.1570   30.4550   33.7140 H   0  0  0  0  0  0  0  0  0  0  0  0
   34.0260   27.4650   37.1790 H   0  0  0  0  0  0  0  0  0  0  0  0
   37.3290   29.3920   42.5110 C   0  0  0  0  0  0  0  0  0  0  0  0
   38.2920   28.4360   42.8240 C   0  0  0  0  0  0  0  0  0  0  0  0
   38.6840   27.5540   41.8180 C   0  0  0  0  0  0  0  0  0  0  0  0
   38.1160   27.6590   40.5760 N   0  0  0  0  0  0  0  0  0  0  0  0
   37.1860   28.6010   40.3120 C   0  0  0  0  0  0  0  0  0  0  0  0
   36.7920   29.4650   41.2730 N   0  0  0  0  0  0  0  0  0  0  0  0
   36.9980   30.0960   43.2640 H   0  0  0  0  0  0  0  0  0  0  0  0
   38.7240   28.3690   43.7980 H   0  0  0  0  0  0  0  0  0  0  0  0
   39.4230   26.7930   42.0000 H   0  0  0  0  0  0  0  0  0  0  0  0
   38.6520   30.4580   38.4180 S   0  0  0  0  0  0  0  0  0  0  0  0
   38.2780   32.0420   39.1380 C   0  0  0  0  0  0  0  0  0  0  0  0
   39.1980   32.9240   39.6300 N   0  0  0  0  0  0  0  0  0  0  0  0
   38.5260   34.0070   40.0850 C   0  0  0  0  0  0  0  0  0  0  0  0
   39.0660   34.8340   40.5200 H   0  0  0  0  0  0  0  0  0  0  0  0
   37.1940   33.8160   39.8860 N   0  0  0  0  0  0  0  0  0  0  0  0
   36.4580   34.5080   40.1530 H   0  0  0  0  0  0  0  0  0  0  0  0
   37.0860   32.6440   39.3240 N   0  0  0  0  0  0  0  0  0  0  0  0
  1  2  1  0  0  0  0
  1 10  1  0  0  0  0
  2 18  1  0  0  0  0
  3 23  1  0  0  0  0
  3  2  2  0  0  0  0
  4  3  1  0  0  0  0
  5  4  1  0  0  0  0
  6  7  2  0  0  0  0
  6  5  1  0  0  0  0
  7  8  1  0  0  0  0
  8  4  2  0  0  0  0
  8  9  1  0  0  0  0
  9  1  2  0  0  0  0
 11  5  1  0  0  0  0
 12  6  1  0  0  0  0
 13  9  1  0  0  0  0
 14 15  1  0  0  0  0
 14 20  1  0  0  0  0
 15 21  1  0  0  0  0
 16 22  1  0  0  0  0
 16 15  2  0  0  0  0
 17 16  1  0  0  0  0
 18 17  2  0  0  0  0
 18 19  1  0  0  0  0
 19 14  2  0  0  0  0
 23 24  1  0  0  0  0
 24 30  2  0  0  0  0
 24 25  1  0  0  0  0
 25 26  2  0  0  0  0
 26 27  1  0  0  0  0
 28 26  1  0  0  0  0
 28 29  1  0  0  0  0
 30 28  1  0  0  0  0
M  END
>  <minimizedAffinity>
-5.16367388

$$$$

 OpenBabel03252509133D

 30 33  0  0  0  0  0  0  0  0999 V2000
   36.5990   26.4490   39.4160 C   0  0  0  0  0  0  0  0  0  0  0  0
   36.2330   27.7880   39.2880 C   0  0  0  0  0  0  0  0  0  0  0  0
   36.2690   28.6730   40.3300 C   0  0  0  0  0  0  0  0  0  0  0  0
   36.6920   28.2240   41.5910 C   0  0  0  0  0  0  0  0  0  0  0  0
   36.8510   28.8040   42.8130 N   0  0  0  0  0  0  0  0  0  0  0  0
   37.2980   27.8730   43.6790 C   0  0  0  0  0  0  0  0  0  0  0  0
   37.4090   26.7220   42.9730 N   0  0  0  0  0  0  0  0  0  0  0  0
   37.0460   26.9110   41.6990 C   0  0  0  0  0  0  0  0  0  0  0  0
   37.0200   25.9980   40.6690 C   0  0  0  0  0  0  0  0  0  0  0  0
   36.5790   25.7340   38.6070 H   0  0  0  0  0  0  0  0  0  0  0  0
   36.6370   29.8190   42.9730 H   0  0  0  0  0  0  0  0  0  0  0  0
   37.4780   28.1710   44.7020 H   0  0  0  0  0  0  0  0  0  0  0  0
   37.3070   24.9740   40.7990 H   0  0  0  0  0  0  0  0  0  0  0  0
   36.3040   29.2270   35.9050 C   0  0  0  0  0  0  0  0  0  0  0  0
   34.9660   29.1780   35.5220 C   0  0  0  0  0  0  0  0  0  0  0  0
   34.0470   28.6510   36.4290 C   0  0  0  0  0  0  0  0  0  0  0  0
   34.4900   28.2060   37.6460 N   0  0  0  0  0  0  0  0  0  0  0  0
   35.7960   28.2700   37.9800 C   0  0  0  0  0  0  0  0  0  0  0  0
   36.7010   28.7780   37.1160 N   0  0  0  0  0  0  0  0  0  0  0  0
   37.0470   29.6300   35.2290 H   0  0  0  0  0  0  0  0  0  0  0  0
   34.6390   29.5300   34.5680 H   0  0  0  0  0  0  0  0  0  0  0  0
   33.0010   28.5870   36.1890 H   0  0  0  0  0  0  0  0  0  0  0  0
   35.8060   30.3810   40.1570 S   0  0  0  0  0  0  0  0  0  0  0  0
   37.1460   31.5010   40.5020 C   0  0  0  0  0  0  0  0  0  0  0  0
   38.3170   31.1660   41.1180 N   0  0  0  0  0  0  0  0  0  0  0  0
   39.0750   32.2850   41.1940 C   0  0  0  0  0  0  0  0  0  0  0  0
   40.0530   32.2450   41.6500 H   0  0  0  0  0  0  0  0  0  0  0  0
   38.3930   33.3190   40.6340 N   0  0  0  0  0  0  0  0  0  0  0  0
   38.7620   34.2950   40.5670 H   0  0  0  0  0  0  0  0  0  0  0  0
   37.2570   32.8180   40.2350 N   0  0  0  0  0  0  0  0  0  0  0  0
  1  9  1  0  0  0  0
  2  1  2  0  0  0  0
  2  3  1  0  0  0  0
  3  4  2  0  0  0  0
  4  8  1  0  0  0  0
  4  5  1  0  0  0  0
  5 11  1  0  0  0  0
  5  6  1  0  0  0  0
  6 12  1  0  0  0  0
  7  6  2  0  0  0  0
  8  7  1  0  0  0  0
  9 13  1  0  0  0  0
  9  8  2  0  0  0  0
 10  1  1  0  0  0  0
 14 19  1  0  0  0  0
 15 14  2  0  0  0  0
 15 16  1  0  0  0  0
 16 17  2  0  0  0  0
 17 18  1  0  0  0  0
 18  2  1  0  0  0  0
 19 18  2  0  0  0  0
 20 14  1  0  0  0  0
 21 15  1  0  0  0  0
 22 16  1  0  0  0  0
 23  3  1  0  0  0  0
 23 24  1  0  0  0  0
 24 25  1  0  0  0  0
 25 26  2  0  0  0  0
 26 27  1  0  0  0  0
 28 26  1  0  0  0  0
 29 28  1  0  0  0  0
 30 24  2  0  0  0  0
 30 28  1  0  0  0  0
M  END
>  <minimizedAffinity>
-5.07492399

$$$$

 OpenBabel03252509133D

 30 33  0  0  0  0  0  0  0  0999 V2000
   35.1120   28.6010   39.4300 C   0  0  0  0  0  0  0  0  0  0  0  0
   36.4880   28.7140   39.6140 C   0  0  0  0  0  0  0  0  0  0  0  0
   37.3490   29.0510   38.6060 C   0  0  0  0  0  0  0  0  0  0  0  0
   36.8340   29.2960   37.3230 C   0  0  0  0  0  0  0  0  0  0  0  0
   37.3730   29.6460   36.1220 N   0  0  0  0  0  0  0  0  0  0  0  0
   36.3810   29.7490   35.2150 C   0  0  0  0  0  0  0  0  0  0  0  0
   35.2350   29.4590   35.8760 N   0  0  0  0  0  0  0  0  0  0  0  0
   35.4840   29.1800   37.1610 C   0  0  0  0  0  0  0  0  0  0  0  0
   34.5940   28.8440   38.1550 C   0  0  0  0  0  0  0  0  0  0  0  0
   34.4150   28.3370   40.2110 H   0  0  0  0  0  0  0  0  0  0  0  0
   38.4060   29.7910   36.0030 H   0  0  0  0  0  0  0  0  0  0  0  0
   36.6400   30.0210   34.2020 H   0  0  0  0  0  0  0  0  0  0  0  0
   33.5400   28.7640   37.9820 H   0  0  0  0  0  0  0  0  0  0  0  0
   37.7920   26.9620   42.5720 C   0  0  0  0  0  0  0  0  0  0  0  0
   38.0720   28.0070   43.4490 C   0  0  0  0  0  0  0  0  0  0  0  0
   37.8120   29.3070   43.0190 C   0  0  0  0  0  0  0  0  0  0  0  0
   37.2970   29.5060   41.7650 N   0  0  0  0  0  0  0  0  0  0  0  0
   37.0380   28.4660   40.9440 C   0  0  0  0  0  0  0  0  0  0  0  0
   37.2830   27.1990   41.3420 N   0  0  0  0  0  0  0  0  0  0  0  0
   37.9800   25.9380   42.8690 H   0  0  0  0  0  0  0  0  0  0  0  0
   38.4740   27.8320   44.4240 H   0  0  0  0  0  0  0  0  0  0  0  0
   38.0080   30.1540   43.6520 H   0  0  0  0  0  0  0  0  0  0  0  0
   39.1040   29.1990   38.8490 S   0  0  0  0  0  0  0  0  0  0  0  0
   39.7170   30.8340   38.5040 C   0  0  0  0  0  0  0  0  0  0  0  0
   40.3410   31.6500   39.4030 N   0  0  0  0  0  0  0  0  0  0  0  0
   40.6580   32.7990   38.7620 C   0  0  0  0  0  0  0  0  0  0  0  0
   41.1640   33.5920   39.2930 H   0  0  0  0  0  0  0  0  0  0  0  0
   40.2390   32.7150   37.4710 N   0  0  0  0  0  0  0  0  0  0  0  0
   40.3650   33.4760   36.7640 H   0  0  0  0  0  0  0  0  0  0  0  0
   39.6880   31.5390   37.3550 N   0  0  0  0  0  0  0  0  0  0  0  0
  1  2  1  0  0  0  0
  1 10  1  0  0  0  0
  2 18  1  0  0  0  0
  3 23  1  0  0  0  0
  3  2  2  0  0  0  0
  4  3  1  0  0  0  0
  5  4  1  0  0  0  0
  6  7  2  0  0  0  0
  6  5  1  0  0  0  0
  7  8  1  0  0  0  0
  8  4  2  0  0  0  0
  8  9  1  0  0  0  0
  9  1  2  0  0  0  0
 11  5  1  0  0  0  0
 12  6  1  0  0  0  0
 13  9  1  0  0  0  0
 14 20  1  0  0  0  0
 14 15  1  0  0  0  0
 15 21  1  0  0  0  0
 16 15  2  0  0  0  0
 16 22  1  0  0  0  0
 17 16  1  0  0  0  0
 18 19  1  0  0  0  0
 18 17  2  0  0  0  0
 19 14  2  0  0  0  0
 24 23  1  0  0  0  0
 24 25  1  0  0  0  0
 26 27  1  0  0  0  0
 26 25  2  0  0  0  0
 28 26  1  0  0  0  0
 29 28  1  0  0  0  0
 30 28  1  0  0  0  0
 30 24  2  0  0  0  0
M  END
>  <minimizedAffinity>
-4.97690487

$$$$
