
 OpenBabel03242511033D

 44 47  0  0  0  0  0  0  0  0999 V2000
   40.1810   33.7210   40.3750 C   0  0  0  0  0  0  0  0  0  0  0  0
   39.3820   34.8390   40.0830 C   0  0  0  0  0  0  0  0  0  0  0  0
   38.0450   34.7560   39.7690 C   0  0  0  0  0  0  0  0  0  0  0  0
   37.4810   33.5060   39.7430 C   0  0  0  0  0  0  0  0  0  0  0  0
   38.2680   32.3950   40.0320 C   0  0  0  0  0  0  0  0  0  0  0  0
   39.5550   32.5410   40.3300 N   0  0  0  0  0  0  0  0  0  0  0  0
   39.8520   35.8130   40.1100 H   0  0  0  0  0  0  0  0  0  0  0  0
   37.4630   35.6410   39.5500 H   0  0  0  0  0  0  0  0  0  0  0  0
   36.4300   33.4640   39.4940 H   0  0  0  0  0  0  0  0  0  0  0  0
   44.9310   36.0320   43.2970 C   0  0  0  0  0  0  0  0  0  0  0  0
   45.9430   35.4490   42.5030 C   0  0  0  0  0  0  0  0  0  0  0  0
   45.5430   34.6850   41.3970 C   0  0  0  0  0  0  0  0  0  0  0  0
   44.2140   34.5270   41.1190 N   0  0  0  0  0  0  0  0  0  0  0  0
   43.2840   35.1170   41.9280 C   0  0  0  0  0  0  0  0  0  0  0  0
   43.6500   35.8620   43.0080 N   0  0  0  0  0  0  0  0  0  0  0  0
   41.5880   33.9160   40.6970 C   0  0  0  0  0  0  0  0  0  0  0  0
   42.4270   33.1630   40.1300 O   0  0  0  0  0  0  0  0  0  0  0  0
   41.9060   34.9440   41.6280 N   0  0  0  0  0  0  0  0  0  0  0  0
   45.2420   36.6180   44.1460 H   0  0  0  0  0  0  0  0  0  0  0  0
   46.9840   35.5940   42.7500 H   0  0  0  0  0  0  0  0  0  0  0  0
   46.3060   34.2270   40.7720 H   0  0  0  0  0  0  0  0  0  0  0  0
   41.2080   35.5470   42.0810 H   0  0  0  0  0  0  0  0  0  0  0  0
   37.6560   31.0800   40.0020 C   0  0  0  0  0  3  0  0  0  0  0  0
   36.7820   30.7330   40.9070 C   0  0  0  0  0  3  0  0  0  0  0  0
   36.0640   29.4240   41.0160 C   0  0  0  0  0  0  0  0  0  0  0  0
   35.8230   29.0460   39.9940 H   0  0  0  0  0  0  0  0  0  0  0  0
   35.1080   29.6670   41.4720 H   0  0  0  0  0  0  0  0  0  0  0  0
   36.3720   26.8070   39.6580 Cl  0  0  0  0  0  0  0  0  0  0  0  0
   37.0250   27.1960   41.2470 C   0  0  0  0  0  0  0  0  0  0  0  0
   36.8410   28.4470   41.8190 C   0  0  0  0  0  0  0  0  0  0  0  0
   37.3520   28.7540   43.0640 C   0  0  0  0  0  0  0  0  0  0  0  0
   38.0760   27.7740   43.7650 C   0  0  0  0  0  0  0  0  0  0  0  0
   38.2530   26.5300   43.1820 C   0  0  0  0  0  0  0  0  0  0  0  0
   37.7350   26.2290   41.9300 C   0  0  0  0  0  0  0  0  0  0  0  0
   37.1890   29.7210   43.4710 H   0  0  0  0  0  0  0  0  0  0  0  0
   38.4860   27.9840   44.7360 H   0  0  0  0  0  0  0  0  0  0  0  0
   38.8090   25.7800   43.7210 H   0  0  0  0  0  0  0  0  0  0  0  0
   37.9440   24.9230   41.3600 C   0  0  0  0  0  0  0  0  0  0  0  0
   38.8400   24.5990   40.4260 N   0  0  0  0  0  0  0  0  0  0  0  0
   38.7500   23.2870   40.1370 C   0  0  0  0  0  0  0  0  0  0  0  0
   39.2960   22.6500   39.4420 H   0  0  0  0  0  0  0  0  0  0  0  0
   37.7640   22.8380   40.9360 N   0  0  0  0  0  0  0  0  0  0  0  0
   37.3510   21.8750   41.0490 H   0  0  0  0  0  0  0  0  0  0  0  0
   37.2620   23.8000   41.6820 N   0  0  0  0  0  0  0  0  0  0  0  0
  1 16  1  0  0  0  0
  2  7  1  0  0  0  0
  2  1  2  0  0  0  0
  3  2  1  0  0  0  0
  4  3  2  0  0  0  0
  4  5  1  0  0  0  0
  5  6  2  0  0  0  0
  6  1  1  0  0  0  0
  8  3  1  0  0  0  0
  9  4  1  0  0  0  0
 10 19  1  0  0  0  0
 11 20  1  0  0  0  0
 11 10  2  0  0  0  0
 12 11  1  0  0  0  0
 13 12  2  0  0  0  0
 13 14  1  0  0  0  0
 14 15  2  0  0  0  0
 15 10  1  0  0  0  0
 16 18  1  0  0  0  0
 17 16  2  0  0  0  0
 18 14  1  0  0  0  0
 18 22  1  0  0  0  0
 21 12  1  0  0  0  0
 23  5  1  0  0  0  0
 23 24  2  0  0  0  0
 24 25  1  0  0  0  0
 25 27  1  0  0  0  0
 25 30  1  0  0  0  0
 26 25  1  0  0  0  0
 28 29  1  0  0  0  0
 29 30  2  0  0  0  0
 29 34  1  0  0  0  0
 30 31  1  0  0  0  0
 31 35  1  0  0  0  0
 31 32  2  0  0  0  0
 32 36  1  0  0  0  0
 33 37  1  0  0  0  0
 33 32  1  0  0  0  0
 34 33  2  0  0  0  0
 38 44  2  0  0  0  0
 38 34  1  0  0  0  0
 39 38  1  0  0  0  0
 40 39  2  0  0  0  0
 40 42  1  0  0  0  0
 41 40  1  0  0  0  0
 42 43  1  0  0  0  0
 42 44  1  0  0  0  0
M  END
>  <minimizedAffinity>
-7.65791559

$$$$

 OpenBabel03242511033D

 44 47  0  0  0  0  0  0  0  0999 V2000
   39.4810   32.1830   40.2670 C   0  0  0  0  0  0  0  0  0  0  0  0
   38.5960   32.7640   39.3420 C   0  0  0  0  0  0  0  0  0  0  0  0
   37.2580   32.4500   39.2720 C   0  0  0  0  0  0  0  0  0  0  0  0
   36.7830   31.5190   40.1590 C   0  0  0  0  0  0  0  0  0  0  0  0
   37.6540   30.9400   41.0770 C   0  0  0  0  0  0  0  0  0  0  0  0
   38.9380   31.2870   41.0950 N   0  0  0  0  0  0  0  0  0  0  0  0
   38.9970   33.4950   38.6540 H   0  0  0  0  0  0  0  0  0  0  0  0
   36.6090   32.9200   38.5450 H   0  0  0  0  0  0  0  0  0  0  0  0
   35.7290   31.2870   40.0860 H   0  0  0  0  0  0  0  0  0  0  0  0
   44.3930   35.1980   42.0630 C   0  0  0  0  0  0  0  0  0  0  0  0
   45.2680   34.7570   41.0450 C   0  0  0  0  0  0  0  0  0  0  0  0
   44.7370   33.9290   40.0450 C   0  0  0  0  0  0  0  0  0  0  0  0
   43.4170   33.5750   40.0780 N   0  0  0  0  0  0  0  0  0  0  0  0
   42.6240   34.0350   41.0910 C   0  0  0  0  0  0  0  0  0  0  0  0
   43.1180   34.8410   42.0730 N   0  0  0  0  0  0  0  0  0  0  0  0
   40.8810   32.5850   40.2600 C   0  0  0  0  0  0  0  0  0  0  0  0
   41.6660   31.9540   39.4990 O   0  0  0  0  0  0  0  0  0  0  0  0
   41.2530   33.6610   41.1140 N   0  0  0  0  0  0  0  0  0  0  0  0
   44.8040   35.8340   42.8290 H   0  0  0  0  0  0  0  0  0  0  0  0
   46.3050   35.0550   41.0490 H   0  0  0  0  0  0  0  0  0  0  0  0
   45.3930   33.5780   39.2520 H   0  0  0  0  0  0  0  0  0  0  0  0
   40.6000   34.1620   41.7270 H   0  0  0  0  0  0  0  0  0  0  0  0
   37.1360   29.9580   42.0090 C   0  0  0  0  0  3  0  0  0  0  0  0
   37.2750   28.6810   41.7740 C   0  0  0  0  0  3  0  0  0  0  0  0
   36.8010   27.5480   42.6290 C   0  0  0  0  0  0  0  0  0  0  0  0
   35.6990   27.4220   42.5030 H   0  0  0  0  0  0  0  0  0  0  0  0
   36.9420   27.8920   43.6510 H   0  0  0  0  0  0  0  0  0  0  0  0
   39.7190   27.8490   43.0550 Cl  0  0  0  0  0  0  0  0  0  0  0  0
   38.9310   26.3670   42.5200 C   0  0  0  0  0  0  0  0  0  0  0  0
   37.5560   26.3020   42.3440 C   0  0  0  0  0  0  0  0  0  0  0  0
   36.9350   25.1420   41.9250 C   0  0  0  0  0  0  0  0  0  0  0  0
   37.7180   24.0020   41.6730 C   0  0  0  0  0  0  0  0  0  0  0  0
   39.0900   24.0810   41.8540 C   0  0  0  0  0  0  0  0  0  0  0  0
   39.7060   25.2520   42.2750 C   0  0  0  0  0  0  0  0  0  0  0  0
   35.8810   25.1300   41.8000 H   0  0  0  0  0  0  0  0  0  0  0  0
   37.2640   23.0850   41.3460 H   0  0  0  0  0  0  0  0  0  0  0  0
   39.6880   23.2060   41.6600 H   0  0  0  0  0  0  0  0  0  0  0  0
   41.1340   25.2900   42.4510 C   0  0  0  0  0  0  0  0  0  0  0  0
   41.7890   25.3530   43.6110 N   0  0  0  0  0  0  0  0  0  0  0  0
   43.1170   25.3710   43.3910 C   0  0  0  0  0  0  0  0  0  0  0  0
   43.9720   25.4180   44.0640 H   0  0  0  0  0  0  0  0  0  0  0  0
   43.2310   25.3140   42.0510 N   0  0  0  0  0  0  0  0  0  0  0  0
   44.0830   25.3050   41.4300 H   0  0  0  0  0  0  0  0  0  0  0  0
   42.0550   25.2640   41.4600 N   0  0  0  0  0  0  0  0  0  0  0  0
  1  6  1  0  0  0  0
  2  1  2  0  0  0  0
  3  2  1  0  0  0  0
  3  4  2  0  0  0  0
  4  5  1  0  0  0  0
  5  6  2  0  0  0  0
  5 23  1  0  0  0  0
  7  2  1  0  0  0  0
  8  3  1  0  0  0  0
  9  4  1  0  0  0  0
 10 15  1  0  0  0  0
 10 19  1  0  0  0  0
 11 20  1  0  0  0  0
 11 10  2  0  0  0  0
 12 13  2  0  0  0  0
 12 11  1  0  0  0  0
 13 14  1  0  0  0  0
 14 18  1  0  0  0  0
 14 15  2  0  0  0  0
 16  1  1  0  0  0  0
 16 18  1  0  0  0  0
 17 16  2  0  0  0  0
 18 22  1  0  0  0  0
 21 12  1  0  0  0  0
 24 23  2  0  0  0  0
 24 25  1  0  0  0  0
 25 27  1  0  0  0  0
 26 25  1  0  0  0  0
 29 28  1  0  0  0  0
 30 29  1  0  0  0  0
 30 25  1  0  0  0  0
 31 30  2  0  0  0  0
 32 33  2  0  0  0  0
 32 31  1  0  0  0  0
 33 34  1  0  0  0  0
 34 38  1  0  0  0  0
 34 29  2  0  0  0  0
 35 31  1  0  0  0  0
 36 32  1  0  0  0  0
 37 33  1  0  0  0  0
 38 39  1  0  0  0  0
 40 39  2  0  0  0  0
 40 41  1  0  0  0  0
 42 40  1  0  0  0  0
 43 42  1  0  0  0  0
 44 42  1  0  0  0  0
 44 38  2  0  0  0  0
M  END
>  <minimizedAffinity>
-7.15642309

$$$$

 OpenBabel03242511033D

 44 47  0  0  0  0  0  0  0  0999 V2000
   40.6760   33.4800   38.9570 C   0  0  0  0  0  0  0  0  0  0  0  0
   40.7010   34.7590   39.5400 C   0  0  0  0  0  0  0  0  0  0  0  0
   39.6500   35.2890   40.2520 C   0  0  0  0  0  0  0  0  0  0  0  0
   38.5270   34.5120   40.3900 C   0  0  0  0  0  0  0  0  0  0  0  0
   38.4980   33.2450   39.8160 C   0  0  0  0  0  0  0  0  0  0  0  0
   39.5480   32.7880   39.1400 N   0  0  0  0  0  0  0  0  0  0  0  0
   41.5970   35.3500   39.4160 H   0  0  0  0  0  0  0  0  0  0  0  0
   39.7070   36.2780   40.6850 H   0  0  0  0  0  0  0  0  0  0  0  0
   37.7140   34.9480   40.9540 H   0  0  0  0  0  0  0  0  0  0  0  0
   43.8260   29.9030   35.2520 C   0  0  0  0  0  0  0  0  0  0  0  0
   45.0950   30.4870   35.4590 C   0  0  0  0  0  0  0  0  0  0  0  0
   45.1870   31.5250   36.3990 C   0  0  0  0  0  0  0  0  0  0  0  0
   44.0740   31.9370   37.0760 N   0  0  0  0  0  0  0  0  0  0  0  0
   42.8750   31.3300   36.8280 C   0  0  0  0  0  0  0  0  0  0  0  0
   42.7620   30.3210   35.9200 N   0  0  0  0  0  0  0  0  0  0  0  0
   41.8430   33.0110   38.2230 C   0  0  0  0  0  0  0  0  0  0  0  0
   42.8760   33.7350   38.2430 O   0  0  0  0  0  0  0  0  0  0  0  0
   41.7250   31.7690   37.5380 N   0  0  0  0  0  0  0  0  0  0  0  0
   43.7580   29.1060   34.5300 H   0  0  0  0  0  0  0  0  0  0  0  0
   45.9540   30.1380   34.9080 H   0  0  0  0  0  0  0  0  0  0  0  0
   46.1560   31.9890   36.5740 H   0  0  0  0  0  0  0  0  0  0  0  0
   40.8740   31.1930   37.5330 H   0  0  0  0  0  0  0  0  0  0  0  0
   37.3050   32.4350   39.9720 C   0  0  0  0  0  3  0  0  0  0  0  0
   37.2920   31.4210   40.7940 C   0  0  0  0  0  3  0  0  0  0  0  0
   36.1500   30.4940   41.0680 C   0  0  0  0  0  0  0  0  0  0  0  0
   35.1880   31.0060   40.8260 H   0  0  0  0  0  0  0  0  0  0  0  0
   36.1490   30.3630   42.1470 H   0  0  0  0  0  0  0  0  0  0  0  0
   37.3450   28.3680   42.7530 Cl  0  0  0  0  0  0  0  0  0  0  0  0
   36.8670   28.1640   41.0700 C   0  0  0  0  0  0  0  0  0  0  0  0
   36.3110   29.2080   40.3430 C   0  0  0  0  0  0  0  0  0  0  0  0
   35.9350   29.0510   39.0250 C   0  0  0  0  0  0  0  0  0  0  0  0
   36.1210   27.8020   38.4060 C   0  0  0  0  0  0  0  0  0  0  0  0
   36.6760   26.7680   39.1430 C   0  0  0  0  0  0  0  0  0  0  0  0
   37.0520   26.9350   40.4690 C   0  0  0  0  0  0  0  0  0  0  0  0
   35.5150   29.8730   38.5000 H   0  0  0  0  0  0  0  0  0  0  0  0
   35.8380   27.6490   37.3820 H   0  0  0  0  0  0  0  0  0  0  0  0
   36.8180   25.8120   38.6670 H   0  0  0  0  0  0  0  0  0  0  0  0
   37.6250   25.8330   41.1990 C   0  0  0  0  0  0  0  0  0  0  0  0
   38.9240   25.5820   41.3650 N   0  0  0  0  0  0  0  0  0  0  0  0
   39.0880   24.4690   42.1030 C   0  0  0  0  0  0  0  0  0  0  0  0
   39.9760   23.9430   42.4510 H   0  0  0  0  0  0  0  0  0  0  0  0
   37.8330   24.0630   42.3740 N   0  0  0  0  0  0  0  0  0  0  0  0
   37.4770   23.2360   42.9220 H   0  0  0  0  0  0  0  0  0  0  0  0
   36.9330   24.8650   41.8420 N   0  0  0  0  0  0  0  0  0  0  0  0
  1  6  2  0  0  0  0
  1  2  1  0  0  0  0
  2  3  2  0  0  0  0
  3  4  1  0  0  0  0
  3  8  1  0  0  0  0
  4  9  1  0  0  0  0
  5 23  1  0  0  0  0
  5  4  2  0  0  0  0
  6  5  1  0  0  0  0
  7  2  1  0  0  0  0
 10 11  2  0  0  0  0
 10 15  1  0  0  0  0
 11 12  1  0  0  0  0
 12 21  1  0  0  0  0
 12 13  2  0  0  0  0
 14 13  1  0  0  0  0
 14 18  1  0  0  0  0
 15 14  2  0  0  0  0
 16 17  2  0  0  0  0
 16  1  1  0  0  0  0
 18 16  1  0  0  0  0
 19 10  1  0  0  0  0
 20 11  1  0  0  0  0
 22 18  1  0  0  0  0
 23 24  2  0  0  0  0
 24 25  1  0  0  0  0
 25 27  1  0  0  0  0
 26 25  1  0  0  0  0
 29 28  1  0  0  0  0
 30 25  1  0  0  0  0
 30 29  2  0  0  0  0
 31 30  1  0  0  0  0
 32 31  2  0  0  0  0
 32 33  1  0  0  0  0
 33 34  2  0  0  0  0
 34 29  1  0  0  0  0
 34 38  1  0  0  0  0
 35 31  1  0  0  0  0
 36 32  1  0  0  0  0
 37 33  1  0  0  0  0
 38 39  1  0  0  0  0
 38 44  2  0  0  0  0
 39 40  2  0  0  0  0
 40 42  1  0  0  0  0
 40 41  1  0  0  0  0
 42 43  1  0  0  0  0
 44 42  1  0  0  0  0
M  END
>  <minimizedAffinity>
-7.0751276

$$$$

 OpenBabel03242511033D

 44 47  0  0  0  0  0  0  0  0999 V2000
   39.6020   33.5360   40.5430 C   0  0  0  0  0  0  0  0  0  0  0  0
   38.7590   34.4160   39.8430 C   0  0  0  0  0  0  0  0  0  0  0  0
   37.4630   34.1100   39.4950 C   0  0  0  0  0  0  0  0  0  0  0  0
   36.9880   32.8760   39.8590 C   0  0  0  0  0  0  0  0  0  0  0  0
   37.8190   32.0010   40.5530 C   0  0  0  0  0  0  0  0  0  0  0  0
   39.0620   32.3560   40.8610 N   0  0  0  0  0  0  0  0  0  0  0  0
   39.1580   35.3820   39.5680 H   0  0  0  0  0  0  0  0  0  0  0  0
   36.8450   34.8150   38.9550 H   0  0  0  0  0  0  0  0  0  0  0  0
   35.9680   32.6560   39.5760 H   0  0  0  0  0  0  0  0  0  0  0  0
   45.2470   32.9520   42.6000 C   0  0  0  0  0  0  0  0  0  0  0  0
   45.6340   34.3040   42.4760 C   0  0  0  0  0  0  0  0  0  0  0  0
   44.6660   35.2210   42.0390 C   0  0  0  0  0  0  0  0  0  0  0  0
   43.4000   34.7940   41.7510 N   0  0  0  0  0  0  0  0  0  0  0  0
   43.0900   33.4700   41.8920 C   0  0  0  0  0  0  0  0  0  0  0  0
   44.0140   32.5630   42.3140 N   0  0  0  0  0  0  0  0  0  0  0  0
   40.9580   33.9570   40.8650 C   0  0  0  0  0  0  0  0  0  0  0  0
   41.3210   35.1030   40.4810 O   0  0  0  0  0  0  0  0  0  0  0  0
   41.7700   33.0390   41.5890 N   0  0  0  0  0  0  0  0  0  0  0  0
   45.9940   32.2510   42.9350 H   0  0  0  0  0  0  0  0  0  0  0  0
   46.6430   34.6080   42.7110 H   0  0  0  0  0  0  0  0  0  0  0  0
   44.9430   36.2670   41.9370 H   0  0  0  0  0  0  0  0  0  0  0  0
   41.4570   32.1090   41.8930 H   0  0  0  0  0  0  0  0  0  0  0  0
   37.3010   30.7000   40.9320 C   0  0  0  0  0  3  0  0  0  0  0  0
   36.1390   30.2950   40.4980 C   0  0  0  0  0  3  0  0  0  0  0  0
   35.4680   28.9900   40.7940 C   0  0  0  0  0  0  0  0  0  0  0  0
   34.4190   29.0160   40.4130 H   0  0  0  0  0  0  0  0  0  0  0  0
   35.3860   28.9580   41.8770 H   0  0  0  0  0  0  0  0  0  0  0  0
   37.0050   27.5540   42.8820 Cl  0  0  0  0  0  0  0  0  0  0  0  0
   36.9920   27.1260   41.1740 C   0  0  0  0  0  0  0  0  0  0  0  0
   36.2450   27.8470   40.2520 C   0  0  0  0  0  0  0  0  0  0  0  0
   36.2330   27.5140   38.9130 C   0  0  0  0  0  0  0  0  0  0  0  0
   36.9970   26.4170   38.4760 C   0  0  0  0  0  0  0  0  0  0  0  0
   37.7370   25.7060   39.4060 C   0  0  0  0  0  0  0  0  0  0  0  0
   37.7440   26.0480   40.7510 C   0  0  0  0  0  0  0  0  0  0  0  0
   35.6510   28.0890   38.2370 H   0  0  0  0  0  0  0  0  0  0  0  0
   37.0080   26.1340   37.4400 H   0  0  0  0  0  0  0  0  0  0  0  0
   38.3220   24.8660   39.0680 H   0  0  0  0  0  0  0  0  0  0  0  0
   38.5280   25.2810   41.6850 C   0  0  0  0  0  0  0  0  0  0  0  0
   39.7690   25.5530   42.0900 N   0  0  0  0  0  0  0  0  0  0  0  0
   40.1830   24.6190   42.9660 C   0  0  0  0  0  0  0  0  0  0  0  0
   41.1160   24.4880   43.5130 H   0  0  0  0  0  0  0  0  0  0  0  0
   39.1390   23.7760   43.0700 N   0  0  0  0  0  0  0  0  0  0  0  0
   39.0130   22.9000   43.6420 H   0  0  0  0  0  0  0  0  0  0  0  0
   38.1300   24.1500   42.3110 N   0  0  0  0  0  0  0  0  0  0  0  0
  1  6  1  0  0  0  0
  1 16  1  0  0  0  0
  2  1  2  0  0  0  0
  3  2  1  0  0  0  0
  3  4  2  0  0  0  0
  4  5  1  0  0  0  0
  5  6  2  0  0  0  0
  5 23  1  0  0  0  0
  7  2  1  0  0  0  0
  8  3  1  0  0  0  0
  9  4  1  0  0  0  0
 10 19  1  0  0  0  0
 11 10  1  0  0  0  0
 11 20  1  0  0  0  0
 12 11  2  0  0  0  0
 13 14  2  0  0  0  0
 13 12  1  0  0  0  0
 14 15  1  0  0  0  0
 15 10  2  0  0  0  0
 16 18  1  0  0  0  0
 17 16  2  0  0  0  0
 18 14  1  0  0  0  0
 18 22  1  0  0  0  0
 21 12  1  0  0  0  0
 24 25  1  0  0  0  0
 24 23  2  0  0  0  0
 25 27  1  0  0  0  0
 26 25  1  0  0  0  0
 29 28  1  0  0  0  0
 30 25  1  0  0  0  0
 30 29  2  0  0  0  0
 31 30  1  0  0  0  0
 32 31  2  0  0  0  0
 32 33  1  0  0  0  0
 33 34  2  0  0  0  0
 34 29  1  0  0  0  0
 34 38  1  0  0  0  0
 35 31  1  0  0  0  0
 36 32  1  0  0  0  0
 37 33  1  0  0  0  0
 38 39  1  0  0  0  0
 38 44  2  0  0  0  0
 39 40  2  0  0  0  0
 40 42  1  0  0  0  0
 40 41  1  0  0  0  0
 42 43  1  0  0  0  0
 44 42  1  0  0  0  0
M  END
>  <minimizedAffinity>
-6.93887186

$$$$

 OpenBabel03242511033D

 44 47  0  0  0  0  0  0  0  0999 V2000
   38.4720   29.7940   41.8140 C   0  0  0  0  0  0  0  0  0  0  0  0
   38.2640   29.4090   43.1490 C   0  0  0  0  0  0  0  0  0  0  0  0
   37.6160   28.2510   43.5140 C   0  0  0  0  0  0  0  0  0  0  0  0
   37.1550   27.4440   42.5050 C   0  0  0  0  0  0  0  0  0  0  0  0
   37.3580   27.8200   41.1810 C   0  0  0  0  0  0  0  0  0  0  0  0
   37.9930   28.9510   40.8930 N   0  0  0  0  0  0  0  0  0  0  0  0
   38.6370   30.0630   43.9250 H   0  0  0  0  0  0  0  0  0  0  0  0
   37.4750   27.9900   44.5540 H   0  0  0  0  0  0  0  0  0  0  0  0
   36.6490   26.5390   42.8140 H   0  0  0  0  0  0  0  0  0  0  0  0
   39.0670   35.5610   40.1320 C   0  0  0  0  0  0  0  0  0  0  0  0
   40.4770   35.6220   40.1620 C   0  0  0  0  0  0  0  0  0  0  0  0
   41.1730   34.4410   40.4640 C   0  0  0  0  0  0  0  0  0  0  0  0
   40.4860   33.2870   40.7160 N   0  0  0  0  0  0  0  0  0  0  0  0
   39.1200   33.2960   40.6720 C   0  0  0  0  0  0  0  0  0  0  0  0
   38.4240   34.4310   40.3820 N   0  0  0  0  0  0  0  0  0  0  0  0
   39.1710   31.0400   41.5330 C   0  0  0  0  0  0  0  0  0  0  0  0
   40.3950   31.1040   41.8370 O   0  0  0  0  0  0  0  0  0  0  0  0
   38.4170   32.0890   40.9370 N   0  0  0  0  0  0  0  0  0  0  0  0
   38.5360   36.4700   39.9010 H   0  0  0  0  0  0  0  0  0  0  0  0
   40.9900   36.5500   39.9580 H   0  0  0  0  0  0  0  0  0  0  0  0
   42.2600   34.4660   40.4920 H   0  0  0  0  0  0  0  0  0  0  0  0
   37.4210   32.0190   40.6970 H   0  0  0  0  0  0  0  0  0  0  0  0
   36.8660   26.9540   40.1260 C   0  0  0  0  0  3  0  0  0  0  0  0
   36.3650   27.4600   39.0320 C   0  0  0  0  0  3  0  0  0  0  0  0
   35.8180   26.7100   37.8580 C   0  0  0  0  0  0  0  0  0  0  0  0
   35.2230   25.8370   38.2170 H   0  0  0  0  0  0  0  0  0  0  0  0
   36.6910   26.2870   37.3660 H   0  0  0  0  0  0  0  0  0  0  0  0
   37.5020   28.0200   35.7990 Cl  0  0  0  0  0  0  0  0  0  0  0  0
   35.7640   28.2520   35.9700 C   0  0  0  0  0  0  0  0  0  0  0  0
   35.0410   27.6010   36.9600 C   0  0  0  0  0  0  0  0  0  0  0  0
   33.6790   27.7810   37.0960 C   0  0  0  0  0  0  0  0  0  0  0  0
   33.0130   28.6430   36.2080 C   0  0  0  0  0  0  0  0  0  0  0  0
   33.7470   29.2850   35.2240 C   0  0  0  0  0  0  0  0  0  0  0  0
   35.1160   29.0990   35.0950 C   0  0  0  0  0  0  0  0  0  0  0  0
   33.1590   27.2680   37.8670 H   0  0  0  0  0  0  0  0  0  0  0  0
   31.9540   28.8030   36.2890 H   0  0  0  0  0  0  0  0  0  0  0  0
   33.2340   29.9460   34.5440 H   0  0  0  0  0  0  0  0  0  0  0  0
   35.8400   29.7860   34.0560 C   0  0  0  0  0  0  0  0  0  0  0  0
   36.0590   31.1000   33.9780 N   0  0  0  0  0  0  0  0  0  0  0  0
   36.7730   31.3830   32.8730 C   0  0  0  0  0  0  0  0  0  0  0  0
   37.1470   32.3190   32.4600 H   0  0  0  0  0  0  0  0  0  0  0  0
   36.9750   30.1850   32.2920 N   0  0  0  0  0  0  0  0  0  0  0  0
   37.4830   29.9230   31.4060 H   0  0  0  0  0  0  0  0  0  0  0  0
   36.4240   29.2070   32.9830 N   0  0  0  0  0  0  0  0  0  0  0  0
  1  2  1  0  0  0  0
  2  3  2  0  0  0  0
  2  7  1  0  0  0  0
  3  8  1  0  0  0  0
  4  9  1  0  0  0  0
  4  3  1  0  0  0  0
  5  4  2  0  0  0  0
  6  5  1  0  0  0  0
  6  1  2  0  0  0  0
 10 11  2  0  0  0  0
 10 15  1  0  0  0  0
 11 12  1  0  0  0  0
 12 21  1  0  0  0  0
 12 13  2  0  0  0  0
 14 13  1  0  0  0  0
 14 18  1  0  0  0  0
 15 14  2  0  0  0  0
 16  1  1  0  0  0  0
 16 17  2  0  0  0  0
 18 16  1  0  0  0  0
 19 10  1  0  0  0  0
 20 11  1  0  0  0  0
 22 18  1  0  0  0  0
 23  5  1  0  0  0  0
 24 23  2  0  0  0  0
 25 26  1  0  0  0  0
 25 24  1  0  0  0  0
 27 25  1  0  0  0  0
 28 29  1  0  0  0  0
 29 30  1  0  0  0  0
 30 31  2  0  0  0  0
 30 25  1  0  0  0  0
 31 35  1  0  0  0  0
 32 36  1  0  0  0  0
 32 31  1  0  0  0  0
 33 32  2  0  0  0  0
 34 33  1  0  0  0  0
 34 29  2  0  0  0  0
 37 33  1  0  0  0  0
 38 34  1  0  0  0  0
 39 38  1  0  0  0  0
 40 39  2  0  0  0  0
 41 40  1  0  0  0  0
 42 40  1  0  0  0  0
 42 44  1  0  0  0  0
 43 42  1  0  0  0  0
 44 38  2  0  0  0  0
M  END
>  <minimizedAffinity>
-6.89580774

$$$$

 OpenBabel03242511033D

 44 47  0  0  0  0  0  0  0  0999 V2000
   39.8270   32.5760   40.8040 C   0  0  0  0  0  0  0  0  0  0  0  0
   38.8530   33.3790   40.1880 C   0  0  0  0  0  0  0  0  0  0  0  0
   37.5460   32.9860   40.0090 C   0  0  0  0  0  0  0  0  0  0  0  0
   37.1970   31.7390   40.4640 C   0  0  0  0  0  0  0  0  0  0  0  0
   38.1570   30.9390   41.0750 C   0  0  0  0  0  0  0  0  0  0  0  0
   39.4040   31.3780   41.2190 N   0  0  0  0  0  0  0  0  0  0  0  0
   39.1550   34.3560   39.8390 H   0  0  0  0  0  0  0  0  0  0  0  0
   36.8250   33.6330   39.5300 H   0  0  0  0  0  0  0  0  0  0  0  0
   36.1650   31.4500   40.3130 H   0  0  0  0  0  0  0  0  0  0  0  0
   45.3640   33.0240   43.1670 C   0  0  0  0  0  0  0  0  0  0  0  0
   45.8020   34.1340   42.4130 C   0  0  0  0  0  0  0  0  0  0  0  0
   44.8830   34.7260   41.5330 C   0  0  0  0  0  0  0  0  0  0  0  0
   43.6150   34.2260   41.4280 N   0  0  0  0  0  0  0  0  0  0  0  0
   43.2560   33.1470   42.1860 C   0  0  0  0  0  0  0  0  0  0  0  0
   44.1310   32.5570   43.0470 N   0  0  0  0  0  0  0  0  0  0  0  0
   41.1830   33.0860   40.9460 C   0  0  0  0  0  0  0  0  0  0  0  0
   41.6000   33.8900   40.0670 O   0  0  0  0  0  0  0  0  0  0  0  0
   41.9340   32.6360   42.0680 N   0  0  0  0  0  0  0  0  0  0  0  0
   46.0730   32.5710   43.8410 H   0  0  0  0  0  0  0  0  0  0  0  0
   46.8100   34.5050   42.5190 H   0  0  0  0  0  0  0  0  0  0  0  0
   45.2000   35.5830   40.9420 H   0  0  0  0  0  0  0  0  0  0  0  0
   41.5780   31.9810   42.7740 H   0  0  0  0  0  0  0  0  0  0  0  0
   37.7720   29.6250   41.5510 C   0  0  0  0  0  3  0  0  0  0  0  0
   37.8550   29.3260   42.8190 C   0  0  0  0  0  3  0  0  0  0  0  0
   37.4980   28.0240   43.4660 C   0  0  0  0  0  0  0  0  0  0  0  0
   36.4990   27.6890   43.1010 H   0  0  0  0  0  0  0  0  0  0  0  0
   37.3620   28.2640   44.5170 H   0  0  0  0  0  0  0  0  0  0  0  0
   36.8650   26.1560   41.2530 Cl  0  0  0  0  0  0  0  0  0  0  0  0
   38.3290   26.0940   42.2310 C   0  0  0  0  0  0  0  0  0  0  0  0
   38.5580   27.0060   43.2520 C   0  0  0  0  0  0  0  0  0  0  0  0
   39.7040   26.9600   44.0190 C   0  0  0  0  0  0  0  0  0  0  0  0
   40.6610   25.9640   43.7560 C   0  0  0  0  0  0  0  0  0  0  0  0
   40.4210   25.0610   42.7340 C   0  0  0  0  0  0  0  0  0  0  0  0
   39.2650   25.1140   41.9670 C   0  0  0  0  0  0  0  0  0  0  0  0
   39.8430   27.6740   44.7920 H   0  0  0  0  0  0  0  0  0  0  0  0
   41.5630   25.9030   44.3360 H   0  0  0  0  0  0  0  0  0  0  0  0
   41.1560   24.2980   42.5340 H   0  0  0  0  0  0  0  0  0  0  0  0
   39.0560   24.1550   40.9130 C   0  0  0  0  0  0  0  0  0  0  0  0
   38.2870   23.0670   40.9720 N   0  0  0  0  0  0  0  0  0  0  0  0
   38.3310   22.4070   39.8000 C   0  0  0  0  0  0  0  0  0  0  0  0
   37.8520   21.4910   39.4540 H   0  0  0  0  0  0  0  0  0  0  0  0
   39.1570   23.1450   39.0350 N   0  0  0  0  0  0  0  0  0  0  0  0
   39.4850   23.0100   38.0420 H   0  0  0  0  0  0  0  0  0  0  0  0
   39.6080   24.2020   39.6790 N   0  0  0  0  0  0  0  0  0  0  0  0
  1 16  1  0  0  0  0
  1  6  1  0  0  0  0
  2  1  2  0  0  0  0
  3  2  1  0  0  0  0
  3  4  2  0  0  0  0
  4  5  1  0  0  0  0
  5  6  2  0  0  0  0
  5 23  1  0  0  0  0
  7  2  1  0  0  0  0
  8  3  1  0  0  0  0
  9  4  1  0  0  0  0
 10 19  1  0  0  0  0
 11 20  1  0  0  0  0
 11 10  2  0  0  0  0
 12 11  1  0  0  0  0
 13 12  2  0  0  0  0
 13 14  1  0  0  0  0
 14 15  2  0  0  0  0
 15 10  1  0  0  0  0
 16 18  1  0  0  0  0
 17 16  2  0  0  0  0
 18 14  1  0  0  0  0
 18 22  1  0  0  0  0
 21 12  1  0  0  0  0
 23 24  2  0  0  0  0
 24 25  1  0  0  0  0
 25 27  1  0  0  0  0
 26 25  1  0  0  0  0
 28 29  1  0  0  0  0
 29 30  1  0  0  0  0
 30 25  1  0  0  0  0
 30 31  2  0  0  0  0
 31 35  1  0  0  0  0
 32 31  1  0  0  0  0
 32 36  1  0  0  0  0
 33 32  2  0  0  0  0
 34 29  2  0  0  0  0
 34 33  1  0  0  0  0
 37 33  1  0  0  0  0
 38 39  1  0  0  0  0
 38 34  1  0  0  0  0
 40 39  2  0  0  0  0
 41 40  1  0  0  0  0
 42 44  1  0  0  0  0
 42 40  1  0  0  0  0
 43 42  1  0  0  0  0
 44 38  2  0  0  0  0
M  END
>  <minimizedAffinity>
-6.87723446

$$$$

 OpenBabel03242511033D

 44 47  0  0  0  0  0  0  0  0999 V2000
   37.6080   26.6030   41.7370 C   0  0  0  0  0  0  0  0  0  0  0  0
   37.6950   26.9560   43.0950 C   0  0  0  0  0  0  0  0  0  0  0  0
   37.5700   28.2480   43.5530 C   0  0  0  0  0  0  0  0  0  0  0  0
   37.3480   29.2280   42.6190 C   0  0  0  0  0  0  0  0  0  0  0  0
   37.2600   28.8840   41.2740 C   0  0  0  0  0  0  0  0  0  0  0  0
   37.3900   27.6170   40.8940 N   0  0  0  0  0  0  0  0  0  0  0  0
   37.8700   26.1650   43.8090 H   0  0  0  0  0  0  0  0  0  0  0  0
   37.6430   28.4800   44.6070 H   0  0  0  0  0  0  0  0  0  0  0  0
   37.2520   30.2350   43.0020 H   0  0  0  0  0  0  0  0  0  0  0  0
   39.5430   21.9290   38.4430 C   0  0  0  0  0  0  0  0  0  0  0  0
   38.8010   20.9190   39.0950 C   0  0  0  0  0  0  0  0  0  0  0  0
   37.9190   21.3140   40.1120 C   0  0  0  0  0  0  0  0  0  0  0  0
   37.8010   22.6350   40.4420 N   0  0  0  0  0  0  0  0  0  0  0  0
   38.5500   23.5620   39.7730 C   0  0  0  0  0  0  0  0  0  0  0  0
   39.4120   23.2020   38.7820 N   0  0  0  0  0  0  0  0  0  0  0  0
   37.7540   25.2060   41.3550 C   0  0  0  0  0  0  0  0  0  0  0  0
   37.2840   24.3340   42.1380 O   0  0  0  0  0  0  0  0  0  0  0  0
   38.4180   24.9330   40.1260 N   0  0  0  0  0  0  0  0  0  0  0  0
   40.2200   21.6220   37.6630 H   0  0  0  0  0  0  0  0  0  0  0  0
   38.9180   19.8850   38.8100 H   0  0  0  0  0  0  0  0  0  0  0  0
   37.3380   20.5520   40.6270 H   0  0  0  0  0  0  0  0  0  0  0  0
   38.7940   25.6570   39.5020 H   0  0  0  0  0  0  0  0  0  0  0  0
   37.0250   29.9320   40.2990 C   0  0  0  0  0  3  0  0  0  0  0  0
   38.0040   30.6940   39.8930 C   0  0  0  0  0  3  0  0  0  0  0  0
   37.9270   31.8110   38.9000 C   0  0  0  0  0  0  0  0  0  0  0  0
   36.8580   32.0450   38.6840 H   0  0  0  0  0  0  0  0  0  0  0  0
   38.3280   31.3940   37.9790 H   0  0  0  0  0  0  0  0  0  0  0  0
   40.7430   31.7970   37.9710 Cl  0  0  0  0  0  0  0  0  0  0  0  0
   40.0200   33.0600   38.9650 C   0  0  0  0  0  0  0  0  0  0  0  0
   38.6910   32.9980   39.3610 C   0  0  0  0  0  0  0  0  0  0  0  0
   38.1230   33.9860   40.1390 C   0  0  0  0  0  0  0  0  0  0  0  0
   38.9110   35.0790   40.5370 C   0  0  0  0  0  0  0  0  0  0  0  0
   40.2360   35.1290   40.1340 C   0  0  0  0  0  0  0  0  0  0  0  0
   40.8000   34.1300   39.3520 C   0  0  0  0  0  0  0  0  0  0  0  0
   37.1030   33.9040   40.4240 H   0  0  0  0  0  0  0  0  0  0  0  0
   38.4970   35.8630   41.1430 H   0  0  0  0  0  0  0  0  0  0  0  0
   40.8390   35.9680   40.4410 H   0  0  0  0  0  0  0  0  0  0  0  0
   42.1820   34.2220   38.9550 C   0  0  0  0  0  0  0  0  0  0  0  0
   43.2390   33.8260   39.6650 N   0  0  0  0  0  0  0  0  0  0  0  0
   44.3710   34.0660   38.9780 C   0  0  0  0  0  0  0  0  0  0  0  0
   45.4220   33.8900   39.2100 H   0  0  0  0  0  0  0  0  0  0  0  0
   43.9500   34.6210   37.8270 N   0  0  0  0  0  0  0  0  0  0  0  0
   44.4880   34.9700   36.9900 H   0  0  0  0  0  0  0  0  0  0  0  0
   42.6370   34.7270   37.7860 N   0  0  0  0  0  0  0  0  0  0  0  0
  1  2  1  0  0  0  0
  2  3  2  0  0  0  0
  2  7  1  0  0  0  0
  3  8  1  0  0  0  0
  4  9  1  0  0  0  0
  4  3  1  0  0  0  0
  5  4  2  0  0  0  0
  6  5  1  0  0  0  0
  6  1  2  0  0  0  0
 10 15  2  0  0  0  0
 10 11  1  0  0  0  0
 11 12  2  0  0  0  0
 12 13  1  0  0  0  0
 12 21  1  0  0  0  0
 14 18  1  0  0  0  0
 14 13  2  0  0  0  0
 15 14  1  0  0  0  0
 16  1  1  0  0  0  0
 16 17  2  0  0  0  0
 18 16  1  0  0  0  0
 19 10  1  0  0  0  0
 20 11  1  0  0  0  0
 22 18  1  0  0  0  0
 23  5  1  0  0  0  0
 24 23  2  0  0  0  0
 25 30  1  0  0  0  0
 25 24  1  0  0  0  0
 26 25  1  0  0  0  0
 27 25  1  0  0  0  0
 28 29  1  0  0  0  0
 29 34  2  0  0  0  0
 29 30  1  0  0  0  0
 30 31  2  0  0  0  0
 31 35  1  0  0  0  0
 31 32  1  0  0  0  0
 32 36  1  0  0  0  0
 33 37  1  0  0  0  0
 33 32  2  0  0  0  0
 34 33  1  0  0  0  0
 38 34  1  0  0  0  0
 38 39  1  0  0  0  0
 40 41  1  0  0  0  0
 40 39  2  0  0  0  0
 42 40  1  0  0  0  0
 43 42  1  0  0  0  0
 44 42  1  0  0  0  0
 44 38  2  0  0  0  0
M  END
>  <minimizedAffinity>
-6.86182213

$$$$

 OpenBabel03242511033D

 44 47  0  0  0  0  0  0  0  0999 V2000
   37.6160   26.7340   41.8040 C   0  0  0  0  0  0  0  0  0  0  0  0
   37.3820   26.9740   43.1680 C   0  0  0  0  0  0  0  0  0  0  0  0
   37.3830   28.2300   43.7300 C   0  0  0  0  0  0  0  0  0  0  0  0
   37.6270   29.2920   42.8960 C   0  0  0  0  0  0  0  0  0  0  0  0
   37.8590   29.0610   41.5440 C   0  0  0  0  0  0  0  0  0  0  0  0
   37.8440   27.8220   41.0620 N   0  0  0  0  0  0  0  0  0  0  0  0
   37.1920   26.1200   43.8030 H   0  0  0  0  0  0  0  0  0  0  0  0
   37.1990   28.3740   44.7860 H   0  0  0  0  0  0  0  0  0  0  0  0
   37.6230   30.2700   43.3590 H   0  0  0  0  0  0  0  0  0  0  0  0
   39.4490   21.9760   38.5730 C   0  0  0  0  0  0  0  0  0  0  0  0
   38.3810   21.1090   38.8920 C   0  0  0  0  0  0  0  0  0  0  0  0
   37.3480   21.6170   39.6930 C   0  0  0  0  0  0  0  0  0  0  0  0
   37.3980   22.9080   40.1370 N   0  0  0  0  0  0  0  0  0  0  0  0
   38.4610   23.6950   39.7940 C   0  0  0  0  0  0  0  0  0  0  0  0
   39.4750   23.2230   39.0170 N   0  0  0  0  0  0  0  0  0  0  0  0
   37.5930   25.3660   41.3080 C   0  0  0  0  0  0  0  0  0  0  0  0
   36.7720   24.5660   41.8370 O   0  0  0  0  0  0  0  0  0  0  0  0
   38.5000   25.0370   40.2620 N   0  0  0  0  0  0  0  0  0  0  0  0
   40.2410   21.5820   37.9580 H   0  0  0  0  0  0  0  0  0  0  0  0
   38.3730   20.0940   38.5250 H   0  0  0  0  0  0  0  0  0  0  0  0
   36.5150   20.9650   39.9500 H   0  0  0  0  0  0  0  0  0  0  0  0
   39.1620   25.7010   39.8440 H   0  0  0  0  0  0  0  0  0  0  0  0
   38.1140   30.1940   40.6760 C   0  0  0  0  0  3  0  0  0  0  0  0
   37.1280   30.8290   40.1050 C   0  0  0  0  0  3  0  0  0  0  0  0
   37.2220   32.0090   39.1880 C   0  0  0  0  0  0  0  0  0  0  0  0
   36.7350   32.8910   39.6660 H   0  0  0  0  0  0  0  0  0  0  0  0
   36.5950   31.7520   38.3380 H   0  0  0  0  0  0  0  0  0  0  0  0
   38.6210   33.8230   41.0700 Cl  0  0  0  0  0  0  0  0  0  0  0  0
   39.3470   33.1190   39.6270 C   0  0  0  0  0  0  0  0  0  0  0  0
   38.6280   32.2750   38.7920 C   0  0  0  0  0  0  0  0  0  0  0  0
   39.1950   31.7230   37.6610 C   0  0  0  0  0  0  0  0  0  0  0  0
   40.5330   32.0240   37.3520 C   0  0  0  0  0  0  0  0  0  0  0  0
   41.2390   32.8670   38.1940 C   0  0  0  0  0  0  0  0  0  0  0  0
   40.6610   33.4190   39.3290 C   0  0  0  0  0  0  0  0  0  0  0  0
   38.6130   31.0830   37.0460 H   0  0  0  0  0  0  0  0  0  0  0  0
   41.0010   31.6090   36.4790 H   0  0  0  0  0  0  0  0  0  0  0  0
   42.2650   33.0960   37.9550 H   0  0  0  0  0  0  0  0  0  0  0  0
   41.4330   34.2900   40.1780 C   0  0  0  0  0  0  0  0  0  0  0  0
   42.4090   33.9260   41.0100 N   0  0  0  0  0  0  0  0  0  0  0  0
   42.9050   35.0070   41.6400 C   0  0  0  0  0  0  0  0  0  0  0  0
   43.6950   35.1270   42.3820 H   0  0  0  0  0  0  0  0  0  0  0  0
   42.1870   36.0350   41.1510 N   0  0  0  0  0  0  0  0  0  0  0  0
   42.2280   37.0670   41.3590 H   0  0  0  0  0  0  0  0  0  0  0  0
   41.2940   35.6320   40.2700 N   0  0  0  0  0  0  0  0  0  0  0  0
  1  2  1  0  0  0  0
  2  3  2  0  0  0  0
  2  7  1  0  0  0  0
  3  8  1  0  0  0  0
  4  9  1  0  0  0  0
  4  3  1  0  0  0  0
  5  4  2  0  0  0  0
  6  5  1  0  0  0  0
  6  1  2  0  0  0  0
 10 11  2  0  0  0  0
 10 15  1  0  0  0  0
 11 12  1  0  0  0  0
 12 21  1  0  0  0  0
 12 13  2  0  0  0  0
 14 13  1  0  0  0  0
 14 18  1  0  0  0  0
 15 14  2  0  0  0  0
 16  1  1  0  0  0  0
 16 17  2  0  0  0  0
 18 16  1  0  0  0  0
 19 10  1  0  0  0  0
 20 11  1  0  0  0  0
 22 18  1  0  0  0  0
 23  5  1  0  0  0  0
 24 23  2  0  0  0  0
 25 26  1  0  0  0  0
 25 24  1  0  0  0  0
 27 25  1  0  0  0  0
 29 28  1  0  0  0  0
 30 25  1  0  0  0  0
 30 29  2  0  0  0  0
 31 30  1  0  0  0  0
 32 31  2  0  0  0  0
 32 33  1  0  0  0  0
 33 34  2  0  0  0  0
 34 29  1  0  0  0  0
 34 38  1  0  0  0  0
 35 31  1  0  0  0  0
 36 32  1  0  0  0  0
 37 33  1  0  0  0  0
 38 44  2  0  0  0  0
 38 39  1  0  0  0  0
 39 40  2  0  0  0  0
 40 41  1  0  0  0  0
 42 43  1  0  0  0  0
 42 40  1  0  0  0  0
 44 42  1  0  0  0  0
M  END
>  <minimizedAffinity>
-6.65891838

$$$$

 OpenBabel03242511033D

 44 47  0  0  0  0  0  0  0  0999 V2000
   33.6560   27.2820   36.7930 C   0  0  0  0  0  0  0  0  0  0  0  0
   33.1580   26.0310   36.3900 C   0  0  0  0  0  0  0  0  0  0  0  0
   33.7590   24.8360   36.7090 C   0  0  0  0  0  0  0  0  0  0  0  0
   34.9050   24.8880   37.4610 C   0  0  0  0  0  0  0  0  0  0  0  0
   35.4030   26.1240   37.8640 C   0  0  0  0  0  0  0  0  0  0  0  0
   34.7740   27.2450   37.5240 N   0  0  0  0  0  0  0  0  0  0  0  0
   32.2530   26.0180   35.7980 H   0  0  0  0  0  0  0  0  0  0  0  0
   33.3450   23.8920   36.3790 H   0  0  0  0  0  0  0  0  0  0  0  0
   35.3610   23.9370   37.7000 H   0  0  0  0  0  0  0  0  0  0  0  0
   29.8630   31.9340   37.4380 C   0  0  0  0  0  0  0  0  0  0  0  0
   29.9430   32.4270   36.1170 C   0  0  0  0  0  0  0  0  0  0  0  0
   30.7250   31.7080   35.2000 C   0  0  0  0  0  0  0  0  0  0  0  0
   31.3760   30.5730   35.5970 N   0  0  0  0  0  0  0  0  0  0  0  0
   31.2580   30.1510   36.8910 C   0  0  0  0  0  0  0  0  0  0  0  0
   30.5040   30.8330   37.7980 N   0  0  0  0  0  0  0  0  0  0  0  0
   32.9430   28.4910   36.4040 C   0  0  0  0  0  0  0  0  0  0  0  0
   33.2630   29.0290   35.3080 O   0  0  0  0  0  0  0  0  0  0  0  0
   31.9400   28.9700   37.2920 N   0  0  0  0  0  0  0  0  0  0  0  0
   29.2620   32.4890   38.1390 H   0  0  0  0  0  0  0  0  0  0  0  0
   29.4160   33.3260   35.8350 H   0  0  0  0  0  0  0  0  0  0  0  0
   30.8000   32.0700   34.1770 H   0  0  0  0  0  0  0  0  0  0  0  0
   31.6940   28.5180   38.1810 H   0  0  0  0  0  0  0  0  0  0  0  0
   36.6150   26.1630   38.6590 C   0  0  0  0  0  3  0  0  0  0  0  0
   36.6150   25.7290   39.8900 C   0  0  0  0  0  3  0  0  0  0  0  0
   37.7740   25.7000   40.8380 C   0  0  0  0  0  0  0  0  0  0  0  0
   38.7280   25.7180   40.2600 H   0  0  0  0  0  0  0  0  0  0  0  0
   37.7300   24.7180   41.3020 H   0  0  0  0  0  0  0  0  0  0  0  0
   39.3490   28.0870   40.0550 Cl  0  0  0  0  0  0  0  0  0  0  0  0
   38.4010   27.9510   41.5340 C   0  0  0  0  0  0  0  0  0  0  0  0
   37.6870   26.7990   41.8330 C   0  0  0  0  0  0  0  0  0  0  0  0
   36.9430   26.6900   42.9910 C   0  0  0  0  0  0  0  0  0  0  0  0
   36.9110   27.7740   43.8850 C   0  0  0  0  0  0  0  0  0  0  0  0
   37.6280   28.9180   43.5740 C   0  0  0  0  0  0  0  0  0  0  0  0
   38.3740   29.0190   42.4070 C   0  0  0  0  0  0  0  0  0  0  0  0
   36.4100   25.7930   43.1860 H   0  0  0  0  0  0  0  0  0  0  0  0
   36.3410   27.7200   44.7940 H   0  0  0  0  0  0  0  0  0  0  0  0
   37.6020   29.7480   44.2610 H   0  0  0  0  0  0  0  0  0  0  0  0
   39.1040   30.2270   42.1230 C   0  0  0  0  0  0  0  0  0  0  0  0
   38.7420   31.1920   41.2760 N   0  0  0  0  0  0  0  0  0  0  0  0
   39.6680   32.1690   41.2670 C   0  0  0  0  0  0  0  0  0  0  0  0
   39.7380   33.1080   40.7190 H   0  0  0  0  0  0  0  0  0  0  0  0
   40.5990   31.7510   42.1440 N   0  0  0  0  0  0  0  0  0  0  0  0
   41.5030   32.1960   42.4570 H   0  0  0  0  0  0  0  0  0  0  0  0
   40.2860   30.5870   42.6740 N   0  0  0  0  0  0  0  0  0  0  0  0
  1  6  1  0  0  0  0
  2  3  1  0  0  0  0
  2  1  2  0  0  0  0
  3  4  2  0  0  0  0
  4  9  1  0  0  0  0
  4  5  1  0  0  0  0
  5 23  1  0  0  0  0
  6  5  2  0  0  0  0
  7  2  1  0  0  0  0
  8  3  1  0  0  0  0
 10 15  1  0  0  0  0
 10 19  1  0  0  0  0
 11 10  2  0  0  0  0
 12 13  2  0  0  0  0
 12 11  1  0  0  0  0
 13 14  1  0  0  0  0
 14 18  1  0  0  0  0
 14 15  2  0  0  0  0
 16  1  1  0  0  0  0
 16 18  1  0  0  0  0
 17 16  2  0  0  0  0
 18 22  1  0  0  0  0
 20 11  1  0  0  0  0
 21 12  1  0  0  0  0
 23 24  2  0  0  0  0
 24 25  1  0  0  0  0
 25 27  1  0  0  0  0
 25 30  1  0  0  0  0
 26 25  1  0  0  0  0
 28 29  1  0  0  0  0
 29 30  2  0  0  0  0
 29 34  1  0  0  0  0
 30 31  1  0  0  0  0
 31 35  1  0  0  0  0
 31 32  2  0  0  0  0
 32 36  1  0  0  0  0
 33 32  1  0  0  0  0
 33 37  1  0  0  0  0
 34 33  2  0  0  0  0
 38 34  1  0  0  0  0
 38 44  2  0  0  0  0
 39 38  1  0  0  0  0
 40 39  2  0  0  0  0
 40 42  1  0  0  0  0
 41 40  1  0  0  0  0
 42 43  1  0  0  0  0
 42 44  1  0  0  0  0
M  END
>  <minimizedAffinity>
-6.53866053

$$$$
