
 OpenBabel03252507433D

 29 31  0  0  0  0  0  0  0  0999 V2000
   45.9030   34.6550   41.7150 C   0  0  0  0  0  0  0  0  0  0  0  0
   45.9000   33.8990   42.5260 H   0  0  0  0  0  0  0  0  0  0  0  0
   46.1540   35.6440   42.1490 H   0  0  0  0  0  0  0  0  0  0  0  0
   44.5090   34.6720   41.1870 C   0  0  0  0  0  0  0  0  0  0  0  0
   43.5820   35.6640   41.6190 C   0  0  0  0  0  0  0  0  0  0  0  0
   42.0510   35.2100   40.6640 S   0  0  0  0  0  0  0  0  0  0  0  0
   42.9590   33.7580   39.8540 C   0  0  0  0  0  0  0  0  0  0  0  0
   43.9950   33.8330   40.3160 N   0  0  0  0  0  0  0  0  0  0  0  0
   43.7560   36.4550   42.3180 H   0  0  0  0  0  0  0  0  0  0  0  0
   42.3730   32.8110   38.8720 C   0  0  0  0  0  0  0  0  0  0  0  0
   42.9900   31.9510   38.0600 N   0  0  0  0  0  0  0  0  0  0  0  0
   42.0970   31.2730   37.3220 C   0  0  0  0  0  0  0  0  0  0  0  0
   42.4610   30.5400   36.6190 H   0  0  0  0  0  0  0  0  0  0  0  0
   40.8690   31.7360   37.6950 N   0  0  0  0  0  0  0  0  0  0  0  0
   40.0160   31.3400   37.2420 H   0  0  0  0  0  0  0  0  0  0  0  0
   41.0530   32.6650   38.6330 N   0  0  0  0  0  0  0  0  0  0  0  0
   46.9390   34.2640   40.7270 C   0  0  0  0  0  0  0  0  0  0  0  0
   46.6390   33.4330   40.1020 H   0  0  0  0  0  0  0  0  0  0  0  0
   47.0780   35.1300   40.0150 H   0  0  0  0  0  0  0  0  0  0  0  0
   48.2870   34.0650   41.3150 C   0  0  0  0  0  0  0  0  0  0  0  0
   48.9350   32.8650   41.0300 C   0  0  0  0  0  0  0  0  0  0  0  0
   50.1920   32.6230   41.5480 C   0  0  0  0  0  0  0  0  0  0  0  0
   50.7550   33.5950   42.3360 N   0  0  0  0  0  0  0  0  0  0  0  0
   50.0930   34.7480   42.5890 C   0  0  0  0  0  0  0  0  0  0  0  0
   48.8900   34.9670   42.0860 N   0  0  0  0  0  0  0  0  0  0  0  0
   50.7240   31.6920   41.3420 H   0  0  0  0  0  0  0  0  0  0  0  0
   50.6220   35.4630   43.2280 H   0  0  0  0  0  0  0  0  0  0  0  0
   48.1380   31.6290   39.9880 S   0  0  0  0  0  0  0  0  0  0  0  0
   46.9310   31.2980   40.6500 H   0  0  0  0  0  0  0  0  0  0  0  0
  1  3  1  0  0  0  0
  1  2  1  0  0  0  0
  4  5  2  0  0  0  0
  4  1  1  0  0  0  0
  5  9  1  0  0  0  0
  6  5  1  0  0  0  0
  7  8  2  0  0  0  0
  7  6  1  0  0  0  0
  8  4  1  0  0  0  0
 10  7  1  0  0  0  0
 11 10  1  0  0  0  0
 12 14  1  0  0  0  0
 12 11  2  0  0  0  0
 13 12  1  0  0  0  0
 14 16  1  0  0  0  0
 15 14  1  0  0  0  0
 16 10  2  0  0  0  0
 17 20  1  0  0  0  0
 17  1  1  0  0  0  0
 18 17  1  0  0  0  0
 19 17  1  0  0  0  0
 20 25  1  0  0  0  0
 21 20  2  0  0  0  0
 21 22  1  0  0  0  0
 22 23  2  0  0  0  0
 23 24  1  0  0  0  0
 24 27  1  0  0  0  0
 25 24  2  0  0  0  0
 26 22  1  0  0  0  0
 28 29  1  0  0  0  0
 28 21  1  0  0  0  0
M  END
>  <minimizedAffinity>
-4.15359116

>  <minimizedRMSD>
0.721447825

$$$$
