
 OpenBabel03252508383D

 39 42  0  0  0  0  0  0  0  0999 V2000
   45.1360   33.9620   40.7090 C   0  0  0  0  0  0  0  0  0  0  0  0
   44.0910   33.6360   39.8900 C   0  0  0  0  0  0  0  0  0  0  0  0
   44.3900   33.1320   38.6620 C   0  0  0  0  0  0  0  0  0  0  0  0
   45.6750   32.9340   38.2050 C   0  0  0  0  0  0  0  0  0  0  0  0
   46.7020   33.2700   39.0500 C   0  0  0  0  0  0  0  0  0  0  0  0
   46.4500   33.7840   40.3030 C   0  0  0  0  0  0  0  0  0  0  0  0
   43.5670   32.8700   38.0050 H   0  0  0  0  0  0  0  0  0  0  0  0
   45.8970   32.5270   37.2150 H   0  0  0  0  0  0  0  0  0  0  0  0
   47.7090   33.1130   38.6880 H   0  0  0  0  0  0  0  0  0  0  0  0
   40.8090   35.2750   40.7940 C   0  0  0  0  0  0  0  0  0  0  0  0
   42.1040   35.0960   40.2800 C   0  0  0  0  0  0  0  0  0  0  0  0
   42.7560   33.8580   40.4060 C   0  0  0  0  0  0  0  0  0  0  0  0
   42.0380   32.9010   41.0460 N   0  0  0  0  0  0  0  0  0  0  0  0
   40.8080   33.0850   41.5290 C   0  0  0  0  0  0  0  0  0  0  0  0
   40.1980   34.2730   41.4000 N   0  0  0  0  0  0  0  0  0  0  0  0
   40.2050   36.5360   40.6380 N   0  0  0  0  0  0  0  0  0  0  0  0
   42.6770   35.8630   39.7690 H   0  0  0  0  0  0  0  0  0  0  0  0
   40.3780   32.2140   42.0120 H   0  0  0  0  0  0  0  0  0  0  0  0
   40.7390   37.2700   41.1500 H   0  0  0  0  0  0  0  0  0  0  0  0
   39.3270   36.7020   40.0740 H   0  0  0  0  0  0  0  0  0  0  0  0
   47.6160   34.1100   41.1260 C   0  0  0  0  0  0  0  0  0  0  0  0
   48.1380   35.3620   40.9430 C   0  0  0  0  0  0  0  0  0  0  0  0
   49.2450   35.8370   41.6410 C   0  0  0  0  0  0  0  0  0  0  0  0
   49.8320   34.9810   42.5650 C   0  0  0  0  0  0  0  0  0  0  0  0
   49.3210   33.7230   42.7610 C   0  0  0  0  0  0  0  0  0  0  0  0
   48.2200   33.2780   42.0520 C   0  0  0  0  0  0  0  0  0  0  0  0
   47.7400   36.0870   40.2440 H   0  0  0  0  0  0  0  0  0  0  0  0
   49.6570   36.8080   41.5050 H   0  0  0  0  0  0  0  0  0  0  0  0
   50.6960   35.2610   43.1550 H   0  0  0  0  0  0  0  0  0  0  0  0
   49.7370   33.0140   43.4660 H   0  0  0  0  0  0  0  0  0  0  0  0
   47.6210   31.9450   42.2100 C   0  0  0  0  0  0  0  0  0  0  0  0
   46.6500   31.5390   43.0570 N   0  0  0  0  0  0  0  0  0  0  0  0
   46.4250   30.2140   42.8390 C   0  0  0  0  0  0  0  0  0  0  0  0
   45.6450   29.8430   43.5030 H   0  0  0  0  0  0  0  0  0  0  0  0
   47.2690   29.8420   41.8590 N   0  0  0  0  0  0  0  0  0  0  0  0
   47.1810   28.8220   41.6050 H   0  0  0  0  0  0  0  0  0  0  0  0
   47.9870   30.8620   41.4760 N   0  0  0  0  0  0  0  0  0  0  0  0
   44.7280   34.9250   43.0960 N   0  0  0  0  0  0  0  0  0  0  0  0
   44.9140   34.4990   42.0190 C   0  0  0  0  0  0  0  0  0  0  0  0
  1 39  1  0  0  0  0
  2 12  1  0  0  0  0
  2  1  2  0  0  0  0
  3  2  1  0  0  0  0
  4  3  2  0  0  0  0
  4  5  1  0  0  0  0
  5  6  2  0  0  0  0
  6  1  1  0  0  0  0
  6 21  1  0  0  0  0
  7  3  1  0  0  0  0
  8  4  1  0  0  0  0
  9  5  1  0  0  0  0
 10 15  1  0  0  0  0
 11 12  1  0  0  0  0
 11 10  2  0  0  0  0
 12 13  2  0  0  0  0
 13 14  1  0  0  0  0
 14 18  1  0  0  0  0
 15 14  2  0  0  0  0
 16 10  1  0  0  0  0
 16 19  1  0  0  0  0
 17 11  1  0  0  0  0
 20 16  1  0  0  0  0
 21 26  1  0  0  0  0
 22 21  2  0  0  0  0
 22 23  1  0  0  0  0
 23 24  2  0  0  0  0
 24 25  1  0  0  0  0
 24 29  1  0  0  0  0
 25 30  1  0  0  0  0
 26 31  1  0  0  0  0
 26 25  2  0  0  0  0
 27 22  1  0  0  0  0
 28 23  1  0  0  0  0
 31 32  1  0  0  0  0
 33 32  2  0  0  0  0
 33 34  1  0  0  0  0
 35 33  1  0  0  0  0
 36 35  1  0  0  0  0
 37 35  1  0  0  0  0
 37 31  2  0  0  0  0
 39 38  3  0  0  0  0
M  END
>  <minimizedAffinity>
-5.91921568

>  <minimizedRMSD>
0.356138051

$$$$
