
 OpenBabel03252509313D

 25 26  0  0  0  0  0  0  0  0999 V2000
   48.2870   33.3410   43.4230 O   0  0  0  0  0  0  0  0  0  0  0  0
   46.9750   33.3810   42.9790 C   0  0  0  0  0  0  0  0  0  0  0  0
   46.6670   32.3410   42.7670 H   0  0  0  0  0  0  0  0  0  0  0  0
   46.8610   33.9090   41.9980 H   0  0  0  0  0  0  0  0  0  0  0  0
   45.0940   34.2940   46.0610 C   0  0  0  0  0  0  0  0  0  0  0  0
   45.9330   33.5820   45.1810 C   0  0  0  0  0  0  0  0  0  0  0  0
   46.1100   34.1040   43.9090 C   0  0  0  0  0  0  0  0  0  0  0  0
   45.4690   35.2680   43.5810 N   0  0  0  0  0  0  0  0  0  0  0  0
   44.6730   35.9220   44.4550 C   0  0  0  0  0  0  0  0  0  0  0  0
   44.4950   35.4300   45.6800 N   0  0  0  0  0  0  0  0  0  0  0  0
   44.8960   33.9700   47.0660 H   0  0  0  0  0  0  0  0  0  0  0  0
   46.3960   32.6800   45.5160 H   0  0  0  0  0  0  0  0  0  0  0  0
   44.2600   36.8220   44.0040 H   0  0  0  0  0  0  0  0  0  0  0  0
   50.0220   33.0500   41.4900 O   0  0  0  0  0  0  0  0  0  0  0  0
   49.2390   34.0940   42.2310 P   0  0  2  0  0  0  0  0  0  0  0  0
   50.2040   35.2330   43.0170 O   0  0  0  0  0  0  0  0  0  0  0  0
   50.1860   36.1250   42.6040 H   0  0  0  0  0  0  0  0  0  0  0  0
   48.2060   34.8630   41.1540 O   0  0  0  0  0  0  0  0  0  0  0  0
   48.0180   34.5400   39.8180 C   0  0  0  0  0  0  0  0  0  0  0  0
   48.6820   34.8400   38.6870 N   0  0  0  0  0  0  0  0  0  0  0  0
   48.0830   34.2710   37.6290 C   0  0  0  0  0  0  0  0  0  0  0  0
   48.3570   34.3100   36.5840 H   0  0  0  0  0  0  0  0  0  0  0  0
   47.0350   33.6180   38.1640 N   0  0  0  0  0  0  0  0  0  0  0  0
   46.3510   33.0610   37.5860 H   0  0  0  0  0  0  0  0  0  0  0  0
   46.9570   33.7540   39.4780 N   0  0  0  0  0  0  0  0  0  0  0  0
  2  1  1  0  0  0  0
  2  7  1  0  0  0  0
  3  2  1  0  0  0  0
  4  2  1  0  0  0  0
  5 11  1  0  0  0  0
  6 12  1  0  0  0  0
  6  5  2  0  0  0  0
  7  6  1  0  0  0  0
  8  7  2  0  0  0  0
  8  9  1  0  0  0  0
  9 10  2  0  0  0  0
 10  5  1  0  0  0  0
 13  9  1  0  0  0  0
 15 14  2  6  0  0  0
 15 16  1  0  0  0  0
 15  1  1  0  0  0  0
 17 16  1  0  0  0  0
 18 15  1  0  0  0  0
 19 18  1  0  0  0  0
 20 19  1  0  0  0  0
 21 23  1  0  0  0  0
 21 20  2  0  0  0  0
 22 21  1  0  0  0  0
 23 25  1  0  0  0  0
 24 23  1  0  0  0  0
 25 19  2  0  0  0  0
M  END
>  <minimizedAffinity>
-4.8860321

>  <minimizedRMSD>
1.33775437

$$$$
