
 OpenBabel03252509313D

 25 26  0  0  0  0  0  0  0  0999 V2000
   48.2900   33.3120   43.4020 O   0  0  0  0  0  0  0  0  0  0  0  0
   46.9920   33.3490   42.9170 C   0  0  0  0  0  0  0  0  0  0  0  0
   46.6660   32.3040   42.7670 H   0  0  0  0  0  0  0  0  0  0  0  0
   46.9180   33.8110   41.8990 H   0  0  0  0  0  0  0  0  0  0  0  0
   45.0090   34.4870   45.8570 C   0  0  0  0  0  0  0  0  0  0  0  0
   45.8540   33.6970   45.0530 C   0  0  0  0  0  0  0  0  0  0  0  0
   46.1180   34.1520   43.7700 C   0  0  0  0  0  0  0  0  0  0  0  0
   45.5500   35.3290   43.3600 N   0  0  0  0  0  0  0  0  0  0  0  0
   44.7450   36.0570   44.1630 C   0  0  0  0  0  0  0  0  0  0  0  0
   44.4830   35.6310   45.3980 N   0  0  0  0  0  0  0  0  0  0  0  0
   44.7460   34.2190   46.8640 H   0  0  0  0  0  0  0  0  0  0  0  0
   46.2560   32.7920   45.4490 H   0  0  0  0  0  0  0  0  0  0  0  0
   44.3970   36.9540   43.6530 H   0  0  0  0  0  0  0  0  0  0  0  0
   50.1150   33.0700   41.5480 O   0  0  0  0  0  0  0  0  0  0  0  0
   49.2730   34.0910   42.2520 P   0  0  2  0  0  0  0  0  0  0  0  0
   50.1700   35.2550   43.0800 O   0  0  0  0  0  0  0  0  0  0  0  0
   50.1470   36.1470   42.6660 H   0  0  0  0  0  0  0  0  0  0  0  0
   48.2680   34.8330   41.1300 O   0  0  0  0  0  0  0  0  0  0  0  0
   48.2370   34.5920   39.7650 C   0  0  0  0  0  0  0  0  0  0  0  0
   47.5750   33.7130   38.9920 N   0  0  0  0  0  0  0  0  0  0  0  0
   47.8990   33.8890   37.7000 C   0  0  0  0  0  0  0  0  0  0  0  0
   47.5480   33.3550   36.8280 H   0  0  0  0  0  0  0  0  0  0  0  0
   48.7790   34.9060   37.7250 N   0  0  0  0  0  0  0  0  0  0  0  0
   49.2310   35.2940   36.8550 H   0  0  0  0  0  0  0  0  0  0  0  0
   49.0130   35.3590   38.9460 N   0  0  0  0  0  0  0  0  0  0  0  0
  2  1  1  0  0  0  0
  2  7  1  0  0  0  0
  3  2  1  0  0  0  0
  4  2  1  0  0  0  0
  5 11  1  0  0  0  0
  6 12  1  0  0  0  0
  6  5  2  0  0  0  0
  7  6  1  0  0  0  0
  8  7  2  0  0  0  0
  8  9  1  0  0  0  0
  9 10  2  0  0  0  0
 10  5  1  0  0  0  0
 13  9  1  0  0  0  0
 15 14  2  6  0  0  0
 15 16  1  0  0  0  0
 15  1  1  0  0  0  0
 17 16  1  0  0  0  0
 18 15  1  0  0  0  0
 19 18  1  0  0  0  0
 20 19  1  0  0  0  0
 21 23  1  0  0  0  0
 21 20  2  0  0  0  0
 22 21  1  0  0  0  0
 23 25  1  0  0  0  0
 24 23  1  0  0  0  0
 25 19  2  0  0  0  0
M  END
>  <minimizedAffinity>
-4.77942801

>  <minimizedRMSD>
0.875426829

$$$$
