
 OpenBabel03242518203D

 28 30  0  0  0  0  0  0  0  0999 V2000
   39.4990   29.9130   42.4990 C   0  0  0  0  0  0  0  0  0  0  0  0
   40.4600   29.6000   42.0570 H   0  0  0  0  0  0  0  0  0  0  0  0
   39.7380   30.4100   43.4620 H   0  0  0  0  0  0  0  0  0  0  0  0
   38.7650   33.0380   40.7200 C   0  0  0  0  0  0  0  0  0  0  0  0
   37.5580   32.7720   40.0750 C   0  0  0  0  0  0  0  0  0  0  0  0
   36.9910   31.5200   40.2480 C   0  0  0  0  0  0  0  0  0  0  0  0
   37.6260   30.6250   41.0240 N   0  0  0  0  0  0  0  0  0  0  0  0
   38.8010   30.9160   41.6380 C   0  0  0  0  0  0  0  0  0  0  0  0
   39.3720   32.1420   41.4790 N   0  0  0  0  0  0  0  0  0  0  0  0
   39.2890   33.9920   40.6470 H   0  0  0  0  0  0  0  0  0  0  0  0
   36.0540   31.3220   39.7450 H   0  0  0  0  0  0  0  0  0  0  0  0
   37.0060   33.8150   39.2900 N   0  0  0  0  0  0  0  0  0  0  0  0
   37.1990   33.9600   38.2740 H   0  0  0  0  0  0  0  0  0  0  0  0
   36.3900   34.3980   39.8970 H   0  0  0  0  0  0  0  0  0  0  0  0
   38.6120   28.7330   42.7430 C   0  0  0  0  0  0  0  0  0  0  0  0
   37.5780   28.7160   43.6430 C   0  0  0  0  0  0  0  0  0  0  0  0
   36.9890   27.4610   43.5920 C   0  0  0  0  0  0  0  0  0  0  0  0
   37.7140   26.7660   42.6410 C   0  0  0  0  0  0  0  0  0  0  0  0
   38.6350   27.5470   42.1860 O   0  0  0  0  0  0  0  0  0  0  0  0
   37.1980   29.4640   44.3160 H   0  0  0  0  0  0  0  0  0  0  0  0
   36.1680   26.9680   44.0900 H   0  0  0  0  0  0  0  0  0  0  0  0
   37.6600   25.4170   42.0760 C   0  0  0  0  0  0  0  0  0  0  0  0
   36.9080   25.2950   40.9660 N   0  0  0  0  0  0  0  0  0  0  0  0
   36.9580   24.0070   40.5720 C   0  0  0  0  0  0  0  0  0  0  0  0
   36.4460   23.5880   39.6920 H   0  0  0  0  0  0  0  0  0  0  0  0
   37.7350   23.3480   41.4370 N   0  0  0  0  0  0  0  0  0  0  0  0
   37.9550   22.3290   41.3810 H   0  0  0  0  0  0  0  0  0  0  0  0
   38.1660   24.2180   42.3630 N   0  0  0  0  0  0  0  0  0  0  0  0
  1 15  1  0  0  0  0
  1  3  1  0  0  0  0
  2  1  1  0  0  0  0
  4  9  1  0  0  0  0
  5  6  1  0  0  0  0
  5  4  2  0  0  0  0
  6  7  2  0  0  0  0
  7  8  1  0  0  0  0
  8  1  1  0  0  0  0
  9  8  2  0  0  0  0
 10  4  1  0  0  0  0
 11  6  1  0  0  0  0
 12 14  1  0  0  0  0
 12  5  1  0  0  0  0
 13 12  1  0  0  0  0
 15 16  2  0  0  0  0
 16 20  1  0  0  0  0
 17 16  1  0  0  0  0
 17 21  1  0  0  0  0
 18 17  2  0  0  0  0
 19 18  1  0  0  0  0
 19 15  1  0  0  0  0
 22 28  2  0  0  0  0
 22 18  1  0  0  0  0
 23 22  1  0  0  0  0
 24 23  2  0  0  0  0
 24 26  1  0  0  0  0
 25 24  1  0  0  0  0
 26 28  1  0  0  0  0
 27 26  1  0  0  0  0
M  END
>  <minimizedAffinity>
-5.53999567

$$$$

 OpenBabel03242518203D

 28 30  0  0  0  0  0  0  0  0999 V2000
   37.5590   28.2110   43.1300 C   0  0  0  0  0  0  0  0  0  0  0  0
   36.8200   28.1760   43.9480 H   0  0  0  0  0  0  0  0  0  0  0  0
   38.5100   28.5720   43.5760 H   0  0  0  0  0  0  0  0  0  0  0  0
   37.0400   24.7140   42.1430 C   0  0  0  0  0  0  0  0  0  0  0  0
   38.2490   24.3590   41.5460 C   0  0  0  0  0  0  0  0  0  0  0  0
   39.2470   25.3180   41.4800 C   0  0  0  0  0  0  0  0  0  0  0  0
   39.0060   26.5380   41.9920 N   0  0  0  0  0  0  0  0  0  0  0  0
   37.8170   26.8510   42.5660 C   0  0  0  0  0  0  0  0  0  0  0  0
   36.8250   25.9210   42.6390 N   0  0  0  0  0  0  0  0  0  0  0  0
   36.1950   24.0330   42.2430 H   0  0  0  0  0  0  0  0  0  0  0  0
   40.1820   25.0340   41.0170 H   0  0  0  0  0  0  0  0  0  0  0  0
   38.3570   23.0350   41.0530 N   0  0  0  0  0  0  0  0  0  0  0  0
   38.1090   22.7410   40.0820 H   0  0  0  0  0  0  0  0  0  0  0  0
   38.7190   22.4240   41.8170 H   0  0  0  0  0  0  0  0  0  0  0  0
   37.1180   29.1460   42.0480 C   0  0  0  0  0  0  0  0  0  0  0  0
   36.0870   28.8910   41.1810 C   0  0  0  0  0  0  0  0  0  0  0  0
   35.9720   29.9770   40.3260 C   0  0  0  0  0  0  0  0  0  0  0  0
   36.9630   30.8540   40.7280 C   0  0  0  0  0  0  0  0  0  0  0  0
   37.5910   30.3230   41.7230 O   0  0  0  0  0  0  0  0  0  0  0  0
   35.4220   28.0520   41.0810 H   0  0  0  0  0  0  0  0  0  0  0  0
   35.3350   30.2490   39.4980 H   0  0  0  0  0  0  0  0  0  0  0  0
   37.4210   32.1740   40.2930 C   0  0  0  0  0  0  0  0  0  0  0  0
   38.4920   32.6510   40.9550 N   0  0  0  0  0  0  0  0  0  0  0  0
   38.7890   33.8630   40.4440 C   0  0  0  0  0  0  0  0  0  0  0  0
   39.6160   34.5100   40.7740 H   0  0  0  0  0  0  0  0  0  0  0  0
   37.9030   34.1230   39.4760 N   0  0  0  0  0  0  0  0  0  0  0  0
   37.8890   34.9940   38.9030 H   0  0  0  0  0  0  0  0  0  0  0  0
   37.0620   33.0810   39.3850 N   0  0  0  0  0  0  0  0  0  0  0  0
  1  3  1  0  0  0  0
  1  2  1  0  0  0  0
  4 10  1  0  0  0  0
  4  9  1  0  0  0  0
  5  4  2  0  0  0  0
  6  5  1  0  0  0  0
  6  7  2  0  0  0  0
  7  8  1  0  0  0  0
  8  9  2  0  0  0  0
  8  1  1  0  0  0  0
 11  6  1  0  0  0  0
 12  5  1  0  0  0  0
 12 14  1  0  0  0  0
 13 12  1  0  0  0  0
 15  1  1  0  0  0  0
 16 15  2  0  0  0  0
 17 18  2  0  0  0  0
 17 16  1  0  0  0  0
 18 19  1  0  0  0  0
 19 15  1  0  0  0  0
 20 16  1  0  0  0  0
 21 17  1  0  0  0  0
 22 18  1  0  0  0  0
 22 23  1  0  0  0  0
 24 25  1  0  0  0  0
 24 23  2  0  0  0  0
 26 24  1  0  0  0  0
 27 26  1  0  0  0  0
 28 26  1  0  0  0  0
 28 22  2  0  0  0  0
M  END
>  <minimizedAffinity>
-5.29265976

$$$$

 OpenBabel03242518203D

 28 30  0  0  0  0  0  0  0  0999 V2000
   36.2670   30.2750   41.0880 C   0  0  0  0  0  0  0  0  0  0  0  0
   35.9940   31.0620   41.8110 H   0  0  0  0  0  0  0  0  0  0  0  0
   35.3200   29.9170   40.6330 H   0  0  0  0  0  0  0  0  0  0  0  0
   37.5980   30.8880   37.7230 C   0  0  0  0  0  0  0  0  0  0  0  0
   38.6470   31.7800   37.9430 C   0  0  0  0  0  0  0  0  0  0  0  0
   38.9020   32.1750   39.2460 C   0  0  0  0  0  0  0  0  0  0  0  0
   38.1320   31.6830   40.2320 N   0  0  0  0  0  0  0  0  0  0  0  0
   37.1180   30.8160   39.9840 C   0  0  0  0  0  0  0  0  0  0  0  0
   36.8530   30.4180   38.7090 N   0  0  0  0  0  0  0  0  0  0  0  0
   37.3180   30.5180   36.7360 H   0  0  0  0  0  0  0  0  0  0  0  0
   39.7170   32.8660   39.4080 H   0  0  0  0  0  0  0  0  0  0  0  0
   39.3710   32.2120   36.8040 N   0  0  0  0  0  0  0  0  0  0  0  0
   39.1370   33.0570   36.2370 H   0  0  0  0  0  0  0  0  0  0  0  0
   40.1580   31.5490   36.6390 H   0  0  0  0  0  0  0  0  0  0  0  0
   36.9640   29.1400   41.7710 C   0  0  0  0  0  0  0  0  0  0  0  0
   37.7510   29.2750   42.8850 C   0  0  0  0  0  0  0  0  0  0  0  0
   38.2230   28.0160   43.2280 C   0  0  0  0  0  0  0  0  0  0  0  0
   37.6850   27.1640   42.2810 C   0  0  0  0  0  0  0  0  0  0  0  0
   36.9690   27.8650   41.4680 O   0  0  0  0  0  0  0  0  0  0  0  0
   38.0270   30.1330   43.4710 H   0  0  0  0  0  0  0  0  0  0  0  0
   38.8570   27.6090   44.0010 H   0  0  0  0  0  0  0  0  0  0  0  0
   37.7500   25.7240   42.0220 C   0  0  0  0  0  0  0  0  0  0  0  0
   36.8850   25.2740   41.0940 N   0  0  0  0  0  0  0  0  0  0  0  0
   37.0660   23.9440   40.9710 C   0  0  0  0  0  0  0  0  0  0  0  0
   36.5080   23.2830   40.2890 H   0  0  0  0  0  0  0  0  0  0  0  0
   38.0350   23.5860   41.8200 N   0  0  0  0  0  0  0  0  0  0  0  0
   38.3870   22.6110   41.9420 H   0  0  0  0  0  0  0  0  0  0  0  0
   38.4550   24.6850   42.4670 N   0  0  0  0  0  0  0  0  0  0  0  0
  1 15  1  0  0  0  0
  1  2  1  0  0  0  0
  3  1  1  0  0  0  0
  4  5  2  0  0  0  0
  4  9  1  0  0  0  0
  5  6  1  0  0  0  0
  6 11  1  0  0  0  0
  6  7  2  0  0  0  0
  8  7  1  0  0  0  0
  8  1  1  0  0  0  0
  9  8  2  0  0  0  0
 10  4  1  0  0  0  0
 12  5  1  0  0  0  0
 13 12  1  0  0  0  0
 14 12  1  0  0  0  0
 15 16  2  0  0  0  0
 16 17  1  0  0  0  0
 16 20  1  0  0  0  0
 17 21  1  0  0  0  0
 18 17  2  0  0  0  0
 19 15  1  0  0  0  0
 19 18  1  0  0  0  0
 22 18  1  0  0  0  0
 22 28  2  0  0  0  0
 23 22  1  0  0  0  0
 24 23  2  0  0  0  0
 24 26  1  0  0  0  0
 25 24  1  0  0  0  0
 26 27  1  0  0  0  0
 26 28  1  0  0  0  0
M  END
>  <minimizedAffinity>
-5.27037096

$$$$

 OpenBabel03242518203D

 28 30  0  0  0  0  0  0  0  0999 V2000
   39.5280   30.6780   42.2570 C   0  0  0  0  0  0  0  0  0  0  0  0
   40.5130   30.5350   42.7340 H   0  0  0  0  0  0  0  0  0  0  0  0
   39.0310   31.5120   42.7970 H   0  0  0  0  0  0  0  0  0  0  0  0
   39.1440   32.5940   39.1510 C   0  0  0  0  0  0  0  0  0  0  0  0
   39.8930   31.8690   38.2250 C   0  0  0  0  0  0  0  0  0  0  0  0
   40.5320   30.7210   38.6620 C   0  0  0  0  0  0  0  0  0  0  0  0
   40.4020   30.3600   39.9500 N   0  0  0  0  0  0  0  0  0  0  0  0
   39.6650   31.0880   40.8270 C   0  0  0  0  0  0  0  0  0  0  0  0
   39.0300   32.2200   40.4150 N   0  0  0  0  0  0  0  0  0  0  0  0
   38.6040   33.5090   38.9060 H   0  0  0  0  0  0  0  0  0  0  0  0
   41.1100   30.1650   37.9370 H   0  0  0  0  0  0  0  0  0  0  0  0
   39.9370   32.3740   36.9010 N   0  0  0  0  0  0  0  0  0  0  0  0
   40.6550   33.0420   36.5440 H   0  0  0  0  0  0  0  0  0  0  0  0
   39.1420   31.9660   36.3630 H   0  0  0  0  0  0  0  0  0  0  0  0
   38.6970   29.4370   42.3640 C   0  0  0  0  0  0  0  0  0  0  0  0
   37.3280   29.4290   42.4280 C   0  0  0  0  0  0  0  0  0  0  0  0
   36.9140   28.1070   42.5190 C   0  0  0  0  0  0  0  0  0  0  0  0
   38.0820   27.3670   42.5060 C   0  0  0  0  0  0  0  0  0  0  0  0
   39.0760   28.1850   42.4140 O   0  0  0  0  0  0  0  0  0  0  0  0
   36.6020   30.2220   42.4190 H   0  0  0  0  0  0  0  0  0  0  0  0
   35.9680   27.5930   42.5910 H   0  0  0  0  0  0  0  0  0  0  0  0
   38.4090   25.9420   42.5680 C   0  0  0  0  0  0  0  0  0  0  0  0
   39.6020   25.6560   43.1210 N   0  0  0  0  0  0  0  0  0  0  0  0
   39.7560   24.3160   43.1050 C   0  0  0  0  0  0  0  0  0  0  0  0
   40.6300   23.7690   43.4880 H   0  0  0  0  0  0  0  0  0  0  0  0
   38.6620   23.7900   42.5440 N   0  0  0  0  0  0  0  0  0  0  0  0
   38.5030   22.7690   42.3990 H   0  0  0  0  0  0  0  0  0  0  0  0
   37.8340   24.7930   42.2140 N   0  0  0  0  0  0  0  0  0  0  0  0
  1 15  1  0  0  0  0
  1  2  1  0  0  0  0
  1  3  1  0  0  0  0
  4  9  1  0  0  0  0
  5  6  1  0  0  0  0
  5  4  2  0  0  0  0
  6  7  2  0  0  0  0
  7  8  1  0  0  0  0
  8  1  1  0  0  0  0
  9  8  2  0  0  0  0
 10  4  1  0  0  0  0
 11  6  1  0  0  0  0
 12  5  1  0  0  0  0
 13 12  1  0  0  0  0
 14 12  1  0  0  0  0
 15 19  1  0  0  0  0
 15 16  2  0  0  0  0
 16 17  1  0  0  0  0
 17 21  1  0  0  0  0
 18 17  2  0  0  0  0
 18 22  1  0  0  0  0
 19 18  1  0  0  0  0
 20 16  1  0  0  0  0
 22 23  1  0  0  0  0
 24 23  2  0  0  0  0
 24 25  1  0  0  0  0
 26 24  1  0  0  0  0
 27 26  1  0  0  0  0
 28 26  1  0  0  0  0
 28 22  2  0  0  0  0
M  END
>  <minimizedAffinity>
-5.10062742

$$$$

 OpenBabel03242518203D

 28 30  0  0  0  0  0  0  0  0999 V2000
   36.5740   27.6870   42.5250 C   0  0  0  0  0  0  0  0  0  0  0  0
   35.7550   27.1010   42.0740 H   0  0  0  0  0  0  0  0  0  0  0  0
   36.2670   27.9140   43.5670 H   0  0  0  0  0  0  0  0  0  0  0  0
   39.8350   26.4610   43.6800 C   0  0  0  0  0  0  0  0  0  0  0  0
   40.1620   25.4750   42.7500 C   0  0  0  0  0  0  0  0  0  0  0  0
   39.2650   25.2270   41.7240 C   0  0  0  0  0  0  0  0  0  0  0  0
   38.1290   25.9430   41.6710 N   0  0  0  0  0  0  0  0  0  0  0  0
   37.8410   26.8970   42.5920 C   0  0  0  0  0  0  0  0  0  0  0  0
   38.7100   27.1540   43.6080 N   0  0  0  0  0  0  0  0  0  0  0  0
   40.4730   26.7310   44.5220 H   0  0  0  0  0  0  0  0  0  0  0  0
   39.5270   24.4610   41.0070 H   0  0  0  0  0  0  0  0  0  0  0  0
   41.3960   24.8030   42.9350 N   0  0  0  0  0  0  0  0  0  0  0  0
   41.5190   23.9290   43.4930 H   0  0  0  0  0  0  0  0  0  0  0  0
   42.1400   25.3280   42.4270 H   0  0  0  0  0  0  0  0  0  0  0  0
   36.7980   28.9610   41.7710 C   0  0  0  0  0  0  0  0  0  0  0  0
   35.9170   29.4840   40.8600 C   0  0  0  0  0  0  0  0  0  0  0  0
   36.4610   30.6630   40.3710 C   0  0  0  0  0  0  0  0  0  0  0  0
   37.6710   30.7960   41.0270 C   0  0  0  0  0  0  0  0  0  0  0  0
   37.8120   29.7880   41.8200 O   0  0  0  0  0  0  0  0  0  0  0  0
   34.9600   29.1430   40.5070 H   0  0  0  0  0  0  0  0  0  0  0  0
   36.1640   31.4180   39.6590 H   0  0  0  0  0  0  0  0  0  0  0  0
   38.7570   31.7770   41.0130 C   0  0  0  0  0  0  0  0  0  0  0  0
   39.9970   31.2520   41.0300 N   0  0  0  0  0  0  0  0  0  0  0  0
   40.8780   32.2730   41.0150 C   0  0  0  0  0  0  0  0  0  0  0  0
   41.9740   32.1700   41.0230 H   0  0  0  0  0  0  0  0  0  0  0  0
   40.1800   33.4120   40.9890 N   0  0  0  0  0  0  0  0  0  0  0  0
   40.6010   34.3660   40.9730 H   0  0  0  0  0  0  0  0  0  0  0  0
   38.8730   33.1040   40.9880 N   0  0  0  0  0  0  0  0  0  0  0  0
  1  8  1  0  0  0  0
  1  3  1  0  0  0  0
  2  1  1  0  0  0  0
  4 10  1  0  0  0  0
  5 12  1  0  0  0  0
  5  4  2  0  0  0  0
  6  5  1  0  0  0  0
  7  6  2  0  0  0  0
  7  8  1  0  0  0  0
  8  9  2  0  0  0  0
  9  4  1  0  0  0  0
 11  6  1  0  0  0  0
 12 13  1  0  0  0  0
 14 12  1  0  0  0  0
 15 19  1  0  0  0  0
 15  1  1  0  0  0  0
 16 15  2  0  0  0  0
 17 16  1  0  0  0  0
 17 18  2  0  0  0  0
 18 19  1  0  0  0  0
 20 16  1  0  0  0  0
 21 17  1  0  0  0  0
 22 18  1  0  0  0  0
 22 23  1  0  0  0  0
 24 25  1  0  0  0  0
 24 23  2  0  0  0  0
 26 24  1  0  0  0  0
 27 26  1  0  0  0  0
 28 26  1  0  0  0  0
 28 22  2  0  0  0  0
M  END
>  <minimizedAffinity>
-4.96190596

$$$$

 OpenBabel03242518203D

 28 30  0  0  0  0  0  0  0  0999 V2000
   37.8190   27.8590   40.2350 C   0  0  0  0  0  0  0  0  0  0  0  0
   36.8610   27.3250   40.1180 H   0  0  0  0  0  0  0  0  0  0  0  0
   38.4320   27.6120   39.3430 H   0  0  0  0  0  0  0  0  0  0  0  0
   38.3940   31.4350   39.6420 C   0  0  0  0  0  0  0  0  0  0  0  0
   37.3000   32.0480   40.2510 C   0  0  0  0  0  0  0  0  0  0  0  0
   36.3610   31.2370   40.8670 C   0  0  0  0  0  0  0  0  0  0  0  0
   36.5460   29.9060   40.8510 N   0  0  0  0  0  0  0  0  0  0  0  0
   37.6230   29.3400   40.2490 C   0  0  0  0  0  0  0  0  0  0  0  0
   38.5560   30.1220   39.6380 N   0  0  0  0  0  0  0  0  0  0  0  0
   39.1860   31.9840   39.1320 H   0  0  0  0  0  0  0  0  0  0  0  0
   35.5160   31.7210   41.3370 H   0  0  0  0  0  0  0  0  0  0  0  0
   37.2400   33.4620   40.1880 N   0  0  0  0  0  0  0  0  0  0  0  0
   36.7700   34.0040   39.4280 H   0  0  0  0  0  0  0  0  0  0  0  0
   37.7390   33.8530   41.0160 H   0  0  0  0  0  0  0  0  0  0  0  0
   38.5290   27.4190   41.4770 C   0  0  0  0  0  0  0  0  0  0  0  0
   38.0010   27.5030   42.7400 C   0  0  0  0  0  0  0  0  0  0  0  0
   38.9420   27.0050   43.6290 C   0  0  0  0  0  0  0  0  0  0  0  0
   40.0160   26.6350   42.8400 C   0  0  0  0  0  0  0  0  0  0  0  0
   39.7230   26.8960   41.6110 O   0  0  0  0  0  0  0  0  0  0  0  0
   37.0550   27.8660   43.1010 H   0  0  0  0  0  0  0  0  0  0  0  0
   39.0000   26.8610   44.6970 H   0  0  0  0  0  0  0  0  0  0  0  0
   41.3330   26.0470   43.0900 C   0  0  0  0  0  0  0  0  0  0  0  0
   42.2770   26.9180   43.4930 N   0  0  0  0  0  0  0  0  0  0  0  0
   43.4220   26.2300   43.6780 C   0  0  0  0  0  0  0  0  0  0  0  0
   44.3800   26.6600   44.0090 H   0  0  0  0  0  0  0  0  0  0  0  0
   43.1770   24.9480   43.3890 N   0  0  0  0  0  0  0  0  0  0  0  0
   43.8820   24.1820   43.4430 H   0  0  0  0  0  0  0  0  0  0  0  0
   41.8890   24.8380   43.0260 N   0  0  0  0  0  0  0  0  0  0  0  0
  1  8  1  0  0  0  0
  1 15  1  0  0  0  0
  2  1  1  0  0  0  0
  3  1  1  0  0  0  0
  4  5  1  0  0  0  0
  5  6  2  0  0  0  0
  6 11  1  0  0  0  0
  7  6  1  0  0  0  0
  8  7  2  0  0  0  0
  9  4  2  0  0  0  0
  9  8  1  0  0  0  0
 10  4  1  0  0  0  0
 12  5  1  0  0  0  0
 12 14  1  0  0  0  0
 13 12  1  0  0  0  0
 15 19  1  0  0  0  0
 15 16  2  0  0  0  0
 16 20  1  0  0  0  0
 16 17  1  0  0  0  0
 17 21  1  0  0  0  0
 18 22  1  0  0  0  0
 18 17  2  0  0  0  0
 19 18  1  0  0  0  0
 22 23  1  0  0  0  0
 23 24  2  0  0  0  0
 24 25  1  0  0  0  0
 26 27  1  0  0  0  0
 26 24  1  0  0  0  0
 28 22  2  0  0  0  0
 28 26  1  0  0  0  0
M  END
>  <minimizedAffinity>
-4.89255476

$$$$

 OpenBabel03242518203D

 28 30  0  0  0  0  0  0  0  0999 V2000
   36.7450   26.9440   39.6130 C   0  0  0  0  0  0  0  0  0  0  0  0
   37.1280   26.8290   38.5850 H   0  0  0  0  0  0  0  0  0  0  0  0
   35.7090   26.5440   39.6130 H   0  0  0  0  0  0  0  0  0  0  0  0
   37.6350   24.3370   42.0370 C   0  0  0  0  0  0  0  0  0  0  0  0
   38.9540   24.6370   42.3720 C   0  0  0  0  0  0  0  0  0  0  0  0
   39.5440   25.7360   41.7680 C   0  0  0  0  0  0  0  0  0  0  0  0
   38.8220   26.4570   40.8930 N   0  0  0  0  0  0  0  0  0  0  0  0
   37.5380   26.1370   40.5880 C   0  0  0  0  0  0  0  0  0  0  0  0
   36.9430   25.0600   41.1720 N   0  0  0  0  0  0  0  0  0  0  0  0
   37.0830   23.4950   42.4570 H   0  0  0  0  0  0  0  0  0  0  0  0
   40.5670   25.9620   42.0340 H   0  0  0  0  0  0  0  0  0  0  0  0
   39.5870   23.7860   43.3120 N   0  0  0  0  0  0  0  0  0  0  0  0
   40.1360   22.9320   43.0650 H   0  0  0  0  0  0  0  0  0  0  0  0
   39.4100   24.1580   44.2700 H   0  0  0  0  0  0  0  0  0  0  0  0
   36.7320   28.3850   40.0220 C   0  0  0  0  0  0  0  0  0  0  0  0
   35.8370   28.9280   40.9060 C   0  0  0  0  0  0  0  0  0  0  0  0
   36.1340   30.2770   41.0360 C   0  0  0  0  0  0  0  0  0  0  0  0
   37.2180   30.4860   40.2040 C   0  0  0  0  0  0  0  0  0  0  0  0
   37.5200   29.3620   39.6460 O   0  0  0  0  0  0  0  0  0  0  0  0
   35.0200   28.4990   41.4570 H   0  0  0  0  0  0  0  0  0  0  0  0
   35.7330   31.1100   41.5950 H   0  0  0  0  0  0  0  0  0  0  0  0
   38.0450   31.6390   39.8450 C   0  0  0  0  0  0  0  0  0  0  0  0
   38.3990   32.4280   40.8770 N   0  0  0  0  0  0  0  0  0  0  0  0
   39.1500   33.4360   40.3890 C   0  0  0  0  0  0  0  0  0  0  0  0
   39.5930   34.2490   40.9850 H   0  0  0  0  0  0  0  0  0  0  0  0
   39.2530   33.2610   39.0680 N   0  0  0  0  0  0  0  0  0  0  0  0
   39.7800   33.8930   38.4250 H   0  0  0  0  0  0  0  0  0  0  0  0
   38.5720   32.1540   38.7350 N   0  0  0  0  0  0  0  0  0  0  0  0
  1  3  1  0  0  0  0
  1 15  1  0  0  0  0
  1  8  1  0  0  0  0
  2  1  1  0  0  0  0
  4  5  1  0  0  0  0
  4 10  1  0  0  0  0
  5 12  1  0  0  0  0
  6 11  1  0  0  0  0
  6  5  2  0  0  0  0
  7  6  1  0  0  0  0
  8  7  2  0  0  0  0
  8  9  1  0  0  0  0
  9  4  2  0  0  0  0
 12 14  1  0  0  0  0
 13 12  1  0  0  0  0
 15 16  2  0  0  0  0
 16 17  1  0  0  0  0
 16 20  1  0  0  0  0
 17 21  1  0  0  0  0
 18 17  2  0  0  0  0
 19 15  1  0  0  0  0
 19 18  1  0  0  0  0
 22 18  1  0  0  0  0
 22 23  1  0  0  0  0
 24 23  2  0  0  0  0
 24 25  1  0  0  0  0
 26 24  1  0  0  0  0
 27 26  1  0  0  0  0
 28 26  1  0  0  0  0
 28 22  2  0  0  0  0
M  END
>  <minimizedAffinity>
-4.67974758

$$$$

 OpenBabel03242518203D

 28 30  0  0  0  0  0  0  0  0999 V2000
   36.8520   28.2840   40.1290 C   0  0  0  0  0  0  0  0  0  0  0  0
   35.8410   28.6200   40.4170 H   0  0  0  0  0  0  0  0  0  0  0  0
   36.7180   27.3970   39.4750 H   0  0  0  0  0  0  0  0  0  0  0  0
   37.9730   30.3020   37.2760 C   0  0  0  0  0  0  0  0  0  0  0  0
   38.8620   31.2110   37.8480 C   0  0  0  0  0  0  0  0  0  0  0  0
   39.0800   31.1360   39.2130 C   0  0  0  0  0  0  0  0  0  0  0  0
   38.4300   30.1960   39.9210 N   0  0  0  0  0  0  0  0  0  0  0  0
   37.5700   29.3250   39.3340 C   0  0  0  0  0  0  0  0  0  0  0  0
   37.3430   29.3850   37.9920 N   0  0  0  0  0  0  0  0  0  0  0  0
   37.7340   30.2790   36.2120 H   0  0  0  0  0  0  0  0  0  0  0  0
   39.7720   31.8450   39.6480 H   0  0  0  0  0  0  0  0  0  0  0  0
   39.4730   32.1450   36.9750 N   0  0  0  0  0  0  0  0  0  0  0  0
   39.0860   33.0880   36.7480 H   0  0  0  0  0  0  0  0  0  0  0  0
   40.3570   31.7290   36.6090 H   0  0  0  0  0  0  0  0  0  0  0  0
   37.6540   27.9080   41.3360 C   0  0  0  0  0  0  0  0  0  0  0  0
   37.3770   28.3320   42.6100 C   0  0  0  0  0  0  0  0  0  0  0  0
   38.3300   27.7850   43.4570 C   0  0  0  0  0  0  0  0  0  0  0  0
   39.1540   27.0410   42.6330 C   0  0  0  0  0  0  0  0  0  0  0  0
   38.7180   27.1490   41.4230 O   0  0  0  0  0  0  0  0  0  0  0  0
   36.6030   28.9650   43.0050 H   0  0  0  0  0  0  0  0  0  0  0  0
   38.5380   27.8170   44.5160 H   0  0  0  0  0  0  0  0  0  0  0  0
   40.3420   26.2090   42.8290 C   0  0  0  0  0  0  0  0  0  0  0  0
   41.3030   26.7610   43.5950 N   0  0  0  0  0  0  0  0  0  0  0  0
   42.3200   25.8810   43.6800 C   0  0  0  0  0  0  0  0  0  0  0  0
   43.2560   26.0390   44.2380 H   0  0  0  0  0  0  0  0  0  0  0  0
   41.9820   24.7990   42.9710 N   0  0  0  0  0  0  0  0  0  0  0  0
   42.5810   23.9520   42.8580 H   0  0  0  0  0  0  0  0  0  0  0  0
   40.7630   25.0040   42.4480 N   0  0  0  0  0  0  0  0  0  0  0  0
  1  2  1  0  0  0  0
  1 15  1  0  0  0  0
  3  1  1  0  0  0  0
  4  5  2  0  0  0  0
  4  9  1  0  0  0  0
  5  6  1  0  0  0  0
  6 11  1  0  0  0  0
  6  7  2  0  0  0  0
  8  7  1  0  0  0  0
  8  1  1  0  0  0  0
  9  8  2  0  0  0  0
 10  4  1  0  0  0  0
 12  5  1  0  0  0  0
 13 12  1  0  0  0  0
 14 12  1  0  0  0  0
 15 19  1  0  0  0  0
 15 16  2  0  0  0  0
 16 20  1  0  0  0  0
 16 17  1  0  0  0  0
 17 21  1  0  0  0  0
 18 22  1  0  0  0  0
 18 17  2  0  0  0  0
 19 18  1  0  0  0  0
 22 23  1  0  0  0  0
 23 24  2  0  0  0  0
 24 25  1  0  0  0  0
 26 24  1  0  0  0  0
 27 26  1  0  0  0  0
 28 22  2  0  0  0  0
 28 26  1  0  0  0  0
M  END
>  <minimizedAffinity>
-4.63444757

$$$$

 OpenBabel03242518203D

 28 30  0  0  0  0  0  0  0  0999 V2000
   36.5720   29.9650   40.5210 C   0  0  0  0  0  0  0  0  0  0  0  0
   36.7840   31.0300   40.7160 H   0  0  0  0  0  0  0  0  0  0  0  0
   35.4780   29.8300   40.6490 H   0  0  0  0  0  0  0  0  0  0  0  0
   36.2240   28.6710   37.1040 C   0  0  0  0  0  0  0  0  0  0  0  0
   37.4820   28.8850   36.5430 C   0  0  0  0  0  0  0  0  0  0  0  0
   38.4540   29.4740   37.3340 C   0  0  0  0  0  0  0  0  0  0  0  0
   38.1430   29.8100   38.5980 N   0  0  0  0  0  0  0  0  0  0  0  0
   36.9080   29.5870   39.1140 C   0  0  0  0  0  0  0  0  0  0  0  0
   35.9400   29.0100   38.3500 N   0  0  0  0  0  0  0  0  0  0  0  0
   35.3930   28.2150   36.5640 H   0  0  0  0  0  0  0  0  0  0  0  0
   39.4280   29.6360   36.8910 H   0  0  0  0  0  0  0  0  0  0  0  0
   37.6620   28.4780   35.1970 N   0  0  0  0  0  0  0  0  0  0  0  0
   37.4920   29.0860   34.3650 H   0  0  0  0  0  0  0  0  0  0  0  0
   37.9850   27.4870   35.1900 H   0  0  0  0  0  0  0  0  0  0  0  0
   37.3090   29.0870   41.4830 C   0  0  0  0  0  0  0  0  0  0  0  0
   37.9580   29.5410   42.6020 C   0  0  0  0  0  0  0  0  0  0  0  0
   38.5200   28.4460   43.2420 C   0  0  0  0  0  0  0  0  0  0  0  0
   38.1760   27.3600   42.4590 C   0  0  0  0  0  0  0  0  0  0  0  0
   37.4790   27.7880   41.4600 O   0  0  0  0  0  0  0  0  0  0  0  0
   38.0790   30.5280   43.0120 H   0  0  0  0  0  0  0  0  0  0  0  0
   39.1100   28.2860   44.1320 H   0  0  0  0  0  0  0  0  0  0  0  0
   38.4180   25.9180   42.5190 C   0  0  0  0  0  0  0  0  0  0  0  0
   39.5760   25.5600   43.1060 N   0  0  0  0  0  0  0  0  0  0  0  0
   39.6520   24.2140   43.0840 C   0  0  0  0  0  0  0  0  0  0  0  0
   40.4820   23.6150   43.4890 H   0  0  0  0  0  0  0  0  0  0  0  0
   38.5470   23.7550   42.4870 N   0  0  0  0  0  0  0  0  0  0  0  0
   38.3340   22.7460   42.3300 H   0  0  0  0  0  0  0  0  0  0  0  0
   37.7880   24.8060   42.1400 N   0  0  0  0  0  0  0  0  0  0  0  0
  1  3  1  0  0  0  0
  1  2  1  0  0  0  0
  1 15  1  0  0  0  0
  4  9  1  0  0  0  0
  5  4  2  0  0  0  0
  5  6  1  0  0  0  0
  6  7  2  0  0  0  0
  7  8  1  0  0  0  0
  8  1  1  0  0  0  0
  9  8  2  0  0  0  0
 10  4  1  0  0  0  0
 11  6  1  0  0  0  0
 12  5  1  0  0  0  0
 13 12  1  0  0  0  0
 14 12  1  0  0  0  0
 15 16  2  0  0  0  0
 16 20  1  0  0  0  0
 16 17  1  0  0  0  0
 17 21  1  0  0  0  0
 18 22  1  0  0  0  0
 18 17  2  0  0  0  0
 19 15  1  0  0  0  0
 19 18  1  0  0  0  0
 22 23  1  0  0  0  0
 24 23  2  0  0  0  0
 24 25  1  0  0  0  0
 26 24  1  0  0  0  0
 27 26  1  0  0  0  0
 28 26  1  0  0  0  0
 28 22  2  0  0  0  0
M  END
>  <minimizedAffinity>
-4.60724211

$$$$
