
 OpenBabel03242520123D

 32 34  0  0  0  0  0  0  0  0999 V2000
   46.1660   32.5700   46.9930 C   0  0  0  0  0  0  0  0  0  0  0  0
   45.2100   32.5420   47.9580 C   0  0  0  0  0  0  0  0  0  0  0  0
   45.4120   31.7370   49.0640 C   0  0  0  0  0  0  0  0  0  0  0  0
   46.5650   30.9760   49.1820 C   0  0  0  0  0  0  0  0  0  0  0  0
   47.5250   31.0360   48.1590 C   0  0  0  0  0  0  0  0  0  0  0  0
   47.2950   31.8120   47.1280 N   0  0  0  0  0  0  0  0  0  0  0  0
   44.3240   33.1500   47.8320 H   0  0  0  0  0  0  0  0  0  0  0  0
   44.6700   31.6920   49.8520 H   0  0  0  0  0  0  0  0  0  0  0  0
   46.7440   30.3390   50.0380 H   0  0  0  0  0  0  0  0  0  0  0  0
   44.9480   34.9980   44.5610 C   0  0  0  0  0  0  0  0  0  0  0  0
   45.9100   34.8680   43.5310 C   0  0  0  0  0  0  0  0  0  0  0  0
   46.9710   33.9580   43.6600 C   0  0  0  0  0  0  0  0  0  0  0  0
   46.9680   33.2610   44.8110 N   0  0  0  0  0  0  0  0  0  0  0  0
   46.0690   33.3860   45.7710 C   0  0  0  0  0  0  0  0  0  0  0  0
   45.0690   34.2460   45.6460 N   0  0  0  0  0  0  0  0  0  0  0  0
   43.8930   35.9390   44.3630 N   0  0  0  0  0  0  0  0  0  0  0  0
   45.8510   35.4540   42.6400 H   0  0  0  0  0  0  0  0  0  0  0  0
   47.7060   33.8430   42.8970 H   0  0  0  0  0  0  0  0  0  0  0  0
   43.6730   36.2810   43.4040 H   0  0  0  0  0  0  0  0  0  0  0  0
   43.3710   36.2510   45.2340 H   0  0  0  0  0  0  0  0  0  0  0  0
   48.7490   30.2540   48.2410 C   0  0  0  0  0  3  0  0  0  0  0  0
   49.8170   30.6510   48.9160 C   0  0  0  0  0  3  0  0  0  0  0  0
   49.8540   31.9470   49.6580 C   0  0  0  0  0  0  0  0  0  0  0  0
   49.2190   31.8560   50.5470 H   0  0  0  0  0  0  0  0  0  0  0  0
   49.5760   32.7840   49.0070 H   0  0  0  0  0  0  0  0  0  0  0  0
   51.2980   32.1340   50.0360 C   0  0  0  0  0  0  0  0  0  0  0  0
   52.3400   32.0180   49.2010 N   0  0  0  0  0  0  0  0  0  0  0  0
   53.4500   32.2570   49.9060 C   0  0  0  0  0  0  0  0  0  0  0  0
   54.4520   32.2430   49.5310 H   0  0  0  0  0  0  0  0  0  0  0  0
   53.0700   32.5160   51.1750 N   0  0  0  0  0  0  0  0  0  0  0  0
   53.6550   32.7460   52.0060 H   0  0  0  0  0  0  0  0  0  0  0  0
   51.7410   32.4440   51.2670 N   0  0  0  0  0  0  0  0  0  0  0  0
  1  6  2  0  0  0  0
  1  2  1  0  0  0  0
  2  3  2  0  0  0  0
  3  4  1  0  0  0  0
  3  8  1  0  0  0  0
  4  9  1  0  0  0  0
  5 21  1  0  0  0  0
  5  4  2  0  0  0  0
  6  5  1  0  0  0  0
  7  2  1  0  0  0  0
 10 15  1  0  0  0  0
 11 12  1  0  0  0  0
 11 10  2  0  0  0  0
 12 13  2  0  0  0  0
 13 14  1  0  0  0  0
 14  1  1  0  0  0  0
 15 14  2  0  0  0  0
 16 10  1  0  0  0  0
 16 20  1  0  0  0  0
 17 11  1  0  0  0  0
 18 12  1  0  0  0  0
 19 16  1  0  0  0  0
 21 22  2  0  0  0  0
 22 23  1  0  0  0  0
 23 26  1  0  0  0  0
 23 24  1  0  0  0  0
 25 23  1  0  0  0  0
 26 32  2  0  0  0  0
 27 28  2  0  0  0  0
 27 26  1  0  0  0  0
 28 30  1  0  0  0  0
 29 28  1  0  0  0  0
 30 32  1  0  0  0  0
 30 31  1  0  0  0  0
M  END
>  <minimizedAffinity>
-5.97709036

>  <minimizedRMSD>
1.11137712

$$$$
