
 OpenBabel03252500143D

 36 39  0  0  0  0  0  0  0  0999 V2000
   45.5460   32.3670   40.5040 Cl  0  0  0  0  0  0  0  0  0  0  0  0
   46.8230   33.4780   40.1620 C   0  0  0  0  0  0  0  0  0  0  0  0
   47.3950   34.2240   41.1600 C   0  0  0  0  0  0  0  0  0  0  0  0
   48.4210   35.1220   40.9180 C   0  0  0  0  0  0  0  0  0  0  0  0
   48.8440   35.2330   39.6070 C   0  0  0  0  0  0  0  0  0  0  0  0
   48.2740   34.4840   38.5890 C   0  0  0  0  0  0  0  0  0  0  0  0
   47.2840   33.6250   38.8570 C   0  0  0  0  0  0  0  0  0  0  0  0
   48.8510   35.6910   41.7070 H   0  0  0  0  0  0  0  0  0  0  0  0
   49.6440   35.9200   39.3610 H   0  0  0  0  0  0  0  0  0  0  0  0
   48.6620   34.6290   37.5870 H   0  0  0  0  0  0  0  0  0  0  0  0
   46.8940   32.9080   44.5650 C   0  0  0  0  0  0  0  0  0  0  0  0
   45.9510   33.8190   45.1070 C   0  0  0  0  0  0  0  0  0  0  0  0
   45.5110   34.8550   44.3020 C   0  0  0  0  0  0  0  0  0  0  0  0
   46.0020   34.9550   43.0270 N   0  0  0  0  0  0  0  0  0  0  0  0
   46.9050   34.0650   42.5360 C   0  0  0  0  0  0  0  0  0  0  0  0
   47.3310   33.0670   43.3070 N   0  0  0  0  0  0  0  0  0  0  0  0
   47.2460   32.0890   45.1920 H   0  0  0  0  0  0  0  0  0  0  0  0
   45.5710   33.7390   46.1010 H   0  0  0  0  0  0  0  0  0  0  0  0
   44.5170   35.8780   44.7660 C   0  0  0  0  0  0  0  0  0  0  0  0
   44.9800   37.1400   44.5380 F   0  0  0  0  0  0  0  0  0  0  0  0
   43.3410   35.6890   44.0640 F   0  0  0  0  0  0  0  0  0  0  0  0
   44.3030   35.6340   46.1020 F   0  0  0  0  0  0  0  0  0  0  0  0
   46.6610   32.8210   37.8110 C   0  0  0  0  0  0  0  0  0  0  0  0
   45.5970   33.2510   37.0050 C   0  0  0  0  0  0  0  0  0  0  0  0
   45.2660   32.2420   36.1320 C   0  0  0  0  0  0  0  0  0  0  0  0
   46.1480   31.2330   36.4460 C   0  0  0  0  0  0  0  0  0  0  0  0
   46.9480   31.6010   37.4290 O   0  0  0  0  0  0  0  0  0  0  0  0
   45.0680   34.2140   37.0090 H   0  0  0  0  0  0  0  0  0  0  0  0
   44.5390   32.1340   35.3630 H   0  0  0  0  0  0  0  0  0  0  0  0
   46.3490   29.8860   35.9120 C   0  0  0  0  0  0  0  0  0  0  0  0
   46.2360   28.6720   36.4680 N   0  0  0  0  0  0  0  0  0  0  0  0
   46.5340   27.7140   35.5470 C   0  0  0  0  0  0  0  0  0  0  0  0
   46.5240   26.6420   35.7200 H   0  0  0  0  0  0  0  0  0  0  0  0
   46.8330   28.3830   34.4150 N   0  0  0  0  0  0  0  0  0  0  0  0
   47.1090   27.9110   33.5110 H   0  0  0  0  0  0  0  0  0  0  0  0
   46.7280   29.7000   34.6130 N   0  0  0  0  0  0  0  0  0  0  0  0
  2  1  1  0  0  0  0
  2  3  1  0  0  0  0
  3 15  1  0  0  0  0
  4  3  2  0  0  0  0
  4  8  1  0  0  0  0
  5  4  1  0  0  0  0
  6  7  1  0  0  0  0
  6  5  2  0  0  0  0
  7  2  2  0  0  0  0
  9  5  1  0  0  0  0
 10  6  1  0  0  0  0
 11 12  1  0  0  0  0
 11 17  1  0  0  0  0
 12 18  1  0  0  0  0
 13 19  1  0  0  0  0
 13 12  2  0  0  0  0
 14 13  1  0  0  0  0
 15 14  2  0  0  0  0
 15 16  1  0  0  0  0
 16 11  2  0  0  0  0
 19 22  1  0  0  0  0
 20 19  1  0  0  0  0
 21 19  1  0  0  0  0
 23  7  1  0  0  0  0
 24 28  1  0  0  0  0
 24 23  2  0  0  0  0
 25 26  2  0  0  0  0
 25 24  1  0  0  0  0
 26 27  1  0  0  0  0
 27 23  1  0  0  0  0
 29 25  1  0  0  0  0
 30 26  1  0  0  0  0
 30 31  1  0  0  0  0
 32 33  1  0  0  0  0
 32 31  2  0  0  0  0
 34 36  1  0  0  0  0
 34 32  1  0  0  0  0
 35 34  1  0  0  0  0
 36 30  2  0  0  0  0
M  END
>  <minimizedAffinity>
-5.60276413

>  <minimizedRMSD>
0.20925568

$$$$
