
 OpenBabel03242519013D

 37 40  0  0  1  0  0  0  0  0999 V2000
   44.7570   34.3000   43.0500 C   0  0  1  0  0  0  0  0  0  0  0  0
   45.4290   35.5810   43.4580 C   0  0  0  0  0  0  0  0  0  0  0  0
   45.7630   35.0570   42.2180 C   0  0  1  0  0  0  0  0  0  0  0  0
   43.6970   34.2980   42.6840 H   0  0  0  0  0  0  0  0  0  0  0  0
   44.6980   36.4440   43.5200 H   0  0  0  0  0  0  0  0  0  0  0  0
   46.0170   35.5460   44.4010 H   0  0  0  0  0  0  0  0  0  0  0  0
   45.2860   35.3520   41.2550 H   0  0  0  0  0  0  0  0  0  0  0  0
   47.1450   34.5690   41.9630 C   0  0  0  0  0  0  0  0  0  0  0  0
   48.1240   34.5670   42.9260 C   0  0  0  0  0  0  0  0  0  0  0  0
   49.4180   34.1690   42.7290 C   0  0  0  0  0  0  0  0  0  0  0  0
   49.7650   33.7390   41.4710 C   0  0  0  0  0  0  0  0  0  0  0  0
   48.8030   33.7260   40.4660 C   0  0  0  0  0  0  0  0  0  0  0  0
   47.5280   34.1390   40.7340 C   0  0  0  0  0  0  0  0  0  0  0  0
   47.8720   34.9040   43.9330 H   0  0  0  0  0  0  0  0  0  0  0  0
   50.1310   34.1990   43.5450 H   0  0  0  0  0  0  0  0  0  0  0  0
   50.8180   33.4290   41.3620 H   0  0  0  0  0  0  0  0  0  0  0  0
   49.2480   33.3600   39.5470 H   0  0  0  0  0  0  0  0  0  0  0  0
   46.3110   32.6830   39.2660 C   0  0  0  0  0  0  0  0  0  0  0  0
   46.6420   31.9880   40.2270 O   0  0  0  0  0  0  0  0  0  0  0  0
   46.7860   34.0220   39.5050 N   0  0  0  0  0  0  0  0  0  0  0  0
   45.7800   32.5560   38.3290 H   0  0  0  0  0  0  0  0  0  0  0  0
   46.6590   34.8770   38.9190 H   0  0  0  0  0  0  0  0  0  0  0  0
   45.0900   33.0610   43.7500 C   0  0  0  0  0  0  0  0  0  0  0  0
   44.9360   31.8710   43.0230 C   0  0  0  0  0  0  0  0  0  0  0  0
   45.2610   30.6790   43.6970 C   0  0  0  0  0  0  0  0  0  0  0  0
   45.6960   30.7760   44.9980 N   0  0  0  0  0  0  0  0  0  0  0  0
   45.8210   31.9730   45.6470 C   0  0  0  0  0  0  0  0  0  0  0  0
   45.5160   33.1400   45.0250 N   0  0  0  0  0  0  0  0  0  0  0  0
   44.5880   31.7150   42.0540 H   0  0  0  0  0  0  0  0  0  0  0  0
   45.1840   29.7110   43.2420 H   0  0  0  0  0  0  0  0  0  0  0  0
   46.2890   31.9670   47.0270 C   0  0  0  0  0  0  0  0  0  0  0  0
   45.3220   31.9050   47.9710 N   0  0  0  0  0  0  0  0  0  0  0  0
   45.8560   31.9040   49.1950 C   0  0  0  0  0  0  0  0  0  0  0  0
   45.4440   31.8660   50.1860 H   0  0  0  0  0  0  0  0  0  0  0  0
   47.1700   31.9680   48.9940 N   0  0  0  0  0  0  0  0  0  0  0  0
   48.0290   31.9940   49.6030 H   0  0  0  0  0  0  0  0  0  0  0  0
   47.4670   32.0070   47.6900 N   0  0  0  0  0  0  0  0  0  0  0  0
  1  4  1  6  0  0  0
  1  2  1  0  0  0  0
  1 23  1  0  0  0  0
  2  5  1  0  0  0  0
  2  6  1  0  0  0  0
  3  7  1  6  0  0  0
  3  1  1  0  0  0  0
  3  2  1  0  0  0  0
  8  3  1  0  0  0  0
  8  9  1  0  0  0  0
  9 14  1  0  0  0  0
 10  9  2  0  0  0  0
 10 15  1  0  0  0  0
 11 10  1  0  0  0  0
 12 13  1  0  0  0  0
 12 11  2  0  0  0  0
 13  8  2  0  0  0  0
 16 11  1  0  0  0  0
 17 12  1  0  0  0  0
 18 20  1  0  0  0  0
 18 19  2  0  0  0  0
 20 13  1  0  0  0  0
 21 18  1  0  0  0  0
 22 20  1  0  0  0  0
 23 28  1  0  0  0  0
 24 25  1  0  0  0  0
 24 23  2  0  0  0  0
 25 26  2  0  0  0  0
 26 27  1  0  0  0  0
 27 31  1  0  0  0  0
 28 27  2  0  0  0  0
 29 24  1  0  0  0  0
 30 25  1  0  0  0  0
 31 37  2  0  0  0  0
 31 32  1  0  0  0  0
 32 33  2  0  0  0  0
 33 34  1  0  0  0  0
 35 33  1  0  0  0  0
 35 36  1  0  0  0  0
 37 35  1  0  0  0  0
M  END
>  <minimizedAffinity>
-5.23671675

>  <minimizedRMSD>
1.39907992

$$$$
