
 OpenBabel03242511553D

 32 34  0  0  1  0  0  0  0  0999 V2000
   37.5800   28.5100   40.4760 C   0  0  2  0  0  0  0  0  0  0  0  0
   37.6430   27.1010   40.9190 C   0  0  0  0  0  0  0  0  0  0  0  0
   36.9630   26.8530   42.2310 C   0  0  0  0  0  0  0  0  0  0  0  0
   37.4400   27.7800   43.3350 C   0  0  0  0  0  0  0  0  0  0  0  0
   37.6900   29.1890   42.8790 C   0  0  0  0  0  0  0  0  0  0  0  0
   37.0560   29.4650   41.5380 C   0  0  1  0  0  0  0  0  0  0  0  0
   38.5870   28.9380   40.2000 H   0  0  0  0  0  0  0  0  0  0  0  0
   38.7050   26.7670   40.9910 H   0  0  0  0  0  0  0  0  0  0  0  0
   37.1010   26.4720   40.1720 H   0  0  0  0  0  0  0  0  0  0  0  0
   37.3410   25.8390   42.5660 H   0  0  0  0  0  0  0  0  0  0  0  0
   35.8830   26.7410   42.2080 H   0  0  0  0  0  0  0  0  0  0  0  0
   38.3190   27.3790   43.8880 H   0  0  0  0  0  0  0  0  0  0  0  0
   36.6120   27.8120   44.0880 H   0  0  0  0  0  0  0  0  0  0  0  0
   37.3360   29.9300   43.6000 H   0  0  0  0  0  0  0  0  0  0  0  0
   38.7920   29.2900   42.7150 H   0  0  0  0  0  0  0  0  0  0  0  0
   35.9680   29.3880   41.5260 H   0  0  0  0  0  0  0  0  0  0  0  0
   36.7430   28.6820   39.2730 C   0  0  0  0  0  0  0  0  0  0  0  0
   35.3560   28.5490   39.4720 C   0  0  0  0  0  0  0  0  0  0  0  0
   34.4720   28.6940   38.3950 C   0  0  0  0  0  0  0  0  0  0  0  0
   35.0440   28.9670   37.1780 N   0  0  0  0  0  0  0  0  0  0  0  0
   36.3840   29.0920   37.0100 C   0  0  0  0  0  0  0  0  0  0  0  0
   37.2270   28.9490   38.0610 N   0  0  0  0  0  0  0  0  0  0  0  0
   34.8250   28.3350   40.3860 H   0  0  0  0  0  0  0  0  0  0  0  0
   33.4060   28.6060   38.4720 H   0  0  0  0  0  0  0  0  0  0  0  0
   36.7710   29.3090   36.0210 H   0  0  0  0  0  0  0  0  0  0  0  0
   37.4000   30.8560   41.1380 C   0  0  0  0  0  0  0  0  0  0  0  0
   38.6450   31.3890   41.2000 N   0  0  0  0  0  0  0  0  0  0  0  0
   38.5640   32.6750   40.7520 C   0  0  0  0  0  0  0  0  0  0  0  0
   39.3820   33.3900   40.6700 H   0  0  0  0  0  0  0  0  0  0  0  0
   37.2780   32.9240   40.4180 N   0  0  0  0  0  0  0  0  0  0  0  0
   36.8400   33.7960   40.0390 H   0  0  0  0  0  0  0  0  0  0  0  0
   36.5760   31.8210   40.6530 N   0  0  0  0  0  0  0  0  0  0  0  0
  1  7  1  6  0  0  0
  1  2  1  0  0  0  0
  1  6  1  0  0  0  0
  2  8  1  0  0  0  0
  2  3  1  0  0  0  0
  3 10  1  0  0  0  0
  3  4  1  0  0  0  0
  4 12  1  0  0  0  0
  4 13  1  0  0  0  0
  5  4  1  0  0  0  0
  5 14  1  0  0  0  0
  6 16  1  1  0  0  0
  6  5  1  0  0  0  0
  9  2  1  0  0  0  0
 11  3  1  0  0  0  0
 15  5  1  0  0  0  0
 17 18  1  0  0  0  0
 17  1  1  0  0  0  0
 18 23  1  0  0  0  0
 19 24  1  0  0  0  0
 19 18  2  0  0  0  0
 20 19  1  0  0  0  0
 21 20  2  0  0  0  0
 21 22  1  0  0  0  0
 22 17  2  0  0  0  0
 25 21  1  0  0  0  0
 26 27  1  0  0  0  0
 26  6  1  0  0  0  0
 28 27  2  0  0  0  0
 29 28  1  0  0  0  0
 30 32  1  0  0  0  0
 30 28  1  0  0  0  0
 31 30  1  0  0  0  0
 32 26  2  0  0  0  0
M  END
>  <minimizedAffinity>
-4.85091305

$$$$

 OpenBabel03242511553D

 32 34  0  0  1  0  0  0  0  0999 V2000
   36.3440   29.7370   40.5450 C   0  0  2  0  0  0  0  0  0  0  0  0
   35.1590   29.1460   39.8870 C   0  0  0  0  0  0  0  0  0  0  0  0
   35.3890   28.7830   38.4520 C   0  0  0  0  0  0  0  0  0  0  0  0
   35.9400   29.9320   37.6260 C   0  0  0  0  0  0  0  0  0  0  0  0
   36.9490   30.7740   38.3540 C   0  0  0  0  0  0  0  0  0  0  0  0
   37.4740   30.0800   39.5860 C   0  0  1  0  0  0  0  0  0  0  0  0
   36.1250   30.7140   41.0660 H   0  0  0  0  0  0  0  0  0  0  0  0
   34.2930   29.8470   39.9500 H   0  0  0  0  0  0  0  0  0  0  0  0
   34.9080   28.1900   40.4060 H   0  0  0  0  0  0  0  0  0  0  0  0
   34.3520   28.6320   38.0210 H   0  0  0  0  0  0  0  0  0  0  0  0
   35.8980   27.8420   38.2610 H   0  0  0  0  0  0  0  0  0  0  0  0
   35.1410   30.5660   37.1790 H   0  0  0  0  0  0  0  0  0  0  0  0
   36.4600   29.4610   36.7540 H   0  0  0  0  0  0  0  0  0  0  0  0
   37.7920   31.0570   37.7180 H   0  0  0  0  0  0  0  0  0  0  0  0
   36.4110   31.6810   38.7270 H   0  0  0  0  0  0  0  0  0  0  0  0
   38.0150   29.1530   39.3900 H   0  0  0  0  0  0  0  0  0  0  0  0
   36.9010   28.8570   41.5910 C   0  0  0  0  0  0  0  0  0  0  0  0
   36.9680   27.4890   41.2630 C   0  0  0  0  0  0  0  0  0  0  0  0
   37.4800   26.5680   42.1840 C   0  0  0  0  0  0  0  0  0  0  0  0
   37.8970   27.0830   43.3860 N   0  0  0  0  0  0  0  0  0  0  0  0
   37.8240   28.4060   43.6800 C   0  0  0  0  0  0  0  0  0  0  0  0
   37.3250   29.2860   42.7780 N   0  0  0  0  0  0  0  0  0  0  0  0
   36.6640   27.0000   40.3500 H   0  0  0  0  0  0  0  0  0  0  0  0
   37.5610   25.5130   42.0040 H   0  0  0  0  0  0  0  0  0  0  0  0
   38.1710   28.7480   44.6480 H   0  0  0  0  0  0  0  0  0  0  0  0
   38.4170   31.0010   40.2730 C   0  0  0  0  0  0  0  0  0  0  0  0
   39.7300   30.7420   40.4850 N   0  0  0  0  0  0  0  0  0  0  0  0
   40.2620   31.8140   41.1390 C   0  0  0  0  0  0  0  0  0  0  0  0
   41.2950   31.9340   41.4620 H   0  0  0  0  0  0  0  0  0  0  0  0
   39.2780   32.7230   41.3240 N   0  0  0  0  0  0  0  0  0  0  0  0
   39.3110   33.6620   41.7860 H   0  0  0  0  0  0  0  0  0  0  0  0
   38.1630   32.2280   40.7990 N   0  0  0  0  0  0  0  0  0  0  0  0
  1  7  1  1  0  0  0
  1 17  1  0  0  0  0
  2  8  1  0  0  0  0
  2  9  1  0  0  0  0
  2  1  1  0  0  0  0
  3  2  1  0  0  0  0
  4  5  1  0  0  0  0
  4  3  1  0  0  0  0
  5 15  1  0  0  0  0
  5  6  1  0  0  0  0
  6 16  1  6  0  0  0
  6 26  1  0  0  0  0
  6  1  1  0  0  0  0
 10  3  1  0  0  0  0
 11  3  1  0  0  0  0
 12  4  1  0  0  0  0
 13  4  1  0  0  0  0
 14  5  1  0  0  0  0
 17 22  1  0  0  0  0
 18 17  2  0  0  0  0
 18 19  1  0  0  0  0
 19 20  2  0  0  0  0
 20 21  1  0  0  0  0
 21 25  1  0  0  0  0
 22 21  2  0  0  0  0
 23 18  1  0  0  0  0
 24 19  1  0  0  0  0
 26 27  1  0  0  0  0
 26 32  2  0  0  0  0
 27 28  2  0  0  0  0
 28 30  1  0  0  0  0
 28 29  1  0  0  0  0
 30 31  1  0  0  0  0
 32 30  1  0  0  0  0
M  END
>  <minimizedAffinity>
-4.78063679

$$$$

 OpenBabel03242511553D

 32 34  0  0  1  0  0  0  0  0999 V2000
   36.8780   26.6940   40.6120 C   0  0  2  0  0  0  0  0  0  0  0  0
   36.7720   25.3070   40.1110 C   0  0  0  0  0  0  0  0  0  0  0  0
   36.9200   25.1940   38.6240 C   0  0  0  0  0  0  0  0  0  0  0  0
   35.9820   26.1090   37.8590 C   0  0  0  0  0  0  0  0  0  0  0  0
   35.8040   27.4610   38.4900 C   0  0  0  0  0  0  0  0  0  0  0  0
   36.8740   27.7470   39.5130 C   0  0  1  0  0  0  0  0  0  0  0  0
   36.0180   26.9960   41.2790 H   0  0  0  0  0  0  0  0  0  0  0  0
   35.7940   24.8610   40.4140 H   0  0  0  0  0  0  0  0  0  0  0  0
   37.6090   24.7110   40.5460 H   0  0  0  0  0  0  0  0  0  0  0  0
   36.5310   24.1600   38.3730 H   0  0  0  0  0  0  0  0  0  0  0  0
   37.9330   25.2010   38.2330 H   0  0  0  0  0  0  0  0  0  0  0  0
   34.9970   25.6380   37.6440 H   0  0  0  0  0  0  0  0  0  0  0  0
   36.4550   26.2650   36.8560 H   0  0  0  0  0  0  0  0  0  0  0  0
   35.7920   28.2670   37.7520 H   0  0  0  0  0  0  0  0  0  0  0  0
   34.8430   27.4320   39.0610 H   0  0  0  0  0  0  0  0  0  0  0  0
   37.8870   27.7890   39.1120 H   0  0  0  0  0  0  0  0  0  0  0  0
   38.0910   26.9050   41.4250 C   0  0  0  0  0  0  0  0  0  0  0  0
   37.8850   26.9850   42.8150 C   0  0  0  0  0  0  0  0  0  0  0  0
   38.9690   27.1830   43.6790 C   0  0  0  0  0  0  0  0  0  0  0  0
   40.2020   27.2890   43.0850 N   0  0  0  0  0  0  0  0  0  0  0  0
   40.3770   27.2080   41.7420 C   0  0  0  0  0  0  0  0  0  0  0  0
   39.3170   27.0170   40.9190 N   0  0  0  0  0  0  0  0  0  0  0  0
   36.9580   26.9150   43.3640 H   0  0  0  0  0  0  0  0  0  0  0  0
   38.8880   27.2550   44.7460 H   0  0  0  0  0  0  0  0  0  0  0  0
   41.3780   27.2990   41.3370 H   0  0  0  0  0  0  0  0  0  0  0  0
   36.5900   29.0720   40.1260 C   0  0  0  0  0  0  0  0  0  0  0  0
   37.4220   30.1400   40.0710 N   0  0  0  0  0  0  0  0  0  0  0  0
   36.8210   31.1650   40.7420 C   0  0  0  0  0  0  0  0  0  0  0  0
   37.2180   32.1680   40.8900 H   0  0  0  0  0  0  0  0  0  0  0  0
   35.6290   30.7240   41.2020 N   0  0  0  0  0  0  0  0  0  0  0  0
   34.8970   31.2270   41.7560 H   0  0  0  0  0  0  0  0  0  0  0  0
   35.4920   29.4570   40.8270 N   0  0  0  0  0  0  0  0  0  0  0  0
  1  7  1  1  0  0  0
  1 17  1  0  0  0  0
  2  8  1  0  0  0  0
  2  9  1  0  0  0  0
  2  1  1  0  0  0  0
  3  2  1  0  0  0  0
  4  5  1  0  0  0  0
  4  3  1  0  0  0  0
  5 15  1  0  0  0  0
  5  6  1  0  0  0  0
  6 16  1  6  0  0  0
  6 26  1  0  0  0  0
  6  1  1  0  0  0  0
 10  3  1  0  0  0  0
 11  3  1  0  0  0  0
 12  4  1  0  0  0  0
 13  4  1  0  0  0  0
 14  5  1  0  0  0  0
 17 18  1  0  0  0  0
 18 23  1  0  0  0  0
 18 19  2  0  0  0  0
 19 24  1  0  0  0  0
 20 19  1  0  0  0  0
 21 20  2  0  0  0  0
 22 17  2  0  0  0  0
 22 21  1  0  0  0  0
 25 21  1  0  0  0  0
 26 32  2  0  0  0  0
 27 26  1  0  0  0  0
 27 28  2  0  0  0  0
 28 29  1  0  0  0  0
 28 30  1  0  0  0  0
 30 31  1  0  0  0  0
 32 30  1  0  0  0  0
M  END
>  <minimizedAffinity>
-4.72443676

$$$$

 OpenBabel03242511553D

 32 34  0  0  1  0  0  0  0  0999 V2000
   37.5860   29.7180   41.8350 C   0  0  2  0  0  0  0  0  0  0  0  0
   38.5040   29.5610   42.9830 C   0  0  0  0  0  0  0  0  0  0  0  0
   39.0940   28.1880   43.0960 C   0  0  0  0  0  0  0  0  0  0  0  0
   38.0490   27.0880   43.0950 C   0  0  0  0  0  0  0  0  0  0  0  0
   36.9080   27.3340   42.1490 C   0  0  0  0  0  0  0  0  0  0  0  0
   37.2370   28.4090   41.1430 C   0  0  1  0  0  0  0  0  0  0  0  0
   36.5830   30.1510   42.1200 H   0  0  0  0  0  0  0  0  0  0  0  0
   37.9770   29.8090   43.9350 H   0  0  0  0  0  0  0  0  0  0  0  0
   39.3690   30.2530   42.8410 H   0  0  0  0  0  0  0  0  0  0  0  0
   39.5160   28.1400   44.1460 H   0  0  0  0  0  0  0  0  0  0  0  0
   39.9430   27.9680   42.4560 H   0  0  0  0  0  0  0  0  0  0  0  0
   37.6740   26.8440   44.1140 H   0  0  0  0  0  0  0  0  0  0  0  0
   38.5770   26.1620   42.7500 H   0  0  0  0  0  0  0  0  0  0  0  0
   36.6050   26.4290   41.6160 H   0  0  0  0  0  0  0  0  0  0  0  0
   36.0610   27.7400   42.7550 H   0  0  0  0  0  0  0  0  0  0  0  0
   38.0670   28.1710   40.4770 H   0  0  0  0  0  0  0  0  0  0  0  0
   38.1250   30.6330   40.8090 C   0  0  0  0  0  0  0  0  0  0  0  0
   37.4280   31.8450   40.6490 C   0  0  0  0  0  0  0  0  0  0  0  0
   37.8550   32.7850   39.7020 C   0  0  0  0  0  0  0  0  0  0  0  0
   38.9660   32.4430   38.9720 N   0  0  0  0  0  0  0  0  0  0  0  0
   39.6220   31.2680   39.1430 C   0  0  0  0  0  0  0  0  0  0  0  0
   39.1960   30.3690   40.0630 N   0  0  0  0  0  0  0  0  0  0  0  0
   36.5520   32.1930   41.1750 H   0  0  0  0  0  0  0  0  0  0  0  0
   37.3740   33.7270   39.5260 H   0  0  0  0  0  0  0  0  0  0  0  0
   40.4930   31.0600   38.5330 H   0  0  0  0  0  0  0  0  0  0  0  0
   36.0390   28.6290   40.2880 C   0  0  0  0  0  0  0  0  0  0  0  0
   35.9560   28.2920   38.9780 N   0  0  0  0  0  0  0  0  0  0  0  0
   34.7140   28.6460   38.5400 C   0  0  0  0  0  0  0  0  0  0  0  0
   34.3150   28.5170   37.5350 H   0  0  0  0  0  0  0  0  0  0  0  0
   34.0430   29.1950   39.5780 N   0  0  0  0  0  0  0  0  0  0  0  0
   33.0700   29.5800   39.6190 H   0  0  0  0  0  0  0  0  0  0  0  0
   34.8480   29.1830   40.6350 N   0  0  0  0  0  0  0  0  0  0  0  0
  1  7  1  1  0  0  0
  1  2  1  0  0  0  0
  2  3  1  0  0  0  0
  2  8  1  0  0  0  0
  3 10  1  0  0  0  0
  4  3  1  0  0  0  0
  4 12  1  0  0  0  0
  5 15  1  0  0  0  0
  5  4  1  0  0  0  0
  6 16  1  6  0  0  0
  6  1  1  0  0  0  0
  6  5  1  0  0  0  0
  9  2  1  0  0  0  0
 11  3  1  0  0  0  0
 13  4  1  0  0  0  0
 14  5  1  0  0  0  0
 17  1  1  0  0  0  0
 18 17  1  0  0  0  0
 18 23  1  0  0  0  0
 19 18  2  0  0  0  0
 20 21  2  0  0  0  0
 20 19  1  0  0  0  0
 21 22  1  0  0  0  0
 22 17  2  0  0  0  0
 24 19  1  0  0  0  0
 25 21  1  0  0  0  0
 26 32  2  0  0  0  0
 26  6  1  0  0  0  0
 27 26  1  0  0  0  0
 28 27  2  0  0  0  0
 28 30  1  0  0  0  0
 29 28  1  0  0  0  0
 30 31  1  0  0  0  0
 30 32  1  0  0  0  0
M  END
>  <minimizedAffinity>
-4.70381403

$$$$

 OpenBabel03242511553D

 32 34  0  0  1  0  0  0  0  0999 V2000
   38.0640   25.7450   40.7240 C   0  0  2  0  0  0  0  0  0  0  0  0
   36.8370   25.4900   39.9400 C   0  0  0  0  0  0  0  0  0  0  0  0
   36.1690   24.1920   40.2780 C   0  0  0  0  0  0  0  0  0  0  0  0
   37.1070   23.0010   40.2030 C   0  0  0  0  0  0  0  0  0  0  0  0
   38.4900   23.2830   40.7160 C   0  0  0  0  0  0  0  0  0  0  0  0
   38.5360   24.5480   41.5360 C   0  0  1  0  0  0  0  0  0  0  0  0
   38.9570   26.0080   40.0840 H   0  0  0  0  0  0  0  0  0  0  0  0
   37.0660   25.5070   38.8480 H   0  0  0  0  0  0  0  0  0  0  0  0
   36.0930   26.2860   40.1810 H   0  0  0  0  0  0  0  0  0  0  0  0
   35.4490   24.0060   39.4240 H   0  0  0  0  0  0  0  0  0  0  0  0
   35.5410   24.1820   41.1640 H   0  0  0  0  0  0  0  0  0  0  0  0
   37.1440   22.5420   39.1900 H   0  0  0  0  0  0  0  0  0  0  0  0
   36.6580   22.2140   40.8620 H   0  0  0  0  0  0  0  0  0  0  0  0
   38.8920   22.4590   41.3110 H   0  0  0  0  0  0  0  0  0  0  0  0
   39.1360   23.4810   39.8240 H   0  0  0  0  0  0  0  0  0  0  0  0
   37.9340   24.5240   42.4440 H   0  0  0  0  0  0  0  0  0  0  0  0
   37.9080   26.8800   41.6550 C   0  0  0  0  0  0  0  0  0  0  0  0
   37.0250   26.6670   42.7310 C   0  0  0  0  0  0  0  0  0  0  0  0
   36.8050   27.6790   43.6730 C   0  0  0  0  0  0  0  0  0  0  0  0
   37.4930   28.8500   43.4740 N   0  0  0  0  0  0  0  0  0  0  0  0
   38.3400   29.0320   42.4300 C   0  0  0  0  0  0  0  0  0  0  0  0
   38.5430   28.0430   41.5250 N   0  0  0  0  0  0  0  0  0  0  0  0
   36.4460   25.7860   42.9620 H   0  0  0  0  0  0  0  0  0  0  0  0
   36.1480   27.5890   44.5160 H   0  0  0  0  0  0  0  0  0  0  0  0
   38.8530   29.9820   42.3300 H   0  0  0  0  0  0  0  0  0  0  0  0
   39.9450   24.7820   41.9520 C   0  0  0  0  0  0  0  0  0  0  0  0
   40.9550   25.1040   41.1070 N   0  0  0  0  0  0  0  0  0  0  0  0
   42.0890   25.2380   41.8530 C   0  0  0  0  0  0  0  0  0  0  0  0
   43.0830   25.4920   41.4880 H   0  0  0  0  0  0  0  0  0  0  0  0
   41.7720   24.9990   43.1450 N   0  0  0  0  0  0  0  0  0  0  0  0
   42.3800   25.0100   43.9970 H   0  0  0  0  0  0  0  0  0  0  0  0
   40.4740   24.7240   43.2020 N   0  0  0  0  0  0  0  0  0  0  0  0
  1  7  1  6  0  0  0
  1  6  1  0  0  0  0
  1 17  1  0  0  0  0
  2  9  1  0  0  0  0
  2  3  1  0  0  0  0
  2  1  1  0  0  0  0
  3 11  1  0  0  0  0
  4  3  1  0  0  0  0
  4  5  1  0  0  0  0
  4 13  1  0  0  0  0
  5 14  1  0  0  0  0
  5  6  1  0  0  0  0
  6 26  1  0  0  0  0
  6 16  1  1  0  0  0
  8  2  1  0  0  0  0
 10  3  1  0  0  0  0
 12  4  1  0  0  0  0
 15  5  1  0  0  0  0
 17 18  1  0  0  0  0
 18 23  1  0  0  0  0
 18 19  2  0  0  0  0
 19 24  1  0  0  0  0
 20 19  1  0  0  0  0
 21 20  2  0  0  0  0
 22 17  2  0  0  0  0
 22 21  1  0  0  0  0
 25 21  1  0  0  0  0
 26 32  2  0  0  0  0
 27 28  2  0  0  0  0
 27 26  1  0  0  0  0
 28 30  1  0  0  0  0
 29 28  1  0  0  0  0
 30 32  1  0  0  0  0
 30 31  1  0  0  0  0
M  END
>  <minimizedAffinity>
-4.59057951

$$$$

 OpenBabel03242511553D

 32 34  0  0  1  0  0  0  0  0999 V2000
   37.6390   29.8110   38.8170 C   0  0  2  0  0  0  0  0  0  0  0  0
   37.4160   29.7660   37.3550 C   0  0  0  0  0  0  0  0  0  0  0  0
   35.9820   29.5600   36.9740 C   0  0  0  0  0  0  0  0  0  0  0  0
   35.3520   28.3540   37.6460 C   0  0  0  0  0  0  0  0  0  0  0  0
   35.7790   28.1620   39.0730 C   0  0  0  0  0  0  0  0  0  0  0  0
   36.4240   29.4030   39.6370 C   0  0  1  0  0  0  0  0  0  0  0  0
   38.4510   29.1080   39.1670 H   0  0  0  0  0  0  0  0  0  0  0  0
   38.0340   28.9590   36.8960 H   0  0  0  0  0  0  0  0  0  0  0  0
   37.7070   30.7540   36.9250 H   0  0  0  0  0  0  0  0  0  0  0  0
   36.0130   29.2590   35.8820 H   0  0  0  0  0  0  0  0  0  0  0  0
   35.3410   30.4380   36.9910 H   0  0  0  0  0  0  0  0  0  0  0  0
   35.4840   27.4150   37.0620 H   0  0  0  0  0  0  0  0  0  0  0  0
   34.2490   28.5430   37.6470 H   0  0  0  0  0  0  0  0  0  0  0  0
   34.9500   27.8660   39.7210 H   0  0  0  0  0  0  0  0  0  0  0  0
   36.5810   27.3810   39.0740 H   0  0  0  0  0  0  0  0  0  0  0  0
   35.7690   30.2730   39.6870 H   0  0  0  0  0  0  0  0  0  0  0  0
   38.0580   31.1480   39.2790 C   0  0  0  0  0  0  0  0  0  0  0  0
   37.0930   32.1650   39.1560 C   0  0  0  0  0  0  0  0  0  0  0  0
   37.3880   33.4710   39.5650 C   0  0  0  0  0  0  0  0  0  0  0  0
   38.6450   33.6730   40.0780 N   0  0  0  0  0  0  0  0  0  0  0  0
   39.5600   32.6780   40.1870 C   0  0  0  0  0  0  0  0  0  0  0  0
   39.2600   31.4180   39.7860 N   0  0  0  0  0  0  0  0  0  0  0  0
   36.0890   32.0960   38.7660 H   0  0  0  0  0  0  0  0  0  0  0  0
   36.7040   34.2950   39.5010 H   0  0  0  0  0  0  0  0  0  0  0  0
   40.5360   32.9040   40.6020 H   0  0  0  0  0  0  0  0  0  0  0  0
   36.8660   29.1080   41.0260 C   0  0  0  0  0  0  0  0  0  0  0  0
   37.5180   27.9820   41.4040 N   0  0  0  0  0  0  0  0  0  0  0  0
   37.7550   28.0740   42.7450 C   0  0  0  0  0  0  0  0  0  0  0  0
   38.2600   27.3380   43.3690 H   0  0  0  0  0  0  0  0  0  0  0  0
   37.2500   29.2500   43.1810 N   0  0  0  0  0  0  0  0  0  0  0  0
   37.2440   29.6600   44.1440 H   0  0  0  0  0  0  0  0  0  0  0  0
   36.7130   29.8740   42.1390 N   0  0  0  0  0  0  0  0  0  0  0  0
  1  7  1  1  0  0  0
  1 17  1  0  0  0  0
  1  6  1  0  0  0  0
  2  1  1  0  0  0  0
  3 11  1  0  0  0  0
  3  2  1  0  0  0  0
  3  4  1  0  0  0  0
  4 13  1  0  0  0  0
  4  5  1  0  0  0  0
  5 15  1  0  0  0  0
  5  6  1  0  0  0  0
  5 14  1  0  0  0  0
  6 16  1  1  0  0  0
  6 26  1  0  0  0  0
  8  2  1  0  0  0  0
  9  2  1  0  0  0  0
 10  3  1  0  0  0  0
 12  4  1  0  0  0  0
 17 22  1  0  0  0  0
 18 17  2  0  0  0  0
 18 19  1  0  0  0  0
 19 20  2  0  0  0  0
 20 21  1  0  0  0  0
 21 25  1  0  0  0  0
 22 21  2  0  0  0  0
 23 18  1  0  0  0  0
 24 19  1  0  0  0  0
 26 27  1  0  0  0  0
 26 32  2  0  0  0  0
 27 28  2  0  0  0  0
 28 30  1  0  0  0  0
 28 29  1  0  0  0  0
 30 31  1  0  0  0  0
 32 30  1  0  0  0  0
M  END
>  <minimizedAffinity>
-4.58758926

$$$$

 OpenBabel03242511553D

 32 34  0  0  1  0  0  0  0  0999 V2000
   37.1170   30.6310   39.9680 C   0  0  2  0  0  0  0  0  0  0  0  0
   35.8090   30.1900   40.4980 C   0  0  0  0  0  0  0  0  0  0  0  0
   35.2440   28.9990   39.7850 C   0  0  0  0  0  0  0  0  0  0  0  0
   35.1750   29.1820   38.2800 C   0  0  0  0  0  0  0  0  0  0  0  0
   36.3570   29.9060   37.7010 C   0  0  0  0  0  0  0  0  0  0  0  0
   37.5150   29.9510   38.6670 C   0  0  1  0  0  0  0  0  0  0  0  0
   37.1510   31.7320   39.7200 H   0  0  0  0  0  0  0  0  0  0  0  0
   35.0710   31.0260   40.4490 H   0  0  0  0  0  0  0  0  0  0  0  0
   35.9470   29.8720   41.5590 H   0  0  0  0  0  0  0  0  0  0  0  0
   34.1540   28.9700   40.0900 H   0  0  0  0  0  0  0  0  0  0  0  0
   35.6300   28.0270   40.0780 H   0  0  0  0  0  0  0  0  0  0  0  0
   34.2210   29.6450   37.9430 H   0  0  0  0  0  0  0  0  0  0  0  0
   35.1670   28.1500   37.8450 H   0  0  0  0  0  0  0  0  0  0  0  0
   36.6960   29.4670   36.7590 H   0  0  0  0  0  0  0  0  0  0  0  0
   36.0490   30.9710   37.5540 H   0  0  0  0  0  0  0  0  0  0  0  0
   37.9240   28.9760   38.9310 H   0  0  0  0  0  0  0  0  0  0  0  0
   38.2130   30.4190   40.9340 C   0  0  0  0  0  0  0  0  0  0  0  0
   38.4850   29.0760   41.2600 C   0  0  0  0  0  0  0  0  0  0  0  0
   39.5050   28.7630   42.1660 C   0  0  0  0  0  0  0  0  0  0  0  0
   40.1940   29.8280   42.6900 N   0  0  0  0  0  0  0  0  0  0  0  0
   39.9150   31.1140   42.3610 C   0  0  0  0  0  0  0  0  0  0  0  0
   38.9240   31.4010   41.4830 N   0  0  0  0  0  0  0  0  0  0  0  0
   37.9960   28.1840   40.8990 H   0  0  0  0  0  0  0  0  0  0  0  0
   39.7680   27.7660   42.4610 H   0  0  0  0  0  0  0  0  0  0  0  0
   40.4980   31.9100   42.8110 H   0  0  0  0  0  0  0  0  0  0  0  0
   38.6140   30.7320   38.0400 C   0  0  0  0  0  0  0  0  0  0  0  0
   39.9260   30.3960   38.0950 N   0  0  0  0  0  0  0  0  0  0  0  0
   40.6240   31.3460   37.4080 C   0  0  0  0  0  0  0  0  0  0  0  0
   41.7010   31.3810   37.2560 H   0  0  0  0  0  0  0  0  0  0  0  0
   39.7420   32.2560   36.9370 N   0  0  0  0  0  0  0  0  0  0  0  0
   39.9090   33.1200   36.3690 H   0  0  0  0  0  0  0  0  0  0  0  0
   38.5270   31.8820   37.3200 N   0  0  0  0  0  0  0  0  0  0  0  0
  1  7  1  6  0  0  0
  1  2  1  0  0  0  0
  1 17  1  0  0  0  0
  2  9  1  0  0  0  0
  3 11  1  0  0  0  0
  3 10  1  0  0  0  0
  3  2  1  0  0  0  0
  4  3  1  0  0  0  0
  5  4  1  0  0  0  0
  5  6  1  0  0  0  0
  6 16  1  1  0  0  0
  6  1  1  0  0  0  0
  8  2  1  0  0  0  0
 12  4  1  0  0  0  0
 13  4  1  0  0  0  0
 14  5  1  0  0  0  0
 15  5  1  0  0  0  0
 17 18  2  0  0  0  0
 17 22  1  0  0  0  0
 18 19  1  0  0  0  0
 19 24  1  0  0  0  0
 19 20  2  0  0  0  0
 21 20  1  0  0  0  0
 21 25  1  0  0  0  0
 22 21  2  0  0  0  0
 23 18  1  0  0  0  0
 26 27  1  0  0  0  0
 26  6  1  0  0  0  0
 28 27  2  0  0  0  0
 29 28  1  0  0  0  0
 30 32  1  0  0  0  0
 30 28  1  0  0  0  0
 31 30  1  0  0  0  0
 32 26  2  0  0  0  0
M  END
>  <minimizedAffinity>
-4.57145452

$$$$

 OpenBabel03242511553D

 32 34  0  0  1  0  0  0  0  0999 V2000
   37.0400   30.1700   39.5560 C   0  0  2  0  0  0  0  0  0  0  0  0
   36.3100   29.1660   38.7520 C   0  0  0  0  0  0  0  0  0  0  0  0
   36.8620   28.9870   37.3710 C   0  0  0  0  0  0  0  0  0  0  0  0
   36.9900   30.2910   36.6050 C   0  0  0  0  0  0  0  0  0  0  0  0
   37.4470   31.4480   37.4470 C   0  0  0  0  0  0  0  0  0  0  0  0
   38.0420   30.9880   38.7550 C   0  0  1  0  0  0  0  0  0  0  0  0
   36.3650   30.9480   40.0200 H   0  0  0  0  0  0  0  0  0  0  0  0
   35.2310   29.4410   38.6800 H   0  0  0  0  0  0  0  0  0  0  0  0
   36.4130   28.1730   39.2520 H   0  0  0  0  0  0  0  0  0  0  0  0
   36.0510   28.4350   36.8050 H   0  0  0  0  0  0  0  0  0  0  0  0
   37.7370   28.3500   37.2740 H   0  0  0  0  0  0  0  0  0  0  0  0
   36.0680   30.5520   36.0380 H   0  0  0  0  0  0  0  0  0  0  0  0
   37.7720   30.1130   35.8240 H   0  0  0  0  0  0  0  0  0  0  0  0
   38.1730   32.0800   36.9290 H   0  0  0  0  0  0  0  0  0  0  0  0
   36.5360   32.0340   37.7230 H   0  0  0  0  0  0  0  0  0  0  0  0
   38.9410   30.3790   38.6560 H   0  0  0  0  0  0  0  0  0  0  0  0
   37.7660   29.5620   40.6870 C   0  0  0  0  0  0  0  0  0  0  0  0
   37.1580   29.7070   41.9490 C   0  0  0  0  0  0  0  0  0  0  0  0
   37.7640   29.1670   43.0900 C   0  0  0  0  0  0  0  0  0  0  0  0
   38.9510   28.5090   42.8890 N   0  0  0  0  0  0  0  0  0  0  0  0
   39.5190   28.3820   41.6630 C   0  0  0  0  0  0  0  0  0  0  0  0
   38.9210   28.9110   40.5680 N   0  0  0  0  0  0  0  0  0  0  0  0
   36.2330   30.2050   42.1970 H   0  0  0  0  0  0  0  0  0  0  0  0
   37.3590   29.2380   44.0810 H   0  0  0  0  0  0  0  0  0  0  0  0
   40.4590   27.8500   41.5730 H   0  0  0  0  0  0  0  0  0  0  0  0
   38.4130   32.1920   39.5460 C   0  0  0  0  0  0  0  0  0  0  0  0
   39.6850   32.5820   39.8040 N   0  0  0  0  0  0  0  0  0  0  0  0
   39.6230   33.7210   40.5520 C   0  0  0  0  0  0  0  0  0  0  0  0
   40.4650   34.2980   40.9320 H   0  0  0  0  0  0  0  0  0  0  0  0
   38.3200   34.0230   40.7480 N   0  0  0  0  0  0  0  0  0  0  0  0
   37.8890   34.8210   41.2710 H   0  0  0  0  0  0  0  0  0  0  0  0
   37.5910   33.0970   40.1390 N   0  0  0  0  0  0  0  0  0  0  0  0
  1  7  1  1  0  0  0
  1 17  1  0  0  0  0
  2  9  1  0  0  0  0
  2  1  1  0  0  0  0
  3  2  1  0  0  0  0
  4  3  1  0  0  0  0
  4  5  1  0  0  0  0
  5 15  1  0  0  0  0
  5  6  1  0  0  0  0
  6 16  1  6  0  0  0
  6 26  1  0  0  0  0
  6  1  1  0  0  0  0
  8  2  1  0  0  0  0
 10  3  1  0  0  0  0
 11  3  1  0  0  0  0
 12  4  1  0  0  0  0
 13  4  1  0  0  0  0
 14  5  1  0  0  0  0
 17 18  1  0  0  0  0
 18 23  1  0  0  0  0
 18 19  2  0  0  0  0
 19 24  1  0  0  0  0
 20 19  1  0  0  0  0
 21 20  2  0  0  0  0
 22 17  2  0  0  0  0
 22 21  1  0  0  0  0
 25 21  1  0  0  0  0
 26 27  1  0  0  0  0
 26 32  2  0  0  0  0
 27 28  2  0  0  0  0
 28 30  1  0  0  0  0
 28 29  1  0  0  0  0
 30 31  1  0  0  0  0
 32 30  1  0  0  0  0
M  END
>  <minimizedAffinity>
-4.56258345

$$$$

 OpenBabel03242511553D

 32 34  0  0  1  0  0  0  0  0999 V2000
   37.1660   31.1500   40.7430 C   0  0  2  0  0  0  0  0  0  0  0  0
   37.3620   32.5300   40.2480 C   0  0  0  0  0  0  0  0  0  0  0  0
   38.7720   32.8230   39.8350 C   0  0  0  0  0  0  0  0  0  0  0  0
   39.7910   32.4920   40.9110 C   0  0  0  0  0  0  0  0  0  0  0  0
   39.4830   31.2350   41.6720 C   0  0  0  0  0  0  0  0  0  0  0  0
   38.4620   30.3840   40.9600 C   0  0  1  0  0  0  0  0  0  0  0  0
   36.6520   31.1040   41.7470 H   0  0  0  0  0  0  0  0  0  0  0  0
   37.0510   33.2670   41.0270 H   0  0  0  0  0  0  0  0  0  0  0  0
   36.7420   32.6680   39.3310 H   0  0  0  0  0  0  0  0  0  0  0  0
   38.8260   33.9530   39.7700 H   0  0  0  0  0  0  0  0  0  0  0  0
   39.0720   32.4840   38.8480 H   0  0  0  0  0  0  0  0  0  0  0  0
   39.9790   33.3420   41.6050 H   0  0  0  0  0  0  0  0  0  0  0  0
   40.7620   32.3330   40.3760 H   0  0  0  0  0  0  0  0  0  0  0  0
   40.3760   30.6330   41.8640 H   0  0  0  0  0  0  0  0  0  0  0  0
   38.9990   31.5430   42.6330 H   0  0  0  0  0  0  0  0  0  0  0  0
   38.7780   30.0140   39.9840 H   0  0  0  0  0  0  0  0  0  0  0  0
   36.3210   30.3470   39.8380 C   0  0  0  0  0  0  0  0  0  0  0  0
   36.7480   30.2870   38.4980 C   0  0  0  0  0  0  0  0  0  0  0  0
   36.0180   29.5510   37.5570 C   0  0  0  0  0  0  0  0  0  0  0  0
   34.8960   28.9150   38.0270 N   0  0  0  0  0  0  0  0  0  0  0  0
   34.5030   28.9860   39.3230 C   0  0  0  0  0  0  0  0  0  0  0  0
   35.2200   29.7030   40.2230 N   0  0  0  0  0  0  0  0  0  0  0  0
   37.6100   30.7540   38.0460 H   0  0  0  0  0  0  0  0  0  0  0  0
   36.2830   29.4620   36.5210 H   0  0  0  0  0  0  0  0  0  0  0  0
   33.6070   28.4590   39.6290 H   0  0  0  0  0  0  0  0  0  0  0  0
   38.1740   29.1950   41.8060 C   0  0  0  0  0  0  0  0  0  0  0  0
   37.7130   29.2490   43.0790 N   0  0  0  0  0  0  0  0  0  0  0  0
   37.5730   27.9660   43.5210 C   0  0  0  0  0  0  0  0  0  0  0  0
   37.2220   27.6490   44.5020 H   0  0  0  0  0  0  0  0  0  0  0  0
   37.9460   27.1350   42.5220 N   0  0  0  0  0  0  0  0  0  0  0  0
   37.9720   26.0880   42.4950 H   0  0  0  0  0  0  0  0  0  0  0  0
   38.3100   27.8810   41.4860 N   0  0  0  0  0  0  0  0  0  0  0  0
  1  6  1  0  0  0  0
  1  7  1  1  0  0  0
  2  1  1  0  0  0  0
  2  8  1  0  0  0  0
  3  2  1  0  0  0  0
  3  4  1  0  0  0  0
  4 12  1  0  0  0  0
  4  5  1  0  0  0  0
  5 14  1  0  0  0  0
  5 15  1  0  0  0  0
  6 16  1  6  0  0  0
  6  5  1  0  0  0  0
  6 26  1  0  0  0  0
  9  2  1  0  0  0  0
 10  3  1  0  0  0  0
 11  3  1  0  0  0  0
 13  4  1  0  0  0  0
 17 22  1  0  0  0  0
 17  1  1  0  0  0  0
 18 17  2  0  0  0  0
 19 20  2  0  0  0  0
 19 18  1  0  0  0  0
 20 21  1  0  0  0  0
 21 25  1  0  0  0  0
 21 22  2  0  0  0  0
 23 18  1  0  0  0  0
 24 19  1  0  0  0  0
 26 27  1  0  0  0  0
 27 28  2  0  0  0  0
 28 29  1  0  0  0  0
 30 28  1  0  0  0  0
 31 30  1  0  0  0  0
 32 26  2  0  0  0  0
 32 30  1  0  0  0  0
M  END
>  <minimizedAffinity>
-4.52758598

$$$$
