
 OpenBabel03252508133D

 35 38  0  0  1  0  0  0  0  0999 V2000
   46.1780   30.8560   46.7960 C   0  0  0  0  0  0  0  0  0  0  0  0
   47.1500   30.3500   46.7600 H   0  0  0  0  0  0  0  0  0  0  0  0
   45.3860   30.1110   46.5520 H   0  0  0  0  0  0  0  0  0  0  0  0
   45.9530   31.5190   48.1280 C   0  0  1  0  0  0  0  0  0  0  0  0
   45.7140   30.6110   49.2830 C   0  0  0  0  0  0  0  0  0  0  0  0
   46.9580   31.3550   49.2050 C   0  0  1  0  0  0  0  0  0  0  0  0
   45.4430   32.4970   48.1080 H   0  0  0  0  0  0  0  0  0  0  0  0
   45.6560   29.5100   49.0670 H   0  0  0  0  0  0  0  0  0  0  0  0
   44.9040   30.9070   49.9910 H   0  0  0  0  0  0  0  0  0  0  0  0
   47.0440   32.1980   49.9560 H   0  0  0  0  0  0  0  0  0  0  0  0
   48.2690   30.7680   48.8450 C   0  0  0  0  0  0  0  0  0  0  0  0
   49.1790   30.4260   50.0510 C   0  0  0  0  0  0  0  0  0  0  0  0
   49.5120   31.6120   49.2170 C   0  0  0  0  0  0  0  0  0  0  0  0
   48.3570   30.1070   47.9620 H   0  0  0  0  0  0  0  0  0  0  0  0
   48.7590   30.5810   51.0560 H   0  0  0  0  0  0  0  0  0  0  0  0
   49.8070   29.5100   49.8920 H   0  0  0  0  0  0  0  0  0  0  0  0
   50.3550   31.5090   48.4720 H   0  0  0  0  0  0  0  0  0  0  0  0
   49.3010   32.6110   49.6020 H   0  0  0  0  0  0  0  0  0  0  0  0
   45.8310   33.0740   46.0640 C   0  0  0  0  0  3  0  0  0  0  0  0
   46.0700   31.8810   45.6800 C   0  0  0  0  0  3  0  0  0  0  0  0
   44.6310   36.0140   44.1960 C   0  0  0  0  0  0  0  0  0  0  0  0
   45.4380   36.0250   43.0680 C   0  0  0  0  0  0  0  0  0  0  0  0
   46.3770   35.0410   42.9830 C   0  0  0  0  0  0  0  0  0  0  0  0
   46.4840   34.1150   43.9730 N   0  0  0  0  0  0  0  0  0  0  0  0
   45.6860   34.1240   45.0580 C   0  0  0  0  0  0  0  0  0  0  0  0
   44.7650   35.0920   45.1420 N   0  0  0  0  0  0  0  0  0  0  0  0
   43.8450   36.7230   44.4070 H   0  0  0  0  0  0  0  0  0  0  0  0
   45.2880   36.7840   42.3420 H   0  0  0  0  0  0  0  0  0  0  0  0
   47.2630   34.9940   41.8210 C   0  0  0  0  0  0  0  0  0  0  0  0
   46.9970   34.2710   40.7060 N   0  0  0  0  0  0  0  0  0  0  0  0
   48.0260   34.4560   39.8340 C   0  0  0  0  0  0  0  0  0  0  0  0
   48.1270   34.0180   38.8440 H   0  0  0  0  0  0  0  0  0  0  0  0
   48.9220   35.2910   40.4130 N   0  0  0  0  0  0  0  0  0  0  0  0
   49.8330   35.6390   40.0080 H   0  0  0  0  0  0  0  0  0  0  0  0
   48.4410   35.6090   41.6230 N   0  0  0  0  0  0  0  0  0  0  0  0
  1  4  1  0  0  0  0
  2  1  1  0  0  0  0
  3  1  1  0  0  0  0
  4  7  1  6  0  0  0
  4  6  1  0  0  0  0
  4  5  1  0  0  0  0
  5  9  1  0  0  0  0
  6  5  1  0  0  0  0
  6 10  1  1  0  0  0
  8  5  1  0  0  0  0
 11  6  1  0  0  0  0
 11 13  1  0  0  0  0
 11 12  1  0  0  0  0
 12 15  1  0  0  0  0
 13 18  1  0  0  0  0
 13 12  1  0  0  0  0
 14 11  1  0  0  0  0
 16 12  1  0  0  0  0
 17 13  1  0  0  0  0
 20 19  2  0  0  0  0
 20  1  1  0  0  0  0
 21 27  1  0  0  0  0
 21 26  1  0  0  0  0
 22 21  2  0  0  0  0
 23 22  1  0  0  0  0
 23 24  2  0  0  0  0
 24 25  1  0  0  0  0
 25 26  2  0  0  0  0
 25 19  1  0  0  0  0
 28 22  1  0  0  0  0
 29 23  1  0  0  0  0
 30 29  1  0  0  0  0
 31 33  1  0  0  0  0
 31 30  2  0  0  0  0
 32 31  1  0  0  0  0
 33 35  1  0  0  0  0
 34 33  1  0  0  0  0
 35 29  2  0  0  0  0
M  END
>  <minimizedAffinity>
-5.9307003

>  <minimizedRMSD>
0.768708646

$$$$
