
 OpenBabel03252502143D

 35 38  0  0  0  0  0  0  0  0999 V2000
   37.6590   23.6310   41.2020 Cl  0  0  0  0  0  0  0  0  0  0  0  0
   36.9010   24.7550   40.1100 C   0  0  0  0  0  0  0  0  0  0  0  0
   37.0240   26.1030   40.2700 C   0  0  0  0  0  0  0  0  0  0  0  0
   36.3790   26.8800   39.3440 C   0  0  0  0  0  0  0  0  0  0  0  0
   35.6470   26.3770   38.3080 C   0  0  0  0  0  0  0  0  0  0  0  0
   35.5310   25.0240   38.1580 C   0  0  0  0  0  0  0  0  0  0  0  0
   36.1650   24.2090   39.0690 C   0  0  0  0  0  0  0  0  0  0  0  0
   35.1750   27.0740   37.6290 H   0  0  0  0  0  0  0  0  0  0  0  0
   34.9470   24.6280   37.3320 H   0  0  0  0  0  0  0  0  0  0  0  0
   36.0690   23.1350   38.9460 H   0  0  0  0  0  0  0  0  0  0  0  0
   38.0590   27.3700   43.6800 C   0  0  0  0  0  0  0  0  0  0  0  0
   37.2780   26.8840   42.6230 C   0  0  0  0  0  0  0  0  0  0  0  0
   37.8070   26.6050   41.3780 C   0  0  0  0  0  0  0  0  0  0  0  0
   39.1470   26.8370   41.2490 N   0  0  0  0  0  0  0  0  0  0  0  0
   39.8910   27.3000   42.2570 C   0  0  0  0  0  0  0  0  0  0  0  0
   39.3680   27.5650   43.4560 N   0  0  0  0  0  0  0  0  0  0  0  0
   37.6320   27.5870   44.6570 H   0  0  0  0  0  0  0  0  0  0  0  0
   36.2100   26.7210   42.7940 H   0  0  0  0  0  0  0  0  0  0  0  0
   40.9240   27.4190   41.9690 H   0  0  0  0  0  0  0  0  0  0  0  0
   36.4940   28.3480   39.4900 C   0  0  0  0  0  0  0  0  0  0  0  0
   35.5510   28.9770   40.3150 C   0  0  0  0  0  0  0  0  0  0  0  0
   35.7560   30.3350   40.3730 C   0  0  0  0  0  0  0  0  0  0  0  0
   36.7230   31.0560   39.7460 C   0  0  0  0  0  0  0  0  0  0  0  0
   37.6100   30.3390   38.9510 C   0  0  0  0  0  0  0  0  0  0  0  0
   37.4470   29.0070   38.8630 N   0  0  0  0  0  0  0  0  0  0  0  0
   34.7550   28.4770   40.8470 H   0  0  0  0  0  0  0  0  0  0  0  0
   35.0560   30.9300   41.0080 H   0  0  0  0  0  0  0  0  0  0  0  0
   36.8180   32.1090   39.8410 H   0  0  0  0  0  0  0  0  0  0  0  0
   38.6860   31.0100   38.2310 C   0  0  0  0  0  0  0  0  0  0  0  0
   39.9850   30.9260   38.4720 N   0  0  0  0  0  0  0  0  0  0  0  0
   40.6850   31.6950   37.5890 C   0  0  0  0  0  0  0  0  0  0  0  0
   41.7270   31.9240   37.4130 H   0  0  0  0  0  0  0  0  0  0  0  0
   39.7310   32.2540   36.7940 N   0  0  0  0  0  0  0  0  0  0  0  0
   39.7920   32.9110   35.9830 H   0  0  0  0  0  0  0  0  0  0  0  0
   38.5180   31.8410   37.1800 N   0  0  0  0  0  0  0  0  0  0  0  0
  2  3  1  0  0  0  0
  2  1  1  0  0  0  0
  3 13  1  0  0  0  0
  4 20  1  0  0  0  0
  4  3  2  0  0  0  0
  5  4  1  0  0  0  0
  6  5  2  0  0  0  0
  6  7  1  0  0  0  0
  7  2  2  0  0  0  0
  8  5  1  0  0  0  0
  9  6  1  0  0  0  0
 10  7  1  0  0  0  0
 11 17  1  0  0  0  0
 12 18  1  0  0  0  0
 12 11  2  0  0  0  0
 13 12  1  0  0  0  0
 14 13  2  0  0  0  0
 14 15  1  0  0  0  0
 15 16  2  0  0  0  0
 16 11  1  0  0  0  0
 19 15  1  0  0  0  0
 20 21  1  0  0  0  0
 21 22  2  0  0  0  0
 21 26  1  0  0  0  0
 22 27  1  0  0  0  0
 23 28  1  0  0  0  0
 23 22  1  0  0  0  0
 24 23  2  0  0  0  0
 25 24  1  0  0  0  0
 25 20  2  0  0  0  0
 29 30  1  0  0  0  0
 29 24  1  0  0  0  0
 31 30  2  0  0  0  0
 32 31  1  0  0  0  0
 33 35  1  0  0  0  0
 33 31  1  0  0  0  0
 34 33  1  0  0  0  0
 35 29  2  0  0  0  0
M  END
>  <minimizedAffinity>
-6.15732956

$$$$

 OpenBabel03252502143D

 35 38  0  0  0  0  0  0  0  0999 V2000
   35.8570   25.1870   37.2860 Cl  0  0  0  0  0  0  0  0  0  0  0  0
   35.6310   26.6480   38.2050 C   0  0  0  0  0  0  0  0  0  0  0  0
   36.3180   26.8840   39.3580 C   0  0  0  0  0  0  0  0  0  0  0  0
   36.0490   28.0700   39.9870 C   0  0  0  0  0  0  0  0  0  0  0  0
   35.1560   28.9910   39.5220 C   0  0  0  0  0  0  0  0  0  0  0  0
   34.4730   28.7440   38.3640 C   0  0  0  0  0  0  0  0  0  0  0  0
   34.7150   27.5620   37.7030 C   0  0  0  0  0  0  0  0  0  0  0  0
   35.0140   29.8990   40.0910 H   0  0  0  0  0  0  0  0  0  0  0  0
   33.7620   29.4810   37.9990 H   0  0  0  0  0  0  0  0  0  0  0  0
   34.1700   27.3700   36.7850 H   0  0  0  0  0  0  0  0  0  0  0  0
   37.8310   23.8530   41.0400 C   0  0  0  0  0  0  0  0  0  0  0  0
   36.9000   24.8040   40.6010 C   0  0  0  0  0  0  0  0  0  0  0  0
   37.2580   25.8880   39.8250 C   0  0  0  0  0  0  0  0  0  0  0  0
   38.5860   25.9690   39.5130 N   0  0  0  0  0  0  0  0  0  0  0  0
   39.4730   25.0630   39.9320 C   0  0  0  0  0  0  0  0  0  0  0  0
   39.1140   24.0190   40.6830 N   0  0  0  0  0  0  0  0  0  0  0  0
   37.5390   23.0020   41.6530 H   0  0  0  0  0  0  0  0  0  0  0  0
   35.8520   24.6790   40.8870 H   0  0  0  0  0  0  0  0  0  0  0  0
   40.4710   25.2910   39.5880 H   0  0  0  0  0  0  0  0  0  0  0  0
   36.7800   28.3550   41.2420 C   0  0  0  0  0  0  0  0  0  0  0  0
   36.3140   27.7210   42.4020 C   0  0  0  0  0  0  0  0  0  0  0  0
   37.0680   28.0610   43.5010 C   0  0  0  0  0  0  0  0  0  0  0  0
   38.1420   28.8940   43.5460 C   0  0  0  0  0  0  0  0  0  0  0  0
   38.5240   29.4730   42.3410 C   0  0  0  0  0  0  0  0  0  0  0  0
   37.8140   29.1710   41.2390 N   0  0  0  0  0  0  0  0  0  0  0  0
   35.4720   27.0470   42.4490 H   0  0  0  0  0  0  0  0  0  0  0  0
   36.7780   27.6060   44.4780 H   0  0  0  0  0  0  0  0  0  0  0  0
   38.6750   29.1080   44.4380 H   0  0  0  0  0  0  0  0  0  0  0  0
   39.6610   30.3840   42.2720 C   0  0  0  0  0  0  0  0  0  0  0  0
   40.9000   30.1500   42.6770 N   0  0  0  0  0  0  0  0  0  0  0  0
   41.6890   31.2390   42.4490 C   0  0  0  0  0  0  0  0  0  0  0  0
   42.7270   31.4950   42.6100 H   0  0  0  0  0  0  0  0  0  0  0  0
   40.8540   32.1530   41.8790 N   0  0  0  0  0  0  0  0  0  0  0  0
   41.0110   33.1270   41.5360 H   0  0  0  0  0  0  0  0  0  0  0  0
   39.6240   31.6370   41.7710 N   0  0  0  0  0  0  0  0  0  0  0  0
  1  2  1  0  0  0  0
  2  3  1  0  0  0  0
  3 13  1  0  0  0  0
  3  4  2  0  0  0  0
  4 20  1  0  0  0  0
  5  4  1  0  0  0  0
  5  8  1  0  0  0  0
  6  5  2  0  0  0  0
  7  2  2  0  0  0  0
  7  6  1  0  0  0  0
  9  6  1  0  0  0  0
 10  7  1  0  0  0  0
 11 17  1  0  0  0  0
 12 18  1  0  0  0  0
 12 11  2  0  0  0  0
 13 12  1  0  0  0  0
 14 13  2  0  0  0  0
 14 15  1  0  0  0  0
 15 16  2  0  0  0  0
 16 11  1  0  0  0  0
 19 15  1  0  0  0  0
 20 21  1  0  0  0  0
 21 26  1  0  0  0  0
 21 22  2  0  0  0  0
 22 23  1  0  0  0  0
 22 27  1  0  0  0  0
 23 28  1  0  0  0  0
 24 23  2  0  0  0  0
 25 20  2  0  0  0  0
 25 24  1  0  0  0  0
 29 24  1  0  0  0  0
 29 30  1  0  0  0  0
 31 32  1  0  0  0  0
 31 30  2  0  0  0  0
 33 31  1  0  0  0  0
 34 33  1  0  0  0  0
 35 33  1  0  0  0  0
 35 29  2  0  0  0  0
M  END
>  <minimizedAffinity>
-5.7511735

$$$$

 OpenBabel03252502143D

 35 38  0  0  0  0  0  0  0  0999 V2000
   37.6190   31.5760   37.3560 Cl  0  0  0  0  0  0  0  0  0  0  0  0
   36.9880   30.2050   38.2230 C   0  0  0  0  0  0  0  0  0  0  0  0
   37.5130   29.8090   39.4180 C   0  0  0  0  0  0  0  0  0  0  0  0
   36.9280   28.7150   39.9980 C   0  0  0  0  0  0  0  0  0  0  0  0
   35.8800   28.0330   39.4510 C   0  0  0  0  0  0  0  0  0  0  0  0
   35.3630   28.4400   38.2530 C   0  0  0  0  0  0  0  0  0  0  0  0
   35.9230   29.5350   37.6380 C   0  0  0  0  0  0  0  0  0  0  0  0
   35.4870   27.1810   39.9890 H   0  0  0  0  0  0  0  0  0  0  0  0
   34.5280   27.8930   37.8220 H   0  0  0  0  0  0  0  0  0  0  0  0
   35.5090   29.8540   36.6870 H   0  0  0  0  0  0  0  0  0  0  0  0
   39.5700   32.2880   41.3990 C   0  0  0  0  0  0  0  0  0  0  0  0
   38.4760   31.5840   40.8780 C   0  0  0  0  0  0  0  0  0  0  0  0
   38.6230   30.5520   39.9720 C   0  0  0  0  0  0  0  0  0  0  0  0
   39.9110   30.2660   39.6180 N   0  0  0  0  0  0  0  0  0  0  0  0
   40.9530   30.9380   40.1150 C   0  0  0  0  0  0  0  0  0  0  0  0
   40.7980   31.9330   40.9910 N   0  0  0  0  0  0  0  0  0  0  0  0
   39.4430   33.1000   42.1130 H   0  0  0  0  0  0  0  0  0  0  0  0
   37.4710   31.8650   41.2040 H   0  0  0  0  0  0  0  0  0  0  0  0
   41.8900   30.5710   39.7220 H   0  0  0  0  0  0  0  0  0  0  0  0
   37.4750   28.2600   41.2960 C   0  0  0  0  0  0  0  0  0  0  0  0
   36.7610   28.6260   42.4460 C   0  0  0  0  0  0  0  0  0  0  0  0
   37.3620   28.1490   43.5870 C   0  0  0  0  0  0  0  0  0  0  0  0
   38.4990   27.4100   43.6800 C   0  0  0  0  0  0  0  0  0  0  0  0
   39.1320   27.1000   42.4820 C   0  0  0  0  0  0  0  0  0  0  0  0
   38.5810   27.5470   41.3390 N   0  0  0  0  0  0  0  0  0  0  0  0
   35.8520   29.2090   42.4570 H   0  0  0  0  0  0  0  0  0  0  0  0
   36.8680   28.3860   44.5600 H   0  0  0  0  0  0  0  0  0  0  0  0
   38.9030   27.0770   44.6020 H   0  0  0  0  0  0  0  0  0  0  0  0
   40.3600   26.3130   42.4620 C   0  0  0  0  0  0  0  0  0  0  0  0
   41.4280   26.5130   41.7040 N   0  0  0  0  0  0  0  0  0  0  0  0
   42.3800   25.5730   41.9650 C   0  0  0  0  0  0  0  0  0  0  0  0
   43.3750   25.3510   41.6020 H   0  0  0  0  0  0  0  0  0  0  0  0
   41.8280   24.7860   42.9310 N   0  0  0  0  0  0  0  0  0  0  0  0
   42.1850   23.9450   43.4380 H   0  0  0  0  0  0  0  0  0  0  0  0
   40.6030   25.2330   43.2330 N   0  0  0  0  0  0  0  0  0  0  0  0
  1  2  1  0  0  0  0
  2  3  1  0  0  0  0
  3 13  1  0  0  0  0
  3  4  2  0  0  0  0
  4 20  1  0  0  0  0
  5  8  1  0  0  0  0
  5  4  1  0  0  0  0
  6  5  2  0  0  0  0
  7  2  2  0  0  0  0
  7  6  1  0  0  0  0
  9  6  1  0  0  0  0
 10  7  1  0  0  0  0
 11 17  1  0  0  0  0
 12 18  1  0  0  0  0
 12 11  2  0  0  0  0
 13 12  1  0  0  0  0
 14 13  2  0  0  0  0
 14 15  1  0  0  0  0
 15 16  2  0  0  0  0
 16 11  1  0  0  0  0
 19 15  1  0  0  0  0
 20 25  2  0  0  0  0
 20 21  1  0  0  0  0
 21 26  1  0  0  0  0
 21 22  2  0  0  0  0
 22 23  1  0  0  0  0
 22 27  1  0  0  0  0
 23 28  1  0  0  0  0
 24 23  2  0  0  0  0
 25 24  1  0  0  0  0
 29 24  1  0  0  0  0
 29 35  2  0  0  0  0
 30 31  2  0  0  0  0
 30 29  1  0  0  0  0
 31 33  1  0  0  0  0
 32 31  1  0  0  0  0
 33 35  1  0  0  0  0
 33 34  1  0  0  0  0
M  END
>  <minimizedAffinity>
-5.74355316

$$$$

 OpenBabel03252502143D

 35 38  0  0  0  0  0  0  0  0999 V2000
   35.9330   24.5170   38.6030 Cl  0  0  0  0  0  0  0  0  0  0  0  0
   36.5840   25.6050   39.7960 C   0  0  0  0  0  0  0  0  0  0  0  0
   36.5810   26.9550   39.6130 C   0  0  0  0  0  0  0  0  0  0  0  0
   37.1230   27.7010   40.6250 C   0  0  0  0  0  0  0  0  0  0  0  0
   37.6450   27.1670   41.7670 C   0  0  0  0  0  0  0  0  0  0  0  0
   37.6430   25.8110   41.9400 C   0  0  0  0  0  0  0  0  0  0  0  0
   37.1070   25.0270   40.9440 C   0  0  0  0  0  0  0  0  0  0  0  0
   38.0510   27.8410   42.5090 H   0  0  0  0  0  0  0  0  0  0  0  0
   38.0610   25.3900   42.8510 H   0  0  0  0  0  0  0  0  0  0  0  0
   37.1080   23.9510   41.0860 H   0  0  0  0  0  0  0  0  0  0  0  0
   34.2100   28.4800   37.0910 C   0  0  0  0  0  0  0  0  0  0  0  0
   34.7280   27.9660   38.2870 C   0  0  0  0  0  0  0  0  0  0  0  0
   36.0200   27.4910   38.3910 C   0  0  0  0  0  0  0  0  0  0  0  0
   36.7600   27.5580   37.2440 N   0  0  0  0  0  0  0  0  0  0  0  0
   36.2650   28.0470   36.1050 C   0  0  0  0  0  0  0  0  0  0  0  0
   35.0140   28.5040   36.0170 N   0  0  0  0  0  0  0  0  0  0  0  0
   33.1890   28.8520   37.0200 H   0  0  0  0  0  0  0  0  0  0  0  0
   34.0810   27.9420   39.1690 H   0  0  0  0  0  0  0  0  0  0  0  0
   36.9940   28.0200   35.3080 H   0  0  0  0  0  0  0  0  0  0  0  0
   37.1340   29.1720   40.4560 C   0  0  0  0  0  0  0  0  0  0  0  0
   36.1470   29.8940   41.1400 C   0  0  0  0  0  0  0  0  0  0  0  0
   36.2570   31.2450   40.9080 C   0  0  0  0  0  0  0  0  0  0  0  0
   37.1730   31.8820   40.1320 C   0  0  0  0  0  0  0  0  0  0  0  0
   38.1100   31.0750   39.4950 C   0  0  0  0  0  0  0  0  0  0  0  0
   38.0410   29.7470   39.6920 N   0  0  0  0  0  0  0  0  0  0  0  0
   35.3870   29.4640   41.7750 H   0  0  0  0  0  0  0  0  0  0  0  0
   35.5150   31.9100   41.4110 H   0  0  0  0  0  0  0  0  0  0  0  0
   37.1940   32.9350   40.0010 H   0  0  0  0  0  0  0  0  0  0  0  0
   39.1390   31.6520   38.6370 C   0  0  0  0  0  0  0  0  0  0  0  0
   40.3180   32.1260   39.0080 N   0  0  0  0  0  0  0  0  0  0  0  0
   41.0100   32.5830   37.9250 C   0  0  0  0  0  0  0  0  0  0  0  0
   41.9770   33.0360   37.7550 H   0  0  0  0  0  0  0  0  0  0  0  0
   40.1800   32.3570   36.8700 N   0  0  0  0  0  0  0  0  0  0  0  0
   40.2830   32.5420   35.8460 H   0  0  0  0  0  0  0  0  0  0  0  0
   39.0450   31.7920   37.2980 N   0  0  0  0  0  0  0  0  0  0  0  0
  1  2  1  0  0  0  0
  2  7  1  0  0  0  0
  3  2  2  0  0  0  0
  3  4  1  0  0  0  0
  4  5  2  0  0  0  0
  5  6  1  0  0  0  0
  5  8  1  0  0  0  0
  6  9  1  0  0  0  0
  7 10  1  0  0  0  0
  7  6  2  0  0  0  0
 11 12  1  0  0  0  0
 12 13  2  0  0  0  0
 12 18  1  0  0  0  0
 13  3  1  0  0  0  0
 14 13  1  0  0  0  0
 15 14  2  0  0  0  0
 16 15  1  0  0  0  0
 16 11  2  0  0  0  0
 17 11  1  0  0  0  0
 19 15  1  0  0  0  0
 20  4  1  0  0  0  0
 20 21  1  0  0  0  0
 21 26  1  0  0  0  0
 22 21  2  0  0  0  0
 22 27  1  0  0  0  0
 23 22  1  0  0  0  0
 24 25  1  0  0  0  0
 24 23  2  0  0  0  0
 25 20  2  0  0  0  0
 28 23  1  0  0  0  0
 29 30  1  0  0  0  0
 29 24  1  0  0  0  0
 31 30  2  0  0  0  0
 32 31  1  0  0  0  0
 33 35  1  0  0  0  0
 33 31  1  0  0  0  0
 34 33  1  0  0  0  0
 35 29  2  0  0  0  0
M  END
>  <minimizedAffinity>
-5.70765877

$$$$

 OpenBabel03252502143D

 35 38  0  0  0  0  0  0  0  0999 V2000
   36.9540   25.7760   40.4080 Cl  0  0  0  0  0  0  0  0  0  0  0  0
   37.2540   27.1830   41.3880 C   0  0  0  0  0  0  0  0  0  0  0  0
   37.5190   28.4000   40.8330 C   0  0  0  0  0  0  0  0  0  0  0  0
   37.7370   29.4260   41.7130 C   0  0  0  0  0  0  0  0  0  0  0  0
   37.6990   29.2860   43.0700 C   0  0  0  0  0  0  0  0  0  0  0  0
   37.4320   28.0610   43.6140 C   0  0  0  0  0  0  0  0  0  0  0  0
   37.2070   27.0040   42.7630 C   0  0  0  0  0  0  0  0  0  0  0  0
   37.8850   30.1590   43.6800 H   0  0  0  0  0  0  0  0  0  0  0  0
   37.4040   27.9540   44.6950 H   0  0  0  0  0  0  0  0  0  0  0  0
   36.9960   26.0330   43.1990 H   0  0  0  0  0  0  0  0  0  0  0  0
   38.7150   28.5560   37.2490 C   0  0  0  0  0  0  0  0  0  0  0  0
   38.7120   28.4390   38.6450 C   0  0  0  0  0  0  0  0  0  0  0  0
   37.5520   28.5160   39.3920 C   0  0  0  0  0  0  0  0  0  0  0  0
   36.4080   28.7140   38.6730 N   0  0  0  0  0  0  0  0  0  0  0  0
   36.4120   28.8250   37.3420 C   0  0  0  0  0  0  0  0  0  0  0  0
   37.5400   28.7490   36.6310 N   0  0  0  0  0  0  0  0  0  0  0  0
   39.6350   28.4940   36.6700 H   0  0  0  0  0  0  0  0  0  0  0  0
   39.6640   28.2820   39.1590 H   0  0  0  0  0  0  0  0  0  0  0  0
   35.4180   28.9770   36.9500 H   0  0  0  0  0  0  0  0  0  0  0  0
   38.0280   30.7610   41.1420 C   0  0  0  0  0  0  0  0  0  0  0  0
   36.9330   31.5000   40.6740 C   0  0  0  0  0  0  0  0  0  0  0  0
   37.3240   32.7180   40.1680 C   0  0  0  0  0  0  0  0  0  0  0  0
   38.5860   33.2190   40.0950 C   0  0  0  0  0  0  0  0  0  0  0  0
   39.6020   32.4080   40.5860 C   0  0  0  0  0  0  0  0  0  0  0  0
   39.2660   31.2070   41.0900 N   0  0  0  0  0  0  0  0  0  0  0  0
   35.9040   31.1740   40.6970 H   0  0  0  0  0  0  0  0  0  0  0  0
   36.5230   33.3850   39.7690 H   0  0  0  0  0  0  0  0  0  0  0  0
   38.8100   34.1730   39.6880 H   0  0  0  0  0  0  0  0  0  0  0  0
   40.9930   32.8450   40.5570 C   0  0  0  0  0  0  0  0  0  0  0  0
   41.9440   32.5480   41.4300 N   0  0  0  0  0  0  0  0  0  0  0  0
   43.1200   33.1390   41.0720 C   0  0  0  0  0  0  0  0  0  0  0  0
   44.1250   33.1740   41.4700 H   0  0  0  0  0  0  0  0  0  0  0  0
   42.8280   33.8150   39.9260 N   0  0  0  0  0  0  0  0  0  0  0  0
   43.4120   34.4100   39.2960 H   0  0  0  0  0  0  0  0  0  0  0  0
   41.5390   33.6380   39.6120 N   0  0  0  0  0  0  0  0  0  0  0  0
  1  2  1  0  0  0  0
  2  7  1  0  0  0  0
  3  2  2  0  0  0  0
  3  4  1  0  0  0  0
  4  5  2  0  0  0  0
  5  6  1  0  0  0  0
  5  8  1  0  0  0  0
  6  9  1  0  0  0  0
  7 10  1  0  0  0  0
  7  6  2  0  0  0  0
 11 12  1  0  0  0  0
 12 18  1  0  0  0  0
 12 13  2  0  0  0  0
 13  3  1  0  0  0  0
 14 13  1  0  0  0  0
 15 14  2  0  0  0  0
 16 11  2  0  0  0  0
 16 15  1  0  0  0  0
 17 11  1  0  0  0  0
 19 15  1  0  0  0  0
 20  4  1  0  0  0  0
 21 26  1  0  0  0  0
 21 20  2  0  0  0  0
 22 21  1  0  0  0  0
 23 22  2  0  0  0  0
 23 24  1  0  0  0  0
 24 25  2  0  0  0  0
 25 20  1  0  0  0  0
 27 22  1  0  0  0  0
 28 23  1  0  0  0  0
 29 24  1  0  0  0  0
 29 30  1  0  0  0  0
 31 30  2  0  0  0  0
 31 32  1  0  0  0  0
 33 31  1  0  0  0  0
 34 33  1  0  0  0  0
 35 33  1  0  0  0  0
 35 29  2  0  0  0  0
M  END
>  <minimizedAffinity>
-5.65427637

$$$$

 OpenBabel03252502143D

 35 38  0  0  0  0  0  0  0  0999 V2000
   41.2610   32.0560   39.7510 Cl  0  0  0  0  0  0  0  0  0  0  0  0
   41.2350   30.8310   40.9880 C   0  0  0  0  0  0  0  0  0  0  0  0
   40.1120   30.1090   41.2590 C   0  0  0  0  0  0  0  0  0  0  0  0
   40.2220   29.1770   42.2550 C   0  0  0  0  0  0  0  0  0  0  0  0
   41.3680   28.9490   42.9600 C   0  0  0  0  0  0  0  0  0  0  0  0
   42.4890   29.6790   42.6790 C   0  0  0  0  0  0  0  0  0  0  0  0
   42.4180   30.6270   41.6840 C   0  0  0  0  0  0  0  0  0  0  0  0
   41.3540   28.1890   43.7290 H   0  0  0  0  0  0  0  0  0  0  0  0
   43.3990   29.4940   43.2430 H   0  0  0  0  0  0  0  0  0  0  0  0
   43.3100   31.2040   41.4650 H   0  0  0  0  0  0  0  0  0  0  0  0
   37.3840   29.9420   38.6440 C   0  0  0  0  0  0  0  0  0  0  0  0
   38.5520   29.6640   39.3660 C   0  0  0  0  0  0  0  0  0  0  0  0
   38.9120   30.3740   40.4940 C   0  0  0  0  0  0  0  0  0  0  0  0
   38.0480   31.3680   40.8580 N   0  0  0  0  0  0  0  0  0  0  0  0
   36.9350   31.6320   40.1700 C   0  0  0  0  0  0  0  0  0  0  0  0
   36.5970   30.9380   39.0800 N   0  0  0  0  0  0  0  0  0  0  0  0
   37.1090   29.3760   37.7560 H   0  0  0  0  0  0  0  0  0  0  0  0
   39.2000   28.8540   39.0190 H   0  0  0  0  0  0  0  0  0  0  0  0
   36.3790   32.4480   40.6060 H   0  0  0  0  0  0  0  0  0  0  0  0
   39.0180   28.3760   42.5730 C   0  0  0  0  0  0  0  0  0  0  0  0
   38.0880   28.9540   43.4480 C   0  0  0  0  0  0  0  0  0  0  0  0
   37.0160   28.1210   43.6680 C   0  0  0  0  0  0  0  0  0  0  0  0
   36.8050   26.8840   43.1460 C   0  0  0  0  0  0  0  0  0  0  0  0
   37.7880   26.4000   42.2900 C   0  0  0  0  0  0  0  0  0  0  0  0
   38.8550   27.1800   42.0450 N   0  0  0  0  0  0  0  0  0  0  0  0
   38.1810   29.9290   43.9030 H   0  0  0  0  0  0  0  0  0  0  0  0
   36.2150   28.4910   44.3530 H   0  0  0  0  0  0  0  0  0  0  0  0
   35.9480   26.2980   43.3650 H   0  0  0  0  0  0  0  0  0  0  0  0
   37.6660   25.0840   41.6730 C   0  0  0  0  0  0  0  0  0  0  0  0
   36.7700   24.6990   40.7770 N   0  0  0  0  0  0  0  0  0  0  0  0
   36.9710   23.3950   40.4320 C   0  0  0  0  0  0  0  0  0  0  0  0
   36.5020   22.6860   39.7640 H   0  0  0  0  0  0  0  0  0  0  0  0
   38.0460   23.0080   41.1740 N   0  0  0  0  0  0  0  0  0  0  0  0
   38.5580   22.0990   41.2430 H   0  0  0  0  0  0  0  0  0  0  0  0
   38.4690   24.0290   41.9270 N   0  0  0  0  0  0  0  0  0  0  0  0
  1  2  1  0  0  0  0
  2  3  2  0  0  0  0
  2  7  1  0  0  0  0
  3  4  1  0  0  0  0
  4 20  1  0  0  0  0
  4  5  2  0  0  0  0
  5  8  1  0  0  0  0
  6  5  1  0  0  0  0
  6  9  1  0  0  0  0
  7  6  2  0  0  0  0
 10  7  1  0  0  0  0
 11 16  2  0  0  0  0
 11 12  1  0  0  0  0
 12 13  2  0  0  0  0
 13 14  1  0  0  0  0
 13  3  1  0  0  0  0
 15 19  1  0  0  0  0
 15 14  2  0  0  0  0
 16 15  1  0  0  0  0
 17 11  1  0  0  0  0
 18 12  1  0  0  0  0
 20 21  1  0  0  0  0
 21 22  2  0  0  0  0
 21 26  1  0  0  0  0
 22 27  1  0  0  0  0
 23 28  1  0  0  0  0
 23 22  1  0  0  0  0
 24 23  2  0  0  0  0
 25 24  1  0  0  0  0
 25 20  2  0  0  0  0
 29 35  2  0  0  0  0
 29 24  1  0  0  0  0
 30 29  1  0  0  0  0
 31 30  2  0  0  0  0
 31 33  1  0  0  0  0
 32 31  1  0  0  0  0
 33 34  1  0  0  0  0
 33 35  1  0  0  0  0
M  END
>  <minimizedAffinity>
-5.65062618

$$$$

 OpenBabel03252502143D

 35 38  0  0  0  0  0  0  0  0999 V2000
   36.5760   26.2090   39.9760 Cl  0  0  0  0  0  0  0  0  0  0  0  0
   36.4730   27.6760   39.0460 C   0  0  0  0  0  0  0  0  0  0  0  0
   37.1260   28.8120   39.4230 C   0  0  0  0  0  0  0  0  0  0  0  0
   36.9640   29.8990   38.6060 C   0  0  0  0  0  0  0  0  0  0  0  0
   36.2050   29.8900   37.4720 C   0  0  0  0  0  0  0  0  0  0  0  0
   35.5560   28.7460   37.1030 C   0  0  0  0  0  0  0  0  0  0  0  0
   35.6930   27.6320   37.8990 C   0  0  0  0  0  0  0  0  0  0  0  0
   36.1400   30.8010   36.8930 H   0  0  0  0  0  0  0  0  0  0  0  0
   34.9520   28.7440   36.1990 H   0  0  0  0  0  0  0  0  0  0  0  0
   35.1760   26.7250   37.6030 H   0  0  0  0  0  0  0  0  0  0  0  0
   38.2040   29.0100   43.0430 C   0  0  0  0  0  0  0  0  0  0  0  0
   37.4100   29.0380   41.8890 C   0  0  0  0  0  0  0  0  0  0  0  0
   37.9220   28.7890   40.6310 C   0  0  0  0  0  0  0  0  0  0  0  0
   39.2590   28.5130   40.5900 N   0  0  0  0  0  0  0  0  0  0  0  0
   40.0160   28.4870   41.6910 C   0  0  0  0  0  0  0  0  0  0  0  0
   39.5090   28.7290   42.9010 N   0  0  0  0  0  0  0  0  0  0  0  0
   37.7900   29.2080   44.0300 H   0  0  0  0  0  0  0  0  0  0  0  0
   36.3450   29.2670   41.9930 H   0  0  0  0  0  0  0  0  0  0  0  0
   41.0440   28.2510   41.4630 H   0  0  0  0  0  0  0  0  0  0  0  0
   37.6600   31.1480   38.9890 C   0  0  0  0  0  0  0  0  0  0  0  0
   37.0080   31.9760   39.9140 C   0  0  0  0  0  0  0  0  0  0  0  0
   37.7470   33.1020   40.1920 C   0  0  0  0  0  0  0  0  0  0  0  0
   38.9610   33.4450   39.6830 C   0  0  0  0  0  0  0  0  0  0  0  0
   39.5220   32.5560   38.7730 C   0  0  0  0  0  0  0  0  0  0  0  0
   38.8340   31.4410   38.4700 N   0  0  0  0  0  0  0  0  0  0  0  0
   36.0480   31.7750   40.3630 H   0  0  0  0  0  0  0  0  0  0  0  0
   37.3150   33.8280   40.9210 H   0  0  0  0  0  0  0  0  0  0  0  0
   39.4710   34.3370   39.9480 H   0  0  0  0  0  0  0  0  0  0  0  0
   40.8190   32.8240   38.1640 C   0  0  0  0  0  0  0  0  0  0  0  0
   41.6640   33.7960   38.4720 N   0  0  0  0  0  0  0  0  0  0  0  0
   42.7770   33.7270   37.6860 C   0  0  0  0  0  0  0  0  0  0  0  0
   43.6950   34.2900   37.5870 H   0  0  0  0  0  0  0  0  0  0  0  0
   42.5590   32.6520   36.8790 N   0  0  0  0  0  0  0  0  0  0  0  0
   43.1330   32.2170   36.1210 H   0  0  0  0  0  0  0  0  0  0  0  0
   41.3730   32.1020   37.1660 N   0  0  0  0  0  0  0  0  0  0  0  0
  2  3  1  0  0  0  0
  2  1  1  0  0  0  0
  3 13  1  0  0  0  0
  4 20  1  0  0  0  0
  4  3  2  0  0  0  0
  5  4  1  0  0  0  0
  6  5  2  0  0  0  0
  6  7  1  0  0  0  0
  7  2  2  0  0  0  0
  8  5  1  0  0  0  0
  9  6  1  0  0  0  0
 10  7  1  0  0  0  0
 11 17  1  0  0  0  0
 12 18  1  0  0  0  0
 12 11  2  0  0  0  0
 13 12  1  0  0  0  0
 14 13  2  0  0  0  0
 14 15  1  0  0  0  0
 15 16  2  0  0  0  0
 16 11  1  0  0  0  0
 19 15  1  0  0  0  0
 20 21  1  0  0  0  0
 21 22  2  0  0  0  0
 21 26  1  0  0  0  0
 22 27  1  0  0  0  0
 23 28  1  0  0  0  0
 23 22  1  0  0  0  0
 24 23  2  0  0  0  0
 25 24  1  0  0  0  0
 25 20  2  0  0  0  0
 29 30  1  0  0  0  0
 29 24  1  0  0  0  0
 31 30  2  0  0  0  0
 32 31  1  0  0  0  0
 33 35  1  0  0  0  0
 33 31  1  0  0  0  0
 34 33  1  0  0  0  0
 35 29  2  0  0  0  0
M  END
>  <minimizedAffinity>
-5.619771

$$$$

 OpenBabel03252502143D

 35 38  0  0  0  0  0  0  0  0999 V2000
   36.4780   23.7390   38.7820 Cl  0  0  0  0  0  0  0  0  0  0  0  0
   35.7910   25.2900   38.3910 C   0  0  0  0  0  0  0  0  0  0  0  0
   36.2430   26.4400   38.9660 C   0  0  0  0  0  0  0  0  0  0  0  0
   35.6190   27.5940   38.5740 C   0  0  0  0  0  0  0  0  0  0  0  0
   34.6030   27.6370   37.6640 C   0  0  0  0  0  0  0  0  0  0  0  0
   34.1580   26.4780   37.0940 C   0  0  0  0  0  0  0  0  0  0  0  0
   34.7600   25.2960   37.4630 C   0  0  0  0  0  0  0  0  0  0  0  0
   34.1740   28.6000   37.4200 H   0  0  0  0  0  0  0  0  0  0  0  0
   33.3480   26.5170   36.3700 H   0  0  0  0  0  0  0  0  0  0  0  0
   34.4030   24.3780   37.0070 H   0  0  0  0  0  0  0  0  0  0  0  0
   38.1900   26.0980   42.1900 C   0  0  0  0  0  0  0  0  0  0  0  0
   37.1270   26.1700   41.2810 C   0  0  0  0  0  0  0  0  0  0  0  0
   37.3210   26.3620   39.9270 C   0  0  0  0  0  0  0  0  0  0  0  0
   38.6250   26.4760   39.5360 N   0  0  0  0  0  0  0  0  0  0  0  0
   39.6380   26.4070   40.4040 C   0  0  0  0  0  0  0  0  0  0  0  0
   39.4370   26.2210   41.7100 N   0  0  0  0  0  0  0  0  0  0  0  0
   38.0250   25.9470   43.2560 H   0  0  0  0  0  0  0  0  0  0  0  0
   36.1060   26.0710   41.6610 H   0  0  0  0  0  0  0  0  0  0  0  0
   40.5930   26.5180   39.9130 H   0  0  0  0  0  0  0  0  0  0  0  0
   36.0870   28.8610   39.1810 C   0  0  0  0  0  0  0  0  0  0  0  0
   35.4300   29.2840   40.3450 C   0  0  0  0  0  0  0  0  0  0  0  0
   35.9490   30.4670   40.8160 C   0  0  0  0  0  0  0  0  0  0  0  0
   36.9650   31.1980   40.2850 C   0  0  0  0  0  0  0  0  0  0  0  0
   37.5500   30.6920   39.1290 C   0  0  0  0  0  0  0  0  0  0  0  0
   37.0750   29.5370   38.6320 N   0  0  0  0  0  0  0  0  0  0  0  0
   34.6180   28.7620   40.8280 H   0  0  0  0  0  0  0  0  0  0  0  0
   35.4940   30.8900   41.7430 H   0  0  0  0  0  0  0  0  0  0  0  0
   37.3110   32.1070   40.7080 H   0  0  0  0  0  0  0  0  0  0  0  0
   38.6490   31.3930   38.4740 C   0  0  0  0  0  0  0  0  0  0  0  0
   39.7850   31.7920   39.0230 N   0  0  0  0  0  0  0  0  0  0  0  0
   40.5700   32.4140   38.0960 C   0  0  0  0  0  0  0  0  0  0  0  0
   41.5440   32.8820   38.0910 H   0  0  0  0  0  0  0  0  0  0  0  0
   39.8400   32.3690   36.9470 N   0  0  0  0  0  0  0  0  0  0  0  0
   40.0340   32.7180   35.9810 H   0  0  0  0  0  0  0  0  0  0  0  0
   38.6750   31.7510   37.1720 N   0  0  0  0  0  0  0  0  0  0  0  0
  2  1  1  0  0  0  0
  2  3  1  0  0  0  0
  3 13  1  0  0  0  0
  4  3  2  0  0  0  0
  4 20  1  0  0  0  0
  5  4  1  0  0  0  0
  6  7  1  0  0  0  0
  6  5  2  0  0  0  0
  7  2  2  0  0  0  0
  8  5  1  0  0  0  0
  9  6  1  0  0  0  0
 10  7  1  0  0  0  0
 11 17  1  0  0  0  0
 12 18  1  0  0  0  0
 12 11  2  0  0  0  0
 13 12  1  0  0  0  0
 14 13  2  0  0  0  0
 14 15  1  0  0  0  0
 15 16  2  0  0  0  0
 16 11  1  0  0  0  0
 19 15  1  0  0  0  0
 20 21  1  0  0  0  0
 21 22  2  0  0  0  0
 21 26  1  0  0  0  0
 22 27  1  0  0  0  0
 23 28  1  0  0  0  0
 23 22  1  0  0  0  0
 24 23  2  0  0  0  0
 25 24  1  0  0  0  0
 25 20  2  0  0  0  0
 29 30  1  0  0  0  0
 29 24  1  0  0  0  0
 31 30  2  0  0  0  0
 32 31  1  0  0  0  0
 33 35  1  0  0  0  0
 33 31  1  0  0  0  0
 34 33  1  0  0  0  0
 35 29  2  0  0  0  0
M  END
>  <minimizedAffinity>
-5.59273577

$$$$

 OpenBabel03252502143D

 35 38  0  0  0  0  0  0  0  0999 V2000
   36.5820   29.9100   35.5990 Cl  0  0  0  0  0  0  0  0  0  0  0  0
   35.8630   29.4370   37.1120 C   0  0  0  0  0  0  0  0  0  0  0  0
   36.6070   29.2860   38.2440 C   0  0  0  0  0  0  0  0  0  0  0  0
   35.9220   28.9100   39.3690 C   0  0  0  0  0  0  0  0  0  0  0  0
   34.5760   28.6910   39.4010 C   0  0  0  0  0  0  0  0  0  0  0  0
   33.8400   28.8460   38.2600 C   0  0  0  0  0  0  0  0  0  0  0  0
   34.4920   29.2230   37.1080 C   0  0  0  0  0  0  0  0  0  0  0  0
   34.1270   28.3970   40.3400 H   0  0  0  0  0  0  0  0  0  0  0  0
   32.7670   28.6700   38.2910 H   0  0  0  0  0  0  0  0  0  0  0  0
   33.9030   29.3440   36.2050 H   0  0  0  0  0  0  0  0  0  0  0  0
   40.3360   28.8000   37.8450 C   0  0  0  0  0  0  0  0  0  0  0  0
   38.9610   28.5410   37.9030 C   0  0  0  0  0  0  0  0  0  0  0  0
   38.0320   29.5250   38.1780 C   0  0  0  0  0  0  0  0  0  0  0  0
   38.5500   30.7720   38.3890 N   0  0  0  0  0  0  0  0  0  0  0  0
   39.8610   31.0180   38.3340 C   0  0  0  0  0  0  0  0  0  0  0  0
   40.7490   30.0580   38.0670 N   0  0  0  0  0  0  0  0  0  0  0  0
   41.0600   28.0160   37.6270 H   0  0  0  0  0  0  0  0  0  0  0  0
   38.6140   27.5190   37.7240 H   0  0  0  0  0  0  0  0  0  0  0  0
   40.0810   32.0570   38.5260 H   0  0  0  0  0  0  0  0  0  0  0  0
   36.7030   28.7370   40.6140 C   0  0  0  0  0  0  0  0  0  0  0  0
   36.8870   29.8770   41.4080 C   0  0  0  0  0  0  0  0  0  0  0  0
   37.6240   29.5960   42.5340 C   0  0  0  0  0  0  0  0  0  0  0  0
   38.1440   28.3960   42.9080 C   0  0  0  0  0  0  0  0  0  0  0  0
   37.9050   27.3270   42.0520 C   0  0  0  0  0  0  0  0  0  0  0  0
   37.1890   27.5560   40.9370 N   0  0  0  0  0  0  0  0  0  0  0  0
   36.5070   30.8630   41.1820 H   0  0  0  0  0  0  0  0  0  0  0  0
   37.8260   30.4410   43.2360 H   0  0  0  0  0  0  0  0  0  0  0  0
   38.7050   28.2570   43.7980 H   0  0  0  0  0  0  0  0  0  0  0  0
   38.4150   25.9950   42.3530 C   0  0  0  0  0  0  0  0  0  0  0  0
   39.6070   25.6840   42.8400 N   0  0  0  0  0  0  0  0  0  0  0  0
   39.7240   24.3340   42.9900 C   0  0  0  0  0  0  0  0  0  0  0  0
   40.4880   23.6530   43.3400 H   0  0  0  0  0  0  0  0  0  0  0  0
   38.5280   23.8390   42.5640 N   0  0  0  0  0  0  0  0  0  0  0  0
   38.1590   22.8630   42.4960 H   0  0  0  0  0  0  0  0  0  0  0  0
   37.7330   24.8430   42.1780 N   0  0  0  0  0  0  0  0  0  0  0  0
  1  2  1  0  0  0  0
  2  3  1  0  0  0  0
  3  4  2  0  0  0  0
  4  5  1  0  0  0  0
  4 20  1  0  0  0  0
  5  8  1  0  0  0  0
  6  9  1  0  0  0  0
  6  5  2  0  0  0  0
  7  2  2  0  0  0  0
  7  6  1  0  0  0  0
 10  7  1  0  0  0  0
 11 12  2  0  0  0  0
 11 16  1  0  0  0  0
 12 13  1  0  0  0  0
 13  3  1  0  0  0  0
 13 14  2  0  0  0  0
 15 14  1  0  0  0  0
 15 19  1  0  0  0  0
 16 15  2  0  0  0  0
 17 11  1  0  0  0  0
 18 12  1  0  0  0  0
 20 25  2  0  0  0  0
 20 21  1  0  0  0  0
 21 22  2  0  0  0  0
 22 23  1  0  0  0  0
 22 27  1  0  0  0  0
 23 28  1  0  0  0  0
 24 29  1  0  0  0  0
 24 23  2  0  0  0  0
 25 24  1  0  0  0  0
 26 21  1  0  0  0  0
 29 30  1  0  0  0  0
 30 31  2  0  0  0  0
 31 32  1  0  0  0  0
 33 31  1  0  0  0  0
 34 33  1  0  0  0  0
 35 29  2  0  0  0  0
 35 33  1  0  0  0  0
M  END
>  <minimizedAffinity>
-5.54655123

$$$$
