
 OpenBabel03242511513D

 25 27  0  0  1  0  0  0  0  0999 V2000
   37.8580   26.7810   43.2570 C   0  0  1  0  0  0  0  0  0  0  0  0
   37.7990   28.2130   43.6800 C   0  0  2  0  0  0  0  0  0  0  0  0
   36.5660   27.4000   43.6680 C   0  0  0  0  0  0  0  0  0  0  0  0
   38.4420   26.1250   43.9280 H   0  0  0  0  0  0  0  0  0  0  0  0
   38.2790   28.3670   44.6920 H   0  0  0  0  0  0  0  0  0  0  0  0
   36.1010   27.0340   44.6060 H   0  0  0  0  0  0  0  0  0  0  0  0
   35.8100   27.5580   42.8610 H   0  0  0  0  0  0  0  0  0  0  0  0
   39.4050   26.1930   41.4090 C   0  0  0  0  0  0  0  0  0  0  0  0
   38.0930   26.4420   41.8220 C   0  0  0  0  0  0  0  0  0  0  0  0
   37.0770   26.3640   40.8800 C   0  0  0  0  0  0  0  0  0  0  0  0
   37.4210   26.0500   39.5900 N   0  0  0  0  0  0  0  0  0  0  0  0
   38.7000   25.8170   39.2330 C   0  0  0  0  0  0  0  0  0  0  0  0
   39.7200   25.8880   40.1510 N   0  0  0  0  0  0  0  0  0  0  0  0
   40.2610   26.2290   42.0740 H   0  0  0  0  0  0  0  0  0  0  0  0
   36.0740   26.5550   41.2030 H   0  0  0  0  0  0  0  0  0  0  0  0
   38.9020   25.5710   38.1860 H   0  0  0  0  0  0  0  0  0  0  0  0
   37.9550   29.2640   42.7060 C   0  0  0  0  0  0  0  0  0  0  0  0
   38.8630   30.0360   43.0210 O   0  0  0  0  0  0  0  0  0  0  0  0
   37.8530   30.1670   41.5670 C   0  0  0  0  0  0  0  0  0  0  0  0
   37.8310   30.9480   40.5660 N   0  0  0  0  0  0  0  0  0  0  0  0
   36.7030   31.5230   40.1910 C   0  0  0  0  0  0  0  0  0  0  0  0
   36.9560   32.1380   39.3130 H   0  0  0  0  0  0  0  0  0  0  0  0
   35.8220   31.0660   41.0700 N   0  0  0  0  0  0  0  0  0  0  0  0
   34.8960   31.5410   40.7770 H   0  0  0  0  0  0  0  0  0  0  0  0
   36.5570   30.3050   41.8120 N   0  0  0  0  0  0  0  0  0  0  0  0
  1  3  1  0  0  0  0
  1  2  1  0  0  0  0
  1  4  1  1  0  0  0
  2  5  1  1  0  0  0
  3  2  1  0  0  0  0
  3  6  1  0  0  0  0
  7  3  1  0  0  0  0
  8  9  1  0  0  0  0
  8 14  1  0  0  0  0
  9  1  1  0  0  0  0
 10 15  1  0  0  0  0
 10  9  2  0  0  0  0
 11 10  1  0  0  0  0
 12 11  2  0  0  0  0
 12 13  1  0  0  0  0
 13  8  2  0  0  0  0
 16 12  1  0  0  0  0
 17 18  2  0  0  0  0
 17  2  1  0  0  0  0
 19 25  2  0  0  0  0
 19 17  1  0  0  0  0
 20 19  1  0  0  0  0
 21 20  2  0  0  0  0
 21 23  1  0  0  0  0
 22 21  1  0  0  0  0
 23 25  1  0  0  0  0
 24 23  1  0  0  0  0
M  END
>  <minimizedAffinity>
-4.69364214

$$$$

 OpenBabel03242511513D

 25 27  0  0  1  0  0  0  0  0999 V2000
   35.7870   28.6140   40.8660 C   0  0  1  0  0  0  0  0  0  0  0  0
   35.5290   29.9270   40.2020 C   0  0  2  0  0  0  0  0  0  0  0  0
   35.6620   28.7050   39.3840 C   0  0  0  0  0  0  0  0  0  0  0  0
   34.9650   28.2530   41.5100 H   0  0  0  0  0  0  0  0  0  0  0  0
   34.4710   30.2850   40.3850 H   0  0  0  0  0  0  0  0  0  0  0  0
   34.7820   28.2180   38.9160 H   0  0  0  0  0  0  0  0  0  0  0  0
   36.5960   28.5370   38.7930 H   0  0  0  0  0  0  0  0  0  0  0  0
   37.3030   28.6710   42.8290 C   0  0  0  0  0  0  0  0  0  0  0  0
   37.1210   28.3460   41.4820 C   0  0  0  0  0  0  0  0  0  0  0  0
   38.1870   27.7950   40.7840 C   0  0  0  0  0  0  0  0  0  0  0  0
   39.3640   27.6030   41.4600 N   0  0  0  0  0  0  0  0  0  0  0  0
   39.4990   27.9310   42.7610 C   0  0  0  0  0  0  0  0  0  0  0  0
   38.4550   28.4760   43.4690 N   0  0  0  0  0  0  0  0  0  0  0  0
   36.5280   29.1030   43.4530 H   0  0  0  0  0  0  0  0  0  0  0  0
   38.0400   27.5480   39.7530 H   0  0  0  0  0  0  0  0  0  0  0  0
   40.4670   27.7490   43.2370 H   0  0  0  0  0  0  0  0  0  0  0  0
   36.5640   30.9280   40.1420 C   0  0  0  0  0  0  0  0  0  0  0  0
   36.8560   31.2040   38.9770 O   0  0  0  0  0  0  0  0  0  0  0  0
   37.5930   31.9210   40.4240 C   0  0  0  0  0  0  0  0  0  0  0  0
   38.5220   32.7390   40.7060 N   0  0  0  0  0  0  0  0  0  0  0  0
   38.4550   33.9940   40.2990 C   0  0  0  0  0  0  0  0  0  0  0  0
   39.3710   34.4800   40.6710 H   0  0  0  0  0  0  0  0  0  0  0  0
   37.3070   34.0370   39.6390 N   0  0  0  0  0  0  0  0  0  0  0  0
   37.2380   35.0650   39.3090 H   0  0  0  0  0  0  0  0  0  0  0  0
   36.8840   32.8220   39.7580 N   0  0  0  0  0  0  0  0  0  0  0  0
  1  9  1  0  0  0  0
  1  4  1  1  0  0  0
  2  5  1  1  0  0  0
  2  1  1  0  0  0  0
  3  2  1  0  0  0  0
  3  1  1  0  0  0  0
  6  3  1  0  0  0  0
  7  3  1  0  0  0  0
  8 14  1  0  0  0  0
  8 13  1  0  0  0  0
  9  8  2  0  0  0  0
 10 11  2  0  0  0  0
 10  9  1  0  0  0  0
 11 12  1  0  0  0  0
 12 16  1  0  0  0  0
 12 13  2  0  0  0  0
 15 10  1  0  0  0  0
 17  2  1  0  0  0  0
 17 19  1  0  0  0  0
 18 17  2  0  0  0  0
 19 20  1  0  0  0  0
 21 22  1  0  0  0  0
 21 20  2  0  0  0  0
 23 25  1  0  0  0  0
 23 21  1  0  0  0  0
 24 23  1  0  0  0  0
 25 19  2  0  0  0  0
M  END
>  <minimizedAffinity>
-4.65607882

$$$$

 OpenBabel03242511513D

 25 27  0  0  1  0  0  0  0  0999 V2000
   35.7860   28.6810   40.8710 C   0  0  1  0  0  0  0  0  0  0  0  0
   35.5490   29.9650   40.1450 C   0  0  2  0  0  0  0  0  0  0  0  0
   35.7190   28.7110   39.3830 C   0  0  0  0  0  0  0  0  0  0  0  0
   34.9410   28.3420   41.4970 H   0  0  0  0  0  0  0  0  0  0  0  0
   34.4840   30.3240   40.2720 H   0  0  0  0  0  0  0  0  0  0  0  0
   34.8600   28.2010   38.9010 H   0  0  0  0  0  0  0  0  0  0  0  0
   36.6760   28.5240   38.8370 H   0  0  0  0  0  0  0  0  0  0  0  0
   38.0830   27.7440   40.8500 C   0  0  0  0  0  0  0  0  0  0  0  0
   37.0960   28.4450   41.5490 C   0  0  0  0  0  0  0  0  0  0  0  0
   37.3790   28.8840   42.8350 C   0  0  0  0  0  0  0  0  0  0  0  0
   38.6180   28.5990   43.3500 N   0  0  0  0  0  0  0  0  0  0  0  0
   39.5430   27.9190   42.6430 C   0  0  0  0  0  0  0  0  0  0  0  0
   39.2820   27.4780   41.3680 N   0  0  0  0  0  0  0  0  0  0  0  0
   37.9520   27.3660   39.8430 H   0  0  0  0  0  0  0  0  0  0  0  0
   36.6190   29.4210   43.3630 H   0  0  0  0  0  0  0  0  0  0  0  0
   40.5100   27.7280   43.1170 H   0  0  0  0  0  0  0  0  0  0  0  0
   36.5830   30.9670   40.0850 C   0  0  0  0  0  0  0  0  0  0  0  0
   36.8970   31.2200   38.9200 O   0  0  0  0  0  0  0  0  0  0  0  0
   37.6020   31.9700   40.3670 C   0  0  0  0  0  0  0  0  0  0  0  0
   38.5230   32.7970   40.6490 N   0  0  0  0  0  0  0  0  0  0  0  0
   38.4480   34.0490   40.2350 C   0  0  0  0  0  0  0  0  0  0  0  0
   39.3580   34.5440   40.6090 H   0  0  0  0  0  0  0  0  0  0  0  0
   37.3030   34.0800   39.5690 N   0  0  0  0  0  0  0  0  0  0  0  0
   37.2270   35.1050   39.2350 H   0  0  0  0  0  0  0  0  0  0  0  0
   36.8890   32.8630   39.6930 N   0  0  0  0  0  0  0  0  0  0  0  0
  1  4  1  1  0  0  0
  1  9  1  0  0  0  0
  2  5  1  1  0  0  0
  2  1  1  0  0  0  0
  3  2  1  0  0  0  0
  3  1  1  0  0  0  0
  6  3  1  0  0  0  0
  7  3  1  0  0  0  0
  8 13  2  0  0  0  0
  8  9  1  0  0  0  0
  9 10  2  0  0  0  0
 10 11  1  0  0  0  0
 10 15  1  0  0  0  0
 12 16  1  0  0  0  0
 12 11  2  0  0  0  0
 13 12  1  0  0  0  0
 14  8  1  0  0  0  0
 17  2  1  0  0  0  0
 17 19  1  0  0  0  0
 18 17  2  0  0  0  0
 19 20  1  0  0  0  0
 21 22  1  0  0  0  0
 21 20  2  0  0  0  0
 23 25  1  0  0  0  0
 23 21  1  0  0  0  0
 24 23  1  0  0  0  0
 25 19  2  0  0  0  0
M  END
>  <minimizedAffinity>
-4.65239763

$$$$

 OpenBabel03242511513D

 25 27  0  0  1  0  0  0  0  0999 V2000
   37.8320   24.1630   42.1530 C   0  0  1  0  0  0  0  0  0  0  0  0
   36.7730   25.1960   42.3590 C   0  0  2  0  0  0  0  0  0  0  0  0
   36.8380   24.4580   41.0820 C   0  0  0  0  0  0  0  0  0  0  0  0
   37.7490   23.2790   42.8110 H   0  0  0  0  0  0  0  0  0  0  0  0
   35.9860   24.8440   43.0930 H   0  0  0  0  0  0  0  0  0  0  0  0
   36.1070   23.6630   40.8310 H   0  0  0  0  0  0  0  0  0  0  0  0
   37.2270   24.9720   40.1690 H   0  0  0  0  0  0  0  0  0  0  0  0
   40.0440   24.7240   43.1250 C   0  0  0  0  0  0  0  0  0  0  0  0
   39.2530   24.5850   41.9800 C   0  0  0  0  0  0  0  0  0  0  0  0
   39.8270   24.8460   40.7440 C   0  0  0  0  0  0  0  0  0  0  0  0
   41.1430   25.2330   40.7160 N   0  0  0  0  0  0  0  0  0  0  0  0
   41.8710   25.3570   41.8450 C   0  0  0  0  0  0  0  0  0  0  0  0
   41.3210   25.1010   43.0780 N   0  0  0  0  0  0  0  0  0  0  0  0
   39.6820   24.5400   44.1300 H   0  0  0  0  0  0  0  0  0  0  0  0
   39.2170   24.7360   39.8720 H   0  0  0  0  0  0  0  0  0  0  0  0
   42.9150   25.6680   41.7480 H   0  0  0  0  0  0  0  0  0  0  0  0
   37.1170   26.5950   42.3800 C   0  0  0  0  0  0  0  0  0  0  0  0
   36.6770   27.1510   43.3880 O   0  0  0  0  0  0  0  0  0  0  0  0
   37.6180   27.9360   42.1020 C   0  0  0  0  0  0  0  0  0  0  0  0
   38.1160   29.0810   41.8760 N   0  0  0  0  0  0  0  0  0  0  0  0
   37.3380   30.0950   41.5410 C   0  0  0  0  0  0  0  0  0  0  0  0
   38.0100   30.9570   41.4040 H   0  0  0  0  0  0  0  0  0  0  0  0
   36.1250   29.5590   41.5380 N   0  0  0  0  0  0  0  0  0  0  0  0
   35.4790   30.3850   41.2750 H   0  0  0  0  0  0  0  0  0  0  0  0
   36.3750   28.3340   41.8660 N   0  0  0  0  0  0  0  0  0  0  0  0
  1  2  1  0  0  0  0
  1  4  1  1  0  0  0
  2 17  1  0  0  0  0
  2  5  1  1  0  0  0
  3  1  1  0  0  0  0
  3  2  1  0  0  0  0
  6  3  1  0  0  0  0
  7  3  1  0  0  0  0
  8 14  1  0  0  0  0
  9  1  1  0  0  0  0
  9  8  2  0  0  0  0
 10  9  1  0  0  0  0
 11 10  2  0  0  0  0
 11 12  1  0  0  0  0
 12 13  2  0  0  0  0
 13  8  1  0  0  0  0
 15 10  1  0  0  0  0
 16 12  1  0  0  0  0
 17 18  2  0  0  0  0
 19 17  1  0  0  0  0
 20 19  1  0  0  0  0
 21 20  2  0  0  0  0
 22 21  1  0  0  0  0
 23 21  1  0  0  0  0
 23 25  1  0  0  0  0
 24 23  1  0  0  0  0
 25 19  2  0  0  0  0
M  END
>  <minimizedAffinity>
-4.52442694

$$$$

 OpenBabel03242511513D

 25 28  0  0  1  0  0  0  0  0999 V2000
   36.9130   29.5950   38.1720 C   0  0  1  0  0  0  0  0  0  0  0  0
   36.3300   28.3620   38.7820 C   0  0  2  0  0  0  0  0  0  0  0  0
   35.4390   29.4480   38.3260 C   0  0  0  0  0  0  0  0  0  0  0  0
   37.4280   29.4340   37.2080 H   0  0  0  0  0  0  0  0  0  0  0  0
   36.4190   27.4730   38.0890 H   0  0  0  0  0  0  0  0  0  0  0  0
   34.8360   29.3560   37.4000 H   0  0  0  0  0  0  0  0  0  0  0  0
   34.9470   30.1100   39.0810 H   0  0  0  0  0  0  0  0  0  0  0  0
   36.9610   31.6780   39.5180 C   0  0  0  0  0  0  0  0  0  0  0  0
   37.6540   30.5660   39.0310 C   0  0  0  0  0  0  0  0  0  0  0  0
   38.9930   30.4220   39.3660 C   0  0  0  0  0  0  0  0  0  0  0  0
   39.5640   31.3860   40.1580 N   0  0  0  0  0  0  0  0  0  0  0  0
   38.8600   32.4450   40.6070 C   0  0  0  0  0  0  0  0  0  0  0  0
   37.5330   32.6040   40.2870 N   0  0  0  0  0  0  0  0  0  0  0  0
   35.9150   31.8720   39.3110 H   0  0  0  0  0  0  0  0  0  0  0  0
   39.5170   29.5670   38.9910 H   0  0  0  0  0  0  0  0  0  0  0  0
   39.3790   33.1740   41.2350 H   0  0  0  0  0  0  0  0  0  0  0  0
   36.4690   28.1150   40.1950 C   0  0  2  0  0  3  0  0  0  0  0  0
   35.5050   28.5540   40.8250 O   0  0  0  0  0  0  0  0  0  0  0  0
   36.9060   27.7210   41.5290 C   0  0  0  0  0  0  0  0  0  0  0  0
   37.2880   27.3130   42.6680 N   0  0  0  0  0  0  0  0  0  0  0  0
   37.3960   28.1560   43.6790 C   0  0  0  0  0  3  0  0  0  0  0  0
   37.7410   27.5550   44.5360 H   0  0  0  0  0  0  0  0  0  0  0  0
   37.0310   29.3140   43.1490 N   0  0  0  0  0  0  0  0  0  0  0  0
   37.1050   30.0100   43.9730 H   0  0  0  0  0  0  0  0  0  0  0  0
   36.7700   28.9770   41.9290 N   0  0  0  0  0  0  0  0  0  0  0  0
  1  4  1  6  0  0  0
  1  3  1  0  0  0  0
  1  2  1  0  0  0  0
  1  9  1  0  0  0  0
  2  5  1  6  0  0  0
  2 17  1  0  0  0  0
  3  2  1  0  0  0  0
  3  7  1  0  0  0  0
  6  3  1  0  0  0  0
  8 13  1  0  0  0  0
  9 10  1  0  0  0  0
  9  8  2  0  0  0  0
 10 11  2  0  0  0  0
 11 12  1  0  0  0  0
 12 16  1  0  0  0  0
 13 12  2  0  0  0  0
 14  8  1  0  0  0  0
 15 10  1  0  0  0  0
 17 18  1  1  0  0  0
 17 19  1  0  0  0  0
 18 25  1  0  0  0  0
 19 25  1  0  0  0  0
 19 20  2  0  0  0  0
 20 21  1  0  0  0  0
 21 22  1  0  0  0  0
 23 21  1  0  0  0  0
 23 24  1  0  0  0  0
 25 23  1  0  0  0  0
M  END
>  <minimizedAffinity>
-4.38214111

$$$$

 OpenBabel03242511513D

 25 27  0  0  1  0  0  0  0  0999 V2000
   35.7380   28.9690   40.6780 C   0  0  1  0  0  0  0  0  0  0  0  0
   35.7570   30.0460   39.6430 C   0  0  2  0  0  0  0  0  0  0  0  0
   35.5900   28.6370   39.2330 C   0  0  0  0  0  0  0  0  0  0  0  0
   34.8770   29.0080   41.3690 H   0  0  0  0  0  0  0  0  0  0  0  0
   34.8120   30.6670   39.6710 H   0  0  0  0  0  0  0  0  0  0  0  0
   34.6100   28.2400   38.8980 H   0  0  0  0  0  0  0  0  0  0  0  0
   36.4440   28.0970   38.7550 H   0  0  0  0  0  0  0  0  0  0  0  0
   37.3220   29.3190   42.5550 C   0  0  0  0  0  0  0  0  0  0  0  0
   36.9970   28.6090   41.3950 C   0  0  0  0  0  0  0  0  0  0  0  0
   37.8600   27.6100   40.9670 C   0  0  0  0  0  0  0  0  0  0  0  0
   38.9900   27.3770   41.7100 N   0  0  0  0  0  0  0  0  0  0  0  0
   39.2670   28.0860   42.8230 C   0  0  0  0  0  0  0  0  0  0  0  0
   38.4250   29.0780   43.2630 N   0  0  0  0  0  0  0  0  0  0  0  0
   36.7080   30.1130   42.9650 H   0  0  0  0  0  0  0  0  0  0  0  0
   37.6050   27.0700   40.0790 H   0  0  0  0  0  0  0  0  0  0  0  0
   40.1860   27.8460   43.3660 H   0  0  0  0  0  0  0  0  0  0  0  0
   36.9870   30.7270   39.3260 C   0  0  0  0  0  0  0  0  0  0  0  0
   36.8340   31.9500   39.3200 O   0  0  0  0  0  0  0  0  0  0  0  0
   38.3550   31.0970   38.9860 C   0  0  0  0  0  0  0  0  0  0  0  0
   39.5650   31.4010   38.7530 N   0  0  0  0  0  0  0  0  0  0  0  0
   39.9100   31.9340   37.5950 C   0  0  0  0  0  0  0  0  0  0  0  0
   40.9980   32.0980   37.6510 H   0  0  0  0  0  0  0  0  0  0  0  0
   38.7600   32.0050   36.9390 N   0  0  0  0  0  0  0  0  0  0  0  0
   39.0300   32.4510   35.9920 H   0  0  0  0  0  0  0  0  0  0  0  0
   37.9330   31.5100   37.7990 N   0  0  0  0  0  0  0  0  0  0  0  0
  1  4  1  1  0  0  0
  1  9  1  0  0  0  0
  2  5  1  6  0  0  0
  2  1  1  0  0  0  0
  3  2  1  0  0  0  0
  3  1  1  0  0  0  0
  6  3  1  0  0  0  0
  7  3  1  0  0  0  0
  8 14  1  0  0  0  0
  8 13  1  0  0  0  0
  9  8  2  0  0  0  0
 10  9  1  0  0  0  0
 10 11  2  0  0  0  0
 11 12  1  0  0  0  0
 12 13  2  0  0  0  0
 12 16  1  0  0  0  0
 15 10  1  0  0  0  0
 17  2  1  0  0  0  0
 18 17  2  0  0  0  0
 19 17  1  0  0  0  0
 20 19  1  0  0  0  0
 21 22  1  0  0  0  0
 21 20  2  0  0  0  0
 23 21  1  0  0  0  0
 23 25  1  0  0  0  0
 24 23  1  0  0  0  0
 25 19  2  0  0  0  0
M  END
>  <minimizedAffinity>
-4.31224298

$$$$

 OpenBabel03242511513D

 25 27  0  0  1  0  0  0  0  0999 V2000
   38.2170   32.0410   38.5920 C   0  0  1  0  0  0  0  0  0  0  0  0
   37.0140   31.4440   39.2460 C   0  0  2  0  0  0  0  0  0  0  0  0
   37.1510   32.9120   39.1610 C   0  0  0  0  0  0  0  0  0  0  0  0
   38.3030   31.8390   37.5090 H   0  0  0  0  0  0  0  0  0  0  0  0
   36.3220   30.9680   38.4870 H   0  0  0  0  0  0  0  0  0  0  0  0
   36.5480   33.5130   38.4500 H   0  0  0  0  0  0  0  0  0  0  0  0
   37.4170   33.4930   40.0780 H   0  0  0  0  0  0  0  0  0  0  0  0
   39.9460   33.0320   40.0700 C   0  0  0  0  0  0  0  0  0  0  0  0
   39.5450   31.9590   39.2690 C   0  0  0  0  0  0  0  0  0  0  0  0
   40.4010   30.8730   39.1410 C   0  0  0  0  0  0  0  0  0  0  0  0
   41.5980   30.9190   39.8090 N   0  0  0  0  0  0  0  0  0  0  0  0
   41.9470   31.9750   40.5720 C   0  0  0  0  0  0  0  0  0  0  0  0
   41.1130   33.0570   40.7120 N   0  0  0  0  0  0  0  0  0  0  0  0
   39.3430   33.9190   40.2310 H   0  0  0  0  0  0  0  0  0  0  0  0
   40.0880   30.0550   38.5270 H   0  0  0  0  0  0  0  0  0  0  0  0
   42.9170   31.9420   41.0760 H   0  0  0  0  0  0  0  0  0  0  0  0
   37.1300   30.8010   40.5300 C   0  0  0  0  0  0  0  0  0  0  0  0
   36.1270   30.9940   41.2210 O   0  0  0  0  0  0  0  0  0  0  0  0
   37.5520   30.0530   41.7080 C   0  0  0  0  0  0  0  0  0  0  0  0
   37.9740   29.4420   42.7380 N   0  0  0  0  0  0  0  0  0  0  0  0
   37.3270   28.3890   43.2030 C   0  0  0  0  0  0  0  0  0  0  0  0
   37.8940   28.0550   44.0870 H   0  0  0  0  0  0  0  0  0  0  0  0
   36.3100   28.2620   42.3630 N   0  0  0  0  0  0  0  0  0  0  0  0
   35.7790   27.3950   42.7300 H   0  0  0  0  0  0  0  0  0  0  0  0
   36.5130   29.2450   41.5490 N   0  0  0  0  0  0  0  0  0  0  0  0
  1  4  1  6  0  0  0
  1  3  1  0  0  0  0
  1  2  1  0  0  0  0
  1  9  1  0  0  0  0
  2  5  1  6  0  0  0
  2 17  1  0  0  0  0
  3  2  1  0  0  0  0
  3  7  1  0  0  0  0
  6  3  1  0  0  0  0
  8 14  1  0  0  0  0
  8 13  1  0  0  0  0
  9  8  2  0  0  0  0
 10  9  1  0  0  0  0
 10 11  2  0  0  0  0
 11 12  1  0  0  0  0
 12 13  2  0  0  0  0
 12 16  1  0  0  0  0
 15 10  1  0  0  0  0
 17 18  2  0  0  0  0
 17 19  1  0  0  0  0
 19 20  1  0  0  0  0
 20 21  2  0  0  0  0
 21 22  1  0  0  0  0
 23 24  1  0  0  0  0
 23 21  1  0  0  0  0
 25 19  2  0  0  0  0
 25 23  1  0  0  0  0
M  END
>  <minimizedAffinity>
-4.30929136

$$$$

 OpenBabel03242511513D

 25 27  0  0  1  0  0  0  0  0999 V2000
   38.0380   27.0570   43.1760 C   0  0  1  0  0  0  0  0  0  0  0  0
   36.7630   27.6680   42.6930 C   0  0  2  0  0  0  0  0  0  0  0  0
   37.0030   26.2240   42.5010 C   0  0  0  0  0  0  0  0  0  0  0  0
   38.1690   27.0670   44.2730 H   0  0  0  0  0  0  0  0  0  0  0  0
   36.0830   27.9450   43.5540 H   0  0  0  0  0  0  0  0  0  0  0  0
   36.4830   25.4600   43.1140 H   0  0  0  0  0  0  0  0  0  0  0  0
   37.2580   25.8390   41.4830 H   0  0  0  0  0  0  0  0  0  0  0  0
   40.1140   28.3990   42.9670 C   0  0  0  0  0  0  0  0  0  0  0  0
   39.3190   27.3620   42.4710 C   0  0  0  0  0  0  0  0  0  0  0  0
   39.7560   26.6700   41.3500 C   0  0  0  0  0  0  0  0  0  0  0  0
   40.9490   27.0490   40.7880 N   0  0  0  0  0  0  0  0  0  0  0  0
   41.6860   28.0570   41.2970 C   0  0  0  0  0  0  0  0  0  0  0  0
   41.2700   28.7520   42.4070 N   0  0  0  0  0  0  0  0  0  0  0  0
   39.8540   28.9920   43.8370 H   0  0  0  0  0  0  0  0  0  0  0  0
   39.1430   25.8760   40.9770 H   0  0  0  0  0  0  0  0  0  0  0  0
   42.6270   28.3050   40.7980 H   0  0  0  0  0  0  0  0  0  0  0  0
   36.7650   28.5390   41.5450 C   0  0  0  0  0  0  0  0  0  0  0  0
   35.9120   28.1980   40.7230 O   0  0  0  0  0  0  0  0  0  0  0  0
   37.0200   29.5760   40.5530 C   0  0  0  0  0  0  0  0  0  0  0  0
   37.2810   30.4340   39.6550 N   0  0  0  0  0  0  0  0  0  0  0  0
   36.8290   31.6710   39.7600 C   0  0  0  0  0  0  0  0  0  0  0  0
   37.1910   32.2000   38.8640 H   0  0  0  0  0  0  0  0  0  0  0  0
   36.1590   31.6530   40.9030 N   0  0  0  0  0  0  0  0  0  0  0  0
   35.7930   32.6650   41.0030 H   0  0  0  0  0  0  0  0  0  0  0  0
   36.3170   30.4290   41.2850 N   0  0  0  0  0  0  0  0  0  0  0  0
  1  4  1  1  0  0  0
  2  1  1  0  0  0  0
  2  5  1  1  0  0  0
  3  2  1  0  0  0  0
  3  6  1  0  0  0  0
  3  1  1  0  0  0  0
  7  3  1  0  0  0  0
  8 14  1  0  0  0  0
  9  8  1  0  0  0  0
  9  1  1  0  0  0  0
 10  9  2  0  0  0  0
 11 12  2  0  0  0  0
 11 10  1  0  0  0  0
 12 13  1  0  0  0  0
 13  8  2  0  0  0  0
 15 10  1  0  0  0  0
 16 12  1  0  0  0  0
 17  2  1  0  0  0  0
 18 17  2  0  0  0  0
 19 25  2  0  0  0  0
 19 17  1  0  0  0  0
 20 21  2  0  0  0  0
 20 19  1  0  0  0  0
 21 23  1  0  0  0  0
 22 21  1  0  0  0  0
 23 24  1  0  0  0  0
 23 25  1  0  0  0  0
M  END
>  <minimizedAffinity>
-4.27544785

$$$$

 OpenBabel03242511513D

 25 27  0  0  1  0  0  0  0  0999 V2000
   36.7890   25.9950   40.2320 C   0  0  1  0  0  0  0  0  0  0  0  0
   36.1240   26.8890   39.2370 C   0  0  2  0  0  0  0  0  0  0  0  0
   37.3140   26.1100   38.8420 C   0  0  0  0  0  0  0  0  0  0  0  0
   36.1760   25.1390   40.5660 H   0  0  0  0  0  0  0  0  0  0  0  0
   35.1270   26.4700   38.9030 H   0  0  0  0  0  0  0  0  0  0  0  0
   37.2350   25.2150   38.1920 H   0  0  0  0  0  0  0  0  0  0  0  0
   38.2970   26.6280   38.7210 H   0  0  0  0  0  0  0  0  0  0  0  0
   38.9280   26.8040   41.1940 C   0  0  0  0  0  0  0  0  0  0  0  0
   37.5570   26.5920   41.3650 C   0  0  0  0  0  0  0  0  0  0  0  0
   36.9800   26.9420   42.5780 C   0  0  0  0  0  0  0  0  0  0  0  0
   37.7930   27.4760   43.5440 N   0  0  0  0  0  0  0  0  0  0  0  0
   39.1120   27.6640   43.3390 C   0  0  0  0  0  0  0  0  0  0  0  0
   39.7020   27.3250   42.1450 N   0  0  0  0  0  0  0  0  0  0  0  0
   39.4640   26.5630   40.2820 H   0  0  0  0  0  0  0  0  0  0  0  0
   35.9290   26.7780   42.7020 H   0  0  0  0  0  0  0  0  0  0  0  0
   39.7000   28.0960   44.1540 H   0  0  0  0  0  0  0  0  0  0  0  0
   36.2310   28.3210   39.3600 C   0  0  0  0  0  0  0  0  0  0  0  0
   35.1420   28.8700   39.1870 O   0  0  0  0  0  0  0  0  0  0  0  0
   36.6710   29.6980   39.5430 C   0  0  0  0  0  0  0  0  0  0  0  0
   37.0980   30.8890   39.6510 N   0  0  0  0  0  0  0  0  0  0  0  0
   36.6480   31.6760   40.6120 C   0  0  0  0  0  0  0  0  0  0  0  0
   37.1700   32.6370   40.4820 H   0  0  0  0  0  0  0  0  0  0  0  0
   35.7840   30.9050   41.2560 N   0  0  0  0  0  0  0  0  0  0  0  0
   35.4170   31.5380   42.0520 H   0  0  0  0  0  0  0  0  0  0  0  0
   35.8580   29.8030   40.5860 N   0  0  0  0  0  0  0  0  0  0  0  0
  1  4  1  1  0  0  0
  1  9  1  0  0  0  0
  2  5  1  6  0  0  0
  2 17  1  0  0  0  0
  2  1  1  0  0  0  0
  3  2  1  0  0  0  0
  3  1  1  0  0  0  0
  6  3  1  0  0  0  0
  7  3  1  0  0  0  0
  8  9  2  0  0  0  0
  8 13  1  0  0  0  0
  9 10  1  0  0  0  0
 10 15  1  0  0  0  0
 10 11  2  0  0  0  0
 12 11  1  0  0  0  0
 12 16  1  0  0  0  0
 13 12  2  0  0  0  0
 14  8  1  0  0  0  0
 17 19  1  0  0  0  0
 18 17  2  0  0  0  0
 19 20  1  0  0  0  0
 19 25  2  0  0  0  0
 20 21  2  0  0  0  0
 21 23  1  0  0  0  0
 22 21  1  0  0  0  0
 23 24  1  0  0  0  0
 25 23  1  0  0  0  0
M  END
>  <minimizedAffinity>
-4.22723866

$$$$
