
 OpenBabel03252501303D

 36 38  0  0  0  0  0  0  0  0999 V2000
   36.2250   28.7220   40.4190 C   0  0  0  0  0  0  0  0  0  0  0  0
   36.1810   27.8680   39.3360 C   0  0  0  0  0  0  0  0  0  0  0  0
   36.5260   26.5510   39.4010 C   0  0  0  0  0  0  0  0  0  0  0  0
   36.9410   26.0420   40.6060 C   0  0  0  0  0  0  0  0  0  0  0  0
   36.9900   26.8810   41.6940 C   0  0  0  0  0  0  0  0  0  0  0  0
   36.6370   28.2160   41.6150 C   0  0  0  0  0  0  0  0  0  0  0  0
   35.8380   28.3520   38.4070 H   0  0  0  0  0  0  0  0  0  0  0  0
   36.4430   25.9960   38.4810 H   0  0  0  0  0  0  0  0  0  0  0  0
   37.3430   26.3020   42.5600 H   0  0  0  0  0  0  0  0  0  0  0  0
   37.2910   24.6120   40.5750 C   0  0  0  0  0  0  0  0  0  0  0  0
   37.0420   23.5670   39.8110 N   0  0  0  0  0  0  0  0  0  0  0  0
   37.6990   22.5240   40.3770 C   0  0  0  0  0  0  0  0  0  0  0  0
   37.7590   21.4880   40.0710 H   0  0  0  0  0  0  0  0  0  0  0  0
   38.3430   22.9430   41.4840 N   0  0  0  0  0  0  0  0  0  0  0  0
   38.9390   22.3610   42.1380 H   0  0  0  0  0  0  0  0  0  0  0  0
   38.0890   24.2490   41.6090 N   0  0  0  0  0  0  0  0  0  0  0  0
   38.1340   29.1290   43.2790 C   0  0  0  0  0  0  0  0  0  0  0  0
   39.3200   29.1340   42.7810 O   0  0  0  0  0  0  0  0  0  0  0  0
   36.7980   28.7480   42.9320 N   0  0  0  0  0  0  0  0  0  0  0  0
   38.4810   29.5770   44.2120 H   0  0  0  0  0  0  0  0  0  0  0  0
   36.1410   28.9160   43.6920 H   0  0  0  0  0  0  0  0  0  0  0  0
   35.8920   30.1430   40.4840 C   0  0  0  0  0  0  0  0  0  0  0  0
   36.2570   30.5940   41.4530 H   0  0  0  0  0  0  0  0  0  0  0  0
   34.7880   30.2200   40.5340 H   0  0  0  0  0  0  0  0  0  0  0  0
   36.4720   30.8930   39.3130 C   0  0  0  0  0  0  0  0  0  0  0  0
   35.6460   31.4210   38.7920 H   0  0  0  0  0  0  0  0  0  0  0  0
   36.9680   30.2070   38.6000 H   0  0  0  0  0  0  0  0  0  0  0  0
   39.1800   32.5870   41.1080 C   0  0  0  0  0  0  0  0  0  0  0  0
   39.0010   33.9400   40.7350 C   0  0  0  0  0  0  0  0  0  0  0  0
   37.9430   34.2110   39.8690 C   0  0  0  0  0  0  0  0  0  0  0  0
   37.1590   33.2160   39.4350 N   0  0  0  0  0  0  0  0  0  0  0  0
   37.3810   31.9410   39.8290 C   0  0  0  0  0  0  0  0  0  0  0  0
   38.3540   31.6220   40.6370 N   0  0  0  0  0  0  0  0  0  0  0  0
   39.9980   32.3530   41.7810 H   0  0  0  0  0  0  0  0  0  0  0  0
   39.6720   34.6900   41.1220 H   0  0  0  0  0  0  0  0  0  0  0  0
   37.7820   35.2550   39.5630 H   0  0  0  0  0  0  0  0  0  0  0  0
  1 22  1  0  0  0  0
  1  6  1  0  0  0  0
  2  3  1  0  0  0  0
  2  1  2  0  0  0  0
  3  4  2  0  0  0  0
  4  5  1  0  0  0  0
  5  9  1  0  0  0  0
  6  5  2  0  0  0  0
  6 19  1  0  0  0  0
  7  2  1  0  0  0  0
  8  3  1  0  0  0  0
 10  4  1  0  0  0  0
 10 16  2  0  0  0  0
 11 12  2  0  0  0  0
 11 10  1  0  0  0  0
 12 14  1  0  0  0  0
 13 12  1  0  0  0  0
 14 16  1  0  0  0  0
 14 15  1  0  0  0  0
 17 20  1  0  0  0  0
 18 17  2  0  0  0  0
 19 17  1  0  0  0  0
 19 21  1  0  0  0  0
 22 24  1  0  0  0  0
 22 23  1  0  0  0  0
 25 32  1  0  0  0  0
 25 22  1  0  0  0  0
 26 25  1  0  0  0  0
 27 25  1  0  0  0  0
 28 34  1  0  0  0  0
 29 28  1  0  0  0  0
 29 35  1  0  0  0  0
 30 29  2  0  0  0  0
 31 32  2  0  0  0  0
 31 30  1  0  0  0  0
 32 33  1  0  0  0  0
 33 28  2  0  0  0  0
 36 30  1  0  0  0  0
M  END
>  <minimizedAffinity>
-5.6633296

$$$$

 OpenBabel03252501303D

 36 38  0  0  0  0  0  0  0  0999 V2000
   37.9960   29.0250   42.7400 C   0  0  0  0  0  0  0  0  0  0  0  0
   39.1840   29.6930   42.9590 C   0  0  0  0  0  0  0  0  0  0  0  0
   39.5380   30.8350   42.3040 C   0  0  0  0  0  0  0  0  0  0  0  0
   38.6700   31.3520   41.3760 C   0  0  0  0  0  0  0  0  0  0  0  0
   37.4830   30.6980   41.1470 C   0  0  0  0  0  0  0  0  0  0  0  0
   37.1350   29.5400   41.8180 C   0  0  0  0  0  0  0  0  0  0  0  0
   39.8250   29.2150   43.7180 H   0  0  0  0  0  0  0  0  0  0  0  0
   40.4940   31.2550   42.5720 H   0  0  0  0  0  0  0  0  0  0  0  0
   36.9260   31.2540   40.3780 H   0  0  0  0  0  0  0  0  0  0  0  0
   39.1420   32.5860   40.7240 C   0  0  0  0  0  0  0  0  0  0  0  0
   40.2780   33.2400   40.5860 N   0  0  0  0  0  0  0  0  0  0  0  0
   39.9920   34.3360   39.8410 C   0  0  0  0  0  0  0  0  0  0  0  0
   40.6360   35.1340   39.4980 H   0  0  0  0  0  0  0  0  0  0  0  0
   38.6810   34.3410   39.5290 N   0  0  0  0  0  0  0  0  0  0  0  0
   38.1600   35.0660   38.9590 H   0  0  0  0  0  0  0  0  0  0  0  0
   38.1470   33.2470   40.0810 N   0  0  0  0  0  0  0  0  0  0  0  0
   35.8410   28.2810   40.2110 C   0  0  0  0  0  0  0  0  0  0  0  0
   36.6640   27.6790   39.4280 O   0  0  0  0  0  0  0  0  0  0  0  0
   35.8420   29.1720   41.3320 N   0  0  0  0  0  0  0  0  0  0  0  0
   34.9780   27.8540   39.6970 H   0  0  0  0  0  0  0  0  0  0  0  0
   34.9000   29.4200   41.6270 H   0  0  0  0  0  0  0  0  0  0  0  0
   37.5010   27.8010   43.3630 C   0  0  0  0  0  0  0  0  0  0  0  0
   36.5470   27.4580   42.8660 H   0  0  0  0  0  0  0  0  0  0  0  0
   37.2050   28.0550   44.4000 H   0  0  0  0  0  0  0  0  0  0  0  0
   38.5340   26.7050   43.3100 C   0  0  0  0  0  0  0  0  0  0  0  0
   38.4390   26.0890   44.2270 H   0  0  0  0  0  0  0  0  0  0  0  0
   39.5600   27.1210   43.2600 H   0  0  0  0  0  0  0  0  0  0  0  0
   38.7560   24.8960   40.1310 C   0  0  0  0  0  0  0  0  0  0  0  0
   37.5500   24.1570   40.1110 C   0  0  0  0  0  0  0  0  0  0  0  0
   36.7050   24.3160   41.2080 C   0  0  0  0  0  0  0  0  0  0  0  0
   37.0510   25.1340   42.2090 N   0  0  0  0  0  0  0  0  0  0  0  0
   38.2190   25.8150   42.1710 C   0  0  0  0  0  0  0  0  0  0  0  0
   39.0530   25.7100   41.1720 N   0  0  0  0  0  0  0  0  0  0  0  0
   39.4290   24.7870   39.2870 H   0  0  0  0  0  0  0  0  0  0  0  0
   37.3360   23.5150   39.2710 H   0  0  0  0  0  0  0  0  0  0  0  0
   35.7610   23.7510   41.2170 H   0  0  0  0  0  0  0  0  0  0  0  0
  1  2  1  0  0  0  0
  1 22  1  0  0  0  0
  2  7  1  0  0  0  0
  3  8  1  0  0  0  0
  3  2  2  0  0  0  0
  4  3  1  0  0  0  0
  5  4  2  0  0  0  0
  5  6  1  0  0  0  0
  6  1  2  0  0  0  0
  9  5  1  0  0  0  0
 10  4  1  0  0  0  0
 11 10  1  0  0  0  0
 12 11  2  0  0  0  0
 13 12  1  0  0  0  0
 14 12  1  0  0  0  0
 14 16  1  0  0  0  0
 15 14  1  0  0  0  0
 16 10  2  0  0  0  0
 17 19  1  0  0  0  0
 18 17  2  0  0  0  0
 19 21  1  0  0  0  0
 19  6  1  0  0  0  0
 20 17  1  0  0  0  0
 22 24  1  0  0  0  0
 23 22  1  0  0  0  0
 25 22  1  0  0  0  0
 25 26  1  0  0  0  0
 27 25  1  0  0  0  0
 28 33  1  0  0  0  0
 29 28  2  0  0  0  0
 29 30  1  0  0  0  0
 30 36  1  0  0  0  0
 30 31  2  0  0  0  0
 32 31  1  0  0  0  0
 32 25  1  0  0  0  0
 33 32  2  0  0  0  0
 34 28  1  0  0  0  0
 35 29  1  0  0  0  0
M  END
>  <minimizedAffinity>
-5.44963741

$$$$

 OpenBabel03252501303D

 36 38  0  0  0  0  0  0  0  0999 V2000
   36.7800   28.8790   40.6560 C   0  0  0  0  0  0  0  0  0  0  0  0
   36.7880   27.7810   39.8200 C   0  0  0  0  0  0  0  0  0  0  0  0
   36.5980   27.8580   38.4730 C   0  0  0  0  0  0  0  0  0  0  0  0
   36.3840   29.0920   37.9120 C   0  0  0  0  0  0  0  0  0  0  0  0
   36.3720   30.1960   38.7320 C   0  0  0  0  0  0  0  0  0  0  0  0
   36.5680   30.1040   40.0980 C   0  0  0  0  0  0  0  0  0  0  0  0
   36.9660   26.8290   40.3470 H   0  0  0  0  0  0  0  0  0  0  0  0
   36.6310   26.9230   37.9390 H   0  0  0  0  0  0  0  0  0  0  0  0
   36.1880   31.0840   38.1100 H   0  0  0  0  0  0  0  0  0  0  0  0
   36.1890   29.0710   36.4530 C   0  0  0  0  0  0  0  0  0  0  0  0
   35.1900   29.2040   35.6030 N   0  0  0  0  0  0  0  0  0  0  0  0
   35.7290   29.0700   34.3660 C   0  0  0  0  0  0  0  0  0  0  0  0
   35.2600   29.1110   33.3920 H   0  0  0  0  0  0  0  0  0  0  0  0
   37.0550   28.8560   34.4720 N   0  0  0  0  0  0  0  0  0  0  0  0
   37.7470   28.7130   33.6820 H   0  0  0  0  0  0  0  0  0  0  0  0
   37.3450   28.8560   35.7760 N   0  0  0  0  0  0  0  0  0  0  0  0
   37.7390   32.1700   40.5510 C   0  0  0  0  0  0  0  0  0  0  0  0
   38.9680   32.0090   40.2080 O   0  0  0  0  0  0  0  0  0  0  0  0
   36.5060   31.4420   40.5980 N   0  0  0  0  0  0  0  0  0  0  0  0
   37.9170   33.2040   40.8540 H   0  0  0  0  0  0  0  0  0  0  0  0
   35.7480   31.9960   40.9920 H   0  0  0  0  0  0  0  0  0  0  0  0
   36.9630   28.9360   42.1040 C   0  0  0  0  0  0  0  0  0  0  0  0
   36.3060   29.7340   42.5580 H   0  0  0  0  0  0  0  0  0  0  0  0
   38.0000   29.2810   42.2910 H   0  0  0  0  0  0  0  0  0  0  0  0
   36.6750   27.6020   42.7430 C   0  0  0  0  0  0  0  0  0  0  0  0
   36.0810   26.9930   42.0300 H   0  0  0  0  0  0  0  0  0  0  0  0
   36.1010   27.7210   43.6820 H   0  0  0  0  0  0  0  0  0  0  0  0
   39.2370   24.9820   42.7950 C   0  0  0  0  0  0  0  0  0  0  0  0
   40.3540   25.6520   43.3460 C   0  0  0  0  0  0  0  0  0  0  0  0
   40.1730   26.9940   43.6770 C   0  0  0  0  0  0  0  0  0  0  0  0
   38.9890   27.5830   43.4700 N   0  0  0  0  0  0  0  0  0  0  0  0
   37.9560   26.8880   42.9390 C   0  0  0  0  0  0  0  0  0  0  0  0
   38.0610   25.6300   42.6090 N   0  0  0  0  0  0  0  0  0  0  0  0
   39.3550   23.9370   42.5300 H   0  0  0  0  0  0  0  0  0  0  0  0
   41.2790   25.1150   43.4840 H   0  0  0  0  0  0  0  0  0  0  0  0
   41.0270   27.5380   44.1060 H   0  0  0  0  0  0  0  0  0  0  0  0
  1 22  1  0  0  0  0
  2  7  1  0  0  0  0
  2  1  2  0  0  0  0
  3  2  1  0  0  0  0
  4  3  2  0  0  0  0
  4  5  1  0  0  0  0
  5  6  2  0  0  0  0
  6 19  1  0  0  0  0
  6  1  1  0  0  0  0
  8  3  1  0  0  0  0
  9  5  1  0  0  0  0
 10  4  1  0  0  0  0
 11 10  1  0  0  0  0
 12 14  1  0  0  0  0
 12 11  2  0  0  0  0
 13 12  1  0  0  0  0
 14 16  1  0  0  0  0
 15 14  1  0  0  0  0
 16 10  2  0  0  0  0
 17 19  1  0  0  0  0
 17 20  1  0  0  0  0
 18 17  2  0  0  0  0
 19 21  1  0  0  0  0
 22 24  1  0  0  0  0
 22 23  1  0  0  0  0
 22 25  1  0  0  0  0
 25 32  1  0  0  0  0
 25 27  1  0  0  0  0
 26 25  1  0  0  0  0
 28 29  1  0  0  0  0
 29 35  1  0  0  0  0
 29 30  2  0  0  0  0
 30 36  1  0  0  0  0
 31 30  1  0  0  0  0
 32 31  2  0  0  0  0
 33 28  2  0  0  0  0
 33 32  1  0  0  0  0
 34 28  1  0  0  0  0
M  END
>  <minimizedAffinity>
-5.3315649

$$$$

 OpenBabel03252501303D

 36 38  0  0  0  0  0  0  0  0999 V2000
   35.5560   28.1340   39.1790 C   0  0  0  0  0  0  0  0  0  0  0  0
   36.1160   26.9120   38.8690 C   0  0  0  0  0  0  0  0  0  0  0  0
   36.9300   26.2200   39.7150 C   0  0  0  0  0  0  0  0  0  0  0  0
   37.2120   26.7630   40.9430 C   0  0  0  0  0  0  0  0  0  0  0  0
   36.6610   27.9810   41.2660 C   0  0  0  0  0  0  0  0  0  0  0  0
   35.8360   28.6730   40.3990 C   0  0  0  0  0  0  0  0  0  0  0  0
   35.8420   26.5440   37.8660 H   0  0  0  0  0  0  0  0  0  0  0  0
   37.2980   25.2760   39.3470 H   0  0  0  0  0  0  0  0  0  0  0  0
   36.9970   28.2520   42.2780 H   0  0  0  0  0  0  0  0  0  0  0  0
   38.0980   25.9410   41.7830 C   0  0  0  0  0  0  0  0  0  0  0  0
   38.4330   24.6710   41.8910 N   0  0  0  0  0  0  0  0  0  0  0  0
   39.3290   24.6040   42.9070 C   0  0  0  0  0  0  0  0  0  0  0  0
   39.8510   23.7530   43.3220 H   0  0  0  0  0  0  0  0  0  0  0  0
   39.5340   25.8370   43.4100 N   0  0  0  0  0  0  0  0  0  0  0  0
   40.1780   26.1060   44.2080 H   0  0  0  0  0  0  0  0  0  0  0  0
   38.7650   26.6750   42.7080 N   0  0  0  0  0  0  0  0  0  0  0  0
   36.3590   30.9680   40.9540 C   0  0  0  0  0  0  0  0  0  0  0  0
   37.4880   31.2560   40.4100 O   0  0  0  0  0  0  0  0  0  0  0  0
   35.4510   29.8670   41.0840 N   0  0  0  0  0  0  0  0  0  0  0  0
   36.2560   31.9730   41.3670 H   0  0  0  0  0  0  0  0  0  0  0  0
   34.6450   30.1010   41.6600 H   0  0  0  0  0  0  0  0  0  0  0  0
   34.6800   28.9780   38.3700 C   0  0  0  0  0  0  0  0  0  0  0  0
   35.2790   29.7540   37.8100 H   0  0  0  0  0  0  0  0  0  0  0  0
   34.0450   29.5580   39.0690 H   0  0  0  0  0  0  0  0  0  0  0  0
   33.8690   28.1530   37.4040 C   0  0  0  0  0  0  0  0  0  0  0  0
   33.2740   27.4180   37.9840 H   0  0  0  0  0  0  0  0  0  0  0  0
   34.5200   27.6090   36.6930 H   0  0  0  0  0  0  0  0  0  0  0  0
   31.0100   30.3580   36.7720 C   0  0  0  0  0  0  0  0  0  0  0  0
   31.1510   30.6600   35.3970 C   0  0  0  0  0  0  0  0  0  0  0  0
   32.2390   30.0860   34.7420 C   0  0  0  0  0  0  0  0  0  0  0  0
   33.0850   29.2940   35.4130 N   0  0  0  0  0  0  0  0  0  0  0  0
   32.8970   29.0410   36.7280 C   0  0  0  0  0  0  0  0  0  0  0  0
   31.8980   29.5480   37.3980 N   0  0  0  0  0  0  0  0  0  0  0  0
   30.1710   30.7940   37.3020 H   0  0  0  0  0  0  0  0  0  0  0  0
   30.4310   31.3080   34.9220 H   0  0  0  0  0  0  0  0  0  0  0  0
   32.3710   30.3060   33.6730 H   0  0  0  0  0  0  0  0  0  0  0  0
  1  6  1  0  0  0  0
  2  1  2  0  0  0  0
  2  3  1  0  0  0  0
  3  4  2  0  0  0  0
  4  5  1  0  0  0  0
  4 10  1  0  0  0  0
  5  9  1  0  0  0  0
  6 19  1  0  0  0  0
  6  5  2  0  0  0  0
  7  2  1  0  0  0  0
  8  3  1  0  0  0  0
 10 11  1  0  0  0  0
 10 16  2  0  0  0  0
 11 12  2  0  0  0  0
 12 13  1  0  0  0  0
 12 14  1  0  0  0  0
 14 15  1  0  0  0  0
 16 14  1  0  0  0  0
 17 19  1  0  0  0  0
 17 20  1  0  0  0  0
 18 17  2  0  0  0  0
 19 21  1  0  0  0  0
 22 24  1  0  0  0  0
 22  1  1  0  0  0  0
 23 22  1  0  0  0  0
 25 26  1  0  0  0  0
 25 22  1  0  0  0  0
 27 25  1  0  0  0  0
 28 34  1  0  0  0  0
 28 33  1  0  0  0  0
 29 28  2  0  0  0  0
 30 29  1  0  0  0  0
 30 31  2  0  0  0  0
 31 32  1  0  0  0  0
 32 33  2  0  0  0  0
 32 25  1  0  0  0  0
 35 29  1  0  0  0  0
 36 30  1  0  0  0  0
M  END
>  <minimizedAffinity>
-5.14878988

$$$$

 OpenBabel03252501303D

 36 38  0  0  0  0  0  0  0  0999 V2000
   35.7770   27.9290   39.4760 C   0  0  0  0  0  0  0  0  0  0  0  0
   36.3740   26.7170   39.1940 C   0  0  0  0  0  0  0  0  0  0  0  0
   37.2080   26.0690   40.0560 C   0  0  0  0  0  0  0  0  0  0  0  0
   37.4740   26.6500   41.2700 C   0  0  0  0  0  0  0  0  0  0  0  0
   36.8870   27.8580   41.5650 C   0  0  0  0  0  0  0  0  0  0  0  0
   36.0420   28.5050   40.6830 C   0  0  0  0  0  0  0  0  0  0  0  0
   36.1110   26.3180   38.2010 H   0  0  0  0  0  0  0  0  0  0  0  0
   37.6040   25.1290   39.7100 H   0  0  0  0  0  0  0  0  0  0  0  0
   37.2160   28.1630   42.5700 H   0  0  0  0  0  0  0  0  0  0  0  0
   38.3850   25.8750   42.1290 C   0  0  0  0  0  0  0  0  0  0  0  0
   39.3540   26.1180   42.9890 N   0  0  0  0  0  0  0  0  0  0  0  0
   39.7770   24.9080   43.4290 C   0  0  0  0  0  0  0  0  0  0  0  0
   40.5530   24.6560   44.1400 H   0  0  0  0  0  0  0  0  0  0  0  0
   39.0620   23.9340   42.8340 N   0  0  0  0  0  0  0  0  0  0  0  0
   39.1600   22.8890   42.9740 H   0  0  0  0  0  0  0  0  0  0  0  0
   38.1900   24.5370   42.0190 N   0  0  0  0  0  0  0  0  0  0  0  0
   36.4590   30.8450   41.1240 C   0  0  0  0  0  0  0  0  0  0  0  0
   37.5440   31.1730   40.5160 O   0  0  0  0  0  0  0  0  0  0  0  0
   35.6220   29.7030   41.3400 N   0  0  0  0  0  0  0  0  0  0  0  0
   36.3180   31.8590   41.5040 H   0  0  0  0  0  0  0  0  0  0  0  0
   34.8310   29.9150   41.9450 H   0  0  0  0  0  0  0  0  0  0  0  0
   34.8770   28.7270   38.6480 C   0  0  0  0  0  0  0  0  0  0  0  0
   34.1730   29.3300   39.2920 H   0  0  0  0  0  0  0  0  0  0  0  0
   34.2230   28.0200   38.0990 H   0  0  0  0  0  0  0  0  0  0  0  0
   35.6460   29.6380   37.7270 C   0  0  0  0  0  0  0  0  0  0  0  0
   36.7120   29.6290   38.0350 H   0  0  0  0  0  0  0  0  0  0  0  0
   35.2640   30.6760   37.7760 H   0  0  0  0  0  0  0  0  0  0  0  0
   34.7240   27.6010   34.8230 C   0  0  0  0  0  0  0  0  0  0  0  0
   35.5920   28.0860   33.8170 C   0  0  0  0  0  0  0  0  0  0  0  0
   36.4650   29.1070   34.1880 C   0  0  0  0  0  0  0  0  0  0  0  0
   36.4540   29.5780   35.4410 N   0  0  0  0  0  0  0  0  0  0  0  0
   35.6000   29.0720   36.3600 C   0  0  0  0  0  0  0  0  0  0  0  0
   34.7580   28.1160   36.0760 N   0  0  0  0  0  0  0  0  0  0  0  0
   34.0350   26.8070   34.5560 H   0  0  0  0  0  0  0  0  0  0  0  0
   35.5450   27.6600   32.8270 H   0  0  0  0  0  0  0  0  0  0  0  0
   37.1500   29.5020   33.4230 H   0  0  0  0  0  0  0  0  0  0  0  0
  1  6  1  0  0  0  0
  2  1  2  0  0  0  0
  2  3  1  0  0  0  0
  3  4  2  0  0  0  0
  4  5  1  0  0  0  0
  4 10  1  0  0  0  0
  5  9  1  0  0  0  0
  6 19  1  0  0  0  0
  6  5  2  0  0  0  0
  7  2  1  0  0  0  0
  8  3  1  0  0  0  0
 10 11  1  0  0  0  0
 11 12  2  0  0  0  0
 12 13  1  0  0  0  0
 14 15  1  0  0  0  0
 14 12  1  0  0  0  0
 16 10  2  0  0  0  0
 16 14  1  0  0  0  0
 17 19  1  0  0  0  0
 17 20  1  0  0  0  0
 18 17  2  0  0  0  0
 19 21  1  0  0  0  0
 22 23  1  0  0  0  0
 22  1  1  0  0  0  0
 24 22  1  0  0  0  0
 25 27  1  0  0  0  0
 25 26  1  0  0  0  0
 25 22  1  0  0  0  0
 28 33  1  0  0  0  0
 29 30  1  0  0  0  0
 29 28  2  0  0  0  0
 30 31  2  0  0  0  0
 31 32  1  0  0  0  0
 32 25  1  0  0  0  0
 33 32  2  0  0  0  0
 34 28  1  0  0  0  0
 35 29  1  0  0  0  0
 36 30  1  0  0  0  0
M  END
>  <minimizedAffinity>
-5.10539818

$$$$

 OpenBabel03252501303D

 36 38  0  0  0  0  0  0  0  0999 V2000
   38.8280   27.9650   42.8880 C   0  0  0  0  0  0  0  0  0  0  0  0
   40.2000   27.8380   42.9740 C   0  0  0  0  0  0  0  0  0  0  0  0
   41.0630   28.8850   42.8460 C   0  0  0  0  0  0  0  0  0  0  0  0
   40.5450   30.1350   42.6180 C   0  0  0  0  0  0  0  0  0  0  0  0
   39.1800   30.2770   42.5290 C   0  0  0  0  0  0  0  0  0  0  0  0
   38.3150   29.2070   42.6620 C   0  0  0  0  0  0  0  0  0  0  0  0
   40.5360   26.8050   43.1590 H   0  0  0  0  0  0  0  0  0  0  0  0
   42.1100   28.6470   42.9370 H   0  0  0  0  0  0  0  0  0  0  0  0
   38.9560   31.3380   42.3450 H   0  0  0  0  0  0  0  0  0  0  0  0
   41.5560   31.1990   42.4940 C   0  0  0  0  0  0  0  0  0  0  0  0
   42.7210   31.5010   43.0320 N   0  0  0  0  0  0  0  0  0  0  0  0
   43.1190   32.6550   42.4420 C   0  0  0  0  0  0  0  0  0  0  0  0
   44.0130   33.2430   42.5920 H   0  0  0  0  0  0  0  0  0  0  0  0
   42.1910   33.0480   41.5470 N   0  0  0  0  0  0  0  0  0  0  0  0
   42.2190   33.9090   40.9310 H   0  0  0  0  0  0  0  0  0  0  0  0
   41.2130   32.1380   41.5780 N   0  0  0  0  0  0  0  0  0  0  0  0
   36.5050   29.8370   41.1890 C   0  0  0  0  0  0  0  0  0  0  0  0
   36.8830   29.6070   39.9810 O   0  0  0  0  0  0  0  0  0  0  0  0
   36.9970   29.7430   42.5300 N   0  0  0  0  0  0  0  0  0  0  0  0
   35.5260   30.1890   40.8580 H   0  0  0  0  0  0  0  0  0  0  0  0
   36.3190   30.0790   43.2120 H   0  0  0  0  0  0  0  0  0  0  0  0
   37.8000   26.9340   42.9990 C   0  0  0  0  0  0  0  0  0  0  0  0
   36.8620   27.2460   42.4540 H   0  0  0  0  0  0  0  0  0  0  0  0
   37.5030   26.8790   44.0660 H   0  0  0  0  0  0  0  0  0  0  0  0
   38.2930   25.6120   42.4690 C   0  0  0  0  0  0  0  0  0  0  0  0
   38.1160   24.8370   43.2420 H   0  0  0  0  0  0  0  0  0  0  0  0
   39.3750   25.6500   42.2370 H   0  0  0  0  0  0  0  0  0  0  0  0
   36.3710   25.7890   39.3540 C   0  0  0  0  0  0  0  0  0  0  0  0
   35.9360   24.4540   39.1830 C   0  0  0  0  0  0  0  0  0  0  0  0
   36.3300   23.5410   40.1590 C   0  0  0  0  0  0  0  0  0  0  0  0
   37.0820   23.9450   41.1910 N   0  0  0  0  0  0  0  0  0  0  0  0
   37.4670   25.2370   41.3000 C   0  0  0  0  0  0  0  0  0  0  0  0
   37.1300   26.1400   40.4200 N   0  0  0  0  0  0  0  0  0  0  0  0
   36.0760   26.5170   38.6060 H   0  0  0  0  0  0  0  0  0  0  0  0
   35.3320   24.2000   38.3250 H   0  0  0  0  0  0  0  0  0  0  0  0
   36.0050   22.4960   40.0480 H   0  0  0  0  0  0  0  0  0  0  0  0
  1  2  1  0  0  0  0
  1 22  1  0  0  0  0
  2  7  1  0  0  0  0
  3  8  1  0  0  0  0
  3  2  2  0  0  0  0
  4  3  1  0  0  0  0
  5  4  2  0  0  0  0
  5  6  1  0  0  0  0
  6  1  2  0  0  0  0
  9  5  1  0  0  0  0
 10  4  1  0  0  0  0
 10 11  1  0  0  0  0
 12 13  1  0  0  0  0
 12 11  2  0  0  0  0
 14 16  1  0  0  0  0
 14 12  1  0  0  0  0
 15 14  1  0  0  0  0
 16 10  2  0  0  0  0
 17 19  1  0  0  0  0
 18 17  2  0  0  0  0
 19  6  1  0  0  0  0
 19 21  1  0  0  0  0
 20 17  1  0  0  0  0
 22 24  1  0  0  0  0
 23 22  1  0  0  0  0
 25 22  1  0  0  0  0
 25 26  1  0  0  0  0
 27 25  1  0  0  0  0
 28 33  1  0  0  0  0
 29 28  2  0  0  0  0
 29 30  1  0  0  0  0
 30 31  2  0  0  0  0
 31 32  1  0  0  0  0
 32 25  1  0  0  0  0
 33 32  2  0  0  0  0
 34 28  1  0  0  0  0
 35 29  1  0  0  0  0
 36 30  1  0  0  0  0
M  END
>  <minimizedAffinity>
-5.09704781

$$$$

 OpenBabel03252501303D

 36 38  0  0  0  0  0  0  0  0999 V2000
   37.4010   30.3940   39.0510 C   0  0  0  0  0  0  0  0  0  0  0  0
   37.3790   31.7680   39.1760 C   0  0  0  0  0  0  0  0  0  0  0  0
   38.4550   32.5650   38.9220 C   0  0  0  0  0  0  0  0  0  0  0  0
   39.6270   31.9750   38.5210 C   0  0  0  0  0  0  0  0  0  0  0  0
   39.6650   30.6060   38.3920 C   0  0  0  0  0  0  0  0  0  0  0  0
   38.5660   29.8080   38.6520 C   0  0  0  0  0  0  0  0  0  0  0  0
   36.4040   32.1650   39.5010 H   0  0  0  0  0  0  0  0  0  0  0  0
   38.3000   33.6230   39.0570 H   0  0  0  0  0  0  0  0  0  0  0  0
   40.6750   30.3190   38.0660 H   0  0  0  0  0  0  0  0  0  0  0  0
   40.7290   32.9180   38.2710 C   0  0  0  0  0  0  0  0  0  0  0  0
   41.3760   33.8560   38.9350 N   0  0  0  0  0  0  0  0  0  0  0  0
   42.3070   34.3470   38.0800 C   0  0  0  0  0  0  0  0  0  0  0  0
   43.0440   35.1250   38.2230 H   0  0  0  0  0  0  0  0  0  0  0  0
   42.2200   33.7030   36.9000 N   0  0  0  0  0  0  0  0  0  0  0  0
   42.8130   33.8640   36.0360 H   0  0  0  0  0  0  0  0  0  0  0  0
   41.2340   32.8090   37.0170 N   0  0  0  0  0  0  0  0  0  0  0  0
   39.7230   27.8400   39.4460 C   0  0  0  0  0  0  0  0  0  0  0  0
   40.1940   28.1040   40.6130 O   0  0  0  0  0  0  0  0  0  0  0  0
   38.9790   28.4650   38.3930 N   0  0  0  0  0  0  0  0  0  0  0  0
   40.1140   26.8210   39.4750 H   0  0  0  0  0  0  0  0  0  0  0  0
   38.8510   27.8470   37.5950 H   0  0  0  0  0  0  0  0  0  0  0  0
   36.3320   29.4300   39.2950 C   0  0  0  0  0  0  0  0  0  0  0  0
   36.7080   28.3740   39.1610 H   0  0  0  0  0  0  0  0  0  0  0  0
   35.5770   29.5660   38.4950 H   0  0  0  0  0  0  0  0  0  0  0  0
   35.7480   29.6010   40.6740 C   0  0  0  0  0  0  0  0  0  0  0  0
   34.7570   29.1030   40.6990 H   0  0  0  0  0  0  0  0  0  0  0  0
   35.6210   30.6710   40.9280 H   0  0  0  0  0  0  0  0  0  0  0  0
   38.1080   28.8780   43.3820 C   0  0  0  0  0  0  0  0  0  0  0  0
   38.1610   27.4640   43.3780 C   0  0  0  0  0  0  0  0  0  0  0  0
   37.3700   26.8150   42.4320 C   0  0  0  0  0  0  0  0  0  0  0  0
   36.6130   27.5280   41.5880 N   0  0  0  0  0  0  0  0  0  0  0  0
   36.6050   28.8790   41.6410 C   0  0  0  0  0  0  0  0  0  0  0  0
   37.3230   29.5460   42.5030 N   0  0  0  0  0  0  0  0  0  0  0  0
   38.7160   29.4040   44.1110 H   0  0  0  0  0  0  0  0  0  0  0  0
   38.7930   26.9560   44.0890 H   0  0  0  0  0  0  0  0  0  0  0  0
   37.3920   25.7160   42.4080 H   0  0  0  0  0  0  0  0  0  0  0  0
  1  2  1  0  0  0  0
  1 22  1  0  0  0  0
  2  7  1  0  0  0  0
  3  8  1  0  0  0  0
  3  2  2  0  0  0  0
  4  3  1  0  0  0  0
  5  4  2  0  0  0  0
  5  6  1  0  0  0  0
  6  1  2  0  0  0  0
  9  5  1  0  0  0  0
 10  4  1  0  0  0  0
 10 11  1  0  0  0  0
 12 13  1  0  0  0  0
 12 11  2  0  0  0  0
 14 16  1  0  0  0  0
 14 12  1  0  0  0  0
 15 14  1  0  0  0  0
 16 10  2  0  0  0  0
 17 20  1  0  0  0  0
 17 18  2  0  0  0  0
 19  6  1  0  0  0  0
 19 17  1  0  0  0  0
 21 19  1  0  0  0  0
 22 25  1  0  0  0  0
 23 22  1  0  0  0  0
 24 22  1  0  0  0  0
 25 26  1  0  0  0  0
 25 27  1  0  0  0  0
 25 32  1  0  0  0  0
 28 34  1  0  0  0  0
 29 28  1  0  0  0  0
 29 35  1  0  0  0  0
 30 29  2  0  0  0  0
 31 32  2  0  0  0  0
 31 30  1  0  0  0  0
 32 33  1  0  0  0  0
 33 28  2  0  0  0  0
 36 30  1  0  0  0  0
M  END
>  <minimizedAffinity>
-5.08030796

$$$$

 OpenBabel03252501303D

 36 38  0  0  0  0  0  0  0  0999 V2000
   37.2930   31.8190   39.2500 C   0  0  0  0  0  0  0  0  0  0  0  0
   37.6830   31.7990   37.9260 C   0  0  0  0  0  0  0  0  0  0  0  0
   37.2950   30.8400   37.0400 C   0  0  0  0  0  0  0  0  0  0  0  0
   36.4720   29.8360   37.4820 C   0  0  0  0  0  0  0  0  0  0  0  0
   36.0740   29.8410   38.7980 C   0  0  0  0  0  0  0  0  0  0  0  0
   36.4750   30.8210   39.6880 C   0  0  0  0  0  0  0  0  0  0  0  0
   38.3430   32.6390   37.6500 H   0  0  0  0  0  0  0  0  0  0  0  0
   37.6720   30.9460   36.0360 H   0  0  0  0  0  0  0  0  0  0  0  0
   35.4260   28.9680   38.9650 H   0  0  0  0  0  0  0  0  0  0  0  0
   36.1090   28.8480   36.4520 C   0  0  0  0  0  0  0  0  0  0  0  0
   35.1170   28.0140   36.2110 N   0  0  0  0  0  0  0  0  0  0  0  0
   35.4300   27.3840   35.0510 C   0  0  0  0  0  0  0  0  0  0  0  0
   34.8900   26.6260   34.5010 H   0  0  0  0  0  0  0  0  0  0  0  0
   36.6120   27.8400   34.5940 N   0  0  0  0  0  0  0  0  0  0  0  0
   37.1190   27.5400   33.7130 H   0  0  0  0  0  0  0  0  0  0  0  0
   37.0380   28.7570   35.4690 N   0  0  0  0  0  0  0  0  0  0  0  0
   36.5470   29.5410   41.7380 C   0  0  0  0  0  0  0  0  0  0  0  0
   37.5990   28.8020   41.7030 O   0  0  0  0  0  0  0  0  0  0  0  0
   35.8530   30.5040   40.9350 N   0  0  0  0  0  0  0  0  0  0  0  0
   36.2720   29.1720   42.7280 H   0  0  0  0  0  0  0  0  0  0  0  0
   34.9970   30.8290   41.3810 H   0  0  0  0  0  0  0  0  0  0  0  0
   37.6380   32.7760   40.2980 C   0  0  0  0  0  0  0  0  0  0  0  0
   37.5440   32.3010   41.3180 H   0  0  0  0  0  0  0  0  0  0  0  0
   36.8660   33.5710   40.2830 H   0  0  0  0  0  0  0  0  0  0  0  0
   39.0300   33.3180   40.1040 C   0  0  0  0  0  0  0  0  0  0  0  0
   39.0490   34.3700   40.4570 H   0  0  0  0  0  0  0  0  0  0  0  0
   39.3290   33.2910   39.0380 H   0  0  0  0  0  0  0  0  0  0  0  0
   40.3410   30.9870   42.6100 C   0  0  0  0  0  0  0  0  0  0  0  0
   41.7340   31.2300   42.5590 C   0  0  0  0  0  0  0  0  0  0  0  0
   42.1640   32.1960   41.6510 C   0  0  0  0  0  0  0  0  0  0  0  0
   41.2760   32.8400   40.8840 N   0  0  0  0  0  0  0  0  0  0  0  0
   39.9550   32.5640   40.9790 C   0  0  0  0  0  0  0  0  0  0  0  0
   39.4880   31.6710   41.8090 N   0  0  0  0  0  0  0  0  0  0  0  0
   39.9840   30.2390   43.3090 H   0  0  0  0  0  0  0  0  0  0  0  0
   42.3920   30.6720   43.2060 H   0  0  0  0  0  0  0  0  0  0  0  0
   43.2430   32.4020   41.5920 H   0  0  0  0  0  0  0  0  0  0  0  0
  1  6  1  0  0  0  0
  1 22  1  0  0  0  0
  2  1  2  0  0  0  0
  3  4  2  0  0  0  0
  3  2  1  0  0  0  0
  4  5  1  0  0  0  0
  5  9  1  0  0  0  0
  5  6  2  0  0  0  0
  6 19  1  0  0  0  0
  7  2  1  0  0  0  0
  8  3  1  0  0  0  0
 10  4  1  0  0  0  0
 11 10  1  0  0  0  0
 12 11  2  0  0  0  0
 13 12  1  0  0  0  0
 14 12  1  0  0  0  0
 14 16  1  0  0  0  0
 15 14  1  0  0  0  0
 16 10  2  0  0  0  0
 17 20  1  0  0  0  0
 18 17  2  0  0  0  0
 19 21  1  0  0  0  0
 19 17  1  0  0  0  0
 22 23  1  0  0  0  0
 24 22  1  0  0  0  0
 25 22  1  0  0  0  0
 25 26  1  0  0  0  0
 25 32  1  0  0  0  0
 27 25  1  0  0  0  0
 28 34  1  0  0  0  0
 29 28  1  0  0  0  0
 29 35  1  0  0  0  0
 30 29  2  0  0  0  0
 31 32  2  0  0  0  0
 31 30  1  0  0  0  0
 32 33  1  0  0  0  0
 33 28  2  0  0  0  0
 36 30  1  0  0  0  0
M  END
>  <minimizedAffinity>
-5.06215525

$$$$

 OpenBabel03252501303D

 36 38  0  0  0  0  0  0  0  0999 V2000
   36.9470   27.9650   41.5820 C   0  0  0  0  0  0  0  0  0  0  0  0
   37.0800   26.8740   42.4160 C   0  0  0  0  0  0  0  0  0  0  0  0
   37.1340   25.5870   41.9710 C   0  0  0  0  0  0  0  0  0  0  0  0
   37.0500   25.3570   40.6210 C   0  0  0  0  0  0  0  0  0  0  0  0
   36.9160   26.4340   39.7770 C   0  0  0  0  0  0  0  0  0  0  0  0
   36.8630   27.7360   40.2410 C   0  0  0  0  0  0  0  0  0  0  0  0
   37.1410   27.1410   43.4840 H   0  0  0  0  0  0  0  0  0  0  0  0
   37.2420   24.8300   42.7310 H   0  0  0  0  0  0  0  0  0  0  0  0
   36.8640   26.0580   38.7450 H   0  0  0  0  0  0  0  0  0  0  0  0
   37.1170   23.9370   40.2400 C   0  0  0  0  0  0  0  0  0  0  0  0
   36.5610   23.1420   39.3470 N   0  0  0  0  0  0  0  0  0  0  0  0
   37.0920   21.9120   39.5580 C   0  0  0  0  0  0  0  0  0  0  0  0
   36.9090   20.9760   39.0480 H   0  0  0  0  0  0  0  0  0  0  0  0
   37.9680   21.9670   40.5800 N   0  0  0  0  0  0  0  0  0  0  0  0
   38.5400   21.1690   40.9780 H   0  0  0  0  0  0  0  0  0  0  0  0
   37.9860   23.2330   41.0080 N   0  0  0  0  0  0  0  0  0  0  0  0
   35.4090   28.9860   38.7690 C   0  0  0  0  0  0  0  0  0  0  0  0
   34.2030   28.8400   39.1910 O   0  0  0  0  0  0  0  0  0  0  0  0
   36.7420   28.5660   39.0840 N   0  0  0  0  0  0  0  0  0  0  0  0
   35.0880   29.6360   37.9530 H   0  0  0  0  0  0  0  0  0  0  0  0
   37.4260   28.9290   38.4220 H   0  0  0  0  0  0  0  0  0  0  0  0
   36.8700   29.3820   41.9250 C   0  0  0  0  0  0  0  0  0  0  0  0
   36.3530   29.5250   42.9180 H   0  0  0  0  0  0  0  0  0  0  0  0
   36.2010   29.8640   41.1850 H   0  0  0  0  0  0  0  0  0  0  0  0
   38.2400   30.0100   41.9590 C   0  0  0  0  0  0  0  0  0  0  0  0
   38.9440   29.3440   41.4200 H   0  0  0  0  0  0  0  0  0  0  0  0
   38.5960   30.1440   42.9990 H   0  0  0  0  0  0  0  0  0  0  0  0
   37.1700   32.6830   39.6920 C   0  0  0  0  0  0  0  0  0  0  0  0
   38.2010   33.6400   39.8340 C   0  0  0  0  0  0  0  0  0  0  0  0
   39.2310   33.3190   40.7160 C   0  0  0  0  0  0  0  0  0  0  0  0
   39.2100   32.1540   41.3770 N   0  0  0  0  0  0  0  0  0  0  0  0
   38.1950   31.2780   41.1990 C   0  0  0  0  0  0  0  0  0  0  0  0
   37.2020   31.5200   40.3880 N   0  0  0  0  0  0  0  0  0  0  0  0
   36.3580   32.9120   39.0110 H   0  0  0  0  0  0  0  0  0  0  0  0
   38.1530   34.5580   39.2690 H   0  0  0  0  0  0  0  0  0  0  0  0
   40.0460   34.0470   40.8440 H   0  0  0  0  0  0  0  0  0  0  0  0
  1 22  1  0  0  0  0
  1  2  1  0  0  0  0
  2  7  1  0  0  0  0
  3  2  2  0  0  0  0
  3  8  1  0  0  0  0
  4  3  1  0  0  0  0
  5  6  1  0  0  0  0
  5  4  2  0  0  0  0
  6  1  2  0  0  0  0
  9  5  1  0  0  0  0
 10  4  1  0  0  0  0
 10 16  2  0  0  0  0
 11 12  2  0  0  0  0
 11 10  1  0  0  0  0
 12 14  1  0  0  0  0
 13 12  1  0  0  0  0
 14 15  1  0  0  0  0
 14 16  1  0  0  0  0
 17 19  1  0  0  0  0
 17 18  2  0  0  0  0
 19  6  1  0  0  0  0
 20 17  1  0  0  0  0
 21 19  1  0  0  0  0
 22 25  1  0  0  0  0
 22 23  1  0  0  0  0
 24 22  1  0  0  0  0
 25 27  1  0  0  0  0
 26 25  1  0  0  0  0
 28 29  2  0  0  0  0
 28 33  1  0  0  0  0
 29 30  1  0  0  0  0
 30 36  1  0  0  0  0
 30 31  2  0  0  0  0
 32 31  1  0  0  0  0
 32 25  1  0  0  0  0
 33 32  2  0  0  0  0
 34 28  1  0  0  0  0
 35 29  1  0  0  0  0
M  END
>  <minimizedAffinity>
-5.01473904

$$$$
