
 OpenBabel03252501293D

 36 38  0  0  0  0  0  0  0  0999 V2000
   46.2540   30.8610   45.2960 C   0  0  0  0  0  0  0  0  0  0  0  0
   45.6180   30.1480   44.3000 C   0  0  0  0  0  0  0  0  0  0  0  0
   44.6960   29.1730   44.5420 C   0  0  0  0  0  0  0  0  0  0  0  0
   44.3810   28.8800   45.8450 C   0  0  0  0  0  0  0  0  0  0  0  0
   45.0070   29.5810   46.8490 C   0  0  0  0  0  0  0  0  0  0  0  0
   45.9400   30.5690   46.5900 C   0  0  0  0  0  0  0  0  0  0  0  0
   45.9250   30.4420   43.2830 H   0  0  0  0  0  0  0  0  0  0  0  0
   44.2750   28.6960   43.6730 H   0  0  0  0  0  0  0  0  0  0  0  0
   44.6320   29.2100   47.8140 H   0  0  0  0  0  0  0  0  0  0  0  0
   43.3780   27.8140   46.0030 C   0  0  0  0  0  0  0  0  0  0  0  0
   43.3030   26.6240   46.5670 N   0  0  0  0  0  0  0  0  0  0  0  0
   42.0470   26.1730   46.3260 C   0  0  0  0  0  0  0  0  0  0  0  0
   41.5710   25.2460   46.6110 H   0  0  0  0  0  0  0  0  0  0  0  0
   41.3650   27.0930   45.6150 N   0  0  0  0  0  0  0  0  0  0  0  0
   40.3640   27.0280   45.2760 H   0  0  0  0  0  0  0  0  0  0  0  0
   42.1960   28.1200   45.4120 N   0  0  0  0  0  0  0  0  0  0  0  0
   45.7080   32.2890   48.2720 C   0  0  0  0  0  0  0  0  0  0  0  0
   44.8500   33.1460   47.8430 O   0  0  0  0  0  0  0  0  0  0  0  0
   46.3480   31.0740   47.8630 N   0  0  0  0  0  0  0  0  0  0  0  0
   45.8450   32.8350   49.2080 H   0  0  0  0  0  0  0  0  0  0  0  0
   47.0160   30.7400   48.5550 H   0  0  0  0  0  0  0  0  0  0  0  0
   47.2550   31.9170   45.1760 C   0  0  0  0  0  0  0  0  0  0  0  0
   48.0750   31.6100   44.4620 H   0  0  0  0  0  0  0  0  0  0  0  0
   47.7560   32.0080   46.1610 H   0  0  0  0  0  0  0  0  0  0  0  0
   46.6320   33.2120   44.7230 C   0  0  0  0  0  0  0  0  0  0  0  0
   46.7640   33.9640   45.5280 H   0  0  0  0  0  0  0  0  0  0  0  0
   45.5500   33.0880   44.5190 H   0  0  0  0  0  0  0  0  0  0  0  0
   49.1790   33.5940   42.1160 C   0  0  0  0  0  0  0  0  0  0  0  0
   48.7070   34.7090   41.3850 C   0  0  0  0  0  0  0  0  0  0  0  0
   47.5180   35.2850   41.8270 C   0  0  0  0  0  0  0  0  0  0  0  0
   46.8830   34.7810   42.8920 N   0  0  0  0  0  0  0  0  0  0  0  0
   47.3840   33.7120   43.5520 C   0  0  0  0  0  0  0  0  0  0  0  0
   48.4930   33.1270   43.1880 N   0  0  0  0  0  0  0  0  0  0  0  0
   50.1030   33.1290   41.7900 H   0  0  0  0  0  0  0  0  0  0  0  0
   49.2710   35.0610   40.5350 H   0  0  0  0  0  0  0  0  0  0  0  0
   47.1300   36.1540   41.2740 H   0  0  0  0  0  0  0  0  0  0  0  0
  1  6  1  0  0  0  0
  2  3  1  0  0  0  0
  2  1  2  0  0  0  0
  3  4  2  0  0  0  0
  4 10  1  0  0  0  0
  4  5  1  0  0  0  0
  5  9  1  0  0  0  0
  6  5  2  0  0  0  0
  6 19  1  0  0  0  0
  7  2  1  0  0  0  0
  8  3  1  0  0  0  0
 10 11  1  0  0  0  0
 12 11  2  0  0  0  0
 12 13  1  0  0  0  0
 14 12  1  0  0  0  0
 15 14  1  0  0  0  0
 16 14  1  0  0  0  0
 16 10  2  0  0  0  0
 17 20  1  0  0  0  0
 18 17  2  0  0  0  0
 19 17  1  0  0  0  0
 19 21  1  0  0  0  0
 22  1  1  0  0  0  0
 22 24  1  0  0  0  0
 23 22  1  0  0  0  0
 25 22  1  0  0  0  0
 25 26  1  0  0  0  0
 27 25  1  0  0  0  0
 28 33  1  0  0  0  0
 29 30  1  0  0  0  0
 29 28  2  0  0  0  0
 30 31  2  0  0  0  0
 31 32  1  0  0  0  0
 32 25  1  0  0  0  0
 33 32  2  0  0  0  0
 34 28  1  0  0  0  0
 35 29  1  0  0  0  0
 36 30  1  0  0  0  0
M  END
>  <minimizedAffinity>
-4.43084764

>  <minimizedRMSD>
4.20118046

$$$$
