
 OpenBabel03242523533D

 43 46  0  0  1  0  0  0  0  0999 V2000
   42.8170   34.5220   38.7370 C   0  0  1  0  0  0  0  0  0  0  0  0
   42.9650   35.1800   40.0990 C   0  0  1  0  0  0  0  0  0  0  0  0
   41.6770   35.4060   40.6210 O   0  0  0  0  0  0  0  0  0  0  0  0
   40.7480   35.7530   39.6360 C   0  0  0  0  0  0  0  0  0  0  0  0
   40.4380   34.5880   38.7160 C   0  0  2  0  0  0  0  0  0  0  0  0
   41.6490   33.5980   38.8430 C   0  0  1  0  0  0  0  0  0  0  0  0
   43.7440   33.9460   38.5450 H   0  0  0  0  0  0  0  0  0  0  0  0
   43.5570   36.1090   40.0730 H   0  0  0  0  0  0  0  0  0  0  0  0
   39.8210   35.9890   40.1920 H   0  0  0  0  0  0  0  0  0  0  0  0
   41.0460   36.6720   39.0940 H   0  0  0  0  0  0  0  0  0  0  0  0
   39.5090   34.0520   38.9930 H   0  0  0  0  0  0  0  0  0  0  0  0
   41.4420   33.3290   39.9250 H   0  0  0  0  0  0  0  0  0  0  0  0
   42.6030   35.4890   37.7410 O   0  0  0  0  0  0  0  0  0  0  0  0
   43.1000   35.2940   36.9010 H   0  0  0  0  0  0  0  0  0  0  0  0
   40.4490   35.0150   37.3990 O   0  0  0  0  0  0  0  0  0  0  0  0
   40.7190   34.3520   36.7400 H   0  0  0  0  0  0  0  0  0  0  0  0
   43.4940   34.1820   40.9380 O   0  0  0  0  0  0  0  0  0  0  0  0
   44.5980   34.3130   41.6840 C   0  0  0  0  0  0  0  0  0  0  0  0
   45.8610   34.4380   41.0880 C   0  0  0  0  0  0  0  0  0  0  0  0
   46.9720   34.5720   41.9000 C   0  0  0  0  0  0  0  0  0  0  0  0
   46.8050   34.5810   43.2760 N   0  0  0  0  0  0  0  0  0  0  0  0
   45.5720   34.4580   43.8120 C   0  0  0  0  0  0  0  0  0  0  0  0
   44.4750   34.3250   43.0210 N   0  0  0  0  0  0  0  0  0  0  0  0
   45.9830   34.4310   40.0310 H   0  0  0  0  0  0  0  0  0  0  0  0
   45.4210   34.4620   44.8890 H   0  0  0  0  0  0  0  0  0  0  0  0
   48.3540   34.6810   41.3280 C   0  0  0  0  0  0  0  0  0  0  0  0
   49.0650   36.0190   41.5210 C   0  0  0  0  0  0  0  0  0  0  0  0
   49.4950   34.7020   42.1910 C   0  0  0  0  0  0  0  0  0  0  0  0
   48.4040   34.2260   40.3260 H   0  0  0  0  0  0  0  0  0  0  0  0
   48.5350   36.7650   42.1270 H   0  0  0  0  0  0  0  0  0  0  0  0
   49.6430   36.3310   40.6370 H   0  0  0  0  0  0  0  0  0  0  0  0
   50.4560   34.3180   41.8460 H   0  0  0  0  0  0  0  0  0  0  0  0
   49.4060   34.7550   43.3060 H   0  0  0  0  0  0  0  0  0  0  0  0
   41.5090   32.6650   37.8850 O   0  0  0  0  0  0  0  0  0  0  0  0
   40.8850   31.4820   37.8890 C   0  0  0  0  0  0  0  0  0  0  0  0
   39.6250   31.3630   37.4750 O   0  0  0  0  0  0  0  0  0  0  0  0
   41.3170   30.0910   38.2910 C   0  0  0  0  0  0  0  0  0  0  0  0
   42.5970   29.7050   38.2200 N   0  0  0  0  0  0  0  0  0  0  0  0
   42.7120   28.4290   38.6440 C   0  0  0  0  0  0  0  0  0  0  0  0
   43.6400   27.9090   38.6760 H   0  0  0  0  0  0  0  0  0  0  0  0
   41.4840   28.0200   38.9800 N   0  0  0  0  0  0  0  0  0  0  0  0
   41.1970   27.0890   39.3490 H   0  0  0  0  0  0  0  0  0  0  0  0
   40.6620   29.0190   38.7660 N   0  0  0  0  0  0  0  0  0  0  0  0
  1  7  1  6  0  0  0
  1  6  1  0  0  0  0
  1  2  1  0  0  0  0
  2  8  1  6  0  0  0
  2  3  1  0  0  0  0
  2 17  1  0  0  0  0
  4  9  1  0  0  0  0
  4  3  1  0  0  0  0
  5  6  1  0  0  0  0
  5 11  1  1  0  0  0
  5  4  1  0  0  0  0
  6 12  1  1  0  0  0
 10  4  1  0  0  0  0
 13  1  1  0  0  0  0
 14 13  1  0  0  0  0
 15  5  1  0  0  0  0
 16 15  1  0  0  0  0
 17 18  1  0  0  0  0
 18 23  1  0  0  0  0
 19 18  2  0  0  0  0
 19 20  1  0  0  0  0
 20 21  2  0  0  0  0
 21 22  1  0  0  0  0
 22 25  1  0  0  0  0
 23 22  2  0  0  0  0
 24 19  1  0  0  0  0
 26 27  1  0  0  0  0
 26 20  1  0  0  0  0
 26 28  1  0  0  0  0
 27 30  1  0  0  0  0
 27 28  1  0  0  0  0
 28 33  1  0  0  0  0
 29 26  1  0  0  0  0
 31 27  1  0  0  0  0
 32 28  1  0  0  0  0
 34 35  1  0  0  0  0
 34  6  1  0  0  0  0
 35 37  1  0  0  0  0
 36 35  2  0  0  0  0
 37 43  2  0  0  0  0
 38 37  1  0  0  0  0
 38 39  2  0  0  0  0
 39 40  1  0  0  0  0
 39 41  1  0  0  0  0
 41 42  1  0  0  0  0
 43 41  1  0  0  0  0
M  END
>  <minimizedAffinity>
-5.58382463

>  <minimizedRMSD>
0.0866962671

$$$$
