
 OpenBabel03242523533D

 43 46  0  0  1  0  0  0  0  0999 V2000
   42.8230   34.2990   39.0240 C   0  0  1  0  0  0  0  0  0  0  0  0
   43.0580   35.1760   40.2430 C   0  0  1  0  0  0  0  0  0  0  0  0
   41.8110   35.6620   40.6830 O   0  0  0  0  0  0  0  0  0  0  0  0
   40.9370   35.9370   39.6270 C   0  0  0  0  0  0  0  0  0  0  0  0
   40.4740   34.6710   38.9340 C   0  0  2  0  0  0  0  0  0  0  0  0
   41.5420   33.5720   39.2720 C   0  0  1  0  0  0  0  0  0  0  0  0
   43.6640   33.5810   38.9660 H   0  0  0  0  0  0  0  0  0  0  0  0
   43.7680   35.9980   40.0590 H   0  0  0  0  0  0  0  0  0  0  0  0
   40.0500   36.3930   40.1070 H   0  0  0  0  0  0  0  0  0  0  0  0
   41.3540   36.6910   38.9310 H   0  0  0  0  0  0  0  0  0  0  0  0
   39.4820   34.3230   39.2820 H   0  0  0  0  0  0  0  0  0  0  0  0
   41.3010   33.5410   40.3800 H   0  0  0  0  0  0  0  0  0  0  0  0
   42.7390   35.0820   37.8610 O   0  0  0  0  0  0  0  0  0  0  0  0
   43.2050   34.6690   37.0840 H   0  0  0  0  0  0  0  0  0  0  0  0
   40.5410   34.8380   37.5600 O   0  0  0  0  0  0  0  0  0  0  0  0
   40.7200   34.0330   37.0430 H   0  0  0  0  0  0  0  0  0  0  0  0
   43.4500   34.2930   41.2660 O   0  0  0  0  0  0  0  0  0  0  0  0
   44.6060   34.3610   41.9370 C   0  0  0  0  0  0  0  0  0  0  0  0
   45.8240   34.5130   41.2590 C   0  0  0  0  0  0  0  0  0  0  0  0
   46.9930   34.5800   41.9950 C   0  0  0  0  0  0  0  0  0  0  0  0
   46.9270   34.4950   43.3770 N   0  0  0  0  0  0  0  0  0  0  0  0
   45.7340   34.3480   43.9920 C   0  0  0  0  0  0  0  0  0  0  0  0
   44.5810   34.2810   43.2760 N   0  0  0  0  0  0  0  0  0  0  0  0
   45.8700   34.5780   40.1980 H   0  0  0  0  0  0  0  0  0  0  0  0
   45.6620   34.2790   45.0750 H   0  0  0  0  0  0  0  0  0  0  0  0
   48.3320   34.7140   41.3320 C   0  0  0  0  0  0  0  0  0  0  0  0
   49.0640   36.0380   41.5420 C   0  0  0  0  0  0  0  0  0  0  0  0
   49.5310   34.6860   42.1110 C   0  0  0  0  0  0  0  0  0  0  0  0
   48.3080   34.3100   40.3070 H   0  0  0  0  0  0  0  0  0  0  0  0
   48.5830   36.7530   42.2220 H   0  0  0  0  0  0  0  0  0  0  0  0
   49.5800   36.3920   40.6360 H   0  0  0  0  0  0  0  0  0  0  0  0
   50.4630   34.3180   41.6790 H   0  0  0  0  0  0  0  0  0  0  0  0
   49.5230   34.6820   43.2310 H   0  0  0  0  0  0  0  0  0  0  0  0
   41.2790   32.5030   38.5010 O   0  0  0  0  0  0  0  0  0  0  0  0
   40.3390   31.5560   38.5970 C   0  0  0  0  0  0  0  0  0  0  0  0
   39.9620   30.8440   37.5370 O   0  0  0  0  0  0  0  0  0  0  0  0
   39.5160   31.0360   39.7530 C   0  0  0  0  0  0  0  0  0  0  0  0
   38.3260   31.5660   40.0640 N   0  0  0  0  0  0  0  0  0  0  0  0
   37.8020   30.9150   41.1240 C   0  0  0  0  0  0  0  0  0  0  0  0
   36.8580   31.1650   41.5480 H   0  0  0  0  0  0  0  0  0  0  0  0
   38.6800   29.9700   41.4740 N   0  0  0  0  0  0  0  0  0  0  0  0
   38.6050   29.2800   42.2500 H   0  0  0  0  0  0  0  0  0  0  0  0
   39.6960   30.0520   40.6490 N   0  0  0  0  0  0  0  0  0  0  0  0
  1  7  1  6  0  0  0
  1  6  1  0  0  0  0
  1  2  1  0  0  0  0
  2  8  1  6  0  0  0
  2  3  1  0  0  0  0
  2 17  1  0  0  0  0
  4  9  1  0  0  0  0
  4  3  1  0  0  0  0
  5  6  1  0  0  0  0
  5 11  1  1  0  0  0
  5  4  1  0  0  0  0
  6 12  1  1  0  0  0
 10  4  1  0  0  0  0
 13  1  1  0  0  0  0
 14 13  1  0  0  0  0
 15  5  1  0  0  0  0
 16 15  1  0  0  0  0
 17 18  1  0  0  0  0
 18 23  1  0  0  0  0
 19 18  2  0  0  0  0
 19 20  1  0  0  0  0
 20 21  2  0  0  0  0
 21 22  1  0  0  0  0
 22 25  1  0  0  0  0
 23 22  2  0  0  0  0
 24 19  1  0  0  0  0
 26 27  1  0  0  0  0
 26 20  1  0  0  0  0
 26 28  1  0  0  0  0
 27 28  1  0  0  0  0
 27 30  1  0  0  0  0
 28 33  1  0  0  0  0
 29 26  1  0  0  0  0
 31 27  1  0  0  0  0
 32 28  1  0  0  0  0
 34 35  1  0  0  0  0
 34  6  1  0  0  0  0
 35 37  1  0  0  0  0
 36 35  2  0  0  0  0
 37 38  1  0  0  0  0
 37 43  2  0  0  0  0
 38 39  2  0  0  0  0
 39 41  1  0  0  0  0
 39 40  1  0  0  0  0
 41 42  1  0  0  0  0
 43 41  1  0  0  0  0
M  END
>  <minimizedAffinity>
-6.08782339

>  <minimizedRMSD>
1.87043953

$$$$
