
 OpenBabel03242523543D

 43 46  0  0  1  0  0  0  0  0999 V2000
   42.8130   34.3170   38.9980 C   0  0  1  0  0  0  0  0  0  0  0  0
   43.0990   35.1940   40.2060 C   0  0  1  0  0  0  0  0  0  0  0  0
   41.8800   35.7380   40.6540 O   0  0  0  0  0  0  0  0  0  0  0  0
   41.0070   36.0400   39.6050 C   0  0  0  0  0  0  0  0  0  0  0  0
   40.4820   34.7890   38.9280 C   0  0  2  0  0  0  0  0  0  0  0  0
   41.5050   33.6480   39.2660 C   0  0  1  0  0  0  0  0  0  0  0  0
   43.6230   33.5620   38.9390 H   0  0  0  0  0  0  0  0  0  0  0  0
   43.8430   35.9820   40.0070 H   0  0  0  0  0  0  0  0  0  0  0  0
   40.1460   36.5380   40.0890 H   0  0  0  0  0  0  0  0  0  0  0  0
   41.4490   36.7690   38.8970 H   0  0  0  0  0  0  0  0  0  0  0  0
   39.4800   34.4880   39.2910 H   0  0  0  0  0  0  0  0  0  0  0  0
   41.2760   33.6380   40.3770 H   0  0  0  0  0  0  0  0  0  0  0  0
   42.7510   35.0910   37.8290 O   0  0  0  0  0  0  0  0  0  0  0  0
   43.1900   34.6500   37.0510 H   0  0  0  0  0  0  0  0  0  0  0  0
   40.5420   34.9390   37.5530 O   0  0  0  0  0  0  0  0  0  0  0  0
   40.6800   34.1230   37.0420 H   0  0  0  0  0  0  0  0  0  0  0  0
   43.4640   34.3050   41.2340 O   0  0  0  0  0  0  0  0  0  0  0  0
   44.6110   34.3550   41.9210 C   0  0  0  0  0  0  0  0  0  0  0  0
   45.8400   34.5070   41.2630 C   0  0  0  0  0  0  0  0  0  0  0  0
   46.9980   34.5560   42.0160 C   0  0  0  0  0  0  0  0  0  0  0  0
   46.9120   34.4550   43.3960 N   0  0  0  0  0  0  0  0  0  0  0  0
   45.7090   34.3090   43.9930 C   0  0  0  0  0  0  0  0  0  0  0  0
   44.5660   34.2600   43.2590 N   0  0  0  0  0  0  0  0  0  0  0  0
   45.9010   34.5840   40.2040 H   0  0  0  0  0  0  0  0  0  0  0  0
   45.6210   34.2280   45.0730 H   0  0  0  0  0  0  0  0  0  0  0  0
   48.3480   34.6870   41.3740 C   0  0  0  0  0  0  0  0  0  0  0  0
   49.0570   36.0290   41.5530 C   0  0  0  0  0  0  0  0  0  0  0  0
   49.5320   34.7040   42.1760 C   0  0  0  0  0  0  0  0  0  0  0  0
   48.3490   34.2500   40.3630 H   0  0  0  0  0  0  0  0  0  0  0  0
   48.5530   36.7590   42.2000 H   0  0  0  0  0  0  0  0  0  0  0  0
   49.5840   36.3610   40.6460 H   0  0  0  0  0  0  0  0  0  0  0  0
   50.4770   34.3350   41.7740 H   0  0  0  0  0  0  0  0  0  0  0  0
   49.5020   34.7370   43.2950 H   0  0  0  0  0  0  0  0  0  0  0  0
   41.1880   32.5840   38.5090 O   0  0  0  0  0  0  0  0  0  0  0  0
   40.1730   31.7160   38.5880 C   0  0  0  0  0  0  0  0  0  0  0  0
   39.9510   30.8210   37.6270 O   0  0  0  0  0  0  0  0  0  0  0  0
   39.1010   31.4760   39.6270 C   0  0  0  0  0  0  0  0  0  0  0  0
   38.5760   30.2610   39.8280 N   0  0  0  0  0  0  0  0  0  0  0  0
   37.6540   30.3200   40.8110 C   0  0  0  0  0  0  0  0  0  0  0  0
   37.1040   29.4730   41.1430 H   0  0  0  0  0  0  0  0  0  0  0  0
   37.6090   31.5920   41.2250 N   0  0  0  0  0  0  0  0  0  0  0  0
   37.0110   32.0030   41.9710 H   0  0  0  0  0  0  0  0  0  0  0  0
   38.4760   32.2690   40.5110 N   0  0  0  0  0  0  0  0  0  0  0  0
  1  7  1  6  0  0  0
  1  6  1  0  0  0  0
  1  2  1  0  0  0  0
  2  8  1  6  0  0  0
  2  3  1  0  0  0  0
  2 17  1  0  0  0  0
  4  9  1  0  0  0  0
  4  3  1  0  0  0  0
  5  6  1  0  0  0  0
  5 11  1  1  0  0  0
  5  4  1  0  0  0  0
  6 12  1  1  0  0  0
 10  4  1  0  0  0  0
 13  1  1  0  0  0  0
 14 13  1  0  0  0  0
 15  5  1  0  0  0  0
 16 15  1  0  0  0  0
 17 18  1  0  0  0  0
 18 23  1  0  0  0  0
 19 18  2  0  0  0  0
 19 20  1  0  0  0  0
 20 21  2  0  0  0  0
 21 22  1  0  0  0  0
 22 25  1  0  0  0  0
 23 22  2  0  0  0  0
 24 19  1  0  0  0  0
 26 27  1  0  0  0  0
 26 20  1  0  0  0  0
 26 28  1  0  0  0  0
 27 28  1  0  0  0  0
 27 30  1  0  0  0  0
 28 33  1  0  0  0  0
 29 26  1  0  0  0  0
 31 27  1  0  0  0  0
 32 28  1  0  0  0  0
 34 35  1  0  0  0  0
 34  6  1  0  0  0  0
 35 37  1  0  0  0  0
 36 35  2  0  0  0  0
 37 38  1  0  0  0  0
 37 43  2  0  0  0  0
 38 39  2  0  0  0  0
 39 40  1  0  0  0  0
 39 41  1  0  0  0  0
 41 42  1  0  0  0  0
 43 41  1  0  0  0  0
M  END
>  <minimizedAffinity>
-6.31488657

>  <minimizedRMSD>
2.09771729

$$$$
