
 OpenBabel03242523533D

 43 46  0  0  1  0  0  0  0  0999 V2000
   42.8140   34.4980   38.7630 C   0  0  1  0  0  0  0  0  0  0  0  0
   42.9670   35.1840   40.1110 C   0  0  1  0  0  0  0  0  0  0  0  0
   41.6800   35.4320   40.6270 O   0  0  0  0  0  0  0  0  0  0  0  0
   40.7550   35.7660   39.6340 C   0  0  0  0  0  0  0  0  0  0  0  0
   40.4360   34.5840   38.7400 C   0  0  2  0  0  0  0  0  0  0  0  0
   41.6370   33.5860   38.8880 C   0  0  1  0  0  0  0  0  0  0  0  0
   43.7350   33.9100   38.5850 H   0  0  0  0  0  0  0  0  0  0  0  0
   43.5670   36.1070   40.0640 H   0  0  0  0  0  0  0  0  0  0  0  0
   39.8300   36.0220   40.1840 H   0  0  0  0  0  0  0  0  0  0  0  0
   41.0620   36.6710   39.0720 H   0  0  0  0  0  0  0  0  0  0  0  0
   39.5020   34.0630   39.0270 H   0  0  0  0  0  0  0  0  0  0  0  0
   41.4270   33.3430   39.9760 H   0  0  0  0  0  0  0  0  0  0  0  0
   42.6080   35.4440   37.7470 O   0  0  0  0  0  0  0  0  0  0  0  0
   43.1040   35.2260   36.9110 H   0  0  0  0  0  0  0  0  0  0  0  0
   40.4510   34.9820   37.4130 O   0  0  0  0  0  0  0  0  0  0  0  0
   40.7150   34.3020   36.7690 H   0  0  0  0  0  0  0  0  0  0  0  0
   43.4870   34.2010   40.9720 O   0  0  0  0  0  0  0  0  0  0  0  0
   44.5960   34.3350   41.7090 C   0  0  0  0  0  0  0  0  0  0  0  0
   45.8550   34.4500   41.1020 C   0  0  0  0  0  0  0  0  0  0  0  0
   46.9720   34.5880   41.9050 C   0  0  0  0  0  0  0  0  0  0  0  0
   46.8160   34.6100   43.2820 N   0  0  0  0  0  0  0  0  0  0  0  0
   45.5860   34.4950   43.8280 C   0  0  0  0  0  0  0  0  0  0  0  0
   44.4840   34.3590   43.0460 N   0  0  0  0  0  0  0  0  0  0  0  0
   45.9700   34.4330   40.0450 H   0  0  0  0  0  0  0  0  0  0  0  0
   45.4430   34.5100   44.9060 H   0  0  0  0  0  0  0  0  0  0  0  0
   48.3510   34.6870   41.3220 C   0  0  0  0  0  0  0  0  0  0  0  0
   49.0730   36.0210   41.5090 C   0  0  0  0  0  0  0  0  0  0  0  0
   49.4980   34.7000   42.1750 C   0  0  0  0  0  0  0  0  0  0  0  0
   48.3900   34.2310   40.3190 H   0  0  0  0  0  0  0  0  0  0  0  0
   48.5520   36.7700   42.1190 H   0  0  0  0  0  0  0  0  0  0  0  0
   49.6460   36.3280   40.6200 H   0  0  0  0  0  0  0  0  0  0  0  0
   50.4540   34.3100   41.8230 H   0  0  0  0  0  0  0  0  0  0  0  0
   49.4190   34.7540   43.2920 H   0  0  0  0  0  0  0  0  0  0  0  0
   41.4900   32.6340   37.9510 O   0  0  0  0  0  0  0  0  0  0  0  0
   40.8300   31.4710   37.9710 C   0  0  0  0  0  0  0  0  0  0  0  0
   39.6190   31.3520   37.4310 O   0  0  0  0  0  0  0  0  0  0  0  0
   41.1720   30.1030   38.5160 C   0  0  0  0  0  0  0  0  0  0  0  0
   40.3060   29.0830   38.4520 N   0  0  0  0  0  0  0  0  0  0  0  0
   40.8610   27.9810   38.9970 C   0  0  0  0  0  0  0  0  0  0  0  0
   40.3560   27.0460   39.0570 H   0  0  0  0  0  0  0  0  0  0  0  0
   42.0880   28.3240   39.4020 N   0  0  0  0  0  0  0  0  0  0  0  0
   42.8000   27.7230   39.8680 H   0  0  0  0  0  0  0  0  0  0  0  0
   42.2610   29.5890   39.1110 N   0  0  0  0  0  0  0  0  0  0  0  0
  1  7  1  6  0  0  0
  1  6  1  0  0  0  0
  1  2  1  0  0  0  0
  2  8  1  6  0  0  0
  2  3  1  0  0  0  0
  2 17  1  0  0  0  0
  4  9  1  0  0  0  0
  4  3  1  0  0  0  0
  5  6  1  0  0  0  0
  5 11  1  1  0  0  0
  5  4  1  0  0  0  0
  6 12  1  1  0  0  0
 10  4  1  0  0  0  0
 13  1  1  0  0  0  0
 14 13  1  0  0  0  0
 15  5  1  0  0  0  0
 16 15  1  0  0  0  0
 17 18  1  0  0  0  0
 18 23  1  0  0  0  0
 19 18  2  0  0  0  0
 19 20  1  0  0  0  0
 20 21  2  0  0  0  0
 21 22  1  0  0  0  0
 22 25  1  0  0  0  0
 23 22  2  0  0  0  0
 24 19  1  0  0  0  0
 26 27  1  0  0  0  0
 26 20  1  0  0  0  0
 26 28  1  0  0  0  0
 27 30  1  0  0  0  0
 27 28  1  0  0  0  0
 28 33  1  0  0  0  0
 29 26  1  0  0  0  0
 31 27  1  0  0  0  0
 32 28  1  0  0  0  0
 34 35  1  0  0  0  0
 34  6  1  0  0  0  0
 35 37  1  0  0  0  0
 36 35  2  0  0  0  0
 37 43  2  0  0  0  0
 38 37  1  0  0  0  0
 38 39  2  0  0  0  0
 39 40  1  0  0  0  0
 39 41  1  0  0  0  0
 41 42  1  0  0  0  0
 43 41  1  0  0  0  0
M  END
>  <minimizedAffinity>
-5.61434746

>  <minimizedRMSD>
0.219207153

$$$$
