
 OpenBabel03242523533D

 43 46  0  0  1  0  0  0  0  0999 V2000
   42.8120   34.5160   38.7380 C   0  0  1  0  0  0  0  0  0  0  0  0
   42.9570   35.1760   40.1000 C   0  0  1  0  0  0  0  0  0  0  0  0
   41.6670   35.3940   40.6230 O   0  0  0  0  0  0  0  0  0  0  0  0
   40.7360   35.7340   39.6380 C   0  0  0  0  0  0  0  0  0  0  0  0
   40.4330   34.5670   38.7190 C   0  0  2  0  0  0  0  0  0  0  0  0
   41.6490   33.5840   38.8460 C   0  0  1  0  0  0  0  0  0  0  0  0
   43.7420   33.9460   38.5470 H   0  0  0  0  0  0  0  0  0  0  0  0
   43.5430   36.1080   40.0730 H   0  0  0  0  0  0  0  0  0  0  0  0
   39.8080   35.9650   40.1940 H   0  0  0  0  0  0  0  0  0  0  0  0
   41.0280   36.6550   39.0950 H   0  0  0  0  0  0  0  0  0  0  0  0
   39.5070   34.0260   38.9970 H   0  0  0  0  0  0  0  0  0  0  0  0
   41.4450   33.3150   39.9290 H   0  0  0  0  0  0  0  0  0  0  0  0
   42.5910   35.4810   37.7420 O   0  0  0  0  0  0  0  0  0  0  0  0
   43.0890   35.2880   36.9020 H   0  0  0  0  0  0  0  0  0  0  0  0
   40.4400   34.9930   37.4010 O   0  0  0  0  0  0  0  0  0  0  0  0
   40.7140   34.3310   36.7430 H   0  0  0  0  0  0  0  0  0  0  0  0
   43.4920   34.1820   40.9390 O   0  0  0  0  0  0  0  0  0  0  0  0
   44.5950   34.3200   41.6850 C   0  0  0  0  0  0  0  0  0  0  0  0
   45.8590   34.4370   41.0880 C   0  0  0  0  0  0  0  0  0  0  0  0
   46.9690   34.5800   41.9000 C   0  0  0  0  0  0  0  0  0  0  0  0
   46.8010   34.6040   43.2760 N   0  0  0  0  0  0  0  0  0  0  0  0
   45.5670   34.4890   43.8120 C   0  0  0  0  0  0  0  0  0  0  0  0
   44.4720   34.3480   43.0210 N   0  0  0  0  0  0  0  0  0  0  0  0
   45.9830   34.4170   40.0320 H   0  0  0  0  0  0  0  0  0  0  0  0
   45.4150   34.5060   44.8890 H   0  0  0  0  0  0  0  0  0  0  0  0
   48.3530   34.6810   41.3290 C   0  0  0  0  0  0  0  0  0  0  0  0
   49.0690   36.0170   41.5150 C   0  0  0  0  0  0  0  0  0  0  0  0
   49.4930   34.7020   42.1920 C   0  0  0  0  0  0  0  0  0  0  0  0
   48.4020   34.2200   40.3290 H   0  0  0  0  0  0  0  0  0  0  0  0
   48.5400   36.7680   42.1170 H   0  0  0  0  0  0  0  0  0  0  0  0
   49.6480   36.3220   40.6290 H   0  0  0  0  0  0  0  0  0  0  0  0
   50.4530   34.3130   41.8500 H   0  0  0  0  0  0  0  0  0  0  0  0
   49.4040   34.7610   43.3070 H   0  0  0  0  0  0  0  0  0  0  0  0
   41.5150   32.6510   37.8880 O   0  0  0  0  0  0  0  0  0  0  0  0
   40.8690   31.4790   37.8830 C   0  0  0  0  0  0  0  0  0  0  0  0
   39.6060   31.3860   37.4720 O   0  0  0  0  0  0  0  0  0  0  0  0
   41.2780   30.0760   38.2710 C   0  0  0  0  0  0  0  0  0  0  0  0
   41.8620   29.8120   39.4460 N   0  0  0  0  0  0  0  0  0  0  0  0
   42.1140   28.4910   39.5430 C   0  0  0  0  0  0  0  0  0  0  0  0
   42.5760   28.0490   40.3930 H   0  0  0  0  0  0  0  0  0  0  0  0
   41.6790   27.9290   38.4100 N   0  0  0  0  0  0  0  0  0  0  0  0
   41.7110   26.9230   38.1400 H   0  0  0  0  0  0  0  0  0  0  0  0
   41.1840   28.8830   37.6610 N   0  0  0  0  0  0  0  0  0  0  0  0
  1  7  1  6  0  0  0
  1  6  1  0  0  0  0
  1  2  1  0  0  0  0
  2  8  1  6  0  0  0
  2  3  1  0  0  0  0
  2 17  1  0  0  0  0
  4  9  1  0  0  0  0
  4  3  1  0  0  0  0
  5  6  1  0  0  0  0
  5 11  1  1  0  0  0
  5  4  1  0  0  0  0
  6 12  1  1  0  0  0
 10  4  1  0  0  0  0
 13  1  1  0  0  0  0
 14 13  1  0  0  0  0
 15  5  1  0  0  0  0
 16 15  1  0  0  0  0
 17 18  1  0  0  0  0
 18 23  1  0  0  0  0
 19 18  2  0  0  0  0
 19 20  1  0  0  0  0
 20 21  2  0  0  0  0
 21 22  1  0  0  0  0
 22 25  1  0  0  0  0
 23 22  2  0  0  0  0
 24 19  1  0  0  0  0
 26 27  1  0  0  0  0
 26 20  1  0  0  0  0
 26 28  1  0  0  0  0
 27 30  1  0  0  0  0
 27 28  1  0  0  0  0
 28 33  1  0  0  0  0
 29 26  1  0  0  0  0
 31 27  1  0  0  0  0
 32 28  1  0  0  0  0
 34  6  1  0  0  0  0
 35 34  1  0  0  0  0
 35 37  1  0  0  0  0
 36 35  2  0  0  0  0
 37 38  1  0  0  0  0
 38 39  2  0  0  0  0
 39 40  1  0  0  0  0
 41 39  1  0  0  0  0
 42 41  1  0  0  0  0
 43 37  2  0  0  0  0
 43 41  1  0  0  0  0
M  END
>  <minimizedAffinity>
-5.58971596

>  <minimizedRMSD>
0.107540086

$$$$
