
 OpenBabel03242523533D

 43 46  0  0  1  0  0  0  0  0999 V2000
   42.8150   34.4950   38.7680 C   0  0  1  0  0  0  0  0  0  0  0  0
   42.9670   35.1860   40.1130 C   0  0  1  0  0  0  0  0  0  0  0  0
   41.6790   35.4320   40.6290 O   0  0  0  0  0  0  0  0  0  0  0  0
   40.7530   35.7590   39.6350 C   0  0  0  0  0  0  0  0  0  0  0  0
   40.4370   34.5730   38.7450 C   0  0  2  0  0  0  0  0  0  0  0  0
   41.6420   33.5800   38.8970 C   0  0  1  0  0  0  0  0  0  0  0  0
   43.7390   33.9090   38.5910 H   0  0  0  0  0  0  0  0  0  0  0  0
   43.5640   36.1110   40.0630 H   0  0  0  0  0  0  0  0  0  0  0  0
   39.8270   36.0140   40.1850 H   0  0  0  0  0  0  0  0  0  0  0  0
   41.0560   36.6630   39.0700 H   0  0  0  0  0  0  0  0  0  0  0  0
   39.5050   34.0490   39.0360 H   0  0  0  0  0  0  0  0  0  0  0  0
   41.4330   33.3400   39.9860 H   0  0  0  0  0  0  0  0  0  0  0  0
   42.6060   35.4370   37.7480 O   0  0  0  0  0  0  0  0  0  0  0  0
   43.1020   35.2180   36.9130 H   0  0  0  0  0  0  0  0  0  0  0  0
   40.4500   34.9660   37.4170 O   0  0  0  0  0  0  0  0  0  0  0  0
   40.7160   34.2850   36.7760 H   0  0  0  0  0  0  0  0  0  0  0  0
   43.4900   34.2070   40.9770 O   0  0  0  0  0  0  0  0  0  0  0  0
   44.6000   34.3480   41.7130 C   0  0  0  0  0  0  0  0  0  0  0  0
   45.8590   34.4560   41.1050 C   0  0  0  0  0  0  0  0  0  0  0  0
   46.9760   34.6010   41.9070 C   0  0  0  0  0  0  0  0  0  0  0  0
   46.8190   34.6360   43.2840 N   0  0  0  0  0  0  0  0  0  0  0  0
   45.5890   34.5280   43.8310 C   0  0  0  0  0  0  0  0  0  0  0  0
   44.4870   34.3850   43.0500 N   0  0  0  0  0  0  0  0  0  0  0  0
   45.9740   34.4280   40.0480 H   0  0  0  0  0  0  0  0  0  0  0  0
   45.4460   34.5540   44.9080 H   0  0  0  0  0  0  0  0  0  0  0  0
   48.3550   34.6930   41.3230 C   0  0  0  0  0  0  0  0  0  0  0  0
   49.0820   36.0250   41.5060 C   0  0  0  0  0  0  0  0  0  0  0  0
   49.5030   34.7050   42.1770 C   0  0  0  0  0  0  0  0  0  0  0  0
   48.3920   34.2340   40.3220 H   0  0  0  0  0  0  0  0  0  0  0  0
   48.5640   36.7780   42.1140 H   0  0  0  0  0  0  0  0  0  0  0  0
   49.6550   36.3270   40.6160 H   0  0  0  0  0  0  0  0  0  0  0  0
   50.4570   34.3100   41.8250 H   0  0  0  0  0  0  0  0  0  0  0  0
   49.4240   34.7630   43.2930 H   0  0  0  0  0  0  0  0  0  0  0  0
   41.4970   32.6240   37.9630 O   0  0  0  0  0  0  0  0  0  0  0  0
   40.8340   31.4630   37.9840 C   0  0  0  0  0  0  0  0  0  0  0  0
   39.6340   31.3400   37.4190 O   0  0  0  0  0  0  0  0  0  0  0  0
   41.1590   30.1010   38.5540 C   0  0  0  0  0  0  0  0  0  0  0  0
   42.1520   29.3510   38.0610 N   0  0  0  0  0  0  0  0  0  0  0  0
   42.2370   28.1960   38.7510 C   0  0  0  0  0  0  0  0  0  0  0  0
   42.9560   27.4410   38.5360 H   0  0  0  0  0  0  0  0  0  0  0  0
   41.2810   28.2320   39.6850 N   0  0  0  0  0  0  0  0  0  0  0  0
   41.0540   27.5070   40.3990 H   0  0  0  0  0  0  0  0  0  0  0  0
   40.6470   29.3720   39.5580 N   0  0  0  0  0  0  0  0  0  0  0  0
  1  7  1  6  0  0  0
  1  6  1  0  0  0  0
  1  2  1  0  0  0  0
  2  8  1  6  0  0  0
  2  3  1  0  0  0  0
  2 17  1  0  0  0  0
  4  9  1  0  0  0  0
  4  3  1  0  0  0  0
  5  6  1  0  0  0  0
  5 11  1  1  0  0  0
  5  4  1  0  0  0  0
  6 12  1  1  0  0  0
 10  4  1  0  0  0  0
 13  1  1  0  0  0  0
 14 13  1  0  0  0  0
 15  5  1  0  0  0  0
 16 15  1  0  0  0  0
 17 18  1  0  0  0  0
 18 23  1  0  0  0  0
 19 18  2  0  0  0  0
 19 20  1  0  0  0  0
 20 21  2  0  0  0  0
 21 22  1  0  0  0  0
 22 25  1  0  0  0  0
 23 22  2  0  0  0  0
 24 19  1  0  0  0  0
 26 27  1  0  0  0  0
 26 20  1  0  0  0  0
 26 28  1  0  0  0  0
 27 30  1  0  0  0  0
 27 28  1  0  0  0  0
 28 33  1  0  0  0  0
 29 26  1  0  0  0  0
 31 27  1  0  0  0  0
 32 28  1  0  0  0  0
 34 35  1  0  0  0  0
 34  6  1  0  0  0  0
 35 37  1  0  0  0  0
 36 35  2  0  0  0  0
 37 43  2  0  0  0  0
 38 37  1  0  0  0  0
 38 39  2  0  0  0  0
 39 41  1  0  0  0  0
 40 39  1  0  0  0  0
 41 42  1  0  0  0  0
 43 41  1  0  0  0  0
M  END
>  <minimizedAffinity>
-5.61224461

>  <minimizedRMSD>
0.266471386

$$$$
