
 OpenBabel03242523533D

 43 46  0  0  1  0  0  0  0  0999 V2000
   42.8020   34.4840   38.7610 C   0  0  1  0  0  0  0  0  0  0  0  0
   42.9650   35.1790   40.1030 C   0  0  1  0  0  0  0  0  0  0  0  0
   41.6830   35.4370   40.6240 O   0  0  0  0  0  0  0  0  0  0  0  0
   40.7550   35.7690   39.6330 C   0  0  0  0  0  0  0  0  0  0  0  0
   40.4240   34.5820   38.7490 C   0  0  2  0  0  0  0  0  0  0  0  0
   41.6210   33.5790   38.8990 C   0  0  1  0  0  0  0  0  0  0  0  0
   43.7200   33.8900   38.5830 H   0  0  0  0  0  0  0  0  0  0  0  0
   43.5700   36.0980   40.0470 H   0  0  0  0  0  0  0  0  0  0  0  0
   39.8340   36.0340   40.1860 H   0  0  0  0  0  0  0  0  0  0  0  0
   41.0630   36.6680   39.0640 H   0  0  0  0  0  0  0  0  0  0  0  0
   39.4890   34.0680   39.0460 H   0  0  0  0  0  0  0  0  0  0  0  0
   41.4160   33.3450   39.9900 H   0  0  0  0  0  0  0  0  0  0  0  0
   42.5960   35.4240   37.7390 O   0  0  0  0  0  0  0  0  0  0  0  0
   43.0860   35.1980   36.9030 H   0  0  0  0  0  0  0  0  0  0  0  0
   40.4350   34.9700   37.4200 O   0  0  0  0  0  0  0  0  0  0  0  0
   40.6920   34.2850   36.7800 H   0  0  0  0  0  0  0  0  0  0  0  0
   43.4840   34.1980   40.9690 O   0  0  0  0  0  0  0  0  0  0  0  0
   44.5930   34.3360   41.7060 C   0  0  0  0  0  0  0  0  0  0  0  0
   45.8530   34.4470   41.1000 C   0  0  0  0  0  0  0  0  0  0  0  0
   46.9690   34.5880   41.9040 C   0  0  0  0  0  0  0  0  0  0  0  0
   46.8110   34.6170   43.2810 N   0  0  0  0  0  0  0  0  0  0  0  0
   45.5800   34.5070   43.8260 C   0  0  0  0  0  0  0  0  0  0  0  0
   44.4790   34.3670   43.0430 N   0  0  0  0  0  0  0  0  0  0  0  0
   45.9690   34.4240   40.0430 H   0  0  0  0  0  0  0  0  0  0  0  0
   45.4360   34.5270   44.9030 H   0  0  0  0  0  0  0  0  0  0  0  0
   48.3490   34.6840   41.3220 C   0  0  0  0  0  0  0  0  0  0  0  0
   49.0730   36.0160   41.5070 C   0  0  0  0  0  0  0  0  0  0  0  0
   49.4950   34.6960   42.1770 C   0  0  0  0  0  0  0  0  0  0  0  0
   48.3880   34.2260   40.3200 H   0  0  0  0  0  0  0  0  0  0  0  0
   48.5540   36.7670   42.1160 H   0  0  0  0  0  0  0  0  0  0  0  0
   49.6480   36.3200   40.6190 H   0  0  0  0  0  0  0  0  0  0  0  0
   50.4510   34.3030   41.8270 H   0  0  0  0  0  0  0  0  0  0  0  0
   49.4150   34.7520   43.2930 H   0  0  0  0  0  0  0  0  0  0  0  0
   41.4640   32.6210   37.9690 O   0  0  0  0  0  0  0  0  0  0  0  0
   40.7630   31.4820   37.9860 C   0  0  0  0  0  0  0  0  0  0  0  0
   39.5600   31.4020   37.4210 O   0  0  0  0  0  0  0  0  0  0  0  0
   41.0440   30.1080   38.5490 C   0  0  0  0  0  0  0  0  0  0  0  0
   41.1670   29.0350   37.7570 N   0  0  0  0  0  0  0  0  0  0  0  0
   41.4240   27.9430   38.5070 C   0  0  0  0  0  0  0  0  0  0  0  0
   41.5610   26.9730   38.0920 H   0  0  0  0  0  0  0  0  0  0  0  0
   41.4600   28.3480   39.7810 N   0  0  0  0  0  0  0  0  0  0  0  0
   41.6350   27.7730   40.6320 H   0  0  0  0  0  0  0  0  0  0  0  0
   41.2320   29.6380   39.7920 N   0  0  0  0  0  0  0  0  0  0  0  0
  1  7  1  6  0  0  0
  1  6  1  0  0  0  0
  1  2  1  0  0  0  0
  2  8  1  6  0  0  0
  2  3  1  0  0  0  0
  2 17  1  0  0  0  0
  4  9  1  0  0  0  0
  4  3  1  0  0  0  0
  5  6  1  0  0  0  0
  5 11  1  1  0  0  0
  5  4  1  0  0  0  0
  6 12  1  1  0  0  0
 10  4  1  0  0  0  0
 13  1  1  0  0  0  0
 14 13  1  0  0  0  0
 15  5  1  0  0  0  0
 16 15  1  0  0  0  0
 17 18  1  0  0  0  0
 18 23  1  0  0  0  0
 19 18  2  0  0  0  0
 19 20  1  0  0  0  0
 20 21  2  0  0  0  0
 21 22  1  0  0  0  0
 22 25  1  0  0  0  0
 23 22  2  0  0  0  0
 24 19  1  0  0  0  0
 26 27  1  0  0  0  0
 26 20  1  0  0  0  0
 26 28  1  0  0  0  0
 27 30  1  0  0  0  0
 27 28  1  0  0  0  0
 28 33  1  0  0  0  0
 29 26  1  0  0  0  0
 31 27  1  0  0  0  0
 32 28  1  0  0  0  0
 34 35  1  0  0  0  0
 34  6  1  0  0  0  0
 35 37  1  0  0  0  0
 36 35  2  0  0  0  0
 37 43  2  0  0  0  0
 38 39  2  0  0  0  0
 38 37  1  0  0  0  0
 39 41  1  0  0  0  0
 40 39  1  0  0  0  0
 41 43  1  0  0  0  0
 41 42  1  0  0  0  0
M  END
>  <minimizedAffinity>
-5.61631823

>  <minimizedRMSD>
0.295163959

$$$$
