
 OpenBabel03242523533D

 43 46  0  0  1  0  0  0  0  0999 V2000
   42.7990   34.4720   38.7600 C   0  0  1  0  0  0  0  0  0  0  0  0
   42.9740   35.1750   40.0970 C   0  0  1  0  0  0  0  0  0  0  0  0
   41.6960   35.4480   40.6210 O   0  0  0  0  0  0  0  0  0  0  0  0
   40.7670   35.7810   39.6310 C   0  0  0  0  0  0  0  0  0  0  0  0
   40.4230   34.5910   38.7560 C   0  0  2  0  0  0  0  0  0  0  0  0
   41.6120   33.5790   38.9090 C   0  0  1  0  0  0  0  0  0  0  0  0
   43.7110   33.8680   38.5830 H   0  0  0  0  0  0  0  0  0  0  0  0
   43.5870   36.0880   40.0330 H   0  0  0  0  0  0  0  0  0  0  0  0
   39.8510   36.0580   40.1850 H   0  0  0  0  0  0  0  0  0  0  0  0
   41.0810   36.6730   39.0540 H   0  0  0  0  0  0  0  0  0  0  0  0
   39.4840   34.0870   39.0600 H   0  0  0  0  0  0  0  0  0  0  0  0
   41.4080   33.3540   40.0020 H   0  0  0  0  0  0  0  0  0  0  0  0
   42.5990   35.4070   37.7330 O   0  0  0  0  0  0  0  0  0  0  0  0
   43.0840   35.1700   36.8960 H   0  0  0  0  0  0  0  0  0  0  0  0
   40.4320   34.9700   37.4240 O   0  0  0  0  0  0  0  0  0  0  0  0
   40.6810   34.2780   36.7880 H   0  0  0  0  0  0  0  0  0  0  0  0
   43.4880   34.1960   40.9670 O   0  0  0  0  0  0  0  0  0  0  0  0
   44.5960   34.3310   41.7060 C   0  0  0  0  0  0  0  0  0  0  0  0
   45.8560   34.4460   41.1010 C   0  0  0  0  0  0  0  0  0  0  0  0
   46.9720   34.5860   41.9060 C   0  0  0  0  0  0  0  0  0  0  0  0
   46.8120   34.6090   43.2830 N   0  0  0  0  0  0  0  0  0  0  0  0
   45.5820   34.4960   43.8270 C   0  0  0  0  0  0  0  0  0  0  0  0
   44.4810   34.3570   43.0430 N   0  0  0  0  0  0  0  0  0  0  0  0
   45.9720   34.4270   40.0440 H   0  0  0  0  0  0  0  0  0  0  0  0
   45.4370   34.5120   44.9050 H   0  0  0  0  0  0  0  0  0  0  0  0
   48.3510   34.6840   41.3260 C   0  0  0  0  0  0  0  0  0  0  0  0
   49.0710   36.0190   41.5090 C   0  0  0  0  0  0  0  0  0  0  0  0
   49.4970   34.7020   42.1820 C   0  0  0  0  0  0  0  0  0  0  0  0
   48.3930   34.2250   40.3250 H   0  0  0  0  0  0  0  0  0  0  0  0
   48.5480   36.7700   42.1160 H   0  0  0  0  0  0  0  0  0  0  0  0
   49.6450   36.3240   40.6200 H   0  0  0  0  0  0  0  0  0  0  0  0
   50.4540   34.3110   41.8330 H   0  0  0  0  0  0  0  0  0  0  0  0
   49.4150   34.7600   43.2970 H   0  0  0  0  0  0  0  0  0  0  0  0
   41.4430   32.6160   37.9860 O   0  0  0  0  0  0  0  0  0  0  0  0
   40.7200   31.4910   38.0080 C   0  0  0  0  0  0  0  0  0  0  0  0
   39.5240   31.4250   37.4260 O   0  0  0  0  0  0  0  0  0  0  0  0
   40.9660   30.1190   38.5950 C   0  0  0  0  0  0  0  0  0  0  0  0
   42.1030   29.8230   39.2360 N   0  0  0  0  0  0  0  0  0  0  0  0
   42.0640   28.5450   39.6660 C   0  0  0  0  0  0  0  0  0  0  0  0
   42.8610   28.0880   40.2020 H   0  0  0  0  0  0  0  0  0  0  0  0
   40.8830   28.0440   39.2840 N   0  0  0  0  0  0  0  0  0  0  0  0
   40.5130   27.0840   39.4460 H   0  0  0  0  0  0  0  0  0  0  0  0
   40.2400   28.9910   38.6470 N   0  0  0  0  0  0  0  0  0  0  0  0
  1  7  1  6  0  0  0
  1  6  1  0  0  0  0
  1  2  1  0  0  0  0
  2  8  1  6  0  0  0
  2  3  1  0  0  0  0
  2 17  1  0  0  0  0
  4  9  1  0  0  0  0
  4  3  1  0  0  0  0
  5  6  1  0  0  0  0
  5 11  1  1  0  0  0
  5  4  1  0  0  0  0
  6 12  1  1  0  0  0
 10  4  1  0  0  0  0
 13  1  1  0  0  0  0
 14 13  1  0  0  0  0
 15  5  1  0  0  0  0
 16 15  1  0  0  0  0
 17 18  1  0  0  0  0
 18 23  1  0  0  0  0
 19 18  2  0  0  0  0
 19 20  1  0  0  0  0
 20 21  2  0  0  0  0
 21 22  1  0  0  0  0
 22 25  1  0  0  0  0
 23 22  2  0  0  0  0
 24 19  1  0  0  0  0
 26 27  1  0  0  0  0
 26 20  1  0  0  0  0
 26 28  1  0  0  0  0
 27 30  1  0  0  0  0
 27 28  1  0  0  0  0
 28 33  1  0  0  0  0
 29 26  1  0  0  0  0
 31 27  1  0  0  0  0
 32 28  1  0  0  0  0
 34 35  1  0  0  0  0
 34  6  1  0  0  0  0
 35 37  1  0  0  0  0
 36 35  2  0  0  0  0
 37 43  2  0  0  0  0
 37 38  1  0  0  0  0
 38 39  2  0  0  0  0
 39 40  1  0  0  0  0
 41 42  1  0  0  0  0
 41 39  1  0  0  0  0
 43 41  1  0  0  0  0
M  END
>  <minimizedAffinity>
-5.61880589

>  <minimizedRMSD>
0.354791105

$$$$
