
 OpenBabel03242522503D

 24 25  0  0  0  0  0  0  0  0999 V2000
   45.4990   30.7790   47.5660 O   0  0  0  0  0  0  0  0  0  0  0  0
   45.8720   32.0550   48.3630 P   0  0  2  0  0  0  0  0  0  0  0  0
   45.3060   31.7790   49.9220 O   0  0  0  0  0  0  0  0  0  0  0  0
   45.9770   32.0140   50.6140 H   0  0  0  0  0  0  0  0  0  0  0  0
   45.0530   33.3550   47.6630 O   0  0  0  0  0  0  0  0  0  0  0  0
   46.6960   33.5010   44.4220 C   0  0  0  0  0  0  0  0  0  0  0  0
   46.3450   33.1000   45.7300 C   0  0  0  0  0  0  0  0  0  0  0  0
   45.3530   33.7860   46.3890 C   0  0  0  0  0  0  0  0  0  0  0  0
   44.7510   34.8210   45.7520 N   0  0  0  0  0  0  0  0  0  0  0  0
   45.0910   35.1920   44.5130 C   0  0  0  0  0  0  0  0  0  0  0  0
   46.0620   34.5380   43.8410 N   0  0  0  0  0  0  0  0  0  0  0  0
   47.4610   33.0280   43.8220 H   0  0  0  0  0  0  0  0  0  0  0  0
   46.9360   32.2700   46.0360 H   0  0  0  0  0  0  0  0  0  0  0  0
   44.4870   36.0350   44.2000 H   0  0  0  0  0  0  0  0  0  0  0  0
   47.5120   32.2600   48.3110 O   0  0  0  0  0  0  0  0  0  0  0  0
   48.5420   31.6060   48.8810 C   0  0  0  0  0  0  0  0  0  0  0  0
   49.4830   32.4280   49.3020 O   0  0  0  0  0  0  0  0  0  0  0  0
   49.1180   30.2970   49.2620 C   0  0  0  0  0  0  0  0  0  0  0  0
   49.8400   30.0870   50.3380 N   0  0  0  0  0  0  0  0  0  0  0  0
   50.2210   28.7690   50.3760 C   0  0  0  0  0  0  0  0  0  0  0  0
   50.8230   28.5200   51.2360 H   0  0  0  0  0  0  0  0  0  0  0  0
   49.7150   28.1690   49.2960 N   0  0  0  0  0  0  0  0  0  0  0  0
   49.8930   27.1570   49.1420 H   0  0  0  0  0  0  0  0  0  0  0  0
   49.0630   29.0810   48.6420 N   0  0  0  0  0  0  0  0  0  0  0  0
  2  1  2  6  0  0  0
  2  3  1  0  0  0  0
  3  4  1  0  0  0  0
  5  2  1  0  0  0  0
  6  7  1  0  0  0  0
  7 13  1  0  0  0  0
  7  8  2  0  0  0  0
  8  5  1  0  0  0  0
  9  8  1  0  0  0  0
 10  9  2  0  0  0  0
 11  6  2  0  0  0  0
 11 10  1  0  0  0  0
 12  6  1  0  0  0  0
 14 10  1  0  0  0  0
 15  2  1  0  0  0  0
 15 16  1  0  0  0  0
 16 18  1  0  0  0  0
 16 17  2  0  0  0  0
 18 19  1  0  0  0  0
 19 20  2  0  0  0  0
 20 21  1  0  0  0  0
 22 20  1  0  0  0  0
 23 22  1  0  0  0  0
 24 18  2  0  0  0  0
 24 22  1  0  0  0  0
M  END
>  <minimizedAffinity>
-4.76249504

>  <minimizedRMSD>
0.735854447

$$$$
