
 OpenBabel03242522503D

 24 25  0  0  0  0  0  0  0  0999 V2000
   45.4420   30.8040   47.5540 O   0  0  0  0  0  0  0  0  0  0  0  0
   45.8210   32.0630   48.3750 P   0  0  2  0  0  0  0  0  0  0  0  0
   45.2130   31.7800   49.9180 O   0  0  0  0  0  0  0  0  0  0  0  0
   45.8720   31.9930   50.6280 H   0  0  0  0  0  0  0  0  0  0  0  0
   45.0450   33.3870   47.6720 O   0  0  0  0  0  0  0  0  0  0  0  0
   46.7080   33.4890   44.4400 C   0  0  0  0  0  0  0  0  0  0  0  0
   46.3500   33.1070   45.7520 C   0  0  0  0  0  0  0  0  0  0  0  0
   45.3520   33.7990   46.3940 C   0  0  0  0  0  0  0  0  0  0  0  0
   44.7500   34.8220   45.7370 N   0  0  0  0  0  0  0  0  0  0  0  0
   45.0970   35.1760   44.4950 C   0  0  0  0  0  0  0  0  0  0  0  0
   46.0740   34.5150   43.8390 N   0  0  0  0  0  0  0  0  0  0  0  0
   47.4790   33.0090   43.8530 H   0  0  0  0  0  0  0  0  0  0  0  0
   46.9410   32.2830   46.0750 H   0  0  0  0  0  0  0  0  0  0  0  0
   44.4930   36.0120   44.1650 H   0  0  0  0  0  0  0  0  0  0  0  0
   47.4660   32.2360   48.3640 O   0  0  0  0  0  0  0  0  0  0  0  0
   48.4780   31.4590   48.7930 C   0  0  0  0  0  0  0  0  0  0  0  0
   49.4700   32.1650   49.2990 O   0  0  0  0  0  0  0  0  0  0  0  0
   48.9990   30.0830   48.9530 C   0  0  0  0  0  0  0  0  0  0  0  0
   48.8160   29.1110   48.0900 N   0  0  0  0  0  0  0  0  0  0  0  0
   49.4210   27.9720   48.5550 C   0  0  0  0  0  0  0  0  0  0  0  0
   49.3120   27.1270   47.8940 H   0  0  0  0  0  0  0  0  0  0  0  0
   49.9840   28.2630   49.7320 N   0  0  0  0  0  0  0  0  0  0  0  0
   50.4960   27.5220   50.2500 H   0  0  0  0  0  0  0  0  0  0  0  0
   49.7290   29.5130   49.9590 N   0  0  0  0  0  0  0  0  0  0  0  0
  2  1  2  6  0  0  0
  2  3  1  0  0  0  0
  3  4  1  0  0  0  0
  5  2  1  0  0  0  0
  6  7  1  0  0  0  0
  7 13  1  0  0  0  0
  7  8  2  0  0  0  0
  8  5  1  0  0  0  0
  9  8  1  0  0  0  0
 10  9  2  0  0  0  0
 11  6  2  0  0  0  0
 11 10  1  0  0  0  0
 12  6  1  0  0  0  0
 14 10  1  0  0  0  0
 15  2  1  0  0  0  0
 15 16  1  0  0  0  0
 16 18  1  0  0  0  0
 16 17  2  0  0  0  0
 18 24  2  0  0  0  0
 19 20  2  0  0  0  0
 19 18  1  0  0  0  0
 20 22  1  0  0  0  0
 21 20  1  0  0  0  0
 22 24  1  0  0  0  0
 22 23  1  0  0  0  0
M  END
>  <minimizedAffinity>
-4.71400166

>  <minimizedRMSD>
0.481899053

$$$$
