
 OpenBabel03242516523D

 43 46  0  0  1  0  0  0  0  0999 V2000
   47.8320   32.8870   41.8270 C   0  0  1  0  0  0  0  0  0  0  0  0
   47.5340   32.2790   40.5290 C   0  0  0  0  0  0  0  0  0  0  0  0
   48.5750   32.8310   39.5560 C   0  0  0  0  0  0  0  0  0  0  0  0
   48.2260   34.2790   39.3410 C   0  0  0  0  0  0  0  0  0  0  0  0
   48.1340   35.0810   40.6090 C   0  0  0  0  0  0  0  0  0  0  0  0
   47.6230   34.4050   41.8110 C   0  0  1  0  0  0  0  0  0  0  0  0
   48.9470   32.8020   42.0110 H   0  0  0  0  0  0  0  0  0  0  0  0
   47.7330   31.1890   40.5830 H   0  0  0  0  0  0  0  0  0  0  0  0
   46.5250   32.4830   40.1400 H   0  0  0  0  0  0  0  0  0  0  0  0
   48.4190   32.3110   38.5900 H   0  0  0  0  0  0  0  0  0  0  0  0
   49.5720   32.6630   39.9750 H   0  0  0  0  0  0  0  0  0  0  0  0
   48.9900   34.7120   38.6830 H   0  0  0  0  0  0  0  0  0  0  0  0
   47.2520   34.3020   38.8210 H   0  0  0  0  0  0  0  0  0  0  0  0
   49.1320   35.5440   40.7800 H   0  0  0  0  0  0  0  0  0  0  0  0
   47.4570   35.9490   40.3890 H   0  0  0  0  0  0  0  0  0  0  0  0
   48.2060   34.7760   42.7000 H   0  0  0  0  0  0  0  0  0  0  0  0
   45.3820   30.8990   43.9010 C   0  0  0  0  0  0  0  0  0  0  0  0
   46.0710   31.4750   42.8330 C   0  0  0  0  0  0  0  0  0  0  0  0
   47.1710   32.3220   42.9850 C   0  0  0  0  0  0  0  0  0  0  0  0
   47.5410   32.5620   44.2440 N   0  0  0  0  0  0  0  0  0  0  0  0
   46.8780   32.0080   45.2920 C   0  0  0  0  0  0  0  0  0  0  0  0
   45.8290   31.1980   45.1360 N   0  0  0  0  0  0  0  0  0  0  0  0
   44.5520   30.2630   43.6870 H   0  0  0  0  0  0  0  0  0  0  0  0
   45.7320   31.2510   41.8270 H   0  0  0  0  0  0  0  0  0  0  0  0
   47.2210   32.2360   46.2940 H   0  0  0  0  0  0  0  0  0  0  0  0
   46.2330   34.7610   42.1040 C   0  0  0  0  0  0  0  0  0  0  0  0
   45.7600   35.2830   43.3190 C   0  0  0  0  0  0  0  0  0  0  0  0
   44.3910   35.5620   43.3630 C   0  0  0  0  0  0  0  0  0  0  0  0
   43.6320   35.3030   42.2260 C   0  0  0  0  0  0  0  0  0  0  0  0
   44.1230   34.7860   41.0390 C   0  0  0  0  0  0  0  0  0  0  0  0
   45.4580   34.5210   41.0130 N   0  0  0  0  0  0  0  0  0  0  0  0
   46.4700   35.4220   44.0900 H   0  0  0  0  0  0  0  0  0  0  0  0
   44.0090   35.9580   44.2690 H   0  0  0  0  0  0  0  0  0  0  0  0
   42.5710   35.5370   42.3100 H   0  0  0  0  0  0  0  0  0  0  0  0
   43.2350   34.5580   39.9080 C   0  0  0  0  0  0  0  0  0  0  0  0
   42.2110   35.3000   39.8060 O   0  0  0  0  0  0  0  0  0  0  0  0
   43.4170   33.5450   38.8740 C   0  0  0  0  0  0  0  0  0  0  0  0
   44.6290   33.2530   38.3780 N   0  0  0  0  0  0  0  0  0  0  0  0
   44.5100   32.2800   37.4290 C   0  0  0  0  0  0  0  0  0  0  0  0
   45.3430   31.8600   36.8700 H   0  0  0  0  0  0  0  0  0  0  0  0
   43.1990   31.9950   37.3700 N   0  0  0  0  0  0  0  0  0  0  0  0
   42.7790   31.2790   36.7300 H   0  0  0  0  0  0  0  0  0  0  0  0
   42.5590   32.7440   38.2230 N   0  0  0  0  0  0  0  0  0  0  0  0
  1  7  1  1  0  0  0
  1 19  1  0  0  0  0
  2  8  1  0  0  0  0
  2  1  1  0  0  0  0
  3 11  1  0  0  0  0
  3  2  1  0  0  0  0
  4  3  1  0  0  0  0
  4  5  1  0  0  0  0
  5 14  1  0  0  0  0
  5  6  1  0  0  0  0
  6  1  1  0  0  0  0
  6 26  1  0  0  0  0
  6 16  1  1  0  0  0
  9  2  1  0  0  0  0
 10  3  1  0  0  0  0
 12  4  1  0  0  0  0
 13  4  1  0  0  0  0
 15  5  1  0  0  0  0
 17 22  1  0  0  0  0
 18 19  1  0  0  0  0
 18 17  2  0  0  0  0
 19 20  2  0  0  0  0
 20 21  1  0  0  0  0
 21 25  1  0  0  0  0
 22 21  2  0  0  0  0
 23 17  1  0  0  0  0
 24 18  1  0  0  0  0
 26 27  1  0  0  0  0
 27 28  2  0  0  0  0
 27 32  1  0  0  0  0
 28 33  1  0  0  0  0
 29 34  1  0  0  0  0
 29 28  1  0  0  0  0
 30 29  2  0  0  0  0
 31 30  1  0  0  0  0
 31 26  2  0  0  0  0
 35 30  1  0  0  0  0
 36 35  2  0  0  0  0
 37 35  1  0  0  0  0
 38 37  1  0  0  0  0
 39 38  2  0  0  0  0
 40 39  1  0  0  0  0
 41 39  1  0  0  0  0
 41 43  1  0  0  0  0
 42 41  1  0  0  0  0
 43 37  2  0  0  0  0
M  END
>  <minimizedAffinity>
-5.4129138

>  <minimizedRMSD>
0.576058805

$$$$
