
 OpenBabel03242522503D

 24 25  0  0  0  0  0  0  0  0999 V2000
   45.6590   30.6270   47.7130 O   0  0  0  0  0  0  0  0  0  0  0  0
   45.9580   31.9750   48.4170 P   0  0  2  0  0  0  0  0  0  0  0  0
   45.3160   31.8130   49.9630 O   0  0  0  0  0  0  0  0  0  0  0  0
   45.9420   32.1230   50.6670 H   0  0  0  0  0  0  0  0  0  0  0  0
   45.1480   33.1880   47.5690 O   0  0  0  0  0  0  0  0  0  0  0  0
   47.0270   33.1850   44.4550 C   0  0  0  0  0  0  0  0  0  0  0  0
   46.5790   32.8450   45.7500 C   0  0  0  0  0  0  0  0  0  0  0  0
   45.5430   33.5600   46.3020 C   0  0  0  0  0  0  0  0  0  0  0  0
   44.9930   34.5650   45.5760 N   0  0  0  0  0  0  0  0  0  0  0  0
   45.4260   34.8790   44.3500 C   0  0  0  0  0  0  0  0  0  0  0  0
   46.4410   34.1950   43.7820 N   0  0  0  0  0  0  0  0  0  0  0  0
   47.8330   32.6850   43.9360 H   0  0  0  0  0  0  0  0  0  0  0  0
   47.1420   32.0300   46.1370 H   0  0  0  0  0  0  0  0  0  0  0  0
   44.8500   35.7070   43.9550 H   0  0  0  0  0  0  0  0  0  0  0  0
   47.5940   32.2200   48.4330 O   0  0  0  0  0  0  0  0  0  0  0  0
   48.6250   31.5290   48.9540 C   0  0  0  0  0  0  0  0  0  0  0  0
   49.6030   32.3180   49.3530 O   0  0  0  0  0  0  0  0  0  0  0  0
   49.1780   30.1980   49.2900 C   0  0  0  0  0  0  0  0  0  0  0  0
   49.9260   29.9460   50.3410 N   0  0  0  0  0  0  0  0  0  0  0  0
   50.2740   28.6190   50.3380 C   0  0  0  0  0  0  0  0  0  0  0  0
   50.8910   28.3370   51.1770 H   0  0  0  0  0  0  0  0  0  0  0  0
   49.7250   28.0560   49.2600 N   0  0  0  0  0  0  0  0  0  0  0  0
   49.8740   27.0440   49.0780 H   0  0  0  0  0  0  0  0  0  0  0  0
   49.0780   28.9980   48.6460 N   0  0  0  0  0  0  0  0  0  0  0  0
  2  1  2  6  0  0  0
  2 15  1  0  0  0  0
  2  3  1  0  0  0  0
  3  4  1  0  0  0  0
  5  2  1  0  0  0  0
  6  7  1  0  0  0  0
  7 13  1  0  0  0  0
  7  8  2  0  0  0  0
  8  5  1  0  0  0  0
  9  8  1  0  0  0  0
 10  9  2  0  0  0  0
 11 10  1  0  0  0  0
 11  6  2  0  0  0  0
 12  6  1  0  0  0  0
 14 10  1  0  0  0  0
 15 16  1  0  0  0  0
 16 18  1  0  0  0  0
 16 17  2  0  0  0  0
 18 19  1  0  0  0  0
 20 19  2  0  0  0  0
 20 21  1  0  0  0  0
 22 20  1  0  0  0  0
 23 22  1  0  0  0  0
 24 22  1  0  0  0  0
 24 18  2  0  0  0  0
M  END
>  <minimizedAffinity>
-4.79197836

>  <minimizedRMSD>
0.904650807

$$$$
