
 OpenBabel03242521193D

 36 38  0  0  0  0  0  0  0  0999 V2000
   37.8200   30.7070   37.7360 C   0  0  0  0  0  0  0  0  0  0  0  0
   37.8540   29.8470   38.8550 C   0  0  0  0  0  0  0  0  0  0  0  0
   37.7050   30.4270   40.1010 C   0  0  0  0  0  0  0  0  0  0  0  0
   37.5360   31.7820   40.1660 N   0  0  0  0  0  0  0  0  0  0  0  0
   37.5070   32.5690   39.0890 C   0  0  0  0  0  0  0  0  0  0  0  0
   37.6490   32.0410   37.8500 N   0  0  0  0  0  0  0  0  0  0  0  0
   37.9320   30.3000   36.7290 H   0  0  0  0  0  0  0  0  0  0  0  0
   37.9930   28.8120   38.6710 H   0  0  0  0  0  0  0  0  0  0  0  0
   37.7370   29.5790   41.2490 N   0  0  0  0  0  0  0  0  0  0  0  0
   38.9150   29.4030   41.8710 C   0  0  0  0  0  0  0  0  0  0  0  0
   38.9460   28.5750   42.9900 C   0  0  0  0  0  0  0  0  0  0  0  0
   37.7800   27.9820   43.4030 C   0  0  0  0  0  0  0  0  0  0  0  0
   37.8440   27.2310   44.4300 O   0  0  0  0  0  0  0  0  0  0  0  0
   36.6020   28.1580   42.7810 N   0  0  0  0  0  0  0  0  0  0  0  0
   36.6390   28.9710   41.7020 C   0  0  0  0  0  0  0  0  0  0  0  0
   35.5830   29.1930   41.0600 O   0  0  0  0  0  0  0  0  0  0  0  0
   39.7920   29.9070   41.4820 H   0  0  0  0  0  0  0  0  0  0  0  0
   39.9170   28.4660   43.4550 H   0  0  0  0  0  0  0  0  0  0  0  0
   35.7260   27.6920   43.1190 H   0  0  0  0  0  0  0  0  0  0  0  0
   37.3100   33.9930   39.4590 C   0  0  0  0  0  0  0  0  0  0  0  0
   37.0910   34.5410   38.5140 H   0  0  0  0  0  0  0  0  0  0  0  0
   36.4310   34.1380   40.1270 H   0  0  0  0  0  0  0  0  0  0  0  0
   38.5780   34.5590   40.0840 C   0  0  0  0  0  0  0  0  0  0  0  0
   38.4670   35.6640   40.1000 H   0  0  0  0  0  0  0  0  0  0  0  0
   38.6710   34.2330   41.1520 H   0  0  0  0  0  0  0  0  0  0  0  0
   40.9870   34.6980   39.6190 C   0  0  0  0  0  0  0  0  0  0  0  0
   41.0350   35.4730   40.5890 O   0  0  0  0  0  0  0  0  0  0  0  0
   39.7200   34.1550   39.3080 N   0  0  0  0  0  0  0  0  0  0  0  0
   39.6110   33.4710   38.5270 H   0  0  0  0  0  0  0  0  0  0  0  0
   42.1910   34.3850   38.8630 C   0  0  0  0  0  0  0  0  0  0  0  0
   43.3620   34.0270   39.3720 N   0  0  0  0  0  0  0  0  0  0  0  0
   44.2650   33.8110   38.3970 C   0  0  0  0  0  0  0  0  0  0  0  0
   45.2970   33.5220   38.2480 H   0  0  0  0  0  0  0  0  0  0  0  0
   43.6010   34.0530   37.2380 N   0  0  0  0  0  0  0  0  0  0  0  0
   43.7950   34.0430   36.1940 H   0  0  0  0  0  0  0  0  0  0  0  0
   42.3490   34.3990   37.5280 N   0  0  0  0  0  0  0  0  0  0  0  0
  1  6  2  0  0  0  0
  1  2  1  0  0  0  0
  2  3  2  0  0  0  0
  3  4  1  0  0  0  0
  3  9  1  0  0  0  0
  5 20  1  0  0  0  0
  5  4  2  0  0  0  0
  6  5  1  0  0  0  0
  7  1  1  0  0  0  0
  8  2  1  0  0  0  0
  9 15  1  0  0  0  0
  9 10  1  0  0  0  0
 10 11  2  0  0  0  0
 11 12  1  0  0  0  0
 11 18  1  0  0  0  0
 12 13  2  0  0  0  0
 14 19  1  0  0  0  0
 14 12  1  0  0  0  0
 15 14  1  0  0  0  0
 16 15  2  0  0  0  0
 17 10  1  0  0  0  0
 20 23  1  0  0  0  0
 20 22  1  0  0  0  0
 21 20  1  0  0  0  0
 23 24  1  0  0  0  0
 23 25  1  0  0  0  0
 26 27  2  0  0  0  0
 28 26  1  0  0  0  0
 28 23  1  0  0  0  0
 29 28  1  0  0  0  0
 30 31  1  0  0  0  0
 30 26  1  0  0  0  0
 32 31  2  0  0  0  0
 33 32  1  0  0  0  0
 34 36  1  0  0  0  0
 34 32  1  0  0  0  0
 35 34  1  0  0  0  0
 36 30  2  0  0  0  0
M  END
>  <minimizedAffinity>
-6.0297823

$$$$

 OpenBabel03242521193D

 36 38  0  0  0  0  0  0  0  0999 V2000
   37.5980   27.9000   43.7140 C   0  0  0  0  0  0  0  0  0  0  0  0
   37.7080   29.2260   43.2400 C   0  0  0  0  0  0  0  0  0  0  0  0
   37.8340   29.3990   41.8750 C   0  0  0  0  0  0  0  0  0  0  0  0
   37.8410   28.2850   41.0810 N   0  0  0  0  0  0  0  0  0  0  0  0
   37.7340   27.0450   41.5590 C   0  0  0  0  0  0  0  0  0  0  0  0
   37.6100   26.8310   42.8910 N   0  0  0  0  0  0  0  0  0  0  0  0
   37.4960   27.7090   44.7840 H   0  0  0  0  0  0  0  0  0  0  0  0
   37.6900   30.0040   43.9600 H   0  0  0  0  0  0  0  0  0  0  0  0
   37.9480   30.7290   41.3710 N   0  0  0  0  0  0  0  0  0  0  0  0
   39.1460   31.3330   41.4490 C   0  0  0  0  0  0  0  0  0  0  0  0
   39.2570   32.6310   40.9570 C   0  0  0  0  0  0  0  0  0  0  0  0
   38.1460   33.2290   40.4190 C   0  0  0  0  0  0  0  0  0  0  0  0
   38.2840   34.4170   39.9790 O   0  0  0  0  0  0  0  0  0  0  0  0
   36.9480   32.6260   40.3410 N   0  0  0  0  0  0  0  0  0  0  0  0
   36.9060   31.3680   40.8350 C   0  0  0  0  0  0  0  0  0  0  0  0
   35.8270   30.7280   40.8030 O   0  0  0  0  0  0  0  0  0  0  0  0
   39.9760   30.7930   41.8890 H   0  0  0  0  0  0  0  0  0  0  0  0
   40.2410   33.0730   41.0440 H   0  0  0  0  0  0  0  0  0  0  0  0
   36.1160   33.1070   39.9240 H   0  0  0  0  0  0  0  0  0  0  0  0
   37.7720   26.0360   40.4710 C   0  0  0  0  0  0  0  0  0  0  0  0
   36.8100   25.4770   40.5190 H   0  0  0  0  0  0  0  0  0  0  0  0
   37.8240   26.5040   39.4630 H   0  0  0  0  0  0  0  0  0  0  0  0
   38.9250   25.0650   40.6880 C   0  0  0  0  0  0  0  0  0  0  0  0
   38.5190   24.2000   41.2530 H   0  0  0  0  0  0  0  0  0  0  0  0
   39.2930   24.6630   39.7090 H   0  0  0  0  0  0  0  0  0  0  0  0
   40.4500   25.1400   42.6150 C   0  0  0  0  0  0  0  0  0  0  0  0
   39.9380   24.0550   42.9430 O   0  0  0  0  0  0  0  0  0  0  0  0
   39.9780   25.7220   41.4170 N   0  0  0  0  0  0  0  0  0  0  0  0
   40.3850   26.6150   41.0630 H   0  0  0  0  0  0  0  0  0  0  0  0
   41.4780   25.7530   43.4440 C   0  0  0  0  0  0  0  0  0  0  0  0
   41.3480   26.8670   44.1520 N   0  0  0  0  0  0  0  0  0  0  0  0
   42.4890   27.1580   44.8040 C   0  0  0  0  0  0  0  0  0  0  0  0
   42.9180   27.8910   45.4750 H   0  0  0  0  0  0  0  0  0  0  0  0
   43.3530   26.1640   44.4690 N   0  0  0  0  0  0  0  0  0  0  0  0
   44.3560   25.8810   44.6750 H   0  0  0  0  0  0  0  0  0  0  0  0
   42.7350   25.3200   43.6470 N   0  0  0  0  0  0  0  0  0  0  0  0
  1  7  1  0  0  0  0
  2  1  1  0  0  0  0
  2  8  1  0  0  0  0
  3  2  2  0  0  0  0
  4  5  2  0  0  0  0
  4  3  1  0  0  0  0
  5  6  1  0  0  0  0
  6  1  2  0  0  0  0
  9 10  1  0  0  0  0
  9  3  1  0  0  0  0
 10 17  1  0  0  0  0
 11 18  1  0  0  0  0
 11 10  2  0  0  0  0
 12 11  1  0  0  0  0
 13 12  2  0  0  0  0
 14 12  1  0  0  0  0
 14 15  1  0  0  0  0
 15  9  1  0  0  0  0
 16 15  2  0  0  0  0
 19 14  1  0  0  0  0
 20 21  1  0  0  0  0
 20 23  1  0  0  0  0
 20  5  1  0  0  0  0
 22 20  1  0  0  0  0
 23 24  1  0  0  0  0
 23 28  1  0  0  0  0
 25 23  1  0  0  0  0
 26 27  2  0  0  0  0
 26 30  1  0  0  0  0
 28 26  1  0  0  0  0
 29 28  1  0  0  0  0
 30 36  2  0  0  0  0
 30 31  1  0  0  0  0
 31 32  2  0  0  0  0
 32 33  1  0  0  0  0
 34 35  1  0  0  0  0
 34 32  1  0  0  0  0
 36 34  1  0  0  0  0
M  END
>  <minimizedAffinity>
-5.99964666

$$$$

 OpenBabel03242521193D

 36 38  0  0  0  0  0  0  0  0999 V2000
   40.1430   30.9020   42.5390 C   0  0  0  0  0  0  0  0  0  0  0  0
   39.6790   29.5680   42.5160 C   0  0  0  0  0  0  0  0  0  0  0  0
   38.5940   29.2910   41.7060 C   0  0  0  0  0  0  0  0  0  0  0  0
   38.0470   30.3170   40.9870 N   0  0  0  0  0  0  0  0  0  0  0  0
   38.5090   31.5680   41.0290 C   0  0  0  0  0  0  0  0  0  0  0  0
   39.5700   31.8820   41.8100 N   0  0  0  0  0  0  0  0  0  0  0  0
   40.9970   31.1730   43.1620 H   0  0  0  0  0  0  0  0  0  0  0  0
   40.1900   28.8630   43.1220 H   0  0  0  0  0  0  0  0  0  0  0  0
   38.1060   27.9500   41.6660 N   0  0  0  0  0  0  0  0  0  0  0  0
   37.3280   27.5320   42.6790 C   0  0  0  0  0  0  0  0  0  0  0  0
   36.8530   26.2230   42.6400 C   0  0  0  0  0  0  0  0  0  0  0  0
   37.1980   25.4280   41.5760 C   0  0  0  0  0  0  0  0  0  0  0  0
   36.7450   24.2370   41.5730 O   0  0  0  0  0  0  0  0  0  0  0  0
   37.9760   25.8470   40.5640 N   0  0  0  0  0  0  0  0  0  0  0  0
   38.4050   27.1250   40.6610 C   0  0  0  0  0  0  0  0  0  0  0  0
   39.1370   27.6010   39.7580 O   0  0  0  0  0  0  0  0  0  0  0  0
   37.1010   28.2210   43.4830 H   0  0  0  0  0  0  0  0  0  0  0  0
   36.2310   25.9350   43.4770 H   0  0  0  0  0  0  0  0  0  0  0  0
   38.2230   25.2170   39.7640 H   0  0  0  0  0  0  0  0  0  0  0  0
   37.7230   32.4690   40.1490 C   0  0  0  0  0  0  0  0  0  0  0  0
   37.6290   31.9540   39.1660 H   0  0  0  0  0  0  0  0  0  0  0  0
   36.6890   32.6340   40.5270 H   0  0  0  0  0  0  0  0  0  0  0  0
   38.4550   33.7900   39.9530 C   0  0  0  0  0  0  0  0  0  0  0  0
   37.7640   34.4660   39.4070 H   0  0  0  0  0  0  0  0  0  0  0  0
   38.6640   34.2760   40.9400 H   0  0  0  0  0  0  0  0  0  0  0  0
   40.8010   34.3590   39.4890 C   0  0  0  0  0  0  0  0  0  0  0  0
   40.6830   35.1910   40.4050 O   0  0  0  0  0  0  0  0  0  0  0  0
   39.6670   33.5630   39.2090 N   0  0  0  0  0  0  0  0  0  0  0  0
   39.7040   32.8230   38.4760 H   0  0  0  0  0  0  0  0  0  0  0  0
   42.0550   34.2350   38.7600 C   0  0  0  0  0  0  0  0  0  0  0  0
   43.2610   34.1030   39.2970 N   0  0  0  0  0  0  0  0  0  0  0  0
   44.2060   34.0150   38.3420 C   0  0  0  0  0  0  0  0  0  0  0  0
   45.2750   33.9050   38.2160 H   0  0  0  0  0  0  0  0  0  0  0  0
   43.5310   34.1000   37.1660 N   0  0  0  0  0  0  0  0  0  0  0  0
   43.7450   34.0900   36.1250 H   0  0  0  0  0  0  0  0  0  0  0  0
   42.2330   34.2330   37.4270 N   0  0  0  0  0  0  0  0  0  0  0  0
  1  7  1  0  0  0  0
  2  1  1  0  0  0  0
  2  8  1  0  0  0  0
  3  2  2  0  0  0  0
  4  5  2  0  0  0  0
  4  3  1  0  0  0  0
  5  6  1  0  0  0  0
  6  1  2  0  0  0  0
  9  3  1  0  0  0  0
  9 10  1  0  0  0  0
 10 17  1  0  0  0  0
 11 10  2  0  0  0  0
 11 18  1  0  0  0  0
 12 11  1  0  0  0  0
 13 12  2  0  0  0  0
 14 15  1  0  0  0  0
 14 12  1  0  0  0  0
 15  9  1  0  0  0  0
 16 15  2  0  0  0  0
 19 14  1  0  0  0  0
 20 22  1  0  0  0  0
 20  5  1  0  0  0  0
 21 20  1  0  0  0  0
 23 20  1  0  0  0  0
 23 25  1  0  0  0  0
 24 23  1  0  0  0  0
 26 27  2  0  0  0  0
 28 26  1  0  0  0  0
 28 23  1  0  0  0  0
 29 28  1  0  0  0  0
 30 31  1  0  0  0  0
 30 26  1  0  0  0  0
 32 31  2  0  0  0  0
 33 32  1  0  0  0  0
 34 36  1  0  0  0  0
 34 32  1  0  0  0  0
 35 34  1  0  0  0  0
 36 30  2  0  0  0  0
M  END
>  <minimizedAffinity>
-5.66263723

$$$$

 OpenBabel03242521193D

 36 38  0  0  0  0  0  0  0  0999 V2000
   35.3660   29.3080   40.4580 C   0  0  0  0  0  0  0  0  0  0  0  0
   36.2430   28.3790   41.0580 C   0  0  0  0  0  0  0  0  0  0  0  0
   37.5100   28.8260   41.3810 C   0  0  0  0  0  0  0  0  0  0  0  0
   37.8270   30.1260   41.1010 N   0  0  0  0  0  0  0  0  0  0  0  0
   36.9750   30.9810   40.5340 C   0  0  0  0  0  0  0  0  0  0  0  0
   35.7230   30.5840   40.2010 N   0  0  0  0  0  0  0  0  0  0  0  0
   34.3530   29.0060   40.1840 H   0  0  0  0  0  0  0  0  0  0  0  0
   35.8760   27.3980   41.2230 H   0  0  0  0  0  0  0  0  0  0  0  0
   38.4170   27.9050   41.9880 N   0  0  0  0  0  0  0  0  0  0  0  0
   39.2440   27.2130   41.1870 C   0  0  0  0  0  0  0  0  0  0  0  0
   40.1280   26.3140   41.7800 C   0  0  0  0  0  0  0  0  0  0  0  0
   40.1130   26.1790   43.1450 C   0  0  0  0  0  0  0  0  0  0  0  0
   40.9340   25.3480   43.6530 O   0  0  0  0  0  0  0  0  0  0  0  0
   39.2850   26.8710   43.9460 N   0  0  0  0  0  0  0  0  0  0  0  0
   38.4530   27.7260   43.3100 C   0  0  0  0  0  0  0  0  0  0  0  0
   37.6450   28.4140   43.9810 O   0  0  0  0  0  0  0  0  0  0  0  0
   39.1940   27.3760   40.1170 H   0  0  0  0  0  0  0  0  0  0  0  0
   40.7720   25.7820   41.0930 H   0  0  0  0  0  0  0  0  0  0  0  0
   39.2960   26.7470   44.9870 H   0  0  0  0  0  0  0  0  0  0  0  0
   37.5880   32.3210   40.3490 C   0  0  0  0  0  0  0  0  0  0  0  0
   36.7530   33.0580   40.3580 H   0  0  0  0  0  0  0  0  0  0  0  0
   38.2680   32.5930   41.1880 H   0  0  0  0  0  0  0  0  0  0  0  0
   38.3070   32.3950   39.0090 C   0  0  0  0  0  0  0  0  0  0  0  0
   38.4550   31.3500   38.6620 H   0  0  0  0  0  0  0  0  0  0  0  0
   37.6630   32.8970   38.2430 H   0  0  0  0  0  0  0  0  0  0  0  0
   40.5880   32.8670   38.2230 C   0  0  0  0  0  0  0  0  0  0  0  0
   40.3140   32.1180   37.2700 O   0  0  0  0  0  0  0  0  0  0  0  0
   39.5630   33.0780   39.1730 N   0  0  0  0  0  0  0  0  0  0  0  0
   39.7120   33.7200   39.9820 H   0  0  0  0  0  0  0  0  0  0  0  0
   41.9050   33.4770   38.3290 C   0  0  0  0  0  0  0  0  0  0  0  0
   42.8290   33.1880   39.2370 N   0  0  0  0  0  0  0  0  0  0  0  0
   43.9340   33.9350   39.0530 C   0  0  0  0  0  0  0  0  0  0  0  0
   44.9190   34.1050   39.4660 H   0  0  0  0  0  0  0  0  0  0  0  0
   43.6590   34.7170   37.9770 N   0  0  0  0  0  0  0  0  0  0  0  0
   44.1370   35.4700   37.3990 H   0  0  0  0  0  0  0  0  0  0  0  0
   42.4320   34.4340   37.5460 N   0  0  0  0  0  0  0  0  0  0  0  0
  1  2  1  0  0  0  0
  2  8  1  0  0  0  0
  2  3  2  0  0  0  0
  3  9  1  0  0  0  0
  4  3  1  0  0  0  0
  5  4  2  0  0  0  0
  6  1  2  0  0  0  0
  6  5  1  0  0  0  0
  7  1  1  0  0  0  0
  9 15  1  0  0  0  0
 10 11  2  0  0  0  0
 10  9  1  0  0  0  0
 11 12  1  0  0  0  0
 12 13  2  0  0  0  0
 12 14  1  0  0  0  0
 14 19  1  0  0  0  0
 15 14  1  0  0  0  0
 15 16  2  0  0  0  0
 17 10  1  0  0  0  0
 18 11  1  0  0  0  0
 20 21  1  0  0  0  0
 20  5  1  0  0  0  0
 20 22  1  0  0  0  0
 23 28  1  0  0  0  0
 23 20  1  0  0  0  0
 24 23  1  0  0  0  0
 25 23  1  0  0  0  0
 26 30  1  0  0  0  0
 26 28  1  0  0  0  0
 27 26  2  0  0  0  0
 28 29  1  0  0  0  0
 30 31  1  0  0  0  0
 32 31  2  0  0  0  0
 32 33  1  0  0  0  0
 34 32  1  0  0  0  0
 35 34  1  0  0  0  0
 36 34  1  0  0  0  0
 36 30  2  0  0  0  0
M  END
>  <minimizedAffinity>
-5.65391111

$$$$

 OpenBabel03242521193D

 36 38  0  0  0  0  0  0  0  0999 V2000
   37.2810   28.5430   43.2960 C   0  0  0  0  0  0  0  0  0  0  0  0
   37.0070   27.3050   42.6740 C   0  0  0  0  0  0  0  0  0  0  0  0
   38.0750   26.6280   42.1170 C   0  0  0  0  0  0  0  0  0  0  0  0
   39.3160   27.1960   42.2070 N   0  0  0  0  0  0  0  0  0  0  0  0
   39.5440   28.3670   42.8020 C   0  0  0  0  0  0  0  0  0  0  0  0
   38.5240   29.0630   43.3600 N   0  0  0  0  0  0  0  0  0  0  0  0
   36.4720   29.1170   43.7510 H   0  0  0  0  0  0  0  0  0  0  0  0
   35.9990   26.9740   42.6710 H   0  0  0  0  0  0  0  0  0  0  0  0
   37.8230   25.3750   41.4810 N   0  0  0  0  0  0  0  0  0  0  0  0
   37.0080   25.3630   40.4130 C   0  0  0  0  0  0  0  0  0  0  0  0
   36.7620   24.1400   39.7930 C   0  0  0  0  0  0  0  0  0  0  0  0
   37.3590   23.0130   40.2990 C   0  0  0  0  0  0  0  0  0  0  0  0
   37.1130   21.9120   39.7070 O   0  0  0  0  0  0  0  0  0  0  0  0
   38.1740   23.0260   41.3670 N   0  0  0  0  0  0  0  0  0  0  0  0
   38.3720   24.2420   41.9230 C   0  0  0  0  0  0  0  0  0  0  0  0
   39.1200   24.3480   42.9260 O   0  0  0  0  0  0  0  0  0  0  0  0
   36.5750   26.2960   40.0750 H   0  0  0  0  0  0  0  0  0  0  0  0
   36.1000   24.1830   38.9380 H   0  0  0  0  0  0  0  0  0  0  0  0
   38.6170   22.1490   41.7320 H   0  0  0  0  0  0  0  0  0  0  0  0
   40.9810   28.7360   42.7490 C   0  0  0  0  0  0  0  0  0  0  0  0
   41.1930   29.3280   43.6680 H   0  0  0  0  0  0  0  0  0  0  0  0
   41.6470   27.8440   42.7790 H   0  0  0  0  0  0  0  0  0  0  0  0
   41.2630   29.5940   41.5230 C   0  0  0  0  0  0  0  0  0  0  0  0
   42.0440   30.3290   41.8140 H   0  0  0  0  0  0  0  0  0  0  0  0
   41.6990   28.9740   40.6990 H   0  0  0  0  0  0  0  0  0  0  0  0
   40.0770   31.6420   40.8580 C   0  0  0  0  0  0  0  0  0  0  0  0
   41.1770   32.2070   40.9820 O   0  0  0  0  0  0  0  0  0  0  0  0
   40.0520   30.2500   41.1060 N   0  0  0  0  0  0  0  0  0  0  0  0
   39.1710   29.7050   40.9880 H   0  0  0  0  0  0  0  0  0  0  0  0
   38.8940   32.4000   40.4760 C   0  0  0  0  0  0  0  0  0  0  0  0
   38.8850   33.6090   39.9300 N   0  0  0  0  0  0  0  0  0  0  0  0
   37.6240   34.0240   39.7020 C   0  0  0  0  0  0  0  0  0  0  0  0
   37.0680   34.8620   39.3050 H   0  0  0  0  0  0  0  0  0  0  0  0
   36.8320   33.0090   40.1350 N   0  0  0  0  0  0  0  0  0  0  0  0
   35.7970   32.7830   40.2040 H   0  0  0  0  0  0  0  0  0  0  0  0
   37.6070   32.0320   40.6020 N   0  0  0  0  0  0  0  0  0  0  0  0
  1  6  1  0  0  0  0
  1  7  1  0  0  0  0
  2  1  2  0  0  0  0
  3  4  2  0  0  0  0
  3  2  1  0  0  0  0
  4  5  1  0  0  0  0
  5  6  2  0  0  0  0
  8  2  1  0  0  0  0
  9 15  1  0  0  0  0
  9  3  1  0  0  0  0
 10  9  1  0  0  0  0
 11 12  1  0  0  0  0
 11 10  2  0  0  0  0
 12 14  1  0  0  0  0
 13 12  2  0  0  0  0
 14 19  1  0  0  0  0
 14 15  1  0  0  0  0
 15 16  2  0  0  0  0
 17 10  1  0  0  0  0
 18 11  1  0  0  0  0
 20 22  1  0  0  0  0
 20  5  1  0  0  0  0
 20 21  1  0  0  0  0
 23 24  1  0  0  0  0
 23 20  1  0  0  0  0
 25 23  1  0  0  0  0
 26 27  2  0  0  0  0
 26 28  1  0  0  0  0
 28 23  1  0  0  0  0
 29 28  1  0  0  0  0
 30 36  2  0  0  0  0
 30 26  1  0  0  0  0
 31 30  1  0  0  0  0
 32 31  2  0  0  0  0
 32 34  1  0  0  0  0
 33 32  1  0  0  0  0
 34 35  1  0  0  0  0
 34 36  1  0  0  0  0
M  END
>  <minimizedAffinity>
-5.63881588

$$$$

 OpenBabel03242521193D

 36 38  0  0  0  0  0  0  0  0999 V2000
   37.6270   27.7900   43.6880 C   0  0  0  0  0  0  0  0  0  0  0  0
   37.7170   29.1210   43.2260 C   0  0  0  0  0  0  0  0  0  0  0  0
   37.8470   29.3090   41.8640 C   0  0  0  0  0  0  0  0  0  0  0  0
   37.8770   28.2040   41.0600 N   0  0  0  0  0  0  0  0  0  0  0  0
   37.7890   26.9570   41.5260 C   0  0  0  0  0  0  0  0  0  0  0  0
   37.6620   26.7290   42.8550 N   0  0  0  0  0  0  0  0  0  0  0  0
   37.5240   27.5870   44.7560 H   0  0  0  0  0  0  0  0  0  0  0  0
   37.6820   29.8930   43.9530 H   0  0  0  0  0  0  0  0  0  0  0  0
   37.9400   30.6460   41.3720 N   0  0  0  0  0  0  0  0  0  0  0  0
   39.1340   31.2600   41.4380 C   0  0  0  0  0  0  0  0  0  0  0  0
   39.2250   32.5640   40.9580 C   0  0  0  0  0  0  0  0  0  0  0  0
   38.1000   33.1580   40.4450 C   0  0  0  0  0  0  0  0  0  0  0  0
   38.2190   34.3520   40.0160 O   0  0  0  0  0  0  0  0  0  0  0  0
   36.9060   32.5440   40.3800 N   0  0  0  0  0  0  0  0  0  0  0  0
   36.8840   31.2810   40.8610 C   0  0  0  0  0  0  0  0  0  0  0  0
   35.8100   30.6310   40.8390 O   0  0  0  0  0  0  0  0  0  0  0  0
   39.9760   30.7230   41.8580 H   0  0  0  0  0  0  0  0  0  0  0  0
   40.2060   33.0140   41.0330 H   0  0  0  0  0  0  0  0  0  0  0  0
   36.0620   33.0220   39.9820 H   0  0  0  0  0  0  0  0  0  0  0  0
   37.8500   25.9590   40.4290 C   0  0  0  0  0  0  0  0  0  0  0  0
   38.6690   26.2830   39.7470 H   0  0  0  0  0  0  0  0  0  0  0  0
   38.1190   24.9430   40.7960 H   0  0  0  0  0  0  0  0  0  0  0  0
   36.5370   25.9360   39.6580 C   0  0  0  0  0  0  0  0  0  0  0  0
   36.4430   24.9270   39.2050 H   0  0  0  0  0  0  0  0  0  0  0  0
   35.6680   26.0550   40.3560 H   0  0  0  0  0  0  0  0  0  0  0  0
   36.5410   26.5930   37.2900 C   0  0  0  0  0  0  0  0  0  0  0  0
   36.4800   25.3750   37.0490 O   0  0  0  0  0  0  0  0  0  0  0  0
   36.5500   26.9660   38.6530 N   0  0  0  0  0  0  0  0  0  0  0  0
   36.5670   27.9720   38.9290 H   0  0  0  0  0  0  0  0  0  0  0  0
   36.5990   27.5600   36.2030 C   0  0  0  0  0  0  0  0  0  0  0  0
   35.5610   28.1580   35.6340 N   0  0  0  0  0  0  0  0  0  0  0  0
   35.9630   28.9950   34.6580 C   0  0  0  0  0  0  0  0  0  0  0  0
   35.5740   29.6860   33.9230 H   0  0  0  0  0  0  0  0  0  0  0  0
   37.3170   28.8940   34.6400 N   0  0  0  0  0  0  0  0  0  0  0  0
   38.1370   29.3030   34.1020 H   0  0  0  0  0  0  0  0  0  0  0  0
   37.6930   28.0250   35.5750 N   0  0  0  0  0  0  0  0  0  0  0  0
  1  7  1  0  0  0  0
  2  1  1  0  0  0  0
  2  8  1  0  0  0  0
  3  2  2  0  0  0  0
  4  5  2  0  0  0  0
  4  3  1  0  0  0  0
  5  6  1  0  0  0  0
  6  1  2  0  0  0  0
  9 10  1  0  0  0  0
  9  3  1  0  0  0  0
 10 17  1  0  0  0  0
 11 18  1  0  0  0  0
 11 10  2  0  0  0  0
 12 11  1  0  0  0  0
 13 12  2  0  0  0  0
 14 12  1  0  0  0  0
 14 15  1  0  0  0  0
 15  9  1  0  0  0  0
 16 15  2  0  0  0  0
 19 14  1  0  0  0  0
 20 22  1  0  0  0  0
 20  5  1  0  0  0  0
 21 20  1  0  0  0  0
 23 25  1  0  0  0  0
 23 20  1  0  0  0  0
 24 23  1  0  0  0  0
 26 28  1  0  0  0  0
 27 26  2  0  0  0  0
 28 29  1  0  0  0  0
 28 23  1  0  0  0  0
 30 26  1  0  0  0  0
 31 30  1  0  0  0  0
 32 31  2  0  0  0  0
 33 32  1  0  0  0  0
 34 32  1  0  0  0  0
 34 36  1  0  0  0  0
 35 34  1  0  0  0  0
 36 30  2  0  0  0  0
M  END
>  <minimizedAffinity>
-5.62969446

$$$$

 OpenBabel03242521193D

 36 38  0  0  0  0  0  0  0  0999 V2000
   36.9930   31.9120   39.0000 C   0  0  0  0  0  0  0  0  0  0  0  0
   37.3640   30.8050   39.7940 C   0  0  0  0  0  0  0  0  0  0  0  0
   38.2350   31.0430   40.8400 C   0  0  0  0  0  0  0  0  0  0  0  0
   38.6730   32.3230   41.0370 N   0  0  0  0  0  0  0  0  0  0  0  0
   38.3030   33.3490   40.2690 C   0  0  0  0  0  0  0  0  0  0  0  0
   37.4520   33.1590   39.2330 N   0  0  0  0  0  0  0  0  0  0  0  0
   36.3070   31.7780   38.1610 H   0  0  0  0  0  0  0  0  0  0  0  0
   36.9540   29.8610   39.5370 H   0  0  0  0  0  0  0  0  0  0  0  0
   38.6270   29.9390   41.6570 N   0  0  0  0  0  0  0  0  0  0  0  0
   37.7540   29.4940   42.5760 C   0  0  0  0  0  0  0  0  0  0  0  0
   38.1360   28.4180   43.3730 C   0  0  0  0  0  0  0  0  0  0  0  0
   39.3780   27.8660   43.1830 C   0  0  0  0  0  0  0  0  0  0  0  0
   39.6950   26.8830   43.9290 O   0  0  0  0  0  0  0  0  0  0  0  0
   40.2500   28.3110   42.2640 N   0  0  0  0  0  0  0  0  0  0  0  0
   39.8200   29.3570   41.5230 C   0  0  0  0  0  0  0  0  0  0  0  0
   40.5710   29.8380   40.6390 O   0  0  0  0  0  0  0  0  0  0  0  0
   36.7920   29.9850   42.6650 H   0  0  0  0  0  0  0  0  0  0  0  0
   37.3990   28.0970   44.0980 H   0  0  0  0  0  0  0  0  0  0  0  0
   41.1930   27.8690   42.1400 H   0  0  0  0  0  0  0  0  0  0  0  0
   38.9330   34.6180   40.7140 C   0  0  0  0  0  0  0  0  0  0  0  0
   38.1730   35.4190   40.5740 H   0  0  0  0  0  0  0  0  0  0  0  0
   39.1920   34.6040   41.7970 H   0  0  0  0  0  0  0  0  0  0  0  0
   40.1540   34.9320   39.8600 C   0  0  0  0  0  0  0  0  0  0  0  0
   39.9460   35.8880   39.3350 H   0  0  0  0  0  0  0  0  0  0  0  0
   41.0520   35.1100   40.5050 H   0  0  0  0  0  0  0  0  0  0  0  0
   41.6840   33.3330   38.7900 C   0  0  0  0  0  0  0  0  0  0  0  0
   42.5580   33.8190   39.5280 O   0  0  0  0  0  0  0  0  0  0  0  0
   40.3790   33.8580   38.9280 N   0  0  0  0  0  0  0  0  0  0  0  0
   39.5900   33.4750   38.3640 H   0  0  0  0  0  0  0  0  0  0  0  0
   42.0190   32.2790   37.8430 C   0  0  0  0  0  0  0  0  0  0  0  0
   43.1930   32.1060   37.2500 N   0  0  0  0  0  0  0  0  0  0  0  0
   43.1650   31.0380   36.4310 C   0  0  0  0  0  0  0  0  0  0  0  0
   43.7920   30.4770   35.7500 H   0  0  0  0  0  0  0  0  0  0  0  0
   41.9050   30.5420   36.5360 N   0  0  0  0  0  0  0  0  0  0  0  0
   41.3300   29.7420   36.1380 H   0  0  0  0  0  0  0  0  0  0  0  0
   41.2190   31.2980   37.3900 N   0  0  0  0  0  0  0  0  0  0  0  0
  1  6  2  0  0  0  0
  1  2  1  0  0  0  0
  2  3  2  0  0  0  0
  3  4  1  0  0  0  0
  3  9  1  0  0  0  0
  5 20  1  0  0  0  0
  5  4  2  0  0  0  0
  6  5  1  0  0  0  0
  7  1  1  0  0  0  0
  8  2  1  0  0  0  0
  9 10  1  0  0  0  0
 10 17  1  0  0  0  0
 10 11  2  0  0  0  0
 11 18  1  0  0  0  0
 12 11  1  0  0  0  0
 12 13  2  0  0  0  0
 14 12  1  0  0  0  0
 15  9  1  0  0  0  0
 15 14  1  0  0  0  0
 16 15  2  0  0  0  0
 19 14  1  0  0  0  0
 20 22  1  0  0  0  0
 21 20  1  0  0  0  0
 23 25  1  0  0  0  0
 23 20  1  0  0  0  0
 24 23  1  0  0  0  0
 26 28  1  0  0  0  0
 26 27  2  0  0  0  0
 28 23  1  0  0  0  0
 29 28  1  0  0  0  0
 30 26  1  0  0  0  0
 31 30  1  0  0  0  0
 32 34  1  0  0  0  0
 32 31  2  0  0  0  0
 33 32  1  0  0  0  0
 34 36  1  0  0  0  0
 35 34  1  0  0  0  0
 36 30  2  0  0  0  0
M  END
>  <minimizedAffinity>
-5.53610706

$$$$

 OpenBabel03242521193D

 36 38  0  0  0  0  0  0  0  0999 V2000
   38.7850   28.0830   39.0680 C   0  0  0  0  0  0  0  0  0  0  0  0
   38.9450   29.4840   39.1460 C   0  0  0  0  0  0  0  0  0  0  0  0
   38.3350   30.1300   40.2040 C   0  0  0  0  0  0  0  0  0  0  0  0
   37.6250   29.3770   41.0980 N   0  0  0  0  0  0  0  0  0  0  0  0
   37.4920   28.0530   40.9970 C   0  0  0  0  0  0  0  0  0  0  0  0
   38.0740   27.3810   39.9750 N   0  0  0  0  0  0  0  0  0  0  0  0
   39.2470   27.5240   38.2510 H   0  0  0  0  0  0  0  0  0  0  0  0
   39.5210   29.9520   38.3890 H   0  0  0  0  0  0  0  0  0  0  0  0
   38.4810   31.5460   40.3050 N   0  0  0  0  0  0  0  0  0  0  0  0
   37.5900   32.3200   39.6610 C   0  0  0  0  0  0  0  0  0  0  0  0
   37.7340   33.7010   39.7600 C   0  0  0  0  0  0  0  0  0  0  0  0
   38.7700   34.2050   40.5040 C   0  0  0  0  0  0  0  0  0  0  0  0
   38.8710   35.4740   40.5730 O   0  0  0  0  0  0  0  0  0  0  0  0
   39.6600   33.4320   41.1490 N   0  0  0  0  0  0  0  0  0  0  0  0
   39.4670   32.1000   41.0130 C   0  0  0  0  0  0  0  0  0  0  0  0
   40.2510   31.3020   41.5820 O   0  0  0  0  0  0  0  0  0  0  0  0
   36.8000   31.8450   39.0930 H   0  0  0  0  0  0  0  0  0  0  0  0
   36.9930   34.2800   39.2240 H   0  0  0  0  0  0  0  0  0  0  0  0
   40.4420   33.8440   41.7110 H   0  0  0  0  0  0  0  0  0  0  0  0
   36.6700   27.5020   42.1030 C   0  0  0  0  0  0  0  0  0  0  0  0
   36.6030   28.2980   42.8790 H   0  0  0  0  0  0  0  0  0  0  0  0
   35.6280   27.2750   41.7830 H   0  0  0  0  0  0  0  0  0  0  0  0
   37.3420   26.2740   42.7020 C   0  0  0  0  0  0  0  0  0  0  0  0
   36.7270   25.9590   43.5720 H   0  0  0  0  0  0  0  0  0  0  0  0
   37.3270   25.4210   41.9750 H   0  0  0  0  0  0  0  0  0  0  0  0
   39.6510   25.5750   43.1750 C   0  0  0  0  0  0  0  0  0  0  0  0
   39.2750   24.4370   42.8470 O   0  0  0  0  0  0  0  0  0  0  0  0
   38.6850   26.6050   43.1000 N   0  0  0  0  0  0  0  0  0  0  0  0
   38.9390   27.5900   43.3280 H   0  0  0  0  0  0  0  0  0  0  0  0
   41.0210   25.8050   43.6100 C   0  0  0  0  0  0  0  0  0  0  0  0
   41.4250   26.7430   44.4570 N   0  0  0  0  0  0  0  0  0  0  0  0
   42.7570   26.6810   44.6440 C   0  0  0  0  0  0  0  0  0  0  0  0
   43.5580   27.1640   45.1870 H   0  0  0  0  0  0  0  0  0  0  0  0
   43.1770   25.6500   43.8670 N   0  0  0  0  0  0  0  0  0  0  0  0
   44.0860   25.1580   43.6230 H   0  0  0  0  0  0  0  0  0  0  0  0
   42.1230   25.1260   43.2450 N   0  0  0  0  0  0  0  0  0  0  0  0
  1  2  2  0  0  0  0
  1  6  1  0  0  0  0
  2  3  1  0  0  0  0
  3  9  1  0  0  0  0
  3  4  2  0  0  0  0
  5  4  1  0  0  0  0
  5 20  1  0  0  0  0
  6  5  2  0  0  0  0
  7  1  1  0  0  0  0
  8  2  1  0  0  0  0
  9 15  1  0  0  0  0
 10 11  2  0  0  0  0
 10  9  1  0  0  0  0
 11 12  1  0  0  0  0
 12 13  2  0  0  0  0
 12 14  1  0  0  0  0
 14 19  1  0  0  0  0
 15 14  1  0  0  0  0
 15 16  2  0  0  0  0
 17 10  1  0  0  0  0
 18 11  1  0  0  0  0
 20 23  1  0  0  0  0
 20 21  1  0  0  0  0
 22 20  1  0  0  0  0
 23 28  1  0  0  0  0
 23 24  1  0  0  0  0
 25 23  1  0  0  0  0
 26 30  1  0  0  0  0
 27 26  2  0  0  0  0
 28 26  1  0  0  0  0
 28 29  1  0  0  0  0
 30 31  1  0  0  0  0
 31 32  2  0  0  0  0
 32 33  1  0  0  0  0
 34 32  1  0  0  0  0
 35 34  1  0  0  0  0
 36 30  2  0  0  0  0
 36 34  1  0  0  0  0
M  END
>  <minimizedAffinity>
-5.5296526

$$$$

 OpenBabel03242521193D

 36 38  0  0  0  0  0  0  0  0999 V2000
   37.4000   26.9840   38.5740 C   0  0  0  0  0  0  0  0  0  0  0  0
   38.3210   26.7330   39.6140 C   0  0  0  0  0  0  0  0  0  0  0  0
   38.2790   27.5730   40.7100 C   0  0  0  0  0  0  0  0  0  0  0  0
   37.3550   28.5810   40.7160 N   0  0  0  0  0  0  0  0  0  0  0  0
   36.4960   28.7920   39.7170 C   0  0  0  0  0  0  0  0  0  0  0  0
   36.5050   27.9920   38.6240 N   0  0  0  0  0  0  0  0  0  0  0  0
   37.3930   26.3490   37.6850 H   0  0  0  0  0  0  0  0  0  0  0  0
   38.9890   25.9180   39.4890 H   0  0  0  0  0  0  0  0  0  0  0  0
   39.2000   27.3410   41.7750 N   0  0  0  0  0  0  0  0  0  0  0  0
   40.3830   27.9780   41.7370 C   0  0  0  0  0  0  0  0  0  0  0  0
   41.2820   27.7510   42.7760 C   0  0  0  0  0  0  0  0  0  0  0  0
   40.9210   26.8930   43.7840 C   0  0  0  0  0  0  0  0  0  0  0  0
   41.7680   26.7080   44.7180 O   0  0  0  0  0  0  0  0  0  0  0  0
   39.7390   26.2550   43.8220 N   0  0  0  0  0  0  0  0  0  0  0  0
   38.9120   26.5180   42.7860 C   0  0  0  0  0  0  0  0  0  0  0  0
   37.7850   25.9660   42.7400 O   0  0  0  0  0  0  0  0  0  0  0  0
   40.5930   28.6400   40.9060 H   0  0  0  0  0  0  0  0  0  0  0  0
   42.2190   28.2870   42.6990 H   0  0  0  0  0  0  0  0  0  0  0  0
   39.4900   25.6050   44.6050 H   0  0  0  0  0  0  0  0  0  0  0  0
   35.6130   29.9530   39.9930 C   0  0  0  0  0  0  0  0  0  0  0  0
   35.5740   30.5540   39.0570 H   0  0  0  0  0  0  0  0  0  0  0  0
   34.5680   29.6440   40.2220 H   0  0  0  0  0  0  0  0  0  0  0  0
   36.1940   30.8070   41.1120 C   0  0  0  0  0  0  0  0  0  0  0  0
   35.3490   31.0900   41.7760 H   0  0  0  0  0  0  0  0  0  0  0  0
   36.9040   30.2070   41.7380 H   0  0  0  0  0  0  0  0  0  0  0  0
   38.1950   32.2090   40.8480 C   0  0  0  0  0  0  0  0  0  0  0  0
   38.7670   31.3630   41.5580 O   0  0  0  0  0  0  0  0  0  0  0  0
   36.8350   31.9660   40.5510 N   0  0  0  0  0  0  0  0  0  0  0  0
   36.3020   32.6160   39.9340 H   0  0  0  0  0  0  0  0  0  0  0  0
   38.9160   33.3770   40.3650 C   0  0  0  0  0  0  0  0  0  0  0  0
   38.6900   34.6360   40.7180 N   0  0  0  0  0  0  0  0  0  0  0  0
   39.5340   35.4730   40.0860 C   0  0  0  0  0  0  0  0  0  0  0  0
   39.7790   36.5230   40.0010 H   0  0  0  0  0  0  0  0  0  0  0  0
   40.3100   34.6730   39.3090 N   0  0  0  0  0  0  0  0  0  0  0  0
   41.1130   34.7730   38.6210 H   0  0  0  0  0  0  0  0  0  0  0  0
   39.9310   33.4100   39.4830 N   0  0  0  0  0  0  0  0  0  0  0  0
  1  6  2  0  0  0  0
  1  2  1  0  0  0  0
  2  3  2  0  0  0  0
  3  4  1  0  0  0  0
  3  9  1  0  0  0  0
  5 20  1  0  0  0  0
  5  4  2  0  0  0  0
  6  5  1  0  0  0  0
  7  1  1  0  0  0  0
  8  2  1  0  0  0  0
  9 15  1  0  0  0  0
 10  9  1  0  0  0  0
 10 11  2  0  0  0  0
 11 12  1  0  0  0  0
 12 14  1  0  0  0  0
 12 13  2  0  0  0  0
 14 19  1  0  0  0  0
 15 14  1  0  0  0  0
 16 15  2  0  0  0  0
 17 10  1  0  0  0  0
 18 11  1  0  0  0  0
 20 22  1  0  0  0  0
 20 23  1  0  0  0  0
 21 20  1  0  0  0  0
 23 25  1  0  0  0  0
 23 24  1  0  0  0  0
 26 27  2  0  0  0  0
 28 26  1  0  0  0  0
 28 23  1  0  0  0  0
 29 28  1  0  0  0  0
 30 31  1  0  0  0  0
 30 26  1  0  0  0  0
 32 31  2  0  0  0  0
 33 32  1  0  0  0  0
 34 36  1  0  0  0  0
 34 32  1  0  0  0  0
 35 34  1  0  0  0  0
 36 30  2  0  0  0  0
M  END
>  <minimizedAffinity>
-5.48866653

$$$$
