
 OpenBabel03242521433D

 36 38  0  0  1  0  0  0  0  0999 V2000
   45.4460   35.7400   43.9030 C   0  0  0  0  0  0  0  0  0  0  0  0
   46.4400   34.9240   43.3490 C   0  0  0  0  0  0  0  0  0  0  0  0
   46.7940   33.7370   44.0080 C   0  0  0  0  0  0  0  0  0  0  0  0
   46.1560   33.4500   45.1400 N   0  0  0  0  0  0  0  0  0  0  0  0
   45.1950   34.2570   45.6590 C   0  0  0  0  0  0  0  0  0  0  0  0
   44.8390   35.4020   45.0420 N   0  0  0  0  0  0  0  0  0  0  0  0
   46.8830   35.2470   42.4420 H   0  0  0  0  0  0  0  0  0  0  0  0
   44.7220   33.9480   46.5910 H   0  0  0  0  0  0  0  0  0  0  0  0
   48.8530   33.6960   42.6120 C   0  0  2  0  0  0  0  0  0  0  0  0
   47.8330   32.9320   43.3810 C   0  0  2  0  0  0  0  0  0  0  0  0
   47.3490   32.0400   42.3790 O   0  0  0  0  0  0  0  0  0  0  0  0
   48.5100   31.5020   41.8780 C   0  0  0  0  0  0  0  0  0  0  0  0
   49.6330   32.4970   42.0350 C   0  0  1  0  0  0  0  0  0  0  0  0
   48.4490   34.2140   41.7240 H   0  0  0  0  0  0  0  0  0  0  0  0
   48.3300   32.3030   44.1450 H   0  0  0  0  0  0  0  0  0  0  0  0
   48.7590   30.5030   42.3120 H   0  0  0  0  0  0  0  0  0  0  0  0
   48.3700   31.3360   40.7890 H   0  0  0  0  0  0  0  0  0  0  0  0
   50.3860   32.1330   42.7510 H   0  0  0  0  0  0  0  0  0  0  0  0
   49.6150   34.5460   43.3530 O   0  0  0  0  0  0  0  0  0  0  0  0
   49.0430   35.0060   43.9970 H   0  0  0  0  0  0  0  0  0  0  0  0
   50.2160   32.8860   40.8320 O   0  0  0  0  0  0  0  0  0  0  0  0
   50.9950   32.3370   40.5890 H   0  0  0  0  0  0  0  0  0  0  0  0
   45.0870   37.0140   43.1830 C   0  0  0  0  0  0  0  0  0  0  0  0
   45.9200   37.3200   42.5450 H   0  0  0  0  0  0  0  0  0  0  0  0
   44.1360   36.8800   42.6340 H   0  0  0  0  0  0  0  0  0  0  0  0
   45.2730   39.3730   44.1870 C   0  0  0  0  0  0  0  0  0  0  0  0
   45.9260   39.7480   43.1750 O   0  0  0  0  0  0  0  0  0  0  0  0
   44.8730   38.0220   44.2170 N   0  0  0  0  0  0  0  0  0  0  0  0
   44.3630   37.7140   45.0850 H   0  0  0  0  0  0  0  0  0  0  0  0
   44.9480   40.2860   45.2700 C   0  0  0  0  0  0  0  0  0  0  0  0
   44.4880   41.5440   45.1460 N   0  0  0  0  0  0  0  0  0  0  0  0
   44.3070   42.0620   46.3910 C   0  0  0  0  0  0  0  0  0  0  0  0
   43.9430   43.0640   46.6200 H   0  0  0  0  0  0  0  0  0  0  0  0
   44.6670   41.0880   47.2600 N   0  0  0  0  0  0  0  0  0  0  0  0
   44.6500   41.1530   48.3130 H   0  0  0  0  0  0  0  0  0  0  0  0
   45.0580   40.0070   46.5730 N   0  0  0  0  0  0  0  0  0  0  0  0
  1  6  1  0  0  0  0
  2  1  2  0  0  0  0
  2  3  1  0  0  0  0
  3  4  2  0  0  0  0
  4  5  1  0  0  0  0
  5  8  1  0  0  0  0
  6  5  2  0  0  0  0
  7  2  1  0  0  0  0
  9 14  1  6  0  0  0
  9 19  1  0  0  0  0
  9 10  1  0  0  0  0
 10  3  1  0  0  0  0
 10 15  1  1  0  0  0
 11 10  1  0  0  0  0
 12 13  1  0  0  0  0
 12 16  1  0  0  0  0
 12 11  1  0  0  0  0
 13  9  1  0  0  0  0
 13 18  1  1  0  0  0
 17 12  1  0  0  0  0
 19 20  1  0  0  0  0
 21 13  1  0  0  0  0
 22 21  1  0  0  0  0
 23  1  1  0  0  0  0
 23 28  1  0  0  0  0
 24 23  1  0  0  0  0
 25 23  1  0  0  0  0
 26 28  1  0  0  0  0
 26 30  1  0  0  0  0
 27 26  2  0  0  0  0
 28 29  1  0  0  0  0
 30 36  2  0  0  0  0
 31 30  1  0  0  0  0
 31 32  2  0  0  0  0
 32 33  1  0  0  0  0
 32 34  1  0  0  0  0
 34 35  1  0  0  0  0
 36 34  1  0  0  0  0
M  END
>  <minimizedAffinity>
-6.06834936

>  <minimizedRMSD>
0.541857839

$$$$
