
 OpenBabel03242522503D

 24 25  0  0  0  0  0  0  0  0999 V2000
   45.5050   30.7810   47.5590 O   0  0  0  0  0  0  0  0  0  0  0  0
   45.8730   32.0550   48.3600 P   0  0  2  0  0  0  0  0  0  0  0  0
   45.3030   31.7740   49.9170 O   0  0  0  0  0  0  0  0  0  0  0  0
   45.9710   32.0080   50.6120 H   0  0  0  0  0  0  0  0  0  0  0  0
   45.0540   33.3550   47.6610 O   0  0  0  0  0  0  0  0  0  0  0  0
   46.6950   33.5030   44.4190 C   0  0  0  0  0  0  0  0  0  0  0  0
   46.3450   33.1020   45.7270 C   0  0  0  0  0  0  0  0  0  0  0  0
   45.3540   33.7870   46.3870 C   0  0  0  0  0  0  0  0  0  0  0  0
   44.7510   34.8220   45.7510 N   0  0  0  0  0  0  0  0  0  0  0  0
   45.0900   35.1940   44.5120 C   0  0  0  0  0  0  0  0  0  0  0  0
   46.0610   34.5400   43.8390 N   0  0  0  0  0  0  0  0  0  0  0  0
   47.4600   33.0300   43.8190 H   0  0  0  0  0  0  0  0  0  0  0  0
   46.9360   32.2710   46.0330 H   0  0  0  0  0  0  0  0  0  0  0  0
   44.4860   36.0370   44.2000 H   0  0  0  0  0  0  0  0  0  0  0  0
   47.5130   32.2630   48.3140 O   0  0  0  0  0  0  0  0  0  0  0  0
   48.5420   31.6080   48.8820 C   0  0  0  0  0  0  0  0  0  0  0  0
   49.4860   32.4280   49.3030 O   0  0  0  0  0  0  0  0  0  0  0  0
   49.1170   30.2970   49.2610 C   0  0  0  0  0  0  0  0  0  0  0  0
   49.8430   30.0850   50.3350 N   0  0  0  0  0  0  0  0  0  0  0  0
   50.2210   28.7670   50.3710 C   0  0  0  0  0  0  0  0  0  0  0  0
   50.8240   28.5170   51.2300 H   0  0  0  0  0  0  0  0  0  0  0  0
   49.7110   28.1680   49.2920 N   0  0  0  0  0  0  0  0  0  0  0  0
   49.8870   27.1570   49.1370 H   0  0  0  0  0  0  0  0  0  0  0  0
   49.0600   29.0820   48.6410 N   0  0  0  0  0  0  0  0  0  0  0  0
  2  1  2  6  0  0  0
  2  3  1  0  0  0  0
  3  4  1  0  0  0  0
  5  2  1  0  0  0  0
  6  7  1  0  0  0  0
  7 13  1  0  0  0  0
  7  8  2  0  0  0  0
  8  5  1  0  0  0  0
  9  8  1  0  0  0  0
 10  9  2  0  0  0  0
 11  6  2  0  0  0  0
 11 10  1  0  0  0  0
 12  6  1  0  0  0  0
 14 10  1  0  0  0  0
 15  2  1  0  0  0  0
 15 16  1  0  0  0  0
 16 18  1  0  0  0  0
 16 17  2  0  0  0  0
 18 19  1  0  0  0  0
 19 20  2  0  0  0  0
 20 21  1  0  0  0  0
 22 20  1  0  0  0  0
 23 22  1  0  0  0  0
 24 18  2  0  0  0  0
 24 22  1  0  0  0  0
M  END
>  <minimizedAffinity>
-4.76208878

>  <minimizedRMSD>
0.726364255

$$$$
