
 OpenBabel03242510573D

 34 36  0  0  0  0  0  0  0  0999 V2000
   45.6570   31.6580   47.1100 C   0  0  0  0  0  0  0  0  0  0  0  0
   45.6190   32.1190   48.4420 C   0  0  0  0  0  0  0  0  0  0  0  0
   45.3990   31.2840   49.5250 C   0  0  0  0  0  0  0  0  0  0  0  0
   45.2120   29.9410   49.2670 C   0  0  0  0  0  0  0  0  0  0  0  0
   45.2530   29.5000   47.9520 C   0  0  0  0  0  0  0  0  0  0  0  0
   45.4680   30.3500   46.9520 N   0  0  0  0  0  0  0  0  0  0  0  0
   45.7720   33.1880   48.5900 H   0  0  0  0  0  0  0  0  0  0  0  0
   45.3900   31.7470   50.5030 H   0  0  0  0  0  0  0  0  0  0  0  0
   45.0410   29.3080   50.1370 H   0  0  0  0  0  0  0  0  0  0  0  0
   44.7700   36.6260   43.8000 C   0  0  0  0  0  0  0  0  0  0  0  0
   45.6800   36.3390   42.7810 C   0  0  0  0  0  0  0  0  0  0  0  0
   46.3470   35.1120   42.8230 C   0  0  0  0  0  0  0  0  0  0  0  0
   46.0850   34.2500   43.8510 N   0  0  0  0  0  0  0  0  0  0  0  0
   45.1940   34.5720   44.8200 C   0  0  0  0  0  0  0  0  0  0  0  0
   44.5280   35.7680   44.7990 N   0  0  0  0  0  0  0  0  0  0  0  0
   45.8940   32.6060   46.0380 C   0  0  0  0  0  0  0  0  0  0  0  0
   46.9210   32.4460   45.3180 O   0  0  0  0  0  0  0  0  0  0  0  0
   44.9440   33.6560   45.8740 N   0  0  0  0  0  0  0  0  0  0  0  0
   44.1950   37.5440   43.8720 H   0  0  0  0  0  0  0  0  0  0  0  0
   45.8250   37.0710   42.0110 H   0  0  0  0  0  0  0  0  0  0  0  0
   47.0550   34.8710   42.0430 H   0  0  0  0  0  0  0  0  0  0  0  0
   44.0910   33.7780   46.4820 H   0  0  0  0  0  0  0  0  0  0  0  0
   45.0530   28.0830   47.7020 C   0  0  0  0  0  0  0  0  0  0  0  0
   44.4770   27.3090   48.6250 C   0  0  0  0  0  0  0  0  0  0  0  0
   44.2250   25.8480   48.4700 C   0  0  0  0  0  0  0  0  0  0  0  0
   43.3190   25.5470   49.0010 H   0  0  0  0  0  0  0  0  0  0  0  0
   44.2260   25.5600   47.3940 H   0  0  0  0  0  0  0  0  0  0  0  0
   45.3830   25.1680   49.1150 C   0  0  0  0  0  0  0  0  0  0  0  0
   46.5880   24.9210   48.5740 N   0  0  0  0  0  0  0  0  0  0  0  0
   47.3380   24.2920   49.4890 C   0  0  0  0  0  0  0  0  0  0  0  0
   48.3400   23.8760   49.5960 H   0  0  0  0  0  0  0  0  0  0  0  0
   46.5720   24.1600   50.5890 N   0  0  0  0  0  0  0  0  0  0  0  0
   46.7070   23.7420   51.5570 H   0  0  0  0  0  0  0  0  0  0  0  0
   45.4010   24.6880   50.3570 N   0  0  0  0  0  0  0  0  0  0  0  0
  1  2  1  0  0  0  0
  2  7  1  0  0  0  0
  2  3  2  0  0  0  0
  3  8  1  0  0  0  0
  4  3  1  0  0  0  0
  4  9  1  0  0  0  0
  5  4  2  0  0  0  0
  6  1  2  0  0  0  0
  6  5  1  0  0  0  0
 10 19  1  0  0  0  0
 10 15  1  0  0  0  0
 11 12  1  0  0  0  0
 11 10  2  0  0  0  0
 12 13  2  0  0  0  0
 13 14  1  0  0  0  0
 14 18  1  0  0  0  0
 15 14  2  0  0  0  0
 16  1  1  0  0  0  0
 17 16  2  0  0  0  0
 18 16  1  0  0  0  0
 18 22  1  0  0  0  0
 20 11  1  0  0  0  0
 21 12  1  0  0  0  0
 23  5  1  0  0  0  0
 23 24  2  0  0  0  0
 25 24  1  0  0  0  0
 25 26  1  0  0  0  0
 25 28  1  0  0  0  0
 27 25  1  0  0  0  0
 28 34  2  0  0  0  0
 29 28  1  0  0  0  0
 29 30  2  0  0  0  0
 30 31  1  0  0  0  0
 30 32  1  0  0  0  0
 32 33  1  0  0  0  0
 34 32  1  0  0  0  0
M  END
>  <minimizedAffinity>
-5.60867596

>  <minimizedRMSD>
1.77083433

$$$$
