
 OpenBabel03242520173D

 29 31  0  0  0  0  0  0  0  0999 V2000
   44.1700   34.5830   41.3980 C   0  0  0  0  0  0  0  0  0  0  0  0
   42.9970   35.2730   41.0350 C   0  0  0  0  0  0  0  0  0  0  0  0
   42.4380   35.0080   39.7870 C   0  0  0  0  0  0  0  0  0  0  0  0
   43.0710   34.0830   38.9820 N   0  0  0  0  0  0  0  0  0  0  0  0
   44.1960   33.4550   39.3920 C   0  0  0  0  0  0  0  0  0  0  0  0
   44.7400   33.6940   40.5740 N   0  0  0  0  0  0  0  0  0  0  0  0
   42.5680   35.9820   41.7270 H   0  0  0  0  0  0  0  0  0  0  0  0
   44.6350   32.7410   38.7030 H   0  0  0  0  0  0  0  0  0  0  0  0
   44.7540   34.8800   42.7330 C   0  0  0  0  0  0  0  0  0  0  0  0
   46.2220   35.3700   42.6550 C   0  0  0  0  0  0  0  0  0  0  0  0
   45.1110   36.2040   43.1550 C   0  0  0  0  0  0  0  0  0  0  0  0
   44.5770   34.0260   43.4370 H   0  0  0  0  0  0  0  0  0  0  0  0
   46.8770   34.9220   43.4270 H   0  0  0  0  0  0  0  0  0  0  0  0
   46.6550   35.5360   41.6520 H   0  0  0  0  0  0  0  0  0  0  0  0
   45.0340   36.4440   44.2410 H   0  0  0  0  0  0  0  0  0  0  0  0
   44.8300   37.0850   42.5420 H   0  0  0  0  0  0  0  0  0  0  0  0
   41.1970   35.7070   39.3640 C   0  0  0  0  0  0  0  0  0  0  0  0
   41.3730   36.6810   38.9130 H   0  0  0  0  0  0  0  0  0  0  0  0
   40.7180   35.0490   38.6070 H   0  0  0  0  0  0  0  0  0  0  0  0
   40.2070   35.8240   40.5080 C   0  0  0  0  0  0  0  0  0  0  0  0
   39.5140   36.6500   40.2500 H   0  0  0  0  0  0  0  0  0  0  0  0
   40.6540   36.0710   41.4730 H   0  0  0  0  0  0  0  0  0  0  0  0
   39.4390   34.5400   40.5400 C   0  0  0  0  0  0  0  0  0  0  0  0
   39.7210   33.5810   41.4210 N   0  0  0  0  0  0  0  0  0  0  0  0
   38.9140   32.5100   41.2800 C   0  0  0  0  0  0  0  0  0  0  0  0
   38.9340   31.5990   41.8690 H   0  0  0  0  0  0  0  0  0  0  0  0
   38.1030   32.8460   40.2590 N   0  0  0  0  0  0  0  0  0  0  0  0
   37.3500   32.2170   39.8970 H   0  0  0  0  0  0  0  0  0  0  0  0
   38.4010   34.0500   39.8070 N   0  0  0  0  0  0  0  0  0  0  0  0
  1  9  1  0  0  0  0
  2  1  1  0  0  0  0
  2  7  1  0  0  0  0
  3  2  2  0  0  0  0
  4  5  2  0  0  0  0
  4  3  1  0  0  0  0
  5  6  1  0  0  0  0
  6  1  2  0  0  0  0
  8  5  1  0  0  0  0
  9 11  1  0  0  0  0
  9 12  1  0  0  0  0
 10  9  1  0  0  0  0
 10 11  1  0  0  0  0
 10 13  1  0  0  0  0
 11 15  1  0  0  0  0
 14 10  1  0  0  0  0
 16 11  1  0  0  0  0
 17  3  1  0  0  0  0
 17 20  1  0  0  0  0
 18 17  1  0  0  0  0
 19 17  1  0  0  0  0
 20 23  1  0  0  0  0
 20 22  1  0  0  0  0
 21 20  1  0  0  0  0
 23 24  1  0  0  0  0
 25 24  2  0  0  0  0
 25 26  1  0  0  0  0
 27 25  1  0  0  0  0
 28 27  1  0  0  0  0
 29 27  1  0  0  0  0
 29 23  2  0  0  0  0
M  END
>  <minimizedAffinity>
-4.7488389

>  <minimizedRMSD>
1.42844129

$$$$
