
 OpenBabel03242520173D

 29 31  0  0  0  0  0  0  0  0999 V2000
   44.1690   34.5840   41.3970 C   0  0  0  0  0  0  0  0  0  0  0  0
   42.9950   35.2730   41.0340 C   0  0  0  0  0  0  0  0  0  0  0  0
   42.4380   35.0080   39.7860 C   0  0  0  0  0  0  0  0  0  0  0  0
   43.0710   34.0840   38.9810 N   0  0  0  0  0  0  0  0  0  0  0  0
   44.1970   33.4560   39.3910 C   0  0  0  0  0  0  0  0  0  0  0  0
   44.7410   33.6960   40.5740 N   0  0  0  0  0  0  0  0  0  0  0  0
   42.5660   35.9820   41.7270 H   0  0  0  0  0  0  0  0  0  0  0  0
   44.6370   32.7430   38.7020 H   0  0  0  0  0  0  0  0  0  0  0  0
   44.7520   34.8810   42.7330 C   0  0  0  0  0  0  0  0  0  0  0  0
   46.2210   35.3690   42.6560 C   0  0  0  0  0  0  0  0  0  0  0  0
   45.1110   36.2050   43.1540 C   0  0  0  0  0  0  0  0  0  0  0  0
   44.5730   34.0290   43.4370 H   0  0  0  0  0  0  0  0  0  0  0  0
   46.8750   34.9200   43.4290 H   0  0  0  0  0  0  0  0  0  0  0  0
   46.6560   35.5330   41.6530 H   0  0  0  0  0  0  0  0  0  0  0  0
   45.0340   36.4470   44.2400 H   0  0  0  0  0  0  0  0  0  0  0  0
   44.8320   37.0870   42.5400 H   0  0  0  0  0  0  0  0  0  0  0  0
   41.1960   35.7070   39.3620 C   0  0  0  0  0  0  0  0  0  0  0  0
   41.3720   36.6800   38.9100 H   0  0  0  0  0  0  0  0  0  0  0  0
   40.7180   35.0480   38.6060 H   0  0  0  0  0  0  0  0  0  0  0  0
   40.2060   35.8240   40.5070 C   0  0  0  0  0  0  0  0  0  0  0  0
   39.5130   36.6500   40.2490 H   0  0  0  0  0  0  0  0  0  0  0  0
   40.6540   36.0720   41.4720 H   0  0  0  0  0  0  0  0  0  0  0  0
   39.4380   34.5400   40.5390 C   0  0  0  0  0  0  0  0  0  0  0  0
   39.7220   33.5800   41.4210 N   0  0  0  0  0  0  0  0  0  0  0  0
   38.9140   32.5100   41.2800 C   0  0  0  0  0  0  0  0  0  0  0  0
   38.9360   31.5990   41.8680 H   0  0  0  0  0  0  0  0  0  0  0  0
   38.1010   32.8470   40.2580 N   0  0  0  0  0  0  0  0  0  0  0  0
   37.3480   32.2180   39.8970 H   0  0  0  0  0  0  0  0  0  0  0  0
   38.4010   34.0500   39.8070 N   0  0  0  0  0  0  0  0  0  0  0  0
  1  9  1  0  0  0  0
  2  1  1  0  0  0  0
  2  7  1  0  0  0  0
  3  2  2  0  0  0  0
  4  5  2  0  0  0  0
  4  3  1  0  0  0  0
  5  6  1  0  0  0  0
  6  1  2  0  0  0  0
  8  5  1  0  0  0  0
  9 11  1  0  0  0  0
  9 12  1  0  0  0  0
 10  9  1  0  0  0  0
 10 11  1  0  0  0  0
 10 13  1  0  0  0  0
 11 15  1  0  0  0  0
 14 10  1  0  0  0  0
 16 11  1  0  0  0  0
 17  3  1  0  0  0  0
 17 20  1  0  0  0  0
 18 17  1  0  0  0  0
 19 17  1  0  0  0  0
 20 23  1  0  0  0  0
 20 22  1  0  0  0  0
 21 20  1  0  0  0  0
 23 24  1  0  0  0  0
 25 24  2  0  0  0  0
 25 26  1  0  0  0  0
 27 25  1  0  0  0  0
 28 27  1  0  0  0  0
 29 27  1  0  0  0  0
 29 23  2  0  0  0  0
M  END
>  <minimizedAffinity>
-4.74920607

>  <minimizedRMSD>
1.4600836

$$$$
