
 OpenBabel03242520173D

 29 31  0  0  0  0  0  0  0  0999 V2000
   44.2560   34.5570   41.3450 C   0  0  0  0  0  0  0  0  0  0  0  0
   43.1210   35.2760   40.9200 C   0  0  0  0  0  0  0  0  0  0  0  0
   42.5950   34.9890   39.6640 C   0  0  0  0  0  0  0  0  0  0  0  0
   43.2180   34.0150   38.9110 N   0  0  0  0  0  0  0  0  0  0  0  0
   44.3060   33.3610   39.3800 C   0  0  0  0  0  0  0  0  0  0  0  0
   44.8190   33.6200   40.5710 N   0  0  0  0  0  0  0  0  0  0  0  0
   42.6960   36.0230   41.5740 H   0  0  0  0  0  0  0  0  0  0  0  0
   44.7400   32.6090   38.7300 H   0  0  0  0  0  0  0  0  0  0  0  0
   44.8050   34.8780   42.6900 C   0  0  0  0  0  0  0  0  0  0  0  0
   46.2750   35.3690   42.6390 C   0  0  0  0  0  0  0  0  0  0  0  0
   45.1500   36.2100   43.0970 C   0  0  0  0  0  0  0  0  0  0  0  0
   44.6120   34.0360   43.4040 H   0  0  0  0  0  0  0  0  0  0  0  0
   46.9110   34.9350   43.4350 H   0  0  0  0  0  0  0  0  0  0  0  0
   46.7320   35.5180   41.6450 H   0  0  0  0  0  0  0  0  0  0  0  0
   45.0470   36.4680   44.1770 H   0  0  0  0  0  0  0  0  0  0  0  0
   44.8830   37.0800   42.4630 H   0  0  0  0  0  0  0  0  0  0  0  0
   41.3950   35.7180   39.1750 C   0  0  0  0  0  0  0  0  0  0  0  0
   41.6270   36.6210   38.6150 H   0  0  0  0  0  0  0  0  0  0  0  0
   40.8610   35.0120   38.5020 H   0  0  0  0  0  0  0  0  0  0  0  0
   40.4340   36.0280   40.3090 C   0  0  0  0  0  0  0  0  0  0  0  0
   39.6990   36.7600   39.9160 H   0  0  0  0  0  0  0  0  0  0  0  0
   40.8980   36.4810   41.1870 H   0  0  0  0  0  0  0  0  0  0  0  0
   39.7210   34.7510   40.6250 C   0  0  0  0  0  0  0  0  0  0  0  0
   38.8000   34.2450   39.8050 N   0  0  0  0  0  0  0  0  0  0  0  0
   38.2830   33.0920   40.2750 C   0  0  0  0  0  0  0  0  0  0  0  0
   37.5210   32.4820   39.8010 H   0  0  0  0  0  0  0  0  0  0  0  0
   38.9280   32.8970   41.4420 N   0  0  0  0  0  0  0  0  0  0  0  0
   38.7500   32.0730   42.0610 H   0  0  0  0  0  0  0  0  0  0  0  0
   39.7870   33.8730   41.6640 N   0  0  0  0  0  0  0  0  0  0  0  0
  1  9  1  0  0  0  0
  2  1  1  0  0  0  0
  2  7  1  0  0  0  0
  3  2  2  0  0  0  0
  4  5  2  0  0  0  0
  4  3  1  0  0  0  0
  5  6  1  0  0  0  0
  6  1  2  0  0  0  0
  8  5  1  0  0  0  0
  9 11  1  0  0  0  0
  9 12  1  0  0  0  0
 10  9  1  0  0  0  0
 10 11  1  0  0  0  0
 10 13  1  0  0  0  0
 11 15  1  0  0  0  0
 14 10  1  0  0  0  0
 16 11  1  0  0  0  0
 17  3  1  0  0  0  0
 17 20  1  0  0  0  0
 18 17  1  0  0  0  0
 19 17  1  0  0  0  0
 20 23  1  0  0  0  0
 20 22  1  0  0  0  0
 21 20  1  0  0  0  0
 23 29  2  0  0  0  0
 24 25  2  0  0  0  0
 24 23  1  0  0  0  0
 25 27  1  0  0  0  0
 26 25  1  0  0  0  0
 27 29  1  0  0  0  0
 27 28  1  0  0  0  0
M  END
>  <minimizedAffinity>
-4.78183556

>  <minimizedRMSD>
1.17357326

$$$$
