
 OpenBabel03242520173D

 29 31  0  0  0  0  0  0  0  0999 V2000
   45.1710   33.8720   40.9870 C   0  0  0  0  0  0  0  0  0  0  0  0
   44.7400   32.7160   40.3070 C   0  0  0  0  0  0  0  0  0  0  0  0
   45.6430   32.0780   39.4600 C   0  0  0  0  0  0  0  0  0  0  0  0
   46.9070   32.6180   39.3410 N   0  0  0  0  0  0  0  0  0  0  0  0
   47.2560   33.7320   40.0240 C   0  0  0  0  0  0  0  0  0  0  0  0
   46.4120   34.3520   40.8330 N   0  0  0  0  0  0  0  0  0  0  0  0
   43.7310   32.3620   40.4580 H   0  0  0  0  0  0  0  0  0  0  0  0
   48.2680   34.0960   39.8780 H   0  0  0  0  0  0  0  0  0  0  0  0
   44.1930   34.5420   41.8850 C   0  0  0  0  0  0  0  0  0  0  0  0
   43.4850   35.7470   41.2150 C   0  0  0  0  0  0  0  0  0  0  0  0
   42.7770   34.5270   41.6520 C   0  0  0  0  0  0  0  0  0  0  0  0
   44.6600   34.7620   42.8800 H   0  0  0  0  0  0  0  0  0  0  0  0
   43.3890   36.6280   41.8800 H   0  0  0  0  0  0  0  0  0  0  0  0
   43.6930   35.9350   40.1460 H   0  0  0  0  0  0  0  0  0  0  0  0
   42.1010   34.5570   42.5390 H   0  0  0  0  0  0  0  0  0  0  0  0
   42.3440   33.8860   40.8560 H   0  0  0  0  0  0  0  0  0  0  0  0
   45.2350   30.8510   38.7260 C   0  0  0  0  0  0  0  0  0  0  0  0
   45.1500   29.9690   39.3570 H   0  0  0  0  0  0  0  0  0  0  0  0
   44.2360   31.0730   38.2920 H   0  0  0  0  0  0  0  0  0  0  0  0
   46.1550   30.5760   37.5510 C   0  0  0  0  0  0  0  0  0  0  0  0
   46.2110   29.4740   37.4380 H   0  0  0  0  0  0  0  0  0  0  0  0
   47.1780   30.9360   37.6790 H   0  0  0  0  0  0  0  0  0  0  0  0
   45.4870   31.1520   36.3420 C   0  0  0  0  0  0  0  0  0  0  0  0
   46.1330   31.9700   35.5110 N   0  0  0  0  0  0  0  0  0  0  0  0
   45.3520   32.3750   34.4900 C   0  0  0  0  0  0  0  0  0  0  0  0
   45.6350   33.0400   33.6800 H   0  0  0  0  0  0  0  0  0  0  0  0
   44.1720   31.7670   34.7210 N   0  0  0  0  0  0  0  0  0  0  0  0
   43.3410   31.8790   34.0970 H   0  0  0  0  0  0  0  0  0  0  0  0
   44.2360   31.0360   35.8180 N   0  0  0  0  0  0  0  0  0  0  0  0
  1  9  1  0  0  0  0
  2  7  1  0  0  0  0
  2  1  2  0  0  0  0
  3  2  1  0  0  0  0
  4  3  2  0  0  0  0
  4  5  1  0  0  0  0
  5  6  2  0  0  0  0
  6  1  1  0  0  0  0
  8  5  1  0  0  0  0
  9 12  1  0  0  0  0
 10 11  1  0  0  0  0
 10 13  1  0  0  0  0
 10  9  1  0  0  0  0
 11  9  1  0  0  0  0
 11 15  1  0  0  0  0
 14 10  1  0  0  0  0
 16 11  1  0  0  0  0
 17 18  1  0  0  0  0
 17  3  1  0  0  0  0
 19 17  1  0  0  0  0
 20 22  1  0  0  0  0
 20 17  1  0  0  0  0
 21 20  1  0  0  0  0
 23 20  1  0  0  0  0
 24 23  1  0  0  0  0
 25 27  1  0  0  0  0
 25 24  2  0  0  0  0
 26 25  1  0  0  0  0
 27 29  1  0  0  0  0
 28 27  1  0  0  0  0
 29 23  2  0  0  0  0
M  END
>  <minimizedAffinity>
-3.00002742

>  <minimizedRMSD>
6.35253477

$$$$
