
 OpenBabel03242520193D

 33 35  0  0  0  0  0  0  0  0999 V2000
   40.8930   35.7880   39.4220 C   0  0  0  0  0  0  0  0  0  0  0  0
   40.6210   35.3290   38.4380 H   0  0  0  0  0  0  0  0  0  0  0  0
   40.9760   36.8770   39.3290 H   0  0  0  0  0  0  0  0  0  0  0  0
   43.8910   34.7250   41.4680 C   0  0  0  0  0  0  0  0  0  0  0  0
   42.7050   35.3940   41.0900 C   0  0  0  0  0  0  0  0  0  0  0  0
   42.1430   35.1160   39.8560 C   0  0  0  0  0  0  0  0  0  0  0  0
   42.7860   34.1940   39.0700 N   0  0  0  0  0  0  0  0  0  0  0  0
   43.9250   33.5770   39.4780 C   0  0  0  0  0  0  0  0  0  0  0  0
   44.4700   33.8390   40.6620 N   0  0  0  0  0  0  0  0  0  0  0  0
   42.2650   36.1110   41.7780 H   0  0  0  0  0  0  0  0  0  0  0  0
   44.4170   32.8530   38.8410 H   0  0  0  0  0  0  0  0  0  0  0  0
   44.4880   35.0400   42.7930 C   0  0  0  0  0  0  0  0  0  0  0  0
   46.0230   35.3220   42.6950 C   0  0  0  0  0  0  0  0  0  0  0  0
   45.0310   36.2990   43.1530 C   0  0  0  0  0  0  0  0  0  0  0  0
   44.2050   34.2890   43.5540 H   0  0  0  0  0  0  0  0  0  0  0  0
   46.4650   35.3700   41.6870 H   0  0  0  0  0  0  0  0  0  0  0  0
   46.6190   34.6980   43.3850 H   0  0  0  0  0  0  0  0  0  0  0  0
   44.8720   37.1580   42.4380 H   0  0  0  0  0  0  0  0  0  0  0  0
   45.0350   36.6630   44.1930 H   0  0  0  0  0  0  0  0  0  0  0  0
   39.7580   35.4600   40.3720 C   0  0  0  0  0  0  0  0  0  0  0  0
   40.1520   35.4530   41.3890 H   0  0  0  0  0  0  0  0  0  0  0  0
   38.9800   36.2730   40.3390 H   0  0  0  0  0  0  0  0  0  0  0  0
   39.2080   33.1490   40.9130 C   0  0  0  0  0  0  0  0  0  0  0  0
   39.8260   33.1500   42.0140 O   0  0  0  0  0  0  0  0  0  0  0  0
   39.0750   34.2410   40.0130 N   0  0  0  0  0  0  0  0  0  0  0  0
   38.5220   34.1680   39.1530 H   0  0  0  0  0  0  0  0  0  0  0  0
   38.5530   31.8840   40.5120 C   0  0  0  0  0  0  0  0  0  0  0  0
   38.5890   31.2540   39.3220 N   0  0  0  0  0  0  0  0  0  0  0  0
   37.8660   30.1320   39.3520 C   0  0  0  0  0  0  0  0  0  0  0  0
   37.7000   29.4120   38.5610 H   0  0  0  0  0  0  0  0  0  0  0  0
   37.3600   30.0480   40.5860 N   0  0  0  0  0  0  0  0  0  0  0  0
   36.7480   29.3440   41.0380 H   0  0  0  0  0  0  0  0  0  0  0  0
   37.7660   31.0860   41.2750 N   0  0  0  0  0  0  0  0  0  0  0  0
  1  6  1  0  0  0  0
  1 20  1  0  0  0  0
  2  1  1  0  0  0  0
  3  1  1  0  0  0  0
  4 12  1  0  0  0  0
  5  4  1  0  0  0  0
  5 10  1  0  0  0  0
  6  5  2  0  0  0  0
  7  8  2  0  0  0  0
  7  6  1  0  0  0  0
  8  9  1  0  0  0  0
  9  4  2  0  0  0  0
 11  8  1  0  0  0  0
 12 14  1  0  0  0  0
 12 15  1  0  0  0  0
 13 12  1  0  0  0  0
 13 14  1  0  0  0  0
 13 17  1  0  0  0  0
 14 19  1  0  0  0  0
 16 13  1  0  0  0  0
 18 14  1  0  0  0  0
 20 21  1  0  0  0  0
 22 20  1  0  0  0  0
 23 24  2  0  0  0  0
 25 20  1  0  0  0  0
 25 23  1  0  0  0  0
 26 25  1  0  0  0  0
 27 23  1  0  0  0  0
 27 33  2  0  0  0  0
 28 29  2  0  0  0  0
 28 27  1  0  0  0  0
 29 31  1  0  0  0  0
 30 29  1  0  0  0  0
 31 32  1  0  0  0  0
 31 33  1  0  0  0  0
M  END
>  <minimizedAffinity>
-4.79347706

>  <minimizedRMSD>
0.552918077

$$$$
