
 OpenBabel03242520193D

 33 35  0  0  0  0  0  0  0  0999 V2000
   40.9970   35.8840   39.3890 C   0  0  0  0  0  0  0  0  0  0  0  0
   40.7300   35.4610   38.3880 H   0  0  0  0  0  0  0  0  0  0  0  0
   41.1280   36.9700   39.3250 H   0  0  0  0  0  0  0  0  0  0  0  0
   43.9170   34.6700   41.4630 C   0  0  0  0  0  0  0  0  0  0  0  0
   42.7710   35.3990   41.0740 C   0  0  0  0  0  0  0  0  0  0  0  0
   42.2060   35.1490   39.8350 C   0  0  0  0  0  0  0  0  0  0  0  0
   42.8090   34.1950   39.0540 N   0  0  0  0  0  0  0  0  0  0  0  0
   43.9100   33.5200   39.4730 C   0  0  0  0  0  0  0  0  0  0  0  0
   44.4570   33.7540   40.6620 N   0  0  0  0  0  0  0  0  0  0  0  0
   42.3620   36.1380   41.7580 H   0  0  0  0  0  0  0  0  0  0  0  0
   44.3690   32.7710   38.8410 H   0  0  0  0  0  0  0  0  0  0  0  0
   44.5170   34.9540   42.7930 C   0  0  0  0  0  0  0  0  0  0  0  0
   46.0330   35.3250   42.6880 C   0  0  0  0  0  0  0  0  0  0  0  0
   44.9980   36.2220   43.2050 C   0  0  0  0  0  0  0  0  0  0  0  0
   44.2870   34.1540   43.5210 H   0  0  0  0  0  0  0  0  0  0  0  0
   46.4550   35.4430   41.6770 H   0  0  0  0  0  0  0  0  0  0  0  0
   46.6730   34.7020   43.3390 H   0  0  0  0  0  0  0  0  0  0  0  0
   44.7810   37.1050   42.5340 H   0  0  0  0  0  0  0  0  0  0  0  0
   44.9990   36.5370   44.2620 H   0  0  0  0  0  0  0  0  0  0  0  0
   39.8270   35.5820   40.3040 C   0  0  0  0  0  0  0  0  0  0  0  0
   40.1820   35.6020   41.3340 H   0  0  0  0  0  0  0  0  0  0  0  0
   39.0510   36.3940   40.2190 H   0  0  0  0  0  0  0  0  0  0  0  0
   39.2490   33.2880   40.8890 C   0  0  0  0  0  0  0  0  0  0  0  0
   39.8210   33.3210   42.0130 O   0  0  0  0  0  0  0  0  0  0  0  0
   39.1560   34.3540   39.9520 N   0  0  0  0  0  0  0  0  0  0  0  0
   38.6380   34.2560   39.0730 H   0  0  0  0  0  0  0  0  0  0  0  0
   38.6090   32.0130   40.4970 C   0  0  0  0  0  0  0  0  0  0  0  0
   38.6300   31.3880   39.3040 N   0  0  0  0  0  0  0  0  0  0  0  0
   37.9280   30.2530   39.3460 C   0  0  0  0  0  0  0  0  0  0  0  0
   37.7580   29.5340   38.5560 H   0  0  0  0  0  0  0  0  0  0  0  0
   37.4530   30.1550   40.5910 N   0  0  0  0  0  0  0  0  0  0  0  0
   36.8630   29.4370   41.0520 H   0  0  0  0  0  0  0  0  0  0  0  0
   37.8540   31.1970   41.2750 N   0  0  0  0  0  0  0  0  0  0  0  0
  1  6  1  0  0  0  0
  1 20  1  0  0  0  0
  2  1  1  0  0  0  0
  3  1  1  0  0  0  0
  4 12  1  0  0  0  0
  5  4  1  0  0  0  0
  5 10  1  0  0  0  0
  6  5  2  0  0  0  0
  7  8  2  0  0  0  0
  7  6  1  0  0  0  0
  8  9  1  0  0  0  0
  9  4  2  0  0  0  0
 11  8  1  0  0  0  0
 12 14  1  0  0  0  0
 12 15  1  0  0  0  0
 13 12  1  0  0  0  0
 13 14  1  0  0  0  0
 13 17  1  0  0  0  0
 14 19  1  0  0  0  0
 16 13  1  0  0  0  0
 18 14  1  0  0  0  0
 20 21  1  0  0  0  0
 22 20  1  0  0  0  0
 23 24  2  0  0  0  0
 25 20  1  0  0  0  0
 25 23  1  0  0  0  0
 26 25  1  0  0  0  0
 27 23  1  0  0  0  0
 27 33  2  0  0  0  0
 28 29  2  0  0  0  0
 28 27  1  0  0  0  0
 29 31  1  0  0  0  0
 30 29  1  0  0  0  0
 31 32  1  0  0  0  0
 31 33  1  0  0  0  0
M  END
>  <minimizedAffinity>
-4.74866533

>  <minimizedRMSD>
0.592966676

$$$$
