
 OpenBabel03242520193D

 33 35  0  0  0  0  0  0  0  0999 V2000
   40.9960   35.8850   39.3900 C   0  0  0  0  0  0  0  0  0  0  0  0
   40.7300   35.4640   38.3880 H   0  0  0  0  0  0  0  0  0  0  0  0
   41.1280   36.9720   39.3270 H   0  0  0  0  0  0  0  0  0  0  0  0
   43.9170   34.6710   41.4630 C   0  0  0  0  0  0  0  0  0  0  0  0
   42.7710   35.4000   41.0740 C   0  0  0  0  0  0  0  0  0  0  0  0
   42.2060   35.1500   39.8350 C   0  0  0  0  0  0  0  0  0  0  0  0
   42.8080   34.1960   39.0550 N   0  0  0  0  0  0  0  0  0  0  0  0
   43.9090   33.5210   39.4730 C   0  0  0  0  0  0  0  0  0  0  0  0
   44.4570   33.7550   40.6620 N   0  0  0  0  0  0  0  0  0  0  0  0
   42.3630   36.1390   41.7580 H   0  0  0  0  0  0  0  0  0  0  0  0
   44.3680   32.7720   38.8410 H   0  0  0  0  0  0  0  0  0  0  0  0
   44.5180   34.9550   42.7930 C   0  0  0  0  0  0  0  0  0  0  0  0
   46.0340   35.3230   42.6870 C   0  0  0  0  0  0  0  0  0  0  0  0
   45.0000   36.2230   43.2030 C   0  0  0  0  0  0  0  0  0  0  0  0
   44.2870   34.1560   43.5210 H   0  0  0  0  0  0  0  0  0  0  0  0
   46.4570   35.4400   41.6770 H   0  0  0  0  0  0  0  0  0  0  0  0
   46.6740   34.7000   43.3380 H   0  0  0  0  0  0  0  0  0  0  0  0
   44.7850   37.1050   42.5320 H   0  0  0  0  0  0  0  0  0  0  0  0
   45.0020   36.5380   44.2600 H   0  0  0  0  0  0  0  0  0  0  0  0
   39.8260   35.5830   40.3040 C   0  0  0  0  0  0  0  0  0  0  0  0
   40.1810   35.6030   41.3350 H   0  0  0  0  0  0  0  0  0  0  0  0
   39.0500   36.3950   40.2200 H   0  0  0  0  0  0  0  0  0  0  0  0
   39.2480   33.2890   40.8890 C   0  0  0  0  0  0  0  0  0  0  0  0
   39.8190   33.3220   42.0150 O   0  0  0  0  0  0  0  0  0  0  0  0
   39.1560   34.3550   39.9520 N   0  0  0  0  0  0  0  0  0  0  0  0
   38.6400   34.2570   39.0720 H   0  0  0  0  0  0  0  0  0  0  0  0
   38.6090   32.0140   40.4980 C   0  0  0  0  0  0  0  0  0  0  0  0
   38.6280   31.3910   39.3040 N   0  0  0  0  0  0  0  0  0  0  0  0
   37.9280   30.2550   39.3460 C   0  0  0  0  0  0  0  0  0  0  0  0
   37.7560   29.5360   38.5550 H   0  0  0  0  0  0  0  0  0  0  0  0
   37.4540   30.1540   40.5920 N   0  0  0  0  0  0  0  0  0  0  0  0
   36.8680   29.4350   41.0540 H   0  0  0  0  0  0  0  0  0  0  0  0
   37.8570   31.1960   41.2750 N   0  0  0  0  0  0  0  0  0  0  0  0
  1  6  1  0  0  0  0
  1 20  1  0  0  0  0
  2  1  1  0  0  0  0
  3  1  1  0  0  0  0
  4 12  1  0  0  0  0
  5  4  1  0  0  0  0
  5 10  1  0  0  0  0
  6  5  2  0  0  0  0
  7  8  2  0  0  0  0
  7  6  1  0  0  0  0
  8  9  1  0  0  0  0
  9  4  2  0  0  0  0
 11  8  1  0  0  0  0
 12 14  1  0  0  0  0
 12 15  1  0  0  0  0
 13 12  1  0  0  0  0
 13 14  1  0  0  0  0
 13 17  1  0  0  0  0
 14 19  1  0  0  0  0
 16 13  1  0  0  0  0
 18 14  1  0  0  0  0
 20 21  1  0  0  0  0
 22 20  1  0  0  0  0
 23 24  2  0  0  0  0
 25 20  1  0  0  0  0
 25 23  1  0  0  0  0
 26 25  1  0  0  0  0
 27 23  1  0  0  0  0
 27 33  2  0  0  0  0
 28 29  2  0  0  0  0
 28 27  1  0  0  0  0
 29 31  1  0  0  0  0
 30 29  1  0  0  0  0
 31 32  1  0  0  0  0
 31 33  1  0  0  0  0
M  END
>  <minimizedAffinity>
-4.74876928

>  <minimizedRMSD>
0.509276688

$$$$
