
 OpenBabel03242520193D

 33 35  0  0  0  0  0  0  0  0999 V2000
   40.9980   35.8840   39.3870 C   0  0  0  0  0  0  0  0  0  0  0  0
   40.7320   35.4600   38.3870 H   0  0  0  0  0  0  0  0  0  0  0  0
   41.1290   36.9700   39.3230 H   0  0  0  0  0  0  0  0  0  0  0  0
   43.9180   34.6730   41.4630 C   0  0  0  0  0  0  0  0  0  0  0  0
   42.7720   35.4020   41.0730 C   0  0  0  0  0  0  0  0  0  0  0  0
   42.2070   35.1490   39.8340 C   0  0  0  0  0  0  0  0  0  0  0  0
   42.8090   34.1930   39.0560 N   0  0  0  0  0  0  0  0  0  0  0  0
   43.9110   33.5190   39.4760 C   0  0  0  0  0  0  0  0  0  0  0  0
   44.4580   33.7550   40.6640 N   0  0  0  0  0  0  0  0  0  0  0  0
   42.3640   36.1420   41.7550 H   0  0  0  0  0  0  0  0  0  0  0  0
   44.3690   32.7690   38.8450 H   0  0  0  0  0  0  0  0  0  0  0  0
   44.5190   34.9600   42.7930 C   0  0  0  0  0  0  0  0  0  0  0  0
   46.0370   35.3200   42.6870 C   0  0  0  0  0  0  0  0  0  0  0  0
   45.0070   36.2270   43.1990 C   0  0  0  0  0  0  0  0  0  0  0  0
   44.2830   34.1650   43.5240 H   0  0  0  0  0  0  0  0  0  0  0  0
   46.4610   35.4310   41.6770 H   0  0  0  0  0  0  0  0  0  0  0  0
   46.6730   34.6970   43.3420 H   0  0  0  0  0  0  0  0  0  0  0  0
   44.7960   37.1070   42.5240 H   0  0  0  0  0  0  0  0  0  0  0  0
   45.0090   36.5470   44.2540 H   0  0  0  0  0  0  0  0  0  0  0  0
   39.8270   35.5820   40.3020 C   0  0  0  0  0  0  0  0  0  0  0  0
   40.1820   35.6030   41.3330 H   0  0  0  0  0  0  0  0  0  0  0  0
   39.0510   36.3940   40.2170 H   0  0  0  0  0  0  0  0  0  0  0  0
   39.2490   33.2890   40.8880 C   0  0  0  0  0  0  0  0  0  0  0  0
   39.8190   33.3220   42.0130 O   0  0  0  0  0  0  0  0  0  0  0  0
   39.1560   34.3540   39.9500 N   0  0  0  0  0  0  0  0  0  0  0  0
   38.6400   34.2560   39.0710 H   0  0  0  0  0  0  0  0  0  0  0  0
   38.6090   32.0140   40.4970 C   0  0  0  0  0  0  0  0  0  0  0  0
   38.6280   31.3890   39.3040 N   0  0  0  0  0  0  0  0  0  0  0  0
   37.9270   30.2530   39.3470 C   0  0  0  0  0  0  0  0  0  0  0  0
   37.7560   29.5330   38.5560 H   0  0  0  0  0  0  0  0  0  0  0  0
   37.4530   30.1540   40.5920 N   0  0  0  0  0  0  0  0  0  0  0  0
   36.8660   29.4360   41.0540 H   0  0  0  0  0  0  0  0  0  0  0  0
   37.8550   31.1970   41.2760 N   0  0  0  0  0  0  0  0  0  0  0  0
  1  6  1  0  0  0  0
  1 20  1  0  0  0  0
  2  1  1  0  0  0  0
  3  1  1  0  0  0  0
  4 12  1  0  0  0  0
  5  4  1  0  0  0  0
  5 10  1  0  0  0  0
  6  5  2  0  0  0  0
  7  8  2  0  0  0  0
  7  6  1  0  0  0  0
  8  9  1  0  0  0  0
  9  4  2  0  0  0  0
 11  8  1  0  0  0  0
 12 14  1  0  0  0  0
 12 15  1  0  0  0  0
 13 12  1  0  0  0  0
 13 14  1  0  0  0  0
 13 17  1  0  0  0  0
 14 19  1  0  0  0  0
 16 13  1  0  0  0  0
 18 14  1  0  0  0  0
 20 21  1  0  0  0  0
 22 20  1  0  0  0  0
 23 24  2  0  0  0  0
 25 20  1  0  0  0  0
 25 23  1  0  0  0  0
 26 25  1  0  0  0  0
 27 23  1  0  0  0  0
 27 33  2  0  0  0  0
 28 29  2  0  0  0  0
 28 27  1  0  0  0  0
 29 31  1  0  0  0  0
 30 29  1  0  0  0  0
 31 32  1  0  0  0  0
 31 33  1  0  0  0  0
M  END
>  <minimizedAffinity>
-4.75358152

>  <minimizedRMSD>
0.501907408

$$$$
