
 OpenBabel03242520193D

 33 35  0  0  0  0  0  0  0  0999 V2000
   40.9320   35.7810   39.3740 C   0  0  0  0  0  0  0  0  0  0  0  0
   40.6520   35.2960   38.4050 H   0  0  0  0  0  0  0  0  0  0  0  0
   41.0280   36.8660   39.2470 H   0  0  0  0  0  0  0  0  0  0  0  0
   43.9050   34.7240   41.4590 C   0  0  0  0  0  0  0  0  0  0  0  0
   42.7260   35.3960   41.0630 C   0  0  0  0  0  0  0  0  0  0  0  0
   42.1740   35.1080   39.8260 C   0  0  0  0  0  0  0  0  0  0  0  0
   42.8210   34.1760   39.0550 N   0  0  0  0  0  0  0  0  0  0  0  0
   43.9530   33.5580   39.4800 C   0  0  0  0  0  0  0  0  0  0  0  0
   44.4880   33.8280   40.6670 N   0  0  0  0  0  0  0  0  0  0  0  0
   42.2820   36.1200   41.7400 H   0  0  0  0  0  0  0  0  0  0  0  0
   44.4470   32.8250   38.8540 H   0  0  0  0  0  0  0  0  0  0  0  0
   44.4900   35.0490   42.7870 C   0  0  0  0  0  0  0  0  0  0  0  0
   46.0280   35.3220   42.7010 C   0  0  0  0  0  0  0  0  0  0  0  0
   45.0370   36.3080   43.1390 C   0  0  0  0  0  0  0  0  0  0  0  0
   44.1950   34.3070   43.5520 H   0  0  0  0  0  0  0  0  0  0  0  0
   46.4800   35.3560   41.6970 H   0  0  0  0  0  0  0  0  0  0  0  0
   46.6140   34.7010   43.4020 H   0  0  0  0  0  0  0  0  0  0  0  0
   44.8900   37.1610   42.4150 H   0  0  0  0  0  0  0  0  0  0  0  0
   45.0330   36.6820   44.1760 H   0  0  0  0  0  0  0  0  0  0  0  0
   39.7950   35.4980   40.3350 C   0  0  0  0  0  0  0  0  0  0  0  0
   40.1920   35.5130   41.3510 H   0  0  0  0  0  0  0  0  0  0  0  0
   39.0280   36.3210   40.2810 H   0  0  0  0  0  0  0  0  0  0  0  0
   39.2180   33.2090   40.9400 C   0  0  0  0  0  0  0  0  0  0  0  0
   39.8450   33.2300   42.0360 O   0  0  0  0  0  0  0  0  0  0  0  0
   39.0930   34.2790   40.0130 N   0  0  0  0  0  0  0  0  0  0  0  0
   38.5320   34.1910   39.1590 H   0  0  0  0  0  0  0  0  0  0  0  0
   38.5440   31.9430   40.5760 C   0  0  0  0  0  0  0  0  0  0  0  0
   37.8420   31.1030   41.3600 N   0  0  0  0  0  0  0  0  0  0  0  0
   37.3870   30.0620   40.6600 C   0  0  0  0  0  0  0  0  0  0  0  0
   36.7940   29.2230   41.0020 H   0  0  0  0  0  0  0  0  0  0  0  0
   37.8070   30.2440   39.4050 N   0  0  0  0  0  0  0  0  0  0  0  0
   37.6810   29.6820   38.5420 H   0  0  0  0  0  0  0  0  0  0  0  0
   38.4940   31.3590   39.3520 N   0  0  0  0  0  0  0  0  0  0  0  0
  1  6  1  0  0  0  0
  1 20  1  0  0  0  0
  2  1  1  0  0  0  0
  3  1  1  0  0  0  0
  4 12  1  0  0  0  0
  5  4  1  0  0  0  0
  5 10  1  0  0  0  0
  6  5  2  0  0  0  0
  7  8  2  0  0  0  0
  7  6  1  0  0  0  0
  8  9  1  0  0  0  0
  9  4  2  0  0  0  0
 11  8  1  0  0  0  0
 12 14  1  0  0  0  0
 12 15  1  0  0  0  0
 13 12  1  0  0  0  0
 13 14  1  0  0  0  0
 13 17  1  0  0  0  0
 14 19  1  0  0  0  0
 16 13  1  0  0  0  0
 18 14  1  0  0  0  0
 20 21  1  0  0  0  0
 22 20  1  0  0  0  0
 23 24  2  0  0  0  0
 25 20  1  0  0  0  0
 25 23  1  0  0  0  0
 26 25  1  0  0  0  0
 27 23  1  0  0  0  0
 27 28  1  0  0  0  0
 29 30  1  0  0  0  0
 29 28  2  0  0  0  0
 31 29  1  0  0  0  0
 32 31  1  0  0  0  0
 33 31  1  0  0  0  0
 33 27  2  0  0  0  0
M  END
>  <minimizedAffinity>
-4.8167963

>  <minimizedRMSD>
0.49995935

$$$$
