
 OpenBabel03242515003D

 35 37  0  0  0  0  0  0  0  0999 V2000
   43.4830   34.9890   40.7420 S   0  0  0  0  0  0  0  0  0  0  0  0
   44.7580   34.7020   41.9710 C   0  0  0  0  0  0  0  0  0  0  0  0
   46.0650   34.5460   41.4900 C   0  0  0  0  0  0  0  0  0  0  0  0
   47.0850   34.3210   42.4120 C   0  0  0  0  0  0  0  0  0  0  0  0
   46.7610   34.2630   43.7260 N   0  0  0  0  0  0  0  0  0  0  0  0
   45.5140   34.4120   44.1710 C   0  0  0  0  0  0  0  0  0  0  0  0
   44.5150   34.6300   43.2990 N   0  0  0  0  0  0  0  0  0  0  0  0
   46.3620   34.5850   40.4560 H   0  0  0  0  0  0  0  0  0  0  0  0
   48.1110   34.1940   42.0900 H   0  0  0  0  0  0  0  0  0  0  0  0
   45.2500   34.3380   45.5940 C   0  0  0  0  0  0  0  0  0  0  0  0
   44.5080   35.2050   46.1190 O   0  0  0  0  0  0  0  0  0  0  0  0
   45.8020   33.3010   46.4580 C   0  0  0  0  0  0  0  0  0  0  0  0
   45.2140   32.9000   47.6000 N   0  0  0  0  0  0  0  0  0  0  0  0
   45.9610   31.9280   48.1790 C   0  0  0  0  0  0  0  0  0  0  0  0
   45.7230   31.4190   49.1150 H   0  0  0  0  0  0  0  0  0  0  0  0
   47.0280   31.7330   47.3740 N   0  0  0  0  0  0  0  0  0  0  0  0
   47.8120   31.0480   47.5250 H   0  0  0  0  0  0  0  0  0  0  0  0
   46.9240   32.5710   46.3310 N   0  0  0  0  0  0  0  0  0  0  0  0
   41.8490   35.1160   41.4740 C   0  0  0  0  0  0  0  0  0  0  0  0
   41.9410   35.4240   42.5240 H   0  0  0  0  0  0  0  0  0  0  0  0
   41.3910   34.1000   41.4670 H   0  0  0  0  0  0  0  0  0  0  0  0
   40.9380   36.0070   40.6950 C   0  0  0  0  0  0  0  0  0  0  0  0
   41.4400   36.8640   40.2290 H   0  0  0  0  0  0  0  0  0  0  0  0
   40.2020   36.4200   41.4170 H   0  0  0  0  0  0  0  0  0  0  0  0
   41.7790   36.2690   37.7810 Cl  0  0  0  0  0  0  0  0  0  0  0  0
   40.4520   35.2940   38.3340 C   0  0  0  0  0  0  0  0  0  0  0  0
   40.1380   35.2360   39.7060 C   0  0  0  0  0  0  0  0  0  0  0  0
   39.0740   34.4420   40.0580 C   0  0  0  0  0  0  0  0  0  0  0  0
   38.2850   33.6980   39.2060 C   0  0  0  0  0  0  0  0  0  0  0  0
   38.6130   33.7700   37.8540 C   0  0  0  0  0  0  0  0  0  0  0  0
   37.6590   32.8530   36.6950 Cl  0  0  0  0  0  0  0  0  0  0  0  0
   39.6760   34.5570   37.4500 C   0  0  0  0  0  0  0  0  0  0  0  0
   38.8650   34.4250   41.1220 H   0  0  0  0  0  0  0  0  0  0  0  0
   37.4650   33.1030   39.5850 H   0  0  0  0  0  0  0  0  0  0  0  0
   39.9050   34.5900   36.3880 H   0  0  0  0  0  0  0  0  0  0  0  0
  1 19  1  0  0  0  0
  1  2  1  0  0  0  0
  2  7  1  0  0  0  0
  3  2  2  0  0  0  0
  3  4  1  0  0  0  0
  4  5  2  0  0  0  0
  5  6  1  0  0  0  0
  6 10  1  0  0  0  0
  7  6  2  0  0  0  0
  8  3  1  0  0  0  0
  9  4  1  0  0  0  0
 10 11  2  0  0  0  0
 10 12  1  0  0  0  0
 12 13  1  0  0  0  0
 13 14  2  0  0  0  0
 14 15  1  0  0  0  0
 16 17  1  0  0  0  0
 16 14  1  0  0  0  0
 18 12  2  0  0  0  0
 18 16  1  0  0  0  0
 19 20  1  0  0  0  0
 21 19  1  0  0  0  0
 22 24  1  0  0  0  0
 22 19  1  0  0  0  0
 23 22  1  0  0  0  0
 25 26  1  0  0  0  0
 26 27  1  0  0  0  0
 27 28  2  0  0  0  0
 27 22  1  0  0  0  0
 28 33  1  0  0  0  0
 29 34  1  0  0  0  0
 29 28  1  0  0  0  0
 30 29  2  0  0  0  0
 31 30  1  0  0  0  0
 32 30  1  0  0  0  0
 32 26  2  0  0  0  0
 35 32  1  0  0  0  0
M  END
>  <minimizedAffinity>
-6.70435381

>  <minimizedRMSD>
0.286600679

$$$$
