
 OpenBabel03252507373D

 36 39  0  0  0  0  0  0  0  0999 V2000
   45.3970   34.8110   43.6350 C   0  0  0  0  0  0  0  0  0  0  0  0
   46.1330   33.7200   44.1550 C   0  0  0  0  0  0  0  0  0  0  0  0
   46.0160   33.4610   45.5080 C   0  0  0  0  0  0  0  0  0  0  0  0
   45.2170   34.2450   46.2620 N   0  0  0  0  0  0  0  0  0  0  0  0
   44.5170   35.2890   45.7390 C   0  0  0  0  0  0  0  0  0  0  0  0
   44.6130   35.5590   44.4460 N   0  0  0  0  0  0  0  0  0  0  0  0
   46.7660   33.0940   43.5800 H   0  0  0  0  0  0  0  0  0  0  0  0
   43.8990   35.8600   46.4360 H   0  0  0  0  0  0  0  0  0  0  0  0
   47.0410   32.5700   47.5310 C   0  0  0  0  0  0  0  0  0  0  0  0
   46.7050   32.3780   46.1960 C   0  0  0  0  0  0  0  0  0  0  0  0
   47.0370   31.1820   45.6060 C   0  0  0  0  0  0  0  0  0  0  0  0
   47.6870   30.1760   46.2870 C   0  0  0  0  0  0  0  0  0  0  0  0
   48.1040   28.9410   45.9140 N   0  0  0  0  0  0  0  0  0  0  0  0
   48.6990   28.3630   47.0120 C   0  0  0  0  0  0  0  0  0  0  0  0
   48.6380   29.2370   48.0220 N   0  0  0  0  0  0  0  0  0  0  0  0
   48.0220   30.3580   47.6040 C   0  0  0  0  0  0  0  0  0  0  0  0
   47.7000   31.5470   48.2200 C   0  0  0  0  0  0  0  0  0  0  0  0
   46.8430   33.4430   48.1060 H   0  0  0  0  0  0  0  0  0  0  0  0
   46.7760   31.0350   44.5710 H   0  0  0  0  0  0  0  0  0  0  0  0
   47.9630   28.5620   44.9440 H   0  0  0  0  0  0  0  0  0  0  0  0
   49.0950   27.3580   46.8910 H   0  0  0  0  0  0  0  0  0  0  0  0
   47.9780   31.6590   49.2590 H   0  0  0  0  0  0  0  0  0  0  0  0
   45.5110   35.0780   42.2710 O   0  0  0  0  0  0  0  0  0  0  0  0
   44.4330   34.8760   41.4260 C   0  0  0  0  0  0  0  0  0  0  0  0
   44.9760   34.0540   40.4990 C   0  0  0  0  0  0  0  0  0  0  0  0
   43.4900   33.7690   39.3280 S   0  0  0  0  0  0  0  0  0  0  0  0
   42.4410   34.8850   40.4310 C   0  0  0  0  0  0  0  0  0  0  0  0
   43.1720   35.1630   41.2090 N   0  0  0  0  0  0  0  0  0  0  0  0
   45.8490   33.4470   40.0550 H   0  0  0  0  0  0  0  0  0  0  0  0
   41.0760   35.0790   40.0230 N   0  0  0  0  0  0  0  0  0  0  0  0
   40.3310   35.4730   40.6330 H   0  0  0  0  0  0  0  0  0  0  0  0
   40.6920   34.6210   38.4320 S   0  0  0  0  0  0  0  0  0  0  0  0
   41.1080   33.2160   38.1080 O   0  0  0  0  0  1  0  0  0  0  0  0
   39.1890   34.7230   38.2070 O   0  0  0  0  0  1  0  0  0  0  0  0
   41.3920   35.6270   37.2830 O   0  0  0  0  0  0  0  0  0  0  0  0
   41.5820   36.5290   37.6430 H   0  0  0  0  0  0  0  0  0  0  0  0
  1  2  2  0  0  0  0
  1  6  1  0  0  0  0
  2  3  1  0  0  0  0
  3 10  1  0  0  0  0
  3  4  2  0  0  0  0
  5  4  1  0  0  0  0
  5  8  1  0  0  0  0
  6  5  2  0  0  0  0
  7  2  1  0  0  0  0
  9 18  1  0  0  0  0
  9 17  1  0  0  0  0
 10  9  2  0  0  0  0
 11 10  1  0  0  0  0
 11 12  2  0  0  0  0
 12 16  1  0  0  0  0
 13 12  1  0  0  0  0
 13 14  1  0  0  0  0
 14 15  2  0  0  0  0
 16 15  1  0  0  0  0
 16 17  2  0  0  0  0
 17 22  1  0  0  0  0
 19 11  1  0  0  0  0
 20 13  1  0  0  0  0
 21 14  1  0  0  0  0
 23  1  1  0  0  0  0
 24 23  1  0  0  0  0
 25 24  2  0  0  0  0
 26 27  1  0  0  0  0
 26 25  1  0  0  0  0
 27 28  2  0  0  0  0
 28 24  1  0  0  0  0
 29 25  1  0  0  0  0
 30 27  1  0  0  0  0
 30 31  1  0  0  0  0
 32 30  1  0  0  0  0
 33 32  1  0  0  0  0
 34 32  1  0  0  0  0
 35 36  1  0  0  0  0
 35 32  1  0  0  0  0
M  END
>  <minimizedAffinity>
-6.25684357

>  <minimizedRMSD>
0.425572097

$$$$
