
 OpenBabel03252508003D

 27 28  0  0  1  0  0  0  0  0999 V2000
   46.1970   34.8130   43.2540 C   0  0  0  0  0  0  0  0  0  0  0  0
   45.2820   35.8400   43.6360 C   0  0  0  0  0  0  0  0  0  0  0  0
   44.6430   35.6540   44.8620 C   0  0  0  0  0  0  0  0  0  0  0  0
   44.9200   34.5450   45.5900 N   0  0  0  0  0  0  0  0  0  0  0  0
   45.8160   33.6020   45.1470 C   0  0  0  0  0  0  0  0  0  0  0  0
   46.4580   33.7110   44.0010 N   0  0  0  0  0  0  0  0  0  0  0  0
   45.1310   36.6840   42.9840 H   0  0  0  0  0  0  0  0  0  0  0  0
   43.9420   36.4070   45.1910 H   0  0  0  0  0  0  0  0  0  0  0  0
   46.0760   32.4060   46.0040 C   0  0  1  0  0  0  0  0  0  0  0  0
   46.9540   32.5620   47.2230 C   0  0  0  0  0  0  0  0  0  0  0  0
   45.4560   32.4700   47.3470 C   0  0  1  0  0  0  0  0  0  0  0  0
   46.1840   31.4850   45.4200 H   0  0  0  0  0  0  0  0  0  0  0  0
   47.5750   31.6970   47.4640 H   0  0  0  0  0  0  0  0  0  0  0  0
   47.4810   33.5220   47.2760 H   0  0  0  0  0  0  0  0  0  0  0  0
   45.0700   31.5190   47.7340 H   0  0  0  0  0  0  0  0  0  0  0  0
   44.8800   33.7340   47.8120 N   0  0  0  0  0  0  0  0  0  0  0  0
   43.8450   33.6410   47.8220 H   0  0  0  0  0  0  0  0  0  0  0  0
   45.2470   33.9810   48.7690 H   0  0  0  0  0  0  0  0  0  0  0  0
   46.8620   35.0160   41.9780 C   0  0  0  0  0  0  0  0  0  0  0  0
   47.9560   35.6700   41.8490 O   0  0  0  0  0  0  0  0  0  0  0  0
   46.2340   34.4430   40.8180 N   0  0  0  0  0  0  0  0  0  0  0  0
   46.8230   34.1300   39.9960 H   0  0  0  0  0  0  0  0  0  0  0  0
   44.5100   34.2570   40.7520 S   0  0  0  0  0  0  0  0  0  0  0  0
   43.8800   35.5680   41.1320 O   0  0  0  0  0  0  0  0  0  0  0  0
   44.1210   33.1580   41.7170 O   0  0  0  0  0  0  0  0  0  0  0  0
   44.0380   33.8400   39.2020 O   0  0  0  0  0  0  0  0  0  0  0  0
   43.9390   34.6560   38.6300 H   0  0  0  0  0  0  0  0  0  0  0  0
  1  2  2  0  0  0  0
  1  6  1  0  0  0  0
  2  3  1  0  0  0  0
  3  8  1  0  0  0  0
  3  4  2  0  0  0  0
  5  4  1  0  0  0  0
  5  9  1  0  0  0  0
  6  5  2  0  0  0  0
  7  2  1  0  0  0  0
  9 12  1  6  0  0  0
  9 10  1  0  0  0  0
  9 11  1  0  0  0  0
 10 14  1  0  0  0  0
 10 11  1  0  0  0  0
 10 13  1  0  0  0  0
 11 15  1  1  0  0  0
 11 16  1  0  0  0  0
 16 17  1  0  0  0  0
 16 18  1  0  0  0  0
 19  1  1  0  0  0  0
 20 19  2  0  0  0  0
 21 19  1  0  0  0  0
 22 21  1  0  0  0  0
 23 21  1  0  0  0  0
 23 24  1  0  0  0  0
 23 25  1  0  0  0  0
 26 23  1  0  0  0  0
 27 26  1  0  0  0  0
M  END
>  <minimizedAffinity>
-5.49110603

>  <minimizedRMSD>
0.15297325

$$$$
