
 OpenBabel03252507373D

 36 39  0  0  0  0  0  0  0  0999 V2000
   45.3770   34.7730   43.5710 C   0  0  0  0  0  0  0  0  0  0  0  0
   46.1020   33.6950   44.1340 C   0  0  0  0  0  0  0  0  0  0  0  0
   45.9840   33.4920   45.4970 C   0  0  0  0  0  0  0  0  0  0  0  0
   45.1970   34.3160   46.2190 N   0  0  0  0  0  0  0  0  0  0  0  0
   44.5080   35.3470   45.6570 C   0  0  0  0  0  0  0  0  0  0  0  0
   44.6040   35.5620   44.3530 N   0  0  0  0  0  0  0  0  0  0  0  0
   46.7250   33.0380   43.5840 H   0  0  0  0  0  0  0  0  0  0  0  0
   43.8990   35.9530   46.3310 H   0  0  0  0  0  0  0  0  0  0  0  0
   47.0040   32.6720   47.5530 C   0  0  0  0  0  0  0  0  0  0  0  0
   46.6620   32.4300   46.2270 C   0  0  0  0  0  0  0  0  0  0  0  0
   46.9780   31.2070   45.6850 C   0  0  0  0  0  0  0  0  0  0  0  0
   47.6170   30.2220   46.4050 C   0  0  0  0  0  0  0  0  0  0  0  0
   48.0180   28.9680   46.0820 N   0  0  0  0  0  0  0  0  0  0  0  0
   48.6090   28.4270   47.2010 C   0  0  0  0  0  0  0  0  0  0  0  0
   48.5620   29.3420   48.1750 N   0  0  0  0  0  0  0  0  0  0  0  0
   47.9580   30.4530   47.7130 C   0  0  0  0  0  0  0  0  0  0  0  0
   47.6530   31.6700   48.2800 C   0  0  0  0  0  0  0  0  0  0  0  0
   46.8180   33.5700   48.0920 H   0  0  0  0  0  0  0  0  0  0  0  0
   46.7120   31.0210   44.6580 H   0  0  0  0  0  0  0  0  0  0  0  0
   47.8700   28.5510   45.1290 H   0  0  0  0  0  0  0  0  0  0  0  0
   48.9930   27.4130   47.1210 H   0  0  0  0  0  0  0  0  0  0  0  0
   47.9340   31.8210   49.3130 H   0  0  0  0  0  0  0  0  0  0  0  0
   45.4910   34.9820   42.1980 O   0  0  0  0  0  0  0  0  0  0  0  0
   44.3810   34.8690   41.3790 C   0  0  0  0  0  0  0  0  0  0  0  0
   44.8510   34.0480   40.4110 C   0  0  0  0  0  0  0  0  0  0  0  0
   43.3200   33.8840   39.2760 S   0  0  0  0  0  0  0  0  0  0  0  0
   42.3660   35.0220   40.4420 C   0  0  0  0  0  0  0  0  0  0  0  0
   43.1330   35.2340   41.2060 N   0  0  0  0  0  0  0  0  0  0  0  0
   45.6760   33.4070   39.9240 H   0  0  0  0  0  0  0  0  0  0  0  0
   41.0050   35.3060   40.0780 N   0  0  0  0  0  0  0  0  0  0  0  0
   40.3650   35.9150   40.6280 H   0  0  0  0  0  0  0  0  0  0  0  0
   40.4370   34.5780   38.6510 S   0  0  0  0  0  0  0  0  0  0  0  0
   40.8690   33.1490   38.5080 O   0  0  0  0  0  1  0  0  0  0  0  0
   38.9150   34.6090   38.6180 O   0  0  0  0  0  1  0  0  0  0  0  0
   40.9370   35.3920   37.2690 O   0  0  0  0  0  0  0  0  0  0  0  0
   41.1330   36.3450   37.4470 H   0  0  0  0  0  0  0  0  0  0  0  0
  1  2  2  0  0  0  0
  1  6  1  0  0  0  0
  2  3  1  0  0  0  0
  3  4  2  0  0  0  0
  3 10  1  0  0  0  0
  5  4  1  0  0  0  0
  5  8  1  0  0  0  0
  6  5  2  0  0  0  0
  7  2  1  0  0  0  0
  9 18  1  0  0  0  0
  9 17  1  0  0  0  0
 10  9  2  0  0  0  0
 11 10  1  0  0  0  0
 11 12  2  0  0  0  0
 12 16  1  0  0  0  0
 13 12  1  0  0  0  0
 13 14  1  0  0  0  0
 14 15  2  0  0  0  0
 16 15  1  0  0  0  0
 16 17  2  0  0  0  0
 17 22  1  0  0  0  0
 19 11  1  0  0  0  0
 20 13  1  0  0  0  0
 21 14  1  0  0  0  0
 23  1  1  0  0  0  0
 24 23  1  0  0  0  0
 25 24  2  0  0  0  0
 26 25  1  0  0  0  0
 26 27  1  0  0  0  0
 27 28  2  0  0  0  0
 28 24  1  0  0  0  0
 29 25  1  0  0  0  0
 30 27  1  0  0  0  0
 30 31  1  0  0  0  0
 32 30  1  0  0  0  0
 33 32  1  0  0  0  0
 34 32  1  0  0  0  0
 35 36  1  0  0  0  0
 35 32  1  0  0  0  0
M  END
>  <minimizedAffinity>
-6.21917629

>  <minimizedRMSD>
0.380963147

$$$$
