
 OpenBabel03242516533D

 43 45  0  0  1  0  0  0  0  0999 V2000
   47.8540   32.8960   41.8330 C   0  0  1  0  0  0  0  0  0  0  0  0
   47.5440   32.2660   40.5500 C   0  0  0  0  0  0  0  0  0  0  0  0
   48.5710   32.7970   39.5540 C   0  0  0  0  0  0  0  0  0  0  0  0
   48.2330   34.2650   39.3250 C   0  0  0  0  0  0  0  0  0  0  0  0
   48.1500   35.0780   40.5800 C   0  0  0  0  0  0  0  0  0  0  0  0
   47.6530   34.4150   41.7910 C   0  0  1  0  0  0  0  0  0  0  0  0
   48.9690   32.8080   42.0180 H   0  0  0  0  0  0  0  0  0  0  0  0
   46.5590   32.5780   40.1190 H   0  0  0  0  0  0  0  0  0  0  0  0
   47.6670   31.1860   40.5970 H   0  0  0  0  0  0  0  0  0  0  0  0
   48.3350   32.2800   38.5910 H   0  0  0  0  0  0  0  0  0  0  0  0
   49.5930   32.6420   39.8990 H   0  0  0  0  0  0  0  0  0  0  0  0
   48.9690   34.6850   38.6280 H   0  0  0  0  0  0  0  0  0  0  0  0
   47.2450   34.2660   38.8050 H   0  0  0  0  0  0  0  0  0  0  0  0
   49.1610   35.5580   40.7300 H   0  0  0  0  0  0  0  0  0  0  0  0
   47.4810   35.9360   40.3470 H   0  0  0  0  0  0  0  0  0  0  0  0
   48.2560   34.8010   42.6680 H   0  0  0  0  0  0  0  0  0  0  0  0
   45.4340   30.9230   43.9610 C   0  0  0  0  0  0  0  0  0  0  0  0
   46.1190   31.4850   42.8790 C   0  0  0  0  0  0  0  0  0  0  0  0
   47.2060   32.3550   43.0090 C   0  0  0  0  0  0  0  0  0  0  0  0
   47.5730   32.6340   44.2600 N   0  0  0  0  0  0  0  0  0  0  0  0
   46.9200   32.0990   45.3240 C   0  0  0  0  0  0  0  0  0  0  0  0
   45.8860   31.2710   45.2030 N   0  0  0  0  0  0  0  0  0  0  0  0
   44.6080   30.2630   43.7870 H   0  0  0  0  0  0  0  0  0  0  0  0
   45.7560   31.2050   41.8980 H   0  0  0  0  0  0  0  0  0  0  0  0
   47.3190   32.4080   46.2930 H   0  0  0  0  0  0  0  0  0  0  0  0
   46.2720   34.7850   42.1040 C   0  0  0  0  0  0  0  0  0  0  0  0
   45.8240   35.3800   43.2930 C   0  0  0  0  0  0  0  0  0  0  0  0
   44.4560   35.6590   43.3560 C   0  0  0  0  0  0  0  0  0  0  0  0
   43.6750   35.3310   42.2700 C   0  0  0  0  0  0  0  0  0  0  0  0
   44.1340   34.7460   41.1120 C   0  0  0  0  0  0  0  0  0  0  0  0
   45.4690   34.4750   41.0530 N   0  0  0  0  0  0  0  0  0  0  0  0
   46.5510   35.5690   44.0340 H   0  0  0  0  0  0  0  0  0  0  0  0
   44.0940   36.1170   44.2610 H   0  0  0  0  0  0  0  0  0  0  0  0
   42.6190   35.5790   42.3950 H   0  0  0  0  0  0  0  0  0  0  0  0
   43.2260   34.4380   39.9990 C   0  0  0  0  0  0  0  0  0  0  0  0
   42.3860   35.3130   39.6610 O   0  0  0  0  0  0  0  0  0  0  0  0
   43.2840   33.1870   39.3170 N   0  0  0  0  0  0  0  0  0  0  0  0
   44.2500   32.8740   39.0760 H   0  0  0  0  0  0  0  0  0  0  0  0
   41.7400   32.4670   39.0380 S   0  0  0  0  0  0  0  0  0  0  0  0
   40.9030   32.4490   40.2820 O   0  0  0  0  0  1  0  0  0  0  0  0
   41.0010   33.1070   37.8950 O   0  0  0  0  0  1  0  0  0  0  0  0
   42.0430   30.8640   38.5580 O   0  0  0  0  0  0  0  0  0  0  0  0
   42.1780   30.8150   37.5780 H   0  0  0  0  0  0  0  0  0  0  0  0
  1  7  1  1  0  0  0
  1 19  1  0  0  0  0
  2  9  1  0  0  0  0
  2  1  1  0  0  0  0
  3 11  1  0  0  0  0
  3  2  1  0  0  0  0
  4  3  1  0  0  0  0
  4  5  1  0  0  0  0
  5 14  1  0  0  0  0
  5  6  1  0  0  0  0
  6  1  1  0  0  0  0
  6 26  1  0  0  0  0
  6 16  1  1  0  0  0
  8  2  1  0  0  0  0
 10  3  1  0  0  0  0
 12  4  1  0  0  0  0
 13  4  1  0  0  0  0
 15  5  1  0  0  0  0
 17 22  1  0  0  0  0
 18 19  1  0  0  0  0
 18 17  2  0  0  0  0
 19 20  2  0  0  0  0
 20 21  1  0  0  0  0
 21 25  1  0  0  0  0
 22 21  2  0  0  0  0
 23 17  1  0  0  0  0
 24 18  1  0  0  0  0
 26 27  1  0  0  0  0
 27 28  2  0  0  0  0
 27 32  1  0  0  0  0
 28 33  1  0  0  0  0
 29 34  1  0  0  0  0
 29 28  1  0  0  0  0
 30 29  2  0  0  0  0
 31 30  1  0  0  0  0
 31 26  2  0  0  0  0
 35 30  1  0  0  0  0
 36 35  2  0  0  0  0
 37 35  1  0  0  0  0
 38 37  1  0  0  0  0
 39 37  1  0  0  0  0
 39 40  1  0  0  0  0
 41 39  1  0  0  0  0
 42 39  1  0  0  0  0
 43 42  1  0  0  0  0
M  END
>  <minimizedAffinity>
-5.30237198

>  <minimizedRMSD>
0.259102404

$$$$
