
 OpenBabel03242515013D

 35 36  0  0  0  0  0  0  0  0999 V2000
   43.5950   34.7840   40.7720 S   0  0  0  0  0  0  0  0  0  0  0  0
   44.9250   34.5490   41.9600 C   0  0  0  0  0  0  0  0  0  0  0  0
   46.2120   34.4070   41.4470 C   0  0  0  0  0  0  0  0  0  0  0  0
   47.2650   34.2240   42.3330 C   0  0  0  0  0  0  0  0  0  0  0  0
   46.9900   34.1910   43.6680 N   0  0  0  0  0  0  0  0  0  0  0  0
   45.7470   34.3300   44.1370 C   0  0  0  0  0  0  0  0  0  0  0  0
   44.7150   34.5080   43.2930 N   0  0  0  0  0  0  0  0  0  0  0  0
   46.4760   34.4260   40.3960 H   0  0  0  0  0  0  0  0  0  0  0  0
   48.2790   34.1090   41.9740 H   0  0  0  0  0  0  0  0  0  0  0  0
   45.5360   34.2830   45.5860 C   0  0  0  0  0  0  0  0  0  0  0  0
   44.5730   34.9670   46.0550 O   0  0  0  0  0  0  0  0  0  0  0  0
   46.4180   33.4830   46.3590 N   0  0  0  0  0  0  0  0  0  0  0  0
   47.1590   33.9580   46.9350 H   0  0  0  0  0  0  0  0  0  0  0  0
   46.2210   31.7810   46.3090 S   0  0  0  0  0  0  0  0  0  0  0  0
   45.7550   31.2670   44.9910 O   0  0  0  0  0  1  0  0  0  0  0  0
   45.2360   31.3020   47.3540 O   0  0  0  0  0  1  0  0  0  0  0  0
   47.7210   31.0850   46.6930 O   0  0  0  0  0  0  0  0  0  0  0  0
   48.4520   31.7440   46.4900 H   0  0  0  0  0  0  0  0  0  0  0  0
   42.0080   35.0740   41.5540 C   0  0  0  0  0  0  0  0  0  0  0  0
   42.1920   35.5680   42.5400 H   0  0  0  0  0  0  0  0  0  0  0  0
   41.4570   34.1450   41.8120 H   0  0  0  0  0  0  0  0  0  0  0  0
   41.1330   36.0030   40.7740 C   0  0  0  0  0  0  0  0  0  0  0  0
   41.8100   36.6740   40.1700 H   0  0  0  0  0  0  0  0  0  0  0  0
   40.5290   36.6930   41.4000 H   0  0  0  0  0  0  0  0  0  0  0  0
   41.9150   36.2200   37.8340 Cl  0  0  0  0  0  0  0  0  0  0  0  0
   40.5630   35.2950   38.4270 C   0  0  0  0  0  0  0  0  0  0  0  0
   40.2880   35.2590   39.7990 C   0  0  0  0  0  0  0  0  0  0  0  0
   39.2030   34.5050   40.1830 C   0  0  0  0  0  0  0  0  0  0  0  0
   38.3600   33.7810   39.3520 C   0  0  0  0  0  0  0  0  0  0  0  0
   38.6600   33.8370   37.9920 C   0  0  0  0  0  0  0  0  0  0  0  0
   37.6540   32.9550   36.8490 Cl  0  0  0  0  0  0  0  0  0  0  0  0
   39.7330   34.5750   37.5570 C   0  0  0  0  0  0  0  0  0  0  0  0
   39.0250   34.5040   41.2540 H   0  0  0  0  0  0  0  0  0  0  0  0
   37.5330   33.2180   39.7430 H   0  0  0  0  0  0  0  0  0  0  0  0
   39.9180   34.5810   36.4900 H   0  0  0  0  0  0  0  0  0  0  0  0
  1 19  1  0  0  0  0
  1  2  1  0  0  0  0
  2  7  1  0  0  0  0
  3  2  2  0  0  0  0
  3  4  1  0  0  0  0
  4  5  2  0  0  0  0
  5  6  1  0  0  0  0
  6 10  1  0  0  0  0
  7  6  2  0  0  0  0
  8  3  1  0  0  0  0
  9  4  1  0  0  0  0
 10 11  2  0  0  0  0
 10 12  1  0  0  0  0
 12 13  1  0  0  0  0
 14 12  1  0  0  0  0
 14 17  1  0  0  0  0
 14 16  1  0  0  0  0
 15 14  1  0  0  0  0
 18 17  1  0  0  0  0
 19 21  1  0  0  0  0
 19 20  1  0  0  0  0
 22 24  1  0  0  0  0
 22 19  1  0  0  0  0
 23 22  1  0  0  0  0
 25 26  1  0  0  0  0
 26 27  1  0  0  0  0
 27 28  2  0  0  0  0
 27 22  1  0  0  0  0
 28 33  1  0  0  0  0
 29 34  1  0  0  0  0
 29 28  1  0  0  0  0
 30 29  2  0  0  0  0
 31 30  1  0  0  0  0
 32 30  1  0  0  0  0
 32 26  2  0  0  0  0
 35 32  1  0  0  0  0
M  END
>  <minimizedAffinity>
-6.59254789

>  <minimizedRMSD>
0.502975225

$$$$
