
 OpenBabel03242516533D

 43 45  0  0  1  0  0  0  0  0999 V2000
   47.8470   32.9020   41.8340 C   0  0  1  0  0  0  0  0  0  0  0  0
   47.5540   32.2820   40.5420 C   0  0  0  0  0  0  0  0  0  0  0  0
   48.5920   32.8230   39.5630 C   0  0  0  0  0  0  0  0  0  0  0  0
   48.2530   34.2920   39.3420 C   0  0  0  0  0  0  0  0  0  0  0  0
   48.1540   35.0950   40.6030 C   0  0  0  0  0  0  0  0  0  0  0  0
   47.6430   34.4200   41.8030 C   0  0  1  0  0  0  0  0  0  0  0  0
   48.9610   32.8140   42.0310 H   0  0  0  0  0  0  0  0  0  0  0  0
   46.5740   32.5950   40.1020 H   0  0  0  0  0  0  0  0  0  0  0  0
   47.6800   31.2010   40.5810 H   0  0  0  0  0  0  0  0  0  0  0  0
   48.3690   32.3140   38.5920 H   0  0  0  0  0  0  0  0  0  0  0  0
   49.6100   32.6670   39.9180 H   0  0  0  0  0  0  0  0  0  0  0  0
   48.9970   34.7200   38.6570 H   0  0  0  0  0  0  0  0  0  0  0  0
   47.2720   34.2950   38.8110 H   0  0  0  0  0  0  0  0  0  0  0  0
   49.1610   35.5760   40.7690 H   0  0  0  0  0  0  0  0  0  0  0  0
   47.4850   35.9530   40.3690 H   0  0  0  0  0  0  0  0  0  0  0  0
   48.2350   34.8000   42.6900 H   0  0  0  0  0  0  0  0  0  0  0  0
   45.3930   30.9220   43.9160 C   0  0  0  0  0  0  0  0  0  0  0  0
   46.0910   31.4940   42.8480 C   0  0  0  0  0  0  0  0  0  0  0  0
   47.1870   32.3480   42.9970 C   0  0  0  0  0  0  0  0  0  0  0  0
   47.5500   32.6030   44.2550 N   0  0  0  0  0  0  0  0  0  0  0  0
   46.8850   32.0580   45.3060 C   0  0  0  0  0  0  0  0  0  0  0  0
   45.8420   31.2450   45.1660 N   0  0  0  0  0  0  0  0  0  0  0  0
   44.5610   30.2750   43.7270 H   0  0  0  0  0  0  0  0  0  0  0  0
   45.7300   31.2340   41.8600 H   0  0  0  0  0  0  0  0  0  0  0  0
   47.2830   32.3470   46.2830 H   0  0  0  0  0  0  0  0  0  0  0  0
   46.2580   34.7840   42.1020 C   0  0  0  0  0  0  0  0  0  0  0  0
   45.7940   35.3660   43.2910 C   0  0  0  0  0  0  0  0  0  0  0  0
   44.4250   35.6410   43.3410 C   0  0  0  0  0  0  0  0  0  0  0  0
   43.6580   35.3240   42.2410 C   0  0  0  0  0  0  0  0  0  0  0  0
   44.1330   34.7520   41.0820 C   0  0  0  0  0  0  0  0  0  0  0  0
   45.4690   34.4850   41.0370 N   0  0  0  0  0  0  0  0  0  0  0  0
   46.5110   35.5470   44.0440 H   0  0  0  0  0  0  0  0  0  0  0  0
   44.0500   36.0880   44.2450 H   0  0  0  0  0  0  0  0  0  0  0  0
   42.6010   35.5690   42.3550 H   0  0  0  0  0  0  0  0  0  0  0  0
   43.2390   34.4550   39.9540 C   0  0  0  0  0  0  0  0  0  0  0  0
   42.4210   35.3430   39.5980 O   0  0  0  0  0  0  0  0  0  0  0  0
   43.2880   33.2010   39.2790 N   0  0  0  0  0  0  0  0  0  0  0  0
   43.9480   33.1740   38.4710 H   0  0  0  0  0  0  0  0  0  0  0  0
   42.2430   32.0010   39.9490 S   0  0  0  0  0  0  0  0  0  0  0  0
   42.6310   31.6480   41.3530 O   0  0  0  0  0  1  0  0  0  0  0  0
   40.7920   32.3880   39.8660 O   0  0  0  0  0  1  0  0  0  0  0  0
   42.4140   30.6210   38.9700 O   0  0  0  0  0  0  0  0  0  0  0  0
   41.7850   30.6580   38.2050 H   0  0  0  0  0  0  0  0  0  0  0  0
  1  7  1  1  0  0  0
  1 19  1  0  0  0  0
  2  9  1  0  0  0  0
  2  1  1  0  0  0  0
  3 11  1  0  0  0  0
  3  2  1  0  0  0  0
  4  3  1  0  0  0  0
  4  5  1  0  0  0  0
  5 14  1  0  0  0  0
  5  6  1  0  0  0  0
  6  1  1  0  0  0  0
  6 26  1  0  0  0  0
  6 16  1  1  0  0  0
  8  2  1  0  0  0  0
 10  3  1  0  0  0  0
 12  4  1  0  0  0  0
 13  4  1  0  0  0  0
 15  5  1  0  0  0  0
 17 22  1  0  0  0  0
 18 19  1  0  0  0  0
 18 17  2  0  0  0  0
 19 20  2  0  0  0  0
 20 21  1  0  0  0  0
 21 25  1  0  0  0  0
 22 21  2  0  0  0  0
 23 17  1  0  0  0  0
 24 18  1  0  0  0  0
 26 27  1  0  0  0  0
 27 28  2  0  0  0  0
 27 32  1  0  0  0  0
 28 33  1  0  0  0  0
 29 34  1  0  0  0  0
 29 28  1  0  0  0  0
 30 29  2  0  0  0  0
 31 30  1  0  0  0  0
 31 26  2  0  0  0  0
 35 30  1  0  0  0  0
 36 35  2  0  0  0  0
 37 39  1  0  0  0  0
 37 35  1  0  0  0  0
 38 37  1  0  0  0  0
 39 40  1  0  0  0  0
 41 39  1  0  0  0  0
 42 39  1  0  0  0  0
 43 42  1  0  0  0  0
M  END
>  <minimizedAffinity>
-5.10181999

>  <minimizedRMSD>
0.253069103

$$$$
