
 OpenBabel03252508003D

 27 28  0  0  1  0  0  0  0  0999 V2000
   46.2530   34.7940   43.2320 C   0  0  0  0  0  0  0  0  0  0  0  0
   45.3020   35.8030   43.5700 C   0  0  0  0  0  0  0  0  0  0  0  0
   44.6380   35.6250   44.7840 C   0  0  0  0  0  0  0  0  0  0  0  0
   44.9270   34.5390   45.5430 N   0  0  0  0  0  0  0  0  0  0  0  0
   45.8590   33.6120   45.1410 C   0  0  0  0  0  0  0  0  0  0  0  0
   46.5260   33.7150   44.0090 N   0  0  0  0  0  0  0  0  0  0  0  0
   45.1450   36.6290   42.8970 H   0  0  0  0  0  0  0  0  0  0  0  0
   43.9090   36.3650   45.0810 H   0  0  0  0  0  0  0  0  0  0  0  0
   46.1300   32.4420   46.0300 C   0  0  1  0  0  0  0  0  0  0  0  0
   46.9670   32.6480   47.2690 C   0  0  0  0  0  0  0  0  0  0  0  0
   45.4700   32.5130   47.3530 C   0  0  1  0  0  0  0  0  0  0  0  0
   46.2810   31.5130   45.4680 H   0  0  0  0  0  0  0  0  0  0  0  0
   47.6070   31.8070   47.5450 H   0  0  0  0  0  0  0  0  0  0  0  0
   47.4640   33.6250   47.3180 H   0  0  0  0  0  0  0  0  0  0  0  0
   45.1020   31.5590   47.7490 H   0  0  0  0  0  0  0  0  0  0  0  0
   44.8430   33.7680   47.7760 N   0  0  0  0  0  0  0  0  0  0  0  0
   43.8110   33.6440   47.7580 H   0  0  0  0  0  0  0  0  0  0  0  0
   45.1750   34.0450   48.7380 H   0  0  0  0  0  0  0  0  0  0  0  0
   46.9440   34.9890   41.9690 C   0  0  0  0  0  0  0  0  0  0  0  0
   48.0930   35.5460   41.8720 O   0  0  0  0  0  0  0  0  0  0  0  0
   46.2760   34.5220   40.7840 N   0  0  0  0  0  0  0  0  0  0  0  0
   46.7340   34.6390   39.8370 H   0  0  0  0  0  0  0  0  0  0  0  0
   44.7190   33.7650   40.8920 S   0  0  0  0  0  0  0  0  0  0  0  0
   43.7230   34.7970   41.3440 O   0  0  0  0  0  1  0  0  0  0  0  0
   44.8210   32.6260   41.8830 O   0  0  0  0  0  1  0  0  0  0  0  0
   44.2660   33.1700   39.3940 O   0  0  0  0  0  0  0  0  0  0  0  0
   43.8400   33.8890   38.8400 H   0  0  0  0  0  0  0  0  0  0  0  0
  1  2  2  0  0  0  0
  1  6  1  0  0  0  0
  2  3  1  0  0  0  0
  3  8  1  0  0  0  0
  3  4  2  0  0  0  0
  5  4  1  0  0  0  0
  5  9  1  0  0  0  0
  6  5  2  0  0  0  0
  7  2  1  0  0  0  0
  9 12  1  6  0  0  0
  9 10  1  0  0  0  0
  9 11  1  0  0  0  0
 10 14  1  0  0  0  0
 10 11  1  0  0  0  0
 10 13  1  0  0  0  0
 11 15  1  1  0  0  0
 11 16  1  0  0  0  0
 16 18  1  0  0  0  0
 17 16  1  0  0  0  0
 19  1  1  0  0  0  0
 20 19  2  0  0  0  0
 21 23  1  0  0  0  0
 21 19  1  0  0  0  0
 22 21  1  0  0  0  0
 23 24  1  0  0  0  0
 23 25  1  0  0  0  0
 26 23  1  0  0  0  0
 27 26  1  0  0  0  0
M  END
>  <minimizedAffinity>
-5.27340508

>  <minimizedRMSD>
0.12535657

$$$$
