
 OpenBabel03242515013D

 35 36  0  0  0  0  0  0  0  0999 V2000
   43.7890   34.5240   40.7790 S   0  0  0  0  0  0  0  0  0  0  0  0
   45.1510   34.3880   41.9450 C   0  0  0  0  0  0  0  0  0  0  0  0
   46.4400   34.4490   41.4200 C   0  0  0  0  0  0  0  0  0  0  0  0
   47.5180   34.3480   42.2880 C   0  0  0  0  0  0  0  0  0  0  0  0
   47.2660   34.1930   43.6190 N   0  0  0  0  0  0  0  0  0  0  0  0
   46.0210   34.1380   44.1000 C   0  0  0  0  0  0  0  0  0  0  0  0
   44.9650   34.2340   43.2740 N   0  0  0  0  0  0  0  0  0  0  0  0
   46.6870   34.5710   40.3710 H   0  0  0  0  0  0  0  0  0  0  0  0
   48.5340   34.3900   41.9190 H   0  0  0  0  0  0  0  0  0  0  0  0
   45.8350   33.9700   45.5430 C   0  0  0  0  0  0  0  0  0  0  0  0
   44.7580   34.4180   46.0460 O   0  0  0  0  0  0  0  0  0  0  0  0
   46.8660   33.3220   46.2740 N   0  0  0  0  0  0  0  0  0  0  0  0
   47.8640   33.5940   46.0910 H   0  0  0  0  0  0  0  0  0  0  0  0
   46.4180   32.1300   47.4200 S   0  0  0  0  0  0  0  0  0  0  0  0
   45.5500   31.0530   46.8640 O   0  0  0  0  0  1  0  0  0  0  0  0
   45.6850   32.7340   48.6000 O   0  0  0  0  0  1  0  0  0  0  0  0
   47.8490   31.4480   48.0310 O   0  0  0  0  0  0  0  0  0  0  0  0
   48.5870   31.5810   47.3620 H   0  0  0  0  0  0  0  0  0  0  0  0
   42.2220   34.8730   41.5790 C   0  0  0  0  0  0  0  0  0  0  0  0
   42.4360   35.3220   42.5810 H   0  0  0  0  0  0  0  0  0  0  0  0
   41.6220   33.9680   41.8080 H   0  0  0  0  0  0  0  0  0  0  0  0
   41.3970   35.8750   40.8370 C   0  0  0  0  0  0  0  0  0  0  0  0
   42.1050   36.5020   40.2200 H   0  0  0  0  0  0  0  0  0  0  0  0
   40.8650   36.6000   41.4890 H   0  0  0  0  0  0  0  0  0  0  0  0
   42.0980   36.0890   37.8760 Cl  0  0  0  0  0  0  0  0  0  0  0  0
   40.7040   35.2500   38.4990 C   0  0  0  0  0  0  0  0  0  0  0  0
   40.4710   35.2100   39.8800 C   0  0  0  0  0  0  0  0  0  0  0  0
   39.3480   34.5270   40.2870 C   0  0  0  0  0  0  0  0  0  0  0  0
   38.4300   33.8780   39.4740 C   0  0  0  0  0  0  0  0  0  0  0  0
   38.6890   33.9370   38.1060 C   0  0  0  0  0  0  0  0  0  0  0  0
   37.5870   33.1470   36.9840 Cl  0  0  0  0  0  0  0  0  0  0  0  0
   39.7970   34.6060   37.6470 C   0  0  0  0  0  0  0  0  0  0  0  0
   39.2060   34.5190   41.3640 H   0  0  0  0  0  0  0  0  0  0  0  0
   37.5790   33.3680   39.8840 H   0  0  0  0  0  0  0  0  0  0  0  0
   39.9470   34.6180   36.5740 H   0  0  0  0  0  0  0  0  0  0  0  0
  1 19  1  0  0  0  0
  1  2  1  0  0  0  0
  2  7  1  0  0  0  0
  3  2  2  0  0  0  0
  3  4  1  0  0  0  0
  4  5  2  0  0  0  0
  5  6  1  0  0  0  0
  6 10  1  0  0  0  0
  7  6  2  0  0  0  0
  8  3  1  0  0  0  0
  9  4  1  0  0  0  0
 10 11  2  0  0  0  0
 10 12  1  0  0  0  0
 12 14  1  0  0  0  0
 13 12  1  0  0  0  0
 14 17  1  0  0  0  0
 14 16  1  0  0  0  0
 15 14  1  0  0  0  0
 18 17  1  0  0  0  0
 19 21  1  0  0  0  0
 19 20  1  0  0  0  0
 22 24  1  0  0  0  0
 22 19  1  0  0  0  0
 23 22  1  0  0  0  0
 25 26  1  0  0  0  0
 26 27  1  0  0  0  0
 27 28  2  0  0  0  0
 27 22  1  0  0  0  0
 28 33  1  0  0  0  0
 29 34  1  0  0  0  0
 29 28  1  0  0  0  0
 30 29  2  0  0  0  0
 31 30  1  0  0  0  0
 32 30  1  0  0  0  0
 32 26  2  0  0  0  0
 35 32  1  0  0  0  0
M  END
>  <minimizedAffinity>
-6.70164824

>  <minimizedRMSD>
0.751291692

$$$$
