
 OpenBabel03242516543D

 43 45  0  0  1  0  0  0  0  0999 V2000
   47.8250   32.7540   41.6450 C   0  0  1  0  0  0  0  0  0  0  0  0
   47.5470   31.8330   40.5440 C   0  0  0  0  0  0  0  0  0  0  0  0
   48.5320   32.1860   39.4330 C   0  0  0  0  0  0  0  0  0  0  0  0
   48.1010   33.5410   38.8860 C   0  0  0  0  0  0  0  0  0  0  0  0
   47.9750   34.6110   39.9280 C   0  0  0  0  0  0  0  0  0  0  0  0
   47.5280   34.2090   41.2680 C   0  0  1  0  0  0  0  0  0  0  0  0
   48.9450   32.7770   41.8220 H   0  0  0  0  0  0  0  0  0  0  0  0
   46.5420   31.9800   40.0740 H   0  0  0  0  0  0  0  0  0  0  0  0
   47.7380   30.8010   40.8290 H   0  0  0  0  0  0  0  0  0  0  0  0
   48.3230   31.4520   38.6150 H   0  0  0  0  0  0  0  0  0  0  0  0
   49.5640   32.1740   39.7820 H   0  0  0  0  0  0  0  0  0  0  0  0
   48.8040   33.8370   38.0980 H   0  0  0  0  0  0  0  0  0  0  0  0
   47.1110   33.3660   38.4000 H   0  0  0  0  0  0  0  0  0  0  0  0
   48.9540   35.1720   39.9450 H   0  0  0  0  0  0  0  0  0  0  0  0
   47.2520   35.3520   39.5220 H   0  0  0  0  0  0  0  0  0  0  0  0
   48.1120   34.8180   42.0230 H   0  0  0  0  0  0  0  0  0  0  0  0
   45.5770   31.1390   44.2180 C   0  0  0  0  0  0  0  0  0  0  0  0
   46.2160   31.4850   43.0230 C   0  0  0  0  0  0  0  0  0  0  0  0
   47.2210   32.4530   42.9260 C   0  0  0  0  0  0  0  0  0  0  0  0
   47.5520   33.0540   44.0690 N   0  0  0  0  0  0  0  0  0  0  0  0
   46.9430   32.7330   45.2390 C   0  0  0  0  0  0  0  0  0  0  0  0
   45.9880   31.8130   45.3340 N   0  0  0  0  0  0  0  0  0  0  0  0
   44.8150   30.3870   44.2180 H   0  0  0  0  0  0  0  0  0  0  0  0
   45.8870   30.9490   42.1430 H   0  0  0  0  0  0  0  0  0  0  0  0
   47.3060   33.2990   46.1010 H   0  0  0  0  0  0  0  0  0  0  0  0
   46.1290   34.5560   41.5170 C   0  0  0  0  0  0  0  0  0  0  0  0
   45.6400   35.2760   42.6170 C   0  0  0  0  0  0  0  0  0  0  0  0
   44.2600   35.5020   42.6320 C   0  0  0  0  0  0  0  0  0  0  0  0
   43.5090   35.0090   41.5880 C   0  0  0  0  0  0  0  0  0  0  0  0
   44.0100   34.3040   40.5160 C   0  0  0  0  0  0  0  0  0  0  0  0
   45.3550   34.0840   40.5050 N   0  0  0  0  0  0  0  0  0  0  0  0
   46.3460   35.5860   43.3370 H   0  0  0  0  0  0  0  0  0  0  0  0
   43.8660   36.0540   43.4680 H   0  0  0  0  0  0  0  0  0  0  0  0
   42.4430   35.2260   41.6700 H   0  0  0  0  0  0  0  0  0  0  0  0
   43.1320   33.8210   39.4410 C   0  0  0  0  0  0  0  0  0  0  0  0
   43.1700   34.4180   38.3340 O   0  0  0  0  0  0  0  0  0  0  0  0
   42.2590   32.7120   39.6380 N   0  0  0  0  0  0  0  0  0  0  0  0
   41.3840   32.7480   39.0700 H   0  0  0  0  0  0  0  0  0  0  0  0
   42.8430   31.5520   40.7750 S   0  0  0  0  0  0  0  0  0  0  0  0
   44.1920   31.0240   40.3870 O   0  0  0  0  0  1  0  0  0  0  0  0
   42.8500   32.0770   42.1850 O   0  0  0  0  0  1  0  0  0  0  0  0
   41.7270   30.2690   40.7610 O   0  0  0  0  0  0  0  0  0  0  0  0
   40.9930   30.4400   41.4030 H   0  0  0  0  0  0  0  0  0  0  0  0
  1  7  1  1  0  0  0
  1 19  1  0  0  0  0
  2  9  1  0  0  0  0
  2  1  1  0  0  0  0
  3 11  1  0  0  0  0
  3  2  1  0  0  0  0
  4  3  1  0  0  0  0
  4  5  1  0  0  0  0
  5 14  1  0  0  0  0
  5  6  1  0  0  0  0
  6 26  1  0  0  0  0
  6  1  1  0  0  0  0
  6 16  1  1  0  0  0
  8  2  1  0  0  0  0
 10  3  1  0  0  0  0
 12  4  1  0  0  0  0
 13  4  1  0  0  0  0
 15  5  1  0  0  0  0
 17 22  1  0  0  0  0
 18 17  2  0  0  0  0
 19 18  1  0  0  0  0
 19 20  2  0  0  0  0
 20 21  1  0  0  0  0
 21 22  2  0  0  0  0
 21 25  1  0  0  0  0
 23 17  1  0  0  0  0
 24 18  1  0  0  0  0
 26 27  1  0  0  0  0
 27 28  2  0  0  0  0
 27 32  1  0  0  0  0
 28 33  1  0  0  0  0
 29 34  1  0  0  0  0
 29 28  1  0  0  0  0
 30 29  2  0  0  0  0
 31 30  1  0  0  0  0
 31 26  2  0  0  0  0
 35 37  1  0  0  0  0
 35 30  1  0  0  0  0
 36 35  2  0  0  0  0
 37 39  1  0  0  0  0
 38 37  1  0  0  0  0
 39 41  1  0  0  0  0
 40 39  1  0  0  0  0
 42 39  1  0  0  0  0
 42 43  1  0  0  0  0
M  END
>  <minimizedAffinity>
-4.73978806

>  <minimizedRMSD>
1.42580152

$$$$
