
 OpenBabel03252507373D

 36 39  0  0  0  0  0  0  0  0999 V2000
   45.5750   34.6960   43.9320 C   0  0  0  0  0  0  0  0  0  0  0  0
   46.3530   33.6490   44.4800 C   0  0  0  0  0  0  0  0  0  0  0  0
   46.1690   33.3520   45.8180 C   0  0  0  0  0  0  0  0  0  0  0  0
   45.2700   34.0620   46.5310 N   0  0  0  0  0  0  0  0  0  0  0  0
   44.5320   35.0660   45.9830 C   0  0  0  0  0  0  0  0  0  0  0  0
   44.6900   35.3690   44.7030 N   0  0  0  0  0  0  0  0  0  0  0  0
   47.0640   33.0810   43.9370 H   0  0  0  0  0  0  0  0  0  0  0  0
   43.8320   35.5760   46.6480 H   0  0  0  0  0  0  0  0  0  0  0  0
   47.2790   32.5650   47.8390 C   0  0  0  0  0  0  0  0  0  0  0  0
   46.8880   32.3060   46.5300 C   0  0  0  0  0  0  0  0  0  0  0  0
   47.1980   31.0820   45.9880 C   0  0  0  0  0  0  0  0  0  0  0  0
   47.8780   30.1120   46.6910 C   0  0  0  0  0  0  0  0  0  0  0  0
   48.2820   28.8600   46.3650 N   0  0  0  0  0  0  0  0  0  0  0  0
   48.9230   28.3370   47.4640 C   0  0  0  0  0  0  0  0  0  0  0  0
   48.9030   29.2610   48.4300 N   0  0  0  0  0  0  0  0  0  0  0  0
   48.2670   30.3600   47.9820 C   0  0  0  0  0  0  0  0  0  0  0  0
   47.9690   31.5780   48.5500 C   0  0  0  0  0  0  0  0  0  0  0  0
   47.1040   33.4660   48.3770 H   0  0  0  0  0  0  0  0  0  0  0  0
   46.8950   30.8820   44.9740 H   0  0  0  0  0  0  0  0  0  0  0  0
   48.1020   28.4310   45.4220 H   0  0  0  0  0  0  0  0  0  0  0  0
   49.3170   27.3280   47.3780 H   0  0  0  0  0  0  0  0  0  0  0  0
   48.2890   31.7430   49.5700 H   0  0  0  0  0  0  0  0  0  0  0  0
   45.7570   35.0000   42.5830 O   0  0  0  0  0  0  0  0  0  0  0  0
   44.7040   34.8790   41.6920 C   0  0  0  0  0  0  0  0  0  0  0  0
   44.9610   33.6680   41.1450 C   0  0  0  0  0  0  0  0  0  0  0  0
   43.5080   33.4920   39.9130 S   0  0  0  0  0  0  0  0  0  0  0  0
   42.8730   35.1830   40.4620 C   0  0  0  0  0  0  0  0  0  0  0  0
   43.6280   35.4590   41.2160 N   0  0  0  0  0  0  0  0  0  0  0  0
   45.5850   32.7050   41.0370 H   0  0  0  0  0  0  0  0  0  0  0  0
   41.6750   35.6500   39.8200 N   0  0  0  0  0  0  0  0  0  0  0  0
   40.8720   36.0830   40.3200 H   0  0  0  0  0  0  0  0  0  0  0  0
   41.5980   35.4620   38.1330 S   0  0  0  0  0  0  0  0  0  0  0  0
   42.9150   35.0770   37.5240 O   0  0  0  0  0  1  0  0  0  0  0  0
   40.5880   34.3820   37.7710 O   0  0  0  0  0  1  0  0  0  0  0  0
   41.0750   36.8540   37.3510 O   0  0  0  0  0  0  0  0  0  0  0  0
   40.5240   37.4280   37.9390 H   0  0  0  0  0  0  0  0  0  0  0  0
  1  2  2  0  0  0  0
  1  6  1  0  0  0  0
  2  3  1  0  0  0  0
  3 10  1  0  0  0  0
  3  4  2  0  0  0  0
  5  4  1  0  0  0  0
  5  8  1  0  0  0  0
  6  5  2  0  0  0  0
  7  2  1  0  0  0  0
  9 18  1  0  0  0  0
  9 17  1  0  0  0  0
 10  9  2  0  0  0  0
 11 10  1  0  0  0  0
 11 12  2  0  0  0  0
 12 16  1  0  0  0  0
 13 12  1  0  0  0  0
 13 14  1  0  0  0  0
 14 15  2  0  0  0  0
 16 15  1  0  0  0  0
 16 17  2  0  0  0  0
 17 22  1  0  0  0  0
 19 11  1  0  0  0  0
 20 13  1  0  0  0  0
 21 14  1  0  0  0  0
 23  1  1  0  0  0  0
 24 23  1  0  0  0  0
 25 24  2  0  0  0  0
 26 27  1  0  0  0  0
 26 25  1  0  0  0  0
 27 28  2  0  0  0  0
 28 24  1  0  0  0  0
 29 25  1  0  0  0  0
 30 31  1  0  0  0  0
 30 27  1  0  0  0  0
 32 30  1  0  0  0  0
 33 32  1  0  0  0  0
 34 32  1  0  0  0  0
 35 36  1  0  0  0  0
 35 32  1  0  0  0  0
M  END
>  <minimizedAffinity>
-5.58933783

>  <minimizedRMSD>
0.425286859

$$$$
