
 OpenBabel03242516553D

 43 45  0  0  1  0  0  0  0  0999 V2000
   38.9400   24.8220   40.8920 C   0  0  1  0  0  0  0  0  0  0  0  0
   38.2830   23.7000   41.5600 C   0  0  0  0  0  0  0  0  0  0  0  0
   37.3620   23.0640   40.5230 C   0  0  0  0  0  0  0  0  0  0  0  0
   36.2280   24.0530   40.2870 C   0  0  0  0  0  0  0  0  0  0  0  0
   36.6850   25.4290   39.9080 C   0  0  0  0  0  0  0  0  0  0  0  0
   37.9430   25.9140   40.4890 C   0  0  1  0  0  0  0  0  0  0  0  0
   39.3240   24.4680   39.8850 H   0  0  0  0  0  0  0  0  0  0  0  0
   37.5940   24.0060   42.3870 H   0  0  0  0  0  0  0  0  0  0  0  0
   39.0020   22.9410   41.8630 H   0  0  0  0  0  0  0  0  0  0  0  0
   36.8950   22.1910   41.0450 H   0  0  0  0  0  0  0  0  0  0  0  0
   37.8950   22.7970   39.6110 H   0  0  0  0  0  0  0  0  0  0  0  0
   35.5570   23.6360   39.5260 H   0  0  0  0  0  0  0  0  0  0  0  0
   35.6600   24.0920   41.2470 H   0  0  0  0  0  0  0  0  0  0  0  0
   36.6760   25.4820   38.7810 H   0  0  0  0  0  0  0  0  0  0  0  0
   35.8660   26.1190   40.2120 H   0  0  0  0  0  0  0  0  0  0  0  0
   38.4850   26.5070   39.6910 H   0  0  0  0  0  0  0  0  0  0  0  0
   41.3380   25.7510   43.6600 C   0  0  0  0  0  0  0  0  0  0  0  0
   40.2770   25.2040   42.9310 C   0  0  0  0  0  0  0  0  0  0  0  0
   40.0700   25.4240   41.5660 C   0  0  0  0  0  0  0  0  0  0  0  0
   40.9660   26.2090   40.9680 N   0  0  0  0  0  0  0  0  0  0  0  0
   42.0040   26.7510   41.6580 C   0  0  0  0  0  0  0  0  0  0  0  0
   42.2020   26.5430   42.9560 N   0  0  0  0  0  0  0  0  0  0  0  0
   41.4350   25.5390   44.7050 H   0  0  0  0  0  0  0  0  0  0  0  0
   39.5960   24.5780   43.4940 H   0  0  0  0  0  0  0  0  0  0  0  0
   42.6650   27.3750   41.0520 H   0  0  0  0  0  0  0  0  0  0  0  0
   37.7250   26.8720   41.5740 C   0  0  0  0  0  0  0  0  0  0  0  0
   37.0560   26.6160   42.7810 C   0  0  0  0  0  0  0  0  0  0  0  0
   36.9870   27.6860   43.6770 C   0  0  0  0  0  0  0  0  0  0  0  0
   37.5670   28.8800   43.3100 C   0  0  0  0  0  0  0  0  0  0  0  0
   38.2190   29.1110   42.1190 C   0  0  0  0  0  0  0  0  0  0  0  0
   38.2850   28.0660   41.2470 N   0  0  0  0  0  0  0  0  0  0  0  0
   36.6650   25.6450   42.9130 H   0  0  0  0  0  0  0  0  0  0  0  0
   36.4780   27.5080   44.6090 H   0  0  0  0  0  0  0  0  0  0  0  0
   37.4720   29.6660   44.0610 H   0  0  0  0  0  0  0  0  0  0  0  0
   38.8150   30.4190   41.8150 C   0  0  0  0  0  0  0  0  0  0  0  0
   39.4360   31.0140   42.7350 O   0  0  0  0  0  0  0  0  0  0  0  0
   38.6970   31.0060   40.5220 N   0  0  0  0  0  0  0  0  0  0  0  0
   39.5690   30.9650   39.9510 H   0  0  0  0  0  0  0  0  0  0  0  0
   37.1340   31.6590   40.1870 S   0  0  0  0  0  0  0  0  0  0  0  0
   36.7370   31.4450   38.7580 O   0  0  0  0  0  1  0  0  0  0  0  0
   36.0800   31.1450   41.1280 O   0  0  0  0  0  1  0  0  0  0  0  0
   37.2440   33.3300   40.4800 O   0  0  0  0  0  0  0  0  0  0  0  0
   37.0580   33.5290   41.4340 H   0  0  0  0  0  0  0  0  0  0  0  0
  1  7  1  6  0  0  0
  1  2  1  0  0  0  0
  1 19  1  0  0  0  0
  2  9  1  0  0  0  0
  2  8  1  0  0  0  0
  3 10  1  0  0  0  0
  3  2  1  0  0  0  0
  4  3  1  0  0  0  0
  4 13  1  0  0  0  0
  5 15  1  0  0  0  0
  5  4  1  0  0  0  0
  5  6  1  0  0  0  0
  6 16  1  6  0  0  0
  6  1  1  0  0  0  0
  6 26  1  0  0  0  0
 11  3  1  0  0  0  0
 12  4  1  0  0  0  0
 14  5  1  0  0  0  0
 17 23  1  0  0  0  0
 18 24  1  0  0  0  0
 18 17  2  0  0  0  0
 19 18  1  0  0  0  0
 20 19  2  0  0  0  0
 20 21  1  0  0  0  0
 21 22  2  0  0  0  0
 22 17  1  0  0  0  0
 25 21  1  0  0  0  0
 26 27  1  0  0  0  0
 27 32  1  0  0  0  0
 27 28  2  0  0  0  0
 28 33  1  0  0  0  0
 29 28  1  0  0  0  0
 29 34  1  0  0  0  0
 30 29  2  0  0  0  0
 31 26  2  0  0  0  0
 31 30  1  0  0  0  0
 35 30  1  0  0  0  0
 35 36  2  0  0  0  0
 37 35  1  0  0  0  0
 38 37  1  0  0  0  0
 39 42  1  0  0  0  0
 39 37  1  0  0  0  0
 39 41  1  0  0  0  0
 40 39  1  0  0  0  0
 42 43  1  0  0  0  0
M  END
>  <minimizedAffinity>
-6.41757011

$$$$

 OpenBabel03242516553D

 43 45  0  0  1  0  0  0  0  0999 V2000
   36.6650   30.7190   39.1560 C   0  0  1  0  0  0  0  0  0  0  0  0
   36.8130   29.8490   37.9910 C   0  0  0  0  0  0  0  0  0  0  0  0
   35.4010   29.4560   37.5680 C   0  0  0  0  0  0  0  0  0  0  0  0
   34.8700   28.5210   38.6480 C   0  0  0  0  0  0  0  0  0  0  0  0
   34.9370   29.0860   40.0340 C   0  0  0  0  0  0  0  0  0  0  0  0
   36.0590   29.9790   40.3530 C   0  0  1  0  0  0  0  0  0  0  0  0
   35.8690   31.4950   38.9280 H   0  0  0  0  0  0  0  0  0  0  0  0
   37.3130   28.8730   38.2160 H   0  0  0  0  0  0  0  0  0  0  0  0
   37.2660   30.3770   37.1540 H   0  0  0  0  0  0  0  0  0  0  0  0
   35.5360   28.8170   36.6600 H   0  0  0  0  0  0  0  0  0  0  0  0
   34.7660   30.3250   37.4040 H   0  0  0  0  0  0  0  0  0  0  0  0
   33.8430   28.2360   38.3860 H   0  0  0  0  0  0  0  0  0  0  0  0
   35.4980   27.6010   38.5830 H   0  0  0  0  0  0  0  0  0  0  0  0
   33.9330   29.5550   40.2500 H   0  0  0  0  0  0  0  0  0  0  0  0
   34.9750   28.2120   40.7220 H   0  0  0  0  0  0  0  0  0  0  0  0
   35.6640   30.8030   41.0210 H   0  0  0  0  0  0  0  0  0  0  0  0
   38.7720   33.4380   40.7200 C   0  0  0  0  0  0  0  0  0  0  0  0
   37.6960   32.6620   40.2770 C   0  0  0  0  0  0  0  0  0  0  0  0
   37.8350   31.4560   39.5840 C   0  0  0  0  0  0  0  0  0  0  0  0
   39.0890   31.0640   39.3570 N   0  0  0  0  0  0  0  0  0  0  0  0
   40.1480   31.8040   39.7780 C   0  0  0  0  0  0  0  0  0  0  0  0
   40.0180   32.9510   40.4370 N   0  0  0  0  0  0  0  0  0  0  0  0
   38.5910   34.3530   41.2460 H   0  0  0  0  0  0  0  0  0  0  0  0
   36.7120   33.0520   40.5040 H   0  0  0  0  0  0  0  0  0  0  0  0
   41.1200   31.3730   39.5280 H   0  0  0  0  0  0  0  0  0  0  0  0
   37.0890   29.3170   41.1550 C   0  0  0  0  0  0  0  0  0  0  0  0
   37.5200   29.7080   42.4320 C   0  0  0  0  0  0  0  0  0  0  0  0
   38.5080   28.9080   43.0120 C   0  0  0  0  0  0  0  0  0  0  0  0
   38.9700   27.8240   42.2970 C   0  0  0  0  0  0  0  0  0  0  0  0
   38.5330   27.4580   41.0430 C   0  0  0  0  0  0  0  0  0  0  0  0
   37.5690   28.2400   40.4800 N   0  0  0  0  0  0  0  0  0  0  0  0
   37.0660   30.5650   42.8470 H   0  0  0  0  0  0  0  0  0  0  0  0
   38.8520   29.1910   43.9920 H   0  0  0  0  0  0  0  0  0  0  0  0
   39.7390   27.2490   42.8150 H   0  0  0  0  0  0  0  0  0  0  0  0
   39.0800   26.2790   40.3570 C   0  0  0  0  0  0  0  0  0  0  0  0
   39.5180   26.4260   39.1860 O   0  0  0  0  0  0  0  0  0  0  0  0
   39.1150   25.0020   40.9900 N   0  0  0  0  0  0  0  0  0  0  0  0
   40.0620   24.7110   41.3150 H   0  0  0  0  0  0  0  0  0  0  0  0
   37.5790   24.2200   41.0780 S   0  0  0  0  0  0  0  0  0  0  0  0
   36.8390   24.5850   42.3290 O   0  0  0  0  0  1  0  0  0  0  0  0
   36.7350   24.4630   39.8570 O   0  0  0  0  0  1  0  0  0  0  0  0
   37.8970   22.5490   41.0990 O   0  0  0  0  0  0  0  0  0  0  0  0
   37.9590   22.1950   40.1740 H   0  0  0  0  0  0  0  0  0  0  0  0
  1  7  1  6  0  0  0
  1 19  1  0  0  0  0
  1  6  1  0  0  0  0
  2  8  1  0  0  0  0
  2  1  1  0  0  0  0
  3  2  1  0  0  0  0
  3  4  1  0  0  0  0
  4  5  1  0  0  0  0
  5 14  1  0  0  0  0
  5  6  1  0  0  0  0
  5 15  1  0  0  0  0
  6 16  1  1  0  0  0
  6 26  1  0  0  0  0
  9  2  1  0  0  0  0
 10  3  1  0  0  0  0
 11  3  1  0  0  0  0
 12  4  1  0  0  0  0
 13  4  1  0  0  0  0
 17 23  1  0  0  0  0
 18 24  1  0  0  0  0
 18 17  2  0  0  0  0
 19 18  1  0  0  0  0
 20 19  2  0  0  0  0
 20 21  1  0  0  0  0
 21 22  2  0  0  0  0
 22 17  1  0  0  0  0
 25 21  1  0  0  0  0
 26 27  1  0  0  0  0
 27 32  1  0  0  0  0
 27 28  2  0  0  0  0
 28 33  1  0  0  0  0
 29 34  1  0  0  0  0
 29 28  1  0  0  0  0
 30 29  2  0  0  0  0
 31 30  1  0  0  0  0
 31 26  2  0  0  0  0
 35 37  1  0  0  0  0
 35 30  1  0  0  0  0
 36 35  2  0  0  0  0
 37 39  1  0  0  0  0
 37 38  1  0  0  0  0
 39 42  1  0  0  0  0
 39 40  1  0  0  0  0
 41 39  1  0  0  0  0
 43 42  1  0  0  0  0
M  END
>  <minimizedAffinity>
-6.04826784

$$$$

 OpenBabel03242516553D

 43 45  0  0  1  0  0  0  0  0999 V2000
   38.7450   25.1300   39.1590 C   0  0  1  0  0  0  0  0  0  0  0  0
   39.4510   24.1290   39.9580 C   0  0  0  0  0  0  0  0  0  0  0  0
   38.8390   22.7800   39.5890 C   0  0  0  0  0  0  0  0  0  0  0  0
   37.4300   22.7720   40.1680 C   0  0  0  0  0  0  0  0  0  0  0  0
   36.5880   23.9380   39.7480 C   0  0  0  0  0  0  0  0  0  0  0  0
   37.2630   25.2250   39.5350 C   0  0  1  0  0  0  0  0  0  0  0  0
   38.6960   24.7670   38.0860 H   0  0  0  0  0  0  0  0  0  0  0  0
   39.2710   24.2190   41.0590 H   0  0  0  0  0  0  0  0  0  0  0  0
   40.5070   24.0860   39.7000 H   0  0  0  0  0  0  0  0  0  0  0  0
   39.4130   22.0280   40.1870 H   0  0  0  0  0  0  0  0  0  0  0  0
   38.8620   22.6000   38.5150 H   0  0  0  0  0  0  0  0  0  0  0  0
   36.9510   21.8220   39.9010 H   0  0  0  0  0  0  0  0  0  0  0  0
   37.5610   22.7790   41.2760 H   0  0  0  0  0  0  0  0  0  0  0  0
   35.9890   23.6080   38.8500 H   0  0  0  0  0  0  0  0  0  0  0  0
   35.8220   24.0680   40.5450 H   0  0  0  0  0  0  0  0  0  0  0  0
   36.7790   25.7240   38.6420 H   0  0  0  0  0  0  0  0  0  0  0  0
   40.8660   28.1190   40.0820 C   0  0  0  0  0  0  0  0  0  0  0  0
   40.2690   26.8540   40.0550 C   0  0  0  0  0  0  0  0  0  0  0  0
   39.3180   26.4590   39.1100 C   0  0  0  0  0  0  0  0  0  0  0  0
   38.9940   27.3790   38.2010 N   0  0  0  0  0  0  0  0  0  0  0  0
   39.5620   28.6130   38.2110 C   0  0  0  0  0  0  0  0  0  0  0  0
   40.4670   28.9910   39.1090 N   0  0  0  0  0  0  0  0  0  0  0  0
   41.5890   28.3520   40.8380 H   0  0  0  0  0  0  0  0  0  0  0  0
   40.5890   26.1680   40.8280 H   0  0  0  0  0  0  0  0  0  0  0  0
   39.2090   29.2720   37.4140 H   0  0  0  0  0  0  0  0  0  0  0  0
   37.0460   26.1590   40.6410 C   0  0  0  0  0  0  0  0  0  0  0  0
   37.4860   25.9930   41.9620 C   0  0  0  0  0  0  0  0  0  0  0  0
   37.1730   27.0310   42.8440 C   0  0  0  0  0  0  0  0  0  0  0  0
   36.4700   28.1100   42.3540 C   0  0  0  0  0  0  0  0  0  0  0  0
   36.0470   28.2540   41.0510 C   0  0  0  0  0  0  0  0  0  0  0  0
   36.3530   27.2400   40.1950 N   0  0  0  0  0  0  0  0  0  0  0  0
   38.0140   25.1060   42.1810 H   0  0  0  0  0  0  0  0  0  0  0  0
   37.5030   26.9220   43.8630 H   0  0  0  0  0  0  0  0  0  0  0  0
   36.2650   28.8780   43.1010 H   0  0  0  0  0  0  0  0  0  0  0  0
   35.3070   29.4470   40.6160 C   0  0  0  0  0  0  0  0  0  0  0  0
   34.3410   29.2870   39.8240 O   0  0  0  0  0  0  0  0  0  0  0  0
   35.6660   30.7490   41.0690 N   0  0  0  0  0  0  0  0  0  0  0  0
   35.0210   31.1470   41.7860 H   0  0  0  0  0  0  0  0  0  0  0  0
   37.0910   31.3820   40.3280 S   0  0  0  0  0  0  0  0  0  0  0  0
   38.3310   30.9600   41.0570 O   0  0  0  0  0  1  0  0  0  0  0  0
   37.1800   31.0470   38.8650 O   0  0  0  0  0  1  0  0  0  0  0  0
   36.9580   33.0760   40.4110 O   0  0  0  0  0  0  0  0  0  0  0  0
   36.4650   33.4240   39.6250 H   0  0  0  0  0  0  0  0  0  0  0  0
  1  7  1  6  0  0  0
  1  6  1  0  0  0  0
  1  2  1  0  0  0  0
  2  8  1  0  0  0  0
  3  2  1  0  0  0  0
  3  4  1  0  0  0  0
  3 10  1  0  0  0  0
  4 13  1  0  0  0  0
  5  4  1  0  0  0  0
  5 15  1  0  0  0  0
  6 16  1  6  0  0  0
  6  5  1  0  0  0  0
  6 26  1  0  0  0  0
  9  2  1  0  0  0  0
 11  3  1  0  0  0  0
 12  4  1  0  0  0  0
 14  5  1  0  0  0  0
 17 23  1  0  0  0  0
 18 17  1  0  0  0  0
 18 24  1  0  0  0  0
 19  1  1  0  0  0  0
 19 18  2  0  0  0  0
 20 21  2  0  0  0  0
 20 19  1  0  0  0  0
 21 22  1  0  0  0  0
 22 17  2  0  0  0  0
 25 21  1  0  0  0  0
 26 27  1  0  0  0  0
 27 32  1  0  0  0  0
 27 28  2  0  0  0  0
 28 33  1  0  0  0  0
 29 28  1  0  0  0  0
 29 34  1  0  0  0  0
 30 29  2  0  0  0  0
 31 26  2  0  0  0  0
 31 30  1  0  0  0  0
 35 30  1  0  0  0  0
 35 37  1  0  0  0  0
 36 35  2  0  0  0  0
 37 38  1  0  0  0  0
 39 42  1  0  0  0  0
 39 40  1  0  0  0  0
 39 37  1  0  0  0  0
 41 39  1  0  0  0  0
 43 42  1  0  0  0  0
M  END
>  <minimizedAffinity>
-6.0061717

$$$$

 OpenBabel03242516553D

 43 45  0  0  1  0  0  0  0  0999 V2000
   36.6810   30.8030   39.2080 C   0  0  1  0  0  0  0  0  0  0  0  0
   36.8420   29.9530   38.0290 C   0  0  0  0  0  0  0  0  0  0  0  0
   35.4490   29.4330   37.6840 C   0  0  0  0  0  0  0  0  0  0  0  0
   35.0700   28.4510   38.7850 C   0  0  0  0  0  0  0  0  0  0  0  0
   35.1640   29.0150   40.1700 C   0  0  0  0  0  0  0  0  0  0  0  0
   36.2160   30.0060   40.4310 C   0  0  1  0  0  0  0  0  0  0  0  0
   35.8060   31.5020   39.0320 H   0  0  0  0  0  0  0  0  0  0  0  0
   37.4400   29.0270   38.2170 H   0  0  0  0  0  0  0  0  0  0  0  0
   37.1950   30.5240   37.1720 H   0  0  0  0  0  0  0  0  0  0  0  0
   35.5900   28.8120   36.7640 H   0  0  0  0  0  0  0  0  0  0  0  0
   34.7280   30.2410   37.5640 H   0  0  0  0  0  0  0  0  0  0  0  0
   34.0600   28.0730   38.5800 H   0  0  0  0  0  0  0  0  0  0  0  0
   35.7750   27.5920   38.6760 H   0  0  0  0  0  0  0  0  0  0  0  0
   34.1360   29.3880   40.4460 H   0  0  0  0  0  0  0  0  0  0  0  0
   35.3220   28.1460   40.8460 H   0  0  0  0  0  0  0  0  0  0  0  0
   35.7860   30.7890   41.1270 H   0  0  0  0  0  0  0  0  0  0  0  0
   40.2290   32.0780   39.4590 C   0  0  0  0  0  0  0  0  0  0  0  0
   39.0930   31.3250   39.1450 C   0  0  0  0  0  0  0  0  0  0  0  0
   37.8010   31.6430   39.5750 C   0  0  0  0  0  0  0  0  0  0  0  0
   37.6990   32.7390   40.3270 N   0  0  0  0  0  0  0  0  0  0  0  0
   38.7900   33.4830   40.6430 C   0  0  0  0  0  0  0  0  0  0  0  0
   40.0200   33.1830   40.2350 N   0  0  0  0  0  0  0  0  0  0  0  0
   41.1900   31.7740   39.0940 H   0  0  0  0  0  0  0  0  0  0  0  0
   39.2650   30.4510   38.5300 H   0  0  0  0  0  0  0  0  0  0  0  0
   38.5710   34.3550   41.2650 H   0  0  0  0  0  0  0  0  0  0  0  0
   37.3460   29.4400   41.1680 C   0  0  0  0  0  0  0  0  0  0  0  0
   37.8780   29.9290   42.3710 C   0  0  0  0  0  0  0  0  0  0  0  0
   38.9530   29.2080   42.8990 C   0  0  0  0  0  0  0  0  0  0  0  0
   39.3950   28.1010   42.2080 C   0  0  0  0  0  0  0  0  0  0  0  0
   38.8590   27.6380   41.0280 C   0  0  0  0  0  0  0  0  0  0  0  0
   37.8110   28.3430   40.5150 N   0  0  0  0  0  0  0  0  0  0  0  0
   37.4250   30.7920   42.7760 H   0  0  0  0  0  0  0  0  0  0  0  0
   39.3740   29.5680   43.8220 H   0  0  0  0  0  0  0  0  0  0  0  0
   40.2350   27.5920   42.6830 H   0  0  0  0  0  0  0  0  0  0  0  0
   39.3930   26.4410   40.3640 C   0  0  0  0  0  0  0  0  0  0  0  0
   39.3390   26.3880   39.1070 O   0  0  0  0  0  0  0  0  0  0  0  0
   39.9540   25.3650   41.1120 N   0  0  0  0  0  0  0  0  0  0  0  0
   40.9960   25.3160   41.0760 H   0  0  0  0  0  0  0  0  0  0  0  0
   38.7840   24.3810   41.9120 S   0  0  0  0  0  0  0  0  0  0  0  0
   37.6580   25.1970   42.4690 O   0  0  0  0  0  1  0  0  0  0  0  0
   38.2700   23.2690   41.0400 O   0  0  0  0  0  1  0  0  0  0  0  0
   39.6000   23.6240   43.1990 O   0  0  0  0  0  0  0  0  0  0  0  0
   40.0180   22.7780   42.8950 H   0  0  0  0  0  0  0  0  0  0  0  0
  1  7  1  6  0  0  0
  1 19  1  0  0  0  0
  1  6  1  0  0  0  0
  2  8  1  0  0  0  0
  2  1  1  0  0  0  0
  3  2  1  0  0  0  0
  3  4  1  0  0  0  0
  4  5  1  0  0  0  0
  5  6  1  0  0  0  0
  5 14  1  0  0  0  0
  5 15  1  0  0  0  0
  6 16  1  1  0  0  0
  6 26  1  0  0  0  0
  9  2  1  0  0  0  0
 10  3  1  0  0  0  0
 11  3  1  0  0  0  0
 12  4  1  0  0  0  0
 13  4  1  0  0  0  0
 17 22  1  0  0  0  0
 18 17  2  0  0  0  0
 18 19  1  0  0  0  0
 19 20  2  0  0  0  0
 20 21  1  0  0  0  0
 21 25  1  0  0  0  0
 22 21  2  0  0  0  0
 23 17  1  0  0  0  0
 24 18  1  0  0  0  0
 26 27  1  0  0  0  0
 27 32  1  0  0  0  0
 27 28  2  0  0  0  0
 28 33  1  0  0  0  0
 29 34  1  0  0  0  0
 29 28  1  0  0  0  0
 30 29  2  0  0  0  0
 31 30  1  0  0  0  0
 31 26  2  0  0  0  0
 35 30  1  0  0  0  0
 35 37  1  0  0  0  0
 36 35  2  0  0  0  0
 37 39  1  0  0  0  0
 38 37  1  0  0  0  0
 39 40  1  0  0  0  0
 39 42  1  0  0  0  0
 41 39  1  0  0  0  0
 43 42  1  0  0  0  0
M  END
>  <minimizedAffinity>
-5.98706245

$$$$

 OpenBabel03242516553D

 43 45  0  0  1  0  0  0  0  0999 V2000
   37.4650   29.6380   41.7690 C   0  0  1  0  0  0  0  0  0  0  0  0
   36.7330   28.3900   41.5600 C   0  0  0  0  0  0  0  0  0  0  0  0
   36.6820   27.6930   42.9170 C   0  0  0  0  0  0  0  0  0  0  0  0
   38.1020   27.2300   43.2190 C   0  0  0  0  0  0  0  0  0  0  0  0
   39.1290   28.3190   43.1510 C   0  0  0  0  0  0  0  0  0  0  0  0
   38.9230   29.3900   42.1680 C   0  0  1  0  0  0  0  0  0  0  0  0
   37.0490   30.1500   42.6910 H   0  0  0  0  0  0  0  0  0  0  0  0
   37.2630   27.6600   40.8980 H   0  0  0  0  0  0  0  0  0  0  0  0
   35.7050   28.5770   41.2550 H   0  0  0  0  0  0  0  0  0  0  0  0
   36.0930   26.7570   42.7410 H   0  0  0  0  0  0  0  0  0  0  0  0
   36.2670   28.3350   43.6920 H   0  0  0  0  0  0  0  0  0  0  0  0
   38.1060   26.7420   44.2020 H   0  0  0  0  0  0  0  0  0  0  0  0
   38.3290   26.4460   42.4580 H   0  0  0  0  0  0  0  0  0  0  0  0
   39.2650   28.7110   44.2010 H   0  0  0  0  0  0  0  0  0  0  0  0
   40.0960   27.8170   42.9280 H   0  0  0  0  0  0  0  0  0  0  0  0
   39.2520   30.3630   42.6450 H   0  0  0  0  0  0  0  0  0  0  0  0
   36.9460   31.1280   38.3350 C   0  0  0  0  0  0  0  0  0  0  0  0
   37.0170   30.2460   39.4180 C   0  0  0  0  0  0  0  0  0  0  0  0
   37.4140   30.6190   40.7060 C   0  0  0  0  0  0  0  0  0  0  0  0
   37.7360   31.9040   40.8580 N   0  0  0  0  0  0  0  0  0  0  0  0
   37.6750   32.7760   39.8190 C   0  0  0  0  0  0  0  0  0  0  0  0
   37.2970   32.4230   38.5930 N   0  0  0  0  0  0  0  0  0  0  0  0
   36.6320   30.7710   37.3750 H   0  0  0  0  0  0  0  0  0  0  0  0
   36.7380   29.2210   39.2080 H   0  0  0  0  0  0  0  0  0  0  0  0
   37.9640   33.7980   40.0760 H   0  0  0  0  0  0  0  0  0  0  0  0
   39.7860   29.2450   40.9950 C   0  0  0  0  0  0  0  0  0  0  0  0
   39.7470   28.1960   40.0650 C   0  0  0  0  0  0  0  0  0  0  0  0
   40.6620   28.2820   39.0120 C   0  0  0  0  0  0  0  0  0  0  0  0
   41.5120   29.3660   38.9750 C   0  0  0  0  0  0  0  0  0  0  0  0
   41.5340   30.3860   39.9000 C   0  0  0  0  0  0  0  0  0  0  0  0
   40.6400   30.3000   40.9260 N   0  0  0  0  0  0  0  0  0  0  0  0
   39.0350   27.4360   40.2330 H   0  0  0  0  0  0  0  0  0  0  0  0
   40.6470   27.4860   38.2870 H   0  0  0  0  0  0  0  0  0  0  0  0
   42.1950   29.3630   38.1250 H   0  0  0  0  0  0  0  0  0  0  0  0
   42.4730   31.5100   39.7760 C   0  0  0  0  0  0  0  0  0  0  0  0
   42.9880   31.9690   40.8300 O   0  0  0  0  0  0  0  0  0  0  0  0
   42.7950   32.0710   38.5070 N   0  0  0  0  0  0  0  0  0  0  0  0
   43.7400   31.8110   38.1490 H   0  0  0  0  0  0  0  0  0  0  0  0
   41.5470   33.0610   37.8400 S   0  0  0  0  0  0  0  0  0  0  0  0
   40.5320   32.2490   37.0950 O   0  0  0  0  0  1  0  0  0  0  0  0
   40.8920   33.9380   38.8710 O   0  0  0  0  0  1  0  0  0  0  0  0
   42.3120   34.1180   36.7480 O   0  0  0  0  0  0  0  0  0  0  0  0
   42.6270   34.9330   37.2160 H   0  0  0  0  0  0  0  0  0  0  0  0
  1  6  1  0  0  0  0
  1  7  1  1  0  0  0
  2  1  1  0  0  0  0
  2  3  1  0  0  0  0
  3  4  1  0  0  0  0
  3 11  1  0  0  0  0
  4 12  1  0  0  0  0
  5  4  1  0  0  0  0
  5 14  1  0  0  0  0
  6 16  1  1  0  0  0
  6  5  1  0  0  0  0
  8  2  1  0  0  0  0
  9  2  1  0  0  0  0
 10  3  1  0  0  0  0
 13  4  1  0  0  0  0
 15  5  1  0  0  0  0
 17 22  2  0  0  0  0
 17 18  1  0  0  0  0
 18 19  2  0  0  0  0
 19 20  1  0  0  0  0
 19  1  1  0  0  0  0
 21 25  1  0  0  0  0
 21 20  2  0  0  0  0
 22 21  1  0  0  0  0
 23 17  1  0  0  0  0
 24 18  1  0  0  0  0
 26  6  1  0  0  0  0
 27 32  1  0  0  0  0
 27 26  2  0  0  0  0
 28 27  1  0  0  0  0
 29 28  2  0  0  0  0
 29 30  1  0  0  0  0
 30 31  2  0  0  0  0
 31 26  1  0  0  0  0
 33 28  1  0  0  0  0
 34 29  1  0  0  0  0
 35 30  1  0  0  0  0
 35 36  2  0  0  0  0
 37 35  1  0  0  0  0
 38 37  1  0  0  0  0
 39 37  1  0  0  0  0
 39 41  1  0  0  0  0
 40 39  1  0  0  0  0
 42 43  1  0  0  0  0
 42 39  1  0  0  0  0
M  END
>  <minimizedAffinity>
-5.90519953

$$$$

 OpenBabel03242516553D

 43 45  0  0  1  0  0  0  0  0999 V2000
   36.9520   28.4280   39.3720 C   0  0  1  0  0  0  0  0  0  0  0  0
   35.4930   28.4920   39.4370 C   0  0  0  0  0  0  0  0  0  0  0  0
   34.9850   28.0640   38.0630 C   0  0  0  0  0  0  0  0  0  0  0  0
   35.3510   29.1860   37.0990 C   0  0  0  0  0  0  0  0  0  0  0  0
   36.8040   29.5500   37.1050 C   0  0  0  0  0  0  0  0  0  0  0  0
   37.5290   29.4410   38.3780 C   0  0  1  0  0  0  0  0  0  0  0  0
   37.2490   27.4390   38.9050 H   0  0  0  0  0  0  0  0  0  0  0  0
   35.0910   29.5290   39.5670 H   0  0  0  0  0  0  0  0  0  0  0  0
   35.0950   27.7860   40.1630 H   0  0  0  0  0  0  0  0  0  0  0  0
   33.8690   28.0910   38.1450 H   0  0  0  0  0  0  0  0  0  0  0  0
   35.3820   27.0950   37.7640 H   0  0  0  0  0  0  0  0  0  0  0  0
   35.0190   28.8990   36.0930 H   0  0  0  0  0  0  0  0  0  0  0  0
   34.7380   30.0630   37.4140 H   0  0  0  0  0  0  0  0  0  0  0  0
   37.2950   28.9660   36.2730 H   0  0  0  0  0  0  0  0  0  0  0  0
   36.8580   30.6050   36.7570 H   0  0  0  0  0  0  0  0  0  0  0  0
   38.5670   29.0510   38.1500 H   0  0  0  0  0  0  0  0  0  0  0  0
   37.6380   29.0230   43.0410 C   0  0  0  0  0  0  0  0  0  0  0  0
   37.0150   28.9070   41.7940 C   0  0  0  0  0  0  0  0  0  0  0  0
   37.6740   28.5150   40.6240 C   0  0  0  0  0  0  0  0  0  0  0  0
   38.9730   28.2470   40.7580 N   0  0  0  0  0  0  0  0  0  0  0  0
   39.5960   28.3540   41.9610 C   0  0  0  0  0  0  0  0  0  0  0  0
   38.9710   28.7260   43.0740 N   0  0  0  0  0  0  0  0  0  0  0  0
   37.0700   29.3290   43.8960 H   0  0  0  0  0  0  0  0  0  0  0  0
   35.9590   29.1430   41.7730 H   0  0  0  0  0  0  0  0  0  0  0  0
   40.6600   28.1060   41.9350 H   0  0  0  0  0  0  0  0  0  0  0  0
   37.7550   30.7440   39.0050 C   0  0  0  0  0  0  0  0  0  0  0  0
   36.7630   31.6320   39.4480 C   0  0  0  0  0  0  0  0  0  0  0  0
   37.2220   32.8150   40.0330 C   0  0  0  0  0  0  0  0  0  0  0  0
   38.5830   33.0100   40.1240 C   0  0  0  0  0  0  0  0  0  0  0  0
   39.5410   32.1250   39.6810 C   0  0  0  0  0  0  0  0  0  0  0  0
   39.0900   30.9720   39.1110 N   0  0  0  0  0  0  0  0  0  0  0  0
   35.7600   31.3360   39.3060 H   0  0  0  0  0  0  0  0  0  0  0  0
   36.4760   33.5090   40.3800 H   0  0  0  0  0  0  0  0  0  0  0  0
   38.8630   33.9550   40.5920 H   0  0  0  0  0  0  0  0  0  0  0  0
   40.9740   32.4140   39.8270 C   0  0  0  0  0  0  0  0  0  0  0  0
   41.3270   33.2120   40.7350 O   0  0  0  0  0  0  0  0  0  0  0  0
   41.9430   31.8170   38.9690 N   0  0  0  0  0  0  0  0  0  0  0  0
   42.4980   31.0540   39.4140 H   0  0  0  0  0  0  0  0  0  0  0  0
   41.9840   32.4910   37.3800 S   0  0  0  0  0  0  0  0  0  0  0  0
   42.3140   33.9530   37.4040 O   0  0  0  0  0  1  0  0  0  0  0  0
   42.9040   31.7410   36.4570 O   0  0  0  0  0  1  0  0  0  0  0  0
   40.4210   32.2940   36.7400 O   0  0  0  0  0  0  0  0  0  0  0  0
   40.3350   31.4100   36.2990 H   0  0  0  0  0  0  0  0  0  0  0  0
  1  7  1  6  0  0  0
  1  2  1  0  0  0  0
  1 19  1  0  0  0  0
  2  8  1  0  0  0  0
  2  9  1  0  0  0  0
  3 10  1  0  0  0  0
  3  2  1  0  0  0  0
  4  5  1  0  0  0  0
  4 13  1  0  0  0  0
  4  3  1  0  0  0  0
  5  6  1  0  0  0  0
  6 16  1  6  0  0  0
  6 26  1  0  0  0  0
  6  1  1  0  0  0  0
 11  3  1  0  0  0  0
 12  4  1  0  0  0  0
 14  5  1  0  0  0  0
 15  5  1  0  0  0  0
 17 22  1  0  0  0  0
 17 23  1  0  0  0  0
 18 17  2  0  0  0  0
 19 20  2  0  0  0  0
 19 18  1  0  0  0  0
 20 21  1  0  0  0  0
 21 22  2  0  0  0  0
 24 18  1  0  0  0  0
 25 21  1  0  0  0  0
 26 31  2  0  0  0  0
 26 27  1  0  0  0  0
 27 28  2  0  0  0  0
 28 29  1  0  0  0  0
 28 33  1  0  0  0  0
 29 34  1  0  0  0  0
 30 35  1  0  0  0  0
 30 29  2  0  0  0  0
 31 30  1  0  0  0  0
 32 27  1  0  0  0  0
 35 36  2  0  0  0  0
 37 38  1  0  0  0  0
 37 35  1  0  0  0  0
 39 40  1  0  0  0  0
 39 37  1  0  0  0  0
 41 39  1  0  0  0  0
 42 39  1  0  0  0  0
 43 42  1  0  0  0  0
M  END
>  <minimizedAffinity>
-5.86322832

$$$$

 OpenBabel03242516553D

 43 45  0  0  1  0  0  0  0  0999 V2000
   38.0120   26.0260   41.0840 C   0  0  1  0  0  0  0  0  0  0  0  0
   36.8100   25.3170   41.5230 C   0  0  0  0  0  0  0  0  0  0  0  0
   36.8370   23.9600   40.8260 C   0  0  0  0  0  0  0  0  0  0  0  0
   36.5770   24.2270   39.3480 C   0  0  0  0  0  0  0  0  0  0  0  0
   37.5080   25.2270   38.7330 C   0  0  0  0  0  0  0  0  0  0  0  0
   37.9870   26.3250   39.5820 C   0  0  1  0  0  0  0  0  0  0  0  0
   38.8980   25.3240   41.1730 H   0  0  0  0  0  0  0  0  0  0  0  0
   35.8560   25.7850   41.1730 H   0  0  0  0  0  0  0  0  0  0  0  0
   36.8270   25.1300   42.5950 H   0  0  0  0  0  0  0  0  0  0  0  0
   35.9280   23.4240   41.1980 H   0  0  0  0  0  0  0  0  0  0  0  0
   37.7690   23.4250   41.0070 H   0  0  0  0  0  0  0  0  0  0  0  0
   36.6120   23.2710   38.8120 H   0  0  0  0  0  0  0  0  0  0  0  0
   35.5270   24.6010   39.2920 H   0  0  0  0  0  0  0  0  0  0  0  0
   38.3510   24.6450   38.2580 H   0  0  0  0  0  0  0  0  0  0  0  0
   36.9630   25.6620   37.8660 H   0  0  0  0  0  0  0  0  0  0  0  0
   39.0700   26.5180   39.3170 H   0  0  0  0  0  0  0  0  0  0  0  0
   37.6860   29.0610   43.3120 C   0  0  0  0  0  0  0  0  0  0  0  0
   37.4220   27.8950   42.5860 C   0  0  0  0  0  0  0  0  0  0  0  0
   38.3730   27.2250   41.8100 C   0  0  0  0  0  0  0  0  0  0  0  0
   39.5900   27.7700   41.7950 N   0  0  0  0  0  0  0  0  0  0  0  0
   39.8660   28.9020   42.4930 C   0  0  0  0  0  0  0  0  0  0  0  0
   38.9630   29.5410   43.2310 N   0  0  0  0  0  0  0  0  0  0  0  0
   36.9070   29.5220   43.8850 H   0  0  0  0  0  0  0  0  0  0  0  0
   36.4090   27.5200   42.6540 H   0  0  0  0  0  0  0  0  0  0  0  0
   40.8990   29.2450   42.3960 H   0  0  0  0  0  0  0  0  0  0  0  0
   37.3070   27.5890   39.2950 C   0  0  0  0  0  0  0  0  0  0  0  0
   35.9350   27.8410   39.4390 C   0  0  0  0  0  0  0  0  0  0  0  0
   35.5170   29.1360   39.1180 C   0  0  0  0  0  0  0  0  0  0  0  0
   36.4660   30.0400   38.6940 C   0  0  0  0  0  0  0  0  0  0  0  0
   37.8100   29.7710   38.5590 C   0  0  0  0  0  0  0  0  0  0  0  0
   38.2140   28.5080   38.8720 N   0  0  0  0  0  0  0  0  0  0  0  0
   35.3360   27.0410   39.7760 H   0  0  0  0  0  0  0  0  0  0  0  0
   34.4660   29.3490   39.2240 H   0  0  0  0  0  0  0  0  0  0  0  0
   36.0630   31.0270   38.4640 H   0  0  0  0  0  0  0  0  0  0  0  0
   38.7530   30.8030   38.1050 C   0  0  0  0  0  0  0  0  0  0  0  0
   39.8650   30.4270   37.6490 O   0  0  0  0  0  0  0  0  0  0  0  0
   38.4290   32.1880   38.1770 N   0  0  0  0  0  0  0  0  0  0  0  0
   38.1900   32.6220   37.2580 H   0  0  0  0  0  0  0  0  0  0  0  0
   38.5040   32.8450   39.7720 S   0  0  0  0  0  0  0  0  0  0  0  0
   39.0840   31.8680   40.7490 O   0  0  0  0  0  1  0  0  0  0  0  0
   39.2300   34.1610   39.8220 O   0  0  0  0  0  1  0  0  0  0  0  0
   36.8990   33.1810   40.2230 O   0  0  0  0  0  0  0  0  0  0  0  0
   36.6370   34.0900   39.9240 H   0  0  0  0  0  0  0  0  0  0  0  0
  1  7  1  1  0  0  0
  1  2  1  0  0  0  0
  1 19  1  0  0  0  0
  2  9  1  0  0  0  0
  3 11  1  0  0  0  0
  3 10  1  0  0  0  0
  3  2  1  0  0  0  0
  4  3  1  0  0  0  0
  5  4  1  0  0  0  0
  5  6  1  0  0  0  0
  6 16  1  6  0  0  0
  6  1  1  0  0  0  0
  8  2  1  0  0  0  0
 12  4  1  0  0  0  0
 13  4  1  0  0  0  0
 14  5  1  0  0  0  0
 15  5  1  0  0  0  0
 17 23  1  0  0  0  0
 18 24  1  0  0  0  0
 18 17  2  0  0  0  0
 19 18  1  0  0  0  0
 20 19  2  0  0  0  0
 20 21  1  0  0  0  0
 21 22  2  0  0  0  0
 22 17  1  0  0  0  0
 25 21  1  0  0  0  0
 26 27  1  0  0  0  0
 26  6  1  0  0  0  0
 27 32  1  0  0  0  0
 28 33  1  0  0  0  0
 28 27  2  0  0  0  0
 29 28  1  0  0  0  0
 30 29  2  0  0  0  0
 30 31  1  0  0  0  0
 31 26  2  0  0  0  0
 34 29  1  0  0  0  0
 35 37  1  0  0  0  0
 35 30  1  0  0  0  0
 36 35  2  0  0  0  0
 37 39  1  0  0  0  0
 38 37  1  0  0  0  0
 39 41  1  0  0  0  0
 39 42  1  0  0  0  0
 39 40  1  0  0  0  0
 43 42  1  0  0  0  0
M  END
>  <minimizedAffinity>
-5.82883406

$$$$

 OpenBabel03242516553D

 43 45  0  0  1  0  0  0  0  0999 V2000
   38.0690   27.3110   40.4580 C   0  0  1  0  0  0  0  0  0  0  0  0
   38.5760   26.4040   41.4870 C   0  0  0  0  0  0  0  0  0  0  0  0
   37.3510   25.8150   42.1790 C   0  0  0  0  0  0  0  0  0  0  0  0
   36.7200   26.9480   42.9790 C   0  0  0  0  0  0  0  0  0  0  0  0
   36.4130   28.1720   42.1720 C   0  0  0  0  0  0  0  0  0  0  0  0
   37.3160   28.5010   41.0620 C   0  0  1  0  0  0  0  0  0  0  0  0
   37.2510   26.7800   39.8800 H   0  0  0  0  0  0  0  0  0  0  0  0
   39.1340   26.9190   42.3090 H   0  0  0  0  0  0  0  0  0  0  0  0
   39.1290   25.5750   41.0490 H   0  0  0  0  0  0  0  0  0  0  0  0
   37.7600   25.1030   42.9390 H   0  0  0  0  0  0  0  0  0  0  0  0
   36.6620   25.3560   41.4720 H   0  0  0  0  0  0  0  0  0  0  0  0
   35.8200   26.5630   43.4740 H   0  0  0  0  0  0  0  0  0  0  0  0
   37.4590   27.1960   43.7790 H   0  0  0  0  0  0  0  0  0  0  0  0
   35.3350   28.0910   41.8470 H   0  0  0  0  0  0  0  0  0  0  0  0
   36.4110   29.0220   42.8900 H   0  0  0  0  0  0  0  0  0  0  0  0
   36.6850   28.8940   40.2090 H   0  0  0  0  0  0  0  0  0  0  0  0
   41.3700   28.1640   38.8280 C   0  0  0  0  0  0  0  0  0  0  0  0
   40.3900   27.7220   39.7220 C   0  0  0  0  0  0  0  0  0  0  0  0
   39.0160   27.7870   39.4720 C   0  0  0  0  0  0  0  0  0  0  0  0
   38.6700   28.3120   38.2960 N   0  0  0  0  0  0  0  0  0  0  0  0
   39.6060   28.7490   37.4140 C   0  0  0  0  0  0  0  0  0  0  0  0
   40.9140   28.6870   37.6500 N   0  0  0  0  0  0  0  0  0  0  0  0
   42.4060   28.0830   39.0860 H   0  0  0  0  0  0  0  0  0  0  0  0
   40.7570   27.3090   40.6530 H   0  0  0  0  0  0  0  0  0  0  0  0
   39.1910   29.1570   36.4890 H   0  0  0  0  0  0  0  0  0  0  0  0
   38.2220   29.6030   41.3870 C   0  0  0  0  0  0  0  0  0  0  0  0
   39.1480   29.6290   42.4410 C   0  0  0  0  0  0  0  0  0  0  0  0
   39.9200   30.7890   42.5450 C   0  0  0  0  0  0  0  0  0  0  0  0
   39.7120   31.7930   41.6250 C   0  0  0  0  0  0  0  0  0  0  0  0
   38.7960   31.7480   40.5970 C   0  0  0  0  0  0  0  0  0  0  0  0
   38.0450   30.6160   40.4990 N   0  0  0  0  0  0  0  0  0  0  0  0
   39.1870   28.7770   43.0620 H   0  0  0  0  0  0  0  0  0  0  0  0
   40.6380   30.8270   43.3470 H   0  0  0  0  0  0  0  0  0  0  0  0
   40.3520   32.6650   41.7710 H   0  0  0  0  0  0  0  0  0  0  0  0
   38.6480   32.8670   39.6560 C   0  0  0  0  0  0  0  0  0  0  0  0
   37.5050   33.0910   39.1790 O   0  0  0  0  0  0  0  0  0  0  0  0
   39.7600   33.6790   39.2870 N   0  0  0  0  0  0  0  0  0  0  0  0
   39.7680   34.6230   39.7300 H   0  0  0  0  0  0  0  0  0  0  0  0
   40.8500   32.9180   38.1850 S   0  0  0  0  0  0  0  0  0  0  0  0
   41.8250   33.8950   37.6030 O   0  0  0  0  0  1  0  0  0  0  0  0
   41.5580   31.7390   38.7940 O   0  0  0  0  0  1  0  0  0  0  0  0
   39.8920   32.2860   36.9290 O   0  0  0  0  0  0  0  0  0  0  0  0
   39.5770   31.3740   37.1570 H   0  0  0  0  0  0  0  0  0  0  0  0
  1  7  1  6  0  0  0
  1  6  1  0  0  0  0
  1  2  1  0  0  0  0
  2  3  1  0  0  0  0
  2  8  1  0  0  0  0
  3 10  1  0  0  0  0
  3  4  1  0  0  0  0
  4 12  1  0  0  0  0
  4 13  1  0  0  0  0
  5 15  1  0  0  0  0
  5  4  1  0  0  0  0
  6 16  1  6  0  0  0
  6 26  1  0  0  0  0
  6  5  1  0  0  0  0
  9  2  1  0  0  0  0
 11  3  1  0  0  0  0
 14  5  1  0  0  0  0
 17 23  1  0  0  0  0
 17 18  1  0  0  0  0
 18 24  1  0  0  0  0
 19 18  2  0  0  0  0
 19  1  1  0  0  0  0
 20 19  1  0  0  0  0
 21 22  1  0  0  0  0
 21 20  2  0  0  0  0
 22 17  2  0  0  0  0
 25 21  1  0  0  0  0
 26 27  1  0  0  0  0
 27 28  2  0  0  0  0
 27 32  1  0  0  0  0
 28 33  1  0  0  0  0
 29 34  1  0  0  0  0
 29 28  1  0  0  0  0
 30 29  2  0  0  0  0
 31 30  1  0  0  0  0
 31 26  2  0  0  0  0
 35 30  1  0  0  0  0
 36 35  2  0  0  0  0
 37 35  1  0  0  0  0
 37 38  1  0  0  0  0
 39 41  1  0  0  0  0
 39 37  1  0  0  0  0
 40 39  1  0  0  0  0
 42 43  1  0  0  0  0
 42 39  1  0  0  0  0
M  END
>  <minimizedAffinity>
-5.80816317

$$$$

 OpenBabel03242516553D

 43 45  0  0  1  0  0  0  0  0999 V2000
   38.2850   30.5230   41.1930 C   0  0  1  0  0  0  0  0  0  0  0  0
   39.4800   30.7010   40.3690 C   0  0  0  0  0  0  0  0  0  0  0  0
   39.6880   32.2080   40.2390 C   0  0  0  0  0  0  0  0  0  0  0  0
   38.5600   32.7250   39.3540 C   0  0  0  0  0  0  0  0  0  0  0  0
   37.1890   32.3560   39.8310 C   0  0  0  0  0  0  0  0  0  0  0  0
   37.0270   31.0630   40.5070 C   0  0  1  0  0  0  0  0  0  0  0  0
   38.3700   31.1970   42.1010 H   0  0  0  0  0  0  0  0  0  0  0  0
   39.3570   30.3500   39.3130 H   0  0  0  0  0  0  0  0  0  0  0  0
   40.3640   30.2940   40.8550 H   0  0  0  0  0  0  0  0  0  0  0  0
   40.6210   32.3200   39.6320 H   0  0  0  0  0  0  0  0  0  0  0  0
   39.7310   32.7000   41.2090 H   0  0  0  0  0  0  0  0  0  0  0  0
   38.6670   33.8130   39.2570 H   0  0  0  0  0  0  0  0  0  0  0  0
   38.7440   32.2820   38.3460 H   0  0  0  0  0  0  0  0  0  0  0  0
   36.8100   33.2210   40.4490 H   0  0  0  0  0  0  0  0  0  0  0  0
   36.5360   32.3680   38.9300 H   0  0  0  0  0  0  0  0  0  0  0  0
   36.2870   31.2060   41.3520 H   0  0  0  0  0  0  0  0  0  0  0  0
   36.9730   27.7680   43.4220 C   0  0  0  0  0  0  0  0  0  0  0  0
   37.2650   29.0150   42.8610 C   0  0  0  0  0  0  0  0  0  0  0  0
   38.0270   29.1930   41.7020 C   0  0  0  0  0  0  0  0  0  0  0  0
   38.4800   28.0740   41.1360 N   0  0  0  0  0  0  0  0  0  0  0  0
   38.2090   26.8530   41.6650 C   0  0  0  0  0  0  0  0  0  0  0  0
   37.4840   26.6820   42.7670 N   0  0  0  0  0  0  0  0  0  0  0  0
   36.3820   27.7070   44.3130 H   0  0  0  0  0  0  0  0  0  0  0  0
   36.8570   29.8710   43.3840 H   0  0  0  0  0  0  0  0  0  0  0  0
   38.6390   26.0190   41.1060 H   0  0  0  0  0  0  0  0  0  0  0  0
   36.4090   30.0550   39.6440 C   0  0  0  0  0  0  0  0  0  0  0  0
   35.1730   29.4280   39.8590 C   0  0  0  0  0  0  0  0  0  0  0  0
   34.7800   28.5060   38.8840 C   0  0  0  0  0  0  0  0  0  0  0  0
   35.6210   28.2930   37.8140 C   0  0  0  0  0  0  0  0  0  0  0  0
   36.8320   28.9200   37.6220 C   0  0  0  0  0  0  0  0  0  0  0  0
   37.2130   29.8170   38.5740 N   0  0  0  0  0  0  0  0  0  0  0  0
   34.6450   29.7010   40.7310 H   0  0  0  0  0  0  0  0  0  0  0  0
   33.8330   28.0150   39.0320 H   0  0  0  0  0  0  0  0  0  0  0  0
   35.2460   27.5620   37.0970 H   0  0  0  0  0  0  0  0  0  0  0  0
   37.6620   28.6340   36.4430 C   0  0  0  0  0  0  0  0  0  0  0  0
   38.9120   28.7140   36.5670 O   0  0  0  0  0  0  0  0  0  0  0  0
   37.0780   28.2780   35.1930 N   0  0  0  0  0  0  0  0  0  0  0  0
   37.1590   27.2650   34.9540 H   0  0  0  0  0  0  0  0  0  0  0  0
   36.3640   29.6030   34.3490 S   0  0  0  0  0  0  0  0  0  0  0  0
   36.6320   29.5340   32.8760 O   0  0  0  0  0  1  0  0  0  0  0  0
   34.8920   29.7410   34.6270 O   0  0  0  0  0  1  0  0  0  0  0  0
   37.0890   31.0100   34.9720 O   0  0  0  0  0  0  0  0  0  0  0  0
   36.5970   31.3300   35.7710 H   0  0  0  0  0  0  0  0  0  0  0  0
  1 19  1  0  0  0  0
  1  7  1  1  0  0  0
  2  9  1  0  0  0  0
  2  1  1  0  0  0  0
  3  2  1  0  0  0  0
  3 11  1  0  0  0  0
  4  5  1  0  0  0  0
  4  3  1  0  0  0  0
  5 14  1  0  0  0  0
  5  6  1  0  0  0  0
  6  1  1  0  0  0  0
  6 16  1  1  0  0  0
  8  2  1  0  0  0  0
 10  3  1  0  0  0  0
 12  4  1  0  0  0  0
 13  4  1  0  0  0  0
 15  5  1  0  0  0  0
 17 23  1  0  0  0  0
 18 24  1  0  0  0  0
 18 17  1  0  0  0  0
 19 18  2  0  0  0  0
 20 21  2  0  0  0  0
 20 19  1  0  0  0  0
 21 22  1  0  0  0  0
 22 17  2  0  0  0  0
 25 21  1  0  0  0  0
 26 27  1  0  0  0  0
 26  6  1  0  0  0  0
 27 32  1  0  0  0  0
 28 33  1  0  0  0  0
 28 27  2  0  0  0  0
 29 28  1  0  0  0  0
 30 29  2  0  0  0  0
 30 31  1  0  0  0  0
 31 26  2  0  0  0  0
 34 29  1  0  0  0  0
 35 36  2  0  0  0  0
 35 30  1  0  0  0  0
 37 35  1  0  0  0  0
 38 37  1  0  0  0  0
 39 41  1  0  0  0  0
 39 42  1  0  0  0  0
 39 37  1  0  0  0  0
 40 39  1  0  0  0  0
 42 43  1  0  0  0  0
M  END
>  <minimizedAffinity>
-5.66860485

$$$$
