
 OpenBabel03242516533D

 43 45  0  0  1  0  0  0  0  0999 V2000
   47.8220   32.8830   41.8590 C   0  0  1  0  0  0  0  0  0  0  0  0
   47.4990   32.1760   40.6200 C   0  0  0  0  0  0  0  0  0  0  0  0
   48.4950   32.6710   39.5740 C   0  0  0  0  0  0  0  0  0  0  0  0
   48.1190   34.1170   39.2710 C   0  0  0  0  0  0  0  0  0  0  0  0
   48.0450   34.9970   40.4810 C   0  0  0  0  0  0  0  0  0  0  0  0
   47.5870   34.3920   41.7380 C   0  0  1  0  0  0  0  0  0  0  0  0
   48.9420   32.8280   42.0240 H   0  0  0  0  0  0  0  0  0  0  0  0
   46.5000   32.4430   40.1940 H   0  0  0  0  0  0  0  0  0  0  0  0
   47.6470   31.1030   40.7240 H   0  0  0  0  0  0  0  0  0  0  0  0
   48.2500   32.0970   38.6460 H   0  0  0  0  0  0  0  0  0  0  0  0
   49.5260   32.5570   39.9040 H   0  0  0  0  0  0  0  0  0  0  0  0
   48.8320   34.5130   38.5360 H   0  0  0  0  0  0  0  0  0  0  0  0
   47.1210   34.0690   38.7740 H   0  0  0  0  0  0  0  0  0  0  0  0
   49.0470   35.5060   40.5820 H   0  0  0  0  0  0  0  0  0  0  0  0
   47.3520   35.8270   40.2160 H   0  0  0  0  0  0  0  0  0  0  0  0
   48.1990   34.8380   42.5790 H   0  0  0  0  0  0  0  0  0  0  0  0
   45.5010   30.9680   44.1450 C   0  0  0  0  0  0  0  0  0  0  0  0
   46.1500   31.4840   43.0190 C   0  0  0  0  0  0  0  0  0  0  0  0
   47.2100   32.3940   43.0760 C   0  0  0  0  0  0  0  0  0  0  0  0
   47.5870   32.7610   44.3020 N   0  0  0  0  0  0  0  0  0  0  0  0
   46.9680   32.2720   45.4070 C   0  0  0  0  0  0  0  0  0  0  0  0
   45.9600   31.4060   45.3550 N   0  0  0  0  0  0  0  0  0  0  0  0
   44.6940   30.2720   44.0250 H   0  0  0  0  0  0  0  0  0  0  0  0
   45.7820   31.1330   42.0630 H   0  0  0  0  0  0  0  0  0  0  0  0
   47.3720   32.6520   46.3490 H   0  0  0  0  0  0  0  0  0  0  0  0
   46.2050   34.7500   42.0590 C   0  0  0  0  0  0  0  0  0  0  0  0
   45.7570   35.3270   43.2570 C   0  0  0  0  0  0  0  0  0  0  0  0
   44.3880   35.5970   43.3290 C   0  0  0  0  0  0  0  0  0  0  0  0
   43.6050   35.2790   42.2400 C   0  0  0  0  0  0  0  0  0  0  0  0
   44.0650   34.7130   41.0720 C   0  0  0  0  0  0  0  0  0  0  0  0
   45.4000   34.4500   41.0060 N   0  0  0  0  0  0  0  0  0  0  0  0
   46.4850   35.5090   43.9990 H   0  0  0  0  0  0  0  0  0  0  0  0
   44.0250   36.0400   44.2400 H   0  0  0  0  0  0  0  0  0  0  0  0
   42.5490   35.5200   42.3710 H   0  0  0  0  0  0  0  0  0  0  0  0
   43.1550   34.4150   39.9580 C   0  0  0  0  0  0  0  0  0  0  0  0
   42.8830   35.3430   39.1510 O   0  0  0  0  0  0  0  0  0  0  0  0
   42.5890   33.1180   39.7880 N   0  0  0  0  0  0  0  0  0  0  0  0
   41.5830   33.0480   40.0560 H   0  0  0  0  0  0  0  0  0  0  0  0
   43.6970   31.9450   39.1720 S   0  0  0  0  0  0  0  0  0  0  0  0
   44.7860   32.5810   38.3620 O   0  0  0  0  0  1  0  0  0  0  0  0
   44.2650   31.0650   40.2520 O   0  0  0  0  0  1  0  0  0  0  0  0
   42.7910   30.9180   38.1640 O   0  0  0  0  0  0  0  0  0  0  0  0
   42.3910   30.1790   38.6880 H   0  0  0  0  0  0  0  0  0  0  0  0
  1  7  1  1  0  0  0
  1 19  1  0  0  0  0
  2  9  1  0  0  0  0
  2  1  1  0  0  0  0
  3 11  1  0  0  0  0
  3  2  1  0  0  0  0
  4  3  1  0  0  0  0
  4  5  1  0  0  0  0
  5 14  1  0  0  0  0
  5  6  1  0  0  0  0
  6  1  1  0  0  0  0
  6 26  1  0  0  0  0
  6 16  1  1  0  0  0
  8  2  1  0  0  0  0
 10  3  1  0  0  0  0
 12  4  1  0  0  0  0
 13  4  1  0  0  0  0
 15  5  1  0  0  0  0
 17 22  1  0  0  0  0
 18 19  1  0  0  0  0
 18 17  2  0  0  0  0
 19 20  2  0  0  0  0
 20 21  1  0  0  0  0
 21 25  1  0  0  0  0
 22 21  2  0  0  0  0
 23 17  1  0  0  0  0
 24 18  1  0  0  0  0
 26 27  1  0  0  0  0
 27 28  2  0  0  0  0
 27 32  1  0  0  0  0
 28 33  1  0  0  0  0
 29 34  1  0  0  0  0
 29 28  1  0  0  0  0
 30 29  2  0  0  0  0
 31 30  1  0  0  0  0
 31 26  2  0  0  0  0
 35 30  1  0  0  0  0
 36 35  2  0  0  0  0
 37 35  1  0  0  0  0
 37 38  1  0  0  0  0
 39 37  1  0  0  0  0
 39 41  1  0  0  0  0
 40 39  1  0  0  0  0
 42 43  1  0  0  0  0
 42 39  1  0  0  0  0
M  END
>  <minimizedAffinity>
-4.86545134

>  <minimizedRMSD>
0.900041342

$$$$
