
 OpenBabel03242516533D

 43 45  0  0  1  0  0  0  0  0999 V2000
   47.8580   32.9300   41.8170 C   0  0  1  0  0  0  0  0  0  0  0  0
   47.5620   32.1690   40.6030 C   0  0  0  0  0  0  0  0  0  0  0  0
   48.5810   32.6170   39.5590 C   0  0  0  0  0  0  0  0  0  0  0  0
   48.2150   34.0480   39.1840 C   0  0  0  0  0  0  0  0  0  0  0  0
   48.1150   34.9810   40.3520 C   0  0  0  0  0  0  0  0  0  0  0  0
   47.6290   34.4320   41.6240 C   0  0  1  0  0  0  0  0  0  0  0  0
   48.9750   32.8810   42.0090 H   0  0  0  0  0  0  0  0  0  0  0  0
   46.5730   32.4180   40.1440 H   0  0  0  0  0  0  0  0  0  0  0  0
   47.7060   31.1010   40.7570 H   0  0  0  0  0  0  0  0  0  0  0  0
   48.3560   32.0030   38.6510 H   0  0  0  0  0  0  0  0  0  0  0  0
   49.6050   32.5170   39.9160 H   0  0  0  0  0  0  0  0  0  0  0  0
   48.9440   34.4110   38.4490 H   0  0  0  0  0  0  0  0  0  0  0  0
   47.2280   33.9790   38.6680 H   0  0  0  0  0  0  0  0  0  0  0  0
   49.1160   35.4930   40.4530 H   0  0  0  0  0  0  0  0  0  0  0  0
   47.4300   35.7990   40.0350 H   0  0  0  0  0  0  0  0  0  0  0  0
   48.2240   34.9150   42.4580 H   0  0  0  0  0  0  0  0  0  0  0  0
   45.5260   31.0720   44.1380 C   0  0  0  0  0  0  0  0  0  0  0  0
   46.1990   31.5410   43.0050 C   0  0  0  0  0  0  0  0  0  0  0  0
   47.2190   32.4950   43.0410 C   0  0  0  0  0  0  0  0  0  0  0  0
   47.5330   32.9560   44.2520 N   0  0  0  0  0  0  0  0  0  0  0  0
   46.8920   32.5140   45.3640 C   0  0  0  0  0  0  0  0  0  0  0  0
   45.9210   31.6050   45.3320 N   0  0  0  0  0  0  0  0  0  0  0  0
   44.7530   30.3380   44.0350 H   0  0  0  0  0  0  0  0  0  0  0  0
   45.8820   31.1140   42.0620 H   0  0  0  0  0  0  0  0  0  0  0  0
   47.2430   32.9700   46.2930 H   0  0  0  0  0  0  0  0  0  0  0  0
   46.2410   34.8050   41.8990 C   0  0  0  0  0  0  0  0  0  0  0  0
   45.7870   35.5550   42.9940 C   0  0  0  0  0  0  0  0  0  0  0  0
   44.4120   35.8010   43.0360 C   0  0  0  0  0  0  0  0  0  0  0  0
   43.6300   35.2970   42.0200 C   0  0  0  0  0  0  0  0  0  0  0  0
   44.0960   34.5630   40.9520 C   0  0  0  0  0  0  0  0  0  0  0  0
   45.4370   34.3240   40.9150 N   0  0  0  0  0  0  0  0  0  0  0  0
   46.5150   35.8690   43.6910 H   0  0  0  0  0  0  0  0  0  0  0  0
   44.0450   36.3760   43.8700 H   0  0  0  0  0  0  0  0  0  0  0  0
   42.5690   35.5320   42.1220 H   0  0  0  0  0  0  0  0  0  0  0  0
   43.1860   34.0710   39.9090 C   0  0  0  0  0  0  0  0  0  0  0  0
   43.0280   34.7790   38.8790 O   0  0  0  0  0  0  0  0  0  0  0  0
   42.4960   32.8320   40.0490 N   0  0  0  0  0  0  0  0  0  0  0  0
   42.4960   32.4470   41.0190 H   0  0  0  0  0  0  0  0  0  0  0  0
   41.8110   32.2400   38.5790 S   0  0  0  0  0  0  0  0  0  0  0  0
   40.7710   33.1730   38.0350 O   0  0  0  0  0  1  0  0  0  0  0  0
   42.8530   31.9240   37.5420 O   0  0  0  0  0  1  0  0  0  0  0  0
   41.0720   30.7570   38.9620 O   0  0  0  0  0  0  0  0  0  0  0  0
   41.7230   30.0150   38.8890 H   0  0  0  0  0  0  0  0  0  0  0  0
  1  7  1  1  0  0  0
  1 19  1  0  0  0  0
  2  9  1  0  0  0  0
  2  1  1  0  0  0  0
  3 11  1  0  0  0  0
  3  2  1  0  0  0  0
  4  3  1  0  0  0  0
  4  5  1  0  0  0  0
  5 14  1  0  0  0  0
  5  6  1  0  0  0  0
  6  1  1  0  0  0  0
  6 26  1  0  0  0  0
  6 16  1  1  0  0  0
  8  2  1  0  0  0  0
 10  3  1  0  0  0  0
 12  4  1  0  0  0  0
 13  4  1  0  0  0  0
 15  5  1  0  0  0  0
 17 22  1  0  0  0  0
 18 19  1  0  0  0  0
 18 17  2  0  0  0  0
 19 20  2  0  0  0  0
 20 21  1  0  0  0  0
 21 25  1  0  0  0  0
 22 21  2  0  0  0  0
 23 17  1  0  0  0  0
 24 18  1  0  0  0  0
 26 27  1  0  0  0  0
 27 28  2  0  0  0  0
 27 32  1  0  0  0  0
 28 33  1  0  0  0  0
 29 34  1  0  0  0  0
 29 28  1  0  0  0  0
 30 29  2  0  0  0  0
 31 30  1  0  0  0  0
 31 26  2  0  0  0  0
 35 37  1  0  0  0  0
 35 30  1  0  0  0  0
 36 35  2  0  0  0  0
 37 38  1  0  0  0  0
 39 42  1  0  0  0  0
 39 37  1  0  0  0  0
 40 39  1  0  0  0  0
 41 39  1  0  0  0  0
 43 42  1  0  0  0  0
M  END
>  <minimizedAffinity>
-5.20702457

>  <minimizedRMSD>
0.756719232

$$$$
