
 OpenBabel03252508003D

 27 28  0  0  1  0  0  0  0  0999 V2000
   46.3150   34.7670   43.2360 C   0  0  0  0  0  0  0  0  0  0  0  0
   45.3220   35.7440   43.5460 C   0  0  0  0  0  0  0  0  0  0  0  0
   44.6380   35.5490   44.7460 C   0  0  0  0  0  0  0  0  0  0  0  0
   44.9480   34.4790   45.5180 N   0  0  0  0  0  0  0  0  0  0  0  0
   45.9210   33.5830   45.1440 C   0  0  0  0  0  0  0  0  0  0  0  0
   46.6100   33.7030   44.0250 N   0  0  0  0  0  0  0  0  0  0  0  0
   45.1490   36.5590   42.8640 H   0  0  0  0  0  0  0  0  0  0  0  0
   43.8760   36.2640   45.0210 H   0  0  0  0  0  0  0  0  0  0  0  0
   46.2140   32.4290   46.0460 C   0  0  1  0  0  0  0  0  0  0  0  0
   47.0320   32.6690   47.2920 C   0  0  0  0  0  0  0  0  0  0  0  0
   45.5380   32.4940   47.3610 C   0  0  1  0  0  0  0  0  0  0  0  0
   46.3980   31.5000   45.4940 H   0  0  0  0  0  0  0  0  0  0  0  0
   47.6920   31.8490   47.5830 H   0  0  0  0  0  0  0  0  0  0  0  0
   47.5020   33.6590   47.3370 H   0  0  0  0  0  0  0  0  0  0  0  0
   45.1920   31.5340   47.7610 H   0  0  0  0  0  0  0  0  0  0  0  0
   44.8730   33.7350   47.7660 N   0  0  0  0  0  0  0  0  0  0  0  0
   43.8450   33.5830   47.7380 H   0  0  0  0  0  0  0  0  0  0  0  0
   45.1860   34.0290   48.7280 H   0  0  0  0  0  0  0  0  0  0  0  0
   47.0260   34.9800   41.9870 C   0  0  0  0  0  0  0  0  0  0  0  0
   48.1890   35.5140   41.9190 O   0  0  0  0  0  0  0  0  0  0  0  0
   46.3640   34.5590   40.7820 N   0  0  0  0  0  0  0  0  0  0  0  0
   45.5630   35.1300   40.3900 H   0  0  0  0  0  0  0  0  0  0  0  0
   46.8680   33.1170   39.9590 S   0  0  0  0  0  0  0  0  0  0  0  0
   46.8820   31.9880   40.9520 O   0  0  0  0  0  1  0  0  0  0  0  0
   48.2450   33.3630   39.3830 O   0  0  0  0  0  1  0  0  0  0  0  0
   45.7960   32.7580   38.7230 O   0  0  0  0  0  0  0  0  0  0  0  0
   45.0100   32.2450   39.0730 H   0  0  0  0  0  0  0  0  0  0  0  0
  1  2  2  0  0  0  0
  1  6  1  0  0  0  0
  2  3  1  0  0  0  0
  3  8  1  0  0  0  0
  3  4  2  0  0  0  0
  5  4  1  0  0  0  0
  5  9  1  0  0  0  0
  6  5  2  0  0  0  0
  7  2  1  0  0  0  0
  9 12  1  6  0  0  0
  9 10  1  0  0  0  0
  9 11  1  0  0  0  0
 10 14  1  0  0  0  0
 10 11  1  0  0  0  0
 10 13  1  0  0  0  0
 11 15  1  1  0  0  0
 11 16  1  0  0  0  0
 16 18  1  0  0  0  0
 17 16  1  0  0  0  0
 19  1  1  0  0  0  0
 20 19  2  0  0  0  0
 21 19  1  0  0  0  0
 22 21  1  0  0  0  0
 23 21  1  0  0  0  0
 23 24  1  0  0  0  0
 25 23  1  0  0  0  0
 26 27  1  0  0  0  0
 26 23  1  0  0  0  0
M  END
>  <minimizedAffinity>
-5.18312597

>  <minimizedRMSD>
0.125244513

$$$$
