
 OpenBabel03242515013D

 35 36  0  0  0  0  0  0  0  0999 V2000
   43.8250   34.5770   40.7870 S   0  0  0  0  0  0  0  0  0  0  0  0
   45.1860   34.4340   41.9540 C   0  0  0  0  0  0  0  0  0  0  0  0
   46.4750   34.5640   41.4400 C   0  0  0  0  0  0  0  0  0  0  0  0
   47.5510   34.4610   42.3100 C   0  0  0  0  0  0  0  0  0  0  0  0
   47.2980   34.2350   43.6310 N   0  0  0  0  0  0  0  0  0  0  0  0
   46.0530   34.1140   44.1010 C   0  0  0  0  0  0  0  0  0  0  0  0
   44.9990   34.2120   43.2730 N   0  0  0  0  0  0  0  0  0  0  0  0
   46.7220   34.7430   40.4010 H   0  0  0  0  0  0  0  0  0  0  0  0
   48.5670   34.5550   41.9510 H   0  0  0  0  0  0  0  0  0  0  0  0
   45.8660   33.8720   45.5330 C   0  0  0  0  0  0  0  0  0  0  0  0
   44.7900   34.2970   46.0580 O   0  0  0  0  0  0  0  0  0  0  0  0
   46.8950   33.1850   46.2300 N   0  0  0  0  0  0  0  0  0  0  0  0
   47.8870   33.2870   45.8990 H   0  0  0  0  0  0  0  0  0  0  0  0
   46.4550   32.2260   47.5810 S   0  0  0  0  0  0  0  0  0  0  0  0
   45.5720   31.0760   47.2420 O   0  0  0  0  0  1  0  0  0  0  0  0
   45.7450   33.0430   48.6390 O   0  0  0  0  0  1  0  0  0  0  0  0
   47.8900   31.6540   48.2850 O   0  0  0  0  0  0  0  0  0  0  0  0
   48.6190   31.6550   47.5940 H   0  0  0  0  0  0  0  0  0  0  0  0
   42.2520   34.8900   41.5890 C   0  0  0  0  0  0  0  0  0  0  0  0
   42.4580   35.3300   42.5960 H   0  0  0  0  0  0  0  0  0  0  0  0
   41.6670   33.9720   41.8050 H   0  0  0  0  0  0  0  0  0  0  0  0
   41.4120   35.8880   40.8570 C   0  0  0  0  0  0  0  0  0  0  0  0
   42.1090   36.5250   40.2380 H   0  0  0  0  0  0  0  0  0  0  0  0
   40.8790   36.6050   41.5170 H   0  0  0  0  0  0  0  0  0  0  0  0
   42.1050   36.0930   37.8940 Cl  0  0  0  0  0  0  0  0  0  0  0  0
   40.7130   35.2550   38.5240 C   0  0  0  0  0  0  0  0  0  0  0  0
   40.4840   35.2180   39.9050 C   0  0  0  0  0  0  0  0  0  0  0  0
   39.3630   34.5350   40.3170 C   0  0  0  0  0  0  0  0  0  0  0  0
   38.4440   33.8830   39.5090 C   0  0  0  0  0  0  0  0  0  0  0  0
   38.7000   33.9380   38.1390 C   0  0  0  0  0  0  0  0  0  0  0  0
   37.5960   33.1430   37.0230 Cl  0  0  0  0  0  0  0  0  0  0  0  0
   39.8050   34.6070   37.6750 C   0  0  0  0  0  0  0  0  0  0  0  0
   39.2230   34.5310   41.3940 H   0  0  0  0  0  0  0  0  0  0  0  0
   37.5940   33.3720   39.9220 H   0  0  0  0  0  0  0  0  0  0  0  0
   39.9530   34.6150   36.6020 H   0  0  0  0  0  0  0  0  0  0  0  0
  1 19  1  0  0  0  0
  1  2  1  0  0  0  0
  2  7  1  0  0  0  0
  3  2  2  0  0  0  0
  3  4  1  0  0  0  0
  4  5  2  0  0  0  0
  5  6  1  0  0  0  0
  6 10  1  0  0  0  0
  7  6  2  0  0  0  0
  8  3  1  0  0  0  0
  9  4  1  0  0  0  0
 10 11  2  0  0  0  0
 10 12  1  0  0  0  0
 12 14  1  0  0  0  0
 13 12  1  0  0  0  0
 14 17  1  0  0  0  0
 14 16  1  0  0  0  0
 15 14  1  0  0  0  0
 18 17  1  0  0  0  0
 19 21  1  0  0  0  0
 19 20  1  0  0  0  0
 22 24  1  0  0  0  0
 22 19  1  0  0  0  0
 23 22  1  0  0  0  0
 25 26  1  0  0  0  0
 26 27  1  0  0  0  0
 27 28  2  0  0  0  0
 27 22  1  0  0  0  0
 28 33  1  0  0  0  0
 29 34  1  0  0  0  0
 29 28  1  0  0  0  0
 30 29  2  0  0  0  0
 31 30  1  0  0  0  0
 32 30  1  0  0  0  0
 32 26  2  0  0  0  0
 35 32  1  0  0  0  0
M  END
>  <minimizedAffinity>
-6.52991009

>  <minimizedRMSD>
0.754917622

$$$$
