
 OpenBabel03242515013D

 35 36  0  0  0  0  0  0  0  0999 V2000
   43.7750   34.7470   40.8070 S   0  0  0  0  0  0  0  0  0  0  0  0
   45.0690   34.4670   42.0240 C   0  0  0  0  0  0  0  0  0  0  0  0
   46.3820   34.6900   41.6140 C   0  0  0  0  0  0  0  0  0  0  0  0
   47.4080   34.4850   42.5260 C   0  0  0  0  0  0  0  0  0  0  0  0
   47.0840   34.0730   43.7850 N   0  0  0  0  0  0  0  0  0  0  0  0
   45.8170   33.8670   44.1560 C   0  0  0  0  0  0  0  0  0  0  0  0
   44.8110   34.0600   43.2860 N   0  0  0  0  0  0  0  0  0  0  0  0
   46.6850   35.0160   40.6260 H   0  0  0  0  0  0  0  0  0  0  0  0
   48.4400   34.6470   42.2460 H   0  0  0  0  0  0  0  0  0  0  0  0
   45.5540   33.4250   45.5270 C   0  0  0  0  0  0  0  0  0  0  0  0
   45.0710   34.2840   46.3310 O   0  0  0  0  0  0  0  0  0  0  0  0
   45.8540   32.0780   45.8610 N   0  0  0  0  0  0  0  0  0  0  0  0
   46.0220   31.3890   45.0850 H   0  0  0  0  0  0  0  0  0  0  0  0
   45.9260   31.6530   47.5200 S   0  0  0  0  0  0  0  0  0  0  0  0
   44.6290   31.8020   48.2380 O   0  0  0  0  0  1  0  0  0  0  0  0
   46.9530   32.4810   48.2650 O   0  0  0  0  0  1  0  0  0  0  0  0
   46.4430   30.0380   47.6080 O   0  0  0  0  0  0  0  0  0  0  0  0
   46.2270   29.5760   46.7420 H   0  0  0  0  0  0  0  0  0  0  0  0
   42.1550   34.9500   41.5480 C   0  0  0  0  0  0  0  0  0  0  0  0
   42.2940   35.3660   42.5770 H   0  0  0  0  0  0  0  0  0  0  0  0
   41.6120   33.9950   41.7110 H   0  0  0  0  0  0  0  0  0  0  0  0
   41.2940   35.9250   40.8120 C   0  0  0  0  0  0  0  0  0  0  0  0
   41.9770   36.5850   40.2030 H   0  0  0  0  0  0  0  0  0  0  0  0
   40.7310   36.6220   41.4680 H   0  0  0  0  0  0  0  0  0  0  0  0
   42.0490   36.1110   37.8620 Cl  0  0  0  0  0  0  0  0  0  0  0  0
   40.6560   35.2570   38.4700 C   0  0  0  0  0  0  0  0  0  0  0  0
   40.3980   35.2310   39.8460 C   0  0  0  0  0  0  0  0  0  0  0  0
   39.2780   34.5350   40.2410 C   0  0  0  0  0  0  0  0  0  0  0  0
   38.3870   33.8610   39.4190 C   0  0  0  0  0  0  0  0  0  0  0  0
   38.6720   33.9060   38.0550 C   0  0  0  0  0  0  0  0  0  0  0  0
   37.6050   33.0830   36.9230 Cl  0  0  0  0  0  0  0  0  0  0  0  0
   39.7770   34.5870   37.6090 C   0  0  0  0  0  0  0  0  0  0  0  0
   39.1140   34.5390   41.3140 H   0  0  0  0  0  0  0  0  0  0  0  0
   37.5360   33.3420   39.8190 H   0  0  0  0  0  0  0  0  0  0  0  0
   39.9490   34.5870   36.5390 H   0  0  0  0  0  0  0  0  0  0  0  0
  1 19  1  0  0  0  0
  1  2  1  0  0  0  0
  2  7  1  0  0  0  0
  3  2  2  0  0  0  0
  3  4  1  0  0  0  0
  4  5  2  0  0  0  0
  5  6  1  0  0  0  0
  6 10  1  0  0  0  0
  7  6  2  0  0  0  0
  8  3  1  0  0  0  0
  9  4  1  0  0  0  0
 10 12  1  0  0  0  0
 10 11  2  0  0  0  0
 12 14  1  0  0  0  0
 13 12  1  0  0  0  0
 14 17  1  0  0  0  0
 14 15  1  0  0  0  0
 14 16  1  0  0  0  0
 18 17  1  0  0  0  0
 19 21  1  0  0  0  0
 19 20  1  0  0  0  0
 22 24  1  0  0  0  0
 22 19  1  0  0  0  0
 23 22  1  0  0  0  0
 25 26  1  0  0  0  0
 26 27  1  0  0  0  0
 27 28  2  0  0  0  0
 27 22  1  0  0  0  0
 28 33  1  0  0  0  0
 29 34  1  0  0  0  0
 29 28  1  0  0  0  0
 30 29  2  0  0  0  0
 31 30  1  0  0  0  0
 32 30  1  0  0  0  0
 32 26  2  0  0  0  0
 35 32  1  0  0  0  0
M  END
>  <minimizedAffinity>
-6.48556566

>  <minimizedRMSD>
0.874330521

$$$$
