
 OpenBabel03242515013D

 35 36  0  0  0  0  0  0  0  0999 V2000
   43.9450   34.9260   40.9080 S   0  0  0  0  0  0  0  0  0  0  0  0
   45.1530   34.5290   42.1790 C   0  0  0  0  0  0  0  0  0  0  0  0
   46.4960   34.5810   41.8130 C   0  0  0  0  0  0  0  0  0  0  0  0
   47.4580   34.2810   42.7670 C   0  0  0  0  0  0  0  0  0  0  0  0
   47.0440   33.9490   44.0240 N   0  0  0  0  0  0  0  0  0  0  0  0
   45.7500   33.9060   44.3520 C   0  0  0  0  0  0  0  0  0  0  0  0
   44.8040   34.1930   43.4400 N   0  0  0  0  0  0  0  0  0  0  0  0
   46.8700   34.8390   40.8290 H   0  0  0  0  0  0  0  0  0  0  0  0
   48.5110   34.3100   42.5220 H   0  0  0  0  0  0  0  0  0  0  0  0
   45.3880   33.5400   45.7230 C   0  0  0  0  0  0  0  0  0  0  0  0
   44.9050   34.4550   46.4610 O   0  0  0  0  0  0  0  0  0  0  0  0
   45.6010   32.1960   46.1300 N   0  0  0  0  0  0  0  0  0  0  0  0
   45.3110   31.4200   45.4850 H   0  0  0  0  0  0  0  0  0  0  0  0
   46.3230   31.9180   47.6590 S   0  0  0  0  0  0  0  0  0  0  0  0
   45.4390   32.2500   48.8130 O   0  0  0  0  0  1  0  0  0  0  0  0
   47.6010   32.7140   47.8270 O   0  0  0  0  0  1  0  0  0  0  0  0
   46.7550   30.2780   47.7270 O   0  0  0  0  0  0  0  0  0  0  0  0
   46.1840   29.7610   47.0820 H   0  0  0  0  0  0  0  0  0  0  0  0
   42.2540   34.7970   41.4910 C   0  0  0  0  0  0  0  0  0  0  0  0
   42.2480   35.0110   42.5890 H   0  0  0  0  0  0  0  0  0  0  0  0
   41.8270   33.7750   41.4090 H   0  0  0  0  0  0  0  0  0  0  0  0
   41.3400   35.7990   40.8610 C   0  0  0  0  0  0  0  0  0  0  0  0
   41.9830   36.5180   40.2740 H   0  0  0  0  0  0  0  0  0  0  0  0
   40.7900   36.4340   41.5870 H   0  0  0  0  0  0  0  0  0  0  0  0
   42.0790   36.0440   37.9120 Cl  0  0  0  0  0  0  0  0  0  0  0  0
   40.6710   35.2090   38.5070 C   0  0  0  0  0  0  0  0  0  0  0  0
   40.4210   35.1530   39.8840 C   0  0  0  0  0  0  0  0  0  0  0  0
   39.2880   34.4740   40.2690 C   0  0  0  0  0  0  0  0  0  0  0  0
   38.3740   33.8430   39.4370 C   0  0  0  0  0  0  0  0  0  0  0  0
   38.6510   33.9170   38.0720 C   0  0  0  0  0  0  0  0  0  0  0  0
   37.5570   33.1500   36.9280 Cl  0  0  0  0  0  0  0  0  0  0  0  0
   39.7700   34.5830   37.6360 C   0  0  0  0  0  0  0  0  0  0  0  0
   39.1320   34.4540   41.3440 H   0  0  0  0  0  0  0  0  0  0  0  0
   37.5140   33.3340   39.8300 H   0  0  0  0  0  0  0  0  0  0  0  0
   39.9340   34.6060   36.5650 H   0  0  0  0  0  0  0  0  0  0  0  0
  1 19  1  0  0  0  0
  1  2  1  0  0  0  0
  2  7  1  0  0  0  0
  3  2  2  0  0  0  0
  3  4  1  0  0  0  0
  4  5  2  0  0  0  0
  5  6  1  0  0  0  0
  6 10  1  0  0  0  0
  7  6  2  0  0  0  0
  8  3  1  0  0  0  0
  9  4  1  0  0  0  0
 10 12  1  0  0  0  0
 10 11  2  0  0  0  0
 12 14  1  0  0  0  0
 13 12  1  0  0  0  0
 14 17  1  0  0  0  0
 14 16  1  0  0  0  0
 14 15  1  0  0  0  0
 18 17  1  0  0  0  0
 19 20  1  0  0  0  0
 21 19  1  0  0  0  0
 22 19  1  0  0  0  0
 22 24  1  0  0  0  0
 23 22  1  0  0  0  0
 25 26  1  0  0  0  0
 26 27  1  0  0  0  0
 27 28  2  0  0  0  0
 27 22  1  0  0  0  0
 28 33  1  0  0  0  0
 29 34  1  0  0  0  0
 29 28  1  0  0  0  0
 30 29  2  0  0  0  0
 31 30  1  0  0  0  0
 32 30  1  0  0  0  0
 32 26  2  0  0  0  0
 35 32  1  0  0  0  0
M  END
>  <minimizedAffinity>
-6.50225067

>  <minimizedRMSD>
0.886302412

$$$$
