
 OpenBabel03252507373D

 36 39  0  0  0  0  0  0  0  0999 V2000
   45.4380   34.5130   44.1540 C   0  0  0  0  0  0  0  0  0  0  0  0
   46.2600   33.4870   44.6790 C   0  0  0  0  0  0  0  0  0  0  0  0
   46.1640   33.2250   46.0330 C   0  0  0  0  0  0  0  0  0  0  0  0
   45.3050   33.9460   46.7840 N   0  0  0  0  0  0  0  0  0  0  0  0
   44.5230   34.9290   46.2570 C   0  0  0  0  0  0  0  0  0  0  0  0
   44.5970   35.1990   44.9620 N   0  0  0  0  0  0  0  0  0  0  0  0
   46.9410   32.9110   44.1070 H   0  0  0  0  0  0  0  0  0  0  0  0
   43.8620   35.4510   46.9520 H   0  0  0  0  0  0  0  0  0  0  0  0
   47.3800   32.4890   48.0130 C   0  0  0  0  0  0  0  0  0  0  0  0
   46.9380   32.2050   46.7260 C   0  0  0  0  0  0  0  0  0  0  0  0
   47.2510   30.9810   46.1850 C   0  0  0  0  0  0  0  0  0  0  0  0
   47.9840   30.0350   46.8690 C   0  0  0  0  0  0  0  0  0  0  0  0
   48.4010   28.7880   46.5400 N   0  0  0  0  0  0  0  0  0  0  0  0
   49.1020   28.2950   47.6160 C   0  0  0  0  0  0  0  0  0  0  0  0
   49.1040   29.2310   48.5710 N   0  0  0  0  0  0  0  0  0  0  0  0
   48.4240   30.3090   48.1380 C   0  0  0  0  0  0  0  0  0  0  0  0
   48.1230   31.5280   48.7040 C   0  0  0  0  0  0  0  0  0  0  0  0
   47.2080   33.3930   48.5470 H   0  0  0  0  0  0  0  0  0  0  0  0
   46.9080   30.7610   45.1880 H   0  0  0  0  0  0  0  0  0  0  0  0
   48.1890   28.3440   45.6110 H   0  0  0  0  0  0  0  0  0  0  0  0
   49.5140   27.2930   47.5250 H   0  0  0  0  0  0  0  0  0  0  0  0
   48.4840   31.7130   49.7060 H   0  0  0  0  0  0  0  0  0  0  0  0
   45.5300   34.7820   42.7890 O   0  0  0  0  0  0  0  0  0  0  0  0
   44.4060   34.7090   41.9850 C   0  0  0  0  0  0  0  0  0  0  0  0
   44.2330   33.3700   41.8950 C   0  0  0  0  0  0  0  0  0  0  0  0
   42.6780   33.2630   40.7850 S   0  0  0  0  0  0  0  0  0  0  0  0
   42.6350   35.1480   40.7080 C   0  0  0  0  0  0  0  0  0  0  0  0
   43.5100   35.4070   41.3280 N   0  0  0  0  0  0  0  0  0  0  0  0
   44.5280   32.2820   42.1330 H   0  0  0  0  0  0  0  0  0  0  0  0
   41.5720   35.7270   39.9330 N   0  0  0  0  0  0  0  0  0  0  0  0
   40.8490   36.3720   40.3170 H   0  0  0  0  0  0  0  0  0  0  0  0
   41.5210   35.3080   38.2870 S   0  0  0  0  0  0  0  0  0  0  0  0
   42.7850   34.6580   37.8080 O   0  0  0  0  0  1  0  0  0  0  0  0
   40.3750   34.3400   38.0280 O   0  0  0  0  0  1  0  0  0  0  0  0
   41.2320   36.6310   37.2920 O   0  0  0  0  0  0  0  0  0  0  0  0
   40.7530   37.3570   37.7660 H   0  0  0  0  0  0  0  0  0  0  0  0
  1  2  2  0  0  0  0
  1  6  1  0  0  0  0
  2  3  1  0  0  0  0
  3 10  1  0  0  0  0
  3  4  2  0  0  0  0
  5  4  1  0  0  0  0
  5  8  1  0  0  0  0
  6  5  2  0  0  0  0
  7  2  1  0  0  0  0
  9 18  1  0  0  0  0
  9 17  1  0  0  0  0
 10  9  2  0  0  0  0
 11 10  1  0  0  0  0
 11 12  2  0  0  0  0
 12 16  1  0  0  0  0
 13 12  1  0  0  0  0
 13 14  1  0  0  0  0
 14 15  2  0  0  0  0
 16 15  1  0  0  0  0
 16 17  2  0  0  0  0
 17 22  1  0  0  0  0
 19 11  1  0  0  0  0
 20 13  1  0  0  0  0
 21 14  1  0  0  0  0
 23  1  1  0  0  0  0
 24 23  1  0  0  0  0
 25 24  2  0  0  0  0
 25 29  1  0  0  0  0
 26 25  1  0  0  0  0
 27 26  1  0  0  0  0
 27 28  2  0  0  0  0
 28 24  1  0  0  0  0
 30 31  1  0  0  0  0
 30 27  1  0  0  0  0
 32 30  1  0  0  0  0
 33 32  1  0  0  0  0
 34 32  1  0  0  0  0
 35 36  1  0  0  0  0
 35 32  1  0  0  0  0
M  END
>  <minimizedAffinity>
-5.61276436

>  <minimizedRMSD>
0.822844326

$$$$
