
 OpenBabel03252507373D

 36 39  0  0  0  0  0  0  0  0999 V2000
   45.5300   34.8220   43.5070 C   0  0  0  0  0  0  0  0  0  0  0  0
   46.2390   33.7470   44.0930 C   0  0  0  0  0  0  0  0  0  0  0  0
   46.0460   33.5180   45.4430 C   0  0  0  0  0  0  0  0  0  0  0  0
   45.2030   34.3160   46.1320 N   0  0  0  0  0  0  0  0  0  0  0  0
   44.5320   35.3450   45.5470 C   0  0  0  0  0  0  0  0  0  0  0  0
   44.7000   35.5850   44.2550 N   0  0  0  0  0  0  0  0  0  0  0  0
   46.9050   33.1100   43.5700 H   0  0  0  0  0  0  0  0  0  0  0  0
   43.8740   35.9290   46.1950 H   0  0  0  0  0  0  0  0  0  0  0  0
   47.0000   32.6950   47.5290 C   0  0  0  0  0  0  0  0  0  0  0  0
   46.6970   32.4540   46.1940 C   0  0  0  0  0  0  0  0  0  0  0  0
   47.0260   31.2290   45.6620 C   0  0  0  0  0  0  0  0  0  0  0  0
   47.6400   30.2420   46.4010 C   0  0  0  0  0  0  0  0  0  0  0  0
   48.0460   28.9870   46.0910 N   0  0  0  0  0  0  0  0  0  0  0  0
   48.6010   28.4450   47.2280 C   0  0  0  0  0  0  0  0  0  0  0  0
   48.5280   29.3600   48.1990 N   0  0  0  0  0  0  0  0  0  0  0  0
   47.9410   30.4730   47.7190 C   0  0  0  0  0  0  0  0  0  0  0  0
   47.6230   31.6910   48.2760 C   0  0  0  0  0  0  0  0  0  0  0  0
   46.8010   33.5940   48.0620 H   0  0  0  0  0  0  0  0  0  0  0  0
   46.7910   31.0440   44.6270 H   0  0  0  0  0  0  0  0  0  0  0  0
   47.9260   28.5700   45.1340 H   0  0  0  0  0  0  0  0  0  0  0  0
   48.9840   27.4300   47.1590 H   0  0  0  0  0  0  0  0  0  0  0  0
   47.8740   31.8410   49.3170 H   0  0  0  0  0  0  0  0  0  0  0  0
   45.7210   35.0580   42.1460 O   0  0  0  0  0  0  0  0  0  0  0  0
   44.6750   34.8920   41.2550 C   0  0  0  0  0  0  0  0  0  0  0  0
   45.1060   33.8280   40.5380 C   0  0  0  0  0  0  0  0  0  0  0  0
   43.6640   33.5920   39.3050 S   0  0  0  0  0  0  0  0  0  0  0  0
   42.7810   35.0620   40.0950 C   0  0  0  0  0  0  0  0  0  0  0  0
   43.5050   35.3500   40.8750 N   0  0  0  0  0  0  0  0  0  0  0  0
   45.8740   33.0060   40.2890 H   0  0  0  0  0  0  0  0  0  0  0  0
   41.5040   35.4110   39.5350 N   0  0  0  0  0  0  0  0  0  0  0  0
   41.2810   36.3340   39.1090 H   0  0  0  0  0  0  0  0  0  0  0  0
   40.3020   34.2110   39.5920 S   0  0  0  0  0  0  0  0  0  0  0  0
   40.4640   33.2700   40.7500 O   0  0  0  0  0  1  0  0  0  0  0  0
   38.9260   34.8530   39.7070 O   0  0  0  0  0  1  0  0  0  0  0  0
   40.2520   33.2790   38.1950 O   0  0  0  0  0  0  0  0  0  0  0  0
   40.6130   33.7630   37.4110 H   0  0  0  0  0  0  0  0  0  0  0  0
  1  2  2  0  0  0  0
  1  6  1  0  0  0  0
  2  3  1  0  0  0  0
  3  4  2  0  0  0  0
  3 10  1  0  0  0  0
  5  4  1  0  0  0  0
  5  8  1  0  0  0  0
  6  5  2  0  0  0  0
  7  2  1  0  0  0  0
  9 18  1  0  0  0  0
  9 17  1  0  0  0  0
 10  9  2  0  0  0  0
 11 10  1  0  0  0  0
 11 12  2  0  0  0  0
 12 16  1  0  0  0  0
 13 12  1  0  0  0  0
 13 14  1  0  0  0  0
 14 15  2  0  0  0  0
 16 15  1  0  0  0  0
 16 17  2  0  0  0  0
 17 22  1  0  0  0  0
 19 11  1  0  0  0  0
 20 13  1  0  0  0  0
 21 14  1  0  0  0  0
 23  1  1  0  0  0  0
 24 23  1  0  0  0  0
 25 24  2  0  0  0  0
 26 27  1  0  0  0  0
 26 25  1  0  0  0  0
 27 28  2  0  0  0  0
 28 24  1  0  0  0  0
 29 25  1  0  0  0  0
 30 32  1  0  0  0  0
 30 27  1  0  0  0  0
 31 30  1  0  0  0  0
 32 34  1  0  0  0  0
 32 33  1  0  0  0  0
 35 32  1  0  0  0  0
 36 35  1  0  0  0  0
M  END
>  <minimizedAffinity>
-6.22791195

>  <minimizedRMSD>
0.233055338

$$$$
