
 OpenBabel03242515023D

 35 36  0  0  0  0  0  0  0  0999 V2000
   38.9390   29.8180   42.5330 S   0  0  0  0  0  0  0  0  0  0  0  0
   38.6890   31.1480   41.3480 C   0  0  0  0  0  0  0  0  0  0  0  0
   37.4250   31.2520   40.7720 C   0  0  0  0  0  0  0  0  0  0  0  0
   37.1930   32.2660   39.8530 C   0  0  0  0  0  0  0  0  0  0  0  0
   38.2170   33.1160   39.5540 N   0  0  0  0  0  0  0  0  0  0  0  0
   39.4220   32.9970   40.1190 C   0  0  0  0  0  0  0  0  0  0  0  0
   39.6640   32.0200   41.0120 N   0  0  0  0  0  0  0  0  0  0  0  0
   36.5840   30.6000   40.9790 H   0  0  0  0  0  0  0  0  0  0  0  0
   36.2260   32.3800   39.3840 H   0  0  0  0  0  0  0  0  0  0  0  0
   40.4680   33.9510   39.7440 C   0  0  0  0  0  0  0  0  0  0  0  0
   40.9610   34.6660   40.6710 O   0  0  0  0  0  0  0  0  0  0  0  0
   40.8550   34.0090   38.3790 N   0  0  0  0  0  0  0  0  0  0  0  0
   40.1310   34.2580   37.6580 H   0  0  0  0  0  0  0  0  0  0  0  0
   42.4880   33.6700   37.9860 S   0  0  0  0  0  0  0  0  0  0  0  0
   42.7840   32.2170   37.8380 O   0  0  0  0  0  1  0  0  0  0  0  0
   43.4400   34.2220   39.0270 O   0  0  0  0  0  1  0  0  0  0  0  0
   42.8360   34.4730   36.5310 O   0  0  0  0  0  0  0  0  0  0  0  0
   41.9810   34.6310   36.0290 H   0  0  0  0  0  0  0  0  0  0  0  0
   37.4430   28.8820   42.8520 C   0  0  0  0  0  0  0  0  0  0  0  0
   37.0820   28.4630   41.8800 H   0  0  0  0  0  0  0  0  0  0  0  0
   36.5950   29.4990   43.2160 H   0  0  0  0  0  0  0  0  0  0  0  0
   37.6680   27.7130   43.7570 C   0  0  0  0  0  0  0  0  0  0  0  0
   36.7300   27.5770   44.3700 H   0  0  0  0  0  0  0  0  0  0  0  0
   38.4780   27.8630   44.5020 H   0  0  0  0  0  0  0  0  0  0  0  0
   40.4150   26.3990   43.9220 Cl  0  0  0  0  0  0  0  0  0  0  0  0
   39.0810   25.7770   42.9900 C   0  0  0  0  0  0  0  0  0  0  0  0
   37.8570   26.4570   42.9810 C   0  0  0  0  0  0  0  0  0  0  0  0
   36.8570   25.8980   42.2190 C   0  0  0  0  0  0  0  0  0  0  0  0
   36.9380   24.7360   41.4650 C   0  0  0  0  0  0  0  0  0  0  0  0
   38.1690   24.0830   41.4940 C   0  0  0  0  0  0  0  0  0  0  0  0
   38.3810   22.5990   40.5730 Cl  0  0  0  0  0  0  0  0  0  0  0  0
   39.2000   24.5990   42.2400 C   0  0  0  0  0  0  0  0  0  0  0  0
   35.9250   26.4550   42.2400 H   0  0  0  0  0  0  0  0  0  0  0  0
   36.1000   24.3740   40.8990 H   0  0  0  0  0  0  0  0  0  0  0  0
   40.1330   24.0490   42.2250 H   0  0  0  0  0  0  0  0  0  0  0  0
  1 19  1  0  0  0  0
  2  1  1  0  0  0  0
  3  8  1  0  0  0  0
  3  2  2  0  0  0  0
  4  3  1  0  0  0  0
  5  4  2  0  0  0  0
  5  6  1  0  0  0  0
  6  7  2  0  0  0  0
  7  2  1  0  0  0  0
  9  4  1  0  0  0  0
 10  6  1  0  0  0  0
 10 11  2  0  0  0  0
 12 10  1  0  0  0  0
 13 12  1  0  0  0  0
 14 12  1  0  0  0  0
 14 16  1  0  0  0  0
 15 14  1  0  0  0  0
 17 14  1  0  0  0  0
 18 17  1  0  0  0  0
 19 21  1  0  0  0  0
 19 22  1  0  0  0  0
 20 19  1  0  0  0  0
 22 23  1  0  0  0  0
 22 24  1  0  0  0  0
 26 25  1  0  0  0  0
 27 26  1  0  0  0  0
 27 22  1  0  0  0  0
 28 33  1  0  0  0  0
 28 27  2  0  0  0  0
 29 30  2  0  0  0  0
 29 28  1  0  0  0  0
 30 32  1  0  0  0  0
 31 30  1  0  0  0  0
 32 26  2  0  0  0  0
 34 29  1  0  0  0  0
 35 32  1  0  0  0  0
M  END
>  <minimizedAffinity>
-6.33180332

$$$$

 OpenBabel03242515023D

 35 36  0  0  0  0  0  0  0  0999 V2000
   37.3520   29.8860   39.3090 S   0  0  0  0  0  0  0  0  0  0  0  0
   38.0740   31.5120   39.5720 C   0  0  0  0  0  0  0  0  0  0  0  0
   37.1940   32.5870   39.6670 C   0  0  0  0  0  0  0  0  0  0  0  0
   37.7140   33.8580   39.8700 C   0  0  0  0  0  0  0  0  0  0  0  0
   39.0670   33.9960   39.9670 N   0  0  0  0  0  0  0  0  0  0  0  0
   39.8930   32.9500   39.8740 C   0  0  0  0  0  0  0  0  0  0  0  0
   39.4060   31.7120   39.6770 N   0  0  0  0  0  0  0  0  0  0  0  0
   36.1140   32.5240   39.5950 H   0  0  0  0  0  0  0  0  0  0  0  0
   37.0630   34.7180   39.9480 H   0  0  0  0  0  0  0  0  0  0  0  0
   41.3340   33.1830   39.9890 C   0  0  0  0  0  0  0  0  0  0  0  0
   41.9740   32.4630   40.8180 O   0  0  0  0  0  0  0  0  0  0  0  0
   41.9110   34.1920   39.1730 N   0  0  0  0  0  0  0  0  0  0  0  0
   41.5690   35.1810   39.2750 H   0  0  0  0  0  0  0  0  0  0  0  0
   43.1370   33.7350   38.0670 S   0  0  0  0  0  0  0  0  0  0  0  0
   43.2540   32.2620   37.8710 O   0  0  0  0  0  1  0  0  0  0  0  0
   44.4970   34.2430   38.4980 O   0  0  0  0  0  1  0  0  0  0  0  0
   42.7830   34.4800   36.5830 O   0  0  0  0  0  0  0  0  0  0  0  0
   41.8010   34.6840   36.5420 H   0  0  0  0  0  0  0  0  0  0  0  0
   36.6750   29.1750   40.8100 C   0  0  0  0  0  0  0  0  0  0  0  0
   36.9320   28.0870   40.8250 H   0  0  0  0  0  0  0  0  0  0  0  0
   35.5660   29.1950   40.8560 H   0  0  0  0  0  0  0  0  0  0  0  0
   37.2620   29.7650   42.0520 C   0  0  0  0  0  0  0  0  0  0  0  0
   36.4480   29.7850   42.8330 H   0  0  0  0  0  0  0  0  0  0  0  0
   37.5830   30.8240   41.9450 H   0  0  0  0  0  0  0  0  0  0  0  0
   36.4140   27.3290   43.6780 Cl  0  0  0  0  0  0  0  0  0  0  0  0
   38.0690   27.7680   43.3530 C   0  0  0  0  0  0  0  0  0  0  0  0
   38.3530   28.9090   42.5930 C   0  0  0  0  0  0  0  0  0  0  0  0
   39.6850   29.1840   42.3830 C   0  0  0  0  0  0  0  0  0  0  0  0
   40.7670   28.4480   42.8460 C   0  0  0  0  0  0  0  0  0  0  0  0
   40.4510   27.3190   43.5990 C   0  0  0  0  0  0  0  0  0  0  0  0
   41.7490   26.3150   44.2340 Cl  0  0  0  0  0  0  0  0  0  0  0  0
   39.1370   27.0000   43.8370 C   0  0  0  0  0  0  0  0  0  0  0  0
   39.8620   30.0750   41.7900 H   0  0  0  0  0  0  0  0  0  0  0  0
   41.7780   28.7410   42.6300 H   0  0  0  0  0  0  0  0  0  0  0  0
   38.9520   26.1110   44.4280 H   0  0  0  0  0  0  0  0  0  0  0  0
  1  2  1  0  0  0  0
  1 19  1  0  0  0  0
  2  3  2  0  0  0  0
  2  7  1  0  0  0  0
  3  4  1  0  0  0  0
  4  9  1  0  0  0  0
  4  5  2  0  0  0  0
  6  5  1  0  0  0  0
  6 10  1  0  0  0  0
  7  6  2  0  0  0  0
  8  3  1  0  0  0  0
 10 11  2  0  0  0  0
 12 13  1  0  0  0  0
 12 10  1  0  0  0  0
 14 16  1  0  0  0  0
 14 12  1  0  0  0  0
 15 14  1  0  0  0  0
 17 14  1  0  0  0  0
 18 17  1  0  0  0  0
 19 20  1  0  0  0  0
 19 21  1  0  0  0  0
 19 22  1  0  0  0  0
 22 27  1  0  0  0  0
 22 23  1  0  0  0  0
 24 22  1  0  0  0  0
 26 25  1  0  0  0  0
 26 32  1  0  0  0  0
 27 26  2  0  0  0  0
 28 27  1  0  0  0  0
 28 29  2  0  0  0  0
 29 30  1  0  0  0  0
 30 32  2  0  0  0  0
 30 31  1  0  0  0  0
 32 35  1  0  0  0  0
 33 28  1  0  0  0  0
 34 29  1  0  0  0  0
M  END
>  <minimizedAffinity>
-6.18485737

$$$$

 OpenBabel03242515023D

 35 36  0  0  0  0  0  0  0  0999 V2000
   36.2330   30.0320   41.0160 S   0  0  0  0  0  0  0  0  0  0  0  0
   37.3080   30.7900   39.7900 C   0  0  0  0  0  0  0  0  0  0  0  0
   36.9620   30.6170   38.4520 C   0  0  0  0  0  0  0  0  0  0  0  0
   37.7670   31.1870   37.4770 C   0  0  0  0  0  0  0  0  0  0  0  0
   38.8650   31.8930   37.8730 N   0  0  0  0  0  0  0  0  0  0  0  0
   39.1770   32.0470   39.1630 C   0  0  0  0  0  0  0  0  0  0  0  0
   38.4080   31.5010   40.1210 N   0  0  0  0  0  0  0  0  0  0  0  0
   36.1020   30.0650   38.0920 H   0  0  0  0  0  0  0  0  0  0  0  0
   37.5330   31.0750   36.4270 H   0  0  0  0  0  0  0  0  0  0  0  0
   40.3730   32.8200   39.5060 C   0  0  0  0  0  0  0  0  0  0  0  0
   40.8810   32.6250   40.6550 O   0  0  0  0  0  0  0  0  0  0  0  0
   40.8770   33.7280   38.5370 N   0  0  0  0  0  0  0  0  0  0  0  0
   40.2580   34.5100   38.2060 H   0  0  0  0  0  0  0  0  0  0  0  0
   42.4750   33.4920   37.9640 S   0  0  0  0  0  0  0  0  0  0  0  0
   42.8000   32.0730   37.6480 O   0  0  0  0  0  1  0  0  0  0  0  0
   43.5050   33.9810   38.9620 O   0  0  0  0  0  1  0  0  0  0  0  0
   42.6570   34.4420   36.5680 O   0  0  0  0  0  0  0  0  0  0  0  0
   41.7530   34.6130   36.1660 H   0  0  0  0  0  0  0  0  0  0  0  0
   36.4610   28.2580   41.1390 C   0  0  0  0  0  0  0  0  0  0  0  0
   37.4100   27.9920   40.6100 H   0  0  0  0  0  0  0  0  0  0  0  0
   35.6810   27.6670   40.6140 H   0  0  0  0  0  0  0  0  0  0  0  0
   36.6170   27.7850   42.5490 C   0  0  0  0  0  0  0  0  0  0  0  0
   35.8650   26.9590   42.7120 H   0  0  0  0  0  0  0  0  0  0  0  0
   36.3730   28.5510   43.3160 H   0  0  0  0  0  0  0  0  0  0  0  0
   36.8780   24.7800   42.0960 Cl  0  0  0  0  0  0  0  0  0  0  0  0
   38.1870   25.8180   42.5920 C   0  0  0  0  0  0  0  0  0  0  0  0
   37.9630   27.1880   42.7720 C   0  0  0  0  0  0  0  0  0  0  0  0
   39.0500   27.9360   43.1650 C   0  0  0  0  0  0  0  0  0  0  0  0
   40.3360   27.4710   43.3970 C   0  0  0  0  0  0  0  0  0  0  0  0
   40.5260   26.1030   43.2090 C   0  0  0  0  0  0  0  0  0  0  0  0
   42.1210   25.4090   43.4770 Cl  0  0  0  0  0  0  0  0  0  0  0  0
   39.4740   25.3130   42.8180 C   0  0  0  0  0  0  0  0  0  0  0  0
   38.8330   28.9920   43.2920 H   0  0  0  0  0  0  0  0  0  0  0  0
   41.1260   28.1320   43.7020 H   0  0  0  0  0  0  0  0  0  0  0  0
   39.6810   24.2570   42.6870 H   0  0  0  0  0  0  0  0  0  0  0  0
  1 19  1  0  0  0  0
  2  7  1  0  0  0  0
  2  1  1  0  0  0  0
  3  2  2  0  0  0  0
  4  5  2  0  0  0  0
  4  3  1  0  0  0  0
  5  6  1  0  0  0  0
  6 10  1  0  0  0  0
  6  7  2  0  0  0  0
  8  3  1  0  0  0  0
  9  4  1  0  0  0  0
 10 11  2  0  0  0  0
 12 10  1  0  0  0  0
 13 12  1  0  0  0  0
 14 12  1  0  0  0  0
 14 16  1  0  0  0  0
 15 14  1  0  0  0  0
 17 14  1  0  0  0  0
 18 17  1  0  0  0  0
 19 22  1  0  0  0  0
 20 19  1  0  0  0  0
 21 19  1  0  0  0  0
 22 23  1  0  0  0  0
 22 27  1  0  0  0  0
 22 24  1  0  0  0  0
 25 26  1  0  0  0  0
 26 27  2  0  0  0  0
 26 32  1  0  0  0  0
 27 28  1  0  0  0  0
 28 33  1  0  0  0  0
 28 29  2  0  0  0  0
 29 34  1  0  0  0  0
 30 29  1  0  0  0  0
 30 31  1  0  0  0  0
 32 30  2  0  0  0  0
 35 32  1  0  0  0  0
M  END
>  <minimizedAffinity>
-6.14736223

$$$$

 OpenBabel03242515023D

 35 36  0  0  0  0  0  0  0  0999 V2000
   36.6920   30.3570   38.9500 S   0  0  0  0  0  0  0  0  0  0  0  0
   37.8660   31.6720   39.3070 C   0  0  0  0  0  0  0  0  0  0  0  0
   37.3370   32.9130   39.6540 C   0  0  0  0  0  0  0  0  0  0  0  0
   38.2120   33.9530   39.9370 C   0  0  0  0  0  0  0  0  0  0  0  0
   39.5520   33.7120   39.8630 N   0  0  0  0  0  0  0  0  0  0  0  0
   40.0360   32.5120   39.5290 C   0  0  0  0  0  0  0  0  0  0  0  0
   39.2030   31.4930   39.2510 N   0  0  0  0  0  0  0  0  0  0  0  0
   36.2820   33.1500   39.7240 H   0  0  0  0  0  0  0  0  0  0  0  0
   37.8410   34.9320   40.2090 H   0  0  0  0  0  0  0  0  0  0  0  0
   41.4880   32.3350   39.4720 C   0  0  0  0  0  0  0  0  0  0  0  0
   41.9470   31.1900   39.7810 O   0  0  0  0  0  0  0  0  0  0  0  0
   42.2780   33.4470   39.0790 N   0  0  0  0  0  0  0  0  0  0  0  0
   42.2360   34.3260   39.6540 H   0  0  0  0  0  0  0  0  0  0  0  0
   43.2590   33.2890   37.6820 S   0  0  0  0  0  0  0  0  0  0  0  0
   43.1640   31.9550   37.0250 O   0  0  0  0  0  1  0  0  0  0  0  0
   44.7210   33.5360   37.9940 O   0  0  0  0  0  1  0  0  0  0  0  0
   42.7820   34.4980   36.5890 O   0  0  0  0  0  0  0  0  0  0  0  0
   41.8370   34.7710   36.7920 H   0  0  0  0  0  0  0  0  0  0  0  0
   35.8510   29.7580   40.4160 C   0  0  0  0  0  0  0  0  0  0  0  0
   35.8090   28.6420   40.3610 H   0  0  0  0  0  0  0  0  0  0  0  0
   34.7870   30.0690   40.4830 H   0  0  0  0  0  0  0  0  0  0  0  0
   36.5750   30.0910   41.6810 C   0  0  0  0  0  0  0  0  0  0  0  0
   35.7960   30.2930   42.4720 H   0  0  0  0  0  0  0  0  0  0  0  0
   37.1790   31.0220   41.6300 H   0  0  0  0  0  0  0  0  0  0  0  0
   39.4000   30.7010   42.6570 Cl  0  0  0  0  0  0  0  0  0  0  0  0
   38.6900   29.1100   42.6300 C   0  0  0  0  0  0  0  0  0  0  0  0
   37.3820   28.9360   42.1620 C   0  0  0  0  0  0  0  0  0  0  0  0
   36.8990   27.6470   42.1740 C   0  0  0  0  0  0  0  0  0  0  0  0
   37.5720   26.5120   42.6010 C   0  0  0  0  0  0  0  0  0  0  0  0
   38.8720   26.7180   43.0600 C   0  0  0  0  0  0  0  0  0  0  0  0
   39.8160   25.3450   43.6250 Cl  0  0  0  0  0  0  0  0  0  0  0  0
   39.4020   27.9850   43.0690 C   0  0  0  0  0  0  0  0  0  0  0  0
   35.8820   27.5560   41.8050 H   0  0  0  0  0  0  0  0  0  0  0  0
   37.1110   25.5420   42.5740 H   0  0  0  0  0  0  0  0  0  0  0  0
   40.4160   28.0850   43.4370 H   0  0  0  0  0  0  0  0  0  0  0  0
  1  2  1  0  0  0  0
  1 19  1  0  0  0  0
  2  3  1  0  0  0  0
  3  8  1  0  0  0  0
  3  4  2  0  0  0  0
  4  9  1  0  0  0  0
  5  4  1  0  0  0  0
  6  5  2  0  0  0  0
  7  2  2  0  0  0  0
  7  6  1  0  0  0  0
 10  6  1  0  0  0  0
 10 11  2  0  0  0  0
 12 10  1  0  0  0  0
 12 13  1  0  0  0  0
 14 16  1  0  0  0  0
 14 12  1  0  0  0  0
 15 14  1  0  0  0  0
 17 18  1  0  0  0  0
 17 14  1  0  0  0  0
 19 21  1  0  0  0  0
 19 22  1  0  0  0  0
 20 19  1  0  0  0  0
 22 27  1  0  0  0  0
 22 23  1  0  0  0  0
 24 22  1  0  0  0  0
 26 25  1  0  0  0  0
 26 32  1  0  0  0  0
 27 28  1  0  0  0  0
 27 26  2  0  0  0  0
 28 29  2  0  0  0  0
 29 30  1  0  0  0  0
 30 32  2  0  0  0  0
 30 31  1  0  0  0  0
 32 35  1  0  0  0  0
 33 28  1  0  0  0  0
 34 29  1  0  0  0  0
M  END
>  <minimizedAffinity>
-6.06188774

$$$$

 OpenBabel03242515023D

 35 36  0  0  0  0  0  0  0  0999 V2000
   36.5760   27.8330   40.2200 S   0  0  0  0  0  0  0  0  0  0  0  0
   36.9110   29.1770   39.0730 C   0  0  0  0  0  0  0  0  0  0  0  0
   36.7910   28.8920   37.7140 C   0  0  0  0  0  0  0  0  0  0  0  0
   37.0410   29.9040   36.7980 C   0  0  0  0  0  0  0  0  0  0  0  0
   37.3930   31.1340   37.2700 N   0  0  0  0  0  0  0  0  0  0  0  0
   37.5010   31.3840   38.5780 C   0  0  0  0  0  0  0  0  0  0  0  0
   37.2630   30.4160   39.4790 N   0  0  0  0  0  0  0  0  0  0  0  0
   36.5150   27.9310   37.2950 H   0  0  0  0  0  0  0  0  0  0  0  0
   36.9600   29.7220   35.7350 H   0  0  0  0  0  0  0  0  0  0  0  0
   37.8840   32.7320   39.0030 C   0  0  0  0  0  0  0  0  0  0  0  0
   36.9500   33.5150   39.3620 O   0  0  0  0  0  0  0  0  0  0  0  0
   39.2640   33.0680   38.9830 N   0  0  0  0  0  0  0  0  0  0  0  0
   39.7820   33.0230   38.0700 H   0  0  0  0  0  0  0  0  0  0  0  0
   40.0050   33.5280   40.4580 S   0  0  0  0  0  0  0  0  0  0  0  0
   41.1440   34.4740   40.2920 O   0  0  0  0  0  1  0  0  0  0  0  0
   40.5220   32.3270   41.2230 O   0  0  0  0  0  1  0  0  0  0  0  0
   38.8060   34.2450   41.4250 O   0  0  0  0  0  0  0  0  0  0  0  0
   38.0730   34.5940   40.8350 H   0  0  0  0  0  0  0  0  0  0  0  0
   36.5990   28.3610   41.9340 C   0  0  0  0  0  0  0  0  0  0  0  0
   35.6260   28.8650   42.1550 H   0  0  0  0  0  0  0  0  0  0  0  0
   37.3640   29.1340   42.1570 H   0  0  0  0  0  0  0  0  0  0  0  0
   36.7100   27.2210   42.8950 C   0  0  0  0  0  0  0  0  0  0  0  0
   36.0840   26.3750   42.4870 H   0  0  0  0  0  0  0  0  0  0  0  0
   36.2890   27.4300   43.9010 H   0  0  0  0  0  0  0  0  0  0  0  0
   37.2010   24.3750   41.9130 Cl  0  0  0  0  0  0  0  0  0  0  0  0
   38.4380   25.4230   42.5500 C   0  0  0  0  0  0  0  0  0  0  0  0
   38.1080   26.7160   42.9750 C   0  0  0  0  0  0  0  0  0  0  0  0
   39.1450   27.4780   43.4660 C   0  0  0  0  0  0  0  0  0  0  0  0
   40.4740   27.0960   43.5800 C   0  0  0  0  0  0  0  0  0  0  0  0
   40.7690   25.8040   43.1490 C   0  0  0  0  0  0  0  0  0  0  0  0
   42.4260   25.2190   43.2490 Cl  0  0  0  0  0  0  0  0  0  0  0  0
   39.7710   25.0030   42.6510 C   0  0  0  0  0  0  0  0  0  0  0  0
   38.8470   28.4720   43.7830 H   0  0  0  0  0  0  0  0  0  0  0  0
   41.2170   27.7620   43.9760 H   0  0  0  0  0  0  0  0  0  0  0  0
   40.0600   24.0090   42.3310 H   0  0  0  0  0  0  0  0  0  0  0  0
  1 19  1  0  0  0  0
  2  7  1  0  0  0  0
  2  1  1  0  0  0  0
  3  2  2  0  0  0  0
  4  5  2  0  0  0  0
  4  3  1  0  0  0  0
  5  6  1  0  0  0  0
  6 10  1  0  0  0  0
  6  7  2  0  0  0  0
  8  3  1  0  0  0  0
  9  4  1  0  0  0  0
 10 11  2  0  0  0  0
 12 10  1  0  0  0  0
 12 14  1  0  0  0  0
 13 12  1  0  0  0  0
 14 16  1  0  0  0  0
 14 17  1  0  0  0  0
 15 14  1  0  0  0  0
 18 17  1  0  0  0  0
 19 20  1  0  0  0  0
 19 21  1  0  0  0  0
 19 22  1  0  0  0  0
 22 27  1  0  0  0  0
 22 24  1  0  0  0  0
 23 22  1  0  0  0  0
 25 26  1  0  0  0  0
 26 32  2  0  0  0  0
 26 27  1  0  0  0  0
 27 28  2  0  0  0  0
 28 29  1  0  0  0  0
 28 33  1  0  0  0  0
 29 34  1  0  0  0  0
 30 31  1  0  0  0  0
 30 29  2  0  0  0  0
 32 30  1  0  0  0  0
 35 32  1  0  0  0  0
M  END
>  <minimizedAffinity>
-5.97002125

$$$$

 OpenBabel03242515023D

 35 36  0  0  0  0  0  0  0  0999 V2000
   37.9440   25.9260   39.5050 S   0  0  0  0  0  0  0  0  0  0  0  0
   37.0660   27.4920   39.6190 C   0  0  0  0  0  0  0  0  0  0  0  0
   35.7930   27.5440   39.0570 C   0  0  0  0  0  0  0  0  0  0  0  0
   35.0830   28.7350   39.1250 C   0  0  0  0  0  0  0  0  0  0  0  0
   35.6670   29.8030   39.7410 N   0  0  0  0  0  0  0  0  0  0  0  0
   36.8900   29.7290   40.2750 C   0  0  0  0  0  0  0  0  0  0  0  0
   37.5910   28.5830   40.2170 N   0  0  0  0  0  0  0  0  0  0  0  0
   35.2920   26.7230   38.5580 H   0  0  0  0  0  0  0  0  0  0  0  0
   34.0920   28.8170   38.7000 H   0  0  0  0  0  0  0  0  0  0  0  0
   37.4450   30.9210   40.9190 C   0  0  0  0  0  0  0  0  0  0  0  0
   38.4090   30.7470   41.7290 O   0  0  0  0  0  0  0  0  0  0  0  0
   36.8710   32.1790   40.5970 N   0  0  0  0  0  0  0  0  0  0  0  0
   35.8510   32.3360   40.7980 H   0  0  0  0  0  0  0  0  0  0  0  0
   37.8810   33.3730   39.8950 S   0  0  0  0  0  0  0  0  0  0  0  0
   38.8940   32.8270   38.9490 O   0  0  0  0  0  1  0  0  0  0  0  0
   38.6270   34.1630   40.9500 O   0  0  0  0  0  1  0  0  0  0  0  0
   36.8750   34.4720   39.0800 O   0  0  0  0  0  0  0  0  0  0  0  0
   36.0100   34.0180   38.8490 H   0  0  0  0  0  0  0  0  0  0  0  0
   37.0360   24.5650   40.2390 C   0  0  0  0  0  0  0  0  0  0  0  0
   37.6400   23.6330   40.1050 H   0  0  0  0  0  0  0  0  0  0  0  0
   36.0730   24.3420   39.7330 H   0  0  0  0  0  0  0  0  0  0  0  0
   36.8300   24.7260   41.7110 C   0  0  0  0  0  0  0  0  0  0  0  0
   36.5940   23.7050   42.1310 H   0  0  0  0  0  0  0  0  0  0  0  0
   35.9560   25.3570   41.9820 H   0  0  0  0  0  0  0  0  0  0  0  0
   36.6720   27.3710   43.2220 Cl  0  0  0  0  0  0  0  0  0  0  0  0
   38.1070   26.3890   43.1020 C   0  0  0  0  0  0  0  0  0  0  0  0
   38.0750   25.1880   42.3830 C   0  0  0  0  0  0  0  0  0  0  0  0
   39.2510   24.4750   42.3390 C   0  0  0  0  0  0  0  0  0  0  0  0
   40.4570   24.8230   42.9300 C   0  0  0  0  0  0  0  0  0  0  0  0
   40.4560   26.0240   43.6390 C   0  0  0  0  0  0  0  0  0  0  0  0
   41.9340   26.5600   44.4290 Cl  0  0  0  0  0  0  0  0  0  0  0  0
   39.3080   26.7740   43.7140 C   0  0  0  0  0  0  0  0  0  0  0  0
   39.1830   23.5510   41.7720 H   0  0  0  0  0  0  0  0  0  0  0  0
   41.3270   24.2000   42.8420 H   0  0  0  0  0  0  0  0  0  0  0  0
   39.3670   27.6960   44.2780 H   0  0  0  0  0  0  0  0  0  0  0  0
  1  2  1  0  0  0  0
  1 19  1  0  0  0  0
  2  7  1  0  0  0  0
  3  4  1  0  0  0  0
  3  2  2  0  0  0  0
  4  5  2  0  0  0  0
  5  6  1  0  0  0  0
  6 10  1  0  0  0  0
  7  6  2  0  0  0  0
  8  3  1  0  0  0  0
  9  4  1  0  0  0  0
 10 11  2  0  0  0  0
 12 13  1  0  0  0  0
 12 10  1  0  0  0  0
 14 12  1  0  0  0  0
 14 16  1  0  0  0  0
 15 14  1  0  0  0  0
 17 14  1  0  0  0  0
 18 17  1  0  0  0  0
 19 22  1  0  0  0  0
 20 19  1  0  0  0  0
 21 19  1  0  0  0  0
 22 24  1  0  0  0  0
 22 23  1  0  0  0  0
 22 27  1  0  0  0  0
 26 25  1  0  0  0  0
 26 32  1  0  0  0  0
 27 26  2  0  0  0  0
 28 27  1  0  0  0  0
 28 29  2  0  0  0  0
 29 30  1  0  0  0  0
 30 32  2  0  0  0  0
 30 31  1  0  0  0  0
 32 35  1  0  0  0  0
 33 28  1  0  0  0  0
 34 29  1  0  0  0  0
M  END
>  <minimizedAffinity>
-5.92111492

$$$$

 OpenBabel03242515023D

 35 36  0  0  0  0  0  0  0  0999 V2000
   37.5180   31.6400   39.9400 S   0  0  0  0  0  0  0  0  0  0  0  0
   38.7780   32.9100   39.7590 C   0  0  0  0  0  0  0  0  0  0  0  0
   38.6420   34.0520   40.5470 C   0  0  0  0  0  0  0  0  0  0  0  0
   39.5950   35.0540   40.4350 C   0  0  0  0  0  0  0  0  0  0  0  0
   40.6240   34.8760   39.5570 N   0  0  0  0  0  0  0  0  0  0  0  0
   40.7330   33.7730   38.8120 C   0  0  0  0  0  0  0  0  0  0  0  0
   39.8190   32.7910   38.9080 N   0  0  0  0  0  0  0  0  0  0  0  0
   37.8430   34.2350   41.2550 H   0  0  0  0  0  0  0  0  0  0  0  0
   39.5250   35.9560   41.0290 H   0  0  0  0  0  0  0  0  0  0  0  0
   41.8680   33.6590   37.8930 C   0  0  0  0  0  0  0  0  0  0  0  0
   42.8270   34.4780   38.0510 O   0  0  0  0  0  0  0  0  0  0  0  0
   41.8170   32.6480   36.8970 N   0  0  0  0  0  0  0  0  0  0  0  0
   41.0330   32.6660   36.1980 H   0  0  0  0  0  0  0  0  0  0  0  0
   43.0450   31.4530   36.8950 S   0  0  0  0  0  0  0  0  0  0  0  0
   42.8910   30.4300   35.8230 O   0  0  0  0  0  1  0  0  0  0  0  0
   43.1100   30.7150   38.2170 O   0  0  0  0  0  1  0  0  0  0  0  0
   44.5310   32.2540   36.7080 O   0  0  0  0  0  0  0  0  0  0  0  0
   44.3730   33.1410   36.2660 H   0  0  0  0  0  0  0  0  0  0  0  0
   38.0110   30.3250   41.0560 C   0  0  0  0  0  0  0  0  0  0  0  0
   38.6340   30.7750   41.8680 H   0  0  0  0  0  0  0  0  0  0  0  0
   38.6750   29.5660   40.5910 H   0  0  0  0  0  0  0  0  0  0  0  0
   36.8510   29.6660   41.7310 C   0  0  0  0  0  0  0  0  0  0  0  0
   35.9140   30.0220   41.2130 H   0  0  0  0  0  0  0  0  0  0  0  0
   36.7190   29.9550   42.7950 H   0  0  0  0  0  0  0  0  0  0  0  0
   37.0800   28.0000   44.2760 Cl  0  0  0  0  0  0  0  0  0  0  0  0
   37.0020   27.3340   42.6670 C   0  0  0  0  0  0  0  0  0  0  0  0
   36.8980   28.1870   41.5620 C   0  0  0  0  0  0  0  0  0  0  0  0
   36.8420   27.5790   40.3280 C   0  0  0  0  0  0  0  0  0  0  0  0
   36.8790   26.2160   40.0720 C   0  0  0  0  0  0  0  0  0  0  0  0
   36.9840   25.3940   41.1930 C   0  0  0  0  0  0  0  0  0  0  0  0
   37.0380   23.6490   40.9810 Cl  0  0  0  0  0  0  0  0  0  0  0  0
   37.0420   25.9510   42.4470 C   0  0  0  0  0  0  0  0  0  0  0  0
   36.7610   28.2760   39.4990 H   0  0  0  0  0  0  0  0  0  0  0  0
   36.8290   25.8320   39.0700 H   0  0  0  0  0  0  0  0  0  0  0  0
   37.1220   25.2640   43.2800 H   0  0  0  0  0  0  0  0  0  0  0  0
  1 19  1  0  0  0  0
  2  1  1  0  0  0  0
  2  3  1  0  0  0  0
  3  8  1  0  0  0  0
  4  3  2  0  0  0  0
  4  9  1  0  0  0  0
  5  4  1  0  0  0  0
  6  7  1  0  0  0  0
  6  5  2  0  0  0  0
  7  2  2  0  0  0  0
 10 11  2  0  0  0  0
 10  6  1  0  0  0  0
 12 10  1  0  0  0  0
 13 12  1  0  0  0  0
 14 12  1  0  0  0  0
 14 16  1  0  0  0  0
 15 14  1  0  0  0  0
 17 14  1  0  0  0  0
 18 17  1  0  0  0  0
 19 22  1  0  0  0  0
 19 20  1  0  0  0  0
 21 19  1  0  0  0  0
 22 24  1  0  0  0  0
 23 22  1  0  0  0  0
 26 25  1  0  0  0  0
 27 22  1  0  0  0  0
 27 26  2  0  0  0  0
 28 27  1  0  0  0  0
 29 28  2  0  0  0  0
 29 30  1  0  0  0  0
 30 32  2  0  0  0  0
 31 30  1  0  0  0  0
 32 26  1  0  0  0  0
 32 35  1  0  0  0  0
 33 28  1  0  0  0  0
 34 29  1  0  0  0  0
M  END
>  <minimizedAffinity>
-5.88912535

$$$$

 OpenBabel03242515023D

 35 36  0  0  0  0  0  0  0  0999 V2000
   37.1430   30.9860   39.1610 S   0  0  0  0  0  0  0  0  0  0  0  0
   38.3240   32.3240   39.3820 C   0  0  0  0  0  0  0  0  0  0  0  0
   37.8980   33.4270   40.1190 C   0  0  0  0  0  0  0  0  0  0  0  0
   38.7820   34.4800   40.3110 C   0  0  0  0  0  0  0  0  0  0  0  0
   40.0290   34.3880   39.7680 N   0  0  0  0  0  0  0  0  0  0  0  0
   40.4160   33.3190   39.0650 C   0  0  0  0  0  0  0  0  0  0  0  0
   39.5730   32.2900   38.8690 N   0  0  0  0  0  0  0  0  0  0  0  0
   36.9190   33.5440   40.5670 H   0  0  0  0  0  0  0  0  0  0  0  0
   38.4890   35.3540   40.8770 H   0  0  0  0  0  0  0  0  0  0  0  0
   41.7730   33.2970   38.5150 C   0  0  0  0  0  0  0  0  0  0  0  0
   41.9380   33.7910   37.3570 O   0  0  0  0  0  0  0  0  0  0  0  0
   42.8020   32.7280   39.3110 N   0  0  0  0  0  0  0  0  0  0  0  0
   42.7200   31.7210   39.6010 H   0  0  0  0  0  0  0  0  0  0  0  0
   44.1260   33.7230   39.7530 S   0  0  0  0  0  0  0  0  0  0  0  0
   45.3660   32.9660   40.0840 O   0  0  0  0  0  1  0  0  0  0  0  0
   43.7960   34.5940   40.9470 O   0  0  0  0  0  1  0  0  0  0  0  0
   44.4290   34.7700   38.4510 O   0  0  0  0  0  0  0  0  0  0  0  0
   44.0730   34.3590   37.6080 H   0  0  0  0  0  0  0  0  0  0  0  0
   36.1290   30.7070   40.6130 C   0  0  0  0  0  0  0  0  0  0  0  0
   35.1880   31.2990   40.4990 H   0  0  0  0  0  0  0  0  0  0  0  0
   36.5780   31.0870   41.5550 H   0  0  0  0  0  0  0  0  0  0  0  0
   35.7130   29.2790   40.7690 C   0  0  0  0  0  0  0  0  0  0  0  0
   35.6750   28.8250   39.7370 H   0  0  0  0  0  0  0  0  0  0  0  0
   34.6890   29.1450   41.1790 H   0  0  0  0  0  0  0  0  0  0  0  0
   36.4220   26.5100   39.7050 Cl  0  0  0  0  0  0  0  0  0  0  0  0
   37.1160   27.2220   41.1360 C   0  0  0  0  0  0  0  0  0  0  0  0
   36.7220   28.5030   41.5410 C   0  0  0  0  0  0  0  0  0  0  0  0
   37.3190   28.9900   42.6810 C   0  0  0  0  0  0  0  0  0  0  0  0
   38.2650   28.3440   43.4640 C   0  0  0  0  0  0  0  0  0  0  0  0
   38.6360   27.0710   43.0340 C   0  0  0  0  0  0  0  0  0  0  0  0
   39.8290   26.1630   43.9550 Cl  0  0  0  0  0  0  0  0  0  0  0  0
   38.0700   26.5390   41.9020 C   0  0  0  0  0  0  0  0  0  0  0  0
   36.9870   29.9860   42.9600 H   0  0  0  0  0  0  0  0  0  0  0  0
   38.6780   28.8060   44.3420 H   0  0  0  0  0  0  0  0  0  0  0  0
   38.3970   25.5460   41.6160 H   0  0  0  0  0  0  0  0  0  0  0  0
  1  2  1  0  0  0  0
  1 19  1  0  0  0  0
  2  3  1  0  0  0  0
  3  4  2  0  0  0  0
  3  8  1  0  0  0  0
  4  9  1  0  0  0  0
  5  4  1  0  0  0  0
  6  5  2  0  0  0  0
  7  6  1  0  0  0  0
  7  2  2  0  0  0  0
 10  6  1  0  0  0  0
 10 12  1  0  0  0  0
 11 10  2  0  0  0  0
 12 13  1  0  0  0  0
 12 14  1  0  0  0  0
 14 15  1  0  0  0  0
 14 16  1  0  0  0  0
 17 14  1  0  0  0  0
 18 17  1  0  0  0  0
 19 22  1  0  0  0  0
 19 21  1  0  0  0  0
 20 19  1  0  0  0  0
 22 24  1  0  0  0  0
 22 27  1  0  0  0  0
 23 22  1  0  0  0  0
 25 26  1  0  0  0  0
 26 27  2  0  0  0  0
 26 32  1  0  0  0  0
 27 28  1  0  0  0  0
 28 33  1  0  0  0  0
 28 29  2  0  0  0  0
 29 34  1  0  0  0  0
 30 29  1  0  0  0  0
 30 31  1  0  0  0  0
 32 30  2  0  0  0  0
 35 32  1  0  0  0  0
M  END
>  <minimizedAffinity>
-5.87476254

$$$$

 OpenBabel03242515023D

 35 36  0  0  0  0  0  0  0  0999 V2000
   37.2600   29.7830   41.7380 S   0  0  0  0  0  0  0  0  0  0  0  0
   37.8760   31.2900   40.9740 C   0  0  0  0  0  0  0  0  0  0  0  0
   36.9690   32.0330   40.2220 C   0  0  0  0  0  0  0  0  0  0  0  0
   37.4070   33.2030   39.6170 C   0  0  0  0  0  0  0  0  0  0  0  0
   38.7090   33.5720   39.7860 N   0  0  0  0  0  0  0  0  0  0  0  0
   39.5610   32.8430   40.5140 C   0  0  0  0  0  0  0  0  0  0  0  0
   39.1530   31.7070   41.1070 N   0  0  0  0  0  0  0  0  0  0  0  0
   35.9290   31.7780   40.0600 H   0  0  0  0  0  0  0  0  0  0  0  0
   36.7340   33.8070   39.0240 H   0  0  0  0  0  0  0  0  0  0  0  0
   40.9430   33.3090   40.6470 C   0  0  0  0  0  0  0  0  0  0  0  0
   41.1310   34.5650   40.6870 O   0  0  0  0  0  0  0  0  0  0  0  0
   41.9690   32.3310   40.7220 N   0  0  0  0  0  0  0  0  0  0  0  0
   42.0920   31.6640   39.9190 H   0  0  0  0  0  0  0  0  0  0  0  0
   42.9540   32.2970   42.1250 S   0  0  0  0  0  0  0  0  0  0  0  0
   44.2930   31.6810   41.9080 O   0  0  0  0  0  1  0  0  0  0  0  0
   42.2870   31.5430   43.2570 O   0  0  0  0  0  1  0  0  0  0  0  0
   43.1430   33.9010   42.6490 O   0  0  0  0  0  0  0  0  0  0  0  0
   42.9970   34.5210   41.8730 H   0  0  0  0  0  0  0  0  0  0  0  0
   38.4660   29.0050   42.8130 C   0  0  0  0  0  0  0  0  0  0  0  0
   38.8200   29.7700   43.5480 H   0  0  0  0  0  0  0  0  0  0  0  0
   39.3900   28.6790   42.2920 H   0  0  0  0  0  0  0  0  0  0  0  0
   37.8930   27.8820   43.6180 C   0  0  0  0  0  0  0  0  0  0  0  0
   36.7890   28.0830   43.7380 H   0  0  0  0  0  0  0  0  0  0  0  0
   38.2870   27.8170   44.6540 H   0  0  0  0  0  0  0  0  0  0  0  0
   40.4920   26.3350   44.0120 Cl  0  0  0  0  0  0  0  0  0  0  0  0
   39.1690   25.7990   43.0120 C   0  0  0  0  0  0  0  0  0  0  0  0
   38.0160   26.5850   42.8980 C   0  0  0  0  0  0  0  0  0  0  0  0
   37.0200   26.0880   42.0890 C   0  0  0  0  0  0  0  0  0  0  0  0
   37.0420   24.8960   41.3800 C   0  0  0  0  0  0  0  0  0  0  0  0
   38.2040   24.1360   41.5150 C   0  0  0  0  0  0  0  0  0  0  0  0
   38.3370   22.6050   40.6590 Cl  0  0  0  0  0  0  0  0  0  0  0  0
   39.2280   24.5870   42.3110 C   0  0  0  0  0  0  0  0  0  0  0  0
   36.1440   26.7280   42.0280 H   0  0  0  0  0  0  0  0  0  0  0  0
   36.2130   24.5880   40.7720 H   0  0  0  0  0  0  0  0  0  0  0  0
   40.1050   23.9550   42.3780 H   0  0  0  0  0  0  0  0  0  0  0  0
  1 19  1  0  0  0  0
  2  7  1  0  0  0  0
  2  1  1  0  0  0  0
  3  2  2  0  0  0  0
  4  5  2  0  0  0  0
  4  3  1  0  0  0  0
  5  6  1  0  0  0  0
  6 10  1  0  0  0  0
  6  7  2  0  0  0  0
  8  3  1  0  0  0  0
  9  4  1  0  0  0  0
 10 11  2  0  0  0  0
 10 12  1  0  0  0  0
 12 14  1  0  0  0  0
 13 12  1  0  0  0  0
 14 17  1  0  0  0  0
 14 16  1  0  0  0  0
 15 14  1  0  0  0  0
 18 17  1  0  0  0  0
 19 20  1  0  0  0  0
 19 22  1  0  0  0  0
 21 19  1  0  0  0  0
 22 23  1  0  0  0  0
 22 24  1  0  0  0  0
 26 25  1  0  0  0  0
 27 26  1  0  0  0  0
 27 22  1  0  0  0  0
 28 27  2  0  0  0  0
 29 30  2  0  0  0  0
 29 28  1  0  0  0  0
 30 32  1  0  0  0  0
 31 30  1  0  0  0  0
 32 35  1  0  0  0  0
 32 26  2  0  0  0  0
 33 28  1  0  0  0  0
 34 29  1  0  0  0  0
M  END
>  <minimizedAffinity>
-5.8677845

$$$$
