
 OpenBabel03252507373D

 36 39  0  0  0  0  0  0  0  0999 V2000
   42.4220   28.6860   44.0020 C   0  0  0  0  0  0  0  0  0  0  0  0
   41.9290   29.6040   43.0450 C   0  0  0  0  0  0  0  0  0  0  0  0
   40.6160   30.0170   43.1750 C   0  0  0  0  0  0  0  0  0  0  0  0
   39.8730   29.5340   44.1930 N   0  0  0  0  0  0  0  0  0  0  0  0
   40.3680   28.6510   45.1030 C   0  0  0  0  0  0  0  0  0  0  0  0
   41.6230   28.2410   45.0000 N   0  0  0  0  0  0  0  0  0  0  0  0
   42.4960   29.9930   42.2380 H   0  0  0  0  0  0  0  0  0  0  0  0
   39.6820   28.3240   45.8890 H   0  0  0  0  0  0  0  0  0  0  0  0
   38.7920   30.5410   41.6460 C   0  0  0  0  0  0  0  0  0  0  0  0
   39.9600   30.9550   42.2760 C   0  0  0  0  0  0  0  0  0  0  0  0
   40.4250   32.2240   42.0190 C   0  0  0  0  0  0  0  0  0  0  0  0
   39.7780   33.0890   41.1640 C   0  0  0  0  0  0  0  0  0  0  0  0
   40.0480   34.3570   40.7700 N   0  0  0  0  0  0  0  0  0  0  0  0
   39.0540   34.7350   39.8970 C   0  0  0  0  0  0  0  0  0  0  0  0
   38.2050   33.7100   39.7710 N   0  0  0  0  0  0  0  0  0  0  0  0
   38.6260   32.6860   40.5390 C   0  0  0  0  0  0  0  0  0  0  0  0
   38.1380   31.4220   40.7790 C   0  0  0  0  0  0  0  0  0  0  0  0
   38.3260   29.5910   41.7570 H   0  0  0  0  0  0  0  0  0  0  0  0
   41.3300   32.5440   42.5070 H   0  0  0  0  0  0  0  0  0  0  0  0
   40.8850   34.8930   41.1120 H   0  0  0  0  0  0  0  0  0  0  0  0
   39.1130   35.7360   39.4780 H   0  0  0  0  0  0  0  0  0  0  0  0
   37.2280   31.1350   40.2710 H   0  0  0  0  0  0  0  0  0  0  0  0
   43.7450   28.2660   43.8760 O   0  0  0  0  0  0  0  0  0  0  0  0
   44.7140   28.7370   44.7460 C   0  0  0  0  0  0  0  0  0  0  0  0
   45.4140   27.6060   44.9950 C   0  0  0  0  0  0  0  0  0  0  0  0
   46.7570   28.2490   46.1970 S   0  0  0  0  0  0  0  0  0  0  0  0
   46.0100   29.9780   46.0650 C   0  0  0  0  0  0  0  0  0  0  0  0
   45.1720   29.7950   45.3710 N   0  0  0  0  0  0  0  0  0  0  0  0
   45.6200   26.4800   44.8640 H   0  0  0  0  0  0  0  0  0  0  0  0
   46.6560   31.0080   46.8300 N   0  0  0  0  0  0  0  0  0  0  0  0
   47.5650   31.4470   46.5730 H   0  0  0  0  0  0  0  0  0  0  0  0
   45.8570   31.5200   48.2380 S   0  0  0  0  0  0  0  0  0  0  0  0
   45.2660   30.3850   49.0240 O   0  0  0  0  0  1  0  0  0  0  0  0
   46.8250   32.2590   49.1510 O   0  0  0  0  0  1  0  0  0  0  0  0
   44.6150   32.6060   47.9190 O   0  0  0  0  0  0  0  0  0  0  0  0
   44.7560   33.0940   47.0710 H   0  0  0  0  0  0  0  0  0  0  0  0
  1  6  1  0  0  0  0
  2  3  1  0  0  0  0
  2  1  2  0  0  0  0
  3  4  2  0  0  0  0
  4  5  1  0  0  0  0
  5  8  1  0  0  0  0
  6  5  2  0  0  0  0
  7  2  1  0  0  0  0
  9 18  1  0  0  0  0
  9 10  1  0  0  0  0
 10  3  1  0  0  0  0
 11 10  2  0  0  0  0
 11 19  1  0  0  0  0
 12 11  1  0  0  0  0
 13 20  1  0  0  0  0
 13 12  1  0  0  0  0
 14 13  1  0  0  0  0
 15 14  2  0  0  0  0
 15 16  1  0  0  0  0
 16 17  1  0  0  0  0
 16 12  2  0  0  0  0
 17  9  2  0  0  0  0
 21 14  1  0  0  0  0
 22 17  1  0  0  0  0
 23  1  1  0  0  0  0
 23 24  1  0  0  0  0
 24 25  2  0  0  0  0
 24 28  1  0  0  0  0
 25 26  1  0  0  0  0
 27 26  1  0  0  0  0
 27 30  1  0  0  0  0
 28 27  2  0  0  0  0
 29 25  1  0  0  0  0
 30 32  1  0  0  0  0
 31 30  1  0  0  0  0
 32 33  1  0  0  0  0
 32 34  1  0  0  0  0
 35 32  1  0  0  0  0
 36 35  1  0  0  0  0
M  END
>  <minimizedAffinity>
-5.44622374

>  <minimizedRMSD>
9.87485123

$$$$
