
 OpenBabel03242515013D

 35 36  0  0  0  0  0  0  0  0999 V2000
   44.1460   34.7580   41.0270 S   0  0  0  0  0  0  0  0  0  0  0  0
   45.2450   34.4110   42.4070 C   0  0  0  0  0  0  0  0  0  0  0  0
   46.6130   34.4260   42.1440 C   0  0  0  0  0  0  0  0  0  0  0  0
   47.4940   34.1620   43.1840 C   0  0  0  0  0  0  0  0  0  0  0  0
   46.9780   33.8990   44.4190 N   0  0  0  0  0  0  0  0  0  0  0  0
   45.6620   33.8910   44.6480 C   0  0  0  0  0  0  0  0  0  0  0  0
   44.7950   34.1440   43.6520 N   0  0  0  0  0  0  0  0  0  0  0  0
   47.0660   34.6280   41.1810 H   0  0  0  0  0  0  0  0  0  0  0  0
   48.5630   34.1640   43.0200 H   0  0  0  0  0  0  0  0  0  0  0  0
   45.1900   33.6000   46.0030 C   0  0  0  0  0  0  0  0  0  0  0  0
   44.7430   34.5750   46.6840 O   0  0  0  0  0  0  0  0  0  0  0  0
   45.2630   32.2560   46.4580 N   0  0  0  0  0  0  0  0  0  0  0  0
   44.3800   31.6910   46.5130 H   0  0  0  0  0  0  0  0  0  0  0  0
   46.7990   31.6340   46.8950 S   0  0  0  0  0  0  0  0  0  0  0  0
   47.6710   32.6160   47.5990 O   0  0  0  0  0  1  0  0  0  0  0  0
   47.5650   31.1350   45.6870 O   0  0  0  0  0  1  0  0  0  0  0  0
   46.5340   30.2890   47.8970 O   0  0  0  0  0  0  0  0  0  0  0  0
   45.6290   30.3700   48.3240 H   0  0  0  0  0  0  0  0  0  0  0  0
   42.4140   34.5620   41.4510 C   0  0  0  0  0  0  0  0  0  0  0  0
   42.3170   34.6490   42.5620 H   0  0  0  0  0  0  0  0  0  0  0  0
   42.0060   33.5560   41.2200 H   0  0  0  0  0  0  0  0  0  0  0  0
   41.5450   35.6280   40.8660 C   0  0  0  0  0  0  0  0  0  0  0  0
   42.2130   36.3210   40.2770 H   0  0  0  0  0  0  0  0  0  0  0  0
   41.0510   36.2780   41.6200 H   0  0  0  0  0  0  0  0  0  0  0  0
   42.1930   35.9410   37.9030 Cl  0  0  0  0  0  0  0  0  0  0  0  0
   40.7690   35.1490   38.5200 C   0  0  0  0  0  0  0  0  0  0  0  0
   40.5640   35.0580   39.9030 C   0  0  0  0  0  0  0  0  0  0  0  0
   39.4150   34.4170   40.3060 C   0  0  0  0  0  0  0  0  0  0  0  0
   38.4460   33.8560   39.4860 C   0  0  0  0  0  0  0  0  0  0  0  0
   38.6790   33.9640   38.1160 C   0  0  0  0  0  0  0  0  0  0  0  0
   37.5120   33.2860   36.9870 Cl  0  0  0  0  0  0  0  0  0  0  0  0
   39.8110   34.5940   37.6610 C   0  0  0  0  0  0  0  0  0  0  0  0
   39.2950   34.3670   41.3840 H   0  0  0  0  0  0  0  0  0  0  0  0
   37.5770   33.3730   39.8930 H   0  0  0  0  0  0  0  0  0  0  0  0
   39.9390   34.6470   36.5870 H   0  0  0  0  0  0  0  0  0  0  0  0
  1 19  1  0  0  0  0
  1  2  1  0  0  0  0
  2  7  1  0  0  0  0
  3  2  2  0  0  0  0
  3  4  1  0  0  0  0
  4  5  2  0  0  0  0
  5  6  1  0  0  0  0
  6 10  1  0  0  0  0
  7  6  2  0  0  0  0
  8  3  1  0  0  0  0
  9  4  1  0  0  0  0
 10 12  1  0  0  0  0
 10 11  2  0  0  0  0
 12 13  1  0  0  0  0
 12 14  1  0  0  0  0
 14 15  1  0  0  0  0
 14 17  1  0  0  0  0
 16 14  1  0  0  0  0
 17 18  1  0  0  0  0
 19 20  1  0  0  0  0
 21 19  1  0  0  0  0
 22 19  1  0  0  0  0
 22 24  1  0  0  0  0
 23 22  1  0  0  0  0
 25 26  1  0  0  0  0
 26 27  1  0  0  0  0
 27 28  2  0  0  0  0
 27 22  1  0  0  0  0
 28 33  1  0  0  0  0
 29 34  1  0  0  0  0
 29 28  1  0  0  0  0
 30 29  2  0  0  0  0
 31 30  1  0  0  0  0
 32 30  1  0  0  0  0
 32 26  2  0  0  0  0
 35 32  1  0  0  0  0
M  END
>  <minimizedAffinity>
-5.93899012

>  <minimizedRMSD>
1.08970594

$$$$
