
 OpenBabel03242516543D

 43 45  0  0  1  0  0  0  0  0999 V2000
   47.8190   32.8920   41.8720 C   0  0  1  0  0  0  0  0  0  0  0  0
   47.5080   32.1640   40.6430 C   0  0  0  0  0  0  0  0  0  0  0  0
   48.5130   32.6390   39.5980 C   0  0  0  0  0  0  0  0  0  0  0  0
   48.1420   34.0790   39.2650 C   0  0  0  0  0  0  0  0  0  0  0  0
   48.0570   34.9820   40.4580 C   0  0  0  0  0  0  0  0  0  0  0  0
   47.5870   34.3990   41.7210 C   0  0  1  0  0  0  0  0  0  0  0  0
   48.9380   32.8400   42.0480 H   0  0  0  0  0  0  0  0  0  0  0  0
   46.5120   32.4240   40.2020 H   0  0  0  0  0  0  0  0  0  0  0  0
   47.6530   31.0920   40.7670 H   0  0  0  0  0  0  0  0  0  0  0  0
   48.2760   32.0490   38.6770 H   0  0  0  0  0  0  0  0  0  0  0  0
   49.5410   32.5300   39.9390 H   0  0  0  0  0  0  0  0  0  0  0  0
   48.8620   34.4610   38.5300 H   0  0  0  0  0  0  0  0  0  0  0  0
   47.1490   34.0230   38.7600 H   0  0  0  0  0  0  0  0  0  0  0  0
   49.0590   35.4910   40.5600 H   0  0  0  0  0  0  0  0  0  0  0  0
   47.3680   35.8070   40.1710 H   0  0  0  0  0  0  0  0  0  0  0  0
   48.1920   34.8600   42.5600 H   0  0  0  0  0  0  0  0  0  0  0  0
   45.5200   30.9700   44.1740 C   0  0  0  0  0  0  0  0  0  0  0  0
   46.1780   31.4690   43.0450 C   0  0  0  0  0  0  0  0  0  0  0  0
   47.1960   32.4260   43.0920 C   0  0  0  0  0  0  0  0  0  0  0  0
   47.5220   32.8580   44.3110 N   0  0  0  0  0  0  0  0  0  0  0  0
   46.8950   32.3870   45.4190 C   0  0  0  0  0  0  0  0  0  0  0  0
   45.9270   31.4760   45.3760 N   0  0  0  0  0  0  0  0  0  0  0  0
   44.7480   30.2360   44.0620 H   0  0  0  0  0  0  0  0  0  0  0  0
   45.8510   31.0650   42.0950 H   0  0  0  0  0  0  0  0  0  0  0  0
   47.2560   32.8220   46.3550 H   0  0  0  0  0  0  0  0  0  0  0  0
   46.2020   34.7640   42.0230 C   0  0  0  0  0  0  0  0  0  0  0  0
   45.7500   35.3940   43.1920 C   0  0  0  0  0  0  0  0  0  0  0  0
   44.3790   35.6590   43.2490 C   0  0  0  0  0  0  0  0  0  0  0  0
   43.6000   35.2880   42.1750 C   0  0  0  0  0  0  0  0  0  0  0  0
   44.0650   34.6710   41.0350 C   0  0  0  0  0  0  0  0  0  0  0  0
   45.4020   34.4130   40.9830 N   0  0  0  0  0  0  0  0  0  0  0  0
   46.4740   35.6140   43.9270 H   0  0  0  0  0  0  0  0  0  0  0  0
   44.0120   36.1430   44.1380 H   0  0  0  0  0  0  0  0  0  0  0  0
   42.5420   35.5290   42.2930 H   0  0  0  0  0  0  0  0  0  0  0  0
   43.1590   34.3170   39.9340 C   0  0  0  0  0  0  0  0  0  0  0  0
   42.7660   35.2390   39.1720 O   0  0  0  0  0  0  0  0  0  0  0  0
   42.7300   32.9730   39.7280 N   0  0  0  0  0  0  0  0  0  0  0  0
   42.9910   32.5760   38.7980 H   0  0  0  0  0  0  0  0  0  0  0  0
   41.8700   32.2980   41.0640 S   0  0  0  0  0  0  0  0  0  0  0  0
   42.8000   31.8150   42.1360 O   0  0  0  0  0  1  0  0  0  0  0  0
   40.8380   33.2380   41.6220 O   0  0  0  0  0  1  0  0  0  0  0  0
   41.0050   30.9680   40.4500 O   0  0  0  0  0  0  0  0  0  0  0  0
   40.1240   31.2570   40.1030 H   0  0  0  0  0  0  0  0  0  0  0  0
  1  7  1  1  0  0  0
  1 19  1  0  0  0  0
  2  9  1  0  0  0  0
  2  1  1  0  0  0  0
  3 11  1  0  0  0  0
  3  2  1  0  0  0  0
  4  3  1  0  0  0  0
  4  5  1  0  0  0  0
  5 14  1  0  0  0  0
  5  6  1  0  0  0  0
  6  1  1  0  0  0  0
  6 26  1  0  0  0  0
  6 16  1  1  0  0  0
  8  2  1  0  0  0  0
 10  3  1  0  0  0  0
 12  4  1  0  0  0  0
 13  4  1  0  0  0  0
 15  5  1  0  0  0  0
 17 22  1  0  0  0  0
 18 19  1  0  0  0  0
 18 17  2  0  0  0  0
 19 20  2  0  0  0  0
 20 21  1  0  0  0  0
 21 25  1  0  0  0  0
 22 21  2  0  0  0  0
 23 17  1  0  0  0  0
 24 18  1  0  0  0  0
 26 27  1  0  0  0  0
 27 28  2  0  0  0  0
 27 32  1  0  0  0  0
 28 33  1  0  0  0  0
 29 34  1  0  0  0  0
 29 28  1  0  0  0  0
 30 29  2  0  0  0  0
 31 30  1  0  0  0  0
 31 26  2  0  0  0  0
 35 30  1  0  0  0  0
 36 35  2  0  0  0  0
 37 35  1  0  0  0  0
 37 39  1  0  0  0  0
 38 37  1  0  0  0  0
 39 41  1  0  0  0  0
 39 40  1  0  0  0  0
 42 39  1  0  0  0  0
 43 42  1  0  0  0  0
M  END
>  <minimizedAffinity>
-5.33251619

>  <minimizedRMSD>
0.822702587

$$$$
