
 OpenBabel03252508003D

 27 28  0  0  1  0  0  0  0  0999 V2000
   46.2160   34.7700   43.2710 C   0  0  0  0  0  0  0  0  0  0  0  0
   45.2570   35.7660   43.6260 C   0  0  0  0  0  0  0  0  0  0  0  0
   44.6210   35.5810   44.8530 C   0  0  0  0  0  0  0  0  0  0  0  0
   44.9420   34.5020   45.6090 N   0  0  0  0  0  0  0  0  0  0  0  0
   45.8800   33.5880   45.1910 C   0  0  0  0  0  0  0  0  0  0  0  0
   46.5220   33.6980   44.0450 N   0  0  0  0  0  0  0  0  0  0  0  0
   45.0730   36.5870   42.9530 H   0  0  0  0  0  0  0  0  0  0  0  0
   43.8870   36.3110   45.1630 H   0  0  0  0  0  0  0  0  0  0  0  0
   46.1880   32.4260   46.0770 C   0  0  1  0  0  0  0  0  0  0  0  0
   47.0270   32.6540   47.3110 C   0  0  0  0  0  0  0  0  0  0  0  0
   45.5350   32.4790   47.4040 C   0  0  1  0  0  0  0  0  0  0  0  0
   46.3610   31.5020   45.5140 H   0  0  0  0  0  0  0  0  0  0  0  0
   47.6910   31.8300   47.5830 H   0  0  0  0  0  0  0  0  0  0  0  0
   47.4990   33.6430   47.3570 H   0  0  0  0  0  0  0  0  0  0  0  0
   45.1950   31.5150   47.8020 H   0  0  0  0  0  0  0  0  0  0  0  0
   44.8780   33.7170   47.8320 N   0  0  0  0  0  0  0  0  0  0  0  0
   43.8490   33.5650   47.8210 H   0  0  0  0  0  0  0  0  0  0  0  0
   45.2080   34.0020   48.7920 H   0  0  0  0  0  0  0  0  0  0  0  0
   46.8770   34.9720   41.9930 C   0  0  0  0  0  0  0  0  0  0  0  0
   48.0550   35.4630   41.8770 O   0  0  0  0  0  0  0  0  0  0  0  0
   46.1450   34.5920   40.8150 N   0  0  0  0  0  0  0  0  0  0  0  0
   45.5200   35.2950   40.3290 H   0  0  0  0  0  0  0  0  0  0  0  0
   46.2780   32.9840   40.1780 S   0  0  0  0  0  0  0  0  0  0  0  0
   45.4780   32.0600   41.0540 O   0  0  0  0  0  1  0  0  0  0  0  0
   47.7430   32.6030   40.1680 O   0  0  0  0  0  1  0  0  0  0  0  0
   45.6730   32.9340   38.6170 O   0  0  0  0  0  0  0  0  0  0  0  0
   44.6790   32.8130   38.6260 H   0  0  0  0  0  0  0  0  0  0  0  0
  1  2  2  0  0  0  0
  1  6  1  0  0  0  0
  2  3  1  0  0  0  0
  3  8  1  0  0  0  0
  3  4  2  0  0  0  0
  5  4  1  0  0  0  0
  5  9  1  0  0  0  0
  6  5  2  0  0  0  0
  7  2  1  0  0  0  0
  9 12  1  6  0  0  0
  9 10  1  0  0  0  0
  9 11  1  0  0  0  0
 10 14  1  0  0  0  0
 10 11  1  0  0  0  0
 10 13  1  0  0  0  0
 11 15  1  1  0  0  0
 11 16  1  0  0  0  0
 16 18  1  0  0  0  0
 17 16  1  0  0  0  0
 19  1  1  0  0  0  0
 20 19  2  0  0  0  0
 21 19  1  0  0  0  0
 22 21  1  0  0  0  0
 23 21  1  0  0  0  0
 23 24  1  0  0  0  0
 25 23  1  0  0  0  0
 26 27  1  0  0  0  0
 26 23  1  0  0  0  0
M  END
>  <minimizedAffinity>
-5.14222336

>  <minimizedRMSD>
0.277455062

$$$$
