
 OpenBabel03252501323D

 22 22  0  0  0  0  0  0  0  0999 V2000
   45.2570   34.9870   44.0590 C   0  0  0  0  0  0  0  0  0  0  0  0
   45.1800   34.5760   45.3800 C   0  0  0  0  0  0  0  0  0  0  0  0
   46.0710   33.5880   45.7820 C   0  0  0  0  0  0  0  0  0  0  0  0
   46.9350   33.1030   44.8730 N   0  0  0  0  0  0  0  0  0  0  0  0
   46.9900   33.5140   43.6050 C   0  0  0  0  0  0  0  0  0  0  0  0
   46.1440   34.4720   43.1710 N   0  0  0  0  0  0  0  0  0  0  0  0
   45.9940   33.2870   46.8020 H   0  0  0  0  0  0  0  0  0  0  0  0
   47.6760   33.1380   42.8570 H   0  0  0  0  0  0  0  0  0  0  0  0
   43.6150   35.3630   42.4340 C   0  0  0  0  0  0  0  0  0  0  0  0
   43.8230   34.1180   42.3670 O   0  0  0  0  0  0  0  0  0  0  0  0
   44.4350   35.9930   43.4320 N   0  0  0  0  0  0  0  0  0  0  0  0
   44.3850   36.9970   43.6100 H   0  0  0  0  0  0  0  0  0  0  0  0
   42.6910   36.1270   41.6460 N   0  0  0  0  0  0  0  0  0  0  0  0
   42.9340   37.1300   41.4480 H   0  0  0  0  0  0  0  0  0  0  0  0
   41.2790   35.3310   41.1030 S   0  0  0  0  0  0  0  0  0  0  0  0
   40.5870   34.6600   42.2770 O   0  0  0  0  0  0  0  0  0  0  0  0
   41.5290   34.3410   40.0060 O   0  0  0  0  0  0  0  0  0  0  0  0
   40.1990   36.4940   40.5490 O   0  0  0  0  0  0  0  0  0  0  0  0
   40.3340   37.2920   41.1230 H   0  0  0  0  0  0  0  0  0  0  0  0
   44.1990   35.2140   46.1740 N   0  0  0  0  0  0  0  0  0  0  0  0
   44.3230   36.0450   46.7620 H   0  0  0  0  0  0  0  0  0  0  0  0
   43.2080   34.8590   46.2190 H   0  0  0  0  0  0  0  0  0  0  0  0
  1  2  1  0  0  0  0
  2  3  2  0  0  0  0
  2 20  1  0  0  0  0
  3  7  1  0  0  0  0
  4  3  1  0  0  0  0
  5  4  2  0  0  0  0
  6  5  1  0  0  0  0
  6  1  2  0  0  0  0
  8  5  1  0  0  0  0
  9 11  1  0  0  0  0
 10  9  2  0  0  0  0
 11 12  1  0  0  0  0
 11  1  1  0  0  0  0
 13  9  1  0  0  0  0
 14 13  1  0  0  0  0
 15 13  1  0  0  0  0
 15 16  1  0  0  0  0
 17 15  1  0  0  0  0
 18 15  1  0  0  0  0
 18 19  1  0  0  0  0
 20 22  1  0  0  0  0
 20 21  1  0  0  0  0
M  END
>  <minimizedAffinity>
-5.08083439

>  <minimizedRMSD>
0.992265582

$$$$
