
 OpenBabel03242515013D

 35 36  0  0  0  0  0  0  0  0999 V2000
   43.7790   34.9270   40.7950 S   0  0  0  0  0  0  0  0  0  0  0  0
   45.0590   34.5690   42.0060 C   0  0  0  0  0  0  0  0  0  0  0  0
   46.3810   34.7020   41.5870 C   0  0  0  0  0  0  0  0  0  0  0  0
   47.3970   34.4340   42.4940 C   0  0  0  0  0  0  0  0  0  0  0  0
   47.0540   34.0520   43.7580 N   0  0  0  0  0  0  0  0  0  0  0  0
   45.7790   33.9310   44.1380 C   0  0  0  0  0  0  0  0  0  0  0  0
   44.7820   34.1870   43.2720 N   0  0  0  0  0  0  0  0  0  0  0  0
   46.6990   35.0010   40.5960 H   0  0  0  0  0  0  0  0  0  0  0  0
   48.4360   34.5260   42.2080 H   0  0  0  0  0  0  0  0  0  0  0  0
   45.4950   33.5160   45.5130 C   0  0  0  0  0  0  0  0  0  0  0  0
   45.0380   34.3990   46.3040 O   0  0  0  0  0  0  0  0  0  0  0  0
   45.7490   32.1640   45.8640 N   0  0  0  0  0  0  0  0  0  0  0  0
   45.6620   31.4230   45.1240 H   0  0  0  0  0  0  0  0  0  0  0  0
   46.1870   31.8190   47.4850 S   0  0  0  0  0  0  0  0  0  0  0  0
   45.0930   32.0530   48.4690 O   0  0  0  0  0  1  0  0  0  0  0  0
   47.3780   32.6410   47.9300 O   0  0  0  0  0  1  0  0  0  0  0  0
   46.6660   30.1910   47.5450 O   0  0  0  0  0  0  0  0  0  0  0  0
   46.2470   29.6960   46.7780 H   0  0  0  0  0  0  0  0  0  0  0  0
   42.1320   34.9260   41.5030 C   0  0  0  0  0  0  0  0  0  0  0  0
   42.2110   35.2600   42.5670 H   0  0  0  0  0  0  0  0  0  0  0  0
   41.6700   33.9180   41.5670 H   0  0  0  0  0  0  0  0  0  0  0  0
   41.2050   35.8850   40.8270 C   0  0  0  0  0  0  0  0  0  0  0  0
   41.8410   36.6120   40.2430 H   0  0  0  0  0  0  0  0  0  0  0  0
   40.6150   36.5170   41.5260 H   0  0  0  0  0  0  0  0  0  0  0  0
   41.9860   36.1390   37.8900 Cl  0  0  0  0  0  0  0  0  0  0  0  0
   40.6060   35.2460   38.4680 C   0  0  0  0  0  0  0  0  0  0  0  0
   40.3340   35.1910   39.8400 C   0  0  0  0  0  0  0  0  0  0  0  0
   39.2250   34.4650   40.2110 C   0  0  0  0  0  0  0  0  0  0  0  0
   38.3560   33.7870   39.3680 C   0  0  0  0  0  0  0  0  0  0  0  0
   38.6550   33.8620   38.0080 C   0  0  0  0  0  0  0  0  0  0  0  0
   37.6170   33.0370   36.8510 Cl  0  0  0  0  0  0  0  0  0  0  0  0
   39.7500   34.5740   37.5860 C   0  0  0  0  0  0  0  0  0  0  0  0
   39.0500   34.4460   41.2830 H   0  0  0  0  0  0  0  0  0  0  0  0
   37.5130   33.2430   39.7500 H   0  0  0  0  0  0  0  0  0  0  0  0
   39.9330   34.5960   36.5180 H   0  0  0  0  0  0  0  0  0  0  0  0
  1 19  1  0  0  0  0
  1  2  1  0  0  0  0
  2  7  1  0  0  0  0
  3  2  2  0  0  0  0
  3  4  1  0  0  0  0
  4  5  2  0  0  0  0
  5  6  1  0  0  0  0
  6 10  1  0  0  0  0
  7  6  2  0  0  0  0
  8  3  1  0  0  0  0
  9  4  1  0  0  0  0
 10 12  1  0  0  0  0
 10 11  2  0  0  0  0
 12 14  1  0  0  0  0
 13 12  1  0  0  0  0
 14 17  1  0  0  0  0
 14 16  1  0  0  0  0
 14 15  1  0  0  0  0
 18 17  1  0  0  0  0
 19 21  1  0  0  0  0
 19 20  1  0  0  0  0
 22 19  1  0  0  0  0
 22 24  1  0  0  0  0
 23 22  1  0  0  0  0
 25 26  1  0  0  0  0
 26 27  1  0  0  0  0
 27 28  2  0  0  0  0
 27 22  1  0  0  0  0
 28 33  1  0  0  0  0
 29 34  1  0  0  0  0
 29 28  1  0  0  0  0
 30 29  2  0  0  0  0
 31 30  1  0  0  0  0
 32 30  1  0  0  0  0
 32 26  2  0  0  0  0
 35 32  1  0  0  0  0
M  END
>  <minimizedAffinity>
-6.54317474

>  <minimizedRMSD>
0.856790602

$$$$
