
 OpenBabel03252508013D

 27 28  0  0  1  0  0  0  0  0999 V2000
   46.1590   34.6490   43.3490 C   0  0  0  0  0  0  0  0  0  0  0  0
   45.2480   35.6650   43.7700 C   0  0  0  0  0  0  0  0  0  0  0  0
   44.6890   35.4870   45.0360 C   0  0  0  0  0  0  0  0  0  0  0  0
   45.0330   34.3960   45.7640 N   0  0  0  0  0  0  0  0  0  0  0  0
   45.9200   33.4630   45.2810 C   0  0  0  0  0  0  0  0  0  0  0  0
   46.4890   33.5650   44.0960 N   0  0  0  0  0  0  0  0  0  0  0  0
   45.0400   36.4940   43.1160 H   0  0  0  0  0  0  0  0  0  0  0  0
   43.9930   36.2310   45.3960 H   0  0  0  0  0  0  0  0  0  0  0  0
   46.2570   32.2880   46.1400 C   0  0  1  0  0  0  0  0  0  0  0  0
   47.0180   32.5190   47.4230 C   0  0  0  0  0  0  0  0  0  0  0  0
   45.5370   32.2490   47.4320 C   0  0  1  0  0  0  0  0  0  0  0  0
   46.5160   31.3990   45.5540 H   0  0  0  0  0  0  0  0  0  0  0  0
   47.7180   31.7280   47.6990 H   0  0  0  0  0  0  0  0  0  0  0  0
   47.4220   33.5330   47.5290 H   0  0  0  0  0  0  0  0  0  0  0  0
   45.2390   31.2510   47.7770 H   0  0  0  0  0  0  0  0  0  0  0  0
   44.7810   33.4260   47.8700 N   0  0  0  0  0  0  0  0  0  0  0  0
   43.7670   33.2110   47.8000 H   0  0  0  0  0  0  0  0  0  0  0  0
   45.0450   33.6930   48.8550 H   0  0  0  0  0  0  0  0  0  0  0  0
   46.7400   34.8440   42.0320 C   0  0  0  0  0  0  0  0  0  0  0  0
   47.7310   35.6250   41.8060 O   0  0  0  0  0  0  0  0  0  0  0  0
   46.1510   34.1080   40.9460 N   0  0  0  0  0  0  0  0  0  0  0  0
   46.7700   33.6130   40.2440 H   0  0  0  0  0  0  0  0  0  0  0  0
   44.4280   34.0240   40.7730 S   0  0  0  0  0  0  0  0  0  0  0  0
   43.8710   35.4140   40.9080 O   0  0  0  0  0  1  0  0  0  0  0  0
   43.8940   33.1070   41.8530 O   0  0  0  0  0  1  0  0  0  0  0  0
   44.0320   33.4100   39.2670 O   0  0  0  0  0  0  0  0  0  0  0  0
   44.0320   34.1340   38.5760 H   0  0  0  0  0  0  0  0  0  0  0  0
  1  2  2  0  0  0  0
  1  6  1  0  0  0  0
  2  3  1  0  0  0  0
  3  8  1  0  0  0  0
  3  4  2  0  0  0  0
  5  4  1  0  0  0  0
  5  9  1  0  0  0  0
  6  5  2  0  0  0  0
  7  2  1  0  0  0  0
  9 12  1  6  0  0  0
  9 10  1  0  0  0  0
  9 11  1  0  0  0  0
 10 11  1  0  0  0  0
 10 14  1  0  0  0  0
 10 13  1  0  0  0  0
 11 15  1  1  0  0  0
 11 16  1  0  0  0  0
 16 18  1  0  0  0  0
 17 16  1  0  0  0  0
 19  1  1  0  0  0  0
 20 19  2  0  0  0  0
 21 19  1  0  0  0  0
 22 21  1  0  0  0  0
 23 24  1  0  0  0  0
 23 21  1  0  0  0  0
 23 25  1  0  0  0  0
 26 23  1  0  0  0  0
 27 26  1  0  0  0  0
M  END
>  <minimizedAffinity>
-5.28482628

>  <minimizedRMSD>
0.442753047

$$$$
