
 OpenBabel03242514183D

 39 40  0  0  0  0  0  0  0  0999 V2000
   38.0320   27.1160   41.9400 C   0  0  0  0  0  0  0  0  0  0  0  0
   37.5870   28.4220   42.0560 C   0  0  0  0  0  0  0  0  0  0  0  0
   38.4910   29.3430   42.5260 C   0  0  0  0  0  0  0  0  0  0  0  0
   39.7540   28.9380   42.8490 N   0  0  0  0  0  0  0  0  0  0  0  0
   40.1660   27.6810   42.7320 C   0  0  0  0  0  0  0  0  0  0  0  0
   39.2940   26.7960   42.2790 N   0  0  0  0  0  0  0  0  0  0  0  0
   38.4110   30.3980   42.7130 H   0  0  0  0  0  0  0  0  0  0  0  0
   41.1600   27.3340   42.9790 H   0  0  0  0  0  0  0  0  0  0  0  0
   37.0400   26.1460   41.4800 C   0  0  0  0  0  0  0  0  0  0  0  0
   37.0050   24.8730   42.1820 C   0  0  0  0  0  0  0  0  0  0  0  0
   37.4170   23.7330   41.3410 C   0  0  0  0  0  0  0  0  0  0  0  0
   36.5240   23.6250   40.1090 C   0  0  0  0  0  0  0  0  0  0  0  0
   36.2610   24.9360   39.4550 C   0  0  0  0  0  0  0  0  0  0  0  0
   37.1900   26.0200   39.9700 C   0  0  0  0  0  0  0  0  0  0  0  0
   36.0010   26.5940   41.5350 H   0  0  0  0  0  0  0  0  0  0  0  0
   37.7200   24.9100   43.0530 H   0  0  0  0  0  0  0  0  0  0  0  0
   36.0340   24.6040   42.6760 H   0  0  0  0  0  0  0  0  0  0  0  0
   38.4970   23.7230   41.0760 H   0  0  0  0  0  0  0  0  0  0  0  0
   37.2530   22.7800   41.9070 H   0  0  0  0  0  0  0  0  0  0  0  0
   35.5770   23.1360   40.3560 H   0  0  0  0  0  0  0  0  0  0  0  0
   37.0480   22.9720   39.3820 H   0  0  0  0  0  0  0  0  0  0  0  0
   36.3970   24.8730   38.3510 H   0  0  0  0  0  0  0  0  0  0  0  0
   35.2180   25.2820   39.6270 H   0  0  0  0  0  0  0  0  0  0  0  0
   36.9520   26.9800   39.5130 H   0  0  0  0  0  0  0  0  0  0  0  0
   38.2210   25.7440   39.6840 H   0  0  0  0  0  0  0  0  0  0  0  0
   36.4310   29.0090   41.8000 O   0  0  0  0  0  0  0  0  0  0  0  0
   35.7000   29.2630   40.6740 C   0  0  0  0  0  0  0  0  0  0  0  0
   34.6450   29.4860   40.9330 H   0  0  0  0  0  0  0  0  0  0  0  0
   35.6550   28.4150   39.9510 H   0  0  0  0  0  0  0  0  0  0  0  0
   36.1680   30.4680   39.8770 C   0  0  0  0  0  0  0  0  0  0  0  0
   37.1690   30.1850   39.4570 H   0  0  0  0  0  0  0  0  0  0  0  0
   35.4380   30.7010   39.0970 H   0  0  0  0  0  0  0  0  0  0  0  0
   36.3700   31.6360   40.7020 N   0  0  0  0  0  0  0  0  0  0  0  0
   36.7140   31.3680   41.6610 H   0  0  0  0  0  0  0  0  0  0  0  0
   37.5880   32.6100   39.9190 S   0  0  0  0  0  0  0  0  0  0  0  0
   38.2270   31.8720   38.7960 O   0  0  0  0  0  1  0  0  0  0  0  0
   38.6030   32.9680   40.9620 O   0  0  0  0  0  1  0  0  0  0  0  0
   36.9210   34.0390   39.3410 O   0  0  0  0  0  0  0  0  0  0  0  0
   36.6630   34.6490   40.0770 H   0  0  0  0  0  0  0  0  0  0  0  0
  1  2  2  0  0  0  0
  1  6  1  0  0  0  0
  2  3  1  0  0  0  0
  3  7  1  0  0  0  0
  3  4  2  0  0  0  0
  5  4  1  0  0  0  0
  5  8  1  0  0  0  0
  6  5  2  0  0  0  0
  9 15  1  0  0  0  0
  9  1  1  0  0  0  0
  9 10  1  0  0  0  0
 10 17  1  0  0  0  0
 10 16  1  0  0  0  0
 11 19  1  0  0  0  0
 11 10  1  0  0  0  0
 12 20  1  0  0  0  0
 12 11  1  0  0  0  0
 13 23  1  0  0  0  0
 13 14  1  0  0  0  0
 13 12  1  0  0  0  0
 14  9  1  0  0  0  0
 18 11  1  0  0  0  0
 21 12  1  0  0  0  0
 22 13  1  0  0  0  0
 24 14  1  0  0  0  0
 25 14  1  0  0  0  0
 26  2  1  0  0  0  0
 27 28  1  0  0  0  0
 27 26  1  0  0  0  0
 29 27  1  0  0  0  0
 30 27  1  0  0  0  0
 30 33  1  0  0  0  0
 31 30  1  0  0  0  0
 32 30  1  0  0  0  0
 33 34  1  0  0  0  0
 35 33  1  0  0  0  0
 35 37  1  0  0  0  0
 36 35  1  0  0  0  0
 38 35  1  0  0  0  0
 38 39  1  0  0  0  0
M  END
>  <minimizedAffinity>
-5.19067287

$$$$

 OpenBabel03242514183D

 39 40  0  0  0  0  0  0  0  0999 V2000
   36.8050   29.1550   41.2750 C   0  0  0  0  0  0  0  0  0  0  0  0
   37.8150   29.9070   41.8500 C   0  0  0  0  0  0  0  0  0  0  0  0
   38.3590   29.4230   43.0150 C   0  0  0  0  0  0  0  0  0  0  0  0
   37.8900   28.2530   43.5370 N   0  0  0  0  0  0  0  0  0  0  0  0
   36.9210   27.5420   42.9730 C   0  0  0  0  0  0  0  0  0  0  0  0
   36.3990   28.0090   41.8520 N   0  0  0  0  0  0  0  0  0  0  0  0
   39.1330   29.8000   43.6570 H   0  0  0  0  0  0  0  0  0  0  0  0
   36.5330   26.6120   43.3650 H   0  0  0  0  0  0  0  0  0  0  0  0
   36.2110   29.7110   40.0610 C   0  0  0  0  0  0  0  0  0  0  0  0
   34.8210   29.3690   39.8040 C   0  0  0  0  0  0  0  0  0  0  0  0
   34.6410   28.5220   38.6100 C   0  0  0  0  0  0  0  0  0  0  0  0
   35.2000   29.2140   37.3710 C   0  0  0  0  0  0  0  0  0  0  0  0
   36.5260   29.8520   37.6010 C   0  0  0  0  0  0  0  0  0  0  0  0
   37.1520   29.3980   38.9050 C   0  0  0  0  0  0  0  0  0  0  0  0
   36.2870   30.8420   40.0710 H   0  0  0  0  0  0  0  0  0  0  0  0
   34.4140   28.7880   40.6800 H   0  0  0  0  0  0  0  0  0  0  0  0
   34.1030   30.2290   39.7290 H   0  0  0  0  0  0  0  0  0  0  0  0
   35.0280   27.4850   38.7190 H   0  0  0  0  0  0  0  0  0  0  0  0
   33.5460   28.3980   38.4080 H   0  0  0  0  0  0  0  0  0  0  0  0
   34.4930   29.9540   36.9860 H   0  0  0  0  0  0  0  0  0  0  0  0
   35.3180   28.4370   36.5880 H   0  0  0  0  0  0  0  0  0  0  0  0
   37.2410   29.6080   36.7810 H   0  0  0  0  0  0  0  0  0  0  0  0
   36.4500   30.9610   37.6360 H   0  0  0  0  0  0  0  0  0  0  0  0
   38.0990   29.9090   39.0770 H   0  0  0  0  0  0  0  0  0  0  0  0
   37.3510   28.3140   38.8250 H   0  0  0  0  0  0  0  0  0  0  0  0
   38.4020   31.0410   41.5100 O   0  0  0  0  0  0  0  0  0  0  0  0
   39.6950   31.4640   41.3810 C   0  0  0  0  0  0  0  0  0  0  0  0
   40.3440   30.6390   41.0260 H   0  0  0  0  0  0  0  0  0  0  0  0
   40.1610   31.8230   42.3280 H   0  0  0  0  0  0  0  0  0  0  0  0
   39.8940   32.5790   40.3690 C   0  0  0  0  0  0  0  0  0  0  0  0
   39.6410   33.5290   40.9080 H   0  0  0  0  0  0  0  0  0  0  0  0
   40.9250   32.5670   40.0060 H   0  0  0  0  0  0  0  0  0  0  0  0
   38.9940   32.4780   39.2440 N   0  0  0  0  0  0  0  0  0  0  0  0
   38.5280   33.4030   39.0480 H   0  0  0  0  0  0  0  0  0  0  0  0
   39.9550   32.0260   37.8600 S   0  0  0  0  0  0  0  0  0  0  0  0
   40.3520   30.5930   37.9240 O   0  0  0  0  0  1  0  0  0  0  0  0
   41.1660   32.9100   37.8560 O   0  0  0  0  0  1  0  0  0  0  0  0
   39.1110   32.3080   36.4360 O   0  0  0  0  0  0  0  0  0  0  0  0
   39.0010   33.2760   36.2580 H   0  0  0  0  0  0  0  0  0  0  0  0
  1  2  2  0  0  0  0
  1  6  1  0  0  0  0
  2  3  1  0  0  0  0
  3  4  2  0  0  0  0
  3  7  1  0  0  0  0
  5  8  1  0  0  0  0
  5  4  1  0  0  0  0
  6  5  2  0  0  0  0
  9 15  1  0  0  0  0
  9  1  1  0  0  0  0
 10  9  1  0  0  0  0
 10 16  1  0  0  0  0
 11 18  1  0  0  0  0
 11 10  1  0  0  0  0
 12 13  1  0  0  0  0
 12 11  1  0  0  0  0
 13 23  1  0  0  0  0
 13 14  1  0  0  0  0
 14 24  1  0  0  0  0
 14  9  1  0  0  0  0
 17 10  1  0  0  0  0
 19 11  1  0  0  0  0
 20 12  1  0  0  0  0
 21 12  1  0  0  0  0
 22 13  1  0  0  0  0
 25 14  1  0  0  0  0
 26  2  1  0  0  0  0
 27 26  1  0  0  0  0
 27 29  1  0  0  0  0
 28 27  1  0  0  0  0
 30 31  1  0  0  0  0
 30 27  1  0  0  0  0
 32 30  1  0  0  0  0
 33 30  1  0  0  0  0
 34 33  1  0  0  0  0
 35 36  1  0  0  0  0
 35 33  1  0  0  0  0
 37 35  1  0  0  0  0
 38 35  1  0  0  0  0
 39 38  1  0  0  0  0
M  END
>  <minimizedAffinity>
-4.94467735

$$$$

 OpenBabel03242514183D

 39 40  0  0  0  0  0  0  0  0999 V2000
   37.3230   29.1830   39.9660 C   0  0  0  0  0  0  0  0  0  0  0  0
   37.0020   30.4410   39.4840 C   0  0  0  0  0  0  0  0  0  0  0  0
   36.8850   30.5690   38.1220 C   0  0  0  0  0  0  0  0  0  0  0  0
   37.0850   29.4780   37.3270 N   0  0  0  0  0  0  0  0  0  0  0  0
   37.3910   28.2780   37.8040 C   0  0  0  0  0  0  0  0  0  0  0  0
   37.5040   28.1560   39.1160 N   0  0  0  0  0  0  0  0  0  0  0  0
   36.6550   31.4120   37.4970 H   0  0  0  0  0  0  0  0  0  0  0  0
   37.5540   27.3980   37.1970 H   0  0  0  0  0  0  0  0  0  0  0  0
   37.4850   29.0800   41.4150 C   0  0  0  0  0  0  0  0  0  0  0  0
   38.8500   29.1130   41.9180 C   0  0  0  0  0  0  0  0  0  0  0  0
   39.2760   27.8400   42.5280 C   0  0  0  0  0  0  0  0  0  0  0  0
   38.3500   27.4590   43.6790 C   0  0  0  0  0  0  0  0  0  0  0  0
   36.9080   27.6530   43.3650 C   0  0  0  0  0  0  0  0  0  0  0  0
   36.6790   27.8750   41.8820 C   0  0  0  0  0  0  0  0  0  0  0  0
   36.9120   29.9090   41.9330 H   0  0  0  0  0  0  0  0  0  0  0  0
   39.5550   29.3160   41.0630 H   0  0  0  0  0  0  0  0  0  0  0  0
   39.0950   29.9390   42.6370 H   0  0  0  0  0  0  0  0  0  0  0  0
   39.4070   27.0040   41.8060 H   0  0  0  0  0  0  0  0  0  0  0  0
   40.2850   27.9740   42.9950 H   0  0  0  0  0  0  0  0  0  0  0  0
   38.6100   28.0130   44.5870 H   0  0  0  0  0  0  0  0  0  0  0  0
   38.5190   26.3850   43.8940 H   0  0  0  0  0  0  0  0  0  0  0  0
   36.3040   26.7680   43.6690 H   0  0  0  0  0  0  0  0  0  0  0  0
   36.4810   28.5280   43.9020 H   0  0  0  0  0  0  0  0  0  0  0  0
   35.6250   28.0590   41.6770 H   0  0  0  0  0  0  0  0  0  0  0  0
   36.9810   26.9530   41.3520 H   0  0  0  0  0  0  0  0  0  0  0  0
   36.7690   31.6020   40.0730 O   0  0  0  0  0  0  0  0  0  0  0  0
   37.4640   32.7670   40.2280 C   0  0  0  0  0  0  0  0  0  0  0  0
   37.2450   33.2270   41.2130 H   0  0  0  0  0  0  0  0  0  0  0  0
   37.2240   33.5530   39.4740 H   0  0  0  0  0  0  0  0  0  0  0  0
   38.9740   32.6090   40.2000 C   0  0  0  0  0  0  0  0  0  0  0  0
   39.3420   33.0170   41.1780 H   0  0  0  0  0  0  0  0  0  0  0  0
   39.2320   31.5550   40.0640 H   0  0  0  0  0  0  0  0  0  0  0  0
   39.5970   33.3880   39.1550 N   0  0  0  0  0  0  0  0  0  0  0  0
   40.3320   34.0320   39.5500 H   0  0  0  0  0  0  0  0  0  0  0  0
   40.3630   32.2610   38.0650 S   0  0  0  0  0  0  0  0  0  0  0  0
   40.3400   30.8790   38.6170 O   0  0  0  0  0  1  0  0  0  0  0  0
   41.7730   32.7280   37.8690 O   0  0  0  0  0  1  0  0  0  0  0  0
   39.6040   32.2780   36.5670 O   0  0  0  0  0  0  0  0  0  0  0  0
   39.7680   33.1240   36.0800 H   0  0  0  0  0  0  0  0  0  0  0  0
  1  9  1  0  0  0  0
  2  1  1  0  0  0  0
  2 26  1  0  0  0  0
  3  2  2  0  0  0  0
  4  5  2  0  0  0  0
  4  3  1  0  0  0  0
  5  6  1  0  0  0  0
  6  1  2  0  0  0  0
  7  3  1  0  0  0  0
  8  5  1  0  0  0  0
  9 14  1  0  0  0  0
  9 10  1  0  0  0  0
  9 15  1  0  0  0  0
 10 11  1  0  0  0  0
 10 17  1  0  0  0  0
 11 19  1  0  0  0  0
 11 12  1  0  0  0  0
 12 21  1  0  0  0  0
 12 20  1  0  0  0  0
 13 22  1  0  0  0  0
 13 12  1  0  0  0  0
 13 23  1  0  0  0  0
 14 13  1  0  0  0  0
 16 10  1  0  0  0  0
 18 11  1  0  0  0  0
 24 14  1  0  0  0  0
 25 14  1  0  0  0  0
 26 27  1  0  0  0  0
 27 28  1  0  0  0  0
 29 27  1  0  0  0  0
 30 27  1  0  0  0  0
 30 31  1  0  0  0  0
 32 30  1  0  0  0  0
 33 34  1  0  0  0  0
 33 30  1  0  0  0  0
 35 36  1  0  0  0  0
 35 33  1  0  0  0  0
 37 35  1  0  0  0  0
 38 35  1  0  0  0  0
 39 38  1  0  0  0  0
M  END
>  <minimizedAffinity>
-4.84599972

$$$$

 OpenBabel03242514183D

 39 40  0  0  0  0  0  0  0  0999 V2000
   37.6690   29.4300   41.7620 C   0  0  0  0  0  0  0  0  0  0  0  0
   38.4910   28.6820   40.9370 C   0  0  0  0  0  0  0  0  0  0  0  0
   39.0230   27.5340   41.4710 C   0  0  0  0  0  0  0  0  0  0  0  0
   38.7240   27.1930   42.7590 N   0  0  0  0  0  0  0  0  0  0  0  0
   37.9330   27.9210   43.5380 C   0  0  0  0  0  0  0  0  0  0  0  0
   37.4220   29.0260   43.0210 N   0  0  0  0  0  0  0  0  0  0  0  0
   39.6800   26.7880   41.0630 H   0  0  0  0  0  0  0  0  0  0  0  0
   37.6790   27.6740   44.5600 H   0  0  0  0  0  0  0  0  0  0  0  0
   37.1500   30.6690   41.1870 C   0  0  0  0  0  0  0  0  0  0  0  0
   36.2530   30.5310   40.0500 C   0  0  0  0  0  0  0  0  0  0  0  0
   36.8180   31.0600   38.7950 C   0  0  0  0  0  0  0  0  0  0  0  0
   37.1750   32.5350   38.9460 C   0  0  0  0  0  0  0  0  0  0  0  0
   37.8670   32.8460   40.2270 C   0  0  0  0  0  0  0  0  0  0  0  0
   38.3380   31.5890   40.9340 C   0  0  0  0  0  0  0  0  0  0  0  0
   36.6060   31.2700   41.9790 H   0  0  0  0  0  0  0  0  0  0  0  0
   36.0420   29.4370   39.8760 H   0  0  0  0  0  0  0  0  0  0  0  0
   35.2240   30.9610   40.1740 H   0  0  0  0  0  0  0  0  0  0  0  0
   37.6660   30.4670   38.3850 H   0  0  0  0  0  0  0  0  0  0  0  0
   36.0350   31.0280   37.9960 H   0  0  0  0  0  0  0  0  0  0  0  0
   36.2850   33.1630   38.8420 H   0  0  0  0  0  0  0  0  0  0  0  0
   37.8560   32.7950   38.1110 H   0  0  0  0  0  0  0  0  0  0  0  0
   38.7580   33.4930   40.0610 H   0  0  0  0  0  0  0  0  0  0  0  0
   37.2040   33.3960   40.9330 H   0  0  0  0  0  0  0  0  0  0  0  0
   38.8010   31.8340   41.8890 H   0  0  0  0  0  0  0  0  0  0  0  0
   39.0970   31.1060   40.2920 H   0  0  0  0  0  0  0  0  0  0  0  0
   38.8950   28.8320   39.6870 O   0  0  0  0  0  0  0  0  0  0  0  0
   40.1050   28.8440   39.0530 C   0  0  0  0  0  0  0  0  0  0  0  0
   40.2070   27.9660   38.3850 H   0  0  0  0  0  0  0  0  0  0  0  0
   40.9860   28.8020   39.7360 H   0  0  0  0  0  0  0  0  0  0  0  0
   40.3320   30.0460   38.1530 C   0  0  0  0  0  0  0  0  0  0  0  0
   40.8970   29.6590   37.2650 H   0  0  0  0  0  0  0  0  0  0  0  0
   39.3700   30.4870   37.8770 H   0  0  0  0  0  0  0  0  0  0  0  0
   41.1570   31.0570   38.7720 N   0  0  0  0  0  0  0  0  0  0  0  0
   42.1550   30.7290   38.8610 H   0  0  0  0  0  0  0  0  0  0  0  0
   41.1160   32.4570   37.7310 S   0  0  0  0  0  0  0  0  0  0  0  0
   42.3810   32.5910   36.9580 O   0  0  0  0  0  1  0  0  0  0  0  0
   40.9050   33.6530   38.6100 O   0  0  0  0  0  1  0  0  0  0  0  0
   39.8180   32.3680   36.6690 O   0  0  0  0  0  0  0  0  0  0  0  0
   38.9520   32.4770   37.1350 H   0  0  0  0  0  0  0  0  0  0  0  0
  1  6  1  0  0  0  0
  2  3  1  0  0  0  0
  2  1  2  0  0  0  0
  3  4  2  0  0  0  0
  4  5  1  0  0  0  0
  5  8  1  0  0  0  0
  6  5  2  0  0  0  0
  7  3  1  0  0  0  0
  9  1  1  0  0  0  0
  9 15  1  0  0  0  0
 10 17  1  0  0  0  0
 10  9  1  0  0  0  0
 11 12  1  0  0  0  0
 11 10  1  0  0  0  0
 12 13  1  0  0  0  0
 13 23  1  0  0  0  0
 13 14  1  0  0  0  0
 14  9  1  0  0  0  0
 14 24  1  0  0  0  0
 16 10  1  0  0  0  0
 18 11  1  0  0  0  0
 19 11  1  0  0  0  0
 20 12  1  0  0  0  0
 21 12  1  0  0  0  0
 22 13  1  0  0  0  0
 25 14  1  0  0  0  0
 26  2  1  0  0  0  0
 27 26  1  0  0  0  0
 27 29  1  0  0  0  0
 28 27  1  0  0  0  0
 30 33  1  0  0  0  0
 30 27  1  0  0  0  0
 31 30  1  0  0  0  0
 32 30  1  0  0  0  0
 33 34  1  0  0  0  0
 35 37  1  0  0  0  0
 35 33  1  0  0  0  0
 36 35  1  0  0  0  0
 38 39  1  0  0  0  0
 38 35  1  0  0  0  0
M  END
>  <minimizedAffinity>
-4.78169107

$$$$

 OpenBabel03242514183D

 39 40  0  0  0  0  0  0  0  0999 V2000
   36.9530   27.9770   40.7090 C   0  0  0  0  0  0  0  0  0  0  0  0
   37.6670   28.5290   41.7590 C   0  0  0  0  0  0  0  0  0  0  0  0
   38.1610   27.6550   42.6960 C   0  0  0  0  0  0  0  0  0  0  0  0
   37.9320   26.3180   42.5520 N   0  0  0  0  0  0  0  0  0  0  0  0
   37.2470   25.8030   41.5380 C   0  0  0  0  0  0  0  0  0  0  0  0
   36.7710   26.6460   40.6370 N   0  0  0  0  0  0  0  0  0  0  0  0
   38.7320   27.8110   43.5930 H   0  0  0  0  0  0  0  0  0  0  0  0
   37.0510   24.7490   41.3990 H   0  0  0  0  0  0  0  0  0  0  0  0
   36.3990   28.9290   39.7480 C   0  0  0  0  0  0  0  0  0  0  0  0
   34.9520   29.0720   39.7380 C   0  0  0  0  0  0  0  0  0  0  0  0
   34.3280   28.5900   38.4920 C   0  0  0  0  0  0  0  0  0  0  0  0
   34.8900   29.3350   37.2860 C   0  0  0  0  0  0  0  0  0  0  0  0
   36.3700   29.4930   37.3280 C   0  0  0  0  0  0  0  0  0  0  0  0
   37.0020   28.6080   38.3860 C   0  0  0  0  0  0  0  0  0  0  0  0
   36.8420   29.9580   39.9180 H   0  0  0  0  0  0  0  0  0  0  0  0
   34.5130   28.4620   40.5790 H   0  0  0  0  0  0  0  0  0  0  0  0
   34.5520   30.0990   39.9490 H   0  0  0  0  0  0  0  0  0  0  0  0
   34.3660   27.4870   38.3550 H   0  0  0  0  0  0  0  0  0  0  0  0
   33.2350   28.8380   38.5070 H   0  0  0  0  0  0  0  0  0  0  0  0
   34.4150   30.3150   37.1780 H   0  0  0  0  0  0  0  0  0  0  0  0
   34.6280   28.7450   36.3850 H   0  0  0  0  0  0  0  0  0  0  0  0
   36.8340   29.2320   36.3500 H   0  0  0  0  0  0  0  0  0  0  0  0
   36.6680   30.5420   37.5510 H   0  0  0  0  0  0  0  0  0  0  0  0
   38.0780   28.7710   38.4330 H   0  0  0  0  0  0  0  0  0  0  0  0
   36.8200   27.5570   38.0980 H   0  0  0  0  0  0  0  0  0  0  0  0
   37.9960   29.7700   42.0750 O   0  0  0  0  0  0  0  0  0  0  0  0
   39.1350   30.3940   42.4980 C   0  0  0  0  0  0  0  0  0  0  0  0
   39.9140   29.6510   42.7620 H   0  0  0  0  0  0  0  0  0  0  0  0
   39.0060   31.0250   43.4080 H   0  0  0  0  0  0  0  0  0  0  0  0
   39.7860   31.2880   41.4570 C   0  0  0  0  0  0  0  0  0  0  0  0
   40.8670   31.3590   41.7500 H   0  0  0  0  0  0  0  0  0  0  0  0
   39.6500   30.8550   40.4620 H   0  0  0  0  0  0  0  0  0  0  0  0
   39.2560   32.6310   41.4660 N   0  0  0  0  0  0  0  0  0  0  0  0
   40.0110   33.3380   41.2640 H   0  0  0  0  0  0  0  0  0  0  0  0
   38.0540   32.7140   40.2040 S   0  0  0  0  0  0  0  0  0  0  0  0
   38.4690   31.9230   39.0130 O   0  0  0  0  0  1  0  0  0  0  0  0
   37.8900   34.1610   39.8460 O   0  0  0  0  0  1  0  0  0  0  0  0
   36.5720   32.1520   40.7590 O   0  0  0  0  0  0  0  0  0  0  0  0
   36.1680   32.7700   41.4190 H   0  0  0  0  0  0  0  0  0  0  0  0
  1  2  1  0  0  0  0
  2 26  1  0  0  0  0
  2  3  2  0  0  0  0
  3  7  1  0  0  0  0
  4  3  1  0  0  0  0
  5  4  2  0  0  0  0
  6  1  2  0  0  0  0
  6  5  1  0  0  0  0
  8  5  1  0  0  0  0
  9 15  1  0  0  0  0
  9  1  1  0  0  0  0
 10  9  1  0  0  0  0
 10 17  1  0  0  0  0
 10 16  1  0  0  0  0
 11 19  1  0  0  0  0
 11 10  1  0  0  0  0
 12 13  1  0  0  0  0
 12 11  1  0  0  0  0
 13 23  1  0  0  0  0
 13 14  1  0  0  0  0
 14 24  1  0  0  0  0
 14  9  1  0  0  0  0
 18 11  1  0  0  0  0
 20 12  1  0  0  0  0
 21 12  1  0  0  0  0
 22 13  1  0  0  0  0
 25 14  1  0  0  0  0
 26 27  1  0  0  0  0
 27 28  1  0  0  0  0
 27 29  1  0  0  0  0
 30 33  1  0  0  0  0
 30 31  1  0  0  0  0
 30 27  1  0  0  0  0
 32 30  1  0  0  0  0
 34 33  1  0  0  0  0
 35 38  1  0  0  0  0
 35 33  1  0  0  0  0
 36 35  1  0  0  0  0
 37 35  1  0  0  0  0
 38 39  1  0  0  0  0
M  END
>  <minimizedAffinity>
-4.73565054

$$$$

 OpenBabel03242514183D

 39 40  0  0  0  0  0  0  0  0999 V2000
   38.4810   27.8140   41.8250 C   0  0  0  0  0  0  0  0  0  0  0  0
   38.3840   29.1310   41.4100 C   0  0  0  0  0  0  0  0  0  0  0  0
   39.3960   29.9760   41.7950 C   0  0  0  0  0  0  0  0  0  0  0  0
   40.4240   29.4900   42.5500 N   0  0  0  0  0  0  0  0  0  0  0  0
   40.5040   28.2240   42.9400 C   0  0  0  0  0  0  0  0  0  0  0  0
   39.5280   27.4120   42.5680 N   0  0  0  0  0  0  0  0  0  0  0  0
   39.5640   31.0230   41.6190 H   0  0  0  0  0  0  0  0  0  0  0  0
   41.3070   27.8130   43.5370 H   0  0  0  0  0  0  0  0  0  0  0  0
   37.3720   26.9440   41.4420 C   0  0  0  0  0  0  0  0  0  0  0  0
   36.8990   26.0110   42.4530 C   0  0  0  0  0  0  0  0  0  0  0  0
   37.1490   24.6000   42.1050 C   0  0  0  0  0  0  0  0  0  0  0  0
   36.4820   24.2470   40.7800 C   0  0  0  0  0  0  0  0  0  0  0  0
   36.6720   25.2840   39.7300 C   0  0  0  0  0  0  0  0  0  0  0  0
   37.7400   26.2900   40.1160 C   0  0  0  0  0  0  0  0  0  0  0  0
   36.4840   27.5650   41.1100 H   0  0  0  0  0  0  0  0  0  0  0  0
   37.4420   26.2090   43.4220 H   0  0  0  0  0  0  0  0  0  0  0  0
   35.8220   26.1080   42.7530 H   0  0  0  0  0  0  0  0  0  0  0  0
   38.2220   24.3040   42.1240 H   0  0  0  0  0  0  0  0  0  0  0  0
   36.6580   23.9410   42.8670 H   0  0  0  0  0  0  0  0  0  0  0  0
   35.4150   24.0510   40.9220 H   0  0  0  0  0  0  0  0  0  0  0  0
   36.9420   23.3020   40.4240 H   0  0  0  0  0  0  0  0  0  0  0  0
   36.9730   24.8290   38.7590 H   0  0  0  0  0  0  0  0  0  0  0  0
   35.7350   25.8530   39.5360 H   0  0  0  0  0  0  0  0  0  0  0  0
   37.8330   27.0660   39.3570 H   0  0  0  0  0  0  0  0  0  0  0  0
   38.7030   25.7500   40.1820 H   0  0  0  0  0  0  0  0  0  0  0  0
   37.4930   29.7880   40.6880 O   0  0  0  0  0  0  0  0  0  0  0  0
   36.8580   30.9930   40.7910 C   0  0  0  0  0  0  0  0  0  0  0  0
   37.3200   31.6130   41.5850 H   0  0  0  0  0  0  0  0  0  0  0  0
   35.7770   30.9250   41.0590 H   0  0  0  0  0  0  0  0  0  0  0  0
   36.9260   31.8490   39.5390 C   0  0  0  0  0  0  0  0  0  0  0  0
   36.5400   31.2040   38.7070 H   0  0  0  0  0  0  0  0  0  0  0  0
   36.3280   32.7540   39.6790 H   0  0  0  0  0  0  0  0  0  0  0  0
   38.2770   32.2240   39.1930 N   0  0  0  0  0  0  0  0  0  0  0  0
   38.9540   31.9430   39.9520 H   0  0  0  0  0  0  0  0  0  0  0  0
   38.6860   31.3660   37.7300 S   0  0  0  0  0  0  0  0  0  0  0  0
   37.4690   30.8270   37.0640 O   0  0  0  0  0  1  0  0  0  0  0  0
   39.6140   30.2540   38.1150 O   0  0  0  0  0  1  0  0  0  0  0  0
   39.5070   32.3720   36.6640 O   0  0  0  0  0  0  0  0  0  0  0  0
   40.4150   32.5920   36.9910 H   0  0  0  0  0  0  0  0  0  0  0  0
  1  6  1  0  0  0  0
  2  3  1  0  0  0  0
  2  1  2  0  0  0  0
  3  4  2  0  0  0  0
  4  5  1  0  0  0  0
  5  8  1  0  0  0  0
  6  5  2  0  0  0  0
  7  3  1  0  0  0  0
  9  1  1  0  0  0  0
  9 10  1  0  0  0  0
 10 17  1  0  0  0  0
 10 16  1  0  0  0  0
 11 18  1  0  0  0  0
 11 10  1  0  0  0  0
 11 19  1  0  0  0  0
 12 20  1  0  0  0  0
 12 11  1  0  0  0  0
 13 14  1  0  0  0  0
 13 12  1  0  0  0  0
 14 25  1  0  0  0  0
 14  9  1  0  0  0  0
 15  9  1  0  0  0  0
 21 12  1  0  0  0  0
 22 13  1  0  0  0  0
 23 13  1  0  0  0  0
 24 14  1  0  0  0  0
 26 27  1  0  0  0  0
 26  2  1  0  0  0  0
 27 29  1  0  0  0  0
 27 28  1  0  0  0  0
 30 32  1  0  0  0  0
 30 27  1  0  0  0  0
 31 30  1  0  0  0  0
 33 30  1  0  0  0  0
 33 34  1  0  0  0  0
 35 37  1  0  0  0  0
 35 33  1  0  0  0  0
 36 35  1  0  0  0  0
 38 39  1  0  0  0  0
 38 35  1  0  0  0  0
M  END
>  <minimizedAffinity>
-4.71073055

$$$$

 OpenBabel03242514183D

 39 40  0  0  0  0  0  0  0  0999 V2000
   37.7140   26.9380   41.4970 C   0  0  0  0  0  0  0  0  0  0  0  0
   37.5110   28.1910   40.9440 C   0  0  0  0  0  0  0  0  0  0  0  0
   37.3620   29.2370   41.8220 C   0  0  0  0  0  0  0  0  0  0  0  0
   37.4180   28.9980   43.1640 N   0  0  0  0  0  0  0  0  0  0  0  0
   37.6140   27.7900   43.6790 C   0  0  0  0  0  0  0  0  0  0  0  0
   37.7590   26.7840   42.8320 N   0  0  0  0  0  0  0  0  0  0  0  0
   37.1920   30.2860   41.6670 H   0  0  0  0  0  0  0  0  0  0  0  0
   37.6640   27.5730   44.7380 H   0  0  0  0  0  0  0  0  0  0  0  0
   37.8270   25.8350   40.5450 C   0  0  0  0  0  0  0  0  0  0  0  0
   36.5790   25.2830   40.0410 C   0  0  0  0  0  0  0  0  0  0  0  0
   36.3360   23.8960   40.4810 C   0  0  0  0  0  0  0  0  0  0  0  0
   37.4760   22.9850   40.0380 C   0  0  0  0  0  0  0  0  0  0  0  0
   38.8240   23.5770   40.2570 C   0  0  0  0  0  0  0  0  0  0  0  0
   38.7640   24.7990   41.1530 C   0  0  0  0  0  0  0  0  0  0  0  0
   38.4450   26.1520   39.6500 H   0  0  0  0  0  0  0  0  0  0  0  0
   35.7180   25.9020   40.4260 H   0  0  0  0  0  0  0  0  0  0  0  0
   36.4300   25.3240   38.9300 H   0  0  0  0  0  0  0  0  0  0  0  0
   36.1160   23.7890   41.5660 H   0  0  0  0  0  0  0  0  0  0  0  0
   35.4250   23.5000   39.9640 H   0  0  0  0  0  0  0  0  0  0  0  0
   37.3610   22.7010   38.9870 H   0  0  0  0  0  0  0  0  0  0  0  0
   37.4030   22.0540   40.6360 H   0  0  0  0  0  0  0  0  0  0  0  0
   39.5170   22.8450   40.7310 H   0  0  0  0  0  0  0  0  0  0  0  0
   39.2990   23.8900   39.3000 H   0  0  0  0  0  0  0  0  0  0  0  0
   39.7520   25.2450   41.2650 H   0  0  0  0  0  0  0  0  0  0  0  0
   38.4160   24.4700   42.1490 H   0  0  0  0  0  0  0  0  0  0  0  0
   37.4290   28.6270   39.6990 O   0  0  0  0  0  0  0  0  0  0  0  0
   38.1980   29.4190   38.8940 C   0  0  0  0  0  0  0  0  0  0  0  0
   38.3490   28.9420   37.9050 H   0  0  0  0  0  0  0  0  0  0  0  0
   39.2220   29.6210   39.2870 H   0  0  0  0  0  0  0  0  0  0  0  0
   37.5940   30.7770   38.5840 C   0  0  0  0  0  0  0  0  0  0  0  0
   37.4190   30.7870   37.4760 H   0  0  0  0  0  0  0  0  0  0  0  0
   36.6700   30.9080   39.1540 H   0  0  0  0  0  0  0  0  0  0  0  0
   38.4930   31.8670   38.8810 N   0  0  0  0  0  0  0  0  0  0  0  0
   38.7150   32.4220   38.0120 H   0  0  0  0  0  0  0  0  0  0  0  0
   37.6770   32.9070   40.0190 S   0  0  0  0  0  0  0  0  0  0  0  0
   37.1650   34.1360   39.3540 O   0  0  0  0  0  1  0  0  0  0  0  0
   38.6700   33.2590   41.0860 O   0  0  0  0  0  1  0  0  0  0  0  0
   36.4020   32.0970   40.7530 O   0  0  0  0  0  0  0  0  0  0  0  0
   36.7200   31.3900   41.3680 H   0  0  0  0  0  0  0  0  0  0  0  0
  1  6  1  0  0  0  0
  2  1  2  0  0  0  0
  2  3  1  0  0  0  0
  3  4  2  0  0  0  0
  4  5  1  0  0  0  0
  5  8  1  0  0  0  0
  6  5  2  0  0  0  0
  7  3  1  0  0  0  0
  9 14  1  0  0  0  0
  9  1  1  0  0  0  0
 10 16  1  0  0  0  0
 10 11  1  0  0  0  0
 10  9  1  0  0  0  0
 11 18  1  0  0  0  0
 12 13  1  0  0  0  0
 12 11  1  0  0  0  0
 12 21  1  0  0  0  0
 13 22  1  0  0  0  0
 13 14  1  0  0  0  0
 14 24  1  0  0  0  0
 14 25  1  0  0  0  0
 15  9  1  0  0  0  0
 17 10  1  0  0  0  0
 19 11  1  0  0  0  0
 20 12  1  0  0  0  0
 23 13  1  0  0  0  0
 26  2  1  0  0  0  0
 27 29  1  0  0  0  0
 27 26  1  0  0  0  0
 28 27  1  0  0  0  0
 30 33  1  0  0  0  0
 30 27  1  0  0  0  0
 30 32  1  0  0  0  0
 31 30  1  0  0  0  0
 33 35  1  0  0  0  0
 34 33  1  0  0  0  0
 35 38  1  0  0  0  0
 35 37  1  0  0  0  0
 36 35  1  0  0  0  0
 38 39  1  0  0  0  0
M  END
>  <minimizedAffinity>
-4.61850452

$$$$

 OpenBabel03242514183D

 39 40  0  0  0  0  0  0  0  0999 V2000
   38.0380   30.0890   40.8120 C   0  0  0  0  0  0  0  0  0  0  0  0
   38.4700   29.6410   42.0480 C   0  0  0  0  0  0  0  0  0  0  0  0
   39.4520   30.3780   42.6640 C   0  0  0  0  0  0  0  0  0  0  0  0
   39.9450   31.4890   42.0430 N   0  0  0  0  0  0  0  0  0  0  0  0
   39.5200   31.9070   40.8570 C   0  0  0  0  0  0  0  0  0  0  0  0
   38.5740   31.1960   40.2660 N   0  0  0  0  0  0  0  0  0  0  0  0
   39.9600   30.2550   43.6030 H   0  0  0  0  0  0  0  0  0  0  0  0
   39.8930   32.7830   40.3440 H   0  0  0  0  0  0  0  0  0  0  0  0
   37.0250   29.2660   40.1560 C   0  0  0  0  0  0  0  0  0  0  0  0
   37.2070   29.0240   38.7330 C   0  0  0  0  0  0  0  0  0  0  0  0
   36.1670   29.6530   37.8970 C   0  0  0  0  0  0  0  0  0  0  0  0
   34.7830   29.1510   38.2940 C   0  0  0  0  0  0  0  0  0  0  0  0
   34.5760   29.0940   39.7680 C   0  0  0  0  0  0  0  0  0  0  0  0
   35.6620   29.8420   40.5190 C   0  0  0  0  0  0  0  0  0  0  0  0
   36.9500   28.2570   40.6660 H   0  0  0  0  0  0  0  0  0  0  0  0
   38.1940   29.4590   38.4070 H   0  0  0  0  0  0  0  0  0  0  0  0
   37.2990   27.9500   38.4190 H   0  0  0  0  0  0  0  0  0  0  0  0
   36.2140   30.7640   37.8630 H   0  0  0  0  0  0  0  0  0  0  0  0
   36.3030   29.3290   36.8340 H   0  0  0  0  0  0  0  0  0  0  0  0
   34.5830   28.1710   37.8530 H   0  0  0  0  0  0  0  0  0  0  0  0
   34.0430   29.8580   37.8660 H   0  0  0  0  0  0  0  0  0  0  0  0
   33.5980   29.5410   40.0580 H   0  0  0  0  0  0  0  0  0  0  0  0
   34.5720   28.0480   40.1450 H   0  0  0  0  0  0  0  0  0  0  0  0
   35.5190   29.7510   41.5950 H   0  0  0  0  0  0  0  0  0  0  0  0
   35.5860   30.9100   40.2460 H   0  0  0  0  0  0  0  0  0  0  0  0
   38.1280   28.6140   42.8070 O   0  0  0  0  0  0  0  0  0  0  0  0
   38.2930   27.2600   42.7380 C   0  0  0  0  0  0  0  0  0  0  0  0
   38.6280   26.9560   41.7260 H   0  0  0  0  0  0  0  0  0  0  0  0
   37.3670   26.6700   42.9350 H   0  0  0  0  0  0  0  0  0  0  0  0
   39.3490   26.7060   43.6800 C   0  0  0  0  0  0  0  0  0  0  0  0
   39.3330   27.3730   44.5810 H   0  0  0  0  0  0  0  0  0  0  0  0
   39.1160   25.6670   43.9240 H   0  0  0  0  0  0  0  0  0  0  0  0
   40.6800   26.7760   43.1250 N   0  0  0  0  0  0  0  0  0  0  0  0
   41.3810   27.0680   43.8570 H   0  0  0  0  0  0  0  0  0  0  0  0
   41.0850   25.1730   42.5660 S   0  0  0  0  0  0  0  0  0  0  0  0
   41.1340   25.1180   41.0800 O   0  0  0  0  0  1  0  0  0  0  0  0
   40.0350   24.2430   43.0950 O   0  0  0  0  0  1  0  0  0  0  0  0
   42.5650   24.6840   43.1920 O   0  0  0  0  0  0  0  0  0  0  0  0
   42.5150   24.5170   44.1670 H   0  0  0  0  0  0  0  0  0  0  0  0
  1  2  1  0  0  0  0
  2  3  2  0  0  0  0
  2 26  1  0  0  0  0
  3  7  1  0  0  0  0
  4  3  1  0  0  0  0
  5  4  2  0  0  0  0
  6  1  2  0  0  0  0
  6  5  1  0  0  0  0
  8  5  1  0  0  0  0
  9 14  1  0  0  0  0
  9 15  1  0  0  0  0
  9  1  1  0  0  0  0
 10  9  1  0  0  0  0
 11 12  1  0  0  0  0
 11 10  1  0  0  0  0
 12 13  1  0  0  0  0
 13 22  1  0  0  0  0
 13 23  1  0  0  0  0
 13 14  1  0  0  0  0
 14 24  1  0  0  0  0
 16 10  1  0  0  0  0
 17 10  1  0  0  0  0
 18 11  1  0  0  0  0
 19 11  1  0  0  0  0
 20 12  1  0  0  0  0
 21 12  1  0  0  0  0
 25 14  1  0  0  0  0
 27 26  1  0  0  0  0
 27 29  1  0  0  0  0
 27 30  1  0  0  0  0
 28 27  1  0  0  0  0
 30 32  1  0  0  0  0
 30 31  1  0  0  0  0
 33 30  1  0  0  0  0
 33 34  1  0  0  0  0
 35 37  1  0  0  0  0
 35 33  1  0  0  0  0
 35 38  1  0  0  0  0
 36 35  1  0  0  0  0
 38 39  1  0  0  0  0
M  END
>  <minimizedAffinity>
-4.57571936

$$$$

 OpenBabel03242514183D

 39 40  0  0  0  0  0  0  0  0999 V2000
   36.7280   27.9490   40.2180 C   0  0  0  0  0  0  0  0  0  0  0  0
   35.8980   29.0530   40.1190 C   0  0  0  0  0  0  0  0  0  0  0  0
   34.9770   29.0430   39.1000 C   0  0  0  0  0  0  0  0  0  0  0  0
   34.9240   27.9740   38.2540 N   0  0  0  0  0  0  0  0  0  0  0  0
   35.7270   26.9220   38.3630 C   0  0  0  0  0  0  0  0  0  0  0  0
   36.6130   26.9320   39.3450 N   0  0  0  0  0  0  0  0  0  0  0  0
   34.2320   29.7560   38.7990 H   0  0  0  0  0  0  0  0  0  0  0  0
   35.7060   26.0620   37.7070 H   0  0  0  0  0  0  0  0  0  0  0  0
   37.7290   28.0000   41.2820 C   0  0  0  0  0  0  0  0  0  0  0  0
   39.0050   27.3600   41.0030 C   0  0  0  0  0  0  0  0  0  0  0  0
   39.2570   26.1740   41.8430 C   0  0  0  0  0  0  0  0  0  0  0  0
   39.2210   26.5450   43.3210 C   0  0  0  0  0  0  0  0  0  0  0  0
   38.0880   27.4440   43.6760 C   0  0  0  0  0  0  0  0  0  0  0  0
   37.0600   27.5220   42.5640 C   0  0  0  0  0  0  0  0  0  0  0  0
   37.9430   29.0760   41.5660 H   0  0  0  0  0  0  0  0  0  0  0  0
   39.0170   27.0090   39.9310 H   0  0  0  0  0  0  0  0  0  0  0  0
   39.9130   28.0180   41.0530 H   0  0  0  0  0  0  0  0  0  0  0  0
   38.6040   25.3020   41.6160 H   0  0  0  0  0  0  0  0  0  0  0  0
   40.2980   25.8060   41.6570 H   0  0  0  0  0  0  0  0  0  0  0  0
   40.1670   26.9990   43.6310 H   0  0  0  0  0  0  0  0  0  0  0  0
   39.1100   25.6020   43.8930 H   0  0  0  0  0  0  0  0  0  0  0  0
   37.5640   27.0930   44.5950 H   0  0  0  0  0  0  0  0  0  0  0  0
   38.4320   28.4810   43.8850 H   0  0  0  0  0  0  0  0  0  0  0  0
   36.2620   28.2180   42.8230 H   0  0  0  0  0  0  0  0  0  0  0  0
   36.6190   26.5160   42.4410 H   0  0  0  0  0  0  0  0  0  0  0  0
   35.7880   30.1660   40.8230 O   0  0  0  0  0  0  0  0  0  0  0  0
   36.3660   31.4030   40.7790 C   0  0  0  0  0  0  0  0  0  0  0  0
   36.7710   31.6820   41.7730 H   0  0  0  0  0  0  0  0  0  0  0  0
   35.6720   32.2290   40.4990 H   0  0  0  0  0  0  0  0  0  0  0  0
   37.5490   31.5120   39.8330 C   0  0  0  0  0  0  0  0  0  0  0  0
   38.3080   32.1430   40.3650 H   0  0  0  0  0  0  0  0  0  0  0  0
   37.9260   30.5130   39.5970 H   0  0  0  0  0  0  0  0  0  0  0  0
   37.2180   32.1950   38.6040 N   0  0  0  0  0  0  0  0  0  0  0  0
   37.5250   33.2030   38.6360 H   0  0  0  0  0  0  0  0  0  0  0  0
   38.0780   31.3850   37.3210 S   0  0  0  0  0  0  0  0  0  0  0  0
   37.3140   30.2110   36.8180 O   0  0  0  0  0  1  0  0  0  0  0  0
   39.4000   30.9540   37.8800 O   0  0  0  0  0  1  0  0  0  0  0  0
   38.3790   32.4410   36.0500 O   0  0  0  0  0  0  0  0  0  0  0  0
   39.0470   33.1300   36.2950 H   0  0  0  0  0  0  0  0  0  0  0  0
  1  9  1  0  0  0  0
  2  1  1  0  0  0  0
  2 26  1  0  0  0  0
  3  2  2  0  0  0  0
  4  5  2  0  0  0  0
  4  3  1  0  0  0  0
  5  6  1  0  0  0  0
  6  1  2  0  0  0  0
  7  3  1  0  0  0  0
  8  5  1  0  0  0  0
  9 15  1  0  0  0  0
  9 14  1  0  0  0  0
 10 17  1  0  0  0  0
 10  9  1  0  0  0  0
 10 11  1  0  0  0  0
 11 12  1  0  0  0  0
 12 20  1  0  0  0  0
 12 13  1  0  0  0  0
 12 21  1  0  0  0  0
 13 23  1  0  0  0  0
 13 22  1  0  0  0  0
 14 24  1  0  0  0  0
 14 13  1  0  0  0  0
 16 10  1  0  0  0  0
 18 11  1  0  0  0  0
 19 11  1  0  0  0  0
 25 14  1  0  0  0  0
 27 26  1  0  0  0  0
 27 28  1  0  0  0  0
 29 27  1  0  0  0  0
 30 31  1  0  0  0  0
 30 27  1  0  0  0  0
 32 30  1  0  0  0  0
 33 34  1  0  0  0  0
 33 30  1  0  0  0  0
 35 37  1  0  0  0  0
 35 33  1  0  0  0  0
 36 35  1  0  0  0  0
 38 39  1  0  0  0  0
 38 35  1  0  0  0  0
M  END
>  <minimizedAffinity>
-4.54508972

$$$$
