
 OpenBabel03252500063D

 47 49  0  0  0  0  0  0  0  0999 V2000
   44.6350   35.1890   45.2060 C   0  0  0  0  0  0  0  0  0  0  0  0
   45.2270   35.3430   43.9550 C   0  0  0  0  0  0  0  0  0  0  0  0
   46.2710   34.4960   43.5870 C   0  0  0  0  0  0  0  0  0  0  0  0
   46.6070   33.5830   44.5270 N   0  0  0  0  0  0  0  0  0  0  0  0
   46.0460   33.4430   45.7020 C   0  0  0  0  0  0  0  0  0  0  0  0
   45.0630   34.2520   46.0270 N   0  0  0  0  0  0  0  0  0  0  0  0
   43.8280   35.8580   45.4670 H   0  0  0  0  0  0  0  0  0  0  0  0
   46.9750   34.5240   42.3540 C   0  0  0  0  0  0  0  0  0  0  0  0
   47.9530   35.5050   42.2180 C   0  0  0  0  0  0  0  0  0  0  0  0
   48.7330   35.6820   41.0940 C   0  0  0  0  0  0  0  0  0  0  0  0
   48.5750   34.8720   40.0280 C   0  0  0  0  0  0  0  0  0  0  0  0
   47.6230   33.8760   40.0920 C   0  0  0  0  0  0  0  0  0  0  0  0
   47.4110   33.0260   39.0540 C   0  0  0  0  0  0  0  0  0  0  0  0
   46.4690   32.0220   39.0840 C   0  0  0  0  0  0  0  0  0  0  0  0
   45.7080   31.8930   40.2510 C   0  0  0  0  0  0  0  0  0  0  0  0
   45.9630   32.7850   41.2830 C   0  0  0  0  0  0  0  0  0  0  0  0
   46.8710   33.7500   41.2480 C   0  0  0  0  0  0  0  0  0  0  0  0
   48.1670   36.2230   43.0280 H   0  0  0  0  0  0  0  0  0  0  0  0
   49.4820   36.4600   41.0340 H   0  0  0  0  0  0  0  0  0  0  0  0
   49.1690   34.9810   39.1320 H   0  0  0  0  0  0  0  0  0  0  0  0
   48.0130   33.1410   38.1520 H   0  0  0  0  0  0  0  0  0  0  0  0
   46.3370   31.3680   38.2310 H   0  0  0  0  0  0  0  0  0  0  0  0
   44.9980   31.1060   40.2240 H   0  0  0  0  0  0  0  0  0  0  0  0
   45.0770   32.5050   42.3790 N   0  0  0  0  0  0  0  0  0  0  0  0
   45.1010   31.8140   43.1590 H   0  0  0  0  0  0  0  0  0  0  0  0
   44.1700   32.9130   42.6870 H   0  0  0  0  0  0  0  0  0  0  0  0
   46.6230   32.3390   46.5410 C   0  0  0  0  0  0  0  0  0  0  0  0
   45.6380   31.5890   47.1330 F   0  0  0  0  0  0  0  0  0  0  0  0
   47.4760   32.8390   47.4880 F   0  0  0  0  0  0  0  0  0  0  0  0
   47.4440   31.5300   45.7260 F   0  0  0  0  0  0  0  0  0  0  0  0
   44.8370   36.3380   42.9640 C   0  0  0  0  0  0  0  0  0  0  0  0
   44.1520   37.0730   43.4450 H   0  0  0  0  0  0  0  0  0  0  0  0
   45.7390   36.9160   42.6580 H   0  0  0  0  0  0  0  0  0  0  0  0
   44.1750   35.8380   41.7490 C   0  0  0  0  0  0  0  0  0  0  0  0
   44.6960   35.5130   40.8970 H   0  0  0  0  0  0  0  0  0  0  0  0
   43.5520   36.7200   41.3830 H   0  0  0  0  0  0  0  0  0  0  0  0
   41.8470   34.9130   41.4960 C   0  0  0  0  0  0  0  0  0  0  0  0
   41.7090   35.6410   40.4460 O   0  0  0  0  0  0  0  0  0  0  0  0
   43.0870   34.9230   42.1990 N   0  0  0  0  0  0  0  0  0  0  0  0
   43.1210   34.2500   43.0120 H   0  0  0  0  0  0  0  0  0  0  0  0
   40.7530   34.1340   41.9010 N   0  0  0  0  0  0  0  0  0  0  0  0
   39.9420   34.6190   42.3670 H   0  0  0  0  0  0  0  0  0  0  0  0
   40.7130   32.4140   41.6490 S   0  0  0  0  0  0  0  0  0  0  0  0
   40.0830   32.0670   40.3340 O   0  0  0  0  0  1  0  0  0  0  0  0
   40.0830   31.6900   42.7960 O   0  0  0  0  0  1  0  0  0  0  0  0
   42.3240   31.9020   41.5720 O   0  0  0  0  0  0  0  0  0  0  0  0
   42.7170   31.8890   42.4950 H   0  0  0  0  0  0  0  0  0  0  0  0
  1  7  1  0  0  0  0
  1  6  1  0  0  0  0
  2  1  2  0  0  0  0
  3  2  1  0  0  0  0
  3  4  2  0  0  0  0
  4  5  1  0  0  0  0
  5  6  2  0  0  0  0
  5 27  1  0  0  0  0
  8  3  1  0  0  0  0
  9  8  1  0  0  0  0
  9 18  1  0  0  0  0
 10  9  2  0  0  0  0
 11 12  2  0  0  0  0
 11 10  1  0  0  0  0
 12 17  1  0  0  0  0
 13 14  2  0  0  0  0
 13 12  1  0  0  0  0
 14 15  1  0  0  0  0
 15 16  2  0  0  0  0
 16 24  1  0  0  0  0
 17 16  1  0  0  0  0
 17  8  2  0  0  0  0
 19 10  1  0  0  0  0
 20 11  1  0  0  0  0
 21 13  1  0  0  0  0
 22 14  1  0  0  0  0
 23 15  1  0  0  0  0
 24 26  1  0  0  0  0
 24 25  1  0  0  0  0
 27 28  1  0  0  0  0
 27 29  1  0  0  0  0
 30 27  1  0  0  0  0
 31 32  1  0  0  0  0
 31  2  1  0  0  0  0
 33 31  1  0  0  0  0
 34 39  1  0  0  0  0
 34 31  1  0  0  0  0
 35 34  1  0  0  0  0
 36 34  1  0  0  0  0
 37 41  1  0  0  0  0
 37 39  1  0  0  0  0
 38 37  2  0  0  0  0
 39 40  1  0  0  0  0
 41 42  1  0  0  0  0
 43 41  1  0  0  0  0
 43 45  1  0  0  0  0
 44 43  1  0  0  0  0
 46 43  1  0  0  0  0
 46 47  1  0  0  0  0
M  END
>  <minimizedAffinity>
-7.0822916

>  <minimizedRMSD>
1.0293262

$$$$
