
 OpenBabel03252500063D

 47 49  0  0  0  0  0  0  0  0999 V2000
   44.6400   35.2400   45.2320 C   0  0  0  0  0  0  0  0  0  0  0  0
   45.2190   35.3850   43.9740 C   0  0  0  0  0  0  0  0  0  0  0  0
   46.2430   34.5200   43.5920 C   0  0  0  0  0  0  0  0  0  0  0  0
   46.5740   33.6000   44.5260 N   0  0  0  0  0  0  0  0  0  0  0  0
   46.0270   33.4690   45.7090 C   0  0  0  0  0  0  0  0  0  0  0  0
   45.0620   34.2950   46.0470 N   0  0  0  0  0  0  0  0  0  0  0  0
   43.8490   35.9240   45.5040 H   0  0  0  0  0  0  0  0  0  0  0  0
   46.9310   34.5360   42.3500 C   0  0  0  0  0  0  0  0  0  0  0  0
   47.9530   35.4710   42.2170 C   0  0  0  0  0  0  0  0  0  0  0  0
   48.7260   35.6310   41.0860 C   0  0  0  0  0  0  0  0  0  0  0  0
   48.5150   34.8490   40.0080 C   0  0  0  0  0  0  0  0  0  0  0  0
   47.5160   33.8990   40.0670 C   0  0  0  0  0  0  0  0  0  0  0  0
   47.2500   33.0800   39.0170 C   0  0  0  0  0  0  0  0  0  0  0  0
   46.2610   32.1220   39.0430 C   0  0  0  0  0  0  0  0  0  0  0  0
   45.5100   32.0080   40.2190 C   0  0  0  0  0  0  0  0  0  0  0  0
   45.8220   32.8680   41.2620 C   0  0  0  0  0  0  0  0  0  0  0  0
   46.7750   33.7890   41.2310 C   0  0  0  0  0  0  0  0  0  0  0  0
   48.2120   36.1630   43.0360 H   0  0  0  0  0  0  0  0  0  0  0  0
   49.5110   36.3730   41.0290 H   0  0  0  0  0  0  0  0  0  0  0  0
   49.1010   34.9460   39.1050 H   0  0  0  0  0  0  0  0  0  0  0  0
   47.8450   33.1820   38.1100 H   0  0  0  0  0  0  0  0  0  0  0  0
   46.0860   31.4910   38.1810 H   0  0  0  0  0  0  0  0  0  0  0  0
   44.7620   31.2570   40.1870 H   0  0  0  0  0  0  0  0  0  0  0  0
   44.9380   32.6110   42.3660 N   0  0  0  0  0  0  0  0  0  0  0  0
   44.9390   31.9050   43.1330 H   0  0  0  0  0  0  0  0  0  0  0  0
   44.0560   33.0570   42.6930 H   0  0  0  0  0  0  0  0  0  0  0  0
   46.5940   32.3530   46.5390 C   0  0  0  0  0  0  0  0  0  0  0  0
   45.6030   31.5960   47.1100 F   0  0  0  0  0  0  0  0  0  0  0  0
   47.4370   32.8410   47.5010 F   0  0  0  0  0  0  0  0  0  0  0  0
   47.4240   31.5550   45.7220 F   0  0  0  0  0  0  0  0  0  0  0  0
   44.8340   36.3880   42.9890 C   0  0  0  0  0  0  0  0  0  0  0  0
   44.2240   37.1710   43.4950 H   0  0  0  0  0  0  0  0  0  0  0  0
   45.7510   36.9040   42.6210 H   0  0  0  0  0  0  0  0  0  0  0  0
   44.0730   35.9120   41.8220 C   0  0  0  0  0  0  0  0  0  0  0  0
   44.5140   35.4300   41.0000 H   0  0  0  0  0  0  0  0  0  0  0  0
   43.6090   36.8570   41.3840 H   0  0  0  0  0  0  0  0  0  0  0  0
   41.6840   35.1720   41.5330 C   0  0  0  0  0  0  0  0  0  0  0  0
   41.7280   35.6190   40.3290 O   0  0  0  0  0  0  0  0  0  0  0  0
   42.8480   35.2460   42.3520 N   0  0  0  0  0  0  0  0  0  0  0  0
   42.7300   34.8010   43.3020 H   0  0  0  0  0  0  0  0  0  0  0  0
   40.4740   34.6260   41.9850 N   0  0  0  0  0  0  0  0  0  0  0  0
   39.8880   35.1950   42.6510 H   0  0  0  0  0  0  0  0  0  0  0  0
   39.9340   33.0530   41.4740 S   0  0  0  0  0  0  0  0  0  0  0  0
   38.5420   33.1040   40.9220 O   0  0  0  0  0  1  0  0  0  0  0  0
   40.0890   32.0260   42.5500 O   0  0  0  0  0  1  0  0  0  0  0  0
   40.9490   32.5860   40.2030 O   0  0  0  0  0  0  0  0  0  0  0  0
   41.8410   32.3060   40.5700 H   0  0  0  0  0  0  0  0  0  0  0  0
  1  7  1  0  0  0  0
  1  6  1  0  0  0  0
  2  1  2  0  0  0  0
  3  2  1  0  0  0  0
  3  4  2  0  0  0  0
  4  5  1  0  0  0  0
  5  6  2  0  0  0  0
  5 27  1  0  0  0  0
  8  3  1  0  0  0  0
  9  8  1  0  0  0  0
  9 18  1  0  0  0  0
 10  9  2  0  0  0  0
 11 12  2  0  0  0  0
 11 10  1  0  0  0  0
 12 17  1  0  0  0  0
 13 14  2  0  0  0  0
 13 12  1  0  0  0  0
 14 15  1  0  0  0  0
 15 16  2  0  0  0  0
 16 24  1  0  0  0  0
 17 16  1  0  0  0  0
 17  8  2  0  0  0  0
 19 10  1  0  0  0  0
 20 11  1  0  0  0  0
 21 13  1  0  0  0  0
 22 14  1  0  0  0  0
 23 15  1  0  0  0  0
 24 26  1  0  0  0  0
 24 25  1  0  0  0  0
 27 28  1  0  0  0  0
 27 29  1  0  0  0  0
 30 27  1  0  0  0  0
 31 32  1  0  0  0  0
 31  2  1  0  0  0  0
 33 31  1  0  0  0  0
 34 39  1  0  0  0  0
 34 31  1  0  0  0  0
 35 34  1  0  0  0  0
 36 34  1  0  0  0  0
 37 41  1  0  0  0  0
 37 39  1  0  0  0  0
 38 37  2  0  0  0  0
 39 40  1  0  0  0  0
 41 42  1  0  0  0  0
 43 41  1  0  0  0  0
 43 45  1  0  0  0  0
 44 43  1  0  0  0  0
 46 47  1  0  0  0  0
 46 43  1  0  0  0  0
M  END
>  <minimizedAffinity>
-7.68371439

>  <minimizedRMSD>
0.625416636

$$$$
