
 OpenBabel03252500553D

 36 37  0  0  0  0  0  0  0  0999 V2000
   44.0750   33.8370   39.6130 O   0  0  0  0  0  0  0  0  0  0  0  0
   43.4300   34.4140   40.8620 P   0  0  1  0  0  0  0  0  0  0  0  0
   42.8540   33.1170   41.7950 O   0  0  0  0  0  0  0  0  0  0  0  0
   42.3140   33.4560   42.5610 H   0  0  0  0  0  0  0  0  0  0  0  0
   44.6060   35.2110   41.7780 O   0  0  0  0  0  0  0  0  0  0  0  0
   46.6830   34.3510   42.4710 C   0  0  0  0  0  0  0  0  0  0  0  0
   45.3820   34.6640   42.7920 C   0  0  0  0  0  0  0  0  0  0  0  0
   44.9500   34.4070   44.1080 C   0  0  0  0  0  0  0  0  0  0  0  0
   45.8570   33.8670   44.9570 N   0  0  0  0  0  0  0  0  0  0  0  0
   47.1060   33.5750   44.6190 C   0  0  0  0  0  0  0  0  0  0  0  0
   47.5230   33.8180   43.3710 N   0  0  0  0  0  0  0  0  0  0  0  0
   43.9310   34.6650   44.3170 H   0  0  0  0  0  0  0  0  0  0  0  0
   47.8060   33.1440   45.3230 H   0  0  0  0  0  0  0  0  0  0  0  0
   47.1960   34.5950   41.1160 C   0  0  0  0  0  0  0  0  0  0  0  0
   46.4920   35.2180   40.5270 H   0  0  0  0  0  0  0  0  0  0  0  0
   47.3160   33.6350   40.5690 H   0  0  0  0  0  0  0  0  0  0  0  0
   48.5220   35.2910   41.2050 C   0  0  0  0  0  0  0  0  0  0  0  0
   48.6450   36.0520   40.4120 H   0  0  0  0  0  0  0  0  0  0  0  0
   49.3470   34.5560   41.2060 H   0  0  0  0  0  0  0  0  0  0  0  0
   48.5640   35.8290   42.1860 H   0  0  0  0  0  0  0  0  0  0  0  0
   42.1160   35.3780   40.4610 O   0  0  0  0  0  0  0  0  0  0  0  0
   40.9130   34.7700   40.1100 C   0  0  0  0  0  0  0  0  0  0  0  0
   40.4410   35.0040   38.8280 C   0  0  0  0  0  0  0  0  0  0  0  0
   39.2560   34.4430   38.3890 C   0  0  0  0  0  0  0  0  0  0  0  0
   38.5590   33.6540   39.2400 N   0  0  0  0  0  0  0  0  0  0  0  0
   39.0210   33.4310   40.4760 C   0  0  0  0  0  0  0  0  0  0  0  0
   40.1590   33.9690   40.9010 N   0  0  0  0  0  0  0  0  0  0  0  0
   41.0120   35.6460   38.1460 H   0  0  0  0  0  0  0  0  0  0  0  0
   38.9040   34.6390   37.3870 H   0  0  0  0  0  0  0  0  0  0  0  0
   38.2590   32.5950   41.3400 N   0  0  0  0  0  0  0  0  0  0  0  0
   37.8800   32.9370   42.2490 H   0  0  0  0  0  0  0  0  0  0  0  0
   37.8820   30.9490   40.9950 S   0  0  0  0  0  0  0  0  0  0  0  0
   37.8510   30.7700   39.5030 O   0  0  0  0  0  0  0  0  0  0  0  0
   38.9520   30.0200   41.5000 O   0  0  0  0  0  0  0  0  0  0  0  0
   36.3880   30.5110   41.6110 O   0  0  0  0  0  0  0  0  0  0  0  0
   36.4720   29.5870   41.9510 H   0  0  0  0  0  0  0  0  0  0  0  0
  2  1  2  6  0  0  0
  2  5  1  0  0  0  0
  2  3  1  0  0  0  0
  3  4  1  0  0  0  0
  5  7  1  0  0  0  0
  6  7  2  0  0  0  0
  6 11  1  0  0  0  0
  7  8  1  0  0  0  0
  8 12  1  0  0  0  0
  8  9  2  0  0  0  0
 10  9  1  0  0  0  0
 10 13  1  0  0  0  0
 11 10  2  0  0  0  0
 14 17  1  0  0  0  0
 14  6  1  0  0  0  0
 15 14  1  0  0  0  0
 16 14  1  0  0  0  0
 17 19  1  0  0  0  0
 17 20  1  0  0  0  0
 18 17  1  0  0  0  0
 21  2  1  0  0  0  0
 22 21  1  0  0  0  0
 22 27  1  0  0  0  0
 23 22  2  0  0  0  0
 24 23  1  0  0  0  0
 24 25  2  0  0  0  0
 25 26  1  0  0  0  0
 26 27  2  0  0  0  0
 26 30  1  0  0  0  0
 28 23  1  0  0  0  0
 29 24  1  0  0  0  0
 30 31  1  0  0  0  0
 32 30  1  0  0  0  0
 32 34  1  0  0  0  0
 32 35  1  0  0  0  0
 33 32  1  0  0  0  0
 35 36  1  0  0  0  0
M  END
>  <minimizedAffinity>
-6.32274294

>  <minimizedRMSD>
0.923116565

$$$$
