
 OpenBabel03252504403D

 43 45  0  0  0  0  0  0  0  0999 V2000
   46.3900   32.1070   48.0810 C   0  0  0  0  0  0  0  0  0  0  0  0
   46.0660   31.2910   49.1320 C   0  0  0  0  0  0  0  0  0  0  0  0
   47.2110   30.8100   49.5970 N   0  0  0  0  0  0  0  0  0  0  0  0
   48.2620   31.2740   48.8980 C   0  0  0  0  0  0  0  0  0  0  0  0
   47.7300   32.0870   47.9490 N   0  0  0  0  0  0  0  0  0  0  0  0
   49.6550   31.0400   49.0260 N   0  0  0  0  0  0  0  0  0  0  0  0
   50.4060   31.9370   49.9360 C   0  0  0  0  0  0  0  0  0  0  0  0
   50.6760   31.0910   51.1760 C   0  0  0  0  0  0  0  0  0  0  0  0
   51.2040   29.7400   50.7880 C   0  0  0  0  0  0  0  0  0  0  0  0
   51.6950   29.7770   49.3500 C   0  0  0  0  0  0  0  0  0  0  0  0
   50.5300   30.0800   48.4360 C   0  0  0  0  0  0  0  0  0  0  0  0
   45.0540   31.1090   49.4760 H   0  0  0  0  0  0  0  0  0  0  0  0
   47.3330   30.1530   50.3980 H   0  0  0  0  0  0  0  0  0  0  0  0
   51.3290   32.3000   49.4540 H   0  0  0  0  0  0  0  0  0  0  0  0
   49.7920   32.7880   50.2450 H   0  0  0  0  0  0  0  0  0  0  0  0
   49.7270   31.0580   51.7360 H   0  0  0  0  0  0  0  0  0  0  0  0
   51.4730   31.5960   51.7850 H   0  0  0  0  0  0  0  0  0  0  0  0
   50.3220   29.0390   50.7810 H   0  0  0  0  0  0  0  0  0  0  0  0
   51.9440   29.3330   51.4800 H   0  0  0  0  0  0  0  0  0  0  0  0
   52.2080   28.8550   49.0620 H   0  0  0  0  0  0  0  0  0  0  0  0
   52.4390   30.5950   49.2590 H   0  0  0  0  0  0  0  0  0  0  0  0
   50.0330   29.1060   48.2320 H   0  0  0  0  0  0  0  0  0  0  0  0
   50.9030   30.4310   47.4420 H   0  0  0  0  0  0  0  0  0  0  0  0
   45.4480   32.8880   47.2210 C   0  0  0  0  0  0  0  0  0  0  0  0
   44.4780   32.3890   47.3080 H   0  0  0  0  0  0  0  0  0  0  0  0
   45.4310   33.9220   47.6050 H   0  0  0  0  0  0  0  0  0  0  0  0
   45.9400   34.0730   45.1250 C   0  0  0  0  0  0  0  0  0  0  0  0
   45.9400   32.9530   45.8280 C   0  0  0  0  0  0  0  0  0  0  0  0
   46.4530   34.0040   43.7580 C   0  0  0  0  0  0  0  0  0  0  0  0
   45.9940   34.8660   42.7290 C   0  0  0  0  0  0  0  0  0  0  0  0
   46.5310   34.7340   41.4630 C   0  0  0  0  0  0  0  0  0  0  0  0
   47.4690   33.7960   41.2430 N   0  0  0  0  0  0  0  0  0  0  0  0
   47.8960   32.9830   42.2340 C   0  0  0  0  0  0  0  0  0  0  0  0
   47.4020   33.0830   43.4560 N   0  0  0  0  0  0  0  0  0  0  0  0
   45.2310   35.5990   42.9920 H   0  0  0  0  0  0  0  0  0  0  0  0
   46.1790   35.3930   40.6800 H   0  0  0  0  0  0  0  0  0  0  0  0
   48.8920   32.0160   41.9180 N   0  0  0  0  0  0  0  0  0  0  0  0
   48.6530   31.0600   41.5900 H   0  0  0  0  0  0  0  0  0  0  0  0
   50.5870   32.3120   42.0420 S   0  0  0  0  0  0  0  0  0  0  0  0
   50.8640   33.6900   42.5110 O   0  0  0  0  0  0  0  0  0  0  0  0
   51.2700   31.2670   42.8820 O   0  0  0  0  0  0  0  0  0  0  0  0
   51.2810   32.1760   40.4960 O   0  0  0  0  0  0  0  0  0  0  0  0
   51.2610   33.0550   40.0280 H   0  0  0  0  0  0  0  0  0  0  0  0
  1  2  2  0  0  0  0
  2 12  1  0  0  0  0
  2  3  1  0  0  0  0
  3 13  1  0  0  0  0
  4  6  1  0  0  0  0
  4  3  1  0  0  0  0
  5  1  1  0  0  0  0
  5  4  2  0  0  0  0
  6  7  1  0  0  0  0
  7 15  1  0  0  0  0
  7  8  1  0  0  0  0
  8 16  1  0  0  0  0
  8 17  1  0  0  0  0
  9  8  1  0  0  0  0
  9 19  1  0  0  0  0
 10  9  1  0  0  0  0
 11  6  1  0  0  0  0
 11 10  1  0  0  0  0
 14  7  1  0  0  0  0
 18  9  1  0  0  0  0
 20 10  1  0  0  0  0
 21 10  1  0  0  0  0
 22 11  1  0  0  0  0
 23 11  1  0  0  0  0
 24 25  1  0  0  0  0
 24 26  1  0  0  0  0
 24  1  1  0  0  0  0
 27 28  2  0  0  0  0
 28 24  1  0  0  0  0
 29 27  1  0  0  0  0
 30 35  1  0  0  0  0
 30 29  2  0  0  0  0
 31 30  1  0  0  0  0
 32 31  2  0  0  0  0
 32 33  1  0  0  0  0
 33 34  2  0  0  0  0
 34 29  1  0  0  0  0
 36 31  1  0  0  0  0
 37 39  1  0  0  0  0
 37 33  1  0  0  0  0
 38 37  1  0  0  0  0
 39 40  1  0  0  0  0
 39 41  1  0  0  0  0
 42 39  1  0  0  0  0
 43 42  1  0  0  0  0
M  END
>  <minimizedAffinity>
-6.25984907

>  <minimizedRMSD>
1.13711607

$$$$
