
 OpenBabel03252505003D

 30 31  0  0  1  0  0  0  0  0999 V2000
   47.0420   32.7430   44.9520 C   0  0  2  0  0  0  0  0  0  0  0  0
   47.7940   32.4530   43.7190 C   0  0  0  0  0  0  0  0  0  0  0  0
   47.3340   31.2470   42.9720 C   0  0  0  0  0  0  0  0  0  0  0  0
   47.4590   30.0970   43.9500 C   0  0  0  0  0  0  0  0  0  0  0  0
   46.4910   30.2530   45.0720 C   0  0  0  0  0  0  0  0  0  0  0  0
   46.2810   31.6520   45.5770 C   0  0  0  0  0  0  0  0  0  0  0  0
   47.7630   33.1290   45.7420 H   0  0  0  0  0  0  0  0  0  0  0  0
   48.8660   32.2590   43.9860 H   0  0  0  0  0  0  0  0  0  0  0  0
   47.8050   33.3080   43.0130 H   0  0  0  0  0  0  0  0  0  0  0  0
   48.0700   31.0470   42.1720 H   0  0  0  0  0  0  0  0  0  0  0  0
   46.3370   31.3110   42.5230 H   0  0  0  0  0  0  0  0  0  0  0  0
   47.1230   29.1990   43.3980 H   0  0  0  0  0  0  0  0  0  0  0  0
   48.4940   29.9610   44.2530 H   0  0  0  0  0  0  0  0  0  0  0  0
   45.9510   29.4690   45.5140 H   0  0  0  0  0  0  0  0  0  0  0  0
   44.5580   35.4420   45.3570 C   0  0  0  0  0  0  0  0  0  0  0  0
   44.5570   36.0670   44.0950 C   0  0  0  0  0  0  0  0  0  0  0  0
   45.4220   35.5350   43.1190 C   0  0  0  0  0  0  0  0  0  0  0  0
   46.1940   34.4730   43.4410 N   0  0  0  0  0  0  0  0  0  0  0  0
   46.1630   33.9030   44.6660 C   0  0  0  0  0  0  0  0  0  0  0  0
   45.3460   34.3910   45.6150 N   0  0  0  0  0  0  0  0  0  0  0  0
   43.8690   35.9040   46.0560 H   0  0  0  0  0  0  0  0  0  0  0  0
   43.9200   36.9280   43.8640 H   0  0  0  0  0  0  0  0  0  0  0  0
   45.4810   35.9480   42.1410 H   0  0  0  0  0  0  0  0  0  0  0  0
   45.3410   31.7190   46.6650 N   0  0  0  0  0  0  0  0  0  0  0  0
   44.6280   31.6260   45.8760 H   0  0  0  0  0  0  0  0  0  0  0  0
   46.5060   31.8710   47.9520 S   0  0  0  0  0  0  0  0  0  0  0  0
   47.3420   30.6390   48.0180 O   0  0  0  0  0  0  0  0  0  0  0  0
   45.7040   31.9260   49.2500 O   0  0  0  0  0  0  0  0  0  0  0  0
   47.4470   33.2320   47.8100 O   0  0  0  0  0  0  0  0  0  0  0  0
   47.9060   33.3740   48.6780 H   0  0  0  0  0  0  0  0  0  0  0  0
  1  6  1  0  0  0  0
  1  7  1  1  0  0  0
  2  8  1  0  0  0  0
  2  1  1  0  0  0  0
  3  2  1  0  0  0  0
  3  4  1  0  0  0  0
  4 13  1  0  0  0  0
  4  5  1  0  0  0  0
  5 14  1  0  0  0  0
  5  6  2  0  0  0  0
  6 24  1  0  0  0  0
  9  2  1  0  0  0  0
 10  3  1  0  0  0  0
 11  3  1  0  0  0  0
 12  4  1  0  0  0  0
 15 20  1  0  0  0  0
 15 21  1  0  0  0  0
 16 15  2  0  0  0  0
 17 18  2  0  0  0  0
 17 16  1  0  0  0  0
 18 19  1  0  0  0  0
 19  1  1  0  0  0  0
 19 20  2  0  0  0  0
 22 16  1  0  0  0  0
 23 17  1  0  0  0  0
 24 26  1  0  0  0  0
 25 24  1  0  0  0  0
 26 27  1  0  0  0  0
 26 28  1  0  0  0  0
 29 26  1  0  0  0  0
 29 30  1  0  0  0  0
M  END
>  <minimizedAffinity>
-5.01818562

>  <minimizedRMSD>
3.18530059

$$$$
