
 OpenBabel03252508373D

 39 41  0  0  0  0  0  0  0  0999 V2000
   44.9680   34.0130   40.8190 C   0  0  0  0  0  0  0  0  0  0  0  0
   43.9290   33.6010   40.0240 C   0  0  0  0  0  0  0  0  0  0  0  0
   44.2300   32.9750   38.8550 C   0  0  0  0  0  0  0  0  0  0  0  0
   45.5130   32.7320   38.4260 C   0  0  0  0  0  0  0  0  0  0  0  0
   46.5390   33.1530   39.2340 C   0  0  0  0  0  0  0  0  0  0  0  0
   46.2840   33.7960   40.4370 C   0  0  0  0  0  0  0  0  0  0  0  0
   43.4040   32.6510   38.2330 H   0  0  0  0  0  0  0  0  0  0  0  0
   45.6590   32.2250   37.4750 H   0  0  0  0  0  0  0  0  0  0  0  0
   47.5430   32.9490   38.8710 H   0  0  0  0  0  0  0  0  0  0  0  0
   40.6880   35.3800   40.8260 C   0  0  0  0  0  0  0  0  0  0  0  0
   41.9890   35.1440   40.3400 C   0  0  0  0  0  0  0  0  0  0  0  0
   42.5900   33.8760   40.5140 C   0  0  0  0  0  0  0  0  0  0  0  0
   41.8320   32.9700   41.1570 N   0  0  0  0  0  0  0  0  0  0  0  0
   40.6050   33.2010   41.6120 C   0  0  0  0  0  0  0  0  0  0  0  0
   40.0310   34.4010   41.4510 N   0  0  0  0  0  0  0  0  0  0  0  0
   40.1330   36.6580   40.6280 N   0  0  0  0  0  0  0  0  0  0  0  0
   42.5200   35.9270   39.8380 H   0  0  0  0  0  0  0  0  0  0  0  0
   40.0360   32.4430   42.1210 H   0  0  0  0  0  0  0  0  0  0  0  0
   39.9290   36.9370   39.6240 H   0  0  0  0  0  0  0  0  0  0  0  0
   39.8670   37.4270   41.2830 H   0  0  0  0  0  0  0  0  0  0  0  0
   47.4380   34.2010   41.2100 C   0  0  0  0  0  0  0  0  0  0  0  0
   48.1080   35.3110   40.7940 C   0  0  0  0  0  0  0  0  0  0  0  0
   49.2290   35.8500   41.4030 C   0  0  0  0  0  0  0  0  0  0  0  0
   49.6990   35.2080   42.5190 C   0  0  0  0  0  0  0  0  0  0  0  0
   49.0530   34.0840   42.9720 C   0  0  0  0  0  0  0  0  0  0  0  0
   47.9400   33.5900   42.3290 C   0  0  0  0  0  0  0  0  0  0  0  0
   47.7780   35.8690   39.9050 H   0  0  0  0  0  0  0  0  0  0  0  0
   49.7230   36.7350   41.0300 H   0  0  0  0  0  0  0  0  0  0  0  0
   50.5760   35.6050   43.0190 H   0  0  0  0  0  0  0  0  0  0  0  0
   49.4700   33.6240   43.8560 H   0  0  0  0  0  0  0  0  0  0  0  0
   47.2680   32.4250   42.7980 N   0  0  0  0  0  0  0  0  0  0  0  0
   47.2080   31.5650   42.1960 H   0  0  0  0  0  0  0  0  0  0  0  0
   46.4530   32.0310   44.2320 S   0  0  0  0  0  0  0  0  0  0  0  0
   47.0240   30.7570   44.8400 O   0  0  0  0  0  1  0  0  0  0  0  0
   46.4940   33.1280   45.2340 O   0  0  0  0  0  1  0  0  0  0  0  0
   44.8480   31.6530   43.8110 O   0  0  0  0  0  0  0  0  0  0  0  0
   44.4640   32.5430   43.5320 H   0  0  0  0  0  0  0  0  0  0  0  0
   44.5540   35.2310   43.0870 N   0  0  0  0  0  0  0  0  0  0  0  0
   44.7430   34.6830   42.0720 C   0  0  0  0  0  0  0  0  0  0  0  0
  1 39  1  0  0  0  0
  2 12  1  0  0  0  0
  2  1  2  0  0  0  0
  3  2  1  0  0  0  0
  4  3  2  0  0  0  0
  4  5  1  0  0  0  0
  5  6  2  0  0  0  0
  6  1  1  0  0  0  0
  6 21  1  0  0  0  0
  7  3  1  0  0  0  0
  8  4  1  0  0  0  0
  9  5  1  0  0  0  0
 10 15  1  0  0  0  0
 11 12  1  0  0  0  0
 11 10  2  0  0  0  0
 12 13  2  0  0  0  0
 13 14  1  0  0  0  0
 14 18  1  0  0  0  0
 15 14  2  0  0  0  0
 16 10  1  0  0  0  0
 16 20  1  0  0  0  0
 17 11  1  0  0  0  0
 19 16  1  0  0  0  0
 21 26  1  0  0  0  0
 22 21  2  0  0  0  0
 22 23  1  0  0  0  0
 23 24  2  0  0  0  0
 24 25  1  0  0  0  0
 24 29  1  0  0  0  0
 25 30  1  0  0  0  0
 26 31  1  0  0  0  0
 26 25  2  0  0  0  0
 27 22  1  0  0  0  0
 28 23  1  0  0  0  0
 31 33  1  0  0  0  0
 32 31  1  0  0  0  0
 33 34  1  0  0  0  0
 33 35  1  0  0  0  0
 36 33  1  0  0  0  0
 37 36  1  0  0  0  0
 39 38  3  0  0  0  0
M  END
>  <minimizedAffinity>
-6.0377984

>  <minimizedRMSD>
1.0492996

$$$$
