
 OpenBabel03242518413D

 37 39  0  0  1  0  0  0  0  0999 V2000
   36.5500   28.7220   41.3130 C   0  0  0  0  0  0  0  0  0  0  0  0
   36.7320   28.6210   39.9240 C   0  0  0  0  0  0  0  0  0  0  0  0
   36.8840   29.8890   39.4050 C   0  0  0  0  0  0  0  0  0  0  0  0
   36.7890   30.7020   40.4870 C   0  0  0  0  0  0  0  0  0  0  0  0
   36.5940   30.0230   41.6120 O   0  0  0  0  0  0  0  0  0  0  0  0
   36.7320   27.6500   39.4590 H   0  0  0  0  0  0  0  0  0  0  0  0
   37.0370   30.1000   38.3680 H   0  0  0  0  0  0  0  0  0  0  0  0
   36.8940   32.1750   40.4280 C   0  0  2  0  0  0  0  0  0  0  0  0
   37.4100   32.8350   39.2310 C   0  0  0  0  0  0  0  0  0  0  0  0
   38.3560   32.6870   40.3660 C   0  0  1  0  0  0  0  0  0  0  0  0
   36.2570   32.6670   41.1980 H   0  0  0  0  0  0  0  0  0  0  0  0
   37.0950   33.8550   38.9230 H   0  0  0  0  0  0  0  0  0  0  0  0
   37.5430   32.1790   38.3220 H   0  0  0  0  0  0  0  0  0  0  0  0
   39.1340   31.9280   40.3410 H   0  0  0  0  0  0  0  0  0  0  0  0
   39.4720   34.8750   40.7170 C   0  0  0  0  0  0  0  0  0  0  0  0
   40.1770   34.7500   39.6740 O   0  0  0  0  0  0  0  0  0  0  0  0
   38.5700   33.8810   41.1810 N   0  0  0  0  0  0  0  0  0  0  0  0
   39.5020   35.7710   41.3500 H   0  0  0  0  0  0  0  0  0  0  0  0
   38.0520   33.9690   42.0830 H   0  0  0  0  0  0  0  0  0  0  0  0
   36.3520   27.7440   42.3220 O   0  0  0  0  0  0  0  0  0  0  0  0
   37.2290   27.7360   43.4290 C   0  0  0  0  0  0  0  0  0  0  0  0
   36.8940   28.4490   44.4190 O   0  0  0  0  0  0  0  0  0  0  0  0
   38.3930   26.9300   43.3160 C   0  0  0  0  0  0  0  0  0  0  0  0
   38.3140   25.8760   42.4640 C   0  0  0  0  0  0  0  0  0  0  0  0
   39.4210   25.0460   42.3070 C   0  0  0  0  0  0  0  0  0  0  0  0
   40.5230   25.3220   43.0070 N   0  0  0  0  0  0  0  0  0  0  0  0
   40.5820   26.3700   43.8450 C   0  0  0  0  0  0  0  0  0  0  0  0
   39.5060   27.1390   43.9680 N   0  0  0  0  0  0  0  0  0  0  0  0
   37.4270   25.6340   41.8860 H   0  0  0  0  0  0  0  0  0  0  0  0
   39.3800   24.1990   41.6320 H   0  0  0  0  0  0  0  0  0  0  0  0
   41.7490   26.6690   44.5910 N   0  0  0  0  0  0  0  0  0  0  0  0
   41.6790   27.1320   45.5180 H   0  0  0  0  0  0  0  0  0  0  0  0
   43.3430   26.2960   44.0280 S   0  0  0  0  0  0  0  0  0  0  0  0
   44.3140   26.5430   45.1330 O   0  0  0  0  0  1  0  0  0  0  0  0
   43.7240   27.1280   42.8500 O   0  0  0  0  0  1  0  0  0  0  0  0
   43.3780   24.6530   43.6760 O   0  0  0  0  0  0  0  0  0  0  0  0
   43.3520   24.4800   42.7020 H   0  0  0  0  0  0  0  0  0  0  0  0
  1  5  1  0  0  0  0
  1 20  1  0  0  0  0
  2  1  2  0  0  0  0
  3  2  1  0  0  0  0
  3  4  2  0  0  0  0
  4  5  1  0  0  0  0
  6  2  1  0  0  0  0
  7  3  1  0  0  0  0
  8  4  1  0  0  0  0
  8 11  1  1  0  0  0
  9 10  1  0  0  0  0
  9  8  1  0  0  0  0
 10 14  1  6  0  0  0
 10  8  1  0  0  0  0
 10 17  1  0  0  0  0
 12  9  1  0  0  0  0
 13  9  1  0  0  0  0
 15 17  1  0  0  0  0
 15 18  1  0  0  0  0
 16 15  2  0  0  0  0
 17 19  1  0  0  0  0
 20 21  1  0  0  0  0
 21 22  2  0  0  0  0
 23 21  1  0  0  0  0
 23 28  1  0  0  0  0
 24 23  2  0  0  0  0
 25 24  1  0  0  0  0
 25 26  2  0  0  0  0
 26 27  1  0  0  0  0
 27 28  2  0  0  0  0
 27 31  1  0  0  0  0
 29 24  1  0  0  0  0
 30 25  1  0  0  0  0
 31 32  1  0  0  0  0
 33 31  1  0  0  0  0
 33 34  1  0  0  0  0
 35 33  1  0  0  0  0
 36 33  1  0  0  0  0
 37 36  1  0  0  0  0
M  END
>  <minimizedAffinity>
-6.49486113

$$$$

 OpenBabel03242518413D

 37 39  0  0  1  0  0  0  0  0999 V2000
   36.7960   30.9570   40.8010 C   0  0  0  0  0  0  0  0  0  0  0  0
   35.7630   30.2580   40.1560 C   0  0  0  0  0  0  0  0  0  0  0  0
   35.6320   29.0190   40.7480 C   0  0  0  0  0  0  0  0  0  0  0  0
   36.5810   29.0150   41.7180 C   0  0  0  0  0  0  0  0  0  0  0  0
   37.2680   30.1510   41.7550 O   0  0  0  0  0  0  0  0  0  0  0  0
   35.2350   30.7240   39.3420 H   0  0  0  0  0  0  0  0  0  0  0  0
   34.9160   28.2820   40.4490 H   0  0  0  0  0  0  0  0  0  0  0  0
   36.8240   27.8820   42.6350 C   0  0  2  0  0  0  0  0  0  0  0  0
   37.2970   28.1170   43.9970 C   0  0  0  0  0  0  0  0  0  0  0  0
   38.3180   27.6970   43.0050 C   0  0  1  0  0  0  0  0  0  0  0  0
   36.3060   26.9560   42.2950 H   0  0  0  0  0  0  0  0  0  0  0  0
   37.0570   27.4380   44.8430 H   0  0  0  0  0  0  0  0  0  0  0  0
   37.2850   29.1900   44.3470 H   0  0  0  0  0  0  0  0  0  0  0  0
   39.0130   28.4210   42.5880 H   0  0  0  0  0  0  0  0  0  0  0  0
   39.9200   25.9430   43.7220 C   0  0  0  0  0  0  0  0  0  0  0  0
   40.7230   26.7920   44.2090 O   0  0  0  0  0  0  0  0  0  0  0  0
   38.7170   26.2910   43.0530 N   0  0  0  0  0  0  0  0  0  0  0  0
   40.0920   24.8610   43.7810 H   0  0  0  0  0  0  0  0  0  0  0  0
   38.1050   25.5830   42.5920 H   0  0  0  0  0  0  0  0  0  0  0  0
   37.3400   32.2530   40.5990 O   0  0  0  0  0  0  0  0  0  0  0  0
   38.4600   32.3840   39.7490 C   0  0  0  0  0  0  0  0  0  0  0  0
   38.4890   31.6290   38.7340 O   0  0  0  0  0  0  0  0  0  0  0  0
   39.4360   33.3460   40.1220 C   0  0  0  0  0  0  0  0  0  0  0  0
   39.0200   34.6380   40.1640 C   0  0  0  0  0  0  0  0  0  0  0  0
   39.9270   35.6310   40.5220 C   0  0  0  0  0  0  0  0  0  0  0  0
   41.1790   35.2700   40.8120 N   0  0  0  0  0  0  0  0  0  0  0  0
   41.5720   33.9870   40.7640 C   0  0  0  0  0  0  0  0  0  0  0  0
   40.6780   33.0670   40.4190 N   0  0  0  0  0  0  0  0  0  0  0  0
   38.0070   34.9520   39.9330 H   0  0  0  0  0  0  0  0  0  0  0  0
   39.6170   36.6690   40.5630 H   0  0  0  0  0  0  0  0  0  0  0  0
   42.8990   33.5960   41.0700 N   0  0  0  0  0  0  0  0  0  0  0  0
   43.3220   32.7620   40.6170 H   0  0  0  0  0  0  0  0  0  0  0  0
   43.8950   34.4570   42.1930 S   0  0  0  0  0  0  0  0  0  0  0  0
   44.9430   35.2020   41.4360 O   0  0  0  0  0  1  0  0  0  0  0  0
   44.5560   33.5390   43.1650 O   0  0  0  0  0  1  0  0  0  0  0  0
   42.9200   35.5900   42.9620 O   0  0  0  0  0  0  0  0  0  0  0  0
   42.6870   35.3180   43.8840 H   0  0  0  0  0  0  0  0  0  0  0  0
  1  5  1  0  0  0  0
  2  3  1  0  0  0  0
  2  1  2  0  0  0  0
  3  4  2  0  0  0  0
  4  5  1  0  0  0  0
  4  8  1  0  0  0  0
  6  2  1  0  0  0  0
  7  3  1  0  0  0  0
  8 11  1  6  0  0  0
  8 10  1  0  0  0  0
  8  9  1  0  0  0  0
  9 13  1  0  0  0  0
  9 12  1  0  0  0  0
 10 14  1  6  0  0  0
 10 17  1  0  0  0  0
 10  9  1  0  0  0  0
 15 18  1  0  0  0  0
 15 16  2  0  0  0  0
 17 15  1  0  0  0  0
 19 17  1  0  0  0  0
 20  1  1  0  0  0  0
 21 23  1  0  0  0  0
 21 20  1  0  0  0  0
 22 21  2  0  0  0  0
 23 24  2  0  0  0  0
 23 28  1  0  0  0  0
 24 25  1  0  0  0  0
 25 30  1  0  0  0  0
 25 26  2  0  0  0  0
 27 26  1  0  0  0  0
 27 31  1  0  0  0  0
 28 27  2  0  0  0  0
 29 24  1  0  0  0  0
 31 33  1  0  0  0  0
 32 31  1  0  0  0  0
 33 36  1  0  0  0  0
 33 35  1  0  0  0  0
 34 33  1  0  0  0  0
 36 37  1  0  0  0  0
M  END
>  <minimizedAffinity>
-6.42118454

$$$$

 OpenBabel03242518413D

 37 39  0  0  1  0  0  0  0  0999 V2000
   39.0160   34.4030   40.2930 C   0  0  0  0  0  0  0  0  0  0  0  0
   39.2490   35.7680   40.0580 C   0  0  0  0  0  0  0  0  0  0  0  0
   40.6030   36.0090   40.1580 C   0  0  0  0  0  0  0  0  0  0  0  0
   41.1330   34.7940   40.4490 C   0  0  0  0  0  0  0  0  0  0  0  0
   40.2070   33.8460   40.5280 O   0  0  0  0  0  0  0  0  0  0  0  0
   38.4180   36.4180   39.8440 H   0  0  0  0  0  0  0  0  0  0  0  0
   41.0550   36.9690   40.0240 H   0  0  0  0  0  0  0  0  0  0  0  0
   42.5770   34.5470   40.6490 C   0  0  2  0  0  0  0  0  0  0  0  0
   43.0350   33.6370   41.6970 C   0  0  0  0  0  0  0  0  0  0  0  0
   43.1130   35.0880   42.0000 C   0  0  1  0  0  0  0  0  0  0  0  0
   43.1750   34.8370   39.7560 H   0  0  0  0  0  0  0  0  0  0  0  0
   43.9760   33.0520   41.6170 H   0  0  0  0  0  0  0  0  0  0  0  0
   42.2360   33.0170   42.1990 H   0  0  0  0  0  0  0  0  0  0  0  0
   42.3840   35.5550   42.6580 H   0  0  0  0  0  0  0  0  0  0  0  0
   45.2380   35.8330   43.0400 C   0  0  0  0  0  0  0  0  0  0  0  0
   44.8410   35.5390   44.2050 O   0  0  0  0  0  0  0  0  0  0  0  0
   44.4360   35.6980   41.8770 N   0  0  0  0  0  0  0  0  0  0  0  0
   46.2450   36.2210   42.8370 H   0  0  0  0  0  0  0  0  0  0  0  0
   44.7530   36.0150   40.9350 H   0  0  0  0  0  0  0  0  0  0  0  0
   37.8270   33.6290   40.3100 O   0  0  0  0  0  0  0  0  0  0  0  0
   37.7630   32.4800   39.4910 C   0  0  0  0  0  0  0  0  0  0  0  0
   38.2370   32.5950   38.3230 O   0  0  0  0  0  0  0  0  0  0  0  0
   37.1770   31.3190   40.0610 C   0  0  0  0  0  0  0  0  0  0  0  0
   36.2650   30.6690   39.2940 C   0  0  0  0  0  0  0  0  0  0  0  0
   35.6530   29.5220   39.7940 C   0  0  0  0  0  0  0  0  0  0  0  0
   35.9890   29.1080   41.0170 N   0  0  0  0  0  0  0  0  0  0  0  0
   36.8930   29.7660   41.7610 C   0  0  0  0  0  0  0  0  0  0  0  0
   37.4570   30.8540   41.2500 N   0  0  0  0  0  0  0  0  0  0  0  0
   35.9780   30.9890   38.2970 H   0  0  0  0  0  0  0  0  0  0  0  0
   34.9230   28.9860   39.1990 H   0  0  0  0  0  0  0  0  0  0  0  0
   37.2550   29.3320   43.0600 N   0  0  0  0  0  0  0  0  0  0  0  0
   37.5550   30.0160   43.7820 H   0  0  0  0  0  0  0  0  0  0  0  0
   37.2260   27.6670   43.5350 S   0  0  0  0  0  0  0  0  0  0  0  0
   36.0790   27.4500   44.4620 O   0  0  0  0  0  1  0  0  0  0  0  0
   38.4890   27.2640   44.2200 O   0  0  0  0  0  1  0  0  0  0  0  0
   36.9430   26.7560   42.1510 O   0  0  0  0  0  0  0  0  0  0  0  0
   37.7630   26.3070   41.8260 H   0  0  0  0  0  0  0  0  0  0  0  0
  1 20  1  0  0  0  0
  1  5  1  0  0  0  0
  2  3  1  0  0  0  0
  2  1  2  0  0  0  0
  3  4  2  0  0  0  0
  4  5  1  0  0  0  0
  4  8  1  0  0  0  0
  6  2  1  0  0  0  0
  7  3  1  0  0  0  0
  8 11  1  6  0  0  0
  8  9  1  0  0  0  0
  8 10  1  0  0  0  0
  9 10  1  0  0  0  0
  9 13  1  0  0  0  0
 10 14  1  1  0  0  0
 12  9  1  0  0  0  0
 15 16  2  0  0  0  0
 17 10  1  0  0  0  0
 17 15  1  0  0  0  0
 18 15  1  0  0  0  0
 19 17  1  0  0  0  0
 21 23  1  0  0  0  0
 21 20  1  0  0  0  0
 22 21  2  0  0  0  0
 23 28  1  0  0  0  0
 24 25  1  0  0  0  0
 24 23  2  0  0  0  0
 25 26  2  0  0  0  0
 26 27  1  0  0  0  0
 27 31  1  0  0  0  0
 28 27  2  0  0  0  0
 29 24  1  0  0  0  0
 30 25  1  0  0  0  0
 31 33  1  0  0  0  0
 31 32  1  0  0  0  0
 33 35  1  0  0  0  0
 33 34  1  0  0  0  0
 36 33  1  0  0  0  0
 37 36  1  0  0  0  0
M  END
>  <minimizedAffinity>
-6.38646269

$$$$

 OpenBabel03242518413D

 37 39  0  0  1  0  0  0  0  0999 V2000
   39.4730   34.6780   40.2660 C   0  0  0  0  0  0  0  0  0  0  0  0
   39.8360   36.0270   40.4090 C   0  0  0  0  0  0  0  0  0  0  0  0
   40.9420   36.2730   39.6230 C   0  0  0  0  0  0  0  0  0  0  0  0
   41.2040   35.0760   39.0400 C   0  0  0  0  0  0  0  0  0  0  0  0
   40.3440   34.1350   39.4120 O   0  0  0  0  0  0  0  0  0  0  0  0
   39.2630   36.6640   41.0610 H   0  0  0  0  0  0  0  0  0  0  0  0
   41.4260   37.2230   39.5460 H   0  0  0  0  0  0  0  0  0  0  0  0
   42.3150   34.8410   38.0930 C   0  0  2  0  0  0  0  0  0  0  0  0
   42.6100   33.4920   37.6140 C   0  0  0  0  0  0  0  0  0  0  0  0
   43.4780   34.0140   38.7000 C   0  0  1  0  0  0  0  0  0  0  0  0
   42.6250   35.7780   37.5770 H   0  0  0  0  0  0  0  0  0  0  0  0
   43.0560   33.2920   36.6170 H   0  0  0  0  0  0  0  0  0  0  0  0
   41.8440   32.7010   37.8620 H   0  0  0  0  0  0  0  0  0  0  0  0
   43.3460   33.6720   39.7240 H   0  0  0  0  0  0  0  0  0  0  0  0
   45.8070   34.6480   39.2710 C   0  0  0  0  0  0  0  0  0  0  0  0
   45.6170   34.4620   40.5080 O   0  0  0  0  0  0  0  0  0  0  0  0
   44.7920   34.5030   38.2890 N   0  0  0  0  0  0  0  0  0  0  0  0
   46.7820   34.9370   38.8570 H   0  0  0  0  0  0  0  0  0  0  0  0
   44.9470   34.7330   37.2830 H   0  0  0  0  0  0  0  0  0  0  0  0
   38.4270   33.9070   40.8380 O   0  0  0  0  0  0  0  0  0  0  0  0
   37.7580   32.9730   40.0160 C   0  0  0  0  0  0  0  0  0  0  0  0
   37.0930   33.4470   39.0500 O   0  0  0  0  0  0  0  0  0  0  0  0
   37.9010   31.6020   40.3600 C   0  0  0  0  0  0  0  0  0  0  0  0
   38.8160   30.8970   39.6460 C   0  0  0  0  0  0  0  0  0  0  0  0
   39.0060   29.5480   39.9330 C   0  0  0  0  0  0  0  0  0  0  0  0
   38.2740   28.9980   40.9040 N   0  0  0  0  0  0  0  0  0  0  0  0
   37.3730   29.7130   41.5980 C   0  0  0  0  0  0  0  0  0  0  0  0
   37.2210   30.9980   41.2970 N   0  0  0  0  0  0  0  0  0  0  0  0
   39.4210   31.3250   38.8520 H   0  0  0  0  0  0  0  0  0  0  0  0
   39.7310   28.9650   39.3770 H   0  0  0  0  0  0  0  0  0  0  0  0
   36.5930   29.1370   42.6310 N   0  0  0  0  0  0  0  0  0  0  0  0
   35.6400   29.4970   42.8370 H   0  0  0  0  0  0  0  0  0  0  0  0
   37.1520   27.8200   43.6060 S   0  0  0  0  0  0  0  0  0  0  0  0
   36.6610   26.5410   43.0160 O   0  0  0  0  0  1  0  0  0  0  0  0
   36.6670   27.9260   45.0120 O   0  0  0  0  0  1  0  0  0  0  0  0
   38.8310   27.8090   43.5190 O   0  0  0  0  0  0  0  0  0  0  0  0
   39.2490   28.1640   44.3420 H   0  0  0  0  0  0  0  0  0  0  0  0
  1  2  2  0  0  0  0
  1 20  1  0  0  0  0
  2  6  1  0  0  0  0
  3  2  1  0  0  0  0
  4  5  1  0  0  0  0
  4  3  2  0  0  0  0
  5  1  1  0  0  0  0
  7  3  1  0  0  0  0
  8 11  1  6  0  0  0
  8 10  1  0  0  0  0
  8  4  1  0  0  0  0
  9 13  1  0  0  0  0
  9  8  1  0  0  0  0
  9 10  1  0  0  0  0
 10 14  1  1  0  0  0
 12  9  1  0  0  0  0
 15 16  2  0  0  0  0
 17 10  1  0  0  0  0
 17 15  1  0  0  0  0
 18 15  1  0  0  0  0
 19 17  1  0  0  0  0
 21 23  1  0  0  0  0
 21 20  1  0  0  0  0
 22 21  2  0  0  0  0
 23 28  1  0  0  0  0
 24 25  1  0  0  0  0
 24 23  2  0  0  0  0
 25 26  2  0  0  0  0
 26 27  1  0  0  0  0
 27 31  1  0  0  0  0
 28 27  2  0  0  0  0
 29 24  1  0  0  0  0
 30 25  1  0  0  0  0
 31 32  1  0  0  0  0
 31 33  1  0  0  0  0
 33 35  1  0  0  0  0
 34 33  1  0  0  0  0
 36 33  1  0  0  0  0
 36 37  1  0  0  0  0
M  END
>  <minimizedAffinity>
-6.24364185

$$$$

 OpenBabel03242518413D

 37 39  0  0  1  0  0  0  0  0999 V2000
   37.5280   29.4750   41.6800 C   0  0  0  0  0  0  0  0  0  0  0  0
   38.5910   30.1100   42.3420 C   0  0  0  0  0  0  0  0  0  0  0  0
   39.0120   31.1790   41.5800 C   0  0  0  0  0  0  0  0  0  0  0  0
   38.1970   31.1510   40.4950 C   0  0  0  0  0  0  0  0  0  0  0  0
   37.3230   30.1530   40.5480 O   0  0  0  0  0  0  0  0  0  0  0  0
   38.9310   29.7260   43.2890 H   0  0  0  0  0  0  0  0  0  0  0  0
   39.8110   31.8350   41.8530 H   0  0  0  0  0  0  0  0  0  0  0  0
   38.2670   32.1200   39.3810 C   0  0  2  0  0  0  0  0  0  0  0  0
   37.5450   31.8720   38.1350 C   0  0  0  0  0  0  0  0  0  0  0  0
   38.9980   31.5690   38.1290 C   0  0  1  0  0  0  0  0  0  0  0  0
   38.6130   33.1210   39.7240 H   0  0  0  0  0  0  0  0  0  0  0  0
   37.1620   32.6900   37.4880 H   0  0  0  0  0  0  0  0  0  0  0  0
   36.8090   31.0150   38.1510 H   0  0  0  0  0  0  0  0  0  0  0  0
   39.3480   30.5410   38.1860 H   0  0  0  0  0  0  0  0  0  0  0  0
   41.1940   32.2140   37.1730 C   0  0  0  0  0  0  0  0  0  0  0  0
   41.7230   31.1080   37.4860 O   0  0  0  0  0  0  0  0  0  0  0  0
   39.8570   32.5670   37.4940 N   0  0  0  0  0  0  0  0  0  0  0  0
   41.7350   32.9950   36.6220 H   0  0  0  0  0  0  0  0  0  0  0  0
   39.4610   33.5120   37.2950 H   0  0  0  0  0  0  0  0  0  0  0  0
   36.7370   28.3450   42.0130 O   0  0  0  0  0  0  0  0  0  0  0  0
   37.0990   27.5840   43.1470 C   0  0  0  0  0  0  0  0  0  0  0  0
   36.3170   27.6440   44.1390 O   0  0  0  0  0  0  0  0  0  0  0  0
   38.3010   26.8330   43.0540 C   0  0  0  0  0  0  0  0  0  0  0  0
   38.3290   25.8600   42.1090 C   0  0  0  0  0  0  0  0  0  0  0  0
   39.4780   25.0860   41.9660 C   0  0  0  0  0  0  0  0  0  0  0  0
   40.5130   25.3350   42.7710 N   0  0  0  0  0  0  0  0  0  0  0  0
   40.4650   26.3030   43.7020 C   0  0  0  0  0  0  0  0  0  0  0  0
   39.3520   27.0200   43.8070 N   0  0  0  0  0  0  0  0  0  0  0  0
   37.4990   25.6410   41.4440 H   0  0  0  0  0  0  0  0  0  0  0  0
   39.5230   24.3040   41.2170 H   0  0  0  0  0  0  0  0  0  0  0  0
   41.5590   26.5730   44.5600 N   0  0  0  0  0  0  0  0  0  0  0  0
   41.4000   26.9460   45.5170 H   0  0  0  0  0  0  0  0  0  0  0  0
   43.2050   26.3080   44.0940 S   0  0  0  0  0  0  0  0  0  0  0  0
   44.0860   26.5650   45.2690 O   0  0  0  0  0  1  0  0  0  0  0  0
   43.6150   27.2040   42.9730 O   0  0  0  0  0  1  0  0  0  0  0  0
   43.3560   24.6840   43.6880 O   0  0  0  0  0  0  0  0  0  0  0  0
   43.4030   24.5470   42.7090 H   0  0  0  0  0  0  0  0  0  0  0  0
  1 20  1  0  0  0  0
  1  2  2  0  0  0  0
  2  6  1  0  0  0  0
  3  7  1  0  0  0  0
  3  2  1  0  0  0  0
  4  5  1  0  0  0  0
  4  3  2  0  0  0  0
  5  1  1  0  0  0  0
  8 11  1  1  0  0  0
  8  4  1  0  0  0  0
  9 13  1  0  0  0  0
  9  8  1  0  0  0  0
 10  9  1  0  0  0  0
 10 14  1  6  0  0  0
 10  8  1  0  0  0  0
 12  9  1  0  0  0  0
 15 16  2  0  0  0  0
 15 17  1  0  0  0  0
 17 10  1  0  0  0  0
 18 15  1  0  0  0  0
 19 17  1  0  0  0  0
 20 21  1  0  0  0  0
 21 22  2  0  0  0  0
 23 21  1  0  0  0  0
 23 28  1  0  0  0  0
 24 23  2  0  0  0  0
 25 24  1  0  0  0  0
 25 26  2  0  0  0  0
 26 27  1  0  0  0  0
 27 28  2  0  0  0  0
 27 31  1  0  0  0  0
 29 24  1  0  0  0  0
 30 25  1  0  0  0  0
 31 32  1  0  0  0  0
 33 31  1  0  0  0  0
 33 34  1  0  0  0  0
 35 33  1  0  0  0  0
 36 33  1  0  0  0  0
 37 36  1  0  0  0  0
M  END
>  <minimizedAffinity>
-6.01029873

$$$$

 OpenBabel03242518413D

 37 39  0  0  1  0  0  0  0  0999 V2000
   38.3970   28.9530   42.0610 C   0  0  0  0  0  0  0  0  0  0  0  0
   37.5320   28.3240   42.9710 C   0  0  0  0  0  0  0  0  0  0  0  0
   37.9430   27.0190   43.1420 C   0  0  0  0  0  0  0  0  0  0  0  0
   39.0290   26.9080   42.3370 C   0  0  0  0  0  0  0  0  0  0  0  0
   39.3020   28.0400   41.6990 O   0  0  0  0  0  0  0  0  0  0  0  0
   36.7150   28.8810   43.3970 H   0  0  0  0  0  0  0  0  0  0  0  0
   37.4580   26.3150   43.7850 H   0  0  0  0  0  0  0  0  0  0  0  0
   39.8250   25.6710   42.1850 C   0  0  2  0  0  0  0  0  0  0  0  0
   39.6130   24.5380   43.0820 C   0  0  0  0  0  0  0  0  0  0  0  0
   40.7820   25.4040   43.3760 C   0  0  1  0  0  0  0  0  0  0  0  0
   40.2970   25.6030   41.1790 H   0  0  0  0  0  0  0  0  0  0  0  0
   39.7870   23.4850   42.7740 H   0  0  0  0  0  0  0  0  0  0  0  0
   38.7060   24.6000   43.7530 H   0  0  0  0  0  0  0  0  0  0  0  0
   40.7480   26.1190   44.1940 H   0  0  0  0  0  0  0  0  0  0  0  0
   43.2580   25.4350   43.5300 C   0  0  0  0  0  0  0  0  0  0  0  0
   43.2550   26.4090   44.3380 O   0  0  0  0  0  0  0  0  0  0  0  0
   42.0820   24.8910   42.9490 N   0  0  0  0  0  0  0  0  0  0  0  0
   44.1790   24.9290   43.2130 H   0  0  0  0  0  0  0  0  0  0  0  0
   42.1090   24.1370   42.2280 H   0  0  0  0  0  0  0  0  0  0  0  0
   38.4340   30.2720   41.5370 O   0  0  0  0  0  0  0  0  0  0  0  0
   39.5140   31.1060   41.9010 C   0  0  0  0  0  0  0  0  0  0  0  0
   39.9540   30.9770   43.0800 O   0  0  0  0  0  0  0  0  0  0  0  0
   39.9930   32.0010   40.9080 C   0  0  0  0  0  0  0  0  0  0  0  0
   39.3230   33.1750   40.7840 C   0  0  0  0  0  0  0  0  0  0  0  0
   39.7420   34.0980   39.8290 C   0  0  0  0  0  0  0  0  0  0  0  0
   40.7930   33.7870   39.0670 N   0  0  0  0  0  0  0  0  0  0  0  0
   41.4420   32.6190   39.2040 C   0  0  0  0  0  0  0  0  0  0  0  0
   41.0140   31.7650   40.1270 N   0  0  0  0  0  0  0  0  0  0  0  0
   38.4670   33.4480   41.3930 H   0  0  0  0  0  0  0  0  0  0  0  0
   39.2230   35.0420   39.7130 H   0  0  0  0  0  0  0  0  0  0  0  0
   42.5580   32.2830   38.4000 N   0  0  0  0  0  0  0  0  0  0  0  0
   42.7620   31.2900   38.1670 H   0  0  0  0  0  0  0  0  0  0  0  0
   43.6430   33.4680   37.7560 S   0  0  0  0  0  0  0  0  0  0  0  0
   44.7150   32.7740   36.9860 O   0  0  0  0  0  1  0  0  0  0  0  0
   44.2710   34.2880   38.8330 O   0  0  0  0  0  1  0  0  0  0  0  0
   42.7690   34.4130   36.6750 O   0  0  0  0  0  0  0  0  0  0  0  0
   42.5470   35.3010   37.0510 H   0  0  0  0  0  0  0  0  0  0  0  0
  1  2  2  0  0  0  0
  2  3  1  0  0  0  0
  2  6  1  0  0  0  0
  3  7  1  0  0  0  0
  4  3  2  0  0  0  0
  5  1  1  0  0  0  0
  5  4  1  0  0  0  0
  8 11  1  6  0  0  0
  8  4  1  0  0  0  0
  8  9  1  0  0  0  0
  8 10  1  0  0  0  0
  9 10  1  0  0  0  0
  9 13  1  0  0  0  0
 10 14  1  1  0  0  0
 12  9  1  0  0  0  0
 15 16  2  0  0  0  0
 17 10  1  0  0  0  0
 17 15  1  0  0  0  0
 18 15  1  0  0  0  0
 19 17  1  0  0  0  0
 20 21  1  0  0  0  0
 20  1  1  0  0  0  0
 21 22  2  0  0  0  0
 23 21  1  0  0  0  0
 24 23  1  0  0  0  0
 24 29  1  0  0  0  0
 25 24  2  0  0  0  0
 26 27  2  0  0  0  0
 26 25  1  0  0  0  0
 27 28  1  0  0  0  0
 28 23  2  0  0  0  0
 30 25  1  0  0  0  0
 31 27  1  0  0  0  0
 32 31  1  0  0  0  0
 33 31  1  0  0  0  0
 33 35  1  0  0  0  0
 34 33  1  0  0  0  0
 36 37  1  0  0  0  0
 36 33  1  0  0  0  0
M  END
>  <minimizedAffinity>
-5.93767262

$$$$

 OpenBabel03242518413D

 37 39  0  0  1  0  0  0  0  0999 V2000
   38.6000   28.2220   42.5200 C   0  0  0  0  0  0  0  0  0  0  0  0
   38.7040   27.2380   41.5250 C   0  0  0  0  0  0  0  0  0  0  0  0
   39.6360   26.3030   41.9240 C   0  0  0  0  0  0  0  0  0  0  0  0
   40.0560   26.7520   43.1340 C   0  0  0  0  0  0  0  0  0  0  0  0
   39.4510   27.8790   43.4900 O   0  0  0  0  0  0  0  0  0  0  0  0
   38.1000   27.3150   40.6370 H   0  0  0  0  0  0  0  0  0  0  0  0
   39.9100   25.4430   41.3500 H   0  0  0  0  0  0  0  0  0  0  0  0
   41.0680   26.0680   43.9660 C   0  0  2  0  0  0  0  0  0  0  0  0
   42.0280   26.8400   44.7510 C   0  0  0  0  0  0  0  0  0  0  0  0
   42.5210   26.2790   43.4680 C   0  0  1  0  0  0  0  0  0  0  0  0
   40.7900   25.0090   44.1690 H   0  0  0  0  0  0  0  0  0  0  0  0
   42.4640   26.4690   45.7030 H   0  0  0  0  0  0  0  0  0  0  0  0
   41.8330   27.9500   44.8210 H   0  0  0  0  0  0  0  0  0  0  0  0
   42.6470   26.9180   42.5970 H   0  0  0  0  0  0  0  0  0  0  0  0
   44.7440   25.1780   43.4700 C   0  0  0  0  0  0  0  0  0  0  0  0
   45.3460   26.2600   43.2080 O   0  0  0  0  0  0  0  0  0  0  0  0
   43.3320   25.0670   43.5690 N   0  0  0  0  0  0  0  0  0  0  0  0
   45.2730   24.2320   43.6430 H   0  0  0  0  0  0  0  0  0  0  0  0
   42.8490   24.1530   43.7110 H   0  0  0  0  0  0  0  0  0  0  0  0
   37.8040   29.3940   42.6220 O   0  0  0  0  0  0  0  0  0  0  0  0
   37.0830   29.8150   41.4830 C   0  0  0  0  0  0  0  0  0  0  0  0
   35.9740   29.2410   41.2740 O   0  0  0  0  0  0  0  0  0  0  0  0
   37.6740   30.8360   40.6930 C   0  0  0  0  0  0  0  0  0  0  0  0
   37.3810   30.8150   39.3680 C   0  0  0  0  0  0  0  0  0  0  0  0
   37.9280   31.7890   38.5370 C   0  0  0  0  0  0  0  0  0  0  0  0
   38.7270   32.7090   39.0810 N   0  0  0  0  0  0  0  0  0  0  0  0
   39.0070   32.7120   40.3950 C   0  0  0  0  0  0  0  0  0  0  0  0
   38.4640   31.7680   41.1560 N   0  0  0  0  0  0  0  0  0  0  0  0
   36.7340   30.0760   38.9050 H   0  0  0  0  0  0  0  0  0  0  0  0
   37.7070   31.7930   37.4760 H   0  0  0  0  0  0  0  0  0  0  0  0
   39.8530   33.6860   40.9800 N   0  0  0  0  0  0  0  0  0  0  0  0
   40.4240   33.4550   41.8170 H   0  0  0  0  0  0  0  0  0  0  0  0
   40.0000   35.2960   40.3610 S   0  0  0  0  0  0  0  0  0  0  0  0
   41.0230   35.3030   39.2760 O   0  0  0  0  0  1  0  0  0  0  0  0
   40.4070   36.2630   41.4210 O   0  0  0  0  0  1  0  0  0  0  0  0
   38.5220   35.7030   39.6710 O   0  0  0  0  0  0  0  0  0  0  0  0
   38.0030   36.3240   40.2410 H   0  0  0  0  0  0  0  0  0  0  0  0
  1 20  1  0  0  0  0
  1  5  1  0  0  0  0
  2  3  1  0  0  0  0
  2  1  2  0  0  0  0
  3  4  2  0  0  0  0
  4  5  1  0  0  0  0
  4  8  1  0  0  0  0
  6  2  1  0  0  0  0
  7  3  1  0  0  0  0
  8 11  1  1  0  0  0
  8  9  1  0  0  0  0
  9 13  1  0  0  0  0
  9 12  1  0  0  0  0
 10 14  1  6  0  0  0
 10 17  1  0  0  0  0
 10  8  1  0  0  0  0
 10  9  1  0  0  0  0
 15 17  1  0  0  0  0
 15 18  1  0  0  0  0
 16 15  2  0  0  0  0
 17 19  1  0  0  0  0
 21 20  1  0  0  0  0
 22 21  2  0  0  0  0
 23 28  1  0  0  0  0
 23 21  1  0  0  0  0
 24 23  2  0  0  0  0
 25 26  2  0  0  0  0
 25 24  1  0  0  0  0
 26 27  1  0  0  0  0
 27 31  1  0  0  0  0
 27 28  2  0  0  0  0
 29 24  1  0  0  0  0
 30 25  1  0  0  0  0
 31 32  1  0  0  0  0
 33 31  1  0  0  0  0
 33 35  1  0  0  0  0
 34 33  1  0  0  0  0
 36 37  1  0  0  0  0
 36 33  1  0  0  0  0
M  END
>  <minimizedAffinity>
-5.90025425

$$$$

 OpenBabel03242518413D

 37 39  0  0  1  0  0  0  0  0999 V2000
   37.8020   31.4240   39.7820 C   0  0  0  0  0  0  0  0  0  0  0  0
   36.9660   32.2770   39.0450 C   0  0  0  0  0  0  0  0  0  0  0  0
   37.2870   33.5830   39.3510 C   0  0  0  0  0  0  0  0  0  0  0  0
   38.2950   33.4720   40.2530 C   0  0  0  0  0  0  0  0  0  0  0  0
   38.6030   32.2060   40.5100 O   0  0  0  0  0  0  0  0  0  0  0  0
   36.2300   31.8550   38.3810 H   0  0  0  0  0  0  0  0  0  0  0  0
   36.8020   34.4370   38.9270 H   0  0  0  0  0  0  0  0  0  0  0  0
   38.9790   34.6230   40.8770 C   0  0  2  0  0  0  0  0  0  0  0  0
   39.2090   35.8510   40.1180 C   0  0  0  0  0  0  0  0  0  0  0  0
   40.3660   34.9290   40.2540 C   0  0  1  0  0  0  0  0  0  0  0  0
   38.9670   34.5590   41.9890 H   0  0  0  0  0  0  0  0  0  0  0  0
   39.2600   36.8530   40.5940 H   0  0  0  0  0  0  0  0  0  0  0  0
   38.6840   35.9220   39.1210 H   0  0  0  0  0  0  0  0  0  0  0  0
   40.6720   34.3000   39.4210 H   0  0  0  0  0  0  0  0  0  0  0  0
   42.6610   34.7280   41.1730 C   0  0  0  0  0  0  0  0  0  0  0  0
   42.9840   33.8400   40.3310 O   0  0  0  0  0  0  0  0  0  0  0  0
   41.3640   35.2990   41.2560 N   0  0  0  0  0  0  0  0  0  0  0  0
   43.3660   35.1290   41.9130 H   0  0  0  0  0  0  0  0  0  0  0  0
   41.0940   35.9740   42.0040 H   0  0  0  0  0  0  0  0  0  0  0  0
   37.8990   30.0090   39.8480 O   0  0  0  0  0  0  0  0  0  0  0  0
   37.1110   29.3270   40.8020 C   0  0  0  0  0  0  0  0  0  0  0  0
   35.8580   29.3650   40.6280 O   0  0  0  0  0  0  0  0  0  0  0  0
   37.8040   28.6720   41.8540 C   0  0  0  0  0  0  0  0  0  0  0  0
   37.0370   28.1490   42.8440 C   0  0  0  0  0  0  0  0  0  0  0  0
   37.6550   27.4930   43.9060 C   0  0  0  0  0  0  0  0  0  0  0  0
   38.9870   27.4040   43.9060 N   0  0  0  0  0  0  0  0  0  0  0  0
   39.7280   27.9280   42.9160 C   0  0  0  0  0  0  0  0  0  0  0  0
   39.1030   28.5460   41.9200 N   0  0  0  0  0  0  0  0  0  0  0  0
   35.9530   28.2100   42.8640 H   0  0  0  0  0  0  0  0  0  0  0  0
   37.0620   27.0670   44.7070 H   0  0  0  0  0  0  0  0  0  0  0  0
   41.1420   27.8370   42.9090 N   0  0  0  0  0  0  0  0  0  0  0  0
   41.7170   28.5770   42.4600 H   0  0  0  0  0  0  0  0  0  0  0  0
   42.0010   26.5200   43.6320 S   0  0  0  0  0  0  0  0  0  0  0  0
   43.4510   26.6550   43.3100 O   0  0  0  0  0  1  0  0  0  0  0  0
   41.5130   25.2000   43.1350 O   0  0  0  0  0  1  0  0  0  0  0  0
   41.8330   26.6650   45.2980 O   0  0  0  0  0  0  0  0  0  0  0  0
   41.1870   26.0130   45.6660 H   0  0  0  0  0  0  0  0  0  0  0  0
  1 20  1  0  0  0  0
  1  5  1  0  0  0  0
  2  3  1  0  0  0  0
  2  1  2  0  0  0  0
  3  4  2  0  0  0  0
  4  5  1  0  0  0  0
  4  8  1  0  0  0  0
  6  2  1  0  0  0  0
  7  3  1  0  0  0  0
  8 11  1  1  0  0  0
  9 10  1  0  0  0  0
  9 12  1  0  0  0  0
  9  8  1  0  0  0  0
 10 14  1  6  0  0  0
 10  8  1  0  0  0  0
 10 17  1  0  0  0  0
 13  9  1  0  0  0  0
 15 17  1  0  0  0  0
 15 18  1  0  0  0  0
 16 15  2  0  0  0  0
 17 19  1  0  0  0  0
 20 21  1  0  0  0  0
 21 23  1  0  0  0  0
 22 21  2  0  0  0  0
 23 28  2  0  0  0  0
 23 24  1  0  0  0  0
 24 29  1  0  0  0  0
 24 25  2  0  0  0  0
 25 26  1  0  0  0  0
 25 30  1  0  0  0  0
 27 26  2  0  0  0  0
 28 27  1  0  0  0  0
 31 27  1  0  0  0  0
 31 33  1  0  0  0  0
 32 31  1  0  0  0  0
 33 36  1  0  0  0  0
 34 33  1  0  0  0  0
 35 33  1  0  0  0  0
 36 37  1  0  0  0  0
M  END
>  <minimizedAffinity>
-5.89969349

$$$$

 OpenBabel03242518413D

 37 39  0  0  1  0  0  0  0  0999 V2000
   38.7390   31.6790   37.9280 C   0  0  0  0  0  0  0  0  0  0  0  0
   40.1170   31.4360   38.0450 C   0  0  0  0  0  0  0  0  0  0  0  0
   40.6250   32.2460   39.0380 C   0  0  0  0  0  0  0  0  0  0  0  0
   39.5470   32.9420   39.4800 C   0  0  0  0  0  0  0  0  0  0  0  0
   38.4350   32.6130   38.8330 O   0  0  0  0  0  0  0  0  0  0  0  0
   40.5830   30.7090   37.4020 H   0  0  0  0  0  0  0  0  0  0  0  0
   41.6530   32.2620   39.3340 H   0  0  0  0  0  0  0  0  0  0  0  0
   39.5980   33.9480   40.5610 C   0  0  2  0  0  0  0  0  0  0  0  0
   39.0500   35.2870   40.3550 C   0  0  0  0  0  0  0  0  0  0  0  0
   40.5240   35.1510   40.2420 C   0  0  1  0  0  0  0  0  0  0  0  0
   39.7640   33.4790   41.5570 H   0  0  0  0  0  0  0  0  0  0  0  0
   38.6270   35.8990   41.1800 H   0  0  0  0  0  0  0  0  0  0  0  0
   38.4420   35.4340   39.4140 H   0  0  0  0  0  0  0  0  0  0  0  0
   41.0050   35.1460   39.2670 H   0  0  0  0  0  0  0  0  0  0  0  0
   42.6630   35.2100   41.4970 C   0  0  0  0  0  0  0  0  0  0  0  0
   43.2340   34.4330   40.6780 O   0  0  0  0  0  0  0  0  0  0  0  0
   41.2980   35.5890   41.4020 N   0  0  0  0  0  0  0  0  0  0  0  0
   43.1830   35.6560   42.3550 H   0  0  0  0  0  0  0  0  0  0  0  0
   40.8230   36.1700   42.1280 H   0  0  0  0  0  0  0  0  0  0  0  0
   37.7430   31.1280   37.0790 O   0  0  0  0  0  0  0  0  0  0  0  0
   37.3600   29.7840   37.2800 C   0  0  0  0  0  0  0  0  0  0  0  0
   37.5040   29.0040   36.2940 O   0  0  0  0  0  0  0  0  0  0  0  0
   36.8550   29.4480   38.5640 C   0  0  0  0  0  0  0  0  0  0  0  0
   35.5070   29.5160   38.7150 C   0  0  0  0  0  0  0  0  0  0  0  0
   34.9470   29.1990   39.9500 C   0  0  0  0  0  0  0  0  0  0  0  0
   35.7640   28.8400   40.9420 N   0  0  0  0  0  0  0  0  0  0  0  0
   37.0950   28.7800   40.7730 C   0  0  0  0  0  0  0  0  0  0  0  0
   37.5920   29.0880   39.5800 N   0  0  0  0  0  0  0  0  0  0  0  0
   34.8250   29.8060   37.9220 H   0  0  0  0  0  0  0  0  0  0  0  0
   33.8740   29.2450   40.0940 H   0  0  0  0  0  0  0  0  0  0  0  0
   37.9680   28.3990   41.8210 N   0  0  0  0  0  0  0  0  0  0  0  0
   38.9370   28.7740   41.8650 H   0  0  0  0  0  0  0  0  0  0  0  0
   37.5020   27.3070   43.0810 S   0  0  0  0  0  0  0  0  0  0  0  0
   38.6840   27.0440   43.9520 O   0  0  0  0  0  1  0  0  0  0  0  0
   37.0010   26.0120   42.5350 O   0  0  0  0  0  1  0  0  0  0  0  0
   36.3430   28.0860   44.0160 O   0  0  0  0  0  0  0  0  0  0  0  0
   35.4300   27.7480   43.8370 H   0  0  0  0  0  0  0  0  0  0  0  0
  1  2  2  0  0  0  0
  1  5  1  0  0  0  0
  2  3  1  0  0  0  0
  3  7  1  0  0  0  0
  3  4  2  0  0  0  0
  4  8  1  0  0  0  0
  5  4  1  0  0  0  0
  6  2  1  0  0  0  0
  8 11  1  1  0  0  0
  9  8  1  0  0  0  0
  9 12  1  0  0  0  0
 10 14  1  6  0  0  0
 10  9  1  0  0  0  0
 10  8  1  0  0  0  0
 10 17  1  0  0  0  0
 13  9  1  0  0  0  0
 15 18  1  0  0  0  0
 16 15  2  0  0  0  0
 17 15  1  0  0  0  0
 17 19  1  0  0  0  0
 20 21  1  0  0  0  0
 20  1  1  0  0  0  0
 21 23  1  0  0  0  0
 22 21  2  0  0  0  0
 23 24  2  0  0  0  0
 23 28  1  0  0  0  0
 24 25  1  0  0  0  0
 25 30  1  0  0  0  0
 25 26  2  0  0  0  0
 27 26  1  0  0  0  0
 27 31  1  0  0  0  0
 28 27  2  0  0  0  0
 29 24  1  0  0  0  0
 31 32  1  0  0  0  0
 31 33  1  0  0  0  0
 33 34  1  0  0  0  0
 33 36  1  0  0  0  0
 35 33  1  0  0  0  0
 37 36  1  0  0  0  0
M  END
>  <minimizedAffinity>
-5.75712442

$$$$
