
 OpenBabel03252500043D

 43 45  0  0  0  0  0  0  0  0999 V2000
   44.6140   35.3340   45.1620 C   0  0  0  0  0  0  0  0  0  0  0  0
   45.1320   35.4190   43.8780 C   0  0  0  0  0  0  0  0  0  0  0  0
   46.1080   34.5140   43.4680 C   0  0  0  0  0  0  0  0  0  0  0  0
   46.4550   33.6090   44.4250 N   0  0  0  0  0  0  0  0  0  0  0  0
   45.9630   33.5320   45.6400 C   0  0  0  0  0  0  0  0  0  0  0  0
   45.0430   34.4020   45.9920 N   0  0  0  0  0  0  0  0  0  0  0  0
   43.8550   36.0620   45.4340 H   0  0  0  0  0  0  0  0  0  0  0  0
   46.7330   34.4610   42.1930 C   0  0  0  0  0  0  0  0  0  0  0  0
   47.8450   35.2680   42.0100 C   0  0  0  0  0  0  0  0  0  0  0  0
   48.5760   35.3450   40.8440 C   0  0  0  0  0  0  0  0  0  0  0  0
   48.2190   34.5970   39.7710 C   0  0  0  0  0  0  0  0  0  0  0  0
   47.1220   33.7690   39.8810 C   0  0  0  0  0  0  0  0  0  0  0  0
   46.7050   32.9890   38.8400 C   0  0  0  0  0  0  0  0  0  0  0  0
   45.6200   32.1570   38.9140 C   0  0  0  0  0  0  0  0  0  0  0  0
   44.9310   32.1280   40.1180 C   0  0  0  0  0  0  0  0  0  0  0  0
   45.3750   32.9330   41.1600 C   0  0  0  0  0  0  0  0  0  0  0  0
   46.4370   33.7390   41.0690 C   0  0  0  0  0  0  0  0  0  0  0  0
   48.2250   35.9140   42.8070 H   0  0  0  0  0  0  0  0  0  0  0  0
   49.4390   35.9870   40.7370 H   0  0  0  0  0  0  0  0  0  0  0  0
   48.7620   34.6260   38.8360 H   0  0  0  0  0  0  0  0  0  0  0  0
   47.2730   33.0420   37.9160 H   0  0  0  0  0  0  0  0  0  0  0  0
   45.3280   31.5570   38.0650 H   0  0  0  0  0  0  0  0  0  0  0  0
   44.0800   31.4610   40.1410 H   0  0  0  0  0  0  0  0  0  0  0  0
   44.5430   32.7740   42.3100 N   0  0  0  0  0  0  0  0  0  0  0  0
   44.5020   32.0920   43.0990 H   0  0  0  0  0  0  0  0  0  0  0  0
   43.7230   33.2880   42.6980 H   0  0  0  0  0  0  0  0  0  0  0  0
   46.5360   32.4290   46.4800 C   0  0  0  0  0  0  0  0  0  0  0  0
   45.5600   31.6680   47.0520 F   0  0  0  0  0  0  0  0  0  0  0  0
   47.3860   32.9420   47.4410 F   0  0  0  0  0  0  0  0  0  0  0  0
   47.3940   31.6370   45.6720 F   0  0  0  0  0  0  0  0  0  0  0  0
   44.7270   36.4150   42.8730 C   0  0  0  0  0  0  0  0  0  0  0  0
   44.3720   37.3560   43.3570 H   0  0  0  0  0  0  0  0  0  0  0  0
   45.6230   36.7480   42.2770 H   0  0  0  0  0  0  0  0  0  0  0  0
   43.6830   35.9440   41.9270 C   0  0  0  0  0  0  0  0  0  0  0  0
   43.9950   35.2930   41.1180 H   0  0  0  0  0  0  0  0  0  0  0  0
   43.2980   36.8760   41.4130 H   0  0  0  0  0  0  0  0  0  0  0  0
   42.5330   35.4720   42.6870 N   0  0  0  0  0  0  0  0  0  0  0  0
   42.7280   34.6990   43.3270 H   0  0  0  0  0  0  0  0  0  0  0  0
   41.2240   35.1100   41.6300 S   0  0  0  0  0  0  0  0  0  0  0  0
   41.7280   34.2300   40.5020 O   0  0  0  0  0  0  0  0  0  0  0  0
   40.6750   36.3410   41.0010 O   0  0  0  0  0  0  0  0  0  0  0  0
   40.0660   34.2280   42.4550 O   0  0  0  0  0  0  0  0  0  0  0  0
   39.1350   34.5640   42.2800 H   0  0  0  0  0  0  0  0  0  0  0  0
  1  7  1  0  0  0  0
  1  6  1  0  0  0  0
  2  1  2  0  0  0  0
  3  2  1  0  0  0  0
  3  4  2  0  0  0  0
  4  5  1  0  0  0  0
  5  6  2  0  0  0  0
  5 27  1  0  0  0  0
  8  3  1  0  0  0  0
  9  8  1  0  0  0  0
  9 18  1  0  0  0  0
 10  9  2  0  0  0  0
 11 12  2  0  0  0  0
 11 10  1  0  0  0  0
 12 17  1  0  0  0  0
 13 14  2  0  0  0  0
 13 12  1  0  0  0  0
 14 15  1  0  0  0  0
 15 23  1  0  0  0  0
 15 16  2  0  0  0  0
 16 24  1  0  0  0  0
 17 16  1  0  0  0  0
 17  8  2  0  0  0  0
 19 10  1  0  0  0  0
 20 11  1  0  0  0  0
 21 13  1  0  0  0  0
 22 14  1  0  0  0  0
 24 26  1  0  0  0  0
 24 25  1  0  0  0  0
 27 28  1  0  0  0  0
 27 29  1  0  0  0  0
 30 27  1  0  0  0  0
 31 32  1  0  0  0  0
 31  2  1  0  0  0  0
 33 31  1  0  0  0  0
 34 37  1  0  0  0  0
 34 31  1  0  0  0  0
 35 34  1  0  0  0  0
 36 34  1  0  0  0  0
 37 38  1  0  0  0  0
 39 42  1  0  0  0  0
 39 37  1  0  0  0  0
 40 39  1  0  0  0  0
 41 39  1  0  0  0  0
 43 42  1  0  0  0  0
M  END
>  <minimizedAffinity>
-7.31317377

>  <minimizedRMSD>
0.513356447

$$$$
