
 OpenBabel03252508373D

 39 41  0  0  0  0  0  0  0  0999 V2000
   45.1440   33.9560   40.6920 C   0  0  0  0  0  0  0  0  0  0  0  0
   44.1040   33.6420   39.8550 C   0  0  0  0  0  0  0  0  0  0  0  0
   44.4040   33.1750   38.6140 C   0  0  0  0  0  0  0  0  0  0  0  0
   45.6860   32.9990   38.1510 C   0  0  0  0  0  0  0  0  0  0  0  0
   46.7130   33.3190   39.0020 C   0  0  0  0  0  0  0  0  0  0  0  0
   46.4600   33.7990   40.2790 C   0  0  0  0  0  0  0  0  0  0  0  0
   43.5760   32.9280   37.9580 H   0  0  0  0  0  0  0  0  0  0  0  0
   45.8290   32.6200   37.1430 H   0  0  0  0  0  0  0  0  0  0  0  0
   47.7170   33.1710   38.6110 H   0  0  0  0  0  0  0  0  0  0  0  0
   40.8070   35.2490   40.7830 C   0  0  0  0  0  0  0  0  0  0  0  0
   42.1060   35.0860   40.2620 C   0  0  0  0  0  0  0  0  0  0  0  0
   42.7670   33.8420   40.3830 C   0  0  0  0  0  0  0  0  0  0  0  0
   42.0640   32.8830   41.0130 N   0  0  0  0  0  0  0  0  0  0  0  0
   40.8380   33.0450   41.5020 C   0  0  0  0  0  0  0  0  0  0  0  0
   40.2090   34.2220   41.3910 N   0  0  0  0  0  0  0  0  0  0  0  0
   40.1920   36.5060   40.6380 N   0  0  0  0  0  0  0  0  0  0  0  0
   42.5900   35.9080   39.7740 H   0  0  0  0  0  0  0  0  0  0  0  0
   40.3160   32.2480   41.9990 H   0  0  0  0  0  0  0  0  0  0  0  0
   39.9530   36.8060   39.6480 H   0  0  0  0  0  0  0  0  0  0  0  0
   39.9080   37.2420   41.3230 H   0  0  0  0  0  0  0  0  0  0  0  0
   47.6150   34.1100   41.0940 C   0  0  0  0  0  0  0  0  0  0  0  0
   48.1530   35.3550   40.9640 C   0  0  0  0  0  0  0  0  0  0  0  0
   49.2530   35.8330   41.6550 C   0  0  0  0  0  0  0  0  0  0  0  0
   49.8470   34.9760   42.5460 C   0  0  0  0  0  0  0  0  0  0  0  0
   49.3370   33.7120   42.7060 C   0  0  0  0  0  0  0  0  0  0  0  0
   48.2390   33.2860   41.9930 C   0  0  0  0  0  0  0  0  0  0  0  0
   47.7190   36.0860   40.2650 H   0  0  0  0  0  0  0  0  0  0  0  0
   49.6380   36.8310   41.5130 H   0  0  0  0  0  0  0  0  0  0  0  0
   50.7110   35.3200   43.1030 H   0  0  0  0  0  0  0  0  0  0  0  0
   49.8480   33.0840   43.4220 H   0  0  0  0  0  0  0  0  0  0  0  0
   47.7080   31.9750   42.1600 N   0  0  0  0  0  0  0  0  0  0  0  0
   47.0950   31.7500   42.9850 H   0  0  0  0  0  0  0  0  0  0  0  0
   47.8260   30.5330   41.2760 S   0  0  0  0  0  0  0  0  0  0  0  0
   46.4720   30.1540   40.6880 O   0  0  0  0  0  1  0  0  0  0  0  0
   48.8410   30.6070   40.1930 O   0  0  0  0  0  1  0  0  0  0  0  0
   48.2020   29.2940   42.3790 O   0  0  0  0  0  0  0  0  0  0  0  0
   49.1490   29.5070   42.6540 H   0  0  0  0  0  0  0  0  0  0  0  0
   44.7350   34.8680   43.1000 N   0  0  0  0  0  0  0  0  0  0  0  0
   44.9220   34.4570   42.0220 C   0  0  0  0  0  0  0  0  0  0  0  0
  1 39  1  0  0  0  0
  2 12  1  0  0  0  0
  2  1  2  0  0  0  0
  3  2  1  0  0  0  0
  4  3  2  0  0  0  0
  4  5  1  0  0  0  0
  5  6  2  0  0  0  0
  6  1  1  0  0  0  0
  6 21  1  0  0  0  0
  7  3  1  0  0  0  0
  8  4  1  0  0  0  0
  9  5  1  0  0  0  0
 10 15  1  0  0  0  0
 11 12  1  0  0  0  0
 11 10  2  0  0  0  0
 12 13  2  0  0  0  0
 13 14  1  0  0  0  0
 14 18  1  0  0  0  0
 15 14  2  0  0  0  0
 16 10  1  0  0  0  0
 16 20  1  0  0  0  0
 17 11  1  0  0  0  0
 19 16  1  0  0  0  0
 21 26  1  0  0  0  0
 22 21  2  0  0  0  0
 22 23  1  0  0  0  0
 23 24  2  0  0  0  0
 24 25  1  0  0  0  0
 24 29  1  0  0  0  0
 25 30  1  0  0  0  0
 26 31  1  0  0  0  0
 26 25  2  0  0  0  0
 27 22  1  0  0  0  0
 28 23  1  0  0  0  0
 31 32  1  0  0  0  0
 33 31  1  0  0  0  0
 33 36  1  0  0  0  0
 34 33  1  0  0  0  0
 35 33  1  0  0  0  0
 36 37  1  0  0  0  0
 39 38  3  0  0  0  0
M  END
>  <minimizedAffinity>
-5.61729765

>  <minimizedRMSD>
0.285200655

$$$$
