
 OpenBabel03252500593D

 36 37  0  0  0  0  0  0  0  0999 V2000
   36.5800   29.9540   39.2600 O   0  0  0  0  0  0  0  0  0  0  0  0
   36.7420   29.9730   40.7710 P   0  0  1  0  0  0  0  0  0  0  0  0
   35.6660   31.1300   41.3940 O   0  0  0  0  0  0  0  0  0  0  0  0
   35.8300   31.2630   42.3690 H   0  0  0  0  0  0  0  0  0  0  0  0
   36.2870   28.4700   41.3990 O   0  0  0  0  0  0  0  0  0  0  0  0
   37.6640   26.6680   42.0230 C   0  0  0  0  0  0  0  0  0  0  0  0
   36.8380   27.2350   41.0800 C   0  0  0  0  0  0  0  0  0  0  0  0
   36.6210   26.5250   39.8830 C   0  0  0  0  0  0  0  0  0  0  0  0
   37.2490   25.3320   39.7560 N   0  0  0  0  0  0  0  0  0  0  0  0
   38.0410   24.8080   40.6820 C   0  0  0  0  0  0  0  0  0  0  0  0
   38.2500   25.4780   41.8210 N   0  0  0  0  0  0  0  0  0  0  0  0
   35.9720   27.0020   39.1760 H   0  0  0  0  0  0  0  0  0  0  0  0
   38.5270   23.8510   40.5480 H   0  0  0  0  0  0  0  0  0  0  0  0
   37.9310   27.3570   43.2930 C   0  0  0  0  0  0  0  0  0  0  0  0
   37.6550   26.7210   44.1590 H   0  0  0  0  0  0  0  0  0  0  0  0
   37.3230   28.2850   43.3640 H   0  0  0  0  0  0  0  0  0  0  0  0
   39.3870   27.7040   43.3730 C   0  0  0  0  0  0  0  0  0  0  0  0
   39.7870   27.5820   44.3970 H   0  0  0  0  0  0  0  0  0  0  0  0
   39.5680   28.7190   42.9750 H   0  0  0  0  0  0  0  0  0  0  0  0
   39.9490   26.9920   42.7150 H   0  0  0  0  0  0  0  0  0  0  0  0
   38.2970   30.4410   41.1950 O   0  0  0  0  0  0  0  0  0  0  0  0
   38.8890   31.5080   40.5230 C   0  0  0  0  0  0  0  0  0  0  0  0
   38.7620   32.7620   41.0990 C   0  0  0  0  0  0  0  0  0  0  0  0
   39.3160   33.8810   40.5070 C   0  0  0  0  0  0  0  0  0  0  0  0
   39.9920   33.7300   39.3430 N   0  0  0  0  0  0  0  0  0  0  0  0
   40.1120   32.5160   38.7930 C   0  0  0  0  0  0  0  0  0  0  0  0
   39.5800   31.4390   39.3600 N   0  0  0  0  0  0  0  0  0  0  0  0
   38.2120   32.8750   42.0420 H   0  0  0  0  0  0  0  0  0  0  0  0
   39.2050   34.8500   40.9710 H   0  0  0  0  0  0  0  0  0  0  0  0
   40.8300   32.3980   37.5700 N   0  0  0  0  0  0  0  0  0  0  0  0
   40.3880   32.0300   36.7000 H   0  0  0  0  0  0  0  0  0  0  0  0
   42.4860   32.8390   37.3830 S   0  0  0  0  0  0  0  0  0  0  0  0
   43.1190   32.9030   38.7450 O   0  0  0  0  0  1  0  0  0  0  0  0
   43.2540   31.7930   36.6220 O   0  0  0  0  0  1  0  0  0  0  0  0
   42.6530   34.3360   36.6530 O   0  0  0  0  0  0  0  0  0  0  0  0
   43.4290   34.2780   36.0430 H   0  0  0  0  0  0  0  0  0  0  0  0
  2  1  2  6  0  0  0
  2 21  1  0  0  0  0
  2  3  1  0  0  0  0
  2  5  1  0  0  0  0
  3  4  1  0  0  0  0
  6 14  1  0  0  0  0
  7  5  1  0  0  0  0
  7  6  2  0  0  0  0
  8  7  1  0  0  0  0
  9  8  2  0  0  0  0
  9 10  1  0  0  0  0
 10 11  2  0  0  0  0
 11  6  1  0  0  0  0
 12  8  1  0  0  0  0
 13 10  1  0  0  0  0
 14 16  1  0  0  0  0
 14 17  1  0  0  0  0
 14 15  1  0  0  0  0
 17 18  1  0  0  0  0
 19 17  1  0  0  0  0
 20 17  1  0  0  0  0
 22 23  1  0  0  0  0
 22 21  1  0  0  0  0
 23 28  1  0  0  0  0
 24 29  1  0  0  0  0
 24 23  2  0  0  0  0
 25 24  1  0  0  0  0
 26 25  2  0  0  0  0
 26 27  1  0  0  0  0
 27 22  2  0  0  0  0
 30 26  1  0  0  0  0
 31 30  1  0  0  0  0
 32 30  1  0  0  0  0
 32 33  1  0  0  0  0
 34 32  1  0  0  0  0
 35 32  1  0  0  0  0
 36 35  1  0  0  0  0
M  END
>  <minimizedAffinity>
-6.00382757

$$$$

 OpenBabel03252500593D

 36 37  0  0  0  0  0  0  0  0999 V2000
   37.0330   29.7570   39.6530 O   0  0  0  0  0  0  0  0  0  0  0  0
   37.0630   30.9130   40.6380 P   0  0  1  0  0  0  0  0  0  0  0  0
   35.5540   30.9720   41.4160 O   0  0  0  0  0  0  0  0  0  0  0  0
   35.4890   31.7930   41.9800 H   0  0  0  0  0  0  0  0  0  0  0  0
   38.2300   30.6050   41.8230 O   0  0  0  0  0  0  0  0  0  0  0  0
   38.8290   28.5220   42.7380 C   0  0  0  0  0  0  0  0  0  0  0  0
   39.1190   29.5380   41.8560 C   0  0  0  0  0  0  0  0  0  0  0  0
   40.2800   29.4130   41.0680 C   0  0  0  0  0  0  0  0  0  0  0  0
   41.0230   28.2940   41.2450 N   0  0  0  0  0  0  0  0  0  0  0  0
   40.7200   27.3300   42.1040 C   0  0  0  0  0  0  0  0  0  0  0  0
   39.6170   27.4430   42.8540 N   0  0  0  0  0  0  0  0  0  0  0  0
   40.4700   30.2250   40.3950 H   0  0  0  0  0  0  0  0  0  0  0  0
   41.3360   26.4490   42.2190 H   0  0  0  0  0  0  0  0  0  0  0  0
   37.6320   28.5910   43.5880 C   0  0  0  0  0  0  0  0  0  0  0  0
   37.1250   29.5730   43.4870 H   0  0  0  0  0  0  0  0  0  0  0  0
   37.9110   28.4780   44.6570 H   0  0  0  0  0  0  0  0  0  0  0  0
   36.6830   27.4980   43.1980 C   0  0  0  0  0  0  0  0  0  0  0  0
   35.6290   27.8280   43.2440 H   0  0  0  0  0  0  0  0  0  0  0  0
   36.8610   26.5920   43.8070 H   0  0  0  0  0  0  0  0  0  0  0  0
   36.8940   27.2200   42.1340 H   0  0  0  0  0  0  0  0  0  0  0  0
   37.2820   32.3710   39.8370 O   0  0  0  0  0  0  0  0  0  0  0  0
   38.5540   32.7060   39.3770 C   0  0  0  0  0  0  0  0  0  0  0  0
   39.2400   33.6840   40.0800 C   0  0  0  0  0  0  0  0  0  0  0  0
   40.5080   34.0820   39.6990 C   0  0  0  0  0  0  0  0  0  0  0  0
   41.0740   33.4940   38.6190 N   0  0  0  0  0  0  0  0  0  0  0  0
   40.4070   32.5490   37.9460 C   0  0  0  0  0  0  0  0  0  0  0  0
   39.1880   32.1650   38.3090 N   0  0  0  0  0  0  0  0  0  0  0  0
   38.7730   34.1550   40.9540 H   0  0  0  0  0  0  0  0  0  0  0  0
   41.0260   34.8460   40.2590 H   0  0  0  0  0  0  0  0  0  0  0  0
   41.0360   31.9550   36.8160 N   0  0  0  0  0  0  0  0  0  0  0  0
   40.6220   32.0050   35.8600 H   0  0  0  0  0  0  0  0  0  0  0  0
   42.5280   31.0950   36.8910 S   0  0  0  0  0  0  0  0  0  0  0  0
   42.6890   30.5390   38.2770 O   0  0  0  0  0  1  0  0  0  0  0  0
   42.5270   29.9070   35.9680 O   0  0  0  0  0  1  0  0  0  0  0  0
   43.8360   32.0890   36.5650 O   0  0  0  0  0  0  0  0  0  0  0  0
   44.4780   31.5600   36.0310 H   0  0  0  0  0  0  0  0  0  0  0  0
  2  1  2  6  0  0  0
  2  3  1  0  0  0  0
  2  5  1  0  0  0  0
  3  4  1  0  0  0  0
  5  7  1  0  0  0  0
  6 11  1  0  0  0  0
  6 14  1  0  0  0  0
  7  6  2  0  0  0  0
  8  9  2  0  0  0  0
  8  7  1  0  0  0  0
  9 10  1  0  0  0  0
 10 13  1  0  0  0  0
 10 11  2  0  0  0  0
 12  8  1  0  0  0  0
 14 16  1  0  0  0  0
 15 14  1  0  0  0  0
 17 18  1  0  0  0  0
 17 14  1  0  0  0  0
 17 19  1  0  0  0  0
 20 17  1  0  0  0  0
 21  2  1  0  0  0  0
 22 21  1  0  0  0  0
 22 23  1  0  0  0  0
 23 28  1  0  0  0  0
 24 23  2  0  0  0  0
 24 29  1  0  0  0  0
 25 24  1  0  0  0  0
 26 27  1  0  0  0  0
 26 25  2  0  0  0  0
 27 22  2  0  0  0  0
 30 32  1  0  0  0  0
 30 26  1  0  0  0  0
 31 30  1  0  0  0  0
 32 33  1  0  0  0  0
 34 32  1  0  0  0  0
 35 32  1  0  0  0  0
 36 35  1  0  0  0  0
M  END
>  <minimizedAffinity>
-5.89421988

$$$$

 OpenBabel03252500593D

 36 37  0  0  0  0  0  0  0  0999 V2000
   37.3360   31.6640   38.4590 O   0  0  0  0  0  0  0  0  0  0  0  0
   37.4750   32.2080   39.8710 P   0  0  1  0  0  0  0  0  0  0  0  0
   36.8640   33.7920   39.8800 O   0  0  0  0  0  0  0  0  0  0  0  0
   37.0510   34.2290   40.7570 H   0  0  0  0  0  0  0  0  0  0  0  0
   36.5160   31.2900   40.9190 O   0  0  0  0  0  0  0  0  0  0  0  0
   36.0240   28.9920   41.0110 C   0  0  0  0  0  0  0  0  0  0  0  0
   36.8150   30.0350   41.4350 C   0  0  0  0  0  0  0  0  0  0  0  0
   37.8490   29.7480   42.3460 C   0  0  0  0  0  0  0  0  0  0  0  0
   37.9830   28.4580   42.7360 N   0  0  0  0  0  0  0  0  0  0  0  0
   37.2050   27.4710   42.3110 C   0  0  0  0  0  0  0  0  0  0  0  0
   36.2220   27.7370   41.4440 N   0  0  0  0  0  0  0  0  0  0  0  0
   38.4410   30.5890   42.6520 H   0  0  0  0  0  0  0  0  0  0  0  0
   37.3400   26.4500   42.6420 H   0  0  0  0  0  0  0  0  0  0  0  0
   34.9290   29.2240   40.0600 C   0  0  0  0  0  0  0  0  0  0  0  0
   34.6760   30.3030   39.9960 H   0  0  0  0  0  0  0  0  0  0  0  0
   34.0100   28.6940   40.3920 H   0  0  0  0  0  0  0  0  0  0  0  0
   35.3330   28.7260   38.7050 C   0  0  0  0  0  0  0  0  0  0  0  0
   34.9680   29.3840   37.8950 H   0  0  0  0  0  0  0  0  0  0  0  0
   35.0130   27.6770   38.5640 H   0  0  0  0  0  0  0  0  0  0  0  0
   36.4520   28.7330   38.6540 H   0  0  0  0  0  0  0  0  0  0  0  0
   39.0900   32.2810   40.3230 O   0  0  0  0  0  0  0  0  0  0  0  0
   40.0470   32.5980   39.3610 C   0  0  0  0  0  0  0  0  0  0  0  0
   40.5960   33.8700   39.4160 C   0  0  0  0  0  0  0  0  0  0  0  0
   41.5530   34.2770   38.5060 C   0  0  0  0  0  0  0  0  0  0  0  0
   41.9490   33.4030   37.5510 N   0  0  0  0  0  0  0  0  0  0  0  0
   41.4170   32.1760   37.5040 C   0  0  0  0  0  0  0  0  0  0  0  0
   40.4970   31.7830   38.3780 N   0  0  0  0  0  0  0  0  0  0  0  0
   40.2670   34.5720   40.1940 H   0  0  0  0  0  0  0  0  0  0  0  0
   41.9670   35.2720   38.5640 H   0  0  0  0  0  0  0  0  0  0  0  0
   41.8610   31.2870   36.4850 N   0  0  0  0  0  0  0  0  0  0  0  0
   41.2090   30.8860   35.7760 H   0  0  0  0  0  0  0  0  0  0  0  0
   43.4960   30.7740   36.3050 S   0  0  0  0  0  0  0  0  0  0  0  0
   43.8200   29.8120   37.4130 O   0  0  0  0  0  1  0  0  0  0  0  0
   43.6980   30.0100   35.0250 O   0  0  0  0  0  1  0  0  0  0  0  0
   44.5650   32.0610   36.3940 O   0  0  0  0  0  0  0  0  0  0  0  0
   45.2780   31.8930   35.7300 H   0  0  0  0  0  0  0  0  0  0  0  0
  2  1  2  6  0  0  0
  2  3  1  0  0  0  0
  2 21  1  0  0  0  0
  2  5  1  0  0  0  0
  3  4  1  0  0  0  0
  5  7  1  0  0  0  0
  6  7  2  0  0  0  0
  6 11  1  0  0  0  0
  7  8  1  0  0  0  0
  8 12  1  0  0  0  0
  8  9  2  0  0  0  0
 10 13  1  0  0  0  0
 10  9  1  0  0  0  0
 11 10  2  0  0  0  0
 14 16  1  0  0  0  0
 14  6  1  0  0  0  0
 15 14  1  0  0  0  0
 17 14  1  0  0  0  0
 18 17  1  0  0  0  0
 19 17  1  0  0  0  0
 20 17  1  0  0  0  0
 22 23  1  0  0  0  0
 22 21  1  0  0  0  0
 23 28  1  0  0  0  0
 24 29  1  0  0  0  0
 24 23  2  0  0  0  0
 25 24  1  0  0  0  0
 26 25  2  0  0  0  0
 26 27  1  0  0  0  0
 27 22  2  0  0  0  0
 30 26  1  0  0  0  0
 31 30  1  0  0  0  0
 32 35  1  0  0  0  0
 32 30  1  0  0  0  0
 32 33  1  0  0  0  0
 34 32  1  0  0  0  0
 36 35  1  0  0  0  0
M  END
>  <minimizedAffinity>
-5.87002993

$$$$

 OpenBabel03252500593D

 36 37  0  0  0  0  0  0  0  0999 V2000
   36.4940   31.3340   38.8020 O   0  0  0  0  0  0  0  0  0  0  0  0
   37.0410   31.2100   40.2140 P   0  0  1  0  0  0  0  0  0  0  0  0
   35.7200   31.1530   41.2800 O   0  0  0  0  0  0  0  0  0  0  0  0
   36.0370   31.1980   42.2240 H   0  0  0  0  0  0  0  0  0  0  0  0
   37.8740   29.7460   40.3620 O   0  0  0  0  0  0  0  0  0  0  0  0
   39.0780   28.8870   42.1910 C   0  0  0  0  0  0  0  0  0  0  0  0
   37.9030   28.9150   41.4750 C   0  0  0  0  0  0  0  0  0  0  0  0
   36.8400   28.1100   41.9250 C   0  0  0  0  0  0  0  0  0  0  0  0
   37.0620   27.3650   43.0350 N   0  0  0  0  0  0  0  0  0  0  0  0
   38.2060   27.3570   43.7060 C   0  0  0  0  0  0  0  0  0  0  0  0
   39.2190   28.1210   43.2830 N   0  0  0  0  0  0  0  0  0  0  0  0
   35.9430   28.1610   41.3400 H   0  0  0  0  0  0  0  0  0  0  0  0
   38.3490   26.7500   44.5900 H   0  0  0  0  0  0  0  0  0  0  0  0
   40.2250   29.7050   41.7740 C   0  0  0  0  0  0  0  0  0  0  0  0
   40.1120   30.0500   40.7260 H   0  0  0  0  0  0  0  0  0  0  0  0
   41.1620   29.1080   41.8200 H   0  0  0  0  0  0  0  0  0  0  0  0
   40.3430   30.8940   42.6800 C   0  0  0  0  0  0  0  0  0  0  0  0
   40.6480   31.8040   42.1320 H   0  0  0  0  0  0  0  0  0  0  0  0
   41.0190   30.6720   43.5270 H   0  0  0  0  0  0  0  0  0  0  0  0
   39.3320   31.0970   43.1170 H   0  0  0  0  0  0  0  0  0  0  0  0
   37.9620   32.5550   40.6130 O   0  0  0  0  0  0  0  0  0  0  0  0
   39.0610   32.8820   39.8210 C   0  0  0  0  0  0  0  0  0  0  0  0
   39.7420   34.0460   40.1400 C   0  0  0  0  0  0  0  0  0  0  0  0
   40.8440   34.4520   39.4120 C   0  0  0  0  0  0  0  0  0  0  0  0
   41.2520   33.6850   38.3730 N   0  0  0  0  0  0  0  0  0  0  0  0
   40.5910   32.5620   38.0710 C   0  0  0  0  0  0  0  0  0  0  0  0
   39.5310   32.1690   38.7690 N   0  0  0  0  0  0  0  0  0  0  0  0
   39.4030   34.6610   40.9830 H   0  0  0  0  0  0  0  0  0  0  0  0
   41.3610   35.3630   39.6750 H   0  0  0  0  0  0  0  0  0  0  0  0
   41.0510   31.7830   36.9730 N   0  0  0  0  0  0  0  0  0  0  0  0
   40.4500   31.5830   36.1440 H   0  0  0  0  0  0  0  0  0  0  0  0
   42.6260   31.0890   36.8810 S   0  0  0  0  0  0  0  0  0  0  0  0
   42.8750   30.3040   38.1390 O   0  0  0  0  0  1  0  0  0  0  0  0
   42.7290   30.1010   35.7520 O   0  0  0  0  0  1  0  0  0  0  0  0
   43.8150   32.2600   36.7460 O   0  0  0  0  0  0  0  0  0  0  0  0
   44.4970   31.9120   36.1210 H   0  0  0  0  0  0  0  0  0  0  0  0
  2  1  2  6  0  0  0
  2  5  1  0  0  0  0
  2 21  1  0  0  0  0
  2  3  1  0  0  0  0
  3  4  1  0  0  0  0
  5  7  1  0  0  0  0
  6 11  1  0  0  0  0
  7  8  1  0  0  0  0
  7  6  2  0  0  0  0
  8  9  2  0  0  0  0
  9 10  1  0  0  0  0
 10 13  1  0  0  0  0
 11 10  2  0  0  0  0
 12  8  1  0  0  0  0
 14 16  1  0  0  0  0
 14  6  1  0  0  0  0
 14 17  1  0  0  0  0
 15 14  1  0  0  0  0
 17 20  1  0  0  0  0
 17 19  1  0  0  0  0
 18 17  1  0  0  0  0
 22 23  1  0  0  0  0
 22 21  1  0  0  0  0
 23 28  1  0  0  0  0
 24 29  1  0  0  0  0
 24 23  2  0  0  0  0
 25 24  1  0  0  0  0
 26 25  2  0  0  0  0
 26 27  1  0  0  0  0
 27 22  2  0  0  0  0
 30 26  1  0  0  0  0
 31 30  1  0  0  0  0
 32 30  1  0  0  0  0
 32 33  1  0  0  0  0
 34 32  1  0  0  0  0
 35 32  1  0  0  0  0
 36 35  1  0  0  0  0
M  END
>  <minimizedAffinity>
-5.85769606

$$$$

 OpenBabel03252500593D

 36 37  0  0  0  0  0  0  0  0999 V2000
   37.9010   27.8250   38.5680 O   0  0  0  0  0  0  0  0  0  0  0  0
   36.4250   28.1110   38.7890 P   0  0  1  0  0  0  0  0  0  0  0  0
   35.5360   26.9820   37.8850 O   0  0  0  0  0  0  0  0  0  0  0  0
   34.5660   27.2130   37.9030 H   0  0  0  0  0  0  0  0  0  0  0  0
   36.0480   27.8630   40.4190 O   0  0  0  0  0  0  0  0  0  0  0  0
   37.4500   26.6310   41.8490 C   0  0  0  0  0  0  0  0  0  0  0  0
   36.9370   27.8550   41.4860 C   0  0  0  0  0  0  0  0  0  0  0  0
   37.3500   28.9850   42.2180 C   0  0  0  0  0  0  0  0  0  0  0  0
   38.2270   28.7730   43.2290 N   0  0  0  0  0  0  0  0  0  0  0  0
   38.7060   27.5810   43.5570 C   0  0  0  0  0  0  0  0  0  0  0  0
   38.3170   26.5040   42.8650 N   0  0  0  0  0  0  0  0  0  0  0  0
   36.9270   29.9180   41.9030 H   0  0  0  0  0  0  0  0  0  0  0  0
   39.4060   27.4470   44.3710 H   0  0  0  0  0  0  0  0  0  0  0  0
   37.0600   25.4130   41.1250 C   0  0  0  0  0  0  0  0  0  0  0  0
   37.7260   25.2320   40.2570 H   0  0  0  0  0  0  0  0  0  0  0  0
   36.0270   25.5140   40.7270 H   0  0  0  0  0  0  0  0  0  0  0  0
   37.1260   24.2400   42.0560 C   0  0  0  0  0  0  0  0  0  0  0  0
   37.5040   23.3310   41.5520 H   0  0  0  0  0  0  0  0  0  0  0  0
   36.1450   24.0690   42.5380 H   0  0  0  0  0  0  0  0  0  0  0  0
   37.8500   24.4870   42.8740 H   0  0  0  0  0  0  0  0  0  0  0  0
   36.0270   29.6420   38.2280 O   0  0  0  0  0  0  0  0  0  0  0  0
   36.9340   30.6850   38.4070 C   0  0  0  0  0  0  0  0  0  0  0  0
   36.8170   31.4270   39.5720 C   0  0  0  0  0  0  0  0  0  0  0  0
   37.6720   32.4800   39.8370 C   0  0  0  0  0  0  0  0  0  0  0  0
   38.6340   32.7770   38.9310 N   0  0  0  0  0  0  0  0  0  0  0  0
   38.7410   32.0560   37.8090 C   0  0  0  0  0  0  0  0  0  0  0  0
   37.9210   31.0430   37.5510 N   0  0  0  0  0  0  0  0  0  0  0  0
   36.0340   31.1790   40.2990 H   0  0  0  0  0  0  0  0  0  0  0  0
   37.5650   33.0470   40.7500 H   0  0  0  0  0  0  0  0  0  0  0  0
   39.7650   32.4000   36.8820 N   0  0  0  0  0  0  0  0  0  0  0  0
   39.5530   32.6850   35.9020 H   0  0  0  0  0  0  0  0  0  0  0  0
   41.4470   32.3840   37.2620 S   0  0  0  0  0  0  0  0  0  0  0  0
   41.5980   32.2440   38.7500 O   0  0  0  0  0  1  0  0  0  0  0  0
   42.1370   31.1890   36.6630 O   0  0  0  0  0  1  0  0  0  0  0  0
   42.2050   33.7990   36.7840 O   0  0  0  0  0  0  0  0  0  0  0  0
   43.0970   33.5490   36.4390 H   0  0  0  0  0  0  0  0  0  0  0  0
  2  1  2  6  0  0  0
  2  5  1  0  0  0  0
  3  4  1  0  0  0  0
  3  2  1  0  0  0  0
  5  7  1  0  0  0  0
  6 11  1  0  0  0  0
  7  6  2  0  0  0  0
  7  8  1  0  0  0  0
  8  9  2  0  0  0  0
  9 10  1  0  0  0  0
 10 13  1  0  0  0  0
 11 10  2  0  0  0  0
 12  8  1  0  0  0  0
 14  6  1  0  0  0  0
 14 17  1  0  0  0  0
 15 14  1  0  0  0  0
 16 14  1  0  0  0  0
 17 19  1  0  0  0  0
 17 20  1  0  0  0  0
 18 17  1  0  0  0  0
 21 22  1  0  0  0  0
 21  2  1  0  0  0  0
 22 23  1  0  0  0  0
 23 24  2  0  0  0  0
 23 28  1  0  0  0  0
 24 29  1  0  0  0  0
 25 24  1  0  0  0  0
 26 25  2  0  0  0  0
 27 26  1  0  0  0  0
 27 22  2  0  0  0  0
 30 32  1  0  0  0  0
 30 26  1  0  0  0  0
 31 30  1  0  0  0  0
 32 33  1  0  0  0  0
 34 32  1  0  0  0  0
 35 32  1  0  0  0  0
 36 35  1  0  0  0  0
M  END
>  <minimizedAffinity>
-5.79685736

$$$$

 OpenBabel03252500593D

 36 37  0  0  0  0  0  0  0  0999 V2000
   34.3300   29.2380   39.9900 O   0  0  0  0  0  0  0  0  0  0  0  0
   35.7380   29.4830   40.5070 P   0  0  1  0  0  0  0  0  0  0  0  0
   35.6780   30.8100   41.5660 O   0  0  0  0  0  0  0  0  0  0  0  0
   36.6000   31.0820   41.8290 H   0  0  0  0  0  0  0  0  0  0  0  0
   36.2430   28.1430   41.4050 O   0  0  0  0  0  0  0  0  0  0  0  0
   37.7820   26.7210   42.4740 C   0  0  0  0  0  0  0  0  0  0  0  0
   37.4560   27.9940   42.0660 C   0  0  0  0  0  0  0  0  0  0  0  0
   38.3690   29.0290   42.3470 C   0  0  0  0  0  0  0  0  0  0  0  0
   39.5030   28.6850   43.0040 N   0  0  0  0  0  0  0  0  0  0  0  0
   39.7920   27.4480   43.3870 C   0  0  0  0  0  0  0  0  0  0  0  0
   38.9280   26.4610   43.1210 N   0  0  0  0  0  0  0  0  0  0  0  0
   38.0770   30.0050   42.0120 H   0  0  0  0  0  0  0  0  0  0  0  0
   40.7070   27.2080   43.9090 H   0  0  0  0  0  0  0  0  0  0  0  0
   36.8740   25.5970   42.2110 C   0  0  0  0  0  0  0  0  0  0  0  0
   36.1970   25.8200   41.3600 H   0  0  0  0  0  0  0  0  0  0  0  0
   36.2310   25.4040   43.0960 H   0  0  0  0  0  0  0  0  0  0  0  0
   37.6780   24.3710   41.8980 C   0  0  0  0  0  0  0  0  0  0  0  0
   37.2100   23.7580   41.1060 H   0  0  0  0  0  0  0  0  0  0  0  0
   37.8690   23.7860   42.8170 H   0  0  0  0  0  0  0  0  0  0  0  0
   38.6760   24.7010   41.5110 H   0  0  0  0  0  0  0  0  0  0  0  0
   36.7720   29.8820   39.2470 O   0  0  0  0  0  0  0  0  0  0  0  0
   37.6260   30.9730   39.3920 C   0  0  0  0  0  0  0  0  0  0  0  0
   37.0410   32.2290   39.4300 C   0  0  0  0  0  0  0  0  0  0  0  0
   37.8070   33.3710   39.5720 C   0  0  0  0  0  0  0  0  0  0  0  0
   39.1510   33.2400   39.6750 N   0  0  0  0  0  0  0  0  0  0  0  0
   39.7090   32.0250   39.6390 C   0  0  0  0  0  0  0  0  0  0  0  0
   38.9760   30.9250   39.5020 N   0  0  0  0  0  0  0  0  0  0  0  0
   35.9520   32.3240   39.3450 H   0  0  0  0  0  0  0  0  0  0  0  0
   37.3330   34.3400   39.5980 H   0  0  0  0  0  0  0  0  0  0  0  0
   41.1250   31.9290   39.7500 N   0  0  0  0  0  0  0  0  0  0  0  0
   41.7130   31.5040   39.0010 H   0  0  0  0  0  0  0  0  0  0  0  0
   42.0200   32.4920   41.1120 S   0  0  0  0  0  0  0  0  0  0  0  0
   41.6370   31.6670   42.3080 O   0  0  0  0  0  1  0  0  0  0  0  0
   43.4980   32.2850   40.9250 O   0  0  0  0  0  1  0  0  0  0  0  0
   41.6910   34.0990   41.4510 O   0  0  0  0  0  0  0  0  0  0  0  0
   42.5430   34.5190   41.7260 H   0  0  0  0  0  0  0  0  0  0  0  0
  2  1  2  6  0  0  0
  2  5  1  0  0  0  0
  2  3  1  0  0  0  0
  3  4  1  0  0  0  0
  5  7  1  0  0  0  0
  6 11  1  0  0  0  0
  7  8  1  0  0  0  0
  7  6  2  0  0  0  0
  8  9  2  0  0  0  0
  9 10  1  0  0  0  0
 10 13  1  0  0  0  0
 11 10  2  0  0  0  0
 12  8  1  0  0  0  0
 14  6  1  0  0  0  0
 14 16  1  0  0  0  0
 15 14  1  0  0  0  0
 17 14  1  0  0  0  0
 17 19  1  0  0  0  0
 18 17  1  0  0  0  0
 20 17  1  0  0  0  0
 21 22  1  0  0  0  0
 21  2  1  0  0  0  0
 22 23  2  0  0  0  0
 22 27  1  0  0  0  0
 23 24  1  0  0  0  0
 24 29  1  0  0  0  0
 24 25  2  0  0  0  0
 26 25  1  0  0  0  0
 26 30  1  0  0  0  0
 27 26  2  0  0  0  0
 28 23  1  0  0  0  0
 30 32  1  0  0  0  0
 31 30  1  0  0  0  0
 32 35  1  0  0  0  0
 32 33  1  0  0  0  0
 34 32  1  0  0  0  0
 35 36  1  0  0  0  0
M  END
>  <minimizedAffinity>
-5.72316551

$$$$

 OpenBabel03252500593D

 36 37  0  0  0  0  0  0  0  0999 V2000
   36.9720   28.8850   39.8560 O   0  0  0  0  0  0  0  0  0  0  0  0
   36.9910   30.3010   40.4060 P   0  0  1  0  0  0  0  0  0  0  0  0
   35.4430   30.6430   41.0160 O   0  0  0  0  0  0  0  0  0  0  0  0
   35.3780   31.6040   41.2720 H   0  0  0  0  0  0  0  0  0  0  0  0
   38.0730   30.3790   41.7040 O   0  0  0  0  0  0  0  0  0  0  0  0
   38.8180   28.5650   43.0010 C   0  0  0  0  0  0  0  0  0  0  0  0
   39.0820   29.4720   42.0010 C   0  0  0  0  0  0  0  0  0  0  0  0
   40.3380   29.4060   41.3680 C   0  0  0  0  0  0  0  0  0  0  0  0
   41.1930   28.4480   41.7990 N   0  0  0  0  0  0  0  0  0  0  0  0
   40.9120   27.5850   42.7670 C   0  0  0  0  0  0  0  0  0  0  0  0
   39.7200   27.6420   43.3710 N   0  0  0  0  0  0  0  0  0  0  0  0
   40.5030   30.1310   40.5950 H   0  0  0  0  0  0  0  0  0  0  0  0
   41.6180   26.8310   43.0870 H   0  0  0  0  0  0  0  0  0  0  0  0
   37.5260   28.5790   43.7010 C   0  0  0  0  0  0  0  0  0  0  0  0
   36.9920   29.5370   43.5350 H   0  0  0  0  0  0  0  0  0  0  0  0
   37.6790   28.4770   44.7970 H   0  0  0  0  0  0  0  0  0  0  0  0
   36.6800   27.4450   43.2050 C   0  0  0  0  0  0  0  0  0  0  0  0
   35.6150   27.7280   43.1220 H   0  0  0  0  0  0  0  0  0  0  0  0
   36.8240   26.5480   43.8350 H   0  0  0  0  0  0  0  0  0  0  0  0
   37.0290   27.1780   42.1750 H   0  0  0  0  0  0  0  0  0  0  0  0
   37.3160   31.4070   39.1870 O   0  0  0  0  0  0  0  0  0  0  0  0
   38.2230   32.4360   39.4320 C   0  0  0  0  0  0  0  0  0  0  0  0
   37.7010   33.6450   39.8640 C   0  0  0  0  0  0  0  0  0  0  0  0
   38.5230   34.7230   40.1330 C   0  0  0  0  0  0  0  0  0  0  0  0
   39.8590   34.5770   39.9660 N   0  0  0  0  0  0  0  0  0  0  0  0
   40.3560   33.4070   39.5500 C   0  0  0  0  0  0  0  0  0  0  0  0
   39.5690   32.3680   39.2900 N   0  0  0  0  0  0  0  0  0  0  0  0
   36.6180   33.7550   39.9960 H   0  0  0  0  0  0  0  0  0  0  0  0
   38.0980   35.6580   40.4680 H   0  0  0  0  0  0  0  0  0  0  0  0
   41.7660   33.2920   39.3870 N   0  0  0  0  0  0  0  0  0  0  0  0
   42.2000   33.0590   38.4680 H   0  0  0  0  0  0  0  0  0  0  0  0
   42.9000   33.5200   40.6640 S   0  0  0  0  0  0  0  0  0  0  0  0
   43.0830   32.2100   41.3780 O   0  0  0  0  0  1  0  0  0  0  0  0
   44.2580   33.8930   40.1360 O   0  0  0  0  0  1  0  0  0  0  0  0
   42.3690   34.6570   41.7730 O   0  0  0  0  0  0  0  0  0  0  0  0
   43.1590   35.1820   42.0520 H   0  0  0  0  0  0  0  0  0  0  0  0
  2  1  2  6  0  0  0
  2  3  1  0  0  0  0
  2  5  1  0  0  0  0
  3  4  1  0  0  0  0
  5  7  1  0  0  0  0
  6 11  1  0  0  0  0
  6 14  1  0  0  0  0
  7  6  2  0  0  0  0
  8  9  2  0  0  0  0
  8  7  1  0  0  0  0
  9 10  1  0  0  0  0
 10 13  1  0  0  0  0
 10 11  2  0  0  0  0
 12  8  1  0  0  0  0
 14 16  1  0  0  0  0
 15 14  1  0  0  0  0
 17 14  1  0  0  0  0
 17 19  1  0  0  0  0
 18 17  1  0  0  0  0
 20 17  1  0  0  0  0
 21 22  1  0  0  0  0
 21  2  1  0  0  0  0
 22 23  1  0  0  0  0
 23 28  1  0  0  0  0
 23 24  2  0  0  0  0
 24 29  1  0  0  0  0
 25 24  1  0  0  0  0
 26 25  2  0  0  0  0
 27 22  2  0  0  0  0
 27 26  1  0  0  0  0
 30 26  1  0  0  0  0
 30 32  1  0  0  0  0
 31 30  1  0  0  0  0
 32 33  1  0  0  0  0
 32 35  1  0  0  0  0
 34 32  1  0  0  0  0
 35 36  1  0  0  0  0
M  END
>  <minimizedAffinity>
-5.65145779

$$$$

 OpenBabel03252500593D

 36 37  0  0  0  0  0  0  0  0999 V2000
   34.6540   29.1020   40.1290 O   0  0  0  0  0  0  0  0  0  0  0  0
   35.9340   29.8910   40.3460 P   0  0  1  0  0  0  0  0  0  0  0  0
   35.7210   30.8590   41.7250 O   0  0  0  0  0  0  0  0  0  0  0  0
   36.4910   31.4840   41.8290 H   0  0  0  0  0  0  0  0  0  0  0  0
   37.2010   28.8190   40.6720 O   0  0  0  0  0  0  0  0  0  0  0  0
   37.4180   26.8700   41.9720 C   0  0  0  0  0  0  0  0  0  0  0  0
   37.1180   27.4340   40.7530 C   0  0  0  0  0  0  0  0  0  0  0  0
   36.7550   26.5720   39.7010 C   0  0  0  0  0  0  0  0  0  0  0  0
   36.7320   25.2460   39.9760 N   0  0  0  0  0  0  0  0  0  0  0  0
   37.0270   24.7280   41.1610 C   0  0  0  0  0  0  0  0  0  0  0  0
   37.3710   25.5440   42.1650 N   0  0  0  0  0  0  0  0  0  0  0  0
   36.5290   27.0510   38.7690 H   0  0  0  0  0  0  0  0  0  0  0  0
   36.9980   23.6630   41.3460 H   0  0  0  0  0  0  0  0  0  0  0  0
   37.8030   27.7150   43.1100 C   0  0  0  0  0  0  0  0  0  0  0  0
   38.1110   28.7270   42.7730 H   0  0  0  0  0  0  0  0  0  0  0  0
   38.6720   27.2720   43.6440 H   0  0  0  0  0  0  0  0  0  0  0  0
   36.6440   27.8360   44.0540 C   0  0  0  0  0  0  0  0  0  0  0  0
   36.5680   28.8490   44.4900 H   0  0  0  0  0  0  0  0  0  0  0  0
   36.6920   27.0520   44.8320 H   0  0  0  0  0  0  0  0  0  0  0  0
   35.7040   27.6580   43.4710 H   0  0  0  0  0  0  0  0  0  0  0  0
   36.2300   30.9110   39.0460 O   0  0  0  0  0  0  0  0  0  0  0  0
   37.4770   31.5240   38.9380 C   0  0  0  0  0  0  0  0  0  0  0  0
   37.7480   32.5580   39.8210 C   0  0  0  0  0  0  0  0  0  0  0  0
   38.9570   33.2260   39.7900 C   0  0  0  0  0  0  0  0  0  0  0  0
   39.8820   32.8490   38.8750 N   0  0  0  0  0  0  0  0  0  0  0  0
   39.6140   31.8500   38.0260 C   0  0  0  0  0  0  0  0  0  0  0  0
   38.4520   31.2060   38.0530 N   0  0  0  0  0  0  0  0  0  0  0  0
   36.9930   32.8560   40.5590 H   0  0  0  0  0  0  0  0  0  0  0  0
   39.1490   34.0290   40.4860 H   0  0  0  0  0  0  0  0  0  0  0  0
   40.6110   31.4840   37.0790 N   0  0  0  0  0  0  0  0  0  0  0  0
   40.4430   31.5300   36.0510 H   0  0  0  0  0  0  0  0  0  0  0  0
   42.1860   30.9310   37.5100 S   0  0  0  0  0  0  0  0  0  0  0  0
   42.1400   29.4360   37.6630 O   0  0  0  0  0  1  0  0  0  0  0  0
   43.1840   31.2030   36.4180 O   0  0  0  0  0  1  0  0  0  0  0  0
   42.7040   31.5940   38.9580 O   0  0  0  0  0  0  0  0  0  0  0  0
   43.6700   31.7850   38.8610 H   0  0  0  0  0  0  0  0  0  0  0  0
  2  1  2  6  0  0  0
  2  5  1  0  0  0  0
  2  3  1  0  0  0  0
  3  4  1  0  0  0  0
  5  7  1  0  0  0  0
  6 11  1  0  0  0  0
  6 14  1  0  0  0  0
  7  6  2  0  0  0  0
  8  9  2  0  0  0  0
  8  7  1  0  0  0  0
  9 10  1  0  0  0  0
 10 13  1  0  0  0  0
 10 11  2  0  0  0  0
 12  8  1  0  0  0  0
 14 16  1  0  0  0  0
 14 17  1  0  0  0  0
 15 14  1  0  0  0  0
 17 18  1  0  0  0  0
 17 19  1  0  0  0  0
 20 17  1  0  0  0  0
 21  2  1  0  0  0  0
 22 21  1  0  0  0  0
 22 23  1  0  0  0  0
 23 28  1  0  0  0  0
 24 23  2  0  0  0  0
 24 29  1  0  0  0  0
 25 24  1  0  0  0  0
 26 27  1  0  0  0  0
 26 25  2  0  0  0  0
 27 22  2  0  0  0  0
 30 32  1  0  0  0  0
 30 26  1  0  0  0  0
 31 30  1  0  0  0  0
 32 33  1  0  0  0  0
 32 35  1  0  0  0  0
 34 32  1  0  0  0  0
 36 35  1  0  0  0  0
M  END
>  <minimizedAffinity>
-5.57537365

$$$$

 OpenBabel03252500593D

 36 37  0  0  0  0  0  0  0  0999 V2000
   34.5520   29.0850   40.1360 O   0  0  0  0  0  0  0  0  0  0  0  0
   35.8940   29.7680   40.3400 P   0  0  1  0  0  0  0  0  0  0  0  0
   35.6620   31.0580   41.4190 O   0  0  0  0  0  0  0  0  0  0  0  0
   36.4910   31.6080   41.4820 H   0  0  0  0  0  0  0  0  0  0  0  0
   36.9660   28.6840   41.0720 O   0  0  0  0  0  0  0  0  0  0  0  0
   37.0820   26.6250   42.2030 C   0  0  0  0  0  0  0  0  0  0  0  0
   36.9140   27.2970   41.0140 C   0  0  0  0  0  0  0  0  0  0  0  0
   36.7050   26.5320   39.8500 C   0  0  0  0  0  0  0  0  0  0  0  0
   36.6880   25.1850   39.9970 N   0  0  0  0  0  0  0  0  0  0  0  0
   36.8530   24.5630   41.1560 C   0  0  0  0  0  0  0  0  0  0  0  0
   37.0500   25.2850   42.2650 N   0  0  0  0  0  0  0  0  0  0  0  0
   36.5800   27.0940   38.9460 H   0  0  0  0  0  0  0  0  0  0  0  0
   36.8330   23.4850   41.2380 H   0  0  0  0  0  0  0  0  0  0  0  0
   37.3020   27.3640   43.4530 C   0  0  0  0  0  0  0  0  0  0  0  0
   36.7350   26.9100   44.2920 H   0  0  0  0  0  0  0  0  0  0  0  0
   36.9470   28.4120   43.3510 H   0  0  0  0  0  0  0  0  0  0  0  0
   38.7660   27.3600   43.7810 C   0  0  0  0  0  0  0  0  0  0  0  0
   38.9470   27.2580   44.8670 H   0  0  0  0  0  0  0  0  0  0  0  0
   39.2610   28.2530   43.3590 H   0  0  0  0  0  0  0  0  0  0  0  0
   39.2280   26.4680   43.2870 H   0  0  0  0  0  0  0  0  0  0  0  0
   36.4600   30.4060   38.8950 O   0  0  0  0  0  0  0  0  0  0  0  0
   37.8340   30.4400   38.6630 C   0  0  0  0  0  0  0  0  0  0  0  0
   38.3510   29.4770   37.8100 C   0  0  0  0  0  0  0  0  0  0  0  0
   39.7020   29.4310   37.5190 C   0  0  0  0  0  0  0  0  0  0  0  0
   40.5170   30.3510   38.0860 N   0  0  0  0  0  0  0  0  0  0  0  0
   40.0120   31.2780   38.9070 C   0  0  0  0  0  0  0  0  0  0  0  0
   38.7140   31.3250   39.1890 N   0  0  0  0  0  0  0  0  0  0  0  0
   37.6820   28.7360   37.3560 H   0  0  0  0  0  0  0  0  0  0  0  0
   40.0860   28.6730   36.8530 H   0  0  0  0  0  0  0  0  0  0  0  0
   40.9020   32.2280   39.4830 N   0  0  0  0  0  0  0  0  0  0  0  0
   41.0230   32.3210   40.5140 H   0  0  0  0  0  0  0  0  0  0  0  0
   41.8670   33.3190   38.5610 S   0  0  0  0  0  0  0  0  0  0  0  0
   41.4310   34.7230   38.8740 O   0  0  0  0  0  1  0  0  0  0  0  0
   43.3170   33.2410   38.9550 O   0  0  0  0  0  1  0  0  0  0  0  0
   41.6930   33.0660   36.9150 O   0  0  0  0  0  0  0  0  0  0  0  0
   42.5840   33.1900   36.5050 H   0  0  0  0  0  0  0  0  0  0  0  0
  2  1  2  6  0  0  0
  2  5  1  0  0  0  0
  2  3  1  0  0  0  0
  3  4  1  0  0  0  0
  6 11  1  0  0  0  0
  6 14  1  0  0  0  0
  7  5  1  0  0  0  0
  7  6  2  0  0  0  0
  8  9  2  0  0  0  0
  8  7  1  0  0  0  0
  9 10  1  0  0  0  0
 10 13  1  0  0  0  0
 10 11  2  0  0  0  0
 12  8  1  0  0  0  0
 14 17  1  0  0  0  0
 14 15  1  0  0  0  0
 16 14  1  0  0  0  0
 17 18  1  0  0  0  0
 19 17  1  0  0  0  0
 20 17  1  0  0  0  0
 21  2  1  0  0  0  0
 22 21  1  0  0  0  0
 22 27  1  0  0  0  0
 23 22  2  0  0  0  0
 24 23  1  0  0  0  0
 24 25  2  0  0  0  0
 25 26  1  0  0  0  0
 26 27  2  0  0  0  0
 26 30  1  0  0  0  0
 28 23  1  0  0  0  0
 29 24  1  0  0  0  0
 30 31  1  0  0  0  0
 32 33  1  0  0  0  0
 32 34  1  0  0  0  0
 32 30  1  0  0  0  0
 35 32  1  0  0  0  0
 36 35  1  0  0  0  0
M  END
>  <minimizedAffinity>
-5.53751707

$$$$
