
 OpenBabel03242518203D

 37 39  0  0  0  0  0  0  0  0999 V2000
   44.7490   32.8400   42.3180 C   0  0  0  0  0  0  0  0  0  0  0  0
   44.5810   32.7420   43.4090 H   0  0  0  0  0  0  0  0  0  0  0  0
   44.7810   31.8560   41.8560 H   0  0  0  0  0  0  0  0  0  0  0  0
   43.6470   33.6730   41.7300 C   0  0  0  0  0  0  0  0  0  0  0  0
   43.4930   35.0340   41.9320 C   0  0  0  0  0  0  0  0  0  0  0  0
   42.3800   35.4590   41.2450 C   0  0  0  0  0  0  0  0  0  0  0  0
   41.8960   34.3140   40.6420 C   0  0  0  0  0  0  0  0  0  0  0  0
   42.6640   33.3240   40.9590 O   0  0  0  0  0  0  0  0  0  0  0  0
   44.1390   35.6800   42.5350 H   0  0  0  0  0  0  0  0  0  0  0  0
   41.9350   36.4300   41.1520 H   0  0  0  0  0  0  0  0  0  0  0  0
   40.7030   34.2580   39.7890 C   0  0  0  0  0  0  0  0  0  0  0  0
   39.4820   33.9340   40.3150 C   0  0  0  0  0  0  0  0  0  0  0  0
   38.3160   33.8650   39.5590 C   0  0  0  0  0  0  0  0  0  0  0  0
   38.5170   34.1620   38.1950 C   0  0  0  0  0  0  0  0  0  0  0  0
   39.7260   34.4870   37.6550 C   0  0  0  0  0  0  0  0  0  0  0  0
   40.7880   34.5240   38.4790 N   0  0  0  0  0  0  0  0  0  0  0  0
   39.4030   33.7220   41.3550 H   0  0  0  0  0  0  0  0  0  0  0  0
   37.3580   33.6100   39.9730 H   0  0  0  0  0  0  0  0  0  0  0  0
   37.6520   34.1280   37.5360 H   0  0  0  0  0  0  0  0  0  0  0  0
   39.7850   34.7000   36.5910 H   0  0  0  0  0  0  0  0  0  0  0  0
   47.9750   34.4070   43.1290 C   0  0  0  0  0  0  0  0  0  0  0  0
   48.4890   34.7800   41.8910 C   0  0  0  0  0  0  0  0  0  0  0  0
   47.7150   34.4850   40.7940 C   0  0  0  0  0  0  0  0  0  0  0  0
   46.5180   33.8640   40.9220 N   0  0  0  0  0  0  0  0  0  0  0  0
   46.0610   33.5210   42.1540 C   0  0  0  0  0  0  0  0  0  0  0  0
   46.8070   33.8020   43.2560 N   0  0  0  0  0  0  0  0  0  0  0  0
   48.5200   34.6040   44.0390 H   0  0  0  0  0  0  0  0  0  0  0  0
   49.7300   35.4150   41.8370 N   0  0  0  0  0  0  0  0  0  0  0  0
   50.5440   34.8910   42.2700 H   0  0  0  0  0  0  0  0  0  0  0  0
   49.8220   36.3590   41.3870 H   0  0  0  0  0  0  0  0  0  0  0  0
   48.1860   34.8390   39.4980 N   0  0  0  0  0  0  0  0  0  0  0  0
   48.5820   35.7670   39.3060 H   0  0  0  0  0  0  0  0  0  0  0  0
   48.1150   33.7230   38.1850 S   0  0  0  0  0  0  0  0  0  0  0  0
   48.4620   34.4070   36.8710 O   0  0  0  0  0  0  0  0  0  0  0  0
   49.1250   32.6170   38.3560 O   0  0  0  0  0  0  0  0  0  0  0  0
   46.6030   32.9840   38.0780 O   0  0  0  0  0  0  0  0  0  0  0  0
   46.6150   32.4370   37.2660 H   0  0  0  0  0  0  0  0  0  0  0  0
  1  2  1  0  0  0  0
  3  1  1  0  0  0  0
  4  5  2  0  0  0  0
  4  1  1  0  0  0  0
  5  9  1  0  0  0  0
  6  5  1  0  0  0  0
  7  8  1  0  0  0  0
  7  6  2  0  0  0  0
  8  4  1  0  0  0  0
 10  6  1  0  0  0  0
 11 12  1  0  0  0  0
 11  7  1  0  0  0  0
 12 17  1  0  0  0  0
 13 18  1  0  0  0  0
 13 12  2  0  0  0  0
 14 13  1  0  0  0  0
 15 14  2  0  0  0  0
 15 16  1  0  0  0  0
 16 11  2  0  0  0  0
 19 14  1  0  0  0  0
 20 15  1  0  0  0  0
 21 26  1  0  0  0  0
 21 27  1  0  0  0  0
 22 21  2  0  0  0  0
 23 24  2  0  0  0  0
 23 22  1  0  0  0  0
 24 25  1  0  0  0  0
 25  1  1  0  0  0  0
 25 26  2  0  0  0  0
 28 22  1  0  0  0  0
 28 29  1  0  0  0  0
 30 28  1  0  0  0  0
 31 23  1  0  0  0  0
 32 31  1  0  0  0  0
 33 35  1  0  0  0  0
 33 31  1  0  0  0  0
 34 33  1  0  0  0  0
 36 33  1  0  0  0  0
 37 36  1  0  0  0  0
M  END
>  <minimizedAffinity>
-5.84534121

>  <minimizedRMSD>
3.52301311

$$$$
