
 OpenBabel03252500063D

 47 49  0  0  0  0  0  0  0  0999 V2000
   44.6830   35.2110   45.2160 C   0  0  0  0  0  0  0  0  0  0  0  0
   45.2740   35.4180   43.9720 C   0  0  0  0  0  0  0  0  0  0  0  0
   46.2990   34.5700   43.5550 C   0  0  0  0  0  0  0  0  0  0  0  0
   46.6190   33.6020   44.4450 N   0  0  0  0  0  0  0  0  0  0  0  0
   46.0600   33.4130   45.6140 C   0  0  0  0  0  0  0  0  0  0  0  0
   45.0950   34.2240   45.9850 N   0  0  0  0  0  0  0  0  0  0  0  0
   43.8910   35.8820   45.5150 H   0  0  0  0  0  0  0  0  0  0  0  0
   46.9990   34.6470   42.3220 C   0  0  0  0  0  0  0  0  0  0  0  0
   48.0520   35.5540   42.2600 C   0  0  0  0  0  0  0  0  0  0  0  0
   48.8400   35.7650   41.1480 C   0  0  0  0  0  0  0  0  0  0  0  0
   48.6140   35.0640   40.0180 C   0  0  0  0  0  0  0  0  0  0  0  0
   47.5840   34.1460   40.0060 C   0  0  0  0  0  0  0  0  0  0  0  0
   47.3020   33.4090   38.9010 C   0  0  0  0  0  0  0  0  0  0  0  0
   46.2810   32.4840   38.8550 C   0  0  0  0  0  0  0  0  0  0  0  0
   45.5170   32.3160   40.0150 C   0  0  0  0  0  0  0  0  0  0  0  0
   45.8460   33.0930   41.1160 C   0  0  0  0  0  0  0  0  0  0  0  0
   46.8290   33.9820   41.1550 C   0  0  0  0  0  0  0  0  0  0  0  0
   48.3260   36.1800   43.1260 H   0  0  0  0  0  0  0  0  0  0  0  0
   49.6490   36.4820   41.1460 H   0  0  0  0  0  0  0  0  0  0  0  0
   49.2110   35.2030   39.1280 H   0  0  0  0  0  0  0  0  0  0  0  0
   47.9080   33.5520   38.0070 H   0  0  0  0  0  0  0  0  0  0  0  0
   46.0940   31.9190   37.9510 H   0  0  0  0  0  0  0  0  0  0  0  0
   44.7450   31.5940   39.9280 H   0  0  0  0  0  0  0  0  0  0  0  0
   44.9440   32.7920   42.1940 N   0  0  0  0  0  0  0  0  0  0  0  0
   44.9150   32.0360   42.9110 H   0  0  0  0  0  0  0  0  0  0  0  0
   44.0740   33.2430   42.5450 H   0  0  0  0  0  0  0  0  0  0  0  0
   46.6170   32.2550   46.3920 C   0  0  0  0  0  0  0  0  0  0  0  0
   45.6190   31.4550   46.8870 F   0  0  0  0  0  0  0  0  0  0  0  0
   47.4260   32.6920   47.4060 F   0  0  0  0  0  0  0  0  0  0  0  0
   47.4790   31.5150   45.5530 F   0  0  0  0  0  0  0  0  0  0  0  0
   44.9010   36.4710   43.0360 C   0  0  0  0  0  0  0  0  0  0  0  0
   44.3140   37.2440   43.5820 H   0  0  0  0  0  0  0  0  0  0  0  0
   45.8250   36.9820   42.6800 H   0  0  0  0  0  0  0  0  0  0  0  0
   44.1180   36.0630   41.8580 C   0  0  0  0  0  0  0  0  0  0  0  0
   44.5310   35.5670   41.0300 H   0  0  0  0  0  0  0  0  0  0  0  0
   43.7160   37.0420   41.4340 H   0  0  0  0  0  0  0  0  0  0  0  0
   41.8700   35.0040   41.4470 C   0  0  0  0  0  0  0  0  0  0  0  0
   42.1200   35.0460   40.1870 O   0  0  0  0  0  0  0  0  0  0  0  0
   42.8510   35.4670   42.3730 N   0  0  0  0  0  0  0  0  0  0  0  0
   42.5760   35.3380   43.3830 H   0  0  0  0  0  0  0  0  0  0  0  0
   40.6260   34.4980   41.8510 N   0  0  0  0  0  0  0  0  0  0  0  0
   40.3130   34.6760   42.8410 H   0  0  0  0  0  0  0  0  0  0  0  0
   39.6110   33.5960   40.7650 S   0  0  0  0  0  0  0  0  0  0  0  0
   38.7420   34.5030   39.9470 O   0  0  0  0  0  1  0  0  0  0  0  0
   38.8290   32.5350   41.4710 O   0  0  0  0  0  1  0  0  0  0  0  0
   40.6460   32.8040   39.6860 O   0  0  0  0  0  0  0  0  0  0  0  0
   41.0750   32.0200   40.1440 H   0  0  0  0  0  0  0  0  0  0  0  0
  1  7  1  0  0  0  0
  1  6  1  0  0  0  0
  2  1  2  0  0  0  0
  3  2  1  0  0  0  0
  3  4  2  0  0  0  0
  4  5  1  0  0  0  0
  5  6  2  0  0  0  0
  5 27  1  0  0  0  0
  8  3  1  0  0  0  0
  9  8  1  0  0  0  0
  9 18  1  0  0  0  0
 10  9  2  0  0  0  0
 11 10  1  0  0  0  0
 12 11  2  0  0  0  0
 12 17  1  0  0  0  0
 13 12  1  0  0  0  0
 14 13  2  0  0  0  0
 14 15  1  0  0  0  0
 15 16  2  0  0  0  0
 16 17  1  0  0  0  0
 16 24  1  0  0  0  0
 17  8  2  0  0  0  0
 19 10  1  0  0  0  0
 20 11  1  0  0  0  0
 21 13  1  0  0  0  0
 22 14  1  0  0  0  0
 23 15  1  0  0  0  0
 24 26  1  0  0  0  0
 24 25  1  0  0  0  0
 27 28  1  0  0  0  0
 27 29  1  0  0  0  0
 30 27  1  0  0  0  0
 31 32  1  0  0  0  0
 31  2  1  0  0  0  0
 33 31  1  0  0  0  0
 34 39  1  0  0  0  0
 34 31  1  0  0  0  0
 35 34  1  0  0  0  0
 36 34  1  0  0  0  0
 37 41  1  0  0  0  0
 37 39  1  0  0  0  0
 38 37  2  0  0  0  0
 39 40  1  0  0  0  0
 41 42  1  0  0  0  0
 43 45  1  0  0  0  0
 43 41  1  0  0  0  0
 44 43  1  0  0  0  0
 46 47  1  0  0  0  0
 46 43  1  0  0  0  0
M  END
>  <minimizedAffinity>
-7.68658018

>  <minimizedRMSD>
0.747716367

$$$$
