
 OpenBabel03252508413D

 26 27  0  0  0  0  0  0  0  0999 V2000
   43.5940   33.5460   39.4980 C   0  0  0  0  0  0  0  0  0  0  0  0
   44.6540   33.2940   40.3190 C   0  0  0  0  0  0  0  0  0  0  0  0
   45.8950   32.9500   39.8180 C   0  0  0  0  0  0  0  0  0  0  0  0
   46.0360   32.8680   38.4540 C   0  0  0  0  0  0  0  0  0  0  0  0
   45.0120   33.1080   37.5730 C   0  0  0  0  0  0  0  0  0  0  0  0
   43.8090   33.4460   38.1760 C   0  0  0  0  0  0  0  0  0  0  0  0
   46.7720   32.7390   40.4120 H   0  0  0  0  0  0  0  0  0  0  0  0
   47.0000   32.6000   38.0280 H   0  0  0  0  0  0  0  0  0  0  0  0
   45.1010   33.0490   36.4960 H   0  0  0  0  0  0  0  0  0  0  0  0
   42.9660   33.6450   37.4970 H   0  0  0  0  0  0  0  0  0  0  0  0
   40.5190   35.3940   40.6660 C   0  0  0  0  0  0  0  0  0  0  0  0
   41.7540   35.1710   40.0000 C   0  0  0  0  0  0  0  0  0  0  0  0
   42.3280   33.8990   40.1190 C   0  0  0  0  0  0  0  0  0  0  0  0
   41.6890   32.9440   40.8580 N   0  0  0  0  0  0  0  0  0  0  0  0
   40.5160   33.1950   41.4770 C   0  0  0  0  0  0  0  0  0  0  0  0
   39.9260   34.4170   41.3840 N   0  0  0  0  0  0  0  0  0  0  0  0
   40.0820   36.3670   40.5740 H   0  0  0  0  0  0  0  0  0  0  0  0
   42.2690   35.9000   39.4200 H   0  0  0  0  0  0  0  0  0  0  0  0
   40.1110   32.3570   42.0300 H   0  0  0  0  0  0  0  0  0  0  0  0
   44.4890   33.3850   41.7280 N   0  0  0  0  0  0  0  0  0  0  0  0
   44.0890   32.5750   42.2710 H   0  0  0  0  0  0  0  0  0  0  0  0
   44.7920   34.5750   42.9160 S   0  0  0  0  0  0  0  0  0  0  0  0
   43.7180   35.6480   42.9040 O   0  0  0  0  0  1  0  0  0  0  0  0
   46.1300   35.2390   42.7600 O   0  0  0  0  0  1  0  0  0  0  0  0
   44.7810   33.8950   44.4630 O   0  0  0  0  0  0  0  0  0  0  0  0
   44.1590   33.1020   44.5040 H   0  0  0  0  0  0  0  0  0  0  0  0
  1 13  1  0  0  0  0
  1  2  1  0  0  0  0
  2 20  1  0  0  0  0
  3  2  2  0  0  0  0
  3  7  1  0  0  0  0
  4  3  1  0  0  0  0
  5  6  1  0  0  0  0
  5  4  2  0  0  0  0
  6  1  2  0  0  0  0
  8  4  1  0  0  0  0
  9  5  1  0  0  0  0
 10  6  1  0  0  0  0
 11 16  1  0  0  0  0
 12 13  1  0  0  0  0
 12 11  2  0  0  0  0
 13 14  2  0  0  0  0
 14 15  1  0  0  0  0
 15 19  1  0  0  0  0
 16 15  2  0  0  0  0
 17 11  1  0  0  0  0
 18 12  1  0  0  0  0
 20 21  1  0  0  0  0
 20 22  1  0  0  0  0
 22 25  1  0  0  0  0
 23 22  1  0  0  0  0
 24 22  1  0  0  0  0
 25 26  1  0  0  0  0
M  END
>  <minimizedAffinity>
-3.85168719

>  <minimizedRMSD>
5.10107946

$$$$
