
 OpenBabel03252506273D

 43 46  0  0  0  0  0  0  0  0999 V2000
   37.5560   29.9610   40.0530 C   0  0  0  0  0  0  0  0  0  0  0  0
   36.8220   29.7520   39.2470 H   0  0  0  0  0  0  0  0  0  0  0  0
   38.2880   29.1070   39.9730 H   0  0  0  0  0  0  0  0  0  0  0  0
   39.1670   31.5030   38.7580 C   0  0  0  0  0  0  0  0  0  0  0  0
   38.3140   31.1840   39.7830 C   0  0  0  0  0  0  0  0  0  0  0  0
   38.1160   32.1750   40.7500 C   0  0  0  0  0  0  0  0  0  0  0  0
   38.7480   33.3920   40.6600 C   0  0  0  0  0  0  0  0  0  0  0  0
   38.7470   34.5110   41.4270 N   0  0  0  0  0  0  0  0  0  0  0  0
   39.5480   35.4620   40.9090 C   0  0  0  0  0  0  0  0  0  0  0  0
   40.1130   34.9740   39.7530 C   0  0  0  0  0  0  0  0  0  0  0  0
   39.5960   33.7040   39.6390 C   0  0  0  0  0  0  0  0  0  0  0  0
   39.7850   32.7160   38.6880 C   0  0  0  0  0  0  0  0  0  0  0  0
   39.2830   30.7020   38.0420 H   0  0  0  0  0  0  0  0  0  0  0  0
   37.4730   32.0700   41.6140 H   0  0  0  0  0  0  0  0  0  0  0  0
   38.1910   34.6200   42.3110 H   0  0  0  0  0  0  0  0  0  0  0  0
   39.7200   36.4510   41.3350 H   0  0  0  0  0  0  0  0  0  0  0  0
   40.8050   35.5010   39.1050 H   0  0  0  0  0  0  0  0  0  0  0  0
   40.6630   33.0140   37.6130 N   0  0  0  0  0  0  0  0  0  0  0  0
   40.3070   33.2640   36.6570 H   0  0  0  0  0  0  0  0  0  0  0  0
   42.3660   33.0770   37.4690 S   0  0  0  0  0  0  0  0  0  0  0  0
   42.8900   31.8820   36.7070 O   0  0  0  0  0  1  0  0  0  0  0  0
   43.0640   33.0530   38.7970 O   0  0  0  0  0  1  0  0  0  0  0  0
   42.8560   34.4250   36.5640 O   0  0  0  0  0  0  0  0  0  0  0  0
   43.3830   35.0240   37.1360 H   0  0  0  0  0  0  0  0  0  0  0  0
   36.9140   29.8570   41.3890 C   0  0  0  0  0  0  0  0  0  0  0  0
   36.9860   30.8370   41.8870 H   0  0  0  0  0  0  0  0  0  0  0  0
   35.8800   29.5450   41.2560 H   0  0  0  0  0  0  0  0  0  0  0  0
   39.2490   27.6030   42.9060 C   0  0  0  0  0  0  0  0  0  0  0  0
   38.1610   27.5390   43.7950 C   0  0  0  0  0  0  0  0  0  0  0  0
   37.1700   28.3600   43.3450 C   0  0  0  0  0  0  0  0  0  0  0  0
   37.6380   28.9110   42.2130 N   0  0  0  0  0  0  0  0  0  0  0  0
   38.8710   28.4600   41.9550 N   0  0  0  0  0  0  0  0  0  0  0  0
   38.0580   26.9480   44.7160 H   0  0  0  0  0  0  0  0  0  0  0  0
   36.1840   28.5650   43.7740 H   0  0  0  0  0  0  0  0  0  0  0  0
   42.3820   26.4230   44.3480 C   0  0  0  0  0  0  0  0  0  0  0  0
   42.8180   25.4610   43.4530 C   0  0  0  0  0  0  0  0  0  0  0  0
   42.0060   25.2220   42.3290 C   0  0  0  0  0  0  0  0  0  0  0  0
   40.8660   25.9350   42.1940 N   0  0  0  0  0  0  0  0  0  0  0  0
   40.4730   26.8570   43.0760 C   0  0  0  0  0  0  0  0  0  0  0  0
   41.2420   27.0950   44.1580 N   0  0  0  0  0  0  0  0  0  0  0  0
   42.9690   26.6460   45.2290 H   0  0  0  0  0  0  0  0  0  0  0  0
   43.7410   24.9550   43.6600 H   0  0  0  0  0  0  0  0  0  0  0  0
   42.3320   24.4790   41.6250 H   0  0  0  0  0  0  0  0  0  0  0  0
  1 25  1  0  0  0  0
  2  1  1  0  0  0  0
  3  1  1  0  0  0  0
  4  5  1  0  0  0  0
  5  1  1  0  0  0  0
  5  6  2  0  0  0  0
  6 14  1  0  0  0  0
  7  6  1  0  0  0  0
  7  8  1  0  0  0  0
  8 15  1  0  0  0  0
  9 16  1  0  0  0  0
  9  8  1  0  0  0  0
 10  9  2  0  0  0  0
 11 10  1  0  0  0  0
 11  7  2  0  0  0  0
 12  4  2  0  0  0  0
 12 11  1  0  0  0  0
 13  4  1  0  0  0  0
 17 10  1  0  0  0  0
 18 12  1  0  0  0  0
 19 18  1  0  0  0  0
 20 18  1  0  0  0  0
 20 22  1  0  0  0  0
 21 20  1  0  0  0  0
 23 24  1  0  0  0  0
 23 20  1  0  0  0  0
 25 26  1  0  0  0  0
 25 31  1  0  0  0  0
 27 25  1  0  0  0  0
 28 39  1  0  0  0  0
 28 29  1  0  0  0  0
 29 33  1  0  0  0  0
 30 34  1  0  0  0  0
 30 29  2  0  0  0  0
 31 30  1  0  0  0  0
 32 31  1  0  0  0  0
 32 28  2  0  0  0  0
 35 41  1  0  0  0  0
 36 42  1  0  0  0  0
 36 35  2  0  0  0  0
 37 36  1  0  0  0  0
 38 37  2  0  0  0  0
 38 39  1  0  0  0  0
 39 40  2  0  0  0  0
 40 35  1  0  0  0  0
 43 37  1  0  0  0  0
M  END
>  <minimizedAffinity>
-6.99679089

$$$$

 OpenBabel03252506273D

 43 46  0  0  0  0  0  0  0  0999 V2000
   36.6050   30.6240   39.6570 C   0  0  0  0  0  0  0  0  0  0  0  0
   35.7310   30.8230   39.0030 H   0  0  0  0  0  0  0  0  0  0  0  0
   37.0170   29.6510   39.2600 H   0  0  0  0  0  0  0  0  0  0  0  0
   38.5990   31.7620   38.4830 C   0  0  0  0  0  0  0  0  0  0  0  0
   37.6550   31.6260   39.4690 C   0  0  0  0  0  0  0  0  0  0  0  0
   37.6750   32.5930   40.4780 C   0  0  0  0  0  0  0  0  0  0  0  0
   38.5950   33.6140   40.4660 C   0  0  0  0  0  0  0  0  0  0  0  0
   38.8450   34.6640   41.2880 N   0  0  0  0  0  0  0  0  0  0  0  0
   39.8790   35.4040   40.8390 C   0  0  0  0  0  0  0  0  0  0  0  0
   40.3460   34.8370   39.6750 C   0  0  0  0  0  0  0  0  0  0  0  0
   39.5320   33.7460   39.4850 C   0  0  0  0  0  0  0  0  0  0  0  0
   39.5030   32.7820   38.4900 C   0  0  0  0  0  0  0  0  0  0  0  0
   38.5380   30.9890   37.7320 H   0  0  0  0  0  0  0  0  0  0  0  0
   36.9940   32.6170   41.3190 H   0  0  0  0  0  0  0  0  0  0  0  0
   38.3020   34.8730   42.1620 H   0  0  0  0  0  0  0  0  0  0  0  0
   40.2760   36.2980   41.3190 H   0  0  0  0  0  0  0  0  0  0  0  0
   41.1730   35.2000   39.0730 H   0  0  0  0  0  0  0  0  0  0  0  0
   40.4680   32.8940   37.4550 N   0  0  0  0  0  0  0  0  0  0  0  0
   40.1930   33.0110   36.4490 H   0  0  0  0  0  0  0  0  0  0  0  0
   42.1790   32.8870   37.4360 S   0  0  0  0  0  0  0  0  0  0  0  0
   42.7060   31.7370   36.6100 O   0  0  0  0  0  1  0  0  0  0  0  0
   42.7760   32.7160   38.8020 O   0  0  0  0  0  1  0  0  0  0  0  0
   42.7900   34.2820   36.6890 O   0  0  0  0  0  0  0  0  0  0  0  0
   43.2980   34.8030   37.3470 H   0  0  0  0  0  0  0  0  0  0  0  0
   36.1690   30.3710   41.0540 C   0  0  0  0  0  0  0  0  0  0  0  0
   36.5980   31.1540   41.7000 H   0  0  0  0  0  0  0  0  0  0  0  0
   35.0810   30.3700   41.0860 H   0  0  0  0  0  0  0  0  0  0  0  0
   37.2420   26.9860   41.5270 C   0  0  0  0  0  0  0  0  0  0  0  0
   37.6410   27.5900   42.7330 C   0  0  0  0  0  0  0  0  0  0  0  0
   37.2940   28.9070   42.7060 C   0  0  0  0  0  0  0  0  0  0  0  0
   36.7010   29.1050   41.5170 N   0  0  0  0  0  0  0  0  0  0  0  0
   36.6710   27.9630   40.8200 N   0  0  0  0  0  0  0  0  0  0  0  0
   38.1490   27.1360   43.5960 H   0  0  0  0  0  0  0  0  0  0  0  0
   37.4430   29.6850   43.4620 H   0  0  0  0  0  0  0  0  0  0  0  0
   36.6940   23.6460   40.1730 C   0  0  0  0  0  0  0  0  0  0  0  0
   37.8030   22.9310   40.5930 C   0  0  0  0  0  0  0  0  0  0  0  0
   38.7550   23.6260   41.3610 C   0  0  0  0  0  0  0  0  0  0  0  0
   38.5330   24.9300   41.6370 N   0  0  0  0  0  0  0  0  0  0  0  0
   37.4520   25.5920   41.2170 C   0  0  0  0  0  0  0  0  0  0  0  0
   36.5330   24.9370   40.4790 N   0  0  0  0  0  0  0  0  0  0  0  0
   35.9310   23.1590   39.5790 H   0  0  0  0  0  0  0  0  0  0  0  0
   37.8770   21.8980   40.3150 H   0  0  0  0  0  0  0  0  0  0  0  0
   39.6210   23.0850   41.6950 H   0  0  0  0  0  0  0  0  0  0  0  0
  1 25  1  0  0  0  0
  2  1  1  0  0  0  0
  3  1  1  0  0  0  0
  4 12  2  0  0  0  0
  4  5  1  0  0  0  0
  5  1  1  0  0  0  0
  5  6  2  0  0  0  0
  6 14  1  0  0  0  0
  7  6  1  0  0  0  0
  7  8  1  0  0  0  0
  8 15  1  0  0  0  0
  9  8  1  0  0  0  0
  9 16  1  0  0  0  0
 10  9  2  0  0  0  0
 11 10  1  0  0  0  0
 11  7  2  0  0  0  0
 12 11  1  0  0  0  0
 13  4  1  0  0  0  0
 17 10  1  0  0  0  0
 18 12  1  0  0  0  0
 19 18  1  0  0  0  0
 20 18  1  0  0  0  0
 20 22  1  0  0  0  0
 21 20  1  0  0  0  0
 23 24  1  0  0  0  0
 23 20  1  0  0  0  0
 25 27  1  0  0  0  0
 25 31  1  0  0  0  0
 25 26  1  0  0  0  0
 28 29  1  0  0  0  0
 29 33  1  0  0  0  0
 30 29  2  0  0  0  0
 30 34  1  0  0  0  0
 31 30  1  0  0  0  0
 32 31  1  0  0  0  0
 32 28  2  0  0  0  0
 35 40  2  0  0  0  0
 35 36  1  0  0  0  0
 36 37  2  0  0  0  0
 37 38  1  0  0  0  0
 37 43  1  0  0  0  0
 39 28  1  0  0  0  0
 39 38  2  0  0  0  0
 40 39  1  0  0  0  0
 41 35  1  0  0  0  0
 42 36  1  0  0  0  0
M  END
>  <minimizedAffinity>
-6.93887472

$$$$

 OpenBabel03252506273D

 43 46  0  0  0  0  0  0  0  0999 V2000
   37.6770   33.5740   39.8190 C   0  0  0  0  0  0  0  0  0  0  0  0
   37.7980   33.9280   38.7750 H   0  0  0  0  0  0  0  0  0  0  0  0
   36.8410   34.2160   40.2220 H   0  0  0  0  0  0  0  0  0  0  0  0
   36.9200   31.3720   40.9280 C   0  0  0  0  0  0  0  0  0  0  0  0
   37.1960   32.1920   39.8640 C   0  0  0  0  0  0  0  0  0  0  0  0
   36.9960   31.6410   38.5940 C   0  0  0  0  0  0  0  0  0  0  0  0
   36.5470   30.3510   38.4420 C   0  0  0  0  0  0  0  0  0  0  0  0
   36.2680   29.5730   37.3660 N   0  0  0  0  0  0  0  0  0  0  0  0
   35.8460   28.3500   37.7410 C   0  0  0  0  0  0  0  0  0  0  0  0
   35.8370   28.2940   39.1160 C   0  0  0  0  0  0  0  0  0  0  0  0
   36.2730   29.5400   39.5030 C   0  0  0  0  0  0  0  0  0  0  0  0
   36.4750   30.0950   40.7550 C   0  0  0  0  0  0  0  0  0  0  0  0
   37.0930   31.8480   41.8820 H   0  0  0  0  0  0  0  0  0  0  0  0
   37.1710   32.1650   37.6640 H   0  0  0  0  0  0  0  0  0  0  0  0
   36.3700   29.8870   36.3690 H   0  0  0  0  0  0  0  0  0  0  0  0
   35.5600   27.5420   37.0670 H   0  0  0  0  0  0  0  0  0  0  0  0
   35.5460   27.4420   39.7210 H   0  0  0  0  0  0  0  0  0  0  0  0
   36.1980   29.2730   41.8790 N   0  0  0  0  0  0  0  0  0  0  0  0
   35.2170   29.0770   42.1960 H   0  0  0  0  0  0  0  0  0  0  0  0
   37.1870   28.4120   42.9780 S   0  0  0  0  0  0  0  0  0  0  0  0
   38.6410   28.7830   42.8020 O   0  0  0  0  0  1  0  0  0  0  0  0
   37.1170   26.9260   42.7850 O   0  0  0  0  0  1  0  0  0  0  0  0
   36.8200   28.8220   44.5830 O   0  0  0  0  0  0  0  0  0  0  0  0
   36.4770   28.0290   45.0480 H   0  0  0  0  0  0  0  0  0  0  0  0
   38.8870   33.8840   40.6240 C   0  0  0  0  0  0  0  0  0  0  0  0
   38.7900   34.9090   41.0170 H   0  0  0  0  0  0  0  0  0  0  0  0
   38.9740   33.1500   41.4210 H   0  0  0  0  0  0  0  0  0  0  0  0
   41.6410   33.1050   38.4690 C   0  0  0  0  0  0  0  0  0  0  0  0
   41.8030   34.4890   38.6610 C   0  0  0  0  0  0  0  0  0  0  0  0
   40.8100   34.9430   39.4770 C   0  0  0  0  0  0  0  0  0  0  0  0
   40.0610   33.8690   39.7750 N   0  0  0  0  0  0  0  0  0  0  0  0
   40.5570   32.7800   39.1760 N   0  0  0  0  0  0  0  0  0  0  0  0
   42.5760   35.1550   38.2540 H   0  0  0  0  0  0  0  0  0  0  0  0
   40.6160   35.9560   39.8430 H   0  0  0  0  0  0  0  0  0  0  0  0
   44.6820   31.8490   36.9000 C   0  0  0  0  0  0  0  0  0  0  0  0
   44.2430   30.7860   36.1280 C   0  0  0  0  0  0  0  0  0  0  0  0
   42.8640   30.5060   36.1560 C   0  0  0  0  0  0  0  0  0  0  0  0
   42.0650   31.2790   36.9240 N   0  0  0  0  0  0  0  0  0  0  0  0
   42.5190   32.2970   37.6570 C   0  0  0  0  0  0  0  0  0  0  0  0
   43.8380   32.5760   37.6390 N   0  0  0  0  0  0  0  0  0  0  0  0
   45.7330   32.1080   36.9140 H   0  0  0  0  0  0  0  0  0  0  0  0
   44.9670   30.2410   35.5560 H   0  0  0  0  0  0  0  0  0  0  0  0
   42.5090   29.6850   35.5620 H   0  0  0  0  0  0  0  0  0  0  0  0
  1  5  1  0  0  0  0
  1  3  1  0  0  0  0
  1 25  1  0  0  0  0
  2  1  1  0  0  0  0
  4 13  1  0  0  0  0
  5  4  2  0  0  0  0
  6  5  1  0  0  0  0
  7  6  2  0  0  0  0
  7 11  1  0  0  0  0
  8  9  1  0  0  0  0
  8  7  1  0  0  0  0
  9 10  2  0  0  0  0
 10 11  1  0  0  0  0
 10 17  1  0  0  0  0
 11 12  2  0  0  0  0
 12  4  1  0  0  0  0
 12 18  1  0  0  0  0
 14  6  1  0  0  0  0
 15  8  1  0  0  0  0
 16  9  1  0  0  0  0
 18 19  1  0  0  0  0
 18 20  1  0  0  0  0
 20 23  1  0  0  0  0
 21 20  1  0  0  0  0
 22 20  1  0  0  0  0
 23 24  1  0  0  0  0
 25 26  1  0  0  0  0
 25 27  1  0  0  0  0
 28 29  1  0  0  0  0
 28 32  2  0  0  0  0
 29 30  2  0  0  0  0
 30 31  1  0  0  0  0
 30 34  1  0  0  0  0
 31 25  1  0  0  0  0
 32 31  1  0  0  0  0
 33 29  1  0  0  0  0
 35 41  1  0  0  0  0
 35 40  1  0  0  0  0
 36 37  1  0  0  0  0
 36 35  2  0  0  0  0
 37 38  2  0  0  0  0
 38 39  1  0  0  0  0
 39 28  1  0  0  0  0
 40 39  2  0  0  0  0
 42 36  1  0  0  0  0
 43 37  1  0  0  0  0
M  END
>  <minimizedAffinity>
-6.55320454

$$$$

 OpenBabel03252506273D

 43 46  0  0  0  0  0  0  0  0999 V2000
   35.1950   29.1020   38.7040 C   0  0  0  0  0  0  0  0  0  0  0  0
   34.2410   28.6040   38.4350 H   0  0  0  0  0  0  0  0  0  0  0  0
   34.8640   30.0820   39.1550 H   0  0  0  0  0  0  0  0  0  0  0  0
   36.4720   27.1290   39.7660 C   0  0  0  0  0  0  0  0  0  0  0  0
   35.8990   28.3760   39.7610 C   0  0  0  0  0  0  0  0  0  0  0  0
   35.9880   29.0970   40.9560 C   0  0  0  0  0  0  0  0  0  0  0  0
   36.6160   28.5710   42.0590 C   0  0  0  0  0  0  0  0  0  0  0  0
   36.8490   29.0270   43.3160 N   0  0  0  0  0  0  0  0  0  0  0  0
   37.5220   28.1210   44.0500 C   0  0  0  0  0  0  0  0  0  0  0  0
   37.7550   27.0130   43.2680 C   0  0  0  0  0  0  0  0  0  0  0  0
   37.1830   27.3320   42.0590 C   0  0  0  0  0  0  0  0  0  0  0  0
   37.0900   26.6260   40.8710 C   0  0  0  0  0  0  0  0  0  0  0  0
   36.3730   26.6180   38.8190 H   0  0  0  0  0  0  0  0  0  0  0  0
   35.5850   30.0900   41.1040 H   0  0  0  0  0  0  0  0  0  0  0  0
   36.5420   29.9670   43.6680 H   0  0  0  0  0  0  0  0  0  0  0  0
   37.8300   28.2450   45.0890 H   0  0  0  0  0  0  0  0  0  0  0  0
   38.2750   26.1110   43.5730 H   0  0  0  0  0  0  0  0  0  0  0  0
   37.6720   25.3310   40.8420 N   0  0  0  0  0  0  0  0  0  0  0  0
   38.6180   25.1370   41.2560 H   0  0  0  0  0  0  0  0  0  0  0  0
   37.1530   23.8220   40.2260 S   0  0  0  0  0  0  0  0  0  0  0  0
   37.5330   23.6710   38.7720 O   0  0  0  0  0  1  0  0  0  0  0  0
   35.6630   23.6530   40.2800 O   0  0  0  0  0  1  0  0  0  0  0  0
   37.9270   22.5380   41.0190 O   0  0  0  0  0  0  0  0  0  0  0  0
   37.2570   22.0060   41.5000 H   0  0  0  0  0  0  0  0  0  0  0  0
   35.9790   29.4300   37.4850 C   0  0  0  0  0  0  0  0  0  0  0  0
   36.2860   28.4870   37.0060 H   0  0  0  0  0  0  0  0  0  0  0  0
   35.3630   30.0380   36.8260 H   0  0  0  0  0  0  0  0  0  0  0  0
   38.5020   31.7060   38.6200 C   0  0  0  0  0  0  0  0  0  0  0  0
   39.2710   30.6240   38.1570 C   0  0  0  0  0  0  0  0  0  0  0  0
   38.4380   29.6560   37.6830 C   0  0  0  0  0  0  0  0  0  0  0  0
   37.1920   30.1310   37.8510 N   0  0  0  0  0  0  0  0  0  0  0  0
   37.2340   31.3480   38.4070 N   0  0  0  0  0  0  0  0  0  0  0  0
   40.3650   30.5110   38.1460 H   0  0  0  0  0  0  0  0  0  0  0  0
   38.6760   28.6800   37.2470 H   0  0  0  0  0  0  0  0  0  0  0  0
   38.7520   34.8540   40.4410 C   0  0  0  0  0  0  0  0  0  0  0  0
   40.0810   35.2160   40.2990 C   0  0  0  0  0  0  0  0  0  0  0  0
   40.9010   34.3470   39.5550 C   0  0  0  0  0  0  0  0  0  0  0  0
   40.3490   33.2290   39.0330 N   0  0  0  0  0  0  0  0  0  0  0  0
   39.0630   32.9080   39.1890 C   0  0  0  0  0  0  0  0  0  0  0  0
   38.2670   33.7320   39.8990 N   0  0  0  0  0  0  0  0  0  0  0  0
   38.0780   35.4870   41.0030 H   0  0  0  0  0  0  0  0  0  0  0  0
   40.4120   36.1280   40.7560 H   0  0  0  0  0  0  0  0  0  0  0  0
   41.9340   34.6140   39.4350 H   0  0  0  0  0  0  0  0  0  0  0  0
  1  3  1  0  0  0  0
  1  5  1  0  0  0  0
  2  1  1  0  0  0  0
  4 12  1  0  0  0  0
  5  4  2  0  0  0  0
  5  6  1  0  0  0  0
  6 14  1  0  0  0  0
  6  7  2  0  0  0  0
  7 11  1  0  0  0  0
  7  8  1  0  0  0  0
  8 15  1  0  0  0  0
  8  9  1  0  0  0  0
  9 16  1  0  0  0  0
 10 17  1  0  0  0  0
 10  9  2  0  0  0  0
 11 10  1  0  0  0  0
 12 11  2  0  0  0  0
 13  4  1  0  0  0  0
 18 12  1  0  0  0  0
 18 19  1  0  0  0  0
 20 22  1  0  0  0  0
 20 18  1  0  0  0  0
 20 23  1  0  0  0  0
 21 20  1  0  0  0  0
 23 24  1  0  0  0  0
 25 31  1  0  0  0  0
 25  1  1  0  0  0  0
 26 25  1  0  0  0  0
 27 25  1  0  0  0  0
 28 39  1  0  0  0  0
 29 28  1  0  0  0  0
 30 31  1  0  0  0  0
 30 29  2  0  0  0  0
 31 32  1  0  0  0  0
 32 28  2  0  0  0  0
 33 29  1  0  0  0  0
 34 30  1  0  0  0  0
 35 41  1  0  0  0  0
 36 35  1  0  0  0  0
 36 42  1  0  0  0  0
 37 36  2  0  0  0  0
 38 39  2  0  0  0  0
 38 37  1  0  0  0  0
 39 40  1  0  0  0  0
 40 35  2  0  0  0  0
 43 37  1  0  0  0  0
M  END
>  <minimizedAffinity>
-6.38831806

$$$$

 OpenBabel03252506273D

 43 46  0  0  0  0  0  0  0  0999 V2000
   36.0380   29.9650   38.2540 C   0  0  0  0  0  0  0  0  0  0  0  0
   35.1870   30.2300   38.9150 H   0  0  0  0  0  0  0  0  0  0  0  0
   35.6210   30.1080   37.2150 H   0  0  0  0  0  0  0  0  0  0  0  0
   38.2440   31.1330   37.6070 C   0  0  0  0  0  0  0  0  0  0  0  0
   37.1410   30.9160   38.3930 C   0  0  0  0  0  0  0  0  0  0  0  0
   37.0260   31.7260   39.5280 C   0  0  0  0  0  0  0  0  0  0  0  0
   37.9720   32.6780   39.8210 C   0  0  0  0  0  0  0  0  0  0  0  0
   38.1190   33.5820   40.8220 N   0  0  0  0  0  0  0  0  0  0  0  0
   39.2400   34.3120   40.6650 C   0  0  0  0  0  0  0  0  0  0  0  0
   39.8770   33.8900   39.5200 C   0  0  0  0  0  0  0  0  0  0  0  0
   39.0670   32.8900   39.0360 C   0  0  0  0  0  0  0  0  0  0  0  0
   39.1720   32.0830   37.9160 C   0  0  0  0  0  0  0  0  0  0  0  0
   38.2830   30.4810   36.7470 H   0  0  0  0  0  0  0  0  0  0  0  0
   36.2130   31.6720   40.2400 H   0  0  0  0  0  0  0  0  0  0  0  0
   37.4420   33.6970   41.6170 H   0  0  0  0  0  0  0  0  0  0  0  0
   39.5840   35.1020   41.3320 H   0  0  0  0  0  0  0  0  0  0  0  0
   40.8070   34.2830   39.1220 H   0  0  0  0  0  0  0  0  0  0  0  0
   40.3020   32.2810   37.0800 N   0  0  0  0  0  0  0  0  0  0  0  0
   40.2210   32.7250   36.1320 H   0  0  0  0  0  0  0  0  0  0  0  0
   41.9690   31.9370   37.2560 S   0  0  0  0  0  0  0  0  0  0  0  0
   42.3950   30.8310   36.3180 O   0  0  0  0  0  1  0  0  0  0  0  0
   42.3240   31.4640   38.6340 O   0  0  0  0  0  1  0  0  0  0  0  0
   42.9200   33.2730   36.8210 O   0  0  0  0  0  0  0  0  0  0  0  0
   43.4140   33.5860   37.6090 H   0  0  0  0  0  0  0  0  0  0  0  0
   36.3790   28.5250   38.3880 C   0  0  0  0  0  0  0  0  0  0  0  0
   35.4760   27.9320   38.1720 H   0  0  0  0  0  0  0  0  0  0  0  0
   37.1910   28.2930   37.7020 H   0  0  0  0  0  0  0  0  0  0  0  0
   37.9870   27.6330   41.4620 C   0  0  0  0  0  0  0  0  0  0  0  0
   36.6950   27.9760   41.8980 C   0  0  0  0  0  0  0  0  0  0  0  0
   35.9470   28.3460   40.8200 C   0  0  0  0  0  0  0  0  0  0  0  0
   36.7580   28.2320   39.7550 N   0  0  0  0  0  0  0  0  0  0  0  0
   37.9680   27.8080   40.1400 N   0  0  0  0  0  0  0  0  0  0  0  0
   36.2880   27.9700   42.9180 H   0  0  0  0  0  0  0  0  0  0  0  0
   34.9030   28.6740   40.7740 H   0  0  0  0  0  0  0  0  0  0  0  0
   41.0140   27.6850   43.4940 C   0  0  0  0  0  0  0  0  0  0  0  0
   41.0820   26.4060   44.0220 C   0  0  0  0  0  0  0  0  0  0  0  0
   40.0560   25.5130   43.6610 C   0  0  0  0  0  0  0  0  0  0  0  0
   39.0800   25.9520   42.8350 N   0  0  0  0  0  0  0  0  0  0  0  0
   39.0430   27.1920   42.3430 C   0  0  0  0  0  0  0  0  0  0  0  0
   40.0200   28.0580   42.6810 N   0  0  0  0  0  0  0  0  0  0  0  0
   41.7780   28.4110   43.7390 H   0  0  0  0  0  0  0  0  0  0  0  0
   41.9030   26.1660   44.6680 H   0  0  0  0  0  0  0  0  0  0  0  0
   40.0950   24.5180   44.0620 H   0  0  0  0  0  0  0  0  0  0  0  0
  1 25  1  0  0  0  0
  1  5  1  0  0  0  0
  1  2  1  0  0  0  0
  3  1  1  0  0  0  0
  4 12  2  0  0  0  0
  4  5  1  0  0  0  0
  5  6  2  0  0  0  0
  6  7  1  0  0  0  0
  6 14  1  0  0  0  0
  7  8  1  0  0  0  0
  8 15  1  0  0  0  0
  9  8  1  0  0  0  0
  9 16  1  0  0  0  0
 10  9  2  0  0  0  0
 11 10  1  0  0  0  0
 11  7  2  0  0  0  0
 12 11  1  0  0  0  0
 13  4  1  0  0  0  0
 17 10  1  0  0  0  0
 18 20  1  0  0  0  0
 18 12  1  0  0  0  0
 19 18  1  0  0  0  0
 20 22  1  0  0  0  0
 21 20  1  0  0  0  0
 23 20  1  0  0  0  0
 23 24  1  0  0  0  0
 25 31  1  0  0  0  0
 26 25  1  0  0  0  0
 27 25  1  0  0  0  0
 28 29  1  0  0  0  0
 28 39  1  0  0  0  0
 29 33  1  0  0  0  0
 30 29  2  0  0  0  0
 31 32  1  0  0  0  0
 31 30  1  0  0  0  0
 32 28  2  0  0  0  0
 34 30  1  0  0  0  0
 35 41  1  0  0  0  0
 35 36  1  0  0  0  0
 36 42  1  0  0  0  0
 37 36  2  0  0  0  0
 37 43  1  0  0  0  0
 38 37  1  0  0  0  0
 39 40  1  0  0  0  0
 39 38  2  0  0  0  0
 40 35  2  0  0  0  0
M  END
>  <minimizedAffinity>
-6.36709166

$$$$

 OpenBabel03252506273D

 43 46  0  0  0  0  0  0  0  0999 V2000
   36.1150   29.9700   38.5970 C   0  0  0  0  0  0  0  0  0  0  0  0
   35.3620   29.4690   37.9550 H   0  0  0  0  0  0  0  0  0  0  0  0
   35.5210   30.7660   39.1320 H   0  0  0  0  0  0  0  0  0  0  0  0
   37.2250   27.8380   39.5310 C   0  0  0  0  0  0  0  0  0  0  0  0
   36.6250   29.0670   39.6300 C   0  0  0  0  0  0  0  0  0  0  0  0
   36.4580   29.5680   40.9250 C   0  0  0  0  0  0  0  0  0  0  0  0
   36.8770   28.8540   42.0230 C   0  0  0  0  0  0  0  0  0  0  0  0
   36.8480   29.0820   43.3600 N   0  0  0  0  0  0  0  0  0  0  0  0
   37.3950   28.0590   44.0440 C   0  0  0  0  0  0  0  0  0  0  0  0
   37.8100   27.1040   43.1430 C   0  0  0  0  0  0  0  0  0  0  0  0
   37.4730   27.6330   41.9190 C   0  0  0  0  0  0  0  0  0  0  0  0
   37.6340   27.1470   40.6320 C   0  0  0  0  0  0  0  0  0  0  0  0
   37.3280   27.5010   38.5100 H   0  0  0  0  0  0  0  0  0  0  0  0
   36.0020   30.5200   41.1610 H   0  0  0  0  0  0  0  0  0  0  0  0
   36.4490   29.9460   43.8030 H   0  0  0  0  0  0  0  0  0  0  0  0
   37.4920   27.9980   45.1280 H   0  0  0  0  0  0  0  0  0  0  0  0
   38.2900   26.1610   43.3840 H   0  0  0  0  0  0  0  0  0  0  0  0
   38.2520   25.8760   40.4950 N   0  0  0  0  0  0  0  0  0  0  0  0
   39.2490   25.7740   40.1830 H   0  0  0  0  0  0  0  0  0  0  0  0
   37.7100   24.2720   40.7410 S   0  0  0  0  0  0  0  0  0  0  0  0
   38.3330   23.3300   39.7380 O   0  0  0  0  0  1  0  0  0  0  0  0
   36.2260   24.1260   40.5740 O   0  0  0  0  0  1  0  0  0  0  0  0
   38.1980   23.6860   42.2560 O   0  0  0  0  0  0  0  0  0  0  0  0
   37.4040   23.5060   42.8040 H   0  0  0  0  0  0  0  0  0  0  0  0
   37.1290   30.6720   37.7680 C   0  0  0  0  0  0  0  0  0  0  0  0
   37.9180   29.9520   37.4990 H   0  0  0  0  0  0  0  0  0  0  0  0
   36.6370   31.0820   36.8880 H   0  0  0  0  0  0  0  0  0  0  0  0
   39.3310   32.8910   39.5170 C   0  0  0  0  0  0  0  0  0  0  0  0
   38.0760   33.4820   39.7490 C   0  0  0  0  0  0  0  0  0  0  0  0
   37.1140   32.7380   39.1340 C   0  0  0  0  0  0  0  0  0  0  0  0
   37.7610   31.7210   38.5430 N   0  0  0  0  0  0  0  0  0  0  0  0
   39.0760   31.8140   38.7720 N   0  0  0  0  0  0  0  0  0  0  0  0
   37.8370   34.3900   40.3210 H   0  0  0  0  0  0  0  0  0  0  0  0
   36.0300   32.8900   39.0970 H   0  0  0  0  0  0  0  0  0  0  0  0
   42.8270   33.0700   40.5340 C   0  0  0  0  0  0  0  0  0  0  0  0
   42.9760   34.3710   40.9840 C   0  0  0  0  0  0  0  0  0  0  0  0
   41.8380   35.1970   40.9320 C   0  0  0  0  0  0  0  0  0  0  0  0
   40.6860   34.6780   40.4520 N   0  0  0  0  0  0  0  0  0  0  0  0
   40.5750   33.4180   40.0250 C   0  0  0  0  0  0  0  0  0  0  0  0
   41.6580   32.6160   40.0700 N   0  0  0  0  0  0  0  0  0  0  0  0
   43.6710   32.3930   40.5530 H   0  0  0  0  0  0  0  0  0  0  0  0
   43.9390   34.6770   41.3450 H   0  0  0  0  0  0  0  0  0  0  0  0
   41.9380   36.2090   41.2770 H   0  0  0  0  0  0  0  0  0  0  0  0
  1  3  1  0  0  0  0
  1  5  1  0  0  0  0
  2  1  1  0  0  0  0
  4  5  2  0  0  0  0
  4 12  1  0  0  0  0
  5  6  1  0  0  0  0
  6 14  1  0  0  0  0
  6  7  2  0  0  0  0
  7  8  1  0  0  0  0
  8 15  1  0  0  0  0
  8  9  1  0  0  0  0
  9 16  1  0  0  0  0
 10 17  1  0  0  0  0
 10  9  2  0  0  0  0
 11  7  1  0  0  0  0
 11 10  1  0  0  0  0
 12 11  2  0  0  0  0
 13  4  1  0  0  0  0
 18 12  1  0  0  0  0
 18 20  1  0  0  0  0
 19 18  1  0  0  0  0
 20 23  1  0  0  0  0
 21 20  1  0  0  0  0
 22 20  1  0  0  0  0
 23 24  1  0  0  0  0
 25 31  1  0  0  0  0
 25  1  1  0  0  0  0
 26 25  1  0  0  0  0
 27 25  1  0  0  0  0
 28 29  1  0  0  0  0
 28 39  1  0  0  0  0
 29 33  1  0  0  0  0
 30 29  2  0  0  0  0
 31 32  1  0  0  0  0
 31 30  1  0  0  0  0
 32 28  2  0  0  0  0
 34 30  1  0  0  0  0
 35 41  1  0  0  0  0
 35 36  1  0  0  0  0
 36 42  1  0  0  0  0
 37 36  2  0  0  0  0
 37 43  1  0  0  0  0
 38 37  1  0  0  0  0
 39 40  1  0  0  0  0
 39 38  2  0  0  0  0
 40 35  2  0  0  0  0
M  END
>  <minimizedAffinity>
-6.15916681

$$$$

 OpenBabel03252506273D

 43 46  0  0  0  0  0  0  0  0999 V2000
   38.1260   31.4650   39.5100 C   0  0  0  0  0  0  0  0  0  0  0  0
   39.1340   31.5740   39.0590 H   0  0  0  0  0  0  0  0  0  0  0  0
   37.4420   31.3890   38.6160 H   0  0  0  0  0  0  0  0  0  0  0  0
   38.1810   28.9070   39.8290 C   0  0  0  0  0  0  0  0  0  0  0  0
   37.9990   30.2030   40.2400 C   0  0  0  0  0  0  0  0  0  0  0  0
   37.6260   30.3780   41.5760 C   0  0  0  0  0  0  0  0  0  0  0  0
   37.4590   29.3020   42.4150 C   0  0  0  0  0  0  0  0  0  0  0  0
   37.1130   29.1710   43.7200 N   0  0  0  0  0  0  0  0  0  0  0  0
   37.0830   27.8770   44.0930 C   0  0  0  0  0  0  0  0  0  0  0  0
   37.4200   27.1030   43.0060 C   0  0  0  0  0  0  0  0  0  0  0  0
   37.6410   28.0160   42.0020 C   0  0  0  0  0  0  0  0  0  0  0  0
   38.0100   27.8530   40.6770 C   0  0  0  0  0  0  0  0  0  0  0  0
   38.4670   28.8310   38.7900 H   0  0  0  0  0  0  0  0  0  0  0  0
   37.4470   31.3380   42.0430 H   0  0  0  0  0  0  0  0  0  0  0  0
   36.8950   29.9780   44.3560 H   0  0  0  0  0  0  0  0  0  0  0  0
   36.8340   27.5070   45.0880 H   0  0  0  0  0  0  0  0  0  0  0  0
   37.4860   26.0200   42.9870 H   0  0  0  0  0  0  0  0  0  0  0  0
   38.2070   26.5240   40.2190 N   0  0  0  0  0  0  0  0  0  0  0  0
   39.1490   26.0610   40.2470 H   0  0  0  0  0  0  0  0  0  0  0  0
   37.1640   25.3420   39.5550 S   0  0  0  0  0  0  0  0  0  0  0  0
   36.4780   24.5520   40.6440 O   0  0  0  0  0  1  0  0  0  0  0  0
   37.8870   24.3340   38.7120 O   0  0  0  0  0  1  0  0  0  0  0  0
   35.9050   26.0610   38.6740 O   0  0  0  0  0  0  0  0  0  0  0  0
   35.9810   25.8010   37.7310 H   0  0  0  0  0  0  0  0  0  0  0  0
   37.7420   32.6990   40.2440 C   0  0  0  0  0  0  0  0  0  0  0  0
   36.9580   33.2160   39.6680 H   0  0  0  0  0  0  0  0  0  0  0  0
   37.3990   32.4220   41.2380 H   0  0  0  0  0  0  0  0  0  0  0  0
   40.9360   34.2950   40.5400 C   0  0  0  0  0  0  0  0  0  0  0  0
   40.0800   35.3910   40.3260 C   0  0  0  0  0  0  0  0  0  0  0  0
   38.8020   34.9370   40.1920 C   0  0  0  0  0  0  0  0  0  0  0  0
   38.8730   33.6020   40.3190 N   0  0  0  0  0  0  0  0  0  0  0  0
   40.1400   33.2240   40.5260 N   0  0  0  0  0  0  0  0  0  0  0  0
   40.3310   36.4590   40.2670 H   0  0  0  0  0  0  0  0  0  0  0  0
   37.8780   35.4960   40.0160 H   0  0  0  0  0  0  0  0  0  0  0  0
   44.5170   34.0050   39.9230 C   0  0  0  0  0  0  0  0  0  0  0  0
   45.0940   34.6080   41.0280 C   0  0  0  0  0  0  0  0  0  0  0  0
   44.2190   35.1220   42.0030 C   0  0  0  0  0  0  0  0  0  0  0  0
   42.8880   34.9990   41.8030 N   0  0  0  0  0  0  0  0  0  0  0  0
   42.3620   34.4110   40.7260 C   0  0  0  0  0  0  0  0  0  0  0  0
   43.1900   33.9150   39.7850 N   0  0  0  0  0  0  0  0  0  0  0  0
   45.1440   33.5920   39.1440 H   0  0  0  0  0  0  0  0  0  0  0  0
   46.1640   34.6500   41.0830 H   0  0  0  0  0  0  0  0  0  0  0  0
   44.6520   35.5920   42.8660 H   0  0  0  0  0  0  0  0  0  0  0  0
  1  5  1  0  0  0  0
  1 25  1  0  0  0  0
  2  1  1  0  0  0  0
  3  1  1  0  0  0  0
  4  5  2  0  0  0  0
  4 12  1  0  0  0  0
  5  6  1  0  0  0  0
  6 14  1  0  0  0  0
  6  7  2  0  0  0  0
  7  8  1  0  0  0  0
  8  9  1  0  0  0  0
  8 15  1  0  0  0  0
  9 16  1  0  0  0  0
 10  9  2  0  0  0  0
 11  7  1  0  0  0  0
 11 10  1  0  0  0  0
 12 11  2  0  0  0  0
 13  4  1  0  0  0  0
 17 10  1  0  0  0  0
 18 19  1  0  0  0  0
 18 12  1  0  0  0  0
 20 18  1  0  0  0  0
 20 21  1  0  0  0  0
 22 20  1  0  0  0  0
 23 20  1  0  0  0  0
 24 23  1  0  0  0  0
 25 31  1  0  0  0  0
 25 27  1  0  0  0  0
 26 25  1  0  0  0  0
 28 39  1  0  0  0  0
 29 28  1  0  0  0  0
 30 31  1  0  0  0  0
 30 29  2  0  0  0  0
 31 32  1  0  0  0  0
 32 28  2  0  0  0  0
 33 29  1  0  0  0  0
 34 30  1  0  0  0  0
 35 36  1  0  0  0  0
 36 42  1  0  0  0  0
 36 37  2  0  0  0  0
 37 43  1  0  0  0  0
 38 37  1  0  0  0  0
 39 38  2  0  0  0  0
 40 35  2  0  0  0  0
 40 39  1  0  0  0  0
 41 35  1  0  0  0  0
M  END
>  <minimizedAffinity>
-6.06799603

$$$$

 OpenBabel03252506273D

 43 46  0  0  0  0  0  0  0  0999 V2000
   40.0710   34.9790   39.5560 C   0  0  0  0  0  0  0  0  0  0  0  0
   40.0260   35.9670   39.0540 H   0  0  0  0  0  0  0  0  0  0  0  0
   39.8140   34.2510   38.7330 H   0  0  0  0  0  0  0  0  0  0  0  0
   42.4080   33.9010   39.3830 C   0  0  0  0  0  0  0  0  0  0  0  0
   41.4330   34.6560   39.9840 C   0  0  0  0  0  0  0  0  0  0  0  0
   41.7700   35.2280   41.2150 C   0  0  0  0  0  0  0  0  0  0  0  0
   43.0110   35.0320   41.7740 C   0  0  0  0  0  0  0  0  0  0  0  0
   43.6010   35.4490   42.9220 N   0  0  0  0  0  0  0  0  0  0  0  0
   44.8600   34.9820   43.0240 C   0  0  0  0  0  0  0  0  0  0  0  0
   45.1350   34.2220   41.9100 C   0  0  0  0  0  0  0  0  0  0  0  0
   43.9750   34.2800   41.1730 C   0  0  0  0  0  0  0  0  0  0  0  0
   43.6320   33.7190   39.9540 C   0  0  0  0  0  0  0  0  0  0  0  0
   42.0940   33.4840   38.4370 H   0  0  0  0  0  0  0  0  0  0  0  0
   41.1080   35.8460   41.8060 H   0  0  0  0  0  0  0  0  0  0  0  0
   43.1340   36.0590   43.6380 H   0  0  0  0  0  0  0  0  0  0  0  0
   45.5450   35.1730   43.8510 H   0  0  0  0  0  0  0  0  0  0  0  0
   46.0670   33.7080   41.6980 H   0  0  0  0  0  0  0  0  0  0  0  0
   44.6170   32.9300   39.3050 N   0  0  0  0  0  0  0  0  0  0  0  0
   45.4190   32.4990   39.8300 H   0  0  0  0  0  0  0  0  0  0  0  0
   44.8540   32.4440   37.6820 S   0  0  0  0  0  0  0  0  0  0  0  0
   43.6090   31.7920   37.1260 O   0  0  0  0  0  1  0  0  0  0  0  0
   45.9490   31.4300   37.5310 O   0  0  0  0  0  1  0  0  0  0  0  0
   45.1370   33.7810   36.6770 O   0  0  0  0  0  0  0  0  0  0  0  0
   46.0420   33.7160   36.3020 H   0  0  0  0  0  0  0  0  0  0  0  0
   39.0060   34.8620   40.5850 C   0  0  0  0  0  0  0  0  0  0  0  0
   39.4790   34.8830   41.5800 H   0  0  0  0  0  0  0  0  0  0  0  0
   38.3020   35.6810   40.4530 H   0  0  0  0  0  0  0  0  0  0  0  0
   37.7950   31.5030   40.8700 C   0  0  0  0  0  0  0  0  0  0  0  0
   37.0430   31.9930   39.7880 C   0  0  0  0  0  0  0  0  0  0  0  0
   37.3970   33.2880   39.5510 C   0  0  0  0  0  0  0  0  0  0  0  0
   38.3380   33.5820   40.4630 N   0  0  0  0  0  0  0  0  0  0  0  0
   38.5730   32.5200   41.2430 N   0  0  0  0  0  0  0  0  0  0  0  0
   36.2820   31.4760   39.1870 H   0  0  0  0  0  0  0  0  0  0  0  0
   37.0260   33.9870   38.7940 H   0  0  0  0  0  0  0  0  0  0  0  0
   36.3870   28.2320   41.6520 C   0  0  0  0  0  0  0  0  0  0  0  0
   37.3940   27.5970   42.3590 C   0  0  0  0  0  0  0  0  0  0  0  0
   38.5820   28.3230   42.5660 C   0  0  0  0  0  0  0  0  0  0  0  0
   38.6660   29.5770   42.0690 N   0  0  0  0  0  0  0  0  0  0  0  0
   37.6760   30.1610   41.3900 C   0  0  0  0  0  0  0  0  0  0  0  0
   36.5330   29.4770   41.1850 N   0  0  0  0  0  0  0  0  0  0  0  0
   35.4530   27.7190   41.4650 H   0  0  0  0  0  0  0  0  0  0  0  0
   37.2180   26.5990   42.7090 H   0  0  0  0  0  0  0  0  0  0  0  0
   39.3720   27.8440   43.1140 H   0  0  0  0  0  0  0  0  0  0  0  0
  1  5  1  0  0  0  0
  1 25  1  0  0  0  0
  2  1  1  0  0  0  0
  3  1  1  0  0  0  0
  4 12  2  0  0  0  0
  4  5  1  0  0  0  0
  5  6  2  0  0  0  0
  6  7  1  0  0  0  0
  6 14  1  0  0  0  0
  7  8  1  0  0  0  0
  8  9  1  0  0  0  0
  8 15  1  0  0  0  0
  9 16  1  0  0  0  0
 10  9  2  0  0  0  0
 11  7  2  0  0  0  0
 11 10  1  0  0  0  0
 12 11  1  0  0  0  0
 13  4  1  0  0  0  0
 17 10  1  0  0  0  0
 18 19  1  0  0  0  0
 18 12  1  0  0  0  0
 20 18  1  0  0  0  0
 21 20  1  0  0  0  0
 22 20  1  0  0  0  0
 23 20  1  0  0  0  0
 24 23  1  0  0  0  0
 25 26  1  0  0  0  0
 27 25  1  0  0  0  0
 28 32  2  0  0  0  0
 28 39  1  0  0  0  0
 29 28  1  0  0  0  0
 30 29  2  0  0  0  0
 30 31  1  0  0  0  0
 31 25  1  0  0  0  0
 31 32  1  0  0  0  0
 33 29  1  0  0  0  0
 34 30  1  0  0  0  0
 35 36  1  0  0  0  0
 36 37  2  0  0  0  0
 36 42  1  0  0  0  0
 37 43  1  0  0  0  0
 38 37  1  0  0  0  0
 39 38  2  0  0  0  0
 40 39  1  0  0  0  0
 40 35  2  0  0  0  0
 41 35  1  0  0  0  0
M  END
>  <minimizedAffinity>
-6.00034094

$$$$

 OpenBabel03252506273D

 43 46  0  0  0  0  0  0  0  0999 V2000
   35.9350   29.1170   36.3860 C   0  0  0  0  0  0  0  0  0  0  0  0
   35.8070   29.8750   35.5860 H   0  0  0  0  0  0  0  0  0  0  0  0
   36.8340   28.5250   36.0490 H   0  0  0  0  0  0  0  0  0  0  0  0
   36.0900   29.3260   38.9510 C   0  0  0  0  0  0  0  0  0  0  0  0
   36.3000   29.7380   37.6600 C   0  0  0  0  0  0  0  0  0  0  0  0
   36.9720   30.9540   37.5030 C   0  0  0  0  0  0  0  0  0  0  0  0
   37.3910   31.6800   38.5920 C   0  0  0  0  0  0  0  0  0  0  0  0
   38.0480   32.8580   38.7410 N   0  0  0  0  0  0  0  0  0  0  0  0
   38.2330   33.1560   40.0410 C   0  0  0  0  0  0  0  0  0  0  0  0
   37.6850   32.1480   40.8010 C   0  0  0  0  0  0  0  0  0  0  0  0
   37.1810   31.2670   39.8740 C   0  0  0  0  0  0  0  0  0  0  0  0
   36.5150   30.0610   40.0180 C   0  0  0  0  0  0  0  0  0  0  0  0
   35.5670   28.3830   39.0130 H   0  0  0  0  0  0  0  0  0  0  0  0
   37.2080   31.4060   36.5490 H   0  0  0  0  0  0  0  0  0  0  0  0
   38.3690   33.4590   37.9420 H   0  0  0  0  0  0  0  0  0  0  0  0
   38.7330   34.0460   40.4250 H   0  0  0  0  0  0  0  0  0  0  0  0
   37.6730   32.0970   41.8850 H   0  0  0  0  0  0  0  0  0  0  0  0
   36.2810   29.6070   41.3420 N   0  0  0  0  0  0  0  0  0  0  0  0
   35.4270   29.8880   41.8840 H   0  0  0  0  0  0  0  0  0  0  0  0
   37.1500   28.5860   42.4050 S   0  0  0  0  0  0  0  0  0  0  0  0
   38.1070   29.3850   43.2600 O   0  0  0  0  0  1  0  0  0  0  0  0
   37.9920   27.5750   41.6840 O   0  0  0  0  0  1  0  0  0  0  0  0
   36.1120   27.8200   43.5060 O   0  0  0  0  0  0  0  0  0  0  0  0
   36.1400   26.8510   43.3550 H   0  0  0  0  0  0  0  0  0  0  0  0
   34.7840   28.1770   36.4080 C   0  0  0  0  0  0  0  0  0  0  0  0
   34.8990   27.4660   35.5760 H   0  0  0  0  0  0  0  0  0  0  0  0
   34.7630   27.6740   37.3730 H   0  0  0  0  0  0  0  0  0  0  0  0
   31.9770   29.9890   35.1150 C   0  0  0  0  0  0  0  0  0  0  0  0
   31.6480   29.8750   36.4780 C   0  0  0  0  0  0  0  0  0  0  0  0
   32.6400   29.1950   37.1190 C   0  0  0  0  0  0  0  0  0  0  0  0
   33.5500   28.9010   36.1760 N   0  0  0  0  0  0  0  0  0  0  0  0
   33.1540   29.3740   34.9880 N   0  0  0  0  0  0  0  0  0  0  0  0
   30.7590   30.2480   37.0060 H   0  0  0  0  0  0  0  0  0  0  0  0
   32.7290   28.9200   38.1750 H   0  0  0  0  0  0  0  0  0  0  0  0
   29.7620   30.5020   32.2650 C   0  0  0  0  0  0  0  0  0  0  0  0
   29.5470   31.8700   32.2540 C   0  0  0  0  0  0  0  0  0  0  0  0
   30.1860   32.6240   33.2560 C   0  0  0  0  0  0  0  0  0  0  0  0
   30.9580   31.9760   34.1560 N   0  0  0  0  0  0  0  0  0  0  0  0
   31.1460   30.6540   34.1400 C   0  0  0  0  0  0  0  0  0  0  0  0
   30.5390   29.9210   33.1850 N   0  0  0  0  0  0  0  0  0  0  0  0
   29.2950   29.8760   31.5160 H   0  0  0  0  0  0  0  0  0  0  0  0
   28.9140   32.2790   31.4910 H   0  0  0  0  0  0  0  0  0  0  0  0
   30.0290   33.6860   33.2600 H   0  0  0  0  0  0  0  0  0  0  0  0
  1 25  1  0  0  0  0
  1  5  1  0  0  0  0
  2  1  1  0  0  0  0
  3  1  1  0  0  0  0
  4 13  1  0  0  0  0
  4 12  1  0  0  0  0
  5  4  2  0  0  0  0
  6  5  1  0  0  0  0
  6  7  2  0  0  0  0
  7  8  1  0  0  0  0
  7 11  1  0  0  0  0
  8  9  1  0  0  0  0
  9 16  1  0  0  0  0
  9 10  2  0  0  0  0
 10 17  1  0  0  0  0
 11 12  2  0  0  0  0
 11 10  1  0  0  0  0
 12 18  1  0  0  0  0
 14  6  1  0  0  0  0
 15  8  1  0  0  0  0
 18 19  1  0  0  0  0
 18 20  1  0  0  0  0
 20 21  1  0  0  0  0
 20 23  1  0  0  0  0
 22 20  1  0  0  0  0
 24 23  1  0  0  0  0
 25 27  1  0  0  0  0
 26 25  1  0  0  0  0
 28 29  1  0  0  0  0
 29 33  1  0  0  0  0
 29 30  2  0  0  0  0
 30 34  1  0  0  0  0
 31 25  1  0  0  0  0
 31 30  1  0  0  0  0
 32 28  2  0  0  0  0
 32 31  1  0  0  0  0
 35 40  1  0  0  0  0
 36 35  2  0  0  0  0
 36 37  1  0  0  0  0
 37 43  1  0  0  0  0
 37 38  2  0  0  0  0
 39 38  1  0  0  0  0
 39 28  1  0  0  0  0
 40 39  2  0  0  0  0
 41 35  1  0  0  0  0
 42 36  1  0  0  0  0
M  END
>  <minimizedAffinity>
-5.98340559

$$$$
