
 OpenBabel03252505293D

 25 25  0  0  0  0  0  0  0  0999 V2000
   46.9010   32.3140   48.4130 O   0  0  0  0  0  0  0  0  0  0  0  0
   45.8540   32.5200   47.3180 P   0  0  1  0  0  0  0  0  0  0  0  0
   44.5690   33.4610   47.8270 O   0  0  0  0  0  0  0  0  0  0  0  0
   44.9250   34.2140   48.3750 H   0  0  0  0  0  0  0  0  0  0  0  0
   46.6570   33.2270   46.0000 O   0  0  0  0  0  0  0  0  0  0  0  0
   44.4810   35.6600   44.6270 C   0  0  0  0  0  0  0  0  0  0  0  0
   44.8730   35.7870   43.2650 C   0  0  0  0  0  0  0  0  0  0  0  0
   45.9540   34.9590   42.8650 C   0  0  0  0  0  0  0  0  0  0  0  0
   46.5150   34.1320   43.7900 N   0  0  0  0  0  0  0  0  0  0  0  0
   46.0940   34.0630   45.0570 C   0  0  0  0  0  0  0  0  0  0  0  0
   45.0790   34.8280   45.4700 N   0  0  0  0  0  0  0  0  0  0  0  0
   43.6450   36.3040   44.9260 H   0  0  0  0  0  0  0  0  0  0  0  0
   44.3850   36.4670   42.5780 H   0  0  0  0  0  0  0  0  0  0  0  0
   46.2960   35.0110   41.8500 H   0  0  0  0  0  0  0  0  0  0  0  0
   45.2780   30.9830   46.9260 O   0  0  0  0  0  0  0  0  0  0  0  0
   45.0730   30.2850   48.1050 C   0  0  0  0  0  0  0  0  0  0  0  0
   44.9200   30.9910   48.9430 H   0  0  0  0  0  0  0  0  0  0  0  0
   44.1190   29.7290   48.0010 H   0  0  0  0  0  0  0  0  0  0  0  0
   46.1560   29.3740   48.4050 N   0  0  0  0  0  0  0  0  0  0  0  0
   47.0610   29.7870   48.0920 H   0  0  0  0  0  0  0  0  0  0  0  0
   45.9160   27.9290   47.4740 S   0  0  0  0  0  0  0  0  0  0  0  0
   46.6990   27.9900   46.1870 O   0  0  0  0  0  0  0  0  0  0  0  0
   44.4740   27.7630   47.1120 O   0  0  0  0  0  0  0  0  0  0  0  0
   46.4360   26.5760   48.3120 O   0  0  0  0  0  0  0  0  0  0  0  0
   45.6720   26.0320   48.6610 H   0  0  0  0  0  0  0  0  0  0  0  0
  2  3  1  0  0  0  0
  2  1  2  1  0  0  0
  3  4  1  0  0  0  0
  5  2  1  0  0  0  0
  6 12  1  0  0  0  0
  6 11  1  0  0  0  0
  7  6  2  0  0  0  0
  8  7  1  0  0  0  0
  8  9  2  0  0  0  0
  9 10  1  0  0  0  0
 10 11  2  0  0  0  0
 10  5  1  0  0  0  0
 13  7  1  0  0  0  0
 14  8  1  0  0  0  0
 15  2  1  0  0  0  0
 15 16  1  0  0  0  0
 16 19  1  0  0  0  0
 16 17  1  0  0  0  0
 18 16  1  0  0  0  0
 20 19  1  0  0  0  0
 21 24  1  0  0  0  0
 21 19  1  0  0  0  0
 22 21  1  0  0  0  0
 23 21  1  0  0  0  0
 24 25  1  0  0  0  0
M  END
>  <minimizedAffinity>
-4.509161

>  <minimizedRMSD>
1.37636483

$$$$
