
 OpenBabel03252503443D

 32 33  0  0  1  0  0  0  0  0999 V2000
   39.1500   32.9580   39.9910 C   0  0  0  0  0  0  0  0  0  0  0  0
   38.4690   32.2760   38.9710 C   0  0  0  0  0  0  0  0  0  0  0  0
   39.2300   31.8050   37.8870 C   0  0  0  0  0  0  0  0  0  0  0  0
   40.5580   32.0260   37.8760 N   0  0  0  0  0  0  0  0  0  0  0  0
   41.1830   32.6810   38.8640 C   0  0  0  0  0  0  0  0  0  0  0  0
   40.4960   33.1600   39.9390 N   0  0  0  0  0  0  0  0  0  0  0  0
   38.7090   33.3780   40.8850 H   0  0  0  0  0  0  0  0  0  0  0  0
   38.6910   31.2820   37.1090 H   0  0  0  0  0  0  0  0  0  0  0  0
   43.0790   32.9570   37.2630 C   0  0  2  0  0  0  0  0  0  0  0  0
   42.6310   32.8420   38.7380 C   0  0  1  0  0  0  0  0  0  0  0  0
   43.1310   34.0130   39.2310 O   0  0  0  0  0  0  0  0  0  0  0  0
   44.4000   34.1560   38.7480 C   0  0  0  0  0  0  0  0  0  0  0  0
   44.5630   33.2550   37.5460 C   0  0  2  0  0  0  0  0  0  0  0  0
   42.9490   32.0200   36.7330 H   0  0  0  0  0  0  0  0  0  0  0  0
   43.1310   31.9760   39.1960 H   0  0  0  0  0  0  0  0  0  0  0  0
   44.4730   35.2070   38.3430 H   0  0  0  0  0  0  0  0  0  0  0  0
   45.1730   34.0030   39.5200 H   0  0  0  0  0  0  0  0  0  0  0  0
   45.0880   32.3400   37.8880 H   0  0  0  0  0  0  0  0  0  0  0  0
   42.5480   34.0820   36.7220 O   0  0  0  0  0  0  0  0  0  0  0  0
   42.7350   34.0970   35.7480 H   0  0  0  0  0  0  0  0  0  0  0  0
   45.1780   33.8580   36.4640 O   0  0  0  0  0  0  0  0  0  0  0  0
   46.1360   33.8430   36.6410 H   0  0  0  0  0  0  0  0  0  0  0  0
   37.0220   32.1150   39.1260 C   0  0  0  0  0  0  0  0  0  0  0  0
   36.7060   32.3580   40.1760 H   0  0  0  0  0  0  0  0  0  0  0  0
   36.4920   32.8730   38.5020 H   0  0  0  0  0  0  0  0  0  0  0  0
   36.5890   30.7810   38.8530 N   0  0  0  0  0  0  0  0  0  0  0  0
   36.0850   30.6220   37.9790 H   0  0  0  0  0  0  0  0  0  0  0  0
   35.9670   29.9810   40.2350 S   0  0  0  0  0  0  0  0  0  0  0  0
   37.0480   29.0690   40.7450 O   0  0  0  0  0  1  0  0  0  0  0  0
   34.7200   29.2300   39.8980 O   0  0  0  0  0  1  0  0  0  0  0  0
   35.6010   31.0710   41.4680 O   0  0  0  0  0  0  0  0  0  0  0  0
   36.1260   31.9120   41.4070 H   0  0  0  0  0  0  0  0  0  0  0  0
  1  7  1  0  0  0  0
  2 23  1  0  0  0  0
  2  1  2  0  0  0  0
  3  2  1  0  0  0  0
  4  3  2  0  0  0  0
  4  5  1  0  0  0  0
  5  6  2  0  0  0  0
  6  1  1  0  0  0  0
  8  3  1  0  0  0  0
  9 14  1  6  0  0  0
  9 13  1  0  0  0  0
  9 10  1  0  0  0  0
 10  5  1  0  0  0  0
 10 15  1  1  0  0  0
 10 11  1  0  0  0  0
 12 11  1  0  0  0  0
 12 17  1  0  0  0  0
 13 18  1  1  0  0  0
 13 12  1  0  0  0  0
 16 12  1  0  0  0  0
 19  9  1  0  0  0  0
 20 19  1  0  0  0  0
 21 22  1  0  0  0  0
 21 13  1  0  0  0  0
 23 24  1  0  0  0  0
 25 23  1  0  0  0  0
 26 23  1  0  0  0  0
 26 28  1  0  0  0  0
 27 26  1  0  0  0  0
 28 29  1  0  0  0  0
 28 31  1  0  0  0  0
 30 28  1  0  0  0  0
 32 31  1  0  0  0  0
M  END
>  <minimizedAffinity>
-5.52221823

$$$$

 OpenBabel03252503443D

 32 33  0  0  1  0  0  0  0  0999 V2000
   38.2620   29.2610   38.7650 C   0  0  0  0  0  0  0  0  0  0  0  0
   37.4400   29.4390   39.8880 C   0  0  0  0  0  0  0  0  0  0  0  0
   37.7280   30.5190   40.7390 C   0  0  0  0  0  0  0  0  0  0  0  0
   38.7650   31.3260   40.4420 N   0  0  0  0  0  0  0  0  0  0  0  0
   39.5350   31.1340   39.3620 C   0  0  0  0  0  0  0  0  0  0  0  0
   39.3020   30.1010   38.5030 N   0  0  0  0  0  0  0  0  0  0  0  0
   38.1710   28.4820   38.0210 H   0  0  0  0  0  0  0  0  0  0  0  0
   37.0850   30.6430   41.6000 H   0  0  0  0  0  0  0  0  0  0  0  0
   41.0710   32.1370   37.6680 C   0  0  2  0  0  0  0  0  0  0  0  0
   40.6210   32.0890   39.1460 C   0  0  1  0  0  0  0  0  0  0  0  0
   40.2880   33.4000   39.3370 O   0  0  0  0  0  0  0  0  0  0  0  0
   41.2790   34.1610   38.7850 C   0  0  0  0  0  0  0  0  0  0  0  0
   42.0630   33.3050   37.8170 C   0  0  2  0  0  0  0  0  0  0  0  0
   41.5690   31.2200   37.3740 H   0  0  0  0  0  0  0  0  0  0  0  0
   41.4800   31.8050   39.7720 H   0  0  0  0  0  0  0  0  0  0  0  0
   40.7680   34.9390   38.1470 H   0  0  0  0  0  0  0  0  0  0  0  0
   41.9100   34.6590   39.5410 H   0  0  0  0  0  0  0  0  0  0  0  0
   42.9830   32.9740   38.3400 H   0  0  0  0  0  0  0  0  0  0  0  0
   40.0450   32.5870   36.9040 O   0  0  0  0  0  0  0  0  0  0  0  0
   40.2900   32.5070   35.9460 H   0  0  0  0  0  0  0  0  0  0  0  0
   42.3220   33.9130   36.6030 O   0  0  0  0  0  0  0  0  0  0  0  0
   43.0840   34.5050   36.7410 H   0  0  0  0  0  0  0  0  0  0  0  0
   36.3510   28.4780   40.0760 C   0  0  0  0  0  0  0  0  0  0  0  0
   35.6910   28.7880   40.9310 H   0  0  0  0  0  0  0  0  0  0  0  0
   35.6730   28.5020   39.1890 H   0  0  0  0  0  0  0  0  0  0  0  0
   36.8270   27.1630   40.3660 N   0  0  0  0  0  0  0  0  0  0  0  0
   36.3710   26.3840   39.8880 H   0  0  0  0  0  0  0  0  0  0  0  0
   37.1730   26.9260   42.0280 S   0  0  0  0  0  0  0  0  0  0  0  0
   38.6270   27.2470   42.2300 O   0  0  0  0  0  1  0  0  0  0  0  0
   36.8500   25.5270   42.4440 O   0  0  0  0  0  1  0  0  0  0  0  0
   36.2830   27.9750   43.0010 O   0  0  0  0  0  0  0  0  0  0  0  0
   36.0070   28.8030   42.5240 H   0  0  0  0  0  0  0  0  0  0  0  0
  1  2  1  0  0  0  0
  2 23  1  0  0  0  0
  2  3  2  0  0  0  0
  3  8  1  0  0  0  0
  4  3  1  0  0  0  0
  5  4  2  0  0  0  0
  6  1  2  0  0  0  0
  6  5  1  0  0  0  0
  7  1  1  0  0  0  0
  9 14  1  6  0  0  0
  9 13  1  0  0  0  0
  9 10  1  0  0  0  0
 10 11  1  0  0  0  0
 10  5  1  0  0  0  0
 10 15  1  1  0  0  0
 12 11  1  0  0  0  0
 12 17  1  0  0  0  0
 13 18  1  1  0  0  0
 13 12  1  0  0  0  0
 16 12  1  0  0  0  0
 19  9  1  0  0  0  0
 20 19  1  0  0  0  0
 21 22  1  0  0  0  0
 21 13  1  0  0  0  0
 23 26  1  0  0  0  0
 23 24  1  0  0  0  0
 25 23  1  0  0  0  0
 26 28  1  0  0  0  0
 27 26  1  0  0  0  0
 28 29  1  0  0  0  0
 28 30  1  0  0  0  0
 28 31  1  0  0  0  0
 32 31  1  0  0  0  0
M  END
>  <minimizedAffinity>
-5.09641027

$$$$

 OpenBabel03252503443D

 32 33  0  0  1  0  0  0  0  0999 V2000
   38.5100   27.7730   42.4210 C   0  0  0  0  0  0  0  0  0  0  0  0
   37.3780   27.0950   41.9420 C   0  0  0  0  0  0  0  0  0  0  0  0
   36.5960   27.7450   40.9720 C   0  0  0  0  0  0  0  0  0  0  0  0
   36.9630   28.9700   40.5500 N   0  0  0  0  0  0  0  0  0  0  0  0
   38.0500   29.5950   41.0240 C   0  0  0  0  0  0  0  0  0  0  0  0
   38.8440   29.0130   41.9660 N   0  0  0  0  0  0  0  0  0  0  0  0
   39.2080   27.4090   43.1630 H   0  0  0  0  0  0  0  0  0  0  0  0
   35.7280   27.2100   40.6130 H   0  0  0  0  0  0  0  0  0  0  0  0
   37.0770   31.6250   39.9440 C   0  0  2  0  0  0  0  0  0  0  0  0
   38.3450   30.9160   40.4730 C   0  0  1  0  0  0  0  0  0  0  0  0
   38.7750   31.8420   41.3810 O   0  0  0  0  0  0  0  0  0  0  0  0
   38.6830   33.0710   40.7920 C   0  0  0  0  0  0  0  0  0  0  0  0
   37.7470   32.9720   39.6100 C   0  0  2  0  0  0  0  0  0  0  0  0
   36.6890   31.1370   39.0580 H   0  0  0  0  0  0  0  0  0  0  0  0
   39.0650   30.8100   39.6480 H   0  0  0  0  0  0  0  0  0  0  0  0
   38.1590   33.7430   41.5310 H   0  0  0  0  0  0  0  0  0  0  0  0
   39.6680   33.4990   40.5370 H   0  0  0  0  0  0  0  0  0  0  0  0
   38.3720   32.8830   38.7000 H   0  0  0  0  0  0  0  0  0  0  0  0
   36.2300   31.8530   40.9780 O   0  0  0  0  0  0  0  0  0  0  0  0
   35.3690   32.1980   40.6260 H   0  0  0  0  0  0  0  0  0  0  0  0
   36.8210   33.9960   39.5320 O   0  0  0  0  0  0  0  0  0  0  0  0
   37.2810   34.7610   39.1400 H   0  0  0  0  0  0  0  0  0  0  0  0
   37.1100   25.7670   42.4980 C   0  0  0  0  0  0  0  0  0  0  0  0
   37.9220   25.4660   43.2150 H   0  0  0  0  0  0  0  0  0  0  0  0
   36.1920   25.8050   43.1310 H   0  0  0  0  0  0  0  0  0  0  0  0
   37.0400   24.7580   41.4900 N   0  0  0  0  0  0  0  0  0  0  0  0
   36.2040   24.1720   41.4720 H   0  0  0  0  0  0  0  0  0  0  0  0
   38.5320   23.9480   41.2480 S   0  0  0  0  0  0  0  0  0  0  0  0
   39.3350   24.1080   42.5080 O   0  0  0  0  0  1  0  0  0  0  0  0
   39.2490   24.5000   40.0580 O   0  0  0  0  0  1  0  0  0  0  0  0
   38.3060   22.2970   40.9970 O   0  0  0  0  0  0  0  0  0  0  0  0
   37.4600   21.9590   41.3950 H   0  0  0  0  0  0  0  0  0  0  0  0
  1  7  1  0  0  0  0
  2  1  2  0  0  0  0
  2 23  1  0  0  0  0
  3  2  1  0  0  0  0
  4  3  2  0  0  0  0
  4  5  1  0  0  0  0
  5  6  2  0  0  0  0
  6  1  1  0  0  0  0
  8  3  1  0  0  0  0
  9 14  1  6  0  0  0
  9 10  1  0  0  0  0
  9 19  1  0  0  0  0
 10 15  1  6  0  0  0
 10  5  1  0  0  0  0
 10 11  1  0  0  0  0
 12 11  1  0  0  0  0
 12 16  1  0  0  0  0
 13 18  1  6  0  0  0
 13  9  1  0  0  0  0
 13 12  1  0  0  0  0
 17 12  1  0  0  0  0
 20 19  1  0  0  0  0
 21 13  1  0  0  0  0
 22 21  1  0  0  0  0
 23 25  1  0  0  0  0
 23 24  1  0  0  0  0
 26 23  1  0  0  0  0
 27 26  1  0  0  0  0
 28 26  1  0  0  0  0
 28 29  1  0  0  0  0
 30 28  1  0  0  0  0
 31 28  1  0  0  0  0
 31 32  1  0  0  0  0
M  END
>  <minimizedAffinity>
-5.06015205

$$$$

 OpenBabel03252503443D

 32 33  0  0  1  0  0  0  0  0999 V2000
   37.4900   29.0080   39.1300 C   0  0  0  0  0  0  0  0  0  0  0  0
   36.7290   29.7070   40.0790 C   0  0  0  0  0  0  0  0  0  0  0  0
   36.3970   29.0350   41.2670 C   0  0  0  0  0  0  0  0  0  0  0  0
   36.8180   27.7670   41.4400 N   0  0  0  0  0  0  0  0  0  0  0  0
   37.5440   27.1220   40.5180 C   0  0  0  0  0  0  0  0  0  0  0  0
   37.8950   27.7250   39.3460 N   0  0  0  0  0  0  0  0  0  0  0  0
   37.8240   29.3840   38.1730 H   0  0  0  0  0  0  0  0  0  0  0  0
   35.8100   29.5870   41.9890 H   0  0  0  0  0  0  0  0  0  0  0  0
   39.0970   25.7090   41.8690 C   0  0  2  0  0  0  0  0  0  0  0  0
   37.9500   25.7540   40.8340 C   0  0  1  0  0  0  0  0  0  0  0  0
   37.0120   25.0050   41.4860 O   0  0  0  0  0  0  0  0  0  0  0  0
   37.6420   23.9050   41.9940 C   0  0  0  0  0  0  0  0  0  0  0  0
   39.1270   24.1790   42.0430 C   0  0  2  0  0  0  0  0  0  0  0  0
   40.0240   26.0860   41.4520 H   0  0  0  0  0  0  0  0  0  0  0  0
   38.2820   25.2540   39.9120 H   0  0  0  0  0  0  0  0  0  0  0  0
   37.3200   23.8210   43.0730 H   0  0  0  0  0  0  0  0  0  0  0  0
   37.3840   22.9760   41.4580 H   0  0  0  0  0  0  0  0  0  0  0  0
   39.5820   23.6930   41.1560 H   0  0  0  0  0  0  0  0  0  0  0  0
   38.6590   26.2290   43.0420 O   0  0  0  0  0  0  0  0  0  0  0  0
   39.4240   26.3120   43.6700 H   0  0  0  0  0  0  0  0  0  0  0  0
   39.7340   23.8130   43.2300 O   0  0  0  0  0  0  0  0  0  0  0  0
   39.8840   22.8500   43.1830 H   0  0  0  0  0  0  0  0  0  0  0  0
   36.3460   31.0810   39.7460 C   0  0  0  0  0  0  0  0  0  0  0  0
   36.7940   31.3910   38.7630 H   0  0  0  0  0  0  0  0  0  0  0  0
   35.2450   31.1300   39.5690 H   0  0  0  0  0  0  0  0  0  0  0  0
   36.7860   32.0230   40.7270 N   0  0  0  0  0  0  0  0  0  0  0  0
   36.0880   32.3720   41.3860 H   0  0  0  0  0  0  0  0  0  0  0  0
   37.8760   33.1860   40.0970 S   0  0  0  0  0  0  0  0  0  0  0  0
   37.0660   34.1600   39.2860 O   0  0  0  0  0  1  0  0  0  0  0  0
   38.9380   32.5300   39.2760 O   0  0  0  0  0  1  0  0  0  0  0  0
   38.6320   34.0550   41.3260 O   0  0  0  0  0  0  0  0  0  0  0  0
   38.1010   34.0760   42.1670 H   0  0  0  0  0  0  0  0  0  0  0  0
  1  6  2  0  0  0  0
  1  2  1  0  0  0  0
  2  3  2  0  0  0  0
  3  4  1  0  0  0  0
  3  8  1  0  0  0  0
  5 10  1  0  0  0  0
  5  4  2  0  0  0  0
  6  5  1  0  0  0  0
  7  1  1  0  0  0  0
  9 14  1  6  0  0  0
  9 13  1  0  0  0  0
  9 19  1  0  0  0  0
 10 15  1  6  0  0  0
 10 11  1  0  0  0  0
 10  9  1  0  0  0  0
 11 12  1  0  0  0  0
 12 13  1  0  0  0  0
 12 16  1  0  0  0  0
 13 18  1  6  0  0  0
 13 21  1  0  0  0  0
 17 12  1  0  0  0  0
 19 20  1  0  0  0  0
 22 21  1  0  0  0  0
 23  2  1  0  0  0  0
 23 26  1  0  0  0  0
 24 23  1  0  0  0  0
 25 23  1  0  0  0  0
 26 27  1  0  0  0  0
 28 26  1  0  0  0  0
 28 31  1  0  0  0  0
 29 28  1  0  0  0  0
 30 28  1  0  0  0  0
 31 32  1  0  0  0  0
M  END
>  <minimizedAffinity>
-5.04272699

$$$$

 OpenBabel03252503443D

 32 33  0  0  1  0  0  0  0  0999 V2000
   40.1730   29.5540   40.8610 C   0  0  0  0  0  0  0  0  0  0  0  0
   39.1600   30.3060   41.4770 C   0  0  0  0  0  0  0  0  0  0  0  0
   39.2450   31.7050   41.3890 C   0  0  0  0  0  0  0  0  0  0  0  0
   40.2790   32.2560   40.7240 N   0  0  0  0  0  0  0  0  0  0  0  0
   41.2330   31.5150   40.1430 C   0  0  0  0  0  0  0  0  0  0  0  0
   41.2020   30.1530   40.1990 N   0  0  0  0  0  0  0  0  0  0  0  0
   40.2480   28.4760   40.8410 H   0  0  0  0  0  0  0  0  0  0  0  0
   38.4580   32.2700   41.8690 H   0  0  0  0  0  0  0  0  0  0  0  0
   41.9370   32.5030   37.9620 C   0  0  2  0  0  0  0  0  0  0  0  0
   42.2940   32.2360   39.4420 C   0  0  1  0  0  0  0  0  0  0  0  0
   42.5100   33.5150   39.8700 O   0  0  0  0  0  0  0  0  0  0  0  0
   43.2680   34.1440   38.9240 C   0  0  0  0  0  0  0  0  0  0  0  0
   43.1680   33.3680   37.6310 C   0  0  2  0  0  0  0  0  0  0  0  0
   41.9230   31.5860   37.3840 H   0  0  0  0  0  0  0  0  0  0  0  0
   43.2210   31.6440   39.4840 H   0  0  0  0  0  0  0  0  0  0  0  0
   42.7660   35.1330   38.7160 H   0  0  0  0  0  0  0  0  0  0  0  0
   44.3070   34.3180   39.2520 H   0  0  0  0  0  0  0  0  0  0  0  0
   44.0780   32.7410   37.5510 H   0  0  0  0  0  0  0  0  0  0  0  0
   40.8560   33.3190   37.9040 O   0  0  0  0  0  0  0  0  0  0  0  0
   40.5540   33.3960   36.9620 H   0  0  0  0  0  0  0  0  0  0  0  0
   42.9540   34.1530   36.5130 O   0  0  0  0  0  0  0  0  0  0  0  0
   43.8200   34.5220   36.2580 H   0  0  0  0  0  0  0  0  0  0  0  0
   38.1010   29.5620   42.1630 C   0  0  0  0  0  0  0  0  0  0  0  0
   38.5380   28.8490   42.9140 H   0  0  0  0  0  0  0  0  0  0  0  0
   37.4890   30.2630   42.7800 H   0  0  0  0  0  0  0  0  0  0  0  0
   37.3060   28.7890   41.2610 N   0  0  0  0  0  0  0  0  0  0  0  0
   37.7920   28.1090   40.6740 H   0  0  0  0  0  0  0  0  0  0  0  0
   36.0810   29.7090   40.4920 S   0  0  0  0  0  0  0  0  0  0  0  0
   34.8400   28.8600   40.4630 O   0  0  0  0  0  1  0  0  0  0  0  0
   36.5060   30.1160   39.1180 O   0  0  0  0  0  1  0  0  0  0  0  0
   35.7190   31.1070   41.3590 O   0  0  0  0  0  0  0  0  0  0  0  0
   35.9370   31.0280   42.3260 H   0  0  0  0  0  0  0  0  0  0  0  0
  1  2  1  0  0  0  0
  2 23  1  0  0  0  0
  3  2  2  0  0  0  0
  3  8  1  0  0  0  0
  4  3  1  0  0  0  0
  5  6  1  0  0  0  0
  5  4  2  0  0  0  0
  6  1  2  0  0  0  0
  7  1  1  0  0  0  0
  9 14  1  6  0  0  0
  9 10  1  0  0  0  0
 10 15  1  1  0  0  0
 10 11  1  0  0  0  0
 10  5  1  0  0  0  0
 12 17  1  0  0  0  0
 12 11  1  0  0  0  0
 13 18  1  6  0  0  0
 13  9  1  0  0  0  0
 13 12  1  0  0  0  0
 16 12  1  0  0  0  0
 19  9  1  0  0  0  0
 20 19  1  0  0  0  0
 21 13  1  0  0  0  0
 22 21  1  0  0  0  0
 23 25  1  0  0  0  0
 23 24  1  0  0  0  0
 26 23  1  0  0  0  0
 27 26  1  0  0  0  0
 28 26  1  0  0  0  0
 28 31  1  0  0  0  0
 29 28  1  0  0  0  0
 30 28  1  0  0  0  0
 31 32  1  0  0  0  0
M  END
>  <minimizedAffinity>
-4.86663198

$$$$

 OpenBabel03252503443D

 32 33  0  0  1  0  0  0  0  0999 V2000
   34.5420   29.1290   39.1180 C   0  0  0  0  0  0  0  0  0  0  0  0
   34.5260   28.9910   37.7210 C   0  0  0  0  0  0  0  0  0  0  0  0
   35.6390   29.4700   37.0100 C   0  0  0  0  0  0  0  0  0  0  0  0
   36.6570   30.0320   37.6890 N   0  0  0  0  0  0  0  0  0  0  0  0
   36.6470   30.1510   39.0240 C   0  0  0  0  0  0  0  0  0  0  0  0
   35.5930   29.7050   39.7650 N   0  0  0  0  0  0  0  0  0  0  0  0
   33.7660   28.8130   39.8020 H   0  0  0  0  0  0  0  0  0  0  0  0
   35.6120   29.3570   35.9340 H   0  0  0  0  0  0  0  0  0  0  0  0
   37.6390   32.2880   39.8500 C   0  0  2  0  0  0  0  0  0  0  0  0
   37.8200   30.7670   39.6410 C   0  0  1  0  0  0  0  0  0  0  0  0
   38.0730   30.3790   40.9260 O   0  0  0  0  0  0  0  0  0  0  0  0
   38.9650   31.2660   41.4570 C   0  0  0  0  0  0  0  0  0  0  0  0
   38.9520   32.5240   40.6210 C   0  0  2  0  0  0  0  0  0  0  0  0
   37.6250   32.8200   38.9050 H   0  0  0  0  0  0  0  0  0  0  0  0
   38.6970   30.5970   38.9990 H   0  0  0  0  0  0  0  0  0  0  0  0
   38.5540   31.5730   42.4620 H   0  0  0  0  0  0  0  0  0  0  0  0
   39.9730   30.8350   41.5870 H   0  0  0  0  0  0  0  0  0  0  0  0
   39.8220   32.4750   39.9370 H   0  0  0  0  0  0  0  0  0  0  0  0
   36.6260   32.5000   40.7250 O   0  0  0  0  0  0  0  0  0  0  0  0
   36.4290   33.4720   40.7700 H   0  0  0  0  0  0  0  0  0  0  0  0
   38.9080   33.6940   41.3560 O   0  0  0  0  0  0  0  0  0  0  0  0
   39.8180   33.8700   41.6580 H   0  0  0  0  0  0  0  0  0  0  0  0
   33.3470   28.3590   37.1270 C   0  0  0  0  0  0  0  0  0  0  0  0
   33.6470   27.4990   36.4680 H   0  0  0  0  0  0  0  0  0  0  0  0
   32.7320   27.8830   37.9290 H   0  0  0  0  0  0  0  0  0  0  0  0
   32.5900   29.2640   36.3210 N   0  0  0  0  0  0  0  0  0  0  0  0
   33.1060   29.9930   35.8260 H   0  0  0  0  0  0  0  0  0  0  0  0
   31.1210   29.7510   37.0580 S   0  0  0  0  0  0  0  0  0  0  0  0
   30.0620   28.7770   36.6230 O   0  0  0  0  0  1  0  0  0  0  0  0
   30.7760   31.1550   36.6780 O   0  0  0  0  0  1  0  0  0  0  0  0
   31.2190   29.6770   38.7390 O   0  0  0  0  0  0  0  0  0  0  0  0
   31.9010   29.0290   39.0580 H   0  0  0  0  0  0  0  0  0  0  0  0
  1  6  1  0  0  0  0
  1  7  1  0  0  0  0
  2  1  2  0  0  0  0
  3  4  2  0  0  0  0
  3  2  1  0  0  0  0
  4  5  1  0  0  0  0
  5 10  1  0  0  0  0
  5  6  2  0  0  0  0
  8  3  1  0  0  0  0
  9 14  1  6  0  0  0
  9 13  1  0  0  0  0
  9 19  1  0  0  0  0
 10 15  1  6  0  0  0
 10  9  1  0  0  0  0
 10 11  1  0  0  0  0
 11 12  1  0  0  0  0
 12 17  1  0  0  0  0
 12 16  1  0  0  0  0
 13 18  1  6  0  0  0
 13 21  1  0  0  0  0
 13 12  1  0  0  0  0
 19 20  1  0  0  0  0
 21 22  1  0  0  0  0
 23  2  1  0  0  0  0
 23 25  1  0  0  0  0
 24 23  1  0  0  0  0
 26 28  1  0  0  0  0
 26 23  1  0  0  0  0
 27 26  1  0  0  0  0
 28 31  1  0  0  0  0
 29 28  1  0  0  0  0
 30 28  1  0  0  0  0
 31 32  1  0  0  0  0
M  END
>  <minimizedAffinity>
-4.73236465

$$$$

 OpenBabel03252503443D

 32 33  0  0  1  0  0  0  0  0999 V2000
   41.1020   32.5510   37.4630 C   0  0  0  0  0  0  0  0  0  0  0  0
   41.7180   33.2900   38.4850 C   0  0  0  0  0  0  0  0  0  0  0  0
   41.1840   33.1770   39.7800 C   0  0  0  0  0  0  0  0  0  0  0  0
   40.1210   32.3740   39.9800 N   0  0  0  0  0  0  0  0  0  0  0  0
   39.5520   31.6780   38.9860 C   0  0  0  0  0  0  0  0  0  0  0  0
   40.0280   31.7510   37.7110 N   0  0  0  0  0  0  0  0  0  0  0  0
   41.3930   32.5320   36.4220 H   0  0  0  0  0  0  0  0  0  0  0  0
   41.6700   33.7530   40.5560 H   0  0  0  0  0  0  0  0  0  0  0  0
   37.7100   31.3110   40.6310 C   0  0  2  0  0  0  0  0  0  0  0  0
   38.4130   30.8330   39.3400 C   0  0  1  0  0  0  0  0  0  0  0  0
   37.3640   30.8770   38.4660 O   0  0  0  0  0  0  0  0  0  0  0  0
   36.2840   30.3190   39.0900 C   0  0  0  0  0  0  0  0  0  0  0  0
   36.5370   30.3130   40.5800 C   0  0  2  0  0  0  0  0  0  0  0  0
   38.3340   31.1560   41.5040 H   0  0  0  0  0  0  0  0  0  0  0  0
   38.7620   29.8000   39.4850 H   0  0  0  0  0  0  0  0  0  0  0  0
   35.4220   31.0320   38.9390 H   0  0  0  0  0  0  0  0  0  0  0  0
   36.0190   29.3280   38.6860 H   0  0  0  0  0  0  0  0  0  0  0  0
   36.8780   29.2940   40.8520 H   0  0  0  0  0  0  0  0  0  0  0  0
   37.1860   32.5440   40.4230 O   0  0  0  0  0  0  0  0  0  0  0  0
   36.8390   32.9020   41.2810 H   0  0  0  0  0  0  0  0  0  0  0  0
   35.4660   30.7450   41.3400 O   0  0  0  0  0  0  0  0  0  0  0  0
   34.8510   29.9930   41.4120 H   0  0  0  0  0  0  0  0  0  0  0  0
   42.8660   34.1190   38.1100 C   0  0  0  0  0  0  0  0  0  0  0  0
   42.5570   35.1920   37.9860 H   0  0  0  0  0  0  0  0  0  0  0  0
   43.6000   34.1440   38.9510 H   0  0  0  0  0  0  0  0  0  0  0  0
   43.4580   33.7050   36.8780 N   0  0  0  0  0  0  0  0  0  0  0  0
   42.8270   33.3930   36.1370 H   0  0  0  0  0  0  0  0  0  0  0  0
   44.8800   32.7720   37.0970 S   0  0  0  0  0  0  0  0  0  0  0  0
   45.4070   33.0830   38.4700 O   0  0  0  0  0  1  0  0  0  0  0  0
   45.8850   33.0790   36.0340 O   0  0  0  0  0  1  0  0  0  0  0  0
   44.5520   31.1210   37.0420 O   0  0  0  0  0  0  0  0  0  0  0  0
   43.6110   30.9060   37.2830 H   0  0  0  0  0  0  0  0  0  0  0  0
  1  6  2  0  0  0  0
  1  2  1  0  0  0  0
  2  3  2  0  0  0  0
  3  4  1  0  0  0  0
  3  8  1  0  0  0  0
  5 10  1  0  0  0  0
  5  4  2  0  0  0  0
  6  5  1  0  0  0  0
  7  1  1  0  0  0  0
  9 14  1  1  0  0  0
 10 15  1  1  0  0  0
 10  9  1  0  0  0  0
 11 12  1  0  0  0  0
 11 10  1  0  0  0  0
 12 13  1  0  0  0  0
 13  9  1  0  0  0  0
 13 18  1  1  0  0  0
 13 21  1  0  0  0  0
 16 12  1  0  0  0  0
 17 12  1  0  0  0  0
 19  9  1  0  0  0  0
 19 20  1  0  0  0  0
 21 22  1  0  0  0  0
 23  2  1  0  0  0  0
 23 25  1  0  0  0  0
 24 23  1  0  0  0  0
 26 28  1  0  0  0  0
 26 23  1  0  0  0  0
 27 26  1  0  0  0  0
 28 29  1  0  0  0  0
 30 28  1  0  0  0  0
 31 28  1  0  0  0  0
 31 32  1  0  0  0  0
M  END
>  <minimizedAffinity>
-4.63935518

$$$$

 OpenBabel03252503443D

 32 33  0  0  1  0  0  0  0  0999 V2000
   38.9390   31.1180   40.7510 C   0  0  0  0  0  0  0  0  0  0  0  0
   37.6280   30.9660   40.2750 C   0  0  0  0  0  0  0  0  0  0  0  0
   37.3970   31.2300   38.9140 C   0  0  0  0  0  0  0  0  0  0  0  0
   38.4300   31.6110   38.1380 N   0  0  0  0  0  0  0  0  0  0  0  0
   39.6730   31.7480   38.6190 C   0  0  0  0  0  0  0  0  0  0  0  0
   39.9540   31.5070   39.9300 N   0  0  0  0  0  0  0  0  0  0  0  0
   39.2750   30.9540   41.7660 H   0  0  0  0  0  0  0  0  0  0  0  0
   36.3820   31.1070   38.5620 H   0  0  0  0  0  0  0  0  0  0  0  0
   41.4810   33.4040   38.1480 C   0  0  2  0  0  0  0  0  0  0  0  0
   40.7070   32.1550   37.6690 C   0  0  1  0  0  0  0  0  0  0  0  0
   41.7420   31.2750   37.5230 O   0  0  0  0  0  0  0  0  0  0  0  0
   42.7550   31.9310   36.8840 C   0  0  0  0  0  0  0  0  0  0  0  0
   42.5240   33.4190   37.0140 C   0  0  2  0  0  0  0  0  0  0  0  0
   40.8570   34.2900   38.1320 H   0  0  0  0  0  0  0  0  0  0  0  0
   40.2390   32.3760   36.6980 H   0  0  0  0  0  0  0  0  0  0  0  0
   43.6940   31.7240   37.4740 H   0  0  0  0  0  0  0  0  0  0  0  0
   42.8920   31.5970   35.8410 H   0  0  0  0  0  0  0  0  0  0  0  0
   42.0670   33.7660   36.0660 H   0  0  0  0  0  0  0  0  0  0  0  0
   42.1480   33.1050   39.2900 O   0  0  0  0  0  0  0  0  0  0  0  0
   42.5480   33.9330   39.6630 H   0  0  0  0  0  0  0  0  0  0  0  0
   43.6500   34.1390   37.3660 O   0  0  0  0  0  0  0  0  0  0  0  0
   44.1710   34.2620   36.5510 H   0  0  0  0  0  0  0  0  0  0  0  0
   36.6120   30.5440   41.2420 C   0  0  0  0  0  0  0  0  0  0  0  0
   35.9410   31.4040   41.5130 H   0  0  0  0  0  0  0  0  0  0  0  0
   35.9240   29.8050   40.7640 H   0  0  0  0  0  0  0  0  0  0  0  0
   37.1840   30.0560   42.4560 N   0  0  0  0  0  0  0  0  0  0  0  0
   37.9960   30.5530   42.8240 H   0  0  0  0  0  0  0  0  0  0  0  0
   37.2570   28.3440   42.5220 S   0  0  0  0  0  0  0  0  0  0  0  0
   38.4920   27.9820   43.2980 O   0  0  0  0  0  1  0  0  0  0  0  0
   37.2750   27.7600   41.1450 O   0  0  0  0  0  1  0  0  0  0  0  0
   35.9340   27.6990   43.3420 O   0  0  0  0  0  0  0  0  0  0  0  0
   35.5300   28.3400   43.9860 H   0  0  0  0  0  0  0  0  0  0  0  0
  1  7  1  0  0  0  0
  2  1  1  0  0  0  0
  2 23  1  0  0  0  0
  3  2  2  0  0  0  0
  4  5  2  0  0  0  0
  4  3  1  0  0  0  0
  5  6  1  0  0  0  0
  6  1  2  0  0  0  0
  8  3  1  0  0  0  0
  9 14  1  1  0  0  0
  9 19  1  0  0  0  0
 10 15  1  6  0  0  0
 10  9  1  0  0  0  0
 10  5  1  0  0  0  0
 11 10  1  0  0  0  0
 12 13  1  0  0  0  0
 12 16  1  0  0  0  0
 12 11  1  0  0  0  0
 13 18  1  6  0  0  0
 13 21  1  0  0  0  0
 13  9  1  0  0  0  0
 17 12  1  0  0  0  0
 19 20  1  0  0  0  0
 22 21  1  0  0  0  0
 23 24  1  0  0  0  0
 23 26  1  0  0  0  0
 25 23  1  0  0  0  0
 26 28  1  0  0  0  0
 26 27  1  0  0  0  0
 28 29  1  0  0  0  0
 28 31  1  0  0  0  0
 30 28  1  0  0  0  0
 31 32  1  0  0  0  0
M  END
>  <minimizedAffinity>
-4.54156208

$$$$

 OpenBabel03252503443D

 32 33  0  0  1  0  0  0  0  0999 V2000
   37.5150   29.9710   38.7250 C   0  0  0  0  0  0  0  0  0  0  0  0
   37.1130   31.0800   39.4850 C   0  0  0  0  0  0  0  0  0  0  0  0
   36.5300   30.8310   40.7380 C   0  0  0  0  0  0  0  0  0  0  0  0
   36.3850   29.5570   41.1490 N   0  0  0  0  0  0  0  0  0  0  0  0
   36.7770   28.5150   40.4040 C   0  0  0  0  0  0  0  0  0  0  0  0
   37.3480   28.6980   39.1790 N   0  0  0  0  0  0  0  0  0  0  0  0
   37.9760   29.9970   37.7470 H   0  0  0  0  0  0  0  0  0  0  0  0
   36.2260   31.6960   41.3120 H   0  0  0  0  0  0  0  0  0  0  0  0
   37.4720   26.1190   40.2960 C   0  0  2  0  0  0  0  0  0  0  0  0
   36.5760   27.1830   40.9710 C   0  0  1  0  0  0  0  0  0  0  0  0
   36.9710   27.0380   42.2700 O   0  0  0  0  0  0  0  0  0  0  0  0
   37.0320   25.7000   42.5370 C   0  0  0  0  0  0  0  0  0  0  0  0
   37.0990   24.9490   41.2270 C   0  0  2  0  0  0  0  0  0  0  0  0
   37.1660   25.9330   39.2730 H   0  0  0  0  0  0  0  0  0  0  0  0
   35.5220   26.8930   40.8450 H   0  0  0  0  0  0  0  0  0  0  0  0
   38.0270   25.5170   43.0360 H   0  0  0  0  0  0  0  0  0  0  0  0
   36.2180   25.3560   43.1980 H   0  0  0  0  0  0  0  0  0  0  0  0
   36.0770   24.5820   41.0040 H   0  0  0  0  0  0  0  0  0  0  0  0
   38.7730   26.4140   40.5380 O   0  0  0  0  0  0  0  0  0  0  0  0
   39.3510   25.8040   40.0100 H   0  0  0  0  0  0  0  0  0  0  0  0
   38.0520   23.9480   41.1950 O   0  0  0  0  0  0  0  0  0  0  0  0
   37.6650   23.1770   41.6490 H   0  0  0  0  0  0  0  0  0  0  0  0
   37.3380   32.4050   38.9020 C   0  0  0  0  0  0  0  0  0  0  0  0
   36.8250   32.4930   37.9060 H   0  0  0  0  0  0  0  0  0  0  0  0
   36.8400   33.1810   39.5320 H   0  0  0  0  0  0  0  0  0  0  0  0
   38.7240   32.6790   38.6880 N   0  0  0  0  0  0  0  0  0  0  0  0
   39.2480   32.0180   38.1120 H   0  0  0  0  0  0  0  0  0  0  0  0
   39.5200   33.2460   40.0970 S   0  0  0  0  0  0  0  0  0  0  0  0
   40.6250   34.1600   39.6450 O   0  0  0  0  0  1  0  0  0  0  0  0
   40.0400   32.1040   40.9090 O   0  0  0  0  0  1  0  0  0  0  0  0
   38.4830   34.1470   41.0730 O   0  0  0  0  0  0  0  0  0  0  0  0
   37.7310   34.5530   40.5650 H   0  0  0  0  0  0  0  0  0  0  0  0
  1  6  2  0  0  0  0
  1  2  1  0  0  0  0
  2  3  2  0  0  0  0
  3  4  1  0  0  0  0
  3  8  1  0  0  0  0
  5 10  1  0  0  0  0
  5  4  2  0  0  0  0
  6  5  1  0  0  0  0
  7  1  1  0  0  0  0
  9 14  1  6  0  0  0
  9 19  1  0  0  0  0
  9 10  1  0  0  0  0
  9 13  1  0  0  0  0
 10 15  1  6  0  0  0
 10 11  1  0  0  0  0
 11 12  1  0  0  0  0
 12 16  1  0  0  0  0
 12 17  1  0  0  0  0
 13 18  1  6  0  0  0
 13 12  1  0  0  0  0
 20 19  1  0  0  0  0
 21 13  1  0  0  0  0
 21 22  1  0  0  0  0
 23  2  1  0  0  0  0
 23 25  1  0  0  0  0
 24 23  1  0  0  0  0
 26 23  1  0  0  0  0
 26 28  1  0  0  0  0
 27 26  1  0  0  0  0
 28 30  1  0  0  0  0
 28 31  1  0  0  0  0
 29 28  1  0  0  0  0
 32 31  1  0  0  0  0
M  END
>  <minimizedAffinity>
-4.44185972

$$$$
