
 OpenBabel03252509353D

 42 43  0  0  1  0  0  0  0  0999 V2000
   44.5420   35.4810   44.1600 O   0  0  0  0  0  0  0  0  0  0  0  0
   45.3950   34.2460   44.3790 P   0  0  1  0  0  0  0  0  0  0  0  0
   44.6890   32.8900   43.6500 O   0  0  0  0  0  0  0  0  0  0  0  0
   44.2360   33.2210   42.8270 H   0  0  0  0  0  0  0  0  0  0  0  0
   46.8990   34.5320   43.7130 O   0  0  0  0  0  0  0  0  0  0  0  0
   47.0230   33.8300   42.5070 C   0  0  1  0  0  0  0  0  0  0  0  0
   46.4440   34.6640   41.3600 C   0  0  0  0  0  0  0  0  0  0  0  0
   46.9420   33.8860   40.1720 C   0  0  0  0  0  0  0  0  0  0  0  0
   48.2260   33.2120   40.6200 C   0  0  0  0  0  0  0  0  0  0  0  0
   48.4390   33.6790   42.0470 C   0  0  1  0  0  0  0  0  0  0  0  0
   46.4950   32.8780   42.4940 H   0  0  0  0  0  0  0  0  0  0  0  0
   46.7200   35.7120   41.3930 H   0  0  0  0  0  0  0  0  0  0  0  0
   45.3450   34.5890   41.3660 H   0  0  0  0  0  0  0  0  0  0  0  0
   46.1920   33.1080   39.8830 H   0  0  0  0  0  0  0  0  0  0  0  0
   47.0740   34.5500   39.3110 H   0  0  0  0  0  0  0  0  0  0  0  0
   48.1140   32.0950   40.6210 H   0  0  0  0  0  0  0  0  0  0  0  0
   49.0730   33.4720   39.9670 H   0  0  0  0  0  0  0  0  0  0  0  0
   48.9440   32.8600   42.6180 H   0  0  0  0  0  0  0  0  0  0  0  0
   49.2140   34.9690   42.0990 C   0  0  0  0  0  0  0  0  0  0  0  0
   49.8490   35.0460   41.1760 H   0  0  0  0  0  0  0  0  0  0  0  0
   48.5790   35.8800   42.0890 H   0  0  0  0  0  0  0  0  0  0  0  0
   50.0010   35.0640   43.2250 O   0  0  0  0  0  0  0  0  0  0  0  0
   50.9350   34.8220   42.9570 H   0  0  0  0  0  0  0  0  0  0  0  0
   45.5220   33.8950   46.0050 O   0  0  0  0  0  0  0  0  0  0  0  0
   46.4100   32.8820   46.1750 C   0  0  0  0  0  0  0  0  0  0  0  0
   46.6960   32.2920   45.3090 H   0  0  0  0  0  0  0  0  0  0  0  0
   47.3730   33.3450   46.5450 H   0  0  0  0  0  0  0  0  0  0  0  0
   45.2850   31.5500   49.4610 C   0  0  0  0  0  0  0  0  0  0  0  0
   45.6590   32.4730   48.4790 C   0  0  0  0  0  0  0  0  0  0  0  0
   46.0070   31.9420   47.2340 C   0  0  0  0  0  0  0  0  0  0  0  0
   45.9650   30.5860   47.0460 N   0  0  0  0  0  0  0  0  0  0  0  0
   45.5990   29.7280   48.0210 C   0  0  0  0  0  0  0  0  0  0  0  0
   45.2640   30.2110   49.2110 N   0  0  0  0  0  0  0  0  0  0  0  0
   45.0110   31.9510   50.4350 H   0  0  0  0  0  0  0  0  0  0  0  0
   45.6630   33.5160   48.7130 H   0  0  0  0  0  0  0  0  0  0  0  0
   45.5790   28.3300   47.7530 N   0  0  0  0  0  0  0  0  0  0  0  0
   44.6920   27.7870   47.8430 H   0  0  0  0  0  0  0  0  0  0  0  0
   47.0080   27.4860   47.2700 S   0  0  0  0  0  0  0  0  0  0  0  0
   48.2260   28.2130   47.7640 O   0  0  0  0  0  1  0  0  0  0  0  0
   46.9290   26.1020   47.8460 O   0  0  0  0  0  1  0  0  0  0  0  0
   47.0330   27.4320   45.5810 O   0  0  0  0  0  0  0  0  0  0  0  0
   46.6930   28.2910   45.2040 H   0  0  0  0  0  0  0  0  0  0  0  0
  2  1  2  6  0  0  0
  2 24  1  0  0  0  0
  3  2  1  0  0  0  0
  4  3  1  0  0  0  0
  5  2  1  0  0  0  0
  6 11  1  1  0  0  0
  6  5  1  0  0  0  0
  7 13  1  0  0  0  0
  7 12  1  0  0  0  0
  7  6  1  0  0  0  0
  8  9  1  0  0  0  0
  8  7  1  0  0  0  0
  9 16  1  0  0  0  0
  9 10  1  0  0  0  0
 10 19  1  0  0  0  0
 10  6  1  0  0  0  0
 10 18  1  1  0  0  0
 14  8  1  0  0  0  0
 15  8  1  0  0  0  0
 17  9  1  0  0  0  0
 19 22  1  0  0  0  0
 20 19  1  0  0  0  0
 21 19  1  0  0  0  0
 23 22  1  0  0  0  0
 24 25  1  0  0  0  0
 25 27  1  0  0  0  0
 25 30  1  0  0  0  0
 26 25  1  0  0  0  0
 28 34  1  0  0  0  0
 29 35  1  0  0  0  0
 29 28  2  0  0  0  0
 30 29  1  0  0  0  0
 31 30  2  0  0  0  0
 31 32  1  0  0  0  0
 32 33  2  0  0  0  0
 33 28  1  0  0  0  0
 36 37  1  0  0  0  0
 36 32  1  0  0  0  0
 38 36  1  0  0  0  0
 38 39  1  0  0  0  0
 38 40  1  0  0  0  0
 41 38  1  0  0  0  0
 42 41  1  0  0  0  0
M  END
>  <minimizedAffinity>
-5.69819355

>  <minimizedRMSD>
0.959440589

$$$$
