
 OpenBabel03242513483D

 30 32  0  0  1  0  0  0  0  0999 V2000
   38.2740   25.3530   41.2690 C   0  0  1  0  0  0  0  0  0  0  0  0
   37.1720   24.9370   42.2520 C   0  0  0  0  0  0  0  0  0  0  0  0
   36.9370   25.9730   41.2660 C   0  0  1  0  0  0  0  0  0  0  0  0
   38.4920   24.7460   40.3730 H   0  0  0  0  0  0  0  0  0  0  0  0
   37.3330   25.1140   43.3220 H   0  0  0  0  0  0  0  0  0  0  0  0
   36.7340   23.9290   42.0300 H   0  0  0  0  0  0  0  0  0  0  0  0
   36.3340   25.8160   40.3560 H   0  0  0  0  0  0  0  0  0  0  0  0
   39.4600   26.0020   41.8900 C   0  0  0  0  0  0  0  0  0  0  0  0
   40.1620   26.9560   41.1290 C   0  0  0  0  0  0  0  0  0  0  0  0
   41.2770   27.5530   41.7100 C   0  0  0  0  0  0  0  0  0  0  0  0
   41.6250   27.1770   42.9860 N   0  0  0  0  0  0  0  0  0  0  0  0
   40.9070   26.2460   43.6780 C   0  0  0  0  0  0  0  0  0  0  0  0
   39.8300   25.6600   43.1340 N   0  0  0  0  0  0  0  0  0  0  0  0
   39.8700   27.2350   40.1280 H   0  0  0  0  0  0  0  0  0  0  0  0
   41.8780   28.2970   41.2030 H   0  0  0  0  0  0  0  0  0  0  0  0
   41.2060   25.9690   44.6800 H   0  0  0  0  0  0  0  0  0  0  0  0
   36.8450   27.3830   41.7630 C   0  0  0  0  0  0  0  0  0  0  0  0
   37.0870   27.9350   43.0110 C   0  0  0  0  0  0  0  0  0  0  0  0
   36.8890   29.2590   42.9520 N   0  0  0  0  0  0  0  0  0  0  0  0
   36.5320   29.5330   41.7070 C   0  0  0  0  0  0  0  0  0  0  0  0
   36.4920   28.4220   40.9460 N   0  0  0  0  0  0  0  0  0  0  0  0
   37.3790   27.2850   43.8000 H   0  0  0  0  0  0  0  0  0  0  0  0
   37.0140   29.8760   43.7820 H   0  0  0  0  0  0  0  0  0  0  0  0
   36.2180   30.8070   41.1680 N   0  0  0  0  0  0  0  0  0  0  0  0
   35.3320   31.3270   41.3410 H   0  0  0  0  0  0  0  0  0  0  0  0
   37.2090   31.7570   40.1300 S   0  0  0  0  0  0  0  0  0  0  0  0
   36.9410   31.3940   38.6750 O   0  0  0  0  0  1  0  0  0  0  0  0
   38.6540   31.4760   40.3700 O   0  0  0  0  0  1  0  0  0  0  0  0
   36.8200   33.3870   40.2530 O   0  0  0  0  0  0  0  0  0  0  0  0
   37.4430   33.8510   40.8660 H   0  0  0  0  0  0  0  0  0  0  0  0
  1  4  1  6  0  0  0
  1  8  1  0  0  0  0
  1  2  1  0  0  0  0
  2  5  1  0  0  0  0
  3  7  1  6  0  0  0
  3  1  1  0  0  0  0
  3 17  1  0  0  0  0
  3  2  1  0  0  0  0
  6  2  1  0  0  0  0
  8 13  1  0  0  0  0
  9 10  1  0  0  0  0
  9  8  2  0  0  0  0
 10 11  2  0  0  0  0
 11 12  1  0  0  0  0
 12 16  1  0  0  0  0
 13 12  2  0  0  0  0
 14  9  1  0  0  0  0
 15 10  1  0  0  0  0
 17 18  2  0  0  0  0
 18 22  1  0  0  0  0
 19 18  1  0  0  0  0
 19 23  1  0  0  0  0
 20 19  1  0  0  0  0
 21 20  2  0  0  0  0
 21 17  1  0  0  0  0
 24 25  1  0  0  0  0
 24 20  1  0  0  0  0
 26 29  1  0  0  0  0
 26 28  1  0  0  0  0
 26 24  1  0  0  0  0
 27 26  1  0  0  0  0
 29 30  1  0  0  0  0
M  END
>  <minimizedAffinity>
-5.40455675

$$$$

 OpenBabel03242513483D

 30 32  0  0  1  0  0  0  0  0999 V2000
   36.2970   28.2700   39.6990 C   0  0  1  0  0  0  0  0  0  0  0  0
   34.9260   28.9170   39.9410 C   0  0  0  0  0  0  0  0  0  0  0  0
   35.8900   29.5280   39.0470 C   0  0  1  0  0  0  0  0  0  0  0  0
   36.4060   27.4170   39.0060 H   0  0  0  0  0  0  0  0  0  0  0  0
   34.6890   29.2760   40.9490 H   0  0  0  0  0  0  0  0  0  0  0  0
   34.0810   28.3620   39.4560 H   0  0  0  0  0  0  0  0  0  0  0  0
   35.8010   29.4950   37.9490 H   0  0  0  0  0  0  0  0  0  0  0  0
   37.1940   28.2330   40.8860 C   0  0  0  0  0  0  0  0  0  0  0  0
   36.6020   28.0670   42.1520 C   0  0  0  0  0  0  0  0  0  0  0  0
   37.4430   28.0440   43.2610 C   0  0  0  0  0  0  0  0  0  0  0  0
   38.7950   28.1820   43.0540 N   0  0  0  0  0  0  0  0  0  0  0  0
   39.3140   28.3390   41.8020 C   0  0  0  0  0  0  0  0  0  0  0  0
   38.5190   28.3650   40.7220 N   0  0  0  0  0  0  0  0  0  0  0  0
   35.5360   27.9610   42.2900 H   0  0  0  0  0  0  0  0  0  0  0  0
   37.0790   27.9210   44.2730 H   0  0  0  0  0  0  0  0  0  0  0  0
   40.3820   28.4470   41.6710 H   0  0  0  0  0  0  0  0  0  0  0  0
   36.5610   30.7810   39.5180 C   0  0  0  0  0  0  0  0  0  0  0  0
   36.4650   31.4830   40.7090 C   0  0  0  0  0  0  0  0  0  0  0  0
   37.2900   32.5390   40.6650 N   0  0  0  0  0  0  0  0  0  0  0  0
   37.8870   32.5030   39.4850 C   0  0  0  0  0  0  0  0  0  0  0  0
   37.4760   31.4500   38.7510 N   0  0  0  0  0  0  0  0  0  0  0  0
   35.7970   31.1210   41.4530 H   0  0  0  0  0  0  0  0  0  0  0  0
   37.3770   33.2080   41.4600 H   0  0  0  0  0  0  0  0  0  0  0  0
   38.8470   33.4200   38.9840 N   0  0  0  0  0  0  0  0  0  0  0  0
   38.6350   34.3810   38.6430 H   0  0  0  0  0  0  0  0  0  0  0  0
   40.5410   33.1540   38.8330 S   0  0  0  0  0  0  0  0  0  0  0  0
   40.9100   31.7930   39.4110 O   0  0  0  0  0  1  0  0  0  0  0  0
   41.3100   34.1610   39.6190 O   0  0  0  0  0  1  0  0  0  0  0  0
   40.9970   33.0810   37.2180 O   0  0  0  0  0  0  0  0  0  0  0  0
   41.3560   33.9520   36.9150 H   0  0  0  0  0  0  0  0  0  0  0  0
  1  4  1  6  0  0  0
  1  2  1  0  0  0  0
  1  8  1  0  0  0  0
  2  5  1  0  0  0  0
  3  7  1  6  0  0  0
  3 17  1  0  0  0  0
  3  1  1  0  0  0  0
  3  2  1  0  0  0  0
  6  2  1  0  0  0  0
  8  9  1  0  0  0  0
  9 14  1  0  0  0  0
  9 10  2  0  0  0  0
 10 15  1  0  0  0  0
 11 10  1  0  0  0  0
 12 11  2  0  0  0  0
 13  8  2  0  0  0  0
 13 12  1  0  0  0  0
 16 12  1  0  0  0  0
 17 18  2  0  0  0  0
 18 22  1  0  0  0  0
 19 18  1  0  0  0  0
 19 23  1  0  0  0  0
 20 19  1  0  0  0  0
 21 20  2  0  0  0  0
 21 17  1  0  0  0  0
 24 20  1  0  0  0  0
 25 24  1  0  0  0  0
 26 24  1  0  0  0  0
 26 27  1  0  0  0  0
 26 28  1  0  0  0  0
 29 26  1  0  0  0  0
 30 29  1  0  0  0  0
M  END
>  <minimizedAffinity>
-5.39857578

$$$$

 OpenBabel03242513483D

 30 32  0  0  1  0  0  0  0  0999 V2000
   39.6950   25.7540   42.9700 C   0  0  1  0  0  0  0  0  0  0  0  0
   40.7470   26.7820   42.5320 C   0  0  0  0  0  0  0  0  0  0  0  0
   39.7370   27.1220   43.5140 C   0  0  1  0  0  0  0  0  0  0  0  0
   39.9430   24.9670   43.7050 H   0  0  0  0  0  0  0  0  0  0  0  0
   40.7460   27.1180   41.4890 H   0  0  0  0  0  0  0  0  0  0  0  0
   41.7730   26.5650   42.9280 H   0  0  0  0  0  0  0  0  0  0  0  0
   39.9470   27.2060   44.5930 H   0  0  0  0  0  0  0  0  0  0  0  0
   38.7390   25.3400   41.9070 C   0  0  0  0  0  0  0  0  0  0  0  0
   37.5500   24.6990   42.3050 C   0  0  0  0  0  0  0  0  0  0  0  0
   36.6640   24.3040   41.3080 C   0  0  0  0  0  0  0  0  0  0  0  0
   37.0000   24.5610   40.0000 N   0  0  0  0  0  0  0  0  0  0  0  0
   38.1680   25.1870   39.6720 C   0  0  0  0  0  0  0  0  0  0  0  0
   39.0340   25.5740   40.6200 N   0  0  0  0  0  0  0  0  0  0  0  0
   37.3080   24.5070   43.3390 H   0  0  0  0  0  0  0  0  0  0  0  0
   35.7260   23.8060   41.5170 H   0  0  0  0  0  0  0  0  0  0  0  0
   38.4060   25.3750   38.6330 H   0  0  0  0  0  0  0  0  0  0  0  0
   38.6480   28.0560   43.0810 C   0  0  0  0  0  0  0  0  0  0  0  0
   37.4480   28.4070   43.6780 C   0  0  0  0  0  0  0  0  0  0  0  0
   36.8210   29.3070   42.9080 N   0  0  0  0  0  0  0  0  0  0  0  0
   37.6010   29.5160   41.8590 C   0  0  0  0  0  0  0  0  0  0  0  0
   38.7260   28.7770   41.9210 N   0  0  0  0  0  0  0  0  0  0  0  0
   37.1950   27.9510   44.6040 H   0  0  0  0  0  0  0  0  0  0  0  0
   35.8960   29.7100   43.1670 H   0  0  0  0  0  0  0  0  0  0  0  0
   37.3540   30.3920   40.7710 N   0  0  0  0  0  0  0  0  0  0  0  0
   36.6770   30.2100   40.0000 H   0  0  0  0  0  0  0  0  0  0  0  0
   38.1010   31.9160   40.4870 S   0  0  0  0  0  0  0  0  0  0  0  0
   38.8370   31.8980   39.1530 O   0  0  0  0  0  1  0  0  0  0  0  0
   39.1300   32.2060   41.5260 O   0  0  0  0  0  1  0  0  0  0  0  0
   36.9500   33.1300   40.3340 O   0  0  0  0  0  0  0  0  0  0  0  0
   36.8410   33.6200   41.1880 H   0  0  0  0  0  0  0  0  0  0  0  0
  1  3  1  0  0  0  0
  1  4  1  1  0  0  0
  2  6  1  0  0  0  0
  2  1  1  0  0  0  0
  2  3  1  0  0  0  0
  3  7  1  1  0  0  0
  5  2  1  0  0  0  0
  8  9  1  0  0  0  0
  8  1  1  0  0  0  0
  9 14  1  0  0  0  0
 10 15  1  0  0  0  0
 10  9  2  0  0  0  0
 11 10  1  0  0  0  0
 12 11  2  0  0  0  0
 12 13  1  0  0  0  0
 13  8  2  0  0  0  0
 16 12  1  0  0  0  0
 17  3  1  0  0  0  0
 17 18  2  0  0  0  0
 18 22  1  0  0  0  0
 19 23  1  0  0  0  0
 19 18  1  0  0  0  0
 20 21  2  0  0  0  0
 20 19  1  0  0  0  0
 21 17  1  0  0  0  0
 24 20  1  0  0  0  0
 25 24  1  0  0  0  0
 26 24  1  0  0  0  0
 26 28  1  0  0  0  0
 27 26  1  0  0  0  0
 29 26  1  0  0  0  0
 29 30  1  0  0  0  0
M  END
>  <minimizedAffinity>
-5.38277626

$$$$

 OpenBabel03242513483D

 30 32  0  0  1  0  0  0  0  0999 V2000
   36.8920   26.9170   38.4050 C   0  0  1  0  0  0  0  0  0  0  0  0
   35.3610   26.8190   38.4500 C   0  0  0  0  0  0  0  0  0  0  0  0
   36.0180   28.0780   38.1600 C   0  0  1  0  0  0  0  0  0  0  0  0
   37.4550   26.5800   37.5170 H   0  0  0  0  0  0  0  0  0  0  0  0
   34.8820   26.5650   39.4030 H   0  0  0  0  0  0  0  0  0  0  0  0
   34.9240   26.2720   37.5740 H   0  0  0  0  0  0  0  0  0  0  0  0
   36.0680   28.5140   37.1490 H   0  0  0  0  0  0  0  0  0  0  0  0
   37.5760   26.6850   39.7060 C   0  0  0  0  0  0  0  0  0  0  0  0
   37.0140   25.7420   40.5860 C   0  0  0  0  0  0  0  0  0  0  0  0
   37.6510   25.5360   41.8060 C   0  0  0  0  0  0  0  0  0  0  0  0
   38.7860   26.2620   42.0780 N   0  0  0  0  0  0  0  0  0  0  0  0
   39.2870   27.1650   41.1860 C   0  0  0  0  0  0  0  0  0  0  0  0
   38.6860   27.3770   40.0050 N   0  0  0  0  0  0  0  0  0  0  0  0
   36.1200   25.1830   40.3510 H   0  0  0  0  0  0  0  0  0  0  0  0
   37.2930   24.8310   42.5460 H   0  0  0  0  0  0  0  0  0  0  0  0
   40.1820   27.7230   41.4280 H   0  0  0  0  0  0  0  0  0  0  0  0
   35.9790   29.1310   39.2250 C   0  0  0  0  0  0  0  0  0  0  0  0
   35.3450   29.1690   40.4560 C   0  0  0  0  0  0  0  0  0  0  0  0
   35.6340   30.3280   41.0640 N   0  0  0  0  0  0  0  0  0  0  0  0
   36.4240   31.0000   40.2410 C   0  0  0  0  0  0  0  0  0  0  0  0
   36.6630   30.3100   39.1080 N   0  0  0  0  0  0  0  0  0  0  0  0
   34.7530   28.3340   40.7430 H   0  0  0  0  0  0  0  0  0  0  0  0
   35.2590   30.5690   42.0060 H   0  0  0  0  0  0  0  0  0  0  0  0
   36.9880   32.2840   40.4540 N   0  0  0  0  0  0  0  0  0  0  0  0
   36.4660   33.1830   40.3920 H   0  0  0  0  0  0  0  0  0  0  0  0
   38.6250   32.6350   40.8550 S   0  0  0  0  0  0  0  0  0  0  0  0
   39.4720   32.6940   39.5900 O   0  0  0  0  0  1  0  0  0  0  0  0
   39.2100   31.5520   41.6970 O   0  0  0  0  0  1  0  0  0  0  0  0
   38.7610   34.1600   41.5440 O   0  0  0  0  0  0  0  0  0  0  0  0
   38.7910   34.0980   42.5320 H   0  0  0  0  0  0  0  0  0  0  0  0
  1  4  1  6  0  0  0
  1  2  1  0  0  0  0
  1  8  1  0  0  0  0
  2  5  1  0  0  0  0
  3  7  1  6  0  0  0
  3  1  1  0  0  0  0
  3  2  1  0  0  0  0
  3 17  1  0  0  0  0
  6  2  1  0  0  0  0
  8 13  2  0  0  0  0
  8  9  1  0  0  0  0
  9 10  2  0  0  0  0
 10 11  1  0  0  0  0
 10 15  1  0  0  0  0
 12 16  1  0  0  0  0
 12 11  2  0  0  0  0
 13 12  1  0  0  0  0
 14  9  1  0  0  0  0
 17 18  2  0  0  0  0
 18 22  1  0  0  0  0
 18 19  1  0  0  0  0
 19 23  1  0  0  0  0
 20 24  1  0  0  0  0
 20 19  1  0  0  0  0
 21 17  1  0  0  0  0
 21 20  2  0  0  0  0
 24 26  1  0  0  0  0
 25 24  1  0  0  0  0
 26 29  1  0  0  0  0
 26 28  1  0  0  0  0
 27 26  1  0  0  0  0
 29 30  1  0  0  0  0
M  END
>  <minimizedAffinity>
-5.21212912

$$$$

 OpenBabel03242513483D

 30 32  0  0  1  0  0  0  0  0999 V2000
   36.8970   26.9050   42.9200 C   0  0  1  0  0  0  0  0  0  0  0  0
   37.6840   28.1650   43.3030 C   0  0  0  0  0  0  0  0  0  0  0  0
   36.5930   28.2300   42.3510 C   0  0  1  0  0  0  0  0  0  0  0  0
   36.1090   26.5060   43.5830 H   0  0  0  0  0  0  0  0  0  0  0  0
   38.7480   28.2160   43.0430 H   0  0  0  0  0  0  0  0  0  0  0  0
   37.4620   28.5310   44.3400 H   0  0  0  0  0  0  0  0  0  0  0  0
   35.6010   28.6430   42.5950 H   0  0  0  0  0  0  0  0  0  0  0  0
   37.6790   25.8740   42.1850 C   0  0  0  0  0  0  0  0  0  0  0  0
   36.9890   24.7490   41.6960 C   0  0  0  0  0  0  0  0  0  0  0  0
   37.7260   23.7820   41.0190 C   0  0  0  0  0  0  0  0  0  0  0  0
   39.0780   23.9810   40.8690 N   0  0  0  0  0  0  0  0  0  0  0  0
   39.6950   25.0930   41.3640 C   0  0  0  0  0  0  0  0  0  0  0  0
   39.0010   26.0350   42.0200 N   0  0  0  0  0  0  0  0  0  0  0  0
   35.9260   24.6140   41.8270 H   0  0  0  0  0  0  0  0  0  0  0  0
   37.2820   22.8840   40.6070 H   0  0  0  0  0  0  0  0  0  0  0  0
   40.7610   25.2210   41.2320 H   0  0  0  0  0  0  0  0  0  0  0  0
   36.9520   28.4460   40.9130 C   0  0  0  0  0  0  0  0  0  0  0  0
   36.4460   27.8960   39.7460 C   0  0  0  0  0  0  0  0  0  0  0  0
   37.0830   28.4290   38.6950 N   0  0  0  0  0  0  0  0  0  0  0  0
   37.9640   29.2880   39.1830 C   0  0  0  0  0  0  0  0  0  0  0  0
   37.9210   29.3330   40.5290 N   0  0  0  0  0  0  0  0  0  0  0  0
   35.6700   27.1720   39.8280 H   0  0  0  0  0  0  0  0  0  0  0  0
   36.8600   28.1560   37.7140 H   0  0  0  0  0  0  0  0  0  0  0  0
   38.8700   30.0940   38.4470 N   0  0  0  0  0  0  0  0  0  0  0  0
   39.7380   29.7490   37.9860 H   0  0  0  0  0  0  0  0  0  0  0  0
   38.7400   31.7860   38.1600 S   0  0  0  0  0  0  0  0  0  0  0  0
   39.5230   32.5570   39.2160 O   0  0  0  0  0  1  0  0  0  0  0  0
   37.3250   32.2390   38.2780 O   0  0  0  0  0  1  0  0  0  0  0  0
   39.4520   32.2040   36.6970 O   0  0  0  0  0  0  0  0  0  0  0  0
   38.7700   32.2800   35.9840 H   0  0  0  0  0  0  0  0  0  0  0  0
  1  2  1  0  0  0  0
  1  4  1  1  0  0  0
  2  6  1  0  0  0  0
  3  7  1  1  0  0  0
  3  1  1  0  0  0  0
  3  2  1  0  0  0  0
  5  2  1  0  0  0  0
  8  1  1  0  0  0  0
  9 14  1  0  0  0  0
  9  8  2  0  0  0  0
 10  9  1  0  0  0  0
 11 10  2  0  0  0  0
 11 12  1  0  0  0  0
 12 13  2  0  0  0  0
 13  8  1  0  0  0  0
 15 10  1  0  0  0  0
 16 12  1  0  0  0  0
 17  3  1  0  0  0  0
 18 22  1  0  0  0  0
 18 17  2  0  0  0  0
 19 20  1  0  0  0  0
 19 18  1  0  0  0  0
 20 21  2  0  0  0  0
 21 17  1  0  0  0  0
 23 19  1  0  0  0  0
 24 20  1  0  0  0  0
 25 24  1  0  0  0  0
 26 28  1  0  0  0  0
 26 24  1  0  0  0  0
 26 27  1  0  0  0  0
 29 26  1  0  0  0  0
 30 29  1  0  0  0  0
M  END
>  <minimizedAffinity>
-5.21087074

$$$$

 OpenBabel03242513483D

 30 32  0  0  1  0  0  0  0  0999 V2000
   36.5240   27.7790   42.5390 C   0  0  1  0  0  0  0  0  0  0  0  0
   37.4940   26.6590   42.9370 C   0  0  0  0  0  0  0  0  0  0  0  0
   37.6680   28.0080   43.4380 C   0  0  1  0  0  0  0  0  0  0  0  0
   35.5380   27.8750   43.0280 H   0  0  0  0  0  0  0  0  0  0  0  0
   38.1070   26.1960   42.1540 H   0  0  0  0  0  0  0  0  0  0  0  0
   37.0490   25.9160   43.6500 H   0  0  0  0  0  0  0  0  0  0  0  0
   37.4190   28.3060   44.4700 H   0  0  0  0  0  0  0  0  0  0  0  0
   36.5460   28.1490   41.0980 C   0  0  0  0  0  0  0  0  0  0  0  0
   35.9980   29.3920   40.7290 C   0  0  0  0  0  0  0  0  0  0  0  0
   36.0120   29.7300   39.3790 C   0  0  0  0  0  0  0  0  0  0  0  0
   36.5570   28.8340   38.4900 N   0  0  0  0  0  0  0  0  0  0  0  0
   37.0750   27.6420   38.9050 C   0  0  0  0  0  0  0  0  0  0  0  0
   37.0700   27.2990   40.2010 N   0  0  0  0  0  0  0  0  0  0  0  0
   35.5740   30.0790   41.4460 H   0  0  0  0  0  0  0  0  0  0  0  0
   35.6140   30.6640   39.0020 H   0  0  0  0  0  0  0  0  0  0  0  0
   37.4970   26.9570   38.1810 H   0  0  0  0  0  0  0  0  0  0  0  0
   38.8130   28.8000   42.8870 C   0  0  0  0  0  0  0  0  0  0  0  0
   40.0400   28.4090   42.3740 C   0  0  0  0  0  0  0  0  0  0  0  0
   40.7190   29.4950   41.9800 N   0  0  0  0  0  0  0  0  0  0  0  0
   39.9450   30.5380   42.2360 C   0  0  0  0  0  0  0  0  0  0  0  0
   38.7740   30.1650   42.7880 N   0  0  0  0  0  0  0  0  0  0  0  0
   40.2700   27.3710   42.3600 H   0  0  0  0  0  0  0  0  0  0  0  0
   41.6710   29.4320   41.5620 H   0  0  0  0  0  0  0  0  0  0  0  0
   40.2410   31.9030   41.9880 N   0  0  0  0  0  0  0  0  0  0  0  0
   40.8970   32.4840   42.5510 H   0  0  0  0  0  0  0  0  0  0  0  0
   39.5950   32.8830   40.7280 S   0  0  0  0  0  0  0  0  0  0  0  0
   38.6140   32.0750   39.8890 O   0  0  0  0  0  1  0  0  0  0  0  0
   40.6710   33.3280   39.7960 O   0  0  0  0  0  1  0  0  0  0  0  0
   38.6920   34.1520   41.3560 O   0  0  0  0  0  0  0  0  0  0  0  0
   39.2300   34.9820   41.3910 H   0  0  0  0  0  0  0  0  0  0  0  0
  1  2  1  0  0  0  0
  1  4  1  1  0  0  0
  1  3  1  0  0  0  0
  2  3  1  0  0  0  0
  2  6  1  0  0  0  0
  3  7  1  1  0  0  0
  5  2  1  0  0  0  0
  8  1  1  0  0  0  0
  9  8  1  0  0  0  0
  9 14  1  0  0  0  0
 10  9  2  0  0  0  0
 11 12  2  0  0  0  0
 11 10  1  0  0  0  0
 12 13  1  0  0  0  0
 13  8  2  0  0  0  0
 15 10  1  0  0  0  0
 16 12  1  0  0  0  0
 17  3  1  0  0  0  0
 18 17  2  0  0  0  0
 19 20  1  0  0  0  0
 19 18  1  0  0  0  0
 20 21  2  0  0  0  0
 21 17  1  0  0  0  0
 22 18  1  0  0  0  0
 23 19  1  0  0  0  0
 24 20  1  0  0  0  0
 24 25  1  0  0  0  0
 26 29  1  0  0  0  0
 26 24  1  0  0  0  0
 27 26  1  0  0  0  0
 28 26  1  0  0  0  0
 29 30  1  0  0  0  0
M  END
>  <minimizedAffinity>
-5.15538597

$$$$

 OpenBabel03242513483D

 30 32  0  0  1  0  0  0  0  0999 V2000
   38.3390   25.4070   41.0980 C   0  0  1  0  0  0  0  0  0  0  0  0
   37.9890   24.9940   42.5340 C   0  0  0  0  0  0  0  0  0  0  0  0
   37.0800   25.8080   41.7510 C   0  0  1  0  0  0  0  0  0  0  0  0
   38.2070   24.7020   40.2580 H   0  0  0  0  0  0  0  0  0  0  0  0
   38.6170   25.3650   43.3520 H   0  0  0  0  0  0  0  0  0  0  0  0
   37.7250   23.9090   42.6340 H   0  0  0  0  0  0  0  0  0  0  0  0
   36.1550   25.4150   41.2980 H   0  0  0  0  0  0  0  0  0  0  0  0
   39.5060   26.3220   40.9730 C   0  0  0  0  0  0  0  0  0  0  0  0
   39.6070   27.1040   39.8070 C   0  0  0  0  0  0  0  0  0  0  0  0
   40.7060   27.9500   39.6890 C   0  0  0  0  0  0  0  0  0  0  0  0
   41.6230   27.9710   40.7130 N   0  0  0  0  0  0  0  0  0  0  0  0
   41.4740   27.1900   41.8220 C   0  0  0  0  0  0  0  0  0  0  0  0
   40.4220   26.3680   41.9520 N   0  0  0  0  0  0  0  0  0  0  0  0
   38.8740   27.0700   39.0150 H   0  0  0  0  0  0  0  0  0  0  0  0
   40.8680   28.5890   38.8300 H   0  0  0  0  0  0  0  0  0  0  0  0
   42.2130   27.2270   42.6110 H   0  0  0  0  0  0  0  0  0  0  0  0
   36.9470   27.2490   42.1360 C   0  0  0  0  0  0  0  0  0  0  0  0
   37.2120   27.9110   43.3240 C   0  0  0  0  0  0  0  0  0  0  0  0
   36.9560   29.2170   43.1670 N   0  0  0  0  0  0  0  0  0  0  0  0
   36.5420   29.3730   41.9190 C   0  0  0  0  0  0  0  0  0  0  0  0
   36.5210   28.2030   41.2520 N   0  0  0  0  0  0  0  0  0  0  0  0
   37.5610   27.3400   44.1500 H   0  0  0  0  0  0  0  0  0  0  0  0
   37.0870   29.9050   43.9380 H   0  0  0  0  0  0  0  0  0  0  0  0
   36.1550   30.5860   41.2920 N   0  0  0  0  0  0  0  0  0  0  0  0
   35.2550   31.0840   41.4590 H   0  0  0  0  0  0  0  0  0  0  0  0
   37.0650   31.4850   40.1410 S   0  0  0  0  0  0  0  0  0  0  0  0
   36.6000   31.1500   38.7300 O   0  0  0  0  0  1  0  0  0  0  0  0
   38.5090   31.1180   40.2010 O   0  0  0  0  0  1  0  0  0  0  0  0
   36.7910   33.1330   40.3130 O   0  0  0  0  0  0  0  0  0  0  0  0
   37.5100   33.5560   40.8450 H   0  0  0  0  0  0  0  0  0  0  0  0
  1  4  1  6  0  0  0
  1  3  1  0  0  0  0
  1  2  1  0  0  0  0
  2  6  1  0  0  0  0
  2  5  1  0  0  0  0
  3  7  1  6  0  0  0
  3 17  1  0  0  0  0
  3  2  1  0  0  0  0
  8  1  1  0  0  0  0
  8 13  1  0  0  0  0
  9  8  2  0  0  0  0
 10  9  1  0  0  0  0
 10 11  2  0  0  0  0
 11 12  1  0  0  0  0
 12 13  2  0  0  0  0
 12 16  1  0  0  0  0
 14  9  1  0  0  0  0
 15 10  1  0  0  0  0
 17 18  2  0  0  0  0
 18 22  1  0  0  0  0
 19 18  1  0  0  0  0
 19 23  1  0  0  0  0
 20 19  1  0  0  0  0
 21 20  2  0  0  0  0
 21 17  1  0  0  0  0
 24 25  1  0  0  0  0
 24 20  1  0  0  0  0
 26 28  1  0  0  0  0
 26 29  1  0  0  0  0
 26 24  1  0  0  0  0
 27 26  1  0  0  0  0
 29 30  1  0  0  0  0
M  END
>  <minimizedAffinity>
-5.08717537

$$$$

 OpenBabel03242513483D

 30 32  0  0  1  0  0  0  0  0999 V2000
   37.3640   31.8210   38.0100 C   0  0  1  0  0  0  0  0  0  0  0  0
   37.7520   30.3980   37.5880 C   0  0  0  0  0  0  0  0  0  0  0  0
   36.6230   30.6310   38.4670 C   0  0  1  0  0  0  0  0  0  0  0  0
   36.7910   32.4760   37.3310 H   0  0  0  0  0  0  0  0  0  0  0  0
   38.7250   30.0060   37.9070 H   0  0  0  0  0  0  0  0  0  0  0  0
   37.5110   30.1690   36.5170 H   0  0  0  0  0  0  0  0  0  0  0  0
   35.5750   30.5590   38.1350 H   0  0  0  0  0  0  0  0  0  0  0  0
   38.3640   32.5210   38.8600 C   0  0  0  0  0  0  0  0  0  0  0  0
   37.8860   33.3890   39.8600 C   0  0  0  0  0  0  0  0  0  0  0  0
   38.8260   34.0500   40.6450 C   0  0  0  0  0  0  0  0  0  0  0  0
   40.1580   33.8170   40.4000 N   0  0  0  0  0  0  0  0  0  0  0  0
   40.5650   32.9630   39.4170 C   0  0  0  0  0  0  0  0  0  0  0  0
   39.6740   32.3180   38.6490 N   0  0  0  0  0  0  0  0  0  0  0  0
   36.8340   33.5570   40.0330 H   0  0  0  0  0  0  0  0  0  0  0  0
   38.5530   34.7360   41.4380 H   0  0  0  0  0  0  0  0  0  0  0  0
   41.6210   32.8010   39.2460 H   0  0  0  0  0  0  0  0  0  0  0  0
   36.7850   30.2460   39.9050 C   0  0  0  0  0  0  0  0  0  0  0  0
   36.0680   30.6010   41.0370 C   0  0  0  0  0  0  0  0  0  0  0  0
   36.5860   29.9710   42.1010 N   0  0  0  0  0  0  0  0  0  0  0  0
   37.5980   29.2440   41.6540 C   0  0  0  0  0  0  0  0  0  0  0  0
   37.7560   29.3780   40.3230 N   0  0  0  0  0  0  0  0  0  0  0  0
   35.2560   31.2780   40.9260 H   0  0  0  0  0  0  0  0  0  0  0  0
   36.2000   30.0950   43.0610 H   0  0  0  0  0  0  0  0  0  0  0  0
   38.4500   28.4040   42.4160 N   0  0  0  0  0  0  0  0  0  0  0  0
   39.2090   28.7380   43.0470 H   0  0  0  0  0  0  0  0  0  0  0  0
   38.4200   26.6840   42.4680 S   0  0  0  0  0  0  0  0  0  0  0  0
   39.2540   26.1820   43.6410 O   0  0  0  0  0  1  0  0  0  0  0  0
   39.0380   26.1040   41.2420 O   0  0  0  0  0  1  0  0  0  0  0  0
   36.8670   26.1180   42.7630 O   0  0  0  0  0  0  0  0  0  0  0  0
   36.4230   25.8540   41.9180 H   0  0  0  0  0  0  0  0  0  0  0  0
  1  4  1  6  0  0  0
  1  3  1  0  0  0  0
  1  8  1  0  0  0  0
  2  5  1  0  0  0  0
  2  1  1  0  0  0  0
  2  3  1  0  0  0  0
  3  7  1  6  0  0  0
  3 17  1  0  0  0  0
  6  2  1  0  0  0  0
  8  9  1  0  0  0  0
  9 14  1  0  0  0  0
  9 10  2  0  0  0  0
 10 15  1  0  0  0  0
 11 10  1  0  0  0  0
 12 11  2  0  0  0  0
 13  8  2  0  0  0  0
 13 12  1  0  0  0  0
 16 12  1  0  0  0  0
 17 21  1  0  0  0  0
 17 18  2  0  0  0  0
 18 19  1  0  0  0  0
 19 23  1  0  0  0  0
 20 19  1  0  0  0  0
 20 24  1  0  0  0  0
 21 20  2  0  0  0  0
 22 18  1  0  0  0  0
 24 26  1  0  0  0  0
 24 25  1  0  0  0  0
 26 29  1  0  0  0  0
 26 27  1  0  0  0  0
 28 26  1  0  0  0  0
 30 29  1  0  0  0  0
M  END
>  <minimizedAffinity>
-5.03157806

$$$$

 OpenBabel03242513483D

 30 32  0  0  1  0  0  0  0  0999 V2000
   36.8410   28.4340   39.7470 C   0  0  1  0  0  0  0  0  0  0  0  0
   35.5240   29.2190   39.8180 C   0  0  0  0  0  0  0  0  0  0  0  0
   36.3810   29.3080   38.6530 C   0  0  1  0  0  0  0  0  0  0  0  0
   36.8460   27.3590   39.4940 H   0  0  0  0  0  0  0  0  0  0  0  0
   35.4210   29.9980   40.5830 H   0  0  0  0  0  0  0  0  0  0  0  0
   34.6140   28.5720   39.7180 H   0  0  0  0  0  0  0  0  0  0  0  0
   36.1560   28.8070   37.6970 H   0  0  0  0  0  0  0  0  0  0  0  0
   37.8770   28.8520   40.7290 C   0  0  0  0  0  0  0  0  0  0  0  0
   39.2260   28.6210   40.4010 C   0  0  0  0  0  0  0  0  0  0  0  0
   40.1920   29.0040   41.3280 C   0  0  0  0  0  0  0  0  0  0  0  0
   39.7720   29.5820   42.5020 N   0  0  0  0  0  0  0  0  0  0  0  0
   38.4490   29.7830   42.7680 C   0  0  0  0  0  0  0  0  0  0  0  0
   37.5050   29.4200   41.8870 N   0  0  0  0  0  0  0  0  0  0  0  0
   39.5310   28.1640   39.4720 H   0  0  0  0  0  0  0  0  0  0  0  0
   41.2530   28.8660   41.1630 H   0  0  0  0  0  0  0  0  0  0  0  0
   38.1490   30.2400   43.7010 H   0  0  0  0  0  0  0  0  0  0  0  0
   37.1310   30.5890   38.4510 C   0  0  0  0  0  0  0  0  0  0  0  0
   36.9530   31.8530   38.9900 C   0  0  0  0  0  0  0  0  0  0  0  0
   37.9030   32.6710   38.5170 N   0  0  0  0  0  0  0  0  0  0  0  0
   38.6560   31.9460   37.7050 C   0  0  0  0  0  0  0  0  0  0  0  0
   38.2250   30.6720   37.6340 N   0  0  0  0  0  0  0  0  0  0  0  0
   36.1430   32.0020   39.6630 H   0  0  0  0  0  0  0  0  0  0  0  0
   37.9570   33.6750   38.7920 H   0  0  0  0  0  0  0  0  0  0  0  0
   39.7880   32.3840   36.9710 N   0  0  0  0  0  0  0  0  0  0  0  0
   39.7520   32.9730   36.1130 H   0  0  0  0  0  0  0  0  0  0  0  0
   41.4380   32.0460   37.3270 S   0  0  0  0  0  0  0  0  0  0  0  0
   41.8810   30.7810   36.6030 O   0  0  0  0  0  1  0  0  0  0  0  0
   41.6240   31.7790   38.7820 O   0  0  0  0  0  1  0  0  0  0  0  0
   42.4400   33.2590   36.7400 O   0  0  0  0  0  0  0  0  0  0  0  0
   42.6730   33.9010   37.4570 H   0  0  0  0  0  0  0  0  0  0  0  0
  1  4  1  6  0  0  0
  1  2  1  0  0  0  0
  1  8  1  0  0  0  0
  2  5  1  0  0  0  0
  3  7  1  6  0  0  0
  3  1  1  0  0  0  0
  3  2  1  0  0  0  0
  6  2  1  0  0  0  0
  8 13  1  0  0  0  0
  9  8  2  0  0  0  0
  9 10  1  0  0  0  0
 10 11  2  0  0  0  0
 11 12  1  0  0  0  0
 12 16  1  0  0  0  0
 13 12  2  0  0  0  0
 14  9  1  0  0  0  0
 15 10  1  0  0  0  0
 17  3  1  0  0  0  0
 17 18  2  0  0  0  0
 18 22  1  0  0  0  0
 19 23  1  0  0  0  0
 19 18  1  0  0  0  0
 20 19  1  0  0  0  0
 21 20  2  0  0  0  0
 21 17  1  0  0  0  0
 24 26  1  0  0  0  0
 24 20  1  0  0  0  0
 25 24  1  0  0  0  0
 26 28  1  0  0  0  0
 27 26  1  0  0  0  0
 29 26  1  0  0  0  0
 29 30  1  0  0  0  0
M  END
>  <minimizedAffinity>
-5.020329

$$$$
