
 OpenBabel03252500423D

 26 27  0  0  1  0  0  0  0  0999 V2000
   36.9850   28.0820   42.2510 C   0  0  1  0  0  0  0  0  0  0  0  0
   36.4750   27.3990   43.4960 C   0  0  0  0  0  0  0  0  0  0  0  0
   37.2120   26.6190   42.4540 C   0  0  2  0  0  0  0  0  0  0  0  0
   37.8350   28.7410   42.5270 H   0  0  0  0  0  0  0  0  0  0  0  0
   35.3640   27.2150   43.5570 H   0  0  0  0  0  0  0  0  0  0  0  0
   36.9150   27.5360   44.4780 H   0  0  0  0  0  0  0  0  0  0  0  0
   36.5850   25.9490   41.8010 H   0  0  0  0  0  0  0  0  0  0  0  0
   35.9410   28.5000   41.2650 C   0  0  0  0  0  0  0  0  0  0  0  0
   35.8960   27.6920   40.4800 H   0  0  0  0  0  0  0  0  0  0  0  0
   34.9360   28.5690   41.7080 H   0  0  0  0  0  0  0  0  0  0  0  0
   36.3260   29.7270   40.5330 C   0  0  0  0  0  0  0  0  0  0  0  0
   36.3530   29.5700   39.1650 C   0  0  0  0  0  0  0  0  0  0  0  0
   36.7180   30.6390   38.3210 C   0  0  0  0  0  0  0  0  0  0  0  0
   37.0320   31.8040   38.9620 N   0  0  0  0  0  0  0  0  0  0  0  0
   36.9960   31.9350   40.3140 C   0  0  0  0  0  0  0  0  0  0  0  0
   36.6490   30.9140   41.0980 N   0  0  0  0  0  0  0  0  0  0  0  0
   36.1470   28.7960   38.4430 H   0  0  0  0  0  0  0  0  0  0  0  0
   36.8140   30.7640   37.2750 H   0  0  0  0  0  0  0  0  0  0  0  0
   37.2430   32.8530   40.8070 H   0  0  0  0  0  0  0  0  0  0  0  0
   38.5600   26.2140   42.5690 N   0  0  0  0  0  0  0  0  0  0  0  0
   39.0030   26.4170   43.4710 H   0  0  0  0  0  0  0  0  0  0  0  0
   38.8760   24.5940   42.1330 S   0  0  0  0  0  0  0  0  0  0  0  0
   37.5090   23.9470   41.9470 O   0  0  0  0  0  1  0  0  0  0  0  0
   39.5520   24.4780   40.8010 O   0  0  0  0  0  1  0  0  0  0  0  0
   39.6780   23.7040   43.2770 O   0  0  0  0  0  0  0  0  0  0  0  0
   40.0830   24.2870   43.9630 H   0  0  0  0  0  0  0  0  0  0  0  0
  1  3  1  0  0  0  0
  1  4  1  1  0  0  0
  1  2  1  0  0  0  0
  2  5  1  0  0  0  0
  2  6  1  0  0  0  0
  3  7  1  6  0  0  0
  3 20  1  0  0  0  0
  3  2  1  0  0  0  0
  8 10  1  0  0  0  0
  8  1  1  0  0  0  0
  9  8  1  0  0  0  0
 11 16  1  0  0  0  0
 11  8  1  0  0  0  0
 12 11  2  0  0  0  0
 13 14  2  0  0  0  0
 13 12  1  0  0  0  0
 14 15  1  0  0  0  0
 15 19  1  0  0  0  0
 15 16  2  0  0  0  0
 17 12  1  0  0  0  0
 18 13  1  0  0  0  0
 20 21  1  0  0  0  0
 22 20  1  0  0  0  0
 22 25  1  0  0  0  0
 23 22  1  0  0  0  0
 24 22  1  0  0  0  0
 25 26  1  0  0  0  0
M  END
>  <minimizedAffinity>
-4.48931694

$$$$

 OpenBabel03252500423D

 26 27  0  0  1  0  0  0  0  0999 V2000
   36.6840   28.4210   41.1090 C   0  0  1  0  0  0  0  0  0  0  0  0
   35.5720   29.3660   40.7250 C   0  0  0  0  0  0  0  0  0  0  0  0
   36.9200   29.8960   41.1000 C   0  0  2  0  0  0  0  0  0  0  0  0
   37.0210   27.8760   40.2010 H   0  0  0  0  0  0  0  0  0  0  0  0
   34.7520   29.5220   41.4830 H   0  0  0  0  0  0  0  0  0  0  0  0
   35.2110   29.4850   39.7090 H   0  0  0  0  0  0  0  0  0  0  0  0
   37.0000   30.3670   42.1200 H   0  0  0  0  0  0  0  0  0  0  0  0
   36.5300   27.7420   42.4330 C   0  0  0  0  0  0  0  0  0  0  0  0
   36.5820   28.5500   43.2180 H   0  0  0  0  0  0  0  0  0  0  0  0
   35.5560   27.2460   42.5510 H   0  0  0  0  0  0  0  0  0  0  0  0
   37.6670   26.8430   42.7330 C   0  0  0  0  0  0  0  0  0  0  0  0
   37.5330   25.5820   42.1960 C   0  0  0  0  0  0  0  0  0  0  0  0
   38.5200   24.5970   42.4040 C   0  0  0  0  0  0  0  0  0  0  0  0
   39.5850   24.9950   43.1610 N   0  0  0  0  0  0  0  0  0  0  0  0
   39.6970   26.2460   43.6800 C   0  0  0  0  0  0  0  0  0  0  0  0
   38.7540   27.1650   43.4740 N   0  0  0  0  0  0  0  0  0  0  0  0
   36.8290   25.0440   41.5800 H   0  0  0  0  0  0  0  0  0  0  0  0
   38.6430   23.5890   42.1080 H   0  0  0  0  0  0  0  0  0  0  0  0
   40.5370   26.5480   44.2700 H   0  0  0  0  0  0  0  0  0  0  0  0
   37.8780   30.3620   40.1730 N   0  0  0  0  0  0  0  0  0  0  0  0
   37.7170   30.0820   39.2000 H   0  0  0  0  0  0  0  0  0  0  0  0
   38.2030   32.0360   40.2370 S   0  0  0  0  0  0  0  0  0  0  0  0
   39.0570   32.2400   41.4810 O   0  0  0  0  0  1  0  0  0  0  0  0
   39.0530   32.5020   39.0940 O   0  0  0  0  0  1  0  0  0  0  0  0
   36.8690   33.0020   40.4050 O   0  0  0  0  0  0  0  0  0  0  0  0
   36.0390   32.5040   40.2050 H   0  0  0  0  0  0  0  0  0  0  0  0
  1  4  1  6  0  0  0
  1  8  1  0  0  0  0
  2  3  1  0  0  0  0
  2  1  1  0  0  0  0
  2  5  1  0  0  0  0
  3  1  1  0  0  0  0
  3  7  1  1  0  0  0
  6  2  1  0  0  0  0
  8 10  1  0  0  0  0
  8 11  1  0  0  0  0
  8  9  1  0  0  0  0
 11 16  1  0  0  0  0
 12 13  1  0  0  0  0
 12 11  2  0  0  0  0
 13 14  2  0  0  0  0
 14 15  1  0  0  0  0
 15 19  1  0  0  0  0
 16 15  2  0  0  0  0
 17 12  1  0  0  0  0
 18 13  1  0  0  0  0
 20 22  1  0  0  0  0
 20  3  1  0  0  0  0
 21 20  1  0  0  0  0
 22 25  1  0  0  0  0
 22 23  1  0  0  0  0
 24 22  1  0  0  0  0
 26 25  1  0  0  0  0
M  END
>  <minimizedAffinity>
-4.45763826

$$$$

 OpenBabel03252500423D

 26 27  0  0  1  0  0  0  0  0999 V2000
   36.8620   27.5290   42.3010 C   0  0  1  0  0  0  0  0  0  0  0  0
   37.2930   27.9690   43.6790 C   0  0  0  0  0  0  0  0  0  0  0  0
   37.4090   28.9030   42.5160 C   0  0  2  0  0  0  0  0  0  0  0  0
   35.7530   27.4530   42.2800 H   0  0  0  0  0  0  0  0  0  0  0  0
   38.2610   27.5430   44.0690 H   0  0  0  0  0  0  0  0  0  0  0  0
   36.5990   28.1920   44.4820 H   0  0  0  0  0  0  0  0  0  0  0  0
   38.4480   29.0640   42.1130 H   0  0  0  0  0  0  0  0  0  0  0  0
   37.7410   26.5180   41.6370 C   0  0  0  0  0  0  0  0  0  0  0  0
   38.4800   27.0950   41.0110 H   0  0  0  0  0  0  0  0  0  0  0  0
   38.3280   25.9230   42.3530 H   0  0  0  0  0  0  0  0  0  0  0  0
   36.9950   25.6770   40.6750 C   0  0  0  0  0  0  0  0  0  0  0  0
   36.6860   26.3230   39.4980 C   0  0  0  0  0  0  0  0  0  0  0  0
   35.9610   25.6680   38.4820 C   0  0  0  0  0  0  0  0  0  0  0  0
   35.6050   24.3790   38.7610 N   0  0  0  0  0  0  0  0  0  0  0  0
   35.9230   23.7620   39.9290 C   0  0  0  0  0  0  0  0  0  0  0  0
   36.6090   24.3960   40.8800 N   0  0  0  0  0  0  0  0  0  0  0  0
   36.8530   27.2880   39.0460 H   0  0  0  0  0  0  0  0  0  0  0  0
   35.6110   25.9410   37.5220 H   0  0  0  0  0  0  0  0  0  0  0  0
   35.6410   22.7500   40.1370 H   0  0  0  0  0  0  0  0  0  0  0  0
   36.5190   29.9680   42.2600 N   0  0  0  0  0  0  0  0  0  0  0  0
   36.5480   30.7360   42.9380 H   0  0  0  0  0  0  0  0  0  0  0  0
   36.5790   30.6060   40.6770 S   0  0  0  0  0  0  0  0  0  0  0  0
   37.9350   30.1890   40.1200 O   0  0  0  0  0  1  0  0  0  0  0  0
   35.5690   29.9790   39.7650 O   0  0  0  0  0  1  0  0  0  0  0  0
   36.5070   32.2580   40.5850 O   0  0  0  0  0  0  0  0  0  0  0  0
   36.1970   32.6500   41.4360 H   0  0  0  0  0  0  0  0  0  0  0  0
  1  4  1  6  0  0  0
  1  3  1  0  0  0  0
  1  2  1  0  0  0  0
  2  5  1  0  0  0  0
  2  6  1  0  0  0  0
  3  7  1  6  0  0  0
  3  2  1  0  0  0  0
  8  1  1  0  0  0  0
  8 10  1  0  0  0  0
  9  8  1  0  0  0  0
 11 16  1  0  0  0  0
 11  8  1  0  0  0  0
 12 11  2  0  0  0  0
 13 14  2  0  0  0  0
 13 12  1  0  0  0  0
 14 15  1  0  0  0  0
 15 19  1  0  0  0  0
 15 16  2  0  0  0  0
 17 12  1  0  0  0  0
 18 13  1  0  0  0  0
 20  3  1  0  0  0  0
 20 21  1  0  0  0  0
 22 20  1  0  0  0  0
 23 22  1  0  0  0  0
 24 22  1  0  0  0  0
 25 22  1  0  0  0  0
 25 26  1  0  0  0  0
M  END
>  <minimizedAffinity>
-4.40803289

$$$$

 OpenBabel03252500423D

 26 27  0  0  1  0  0  0  0  0999 V2000
   36.0710   28.8260   39.0510 C   0  0  1  0  0  0  0  0  0  0  0  0
   35.0590   28.9040   37.9340 C   0  0  0  0  0  0  0  0  0  0  0  0
   36.0570   30.0020   38.1280 C   0  0  2  0  0  0  0  0  0  0  0  0
   36.8130   28.0350   38.8080 H   0  0  0  0  0  0  0  0  0  0  0  0
   33.9970   29.1440   38.2260 H   0  0  0  0  0  0  0  0  0  0  0  0
   35.1020   28.2880   37.0420 H   0  0  0  0  0  0  0  0  0  0  0  0
   35.6630   30.9540   38.5840 H   0  0  0  0  0  0  0  0  0  0  0  0
   35.5290   29.0110   40.4330 C   0  0  0  0  0  0  0  0  0  0  0  0
   35.1330   30.0650   40.4860 H   0  0  0  0  0  0  0  0  0  0  0  0
   34.6840   28.3420   40.6550 H   0  0  0  0  0  0  0  0  0  0  0  0
   36.5910   28.9470   41.4610 C   0  0  0  0  0  0  0  0  0  0  0  0
   36.5270   27.8250   42.2560 C   0  0  0  0  0  0  0  0  0  0  0  0
   37.4560   27.6210   43.2970 C   0  0  0  0  0  0  0  0  0  0  0  0
   38.3930   28.6050   43.4390 N   0  0  0  0  0  0  0  0  0  0  0  0
   38.4370   29.7030   42.6410 C   0  0  0  0  0  0  0  0  0  0  0  0
   37.5510   29.8810   41.6620 N   0  0  0  0  0  0  0  0  0  0  0  0
   35.9230   26.9360   42.3390 H   0  0  0  0  0  0  0  0  0  0  0  0
   37.6110   26.8660   44.0210 H   0  0  0  0  0  0  0  0  0  0  0  0
   39.1780   30.4680   42.7600 H   0  0  0  0  0  0  0  0  0  0  0  0
   37.2110   30.1770   37.3340 N   0  0  0  0  0  0  0  0  0  0  0  0
   37.0470   30.2060   36.3230 H   0  0  0  0  0  0  0  0  0  0  0  0
   38.2160   31.4820   37.7850 S   0  0  0  0  0  0  0  0  0  0  0  0
   37.2970   32.4890   38.4640 O   0  0  0  0  0  1  0  0  0  0  0  0
   39.2220   31.1000   38.8280 O   0  0  0  0  0  1  0  0  0  0  0  0
   38.9480   32.2690   36.5260 O   0  0  0  0  0  0  0  0  0  0  0  0
   38.9020   31.7360   35.6950 H   0  0  0  0  0  0  0  0  0  0  0  0
  1  4  1  6  0  0  0
  1  8  1  0  0  0  0
  2  3  1  0  0  0  0
  2  5  1  0  0  0  0
  2  1  1  0  0  0  0
  3  7  1  1  0  0  0
  3  1  1  0  0  0  0
  6  2  1  0  0  0  0
  8  9  1  0  0  0  0
  8 10  1  0  0  0  0
  8 11  1  0  0  0  0
 11 16  2  0  0  0  0
 11 12  1  0  0  0  0
 12 17  1  0  0  0  0
 12 13  2  0  0  0  0
 13 14  1  0  0  0  0
 13 18  1  0  0  0  0
 15 19  1  0  0  0  0
 15 14  2  0  0  0  0
 16 15  1  0  0  0  0
 20 22  1  0  0  0  0
 20  3  1  0  0  0  0
 21 20  1  0  0  0  0
 22 23  1  0  0  0  0
 22 24  1  0  0  0  0
 25 22  1  0  0  0  0
 26 25  1  0  0  0  0
M  END
>  <minimizedAffinity>
-4.36339712

$$$$

 OpenBabel03252500423D

 26 27  0  0  1  0  0  0  0  0999 V2000
   38.9030   29.3970   42.1450 C   0  0  1  0  0  0  0  0  0  0  0  0
   38.7060   28.3420   43.2060 C   0  0  0  0  0  0  0  0  0  0  0  0
   37.5280   29.0550   42.6210 C   0  0  2  0  0  0  0  0  0  0  0  0
   39.2210   28.9020   41.2020 H   0  0  0  0  0  0  0  0  0  0  0  0
   38.9800   28.6250   44.2620 H   0  0  0  0  0  0  0  0  0  0  0  0
   38.8370   27.2800   43.0270 H   0  0  0  0  0  0  0  0  0  0  0  0
   37.0470   29.8360   43.2740 H   0  0  0  0  0  0  0  0  0  0  0  0
   39.5080   30.6830   42.6120 C   0  0  0  0  0  0  0  0  0  0  0  0
   38.8120   31.1010   43.3950 H   0  0  0  0  0  0  0  0  0  0  0  0
   40.4860   30.5460   43.0960 H   0  0  0  0  0  0  0  0  0  0  0  0
   39.5400   31.7040   41.5420 C   0  0  0  0  0  0  0  0  0  0  0  0
   40.8120   32.0520   41.1450 C   0  0  0  0  0  0  0  0  0  0  0  0
   41.0190   33.0250   40.1460 C   0  0  0  0  0  0  0  0  0  0  0  0
   39.8820   33.5730   39.6270 N   0  0  0  0  0  0  0  0  0  0  0  0
   38.6360   33.2130   40.0330 C   0  0  0  0  0  0  0  0  0  0  0  0
   38.4580   32.2920   40.9780 N   0  0  0  0  0  0  0  0  0  0  0  0
   41.8280   31.7720   41.3770 H   0  0  0  0  0  0  0  0  0  0  0  0
   41.8700   33.4510   39.6850 H   0  0  0  0  0  0  0  0  0  0  0  0
   37.7500   33.6490   39.6170 H   0  0  0  0  0  0  0  0  0  0  0  0
   36.6620   28.4980   41.6540 N   0  0  0  0  0  0  0  0  0  0  0  0
   35.9910   27.8110   42.0110 H   0  0  0  0  0  0  0  0  0  0  0  0
   35.8470   29.6280   40.6680 S   0  0  0  0  0  0  0  0  0  0  0  0
   36.7070   29.7780   39.4190 O   0  0  0  0  0  1  0  0  0  0  0  0
   34.5260   29.1170   40.1770 O   0  0  0  0  0  1  0  0  0  0  0  0
   35.6820   31.1400   41.3230 O   0  0  0  0  0  0  0  0  0  0  0  0
   35.8620   31.1290   42.2940 H   0  0  0  0  0  0  0  0  0  0  0  0
  1  4  1  6  0  0  0
  1  8  1  0  0  0  0
  1  3  1  0  0  0  0
  1  2  1  0  0  0  0
  2  5  1  0  0  0  0
  3  2  1  0  0  0  0
  3  7  1  1  0  0  0
  6  2  1  0  0  0  0
  8 10  1  0  0  0  0
  8  9  1  0  0  0  0
 11  8  1  0  0  0  0
 12 17  1  0  0  0  0
 12 11  1  0  0  0  0
 13 12  2  0  0  0  0
 14 15  2  0  0  0  0
 14 13  1  0  0  0  0
 15 16  1  0  0  0  0
 16 11  2  0  0  0  0
 18 13  1  0  0  0  0
 19 15  1  0  0  0  0
 20 21  1  0  0  0  0
 20  3  1  0  0  0  0
 22 25  1  0  0  0  0
 22 20  1  0  0  0  0
 23 22  1  0  0  0  0
 24 22  1  0  0  0  0
 25 26  1  0  0  0  0
M  END
>  <minimizedAffinity>
-4.35892534

$$$$

 OpenBabel03252500423D

 26 27  0  0  1  0  0  0  0  0999 V2000
   39.7070   30.4780   42.5800 C   0  0  1  0  0  0  0  0  0  0  0  0
   40.7050   31.4360   41.9790 C   0  0  0  0  0  0  0  0  0  0  0  0
   39.5050   31.0050   41.1960 C   0  0  2  0  0  0  0  0  0  0  0  0
   39.1430   31.0040   43.3800 H   0  0  0  0  0  0  0  0  0  0  0  0
   41.6920   31.0020   41.6490 H   0  0  0  0  0  0  0  0  0  0  0  0
   40.8040   32.4720   42.2870 H   0  0  0  0  0  0  0  0  0  0  0  0
   39.6920   30.2570   40.3750 H   0  0  0  0  0  0  0  0  0  0  0  0
   40.1730   29.0650   42.7330 C   0  0  0  0  0  0  0  0  0  0  0  0
   40.8140   28.8380   41.8340 H   0  0  0  0  0  0  0  0  0  0  0  0
   40.8050   28.9160   43.6210 H   0  0  0  0  0  0  0  0  0  0  0  0
   39.0550   28.0990   42.6610 C   0  0  0  0  0  0  0  0  0  0  0  0
   37.9500   28.4740   43.3930 C   0  0  0  0  0  0  0  0  0  0  0  0
   36.8030   27.6550   43.4450 C   0  0  0  0  0  0  0  0  0  0  0  0
   36.8860   26.4950   42.7290 N   0  0  0  0  0  0  0  0  0  0  0  0
   37.9870   26.1470   42.0130 C   0  0  0  0  0  0  0  0  0  0  0  0
   39.0630   26.9320   41.9740 N   0  0  0  0  0  0  0  0  0  0  0  0
   37.6400   29.3060   44.0060 H   0  0  0  0  0  0  0  0  0  0  0  0
   35.8610   27.7200   43.9210 H   0  0  0  0  0  0  0  0  0  0  0  0
   38.0410   25.2350   41.4520 H   0  0  0  0  0  0  0  0  0  0  0  0
   38.3550   31.8010   41.0010 N   0  0  0  0  0  0  0  0  0  0  0  0
   38.5020   32.6560   40.4550 H   0  0  0  0  0  0  0  0  0  0  0  0
   36.9870   30.9730   40.4040 S   0  0  0  0  0  0  0  0  0  0  0  0
   36.6350   31.6590   39.0900 O   0  0  0  0  0  1  0  0  0  0  0  0
   37.2890   29.5520   40.0390 O   0  0  0  0  0  1  0  0  0  0  0  0
   35.6420   31.0570   41.3670 O   0  0  0  0  0  0  0  0  0  0  0  0
   35.8720   31.3720   42.2750 H   0  0  0  0  0  0  0  0  0  0  0  0
  1  8  1  0  0  0  0
  1  4  1  1  0  0  0
  2  6  1  0  0  0  0
  2  1  1  0  0  0  0
  3  7  1  6  0  0  0
  3  2  1  0  0  0  0
  3  1  1  0  0  0  0
  5  2  1  0  0  0  0
  8 10  1  0  0  0  0
  9  8  1  0  0  0  0
 11  8  1  0  0  0  0
 11 12  1  0  0  0  0
 12 13  2  0  0  0  0
 12 17  1  0  0  0  0
 13 18  1  0  0  0  0
 14 13  1  0  0  0  0
 15 14  2  0  0  0  0
 16 15  1  0  0  0  0
 16 11  2  0  0  0  0
 19 15  1  0  0  0  0
 20  3  1  0  0  0  0
 21 20  1  0  0  0  0
 22 20  1  0  0  0  0
 22 25  1  0  0  0  0
 23 22  1  0  0  0  0
 24 22  1  0  0  0  0
 25 26  1  0  0  0  0
M  END
>  <minimizedAffinity>
-4.28067589

$$$$

 OpenBabel03252500423D

 26 27  0  0  1  0  0  0  0  0999 V2000
   37.8660   31.2540   37.3310 C   0  0  1  0  0  0  0  0  0  0  0  0
   38.0620   32.1210   38.5500 C   0  0  0  0  0  0  0  0  0  0  0  0
   39.2430   31.6290   37.7750 C   0  0  2  0  0  0  0  0  0  0  0  0
   37.4410   31.8760   36.5140 H   0  0  0  0  0  0  0  0  0  0  0  0
   37.8920   31.6350   39.5530 H   0  0  0  0  0  0  0  0  0  0  0  0
   37.8380   33.1820   38.5740 H   0  0  0  0  0  0  0  0  0  0  0  0
   39.8300   30.7910   38.2460 H   0  0  0  0  0  0  0  0  0  0  0  0
   37.3980   29.8580   37.5940 C   0  0  0  0  0  0  0  0  0  0  0  0
   38.1900   29.1700   37.1830 H   0  0  0  0  0  0  0  0  0  0  0  0
   37.3050   29.6320   38.6670 H   0  0  0  0  0  0  0  0  0  0  0  0
   36.1720   29.5300   36.8350 C   0  0  0  0  0  0  0  0  0  0  0  0
   36.3110   29.6630   35.4710 C   0  0  0  0  0  0  0  0  0  0  0  0
   35.2300   29.4050   34.6040 C   0  0  0  0  0  0  0  0  0  0  0  0
   34.0710   29.0250   35.2190 N   0  0  0  0  0  0  0  0  0  0  0  0
   33.9570   28.8990   36.5670 C   0  0  0  0  0  0  0  0  0  0  0  0
   34.9890   29.1470   37.3730 N   0  0  0  0  0  0  0  0  0  0  0  0
   37.0860   29.9230   34.7670 H   0  0  0  0  0  0  0  0  0  0  0  0
   35.0910   29.4360   33.5560 H   0  0  0  0  0  0  0  0  0  0  0  0
   33.0440   28.5980   37.0390 H   0  0  0  0  0  0  0  0  0  0  0  0
   39.9890   32.4200   36.8730 N   0  0  0  0  0  0  0  0  0  0  0  0
   39.5690   33.3240   36.6350 H   0  0  0  0  0  0  0  0  0  0  0  0
   41.6300   32.6440   37.2840 S   0  0  0  0  0  0  0  0  0  0  0  0
   41.6630   32.7300   38.8050 O   0  0  0  0  0  1  0  0  0  0  0  0
   42.4780   31.4580   36.9370 O   0  0  0  0  0  1  0  0  0  0  0  0
   42.3120   34.0390   36.7080 O   0  0  0  0  0  0  0  0  0  0  0  0
   41.7530   34.4440   36.0010 H   0  0  0  0  0  0  0  0  0  0  0  0
  1  4  1  6  0  0  0
  1  8  1  0  0  0  0
  1  3  1  0  0  0  0
  1  2  1  0  0  0  0
  2  6  1  0  0  0  0
  2  5  1  0  0  0  0
  3  7  1  1  0  0  0
  3  2  1  0  0  0  0
  8 10  1  0  0  0  0
  9  8  1  0  0  0  0
 11 16  1  0  0  0  0
 11  8  1  0  0  0  0
 12 11  2  0  0  0  0
 13 14  2  0  0  0  0
 13 12  1  0  0  0  0
 14 15  1  0  0  0  0
 15 19  1  0  0  0  0
 15 16  2  0  0  0  0
 17 12  1  0  0  0  0
 18 13  1  0  0  0  0
 20 22  1  0  0  0  0
 20  3  1  0  0  0  0
 21 20  1  0  0  0  0
 22 23  1  0  0  0  0
 24 22  1  0  0  0  0
 25 22  1  0  0  0  0
 26 25  1  0  0  0  0
M  END
>  <minimizedAffinity>
-4.27486086

$$$$

 OpenBabel03252500423D

 26 27  0  0  1  0  0  0  0  0999 V2000
   35.8190   30.1290   40.4700 C   0  0  1  0  0  0  0  0  0  0  0  0
   34.8160   29.1030   40.0050 C   0  0  0  0  0  0  0  0  0  0  0  0
   36.1030   28.6710   40.6340 C   0  0  2  0  0  0  0  0  0  0  0  0
   35.4160   30.6430   41.3690 H   0  0  0  0  0  0  0  0  0  0  0  0
   34.7320   28.9420   38.8920 H   0  0  0  0  0  0  0  0  0  0  0  0
   33.8770   28.9090   40.5130 H   0  0  0  0  0  0  0  0  0  0  0  0
   36.8840   28.2610   39.9330 H   0  0  0  0  0  0  0  0  0  0  0  0
   36.5420   30.8690   39.3890 C   0  0  0  0  0  0  0  0  0  0  0  0
   37.1250   30.0990   38.8060 H   0  0  0  0  0  0  0  0  0  0  0  0
   35.8620   31.3580   38.6760 H   0  0  0  0  0  0  0  0  0  0  0  0
   37.5610   31.7940   39.9310 C   0  0  0  0  0  0  0  0  0  0  0  0
   37.3590   33.1100   39.5790 C   0  0  0  0  0  0  0  0  0  0  0  0
   38.2510   34.1170   39.9990 C   0  0  0  0  0  0  0  0  0  0  0  0
   39.2980   33.6840   40.7620 N   0  0  0  0  0  0  0  0  0  0  0  0
   39.4760   32.3790   41.0980 C   0  0  0  0  0  0  0  0  0  0  0  0
   38.6230   31.4390   40.6920 N   0  0  0  0  0  0  0  0  0  0  0  0
   36.6370   33.6880   39.0230 H   0  0  0  0  0  0  0  0  0  0  0  0
   38.3100   35.1640   39.8630 H   0  0  0  0  0  0  0  0  0  0  0  0
   40.3000   32.0500   41.6980 H   0  0  0  0  0  0  0  0  0  0  0  0
   36.2240   28.2120   41.9640 N   0  0  0  0  0  0  0  0  0  0  0  0
   35.7390   27.3330   42.1690 H   0  0  0  0  0  0  0  0  0  0  0  0
   37.8190   28.1370   42.5690 S   0  0  0  0  0  0  0  0  0  0  0  0
   37.8860   29.1820   43.6750 O   0  0  0  0  0  1  0  0  0  0  0  0
   38.1180   26.8310   43.2410 O   0  0  0  0  0  1  0  0  0  0  0  0
   39.0010   28.5160   41.4740 O   0  0  0  0  0  0  0  0  0  0  0  0
   38.6510   28.5030   40.5510 H   0  0  0  0  0  0  0  0  0  0  0  0
  1  3  1  0  0  0  0
  1  4  1  1  0  0  0
  2  1  1  0  0  0  0
  2  6  1  0  0  0  0
  2  3  1  0  0  0  0
  3  7  1  6  0  0  0
  3 20  1  0  0  0  0
  5  2  1  0  0  0  0
  8 11  1  0  0  0  0
  8  1  1  0  0  0  0
  9  8  1  0  0  0  0
 10  8  1  0  0  0  0
 11 16  1  0  0  0  0
 12 11  2  0  0  0  0
 12 13  1  0  0  0  0
 13 14  2  0  0  0  0
 14 15  1  0  0  0  0
 15 19  1  0  0  0  0
 16 15  2  0  0  0  0
 17 12  1  0  0  0  0
 18 13  1  0  0  0  0
 20 21  1  0  0  0  0
 20 22  1  0  0  0  0
 22 24  1  0  0  0  0
 22 23  1  0  0  0  0
 25 22  1  0  0  0  0
 26 25  1  0  0  0  0
M  END
>  <minimizedAffinity>
-4.26398325

$$$$

 OpenBabel03252500423D

 26 27  0  0  1  0  0  0  0  0999 V2000
   38.5580   28.9260   41.7860 C   0  0  1  0  0  0  0  0  0  0  0  0
   37.8740   29.2740   40.4870 C   0  0  0  0  0  0  0  0  0  0  0  0
   38.0460   30.3100   41.5520 C   0  0  2  0  0  0  0  0  0  0  0  0
   39.6420   28.7760   41.5920 H   0  0  0  0  0  0  0  0  0  0  0  0
   36.8260   28.8830   40.3420 H   0  0  0  0  0  0  0  0  0  0  0  0
   38.3990   29.3790   39.5430 H   0  0  0  0  0  0  0  0  0  0  0  0
   37.1220   30.5770   42.1380 H   0  0  0  0  0  0  0  0  0  0  0  0
   37.7850   28.0380   42.7090 C   0  0  0  0  0  0  0  0  0  0  0  0
   37.8940   28.4750   43.7430 H   0  0  0  0  0  0  0  0  0  0  0  0
   36.7090   28.0180   42.4840 H   0  0  0  0  0  0  0  0  0  0  0  0
   38.3730   26.6840   42.8010 C   0  0  0  0  0  0  0  0  0  0  0  0
   39.5510   26.6370   43.5120 C   0  0  0  0  0  0  0  0  0  0  0  0
   40.2500   25.4240   43.6780 C   0  0  0  0  0  0  0  0  0  0  0  0
   39.6710   24.3360   43.0880 N   0  0  0  0  0  0  0  0  0  0  0  0
   38.5060   24.4060   42.3930 C   0  0  0  0  0  0  0  0  0  0  0  0
   37.8580   25.5610   42.2450 N   0  0  0  0  0  0  0  0  0  0  0  0
   40.1820   27.3180   44.0610 H   0  0  0  0  0  0  0  0  0  0  0  0
   41.1450   25.1390   44.1630 H   0  0  0  0  0  0  0  0  0  0  0  0
   38.0590   23.5460   41.9360 H   0  0  0  0  0  0  0  0  0  0  0  0
   39.0220   31.3310   41.5190 N   0  0  0  0  0  0  0  0  0  0  0  0
   39.9580   31.0320   41.2270 H   0  0  0  0  0  0  0  0  0  0  0  0
   38.5800   32.7360   40.6550 S   0  0  0  0  0  0  0  0  0  0  0  0
   39.4900   32.7680   39.4340 O   0  0  0  0  0  1  0  0  0  0  0  0
   37.1870   32.6600   40.1070 O   0  0  0  0  0  1  0  0  0  0  0  0
   38.8130   34.1590   41.4670 O   0  0  0  0  0  0  0  0  0  0  0  0
   38.9510   34.0020   42.4330 H   0  0  0  0  0  0  0  0  0  0  0  0
  1  4  1  6  0  0  0
  1  8  1  0  0  0  0
  2  3  1  0  0  0  0
  2  1  1  0  0  0  0
  3  1  1  0  0  0  0
  3  7  1  1  0  0  0
  5  2  1  0  0  0  0
  6  2  1  0  0  0  0
  8 11  1  0  0  0  0
  8  9  1  0  0  0  0
 10  8  1  0  0  0  0
 11 12  1  0  0  0  0
 12 13  2  0  0  0  0
 12 17  1  0  0  0  0
 13 18  1  0  0  0  0
 14 13  1  0  0  0  0
 15 14  2  0  0  0  0
 16 15  1  0  0  0  0
 16 11  2  0  0  0  0
 19 15  1  0  0  0  0
 20  3  1  0  0  0  0
 21 20  1  0  0  0  0
 22 25  1  0  0  0  0
 22 20  1  0  0  0  0
 23 22  1  0  0  0  0
 24 22  1  0  0  0  0
 25 26  1  0  0  0  0
M  END
>  <minimizedAffinity>
-4.18896103

$$$$
