
 OpenBabel03242521153D

 32 33  0  0  0  0  0  0  0  0999 V2000
   44.6100   35.3900   44.9610 C   0  0  0  0  0  0  0  0  0  0  0  0
   45.1770   35.4180   43.6560 C   0  0  0  0  0  0  0  0  0  0  0  0
   46.2370   34.5330   43.4020 C   0  0  0  0  0  0  0  0  0  0  0  0
   46.6640   33.7060   44.4040 N   0  0  0  0  0  0  0  0  0  0  0  0
   46.0950   33.7190   45.6170 C   0  0  0  0  0  0  0  0  0  0  0  0
   45.0730   34.5480   45.9140 N   0  0  0  0  0  0  0  0  0  0  0  0
   43.7920   36.0560   45.1910 H   0  0  0  0  0  0  0  0  0  0  0  0
   44.7930   36.0960   42.9090 H   0  0  0  0  0  0  0  0  0  0  0  0
   46.8120   34.5510   42.1050 N   0  0  0  0  0  0  0  0  0  0  0  0
   47.9910   35.2010   41.9490 C   0  0  0  0  0  0  0  0  0  0  0  0
   48.5870   35.2430   40.6960 C   0  0  0  0  0  0  0  0  0  0  0  0
   47.9370   34.6150   39.6810 C   0  0  0  0  0  0  0  0  0  0  0  0
   48.4660   34.6380   38.5100 O   0  0  0  0  0  0  0  0  0  0  0  0
   46.7670   33.9630   39.8100 N   0  0  0  0  0  0  0  0  0  0  0  0
   46.2330   33.9550   41.0510 C   0  0  0  0  0  0  0  0  0  0  0  0
   45.1580   33.3890   41.2980 O   0  0  0  0  0  0  0  0  0  0  0  0
   48.4450   35.6770   42.8140 H   0  0  0  0  0  0  0  0  0  0  0  0
   49.5180   35.7490   40.5450 H   0  0  0  0  0  0  0  0  0  0  0  0
   46.2890   33.4880   39.0050 H   0  0  0  0  0  0  0  0  0  0  0  0
   46.7270   32.7430   46.5250 C   0  0  0  0  0  0  0  0  0  0  0  0
   46.8880   31.7930   45.9590 H   0  0  0  0  0  0  0  0  0  0  0  0
   47.7200   33.1340   46.8240 H   0  0  0  0  0  0  0  0  0  0  0  0
   45.8730   32.3860   47.7090 C   0  0  0  0  0  0  0  0  0  0  0  0
   46.5620   31.9640   48.4700 H   0  0  0  0  0  0  0  0  0  0  0  0
   45.4010   33.2760   48.1750 H   0  0  0  0  0  0  0  0  0  0  0  0
   44.8630   31.4530   47.3310 N   0  0  0  0  0  0  0  0  0  0  0  0
   43.9220   31.6790   47.6560 H   0  0  0  0  0  0  0  0  0  0  0  0
   45.3050   29.8090   47.6210 S   0  0  0  0  0  0  0  0  0  0  0  0
   44.3760   28.9540   46.7810 O   0  0  0  0  0  0  0  0  0  0  0  0
   46.6950   29.5210   47.1970 O   0  0  0  0  0  0  0  0  0  0  0  0
   45.0480   29.4000   49.2080 O   0  0  0  0  0  0  0  0  0  0  0  0
   44.7670   30.1720   49.7720 H   0  0  0  0  0  0  0  0  0  0  0  0
  1  7  1  0  0  0  0
  1  6  1  0  0  0  0
  2  1  2  0  0  0  0
  3  2  1  0  0  0  0
  3  4  2  0  0  0  0
  4  5  1  0  0  0  0
  5  6  2  0  0  0  0
  5 20  1  0  0  0  0
  8  2  1  0  0  0  0
  9  3  1  0  0  0  0
 10  9  1  0  0  0  0
 10 17  1  0  0  0  0
 11 10  2  0  0  0  0
 12 14  1  0  0  0  0
 12 11  1  0  0  0  0
 13 12  2  0  0  0  0
 14 15  1  0  0  0  0
 15 16  2  0  0  0  0
 15  9  1  0  0  0  0
 18 11  1  0  0  0  0
 19 14  1  0  0  0  0
 20 22  1  0  0  0  0
 20 23  1  0  0  0  0
 21 20  1  0  0  0  0
 23 25  1  0  0  0  0
 23 24  1  0  0  0  0
 26 28  1  0  0  0  0
 26 27  1  0  0  0  0
 26 23  1  0  0  0  0
 28 31  1  0  0  0  0
 29 28  1  0  0  0  0
 30 28  1  0  0  0  0
 31 32  1  0  0  0  0
M  END
>  <minimizedAffinity>
-5.85786104

>  <minimizedRMSD>
1.20621455

$$$$
