
 OpenBabel03252509353D

 42 43  0  0  1  0  0  0  0  0999 V2000
   44.7200   35.3820   44.7630 O   0  0  0  0  0  0  0  0  0  0  0  0
   45.4990   34.0890   44.6120 P   0  0  1  0  0  0  0  0  0  0  0  0
   44.6390   32.9750   43.6690 O   0  0  0  0  0  0  0  0  0  0  0  0
   44.1420   33.5100   42.9910 H   0  0  0  0  0  0  0  0  0  0  0  0
   46.9580   34.4470   43.8820 O   0  0  0  0  0  0  0  0  0  0  0  0
   47.0190   33.8320   42.6250 C   0  0  1  0  0  0  0  0  0  0  0  0
   46.3750   34.7370   41.5720 C   0  0  0  0  0  0  0  0  0  0  0  0
   46.8120   34.0490   40.3070 C   0  0  0  0  0  0  0  0  0  0  0  0
   48.1220   33.3580   40.6370 C   0  0  0  0  0  0  0  0  0  0  0  0
   48.4090   33.7260   42.0800 C   0  0  1  0  0  0  0  0  0  0  0  0
   46.4980   32.8780   42.5730 H   0  0  0  0  0  0  0  0  0  0  0  0
   46.6460   35.7840   41.6630 H   0  0  0  0  0  0  0  0  0  0  0  0
   45.2770   34.6520   41.6320 H   0  0  0  0  0  0  0  0  0  0  0  0
   46.0520   33.2850   40.0050 H   0  0  0  0  0  0  0  0  0  0  0  0
   46.8920   34.7720   39.4890 H   0  0  0  0  0  0  0  0  0  0  0  0
   48.0170   32.2430   40.5660 H   0  0  0  0  0  0  0  0  0  0  0  0
   48.9310   33.6710   39.9590 H   0  0  0  0  0  0  0  0  0  0  0  0
   48.9500   32.8740   42.5640 H   0  0  0  0  0  0  0  0  0  0  0  0
   49.1790   35.0170   42.1800 C   0  0  0  0  0  0  0  0  0  0  0  0
   49.7510   35.1720   41.2260 H   0  0  0  0  0  0  0  0  0  0  0  0
   48.5380   35.9190   42.2820 H   0  0  0  0  0  0  0  0  0  0  0  0
   50.0370   35.0350   43.2570 O   0  0  0  0  0  0  0  0  0  0  0  0
   50.9530   34.8240   42.9100 H   0  0  0  0  0  0  0  0  0  0  0  0
   45.7380   33.3660   46.0960 O   0  0  0  0  0  0  0  0  0  0  0  0
   46.2370   32.1160   45.9080 C   0  0  0  0  0  0  0  0  0  0  0  0
   46.0740   31.6320   44.9500 H   0  0  0  0  0  0  0  0  0  0  0  0
   47.3610   32.1890   46.0130 H   0  0  0  0  0  0  0  0  0  0  0  0
   45.2980   30.7290   49.2290 C   0  0  0  0  0  0  0  0  0  0  0  0
   45.6970   31.6560   48.2610 C   0  0  0  0  0  0  0  0  0  0  0  0
   45.8160   31.1710   46.9550 C   0  0  0  0  0  0  0  0  0  0  0  0
   45.5450   29.8530   46.7000 N   0  0  0  0  0  0  0  0  0  0  0  0
   45.1630   28.9900   47.6650 C   0  0  0  0  0  0  0  0  0  0  0  0
   45.0430   29.4290   48.9110 N   0  0  0  0  0  0  0  0  0  0  0  0
   45.2010   31.0940   50.2500 H   0  0  0  0  0  0  0  0  0  0  0  0
   45.8870   32.6670   48.5500 H   0  0  0  0  0  0  0  0  0  0  0  0
   44.8990   27.6330   47.3250 N   0  0  0  0  0  0  0  0  0  0  0  0
   44.7680   27.3550   46.3270 H   0  0  0  0  0  0  0  0  0  0  0  0
   44.7830   26.4070   48.5380 S   0  0  0  0  0  0  0  0  0  0  0  0
   44.0020   26.9190   49.7130 O   0  0  0  0  0  1  0  0  0  0  0  0
   44.1120   25.2170   47.9130 O   0  0  0  0  0  1  0  0  0  0  0  0
   46.3530   26.0180   49.0330 O   0  0  0  0  0  0  0  0  0  0  0  0
   46.9150   26.8410   49.0680 H   0  0  0  0  0  0  0  0  0  0  0  0
  2  1  2  1  0  0  0
  2 24  1  0  0  0  0
  3  2  1  0  0  0  0
  4  3  1  0  0  0  0
  5  2  1  0  0  0  0
  6 11  1  1  0  0  0
  6  5  1  0  0  0  0
  7 13  1  0  0  0  0
  7 12  1  0  0  0  0
  7  6  1  0  0  0  0
  8  9  1  0  0  0  0
  8  7  1  0  0  0  0
  9 10  1  0  0  0  0
 10 19  1  0  0  0  0
 10 18  1  1  0  0  0
 10  6  1  0  0  0  0
 14  8  1  0  0  0  0
 15  8  1  0  0  0  0
 16  9  1  0  0  0  0
 17  9  1  0  0  0  0
 19 21  1  0  0  0  0
 19 22  1  0  0  0  0
 20 19  1  0  0  0  0
 23 22  1  0  0  0  0
 25 27  1  0  0  0  0
 25 24  1  0  0  0  0
 25 30  1  0  0  0  0
 26 25  1  0  0  0  0
 28 34  1  0  0  0  0
 29 35  1  0  0  0  0
 29 28  2  0  0  0  0
 30 29  1  0  0  0  0
 31 30  2  0  0  0  0
 31 32  1  0  0  0  0
 32 33  2  0  0  0  0
 33 28  1  0  0  0  0
 36 32  1  0  0  0  0
 36 38  1  0  0  0  0
 37 36  1  0  0  0  0
 38 41  1  0  0  0  0
 38 39  1  0  0  0  0
 40 38  1  0  0  0  0
 41 42  1  0  0  0  0
M  END
>  <minimizedAffinity>
-5.75473166

>  <minimizedRMSD>
1.17072046

$$$$
