
 OpenBabel03252508433D

 29 30  0  0  0  0  0  0  0  0999 V2000
   37.2390   31.0380   38.5010 C   0  0  0  0  0  0  0  0  0  0  0  0
   36.3230   30.2910   39.2320 C   0  0  0  0  0  0  0  0  0  0  0  0
   35.5610   29.3500   38.5700 C   0  0  0  0  0  0  0  0  0  0  0  0
   35.7150   29.1680   37.2270 C   0  0  0  0  0  0  0  0  0  0  0  0
   36.6030   29.8840   36.4790 C   0  0  0  0  0  0  0  0  0  0  0  0
   37.3500   30.8210   37.1820 C   0  0  0  0  0  0  0  0  0  0  0  0
   34.8320   28.7370   39.0800 H   0  0  0  0  0  0  0  0  0  0  0  0
   35.1160   28.4280   36.7010 H   0  0  0  0  0  0  0  0  0  0  0  0
   36.7880   29.8040   35.4160 H   0  0  0  0  0  0  0  0  0  0  0  0
   38.0920   31.4480   36.6820 H   0  0  0  0  0  0  0  0  0  0  0  0
   38.4090   34.1610   40.2710 C   0  0  0  0  0  0  0  0  0  0  0  0
   37.5720   33.2930   39.5420 C   0  0  0  0  0  0  0  0  0  0  0  0
   38.0180   32.0180   39.2480 C   0  0  0  0  0  0  0  0  0  0  0  0
   39.2540   31.6720   39.6830 N   0  0  0  0  0  0  0  0  0  0  0  0
   40.0510   32.5130   40.3820 C   0  0  0  0  0  0  0  0  0  0  0  0
   39.6260   33.7530   40.6740 N   0  0  0  0  0  0  0  0  0  0  0  0
   37.9210   35.1140   40.4200 H   0  0  0  0  0  0  0  0  0  0  0  0
   36.5890   33.5150   39.1750 H   0  0  0  0  0  0  0  0  0  0  0  0
   41.0330   32.2240   40.7230 H   0  0  0  0  0  0  0  0  0  0  0  0
   36.1750   30.5080   40.6990 C   0  0  0  0  0  0  0  0  0  0  0  0
   35.3980   31.3070   40.8070 H   0  0  0  0  0  0  0  0  0  0  0  0
   37.1110   30.8900   41.1050 H   0  0  0  0  0  0  0  0  0  0  0  0
   35.6980   29.3630   41.4180 N   0  0  0  0  0  0  0  0  0  0  0  0
   34.8730   29.5150   41.9910 H   0  0  0  0  0  0  0  0  0  0  0  0
   36.9630   28.5120   42.2170 S   0  0  0  0  0  0  0  0  0  0  0  0
   38.2330   28.5750   41.4180 O   0  0  0  0  0  1  0  0  0  0  0  0
   36.5940   27.1060   42.5030 O   0  0  0  0  0  1  0  0  0  0  0  0
   37.2190   29.3240   43.6790 O   0  0  0  0  0  0  0  0  0  0  0  0
   37.3450   30.2970   43.5330 H   0  0  0  0  0  0  0  0  0  0  0  0
  1  2  1  0  0  0  0
  1 13  1  0  0  0  0
  2 20  1  0  0  0  0
  3  7  1  0  0  0  0
  3  2  2  0  0  0  0
  4  3  1  0  0  0  0
  5  6  1  0  0  0  0
  5  4  2  0  0  0  0
  6  1  2  0  0  0  0
  8  4  1  0  0  0  0
  9  5  1  0  0  0  0
 10  6  1  0  0  0  0
 11 17  1  0  0  0  0
 11 16  1  0  0  0  0
 12 11  2  0  0  0  0
 13 12  1  0  0  0  0
 13 14  2  0  0  0  0
 14 15  1  0  0  0  0
 15 16  2  0  0  0  0
 15 19  1  0  0  0  0
 18 12  1  0  0  0  0
 20 21  1  0  0  0  0
 20 22  1  0  0  0  0
 20 23  1  0  0  0  0
 23 24  1  0  0  0  0
 23 25  1  0  0  0  0
 25 27  1  0  0  0  0
 25 28  1  0  0  0  0
 26 25  1  0  0  0  0
 29 28  1  0  0  0  0
M  END
>  <minimizedAffinity>
-5.25338745

$$$$

 OpenBabel03252508433D

 29 30  0  0  0  0  0  0  0  0999 V2000
   37.1380   28.7120   39.8280 C   0  0  0  0  0  0  0  0  0  0  0  0
   36.6970   30.0240   39.7050 C   0  0  0  0  0  0  0  0  0  0  0  0
   36.3550   30.4910   38.4510 C   0  0  0  0  0  0  0  0  0  0  0  0
   36.4530   29.6700   37.3660 C   0  0  0  0  0  0  0  0  0  0  0  0
   36.8820   28.3780   37.4510 C   0  0  0  0  0  0  0  0  0  0  0  0
   37.2160   27.9470   38.7280 C   0  0  0  0  0  0  0  0  0  0  0  0
   36.0070   31.5000   38.2880 H   0  0  0  0  0  0  0  0  0  0  0  0
   36.1850   30.0340   36.3770 H   0  0  0  0  0  0  0  0  0  0  0  0
   36.9880   27.6620   36.6460 H   0  0  0  0  0  0  0  0  0  0  0  0
   37.5700   26.9300   38.9110 H   0  0  0  0  0  0  0  0  0  0  0  0
   37.0120   27.4230   43.3740 C   0  0  0  0  0  0  0  0  0  0  0  0
   36.5640   27.8260   42.1000 C   0  0  0  0  0  0  0  0  0  0  0  0
   37.4870   28.2690   41.1720 C   0  0  0  0  0  0  0  0  0  0  0  0
   38.7900   28.2910   41.5460 N   0  0  0  0  0  0  0  0  0  0  0  0
   39.2100   27.9000   42.7710 C   0  0  0  0  0  0  0  0  0  0  0  0
   38.3210   27.4680   43.6800 N   0  0  0  0  0  0  0  0  0  0  0  0
   36.1760   27.1050   43.9810 H   0  0  0  0  0  0  0  0  0  0  0  0
   35.5490   27.8300   41.7540 H   0  0  0  0  0  0  0  0  0  0  0  0
   40.2510   27.9210   43.0550 H   0  0  0  0  0  0  0  0  0  0  0  0
   36.5980   30.9010   40.9050 C   0  0  0  0  0  0  0  0  0  0  0  0
   37.3870   30.5340   41.6100 H   0  0  0  0  0  0  0  0  0  0  0  0
   35.6280   30.7560   41.3800 H   0  0  0  0  0  0  0  0  0  0  0  0
   36.8780   32.2840   40.6490 N   0  0  0  0  0  0  0  0  0  0  0  0
   36.3820   32.6950   39.8640 H   0  0  0  0  0  0  0  0  0  0  0  0
   38.5640   32.6300   40.6760 S   0  0  0  0  0  0  0  0  0  0  0  0
   39.1150   32.7010   39.2810 O   0  0  0  0  0  1  0  0  0  0  0  0
   39.3210   31.6480   41.4880 O   0  0  0  0  0  1  0  0  0  0  0  0
   38.7140   34.1610   41.3810 O   0  0  0  0  0  0  0  0  0  0  0  0
   38.1190   34.8210   40.9390 H   0  0  0  0  0  0  0  0  0  0  0  0
  1 13  1  0  0  0  0
  2  1  1  0  0  0  0
  2 20  1  0  0  0  0
  3  2  2  0  0  0  0
  4  5  2  0  0  0  0
  4  3  1  0  0  0  0
  5  6  1  0  0  0  0
  6 10  1  0  0  0  0
  6  1  2  0  0  0  0
  7  3  1  0  0  0  0
  8  4  1  0  0  0  0
  9  5  1  0  0  0  0
 11 16  1  0  0  0  0
 11 17  1  0  0  0  0
 12 11  2  0  0  0  0
 13 14  2  0  0  0  0
 13 12  1  0  0  0  0
 14 15  1  0  0  0  0
 15 19  1  0  0  0  0
 15 16  2  0  0  0  0
 18 12  1  0  0  0  0
 20 22  1  0  0  0  0
 20 21  1  0  0  0  0
 23 25  1  0  0  0  0
 23 20  1  0  0  0  0
 24 23  1  0  0  0  0
 25 28  1  0  0  0  0
 25 27  1  0  0  0  0
 26 25  1  0  0  0  0
 29 28  1  0  0  0  0
M  END
>  <minimizedAffinity>
-5.07086992

$$$$

 OpenBabel03252508433D

 29 30  0  0  0  0  0  0  0  0999 V2000
   36.3700   27.3890   39.8820 C   0  0  0  0  0  0  0  0  0  0  0  0
   36.0510   28.3970   40.7850 C   0  0  0  0  0  0  0  0  0  0  0  0
   36.3470   28.2040   42.1200 C   0  0  0  0  0  0  0  0  0  0  0  0
   36.9400   27.0460   42.5280 C   0  0  0  0  0  0  0  0  0  0  0  0
   37.2660   26.0380   41.6700 C   0  0  0  0  0  0  0  0  0  0  0  0
   36.9520   26.2690   40.3370 C   0  0  0  0  0  0  0  0  0  0  0  0
   36.1240   28.9470   42.8720 H   0  0  0  0  0  0  0  0  0  0  0  0
   37.1740   26.8910   43.5790 H   0  0  0  0  0  0  0  0  0  0  0  0
   37.7360   25.0920   41.9080 H   0  0  0  0  0  0  0  0  0  0  0  0
   37.1710   25.5290   39.5640 H   0  0  0  0  0  0  0  0  0  0  0  0
   36.5120   28.3060   36.2230 C   0  0  0  0  0  0  0  0  0  0  0  0
   36.9440   28.0940   37.5470 C   0  0  0  0  0  0  0  0  0  0  0  0
   36.0360   27.6420   38.4860 C   0  0  0  0  0  0  0  0  0  0  0  0
   34.7630   27.4250   38.0730 N   0  0  0  0  0  0  0  0  0  0  0  0
   34.3580   27.6320   36.7980 C   0  0  0  0  0  0  0  0  0  0  0  0
   35.2330   28.0700   35.8780 N   0  0  0  0  0  0  0  0  0  0  0  0
   37.3330   28.6570   35.6130 H   0  0  0  0  0  0  0  0  0  0  0  0
   37.9350   28.2490   37.9260 H   0  0  0  0  0  0  0  0  0  0  0  0
   33.3420   27.4540   36.4820 H   0  0  0  0  0  0  0  0  0  0  0  0
   35.4040   29.6540   40.3130 C   0  0  0  0  0  0  0  0  0  0  0  0
   34.3080   29.5100   40.4900 H   0  0  0  0  0  0  0  0  0  0  0  0
   35.5620   29.7610   39.2410 H   0  0  0  0  0  0  0  0  0  0  0  0
   35.7940   30.8250   41.0420 N   0  0  0  0  0  0  0  0  0  0  0  0
   35.0460   31.4770   41.2600 H   0  0  0  0  0  0  0  0  0  0  0  0
   37.2050   31.5650   40.3920 S   0  0  0  0  0  0  0  0  0  0  0  0
   37.4340   31.1220   38.9750 O   0  0  0  0  0  1  0  0  0  0  0  0
   38.4040   31.3020   41.2220 O   0  0  0  0  0  1  0  0  0  0  0  0
   36.8960   33.2290   40.3800 O   0  0  0  0  0  0  0  0  0  0  0  0
   36.0300   33.4310   39.9400 H   0  0  0  0  0  0  0  0  0  0  0  0
  1  6  2  0  0  0  0
  1  2  1  0  0  0  0
  2  3  2  0  0  0  0
  3  4  1  0  0  0  0
  3  7  1  0  0  0  0
  4  8  1  0  0  0  0
  5  9  1  0  0  0  0
  5  4  2  0  0  0  0
  6  5  1  0  0  0  0
 10  6  1  0  0  0  0
 11 12  1  0  0  0  0
 12 18  1  0  0  0  0
 12 13  2  0  0  0  0
 13  1  1  0  0  0  0
 14 13  1  0  0  0  0
 15 14  2  0  0  0  0
 16 11  2  0  0  0  0
 16 15  1  0  0  0  0
 17 11  1  0  0  0  0
 19 15  1  0  0  0  0
 20 21  1  0  0  0  0
 20  2  1  0  0  0  0
 20 23  1  0  0  0  0
 22 20  1  0  0  0  0
 23 24  1  0  0  0  0
 25 23  1  0  0  0  0
 25 27  1  0  0  0  0
 26 25  1  0  0  0  0
 28 25  1  0  0  0  0
 29 28  1  0  0  0  0
M  END
>  <minimizedAffinity>
-4.97402477

$$$$

 OpenBabel03252508433D

 29 30  0  0  0  0  0  0  0  0999 V2000
   36.9330   27.8570   40.2630 C   0  0  0  0  0  0  0  0  0  0  0  0
   36.0660   28.9430   40.3020 C   0  0  0  0  0  0  0  0  0  0  0  0
   35.0650   29.0230   39.3550 C   0  0  0  0  0  0  0  0  0  0  0  0
   34.9420   28.0500   38.4070 C   0  0  0  0  0  0  0  0  0  0  0  0
   35.7750   26.9720   38.3390 C   0  0  0  0  0  0  0  0  0  0  0  0
   36.7680   26.9280   39.3090 C   0  0  0  0  0  0  0  0  0  0  0  0
   34.3600   29.8410   39.3300 H   0  0  0  0  0  0  0  0  0  0  0  0
   34.1550   28.1100   37.6580 H   0  0  0  0  0  0  0  0  0  0  0  0
   35.7480   26.1590   37.6240 H   0  0  0  0  0  0  0  0  0  0  0  0
   37.4900   26.1090   39.3480 H   0  0  0  0  0  0  0  0  0  0  0  0
   40.1630   28.2640   42.1730 C   0  0  0  0  0  0  0  0  0  0  0  0
   39.2340   28.3570   41.1180 C   0  0  0  0  0  0  0  0  0  0  0  0
   37.9720   27.8210   41.2840 C   0  0  0  0  0  0  0  0  0  0  0  0
   37.6950   27.2280   42.4720 N   0  0  0  0  0  0  0  0  0  0  0  0
   38.5940   27.1450   43.4800 C   0  0  0  0  0  0  0  0  0  0  0  0
   39.8240   27.6630   43.3280 N   0  0  0  0  0  0  0  0  0  0  0  0
   41.0980   28.7270   41.8900 H   0  0  0  0  0  0  0  0  0  0  0  0
   39.4000   28.8130   40.1610 H   0  0  0  0  0  0  0  0  0  0  0  0
   38.3610   26.6710   44.4210 H   0  0  0  0  0  0  0  0  0  0  0  0
   36.2210   29.9930   41.3490 C   0  0  0  0  0  0  0  0  0  0  0  0
   37.2930   29.9420   41.6680 H   0  0  0  0  0  0  0  0  0  0  0  0
   35.6010   29.7400   42.2090 H   0  0  0  0  0  0  0  0  0  0  0  0
   35.9880   31.3280   40.8820 N   0  0  0  0  0  0  0  0  0  0  0  0
   35.1470   31.4600   40.3280 H   0  0  0  0  0  0  0  0  0  0  0  0
   37.3980   32.0440   40.2030 S   0  0  0  0  0  0  0  0  0  0  0  0
   37.6650   31.4960   38.8310 O   0  0  0  0  0  1  0  0  0  0  0  0
   38.5840   31.8710   41.0750 O   0  0  0  0  0  1  0  0  0  0  0  0
   37.0580   33.6950   40.0550 O   0  0  0  0  0  0  0  0  0  0  0  0
   36.1970   33.8440   39.5830 H   0  0  0  0  0  0  0  0  0  0  0  0
  1  2  1  0  0  0  0
  1 13  1  0  0  0  0
  2 20  1  0  0  0  0
  3  2  2  0  0  0  0
  4  3  1  0  0  0  0
  5  4  2  0  0  0  0
  5  6  1  0  0  0  0
  6 10  1  0  0  0  0
  6  1  2  0  0  0  0
  7  3  1  0  0  0  0
  8  4  1  0  0  0  0
  9  5  1  0  0  0  0
 11 16  1  0  0  0  0
 12 13  1  0  0  0  0
 12 11  2  0  0  0  0
 13 14  2  0  0  0  0
 14 15  1  0  0  0  0
 15 19  1  0  0  0  0
 16 15  2  0  0  0  0
 17 11  1  0  0  0  0
 18 12  1  0  0  0  0
 20 21  1  0  0  0  0
 20 22  1  0  0  0  0
 23 20  1  0  0  0  0
 24 23  1  0  0  0  0
 25 23  1  0  0  0  0
 25 27  1  0  0  0  0
 26 25  1  0  0  0  0
 28 25  1  0  0  0  0
 29 28  1  0  0  0  0
M  END
>  <minimizedAffinity>
-4.94605446

$$$$

 OpenBabel03252508433D

 29 30  0  0  0  0  0  0  0  0999 V2000
   36.9240   28.2860   40.9160 C   0  0  0  0  0  0  0  0  0  0  0  0
   37.1990   29.2560   41.8730 C   0  0  0  0  0  0  0  0  0  0  0  0
   37.4520   28.8510   43.1690 C   0  0  0  0  0  0  0  0  0  0  0  0
   37.4300   27.5250   43.4870 C   0  0  0  0  0  0  0  0  0  0  0  0
   37.1640   26.5480   42.5740 C   0  0  0  0  0  0  0  0  0  0  0  0
   36.9140   26.9950   41.2830 C   0  0  0  0  0  0  0  0  0  0  0  0
   37.6710   29.5540   43.9590 H   0  0  0  0  0  0  0  0  0  0  0  0
   37.6280   27.2020   44.5070 H   0  0  0  0  0  0  0  0  0  0  0  0
   37.1270   25.4790   42.7400 H   0  0  0  0  0  0  0  0  0  0  0  0
   36.6910   26.2980   40.4720 H   0  0  0  0  0  0  0  0  0  0  0  0
   35.2660   29.3130   37.6840 C   0  0  0  0  0  0  0  0  0  0  0  0
   35.4040   28.8330   39.0020 C   0  0  0  0  0  0  0  0  0  0  0  0
   36.6640   28.7650   39.5650 C   0  0  0  0  0  0  0  0  0  0  0  0
   37.7110   29.1710   38.8050 N   0  0  0  0  0  0  0  0  0  0  0  0
   37.5690   29.6310   37.5410 C   0  0  0  0  0  0  0  0  0  0  0  0
   36.3480   29.7010   36.9850 N   0  0  0  0  0  0  0  0  0  0  0  0
   34.2260   29.3050   37.3900 H   0  0  0  0  0  0  0  0  0  0  0  0
   34.6120   28.5000   39.6440 H   0  0  0  0  0  0  0  0  0  0  0  0
   38.4110   29.9510   36.9470 H   0  0  0  0  0  0  0  0  0  0  0  0
   37.2180   30.6980   41.5000 C   0  0  0  0  0  0  0  0  0  0  0  0
   36.8620   31.2470   42.4080 H   0  0  0  0  0  0  0  0  0  0  0  0
   36.5030   30.8730   40.6970 H   0  0  0  0  0  0  0  0  0  0  0  0
   38.5220   31.2080   41.1890 N   0  0  0  0  0  0  0  0  0  0  0  0
   39.1730   31.2540   41.9660 H   0  0  0  0  0  0  0  0  0  0  0  0
   38.4580   32.6420   40.2390 S   0  0  0  0  0  0  0  0  0  0  0  0
   37.1180   32.7820   39.5760 O   0  0  0  0  0  1  0  0  0  0  0  0
   39.5470   32.6930   39.2350 O   0  0  0  0  0  1  0  0  0  0  0  0
   38.6470   33.9280   41.3230 O   0  0  0  0  0  0  0  0  0  0  0  0
   38.0120   33.8540   42.0820 H   0  0  0  0  0  0  0  0  0  0  0  0
  1  6  2  0  0  0  0
  1  2  1  0  0  0  0
  2  3  2  0  0  0  0
  3  4  1  0  0  0  0
  3  7  1  0  0  0  0
  4  8  1  0  0  0  0
  5  9  1  0  0  0  0
  5  4  2  0  0  0  0
  6  5  1  0  0  0  0
 10  6  1  0  0  0  0
 11 12  1  0  0  0  0
 12 13  2  0  0  0  0
 12 18  1  0  0  0  0
 13  1  1  0  0  0  0
 14 13  1  0  0  0  0
 15 14  2  0  0  0  0
 16 15  1  0  0  0  0
 16 11  2  0  0  0  0
 17 11  1  0  0  0  0
 19 15  1  0  0  0  0
 20  2  1  0  0  0  0
 20 21  1  0  0  0  0
 22 20  1  0  0  0  0
 23 20  1  0  0  0  0
 23 24  1  0  0  0  0
 25 23  1  0  0  0  0
 25 28  1  0  0  0  0
 26 25  1  0  0  0  0
 27 25  1  0  0  0  0
 28 29  1  0  0  0  0
M  END
>  <minimizedAffinity>
-4.85417795

$$$$

 OpenBabel03252508433D

 29 30  0  0  0  0  0  0  0  0999 V2000
   36.7280   30.6280   39.0220 C   0  0  0  0  0  0  0  0  0  0  0  0
   36.0410   30.0150   40.0630 C   0  0  0  0  0  0  0  0  0  0  0  0
   35.0850   29.0670   39.7560 C   0  0  0  0  0  0  0  0  0  0  0  0
   34.8320   28.7490   38.4540 C   0  0  0  0  0  0  0  0  0  0  0  0
   35.4870   29.3300   37.4080 C   0  0  0  0  0  0  0  0  0  0  0  0
   36.4390   30.2780   37.7590 C   0  0  0  0  0  0  0  0  0  0  0  0
   34.5160   28.5550   40.5190 H   0  0  0  0  0  0  0  0  0  0  0  0
   34.0790   28.0020   38.2090 H   0  0  0  0  0  0  0  0  0  0  0  0
   35.3490   29.1370   36.3520 H   0  0  0  0  0  0  0  0  0  0  0  0
   37.0230   30.8050   37.0010 H   0  0  0  0  0  0  0  0  0  0  0  0
   38.4760   33.8250   40.0050 C   0  0  0  0  0  0  0  0  0  0  0  0
   37.4320   32.9490   39.6470 C   0  0  0  0  0  0  0  0  0  0  0  0
   37.7240   31.6210   39.3990 C   0  0  0  0  0  0  0  0  0  0  0  0
   39.0180   31.2320   39.5170 N   0  0  0  0  0  0  0  0  0  0  0  0
   40.0140   32.0820   39.8620 C   0  0  0  0  0  0  0  0  0  0  0  0
   39.7400   33.3730   40.1050 N   0  0  0  0  0  0  0  0  0  0  0  0
   38.0900   34.8220   40.1650 H   0  0  0  0  0  0  0  0  0  0  0  0
   36.3960   33.2030   39.5400 H   0  0  0  0  0  0  0  0  0  0  0  0
   41.0390   31.7580   39.9530 H   0  0  0  0  0  0  0  0  0  0  0  0
   36.3360   30.3800   41.4780 C   0  0  0  0  0  0  0  0  0  0  0  0
   35.3860   30.8130   41.8800 H   0  0  0  0  0  0  0  0  0  0  0  0
   37.0980   31.1590   41.4990 H   0  0  0  0  0  0  0  0  0  0  0  0
   36.6730   29.2650   42.3150 N   0  0  0  0  0  0  0  0  0  0  0  0
   36.1480   29.1900   43.1800 H   0  0  0  0  0  0  0  0  0  0  0  0
   38.3730   29.0750   42.5050 S   0  0  0  0  0  0  0  0  0  0  0  0
   38.6800   28.0090   43.5170 O   0  0  0  0  0  1  0  0  0  0  0  0
   39.0380   30.3490   42.8690 O   0  0  0  0  0  1  0  0  0  0  0  0
   38.9560   28.5590   41.0030 O   0  0  0  0  0  0  0  0  0  0  0  0
   38.4440   27.7780   40.6670 H   0  0  0  0  0  0  0  0  0  0  0  0
  1 13  1  0  0  0  0
  1  2  1  0  0  0  0
  2 20  1  0  0  0  0
  3  2  2  0  0  0  0
  3  7  1  0  0  0  0
  4  3  1  0  0  0  0
  5  6  1  0  0  0  0
  5  4  2  0  0  0  0
  6  1  2  0  0  0  0
  8  4  1  0  0  0  0
  9  5  1  0  0  0  0
 10  6  1  0  0  0  0
 11 16  1  0  0  0  0
 11 17  1  0  0  0  0
 12 11  2  0  0  0  0
 13 14  2  0  0  0  0
 13 12  1  0  0  0  0
 14 15  1  0  0  0  0
 15 19  1  0  0  0  0
 15 16  2  0  0  0  0
 18 12  1  0  0  0  0
 20 22  1  0  0  0  0
 20 21  1  0  0  0  0
 20 23  1  0  0  0  0
 23 25  1  0  0  0  0
 23 24  1  0  0  0  0
 25 27  1  0  0  0  0
 25 26  1  0  0  0  0
 28 25  1  0  0  0  0
 29 28  1  0  0  0  0
M  END
>  <minimizedAffinity>
-4.85281467

$$$$

 OpenBabel03252508433D

 29 30  0  0  0  0  0  0  0  0999 V2000
   36.7850   28.1090   41.3010 C   0  0  0  0  0  0  0  0  0  0  0  0
   37.6690   29.1790   41.3730 C   0  0  0  0  0  0  0  0  0  0  0  0
   38.2670   29.4610   42.5850 C   0  0  0  0  0  0  0  0  0  0  0  0
   37.9870   28.6970   43.6800 C   0  0  0  0  0  0  0  0  0  0  0  0
   37.1250   27.6400   43.6450 C   0  0  0  0  0  0  0  0  0  0  0  0
   36.5440   27.3900   42.4080 C   0  0  0  0  0  0  0  0  0  0  0  0
   38.9620   30.2790   42.7080 H   0  0  0  0  0  0  0  0  0  0  0  0
   38.4550   28.9160   44.6360 H   0  0  0  0  0  0  0  0  0  0  0  0
   36.8470   26.9860   44.4610 H   0  0  0  0  0  0  0  0  0  0  0  0
   35.8390   26.5670   42.2660 H   0  0  0  0  0  0  0  0  0  0  0  0
   35.9030   26.6650   37.9270 C   0  0  0  0  0  0  0  0  0  0  0  0
   36.5550   26.8180   39.1670 C   0  0  0  0  0  0  0  0  0  0  0  0
   36.1810   27.8550   40.0000 C   0  0  0  0  0  0  0  0  0  0  0  0
   35.1930   28.6780   39.5700 N   0  0  0  0  0  0  0  0  0  0  0  0
   34.5730   28.5230   38.3770 C   0  0  0  0  0  0  0  0  0  0  0  0
   34.9290   27.5180   37.5610 N   0  0  0  0  0  0  0  0  0  0  0  0
   36.3060   25.8150   37.3950 H   0  0  0  0  0  0  0  0  0  0  0  0
   37.3400   26.1980   39.5540 H   0  0  0  0  0  0  0  0  0  0  0  0
   33.7870   29.1850   38.0470 H   0  0  0  0  0  0  0  0  0  0  0  0
   37.9590   29.9990   40.1630 C   0  0  0  0  0  0  0  0  0  0  0  0
   37.7240   29.3370   39.2900 H   0  0  0  0  0  0  0  0  0  0  0  0
   39.0230   30.2330   40.1310 H   0  0  0  0  0  0  0  0  0  0  0  0
   37.1390   31.1680   40.0330 N   0  0  0  0  0  0  0  0  0  0  0  0
   36.4160   31.1210   39.3220 H   0  0  0  0  0  0  0  0  0  0  0  0
   38.0630   32.6200   40.0020 S   0  0  0  0  0  0  0  0  0  0  0  0
   38.9790   32.6420   38.8120 O   0  0  0  0  0  1  0  0  0  0  0  0
   38.8290   32.8180   41.2550 O   0  0  0  0  0  1  0  0  0  0  0  0
   36.9460   33.8800   39.8320 O   0  0  0  0  0  0  0  0  0  0  0  0
   36.3300   33.7140   39.0710 H   0  0  0  0  0  0  0  0  0  0  0  0
  1  2  2  0  0  0  0
  1  6  1  0  0  0  0
  2  3  1  0  0  0  0
  3  7  1  0  0  0  0
  3  4  2  0  0  0  0
  4  8  1  0  0  0  0
  5  4  1  0  0  0  0
  5  9  1  0  0  0  0
  6  5  2  0  0  0  0
 10  6  1  0  0  0  0
 11 12  1  0  0  0  0
 12 18  1  0  0  0  0
 12 13  2  0  0  0  0
 13  1  1  0  0  0  0
 14 13  1  0  0  0  0
 15 14  2  0  0  0  0
 16 11  2  0  0  0  0
 16 15  1  0  0  0  0
 17 11  1  0  0  0  0
 19 15  1  0  0  0  0
 20  2  1  0  0  0  0
 21 20  1  0  0  0  0
 22 20  1  0  0  0  0
 23 20  1  0  0  0  0
 24 23  1  0  0  0  0
 25 23  1  0  0  0  0
 25 27  1  0  0  0  0
 26 25  1  0  0  0  0
 28 25  1  0  0  0  0
 29 28  1  0  0  0  0
M  END
>  <minimizedAffinity>
-4.78681517

$$$$

 OpenBabel03252508433D

 29 30  0  0  0  0  0  0  0  0999 V2000
   36.6100   27.1210   40.2890 C   0  0  0  0  0  0  0  0  0  0  0  0
   36.2450   28.1710   41.1240 C   0  0  0  0  0  0  0  0  0  0  0  0
   35.4120   29.1520   40.6250 C   0  0  0  0  0  0  0  0  0  0  0  0
   34.9640   29.0800   39.3380 C   0  0  0  0  0  0  0  0  0  0  0  0
   35.3020   28.0640   38.4920 C   0  0  0  0  0  0  0  0  0  0  0  0
   36.1420   27.0980   39.0320 C   0  0  0  0  0  0  0  0  0  0  0  0
   35.0920   29.9940   41.2220 H   0  0  0  0  0  0  0  0  0  0  0  0
   34.3080   29.8510   38.9420 H   0  0  0  0  0  0  0  0  0  0  0  0
   34.9940   27.9300   37.4640 H   0  0  0  0  0  0  0  0  0  0  0  0
   36.4740   26.2410   38.4430 H   0  0  0  0  0  0  0  0  0  0  0  0
   37.9860   24.0970   42.0810 C   0  0  0  0  0  0  0  0  0  0  0  0
   37.0440   25.0100   41.5660 C   0  0  0  0  0  0  0  0  0  0  0  0
   37.4910   26.1130   40.8640 C   0  0  0  0  0  0  0  0  0  0  0  0
   38.8310   26.2550   40.7080 N   0  0  0  0  0  0  0  0  0  0  0  0
   39.7270   25.3730   41.2060 C   0  0  0  0  0  0  0  0  0  0  0  0
   39.3020   24.2980   41.8900 N   0  0  0  0  0  0  0  0  0  0  0  0
   37.4830   23.2940   42.6010 H   0  0  0  0  0  0  0  0  0  0  0  0
   35.9770   24.9460   41.6600 H   0  0  0  0  0  0  0  0  0  0  0  0
   40.7900   25.4970   41.0740 H   0  0  0  0  0  0  0  0  0  0  0  0
   36.7470   28.2270   42.5260 C   0  0  0  0  0  0  0  0  0  0  0  0
   37.5750   27.4760   42.5780 H   0  0  0  0  0  0  0  0  0  0  0  0
   35.9580   27.9070   43.2050 H   0  0  0  0  0  0  0  0  0  0  0  0
   37.3080   29.4930   42.9000 N   0  0  0  0  0  0  0  0  0  0  0  0
   36.7350   30.3050   42.6960 H   0  0  0  0  0  0  0  0  0  0  0  0
   38.9520   29.6520   42.4160 S   0  0  0  0  0  0  0  0  0  0  0  0
   39.5770   30.8640   43.0460 O   0  0  0  0  0  1  0  0  0  0  0  0
   39.0970   29.6960   40.9420 O   0  0  0  0  0  1  0  0  0  0  0  0
   39.7480   28.2810   43.0090 O   0  0  0  0  0  0  0  0  0  0  0  0
   39.5660   28.1500   43.9760 H   0  0  0  0  0  0  0  0  0  0  0  0
  1 13  1  0  0  0  0
  1  2  1  0  0  0  0
  2 20  1  0  0  0  0
  3  2  2  0  0  0  0
  3  7  1  0  0  0  0
  4  3  1  0  0  0  0
  5  6  1  0  0  0  0
  5  4  2  0  0  0  0
  6  1  2  0  0  0  0
  8  4  1  0  0  0  0
  9  5  1  0  0  0  0
 10  6  1  0  0  0  0
 11 17  1  0  0  0  0
 12 18  1  0  0  0  0
 12 11  2  0  0  0  0
 13 12  1  0  0  0  0
 14 13  2  0  0  0  0
 14 15  1  0  0  0  0
 15 16  2  0  0  0  0
 16 11  1  0  0  0  0
 19 15  1  0  0  0  0
 20 21  1  0  0  0  0
 20 23  1  0  0  0  0
 20 22  1  0  0  0  0
 24 23  1  0  0  0  0
 25 23  1  0  0  0  0
 25 28  1  0  0  0  0
 25 26  1  0  0  0  0
 27 25  1  0  0  0  0
 28 29  1  0  0  0  0
M  END
>  <minimizedAffinity>
-4.72871637

$$$$

 OpenBabel03252508433D

 29 30  0  0  0  0  0  0  0  0999 V2000
   36.9890   30.6030   38.4270 C   0  0  0  0  0  0  0  0  0  0  0  0
   36.8010   30.2810   39.7660 C   0  0  0  0  0  0  0  0  0  0  0  0
   36.9230   31.2820   40.7090 C   0  0  0  0  0  0  0  0  0  0  0  0
   37.2220   32.5540   40.3200 C   0  0  0  0  0  0  0  0  0  0  0  0
   37.4140   32.9050   39.0160 C   0  0  0  0  0  0  0  0  0  0  0  0
   37.2820   31.8700   38.0990 C   0  0  0  0  0  0  0  0  0  0  0  0
   36.7900   31.0970   41.7650 H   0  0  0  0  0  0  0  0  0  0  0  0
   37.3200   33.3460   41.0600 H   0  0  0  0  0  0  0  0  0  0  0  0
   37.6520   33.8850   38.6220 H   0  0  0  0  0  0  0  0  0  0  0  0
   37.4140   32.0390   37.0270 H   0  0  0  0  0  0  0  0  0  0  0  0
   37.6570   27.7100   36.0960 C   0  0  0  0  0  0  0  0  0  0  0  0
   37.9060   28.7430   37.0220 C   0  0  0  0  0  0  0  0  0  0  0  0
   36.8500   29.5110   37.4730 C   0  0  0  0  0  0  0  0  0  0  0  0
   35.6150   29.2220   36.9910 N   0  0  0  0  0  0  0  0  0  0  0  0
   35.3870   28.2280   36.1020 C   0  0  0  0  0  0  0  0  0  0  0  0
   36.4070   27.4760   35.6580 N   0  0  0  0  0  0  0  0  0  0  0  0
   38.5790   27.2040   35.8430 H   0  0  0  0  0  0  0  0  0  0  0  0
   38.8590   29.0130   37.4340 H   0  0  0  0  0  0  0  0  0  0  0  0
   34.3990   28.0080   35.7270 H   0  0  0  0  0  0  0  0  0  0  0  0
   36.4740   28.8830   40.1660 C   0  0  0  0  0  0  0  0  0  0  0  0
   37.4570   28.3510   40.2260 H   0  0  0  0  0  0  0  0  0  0  0  0
   35.8830   28.4110   39.3810 H   0  0  0  0  0  0  0  0  0  0  0  0
   35.8580   28.7680   41.4550 N   0  0  0  0  0  0  0  0  0  0  0  0
   35.3510   29.5870   41.7750 H   0  0  0  0  0  0  0  0  0  0  0  0
   36.9170   28.0920   42.6320 S   0  0  0  0  0  0  0  0  0  0  0  0
   38.1780   27.5920   41.9890 O   0  0  0  0  0  1  0  0  0  0  0  0
   36.2650   27.0140   43.4130 O   0  0  0  0  0  1  0  0  0  0  0  0
   37.3240   29.3610   43.6760 O   0  0  0  0  0  0  0  0  0  0  0  0
   37.6470   30.1520   43.1710 H   0  0  0  0  0  0  0  0  0  0  0  0
  1  2  1  0  0  0  0
  2 20  1  0  0  0  0
  2  3  2  0  0  0  0
  3  7  1  0  0  0  0
  4  3  1  0  0  0  0
  4  8  1  0  0  0  0
  5  4  2  0  0  0  0
  6  1  2  0  0  0  0
  6  5  1  0  0  0  0
  9  5  1  0  0  0  0
 10  6  1  0  0  0  0
 11 12  1  0  0  0  0
 12 18  1  0  0  0  0
 12 13  2  0  0  0  0
 13  1  1  0  0  0  0
 14 13  1  0  0  0  0
 15 14  2  0  0  0  0
 16 11  2  0  0  0  0
 16 15  1  0  0  0  0
 17 11  1  0  0  0  0
 19 15  1  0  0  0  0
 20 21  1  0  0  0  0
 20 23  1  0  0  0  0
 22 20  1  0  0  0  0
 23 24  1  0  0  0  0
 23 25  1  0  0  0  0
 25 27  1  0  0  0  0
 25 28  1  0  0  0  0
 26 25  1  0  0  0  0
 29 28  1  0  0  0  0
M  END
>  <minimizedAffinity>
-4.70491362

$$$$
