
 OpenBabel03252505143D

 23 24  0  0  0  0  0  0  0  0999 V2000
   44.6760   36.0800   44.3040 C   0  0  0  0  0  0  0  0  0  0  0  0
   45.6020   35.5780   43.3750 C   0  0  0  0  0  0  0  0  0  0  0  0
   46.2780   34.4150   43.7340 C   0  0  0  0  0  0  0  0  0  0  0  0
   46.0270   33.8160   44.9440 N   0  0  0  0  0  0  0  0  0  0  0  0
   45.1170   34.3380   45.8160 C   0  0  0  0  0  0  0  0  0  0  0  0
   44.4580   35.4580   45.4820 N   0  0  0  0  0  0  0  0  0  0  0  0
   44.1190   36.9740   44.0920 H   0  0  0  0  0  0  0  0  0  0  0  0
   45.7830   36.0610   42.4350 H   0  0  0  0  0  0  0  0  0  0  0  0
   44.8580   33.7140   47.0700 N   0  0  0  0  0  0  0  0  0  0  0  0
   44.0190   33.9610   47.6380 H   0  0  0  0  0  0  0  0  0  0  0  0
   47.2590   33.7820   42.8030 C   0  0  0  0  0  0  0  0  0  0  0  0
   47.6350   34.6560   41.6310 C   0  0  0  0  0  0  0  0  0  0  0  0
   48.6190   34.3100   42.7680 C   0  0  0  0  0  0  0  0  0  0  0  0
   47.0350   32.7160   42.5950 H   0  0  0  0  0  0  0  0  0  0  0  0
   47.8510   34.0970   40.7020 H   0  0  0  0  0  0  0  0  0  0  0  0
   47.2370   35.6670   41.5430 H   0  0  0  0  0  0  0  0  0  0  0  0
   49.4900   33.6660   42.5220 H   0  0  0  0  0  0  0  0  0  0  0  0
   48.8810   35.2120   43.3600 H   0  0  0  0  0  0  0  0  0  0  0  0
   45.9420   32.5200   47.6880 S   0  0  0  0  0  0  0  0  0  0  0  0
   45.7330   32.3020   49.1780 O   0  0  0  0  0  0  0  0  0  0  0  0
   45.7390   31.2030   46.9920 O   0  0  0  0  0  0  0  0  0  0  0  0
   47.5420   33.0650   47.5520 O   0  0  0  0  0  0  0  0  0  0  0  0
   48.0520   32.3420   47.1330 H   0  0  0  0  0  0  0  0  0  0  0  0
  1  6  1  0  0  0  0
  2  3  1  0  0  0  0
  2  1  2  0  0  0  0
  3  4  2  0  0  0  0
  4  5  1  0  0  0  0
  5  9  1  0  0  0  0
  6  5  2  0  0  0  0
  7  1  1  0  0  0  0
  8  2  1  0  0  0  0
  9 10  1  0  0  0  0
  9 19  1  0  0  0  0
 11  3  1  0  0  0  0
 12 13  1  0  0  0  0
 12 11  1  0  0  0  0
 13 11  1  0  0  0  0
 13 18  1  0  0  0  0
 14 11  1  0  0  0  0
 15 12  1  0  0  0  0
 16 12  1  0  0  0  0
 17 13  1  0  0  0  0
 19 20  1  0  0  0  0
 21 19  1  0  0  0  0
 22 19  1  0  0  0  0
 23 22  1  0  0  0  0
M  END
>  <minimizedAffinity>
-5.5003376

>  <minimizedRMSD>
1.64620697

$$$$
