
 OpenBabel03242521163D

 32 33  0  0  0  0  0  0  0  0999 V2000
   37.5360   27.7910   43.6780 C   0  0  0  0  0  0  0  0  0  0  0  0
   37.6170   29.1300   43.2020 C   0  0  0  0  0  0  0  0  0  0  0  0
   37.8250   29.3060   41.8240 C   0  0  0  0  0  0  0  0  0  0  0  0
   37.9390   28.2030   41.0250 N   0  0  0  0  0  0  0  0  0  0  0  0
   37.8560   26.9620   41.5230 C   0  0  0  0  0  0  0  0  0  0  0  0
   37.6560   26.7350   42.8390 N   0  0  0  0  0  0  0  0  0  0  0  0
   37.3770   27.6180   44.7310 H   0  0  0  0  0  0  0  0  0  0  0  0
   37.5190   29.9590   43.8870 H   0  0  0  0  0  0  0  0  0  0  0  0
   37.9080   30.6360   41.3380 N   0  0  0  0  0  0  0  0  0  0  0  0
   39.1090   31.2590   41.4110 C   0  0  0  0  0  0  0  0  0  0  0  0
   39.2340   32.5600   40.9460 C   0  0  0  0  0  0  0  0  0  0  0  0
   38.1180   33.1430   40.4350 C   0  0  0  0  0  0  0  0  0  0  0  0
   38.2040   34.3490   39.9960 O   0  0  0  0  0  0  0  0  0  0  0  0
   36.9140   32.5480   40.3500 N   0  0  0  0  0  0  0  0  0  0  0  0
   36.8520   31.2810   40.8180 C   0  0  0  0  0  0  0  0  0  0  0  0
   35.8000   30.6260   40.7960 O   0  0  0  0  0  0  0  0  0  0  0  0
   39.9530   30.7200   41.8340 H   0  0  0  0  0  0  0  0  0  0  0  0
   40.1720   33.0750   40.9920 H   0  0  0  0  0  0  0  0  0  0  0  0
   36.0690   33.0250   39.9490 H   0  0  0  0  0  0  0  0  0  0  0  0
   38.0100   25.9400   40.4700 C   0  0  0  0  0  0  0  0  0  0  0  0
   37.2770   25.1210   40.6690 H   0  0  0  0  0  0  0  0  0  0  0  0
   37.7520   26.4010   39.4950 H   0  0  0  0  0  0  0  0  0  0  0  0
   39.3680   25.2950   40.4560 C   0  0  0  0  0  0  0  0  0  0  0  0
   39.2390   24.2970   40.9250 H   0  0  0  0  0  0  0  0  0  0  0  0
   39.7380   25.1100   39.4260 H   0  0  0  0  0  0  0  0  0  0  0  0
   40.3080   26.0980   41.1640 N   0  0  0  0  0  0  0  0  0  0  0  0
   41.0310   26.5290   40.5870 H   0  0  0  0  0  0  0  0  0  0  0  0
   40.9370   25.3330   42.5790 S   0  0  0  0  0  0  0  0  0  0  0  0
   40.9280   26.3770   43.6790 O   0  0  0  0  0  1  0  0  0  0  0  0
   40.0930   24.1990   43.0220 O   0  0  0  0  0  1  0  0  0  0  0  0
   42.5140   24.8740   42.3490 O   0  0  0  0  0  0  0  0  0  0  0  0
   42.8350   25.0230   41.4170 H   0  0  0  0  0  0  0  0  0  0  0  0
  1  7  1  0  0  0  0
  2  1  1  0  0  0  0
  2  8  1  0  0  0  0
  3  2  2  0  0  0  0
  4  5  2  0  0  0  0
  4  3  1  0  0  0  0
  5  6  1  0  0  0  0
  6  1  2  0  0  0  0
  9 10  1  0  0  0  0
  9  3  1  0  0  0  0
 10 17  1  0  0  0  0
 11 18  1  0  0  0  0
 11 10  2  0  0  0  0
 12 11  1  0  0  0  0
 13 12  2  0  0  0  0
 14 12  1  0  0  0  0
 14 15  1  0  0  0  0
 15  9  1  0  0  0  0
 16 15  2  0  0  0  0
 19 14  1  0  0  0  0
 20 21  1  0  0  0  0
 20  5  1  0  0  0  0
 22 20  1  0  0  0  0
 23 20  1  0  0  0  0
 23 24  1  0  0  0  0
 23 26  1  0  0  0  0
 25 23  1  0  0  0  0
 26 28  1  0  0  0  0
 27 26  1  0  0  0  0
 28 30  1  0  0  0  0
 28 29  1  0  0  0  0
 31 28  1  0  0  0  0
 32 31  1  0  0  0  0
M  END
>  <minimizedAffinity>
-5.29401159

$$$$

 OpenBabel03242521163D

 32 33  0  0  0  0  0  0  0  0999 V2000
   36.9420   31.5330   38.8220 C   0  0  0  0  0  0  0  0  0  0  0  0
   37.2480   30.3920   39.6160 C   0  0  0  0  0  0  0  0  0  0  0  0
   38.2280   30.5490   40.6080 C   0  0  0  0  0  0  0  0  0  0  0  0
   38.8290   31.7680   40.7580 N   0  0  0  0  0  0  0  0  0  0  0  0
   38.5050   32.8110   39.9840 C   0  0  0  0  0  0  0  0  0  0  0  0
   37.5700   32.7160   39.0160 N   0  0  0  0  0  0  0  0  0  0  0  0
   36.1920   31.4480   38.0500 H   0  0  0  0  0  0  0  0  0  0  0  0
   36.7360   29.4560   39.4460 H   0  0  0  0  0  0  0  0  0  0  0  0
   38.5430   29.4180   41.4060 N   0  0  0  0  0  0  0  0  0  0  0  0
   37.9350   29.3110   42.6120 C   0  0  0  0  0  0  0  0  0  0  0  0
   38.2140   28.2210   43.4240 C   0  0  0  0  0  0  0  0  0  0  0  0
   39.1010   27.3080   42.9480 C   0  0  0  0  0  0  0  0  0  0  0  0
   39.3790   26.2870   43.6790 O   0  0  0  0  0  0  0  0  0  0  0  0
   39.7180   27.3900   41.7550 N   0  0  0  0  0  0  0  0  0  0  0  0
   39.4080   28.4730   41.0070 C   0  0  0  0  0  0  0  0  0  0  0  0
   39.9100   28.6630   39.8900 O   0  0  0  0  0  0  0  0  0  0  0  0
   37.2370   30.0870   42.9170 H   0  0  0  0  0  0  0  0  0  0  0  0
   37.7480   28.1120   44.3810 H   0  0  0  0  0  0  0  0  0  0  0  0
   40.4000   26.6670   41.4150 H   0  0  0  0  0  0  0  0  0  0  0  0
   39.2870   34.0130   40.3340 C   0  0  0  0  0  0  0  0  0  0  0  0
   38.6570   34.9110   40.1250 H   0  0  0  0  0  0  0  0  0  0  0  0
   39.4990   33.9890   41.4220 H   0  0  0  0  0  0  0  0  0  0  0  0
   40.5350   34.1750   39.5120 C   0  0  0  0  0  0  0  0  0  0  0  0
   40.5880   35.2500   39.2420 H   0  0  0  0  0  0  0  0  0  0  0  0
   41.4560   33.9530   40.0910 H   0  0  0  0  0  0  0  0  0  0  0  0
   40.4830   33.3390   38.3580 N   0  0  0  0  0  0  0  0  0  0  0  0
   39.9280   32.4900   38.4640 H   0  0  0  0  0  0  0  0  0  0  0  0
   42.0310   33.0530   37.6470 S   0  0  0  0  0  0  0  0  0  0  0  0
   43.0210   32.9410   38.7890 O   0  0  0  0  0  1  0  0  0  0  0  0
   42.0690   31.7830   36.8860 O   0  0  0  0  0  1  0  0  0  0  0  0
   42.4990   34.3430   36.7150 O   0  0  0  0  0  0  0  0  0  0  0  0
   41.7940   35.0430   36.6310 H   0  0  0  0  0  0  0  0  0  0  0  0
  1  6  2  0  0  0  0
  1  2  1  0  0  0  0
  2  3  2  0  0  0  0
  3  4  1  0  0  0  0
  3  9  1  0  0  0  0
  5 20  1  0  0  0  0
  5  4  2  0  0  0  0
  6  5  1  0  0  0  0
  7  1  1  0  0  0  0
  8  2  1  0  0  0  0
  9 10  1  0  0  0  0
 10 17  1  0  0  0  0
 10 11  2  0  0  0  0
 11 18  1  0  0  0  0
 12 11  1  0  0  0  0
 12 13  2  0  0  0  0
 14 12  1  0  0  0  0
 15  9  1  0  0  0  0
 15 14  1  0  0  0  0
 16 15  2  0  0  0  0
 19 14  1  0  0  0  0
 20 22  1  0  0  0  0
 21 20  1  0  0  0  0
 23 25  1  0  0  0  0
 23 20  1  0  0  0  0
 24 23  1  0  0  0  0
 26 27  1  0  0  0  0
 26 23  1  0  0  0  0
 28 26  1  0  0  0  0
 28 29  1  0  0  0  0
 30 28  1  0  0  0  0
 31 28  1  0  0  0  0
 32 31  1  0  0  0  0
M  END
>  <minimizedAffinity>
-5.23935843

$$$$

 OpenBabel03242521163D

 32 33  0  0  0  0  0  0  0  0999 V2000
   37.0570   28.3440   43.6780 C   0  0  0  0  0  0  0  0  0  0  0  0
   36.9580   27.0290   43.1430 C   0  0  0  0  0  0  0  0  0  0  0  0
   37.9010   26.6650   42.1670 C   0  0  0  0  0  0  0  0  0  0  0  0
   38.8470   27.5770   41.7880 N   0  0  0  0  0  0  0  0  0  0  0  0
   38.8960   28.8030   42.3240 C   0  0  0  0  0  0  0  0  0  0  0  0
   38.0160   29.2050   43.2640 N   0  0  0  0  0  0  0  0  0  0  0  0
   36.3490   28.6580   44.4300 H   0  0  0  0  0  0  0  0  0  0  0  0
   36.1860   26.3570   43.4850 H   0  0  0  0  0  0  0  0  0  0  0  0
   37.8140   25.3570   41.6250 N   0  0  0  0  0  0  0  0  0  0  0  0
   36.9530   25.1580   40.5990 C   0  0  0  0  0  0  0  0  0  0  0  0
   36.8360   23.8940   40.0390 C   0  0  0  0  0  0  0  0  0  0  0  0
   37.6110   22.9100   40.5680 C   0  0  0  0  0  0  0  0  0  0  0  0
   37.5240   21.7290   40.0690 O   0  0  0  0  0  0  0  0  0  0  0  0
   38.4740   23.0810   41.5860 N   0  0  0  0  0  0  0  0  0  0  0  0
   38.5450   24.3330   42.0920 C   0  0  0  0  0  0  0  0  0  0  0  0
   39.3020   24.6180   43.0310 O   0  0  0  0  0  0  0  0  0  0  0  0
   36.3690   26.0000   40.2340 H   0  0  0  0  0  0  0  0  0  0  0  0
   36.1630   23.7090   39.2270 H   0  0  0  0  0  0  0  0  0  0  0  0
   39.0590   22.3000   41.9730 H   0  0  0  0  0  0  0  0  0  0  0  0
   39.9990   29.6020   41.7550 C   0  0  0  0  0  0  0  0  0  0  0  0
   40.3220   30.3460   42.5230 H   0  0  0  0  0  0  0  0  0  0  0  0
   40.8540   28.9260   41.5540 H   0  0  0  0  0  0  0  0  0  0  0  0
   39.6010   30.3960   40.5430 C   0  0  0  0  0  0  0  0  0  0  0  0
   39.7110   31.4640   40.8240 H   0  0  0  0  0  0  0  0  0  0  0  0
   40.2820   30.2270   39.6830 H   0  0  0  0  0  0  0  0  0  0  0  0
   38.2630   30.0830   40.1600 N   0  0  0  0  0  0  0  0  0  0  0  0
   38.1730   29.5810   39.2760 H   0  0  0  0  0  0  0  0  0  0  0  0
   37.1790   31.4200   40.2960 S   0  0  0  0  0  0  0  0  0  0  0  0
   37.9670   32.5590   40.9120 O   0  0  0  0  0  1  0  0  0  0  0  0
   36.6820   31.8720   38.9760 O   0  0  0  0  0  1  0  0  0  0  0  0
   35.9340   31.0660   41.3340 O   0  0  0  0  0  0  0  0  0  0  0  0
   35.9440   30.1220   41.6530 H   0  0  0  0  0  0  0  0  0  0  0  0
  1  7  1  0  0  0  0
  2  8  1  0  0  0  0
  2  1  2  0  0  0  0
  3  2  1  0  0  0  0
  4  3  2  0  0  0  0
  4  5  1  0  0  0  0
  5  6  2  0  0  0  0
  6  1  1  0  0  0  0
  9 15  1  0  0  0  0
  9  3  1  0  0  0  0
 10  9  1  0  0  0  0
 11 12  1  0  0  0  0
 11 10  2  0  0  0  0
 12 14  1  0  0  0  0
 13 12  2  0  0  0  0
 14 19  1  0  0  0  0
 14 15  1  0  0  0  0
 15 16  2  0  0  0  0
 17 10  1  0  0  0  0
 18 11  1  0  0  0  0
 20  5  1  0  0  0  0
 20 21  1  0  0  0  0
 22 20  1  0  0  0  0
 23 24  1  0  0  0  0
 23 20  1  0  0  0  0
 25 23  1  0  0  0  0
 26 28  1  0  0  0  0
 26 23  1  0  0  0  0
 27 26  1  0  0  0  0
 28 29  1  0  0  0  0
 28 31  1  0  0  0  0
 30 28  1  0  0  0  0
 31 32  1  0  0  0  0
M  END
>  <minimizedAffinity>
-5.22962141

$$$$

 OpenBabel03242521163D

 32 33  0  0  0  0  0  0  0  0999 V2000
   41.0210   30.8430   42.4670 C   0  0  0  0  0  0  0  0  0  0  0  0
   40.3720   29.5850   42.6070 C   0  0  0  0  0  0  0  0  0  0  0  0
   39.4490   29.2280   41.6100 C   0  0  0  0  0  0  0  0  0  0  0  0
   39.2240   30.0940   40.5760 N   0  0  0  0  0  0  0  0  0  0  0  0
   39.8620   31.2680   40.4900 C   0  0  0  0  0  0  0  0  0  0  0  0
   40.7590   31.6600   41.4190 N   0  0  0  0  0  0  0  0  0  0  0  0
   41.7370   31.1500   43.2140 H   0  0  0  0  0  0  0  0  0  0  0  0
   40.5940   28.9470   43.4490 H   0  0  0  0  0  0  0  0  0  0  0  0
   38.7940   27.9760   41.7380 N   0  0  0  0  0  0  0  0  0  0  0  0
   39.3790   26.8990   41.1610 C   0  0  0  0  0  0  0  0  0  0  0  0
   38.7720   25.6550   41.2620 C   0  0  0  0  0  0  0  0  0  0  0  0
   37.6020   25.5930   41.9500 C   0  0  0  0  0  0  0  0  0  0  0  0
   37.0170   24.4540   42.0600 O   0  0  0  0  0  0  0  0  0  0  0  0
   37.0000   26.6460   42.5330 N   0  0  0  0  0  0  0  0  0  0  0  0
   37.6360   27.8320   42.4020 C   0  0  0  0  0  0  0  0  0  0  0  0
   37.1840   28.8760   42.8930 O   0  0  0  0  0  0  0  0  0  0  0  0
   40.3170   27.0350   40.6280 H   0  0  0  0  0  0  0  0  0  0  0  0
   39.2130   24.7880   40.8150 H   0  0  0  0  0  0  0  0  0  0  0  0
   36.0950   26.5670   43.0580 H   0  0  0  0  0  0  0  0  0  0  0  0
   39.4530   32.0240   39.2910 C   0  0  0  0  0  0  0  0  0  0  0  0
   38.3500   31.9040   39.1630 H   0  0  0  0  0  0  0  0  0  0  0  0
   39.6610   33.0990   39.4670 H   0  0  0  0  0  0  0  0  0  0  0  0
   40.0810   31.5210   38.0210 C   0  0  0  0  0  0  0  0  0  0  0  0
   40.9420   30.8940   38.3320 H   0  0  0  0  0  0  0  0  0  0  0  0
   39.4010   30.8560   37.4480 H   0  0  0  0  0  0  0  0  0  0  0  0
   40.4860   32.6130   37.2000 N   0  0  0  0  0  0  0  0  0  0  0  0
   40.5050   32.4170   36.1980 H   0  0  0  0  0  0  0  0  0  0  0  0
   41.9150   33.4030   37.7640 S   0  0  0  0  0  0  0  0  0  0  0  0
   41.4830   34.3480   38.8670 O   0  0  0  0  0  1  0  0  0  0  0  0
   42.8900   32.4480   38.3390 O   0  0  0  0  0  1  0  0  0  0  0  0
   42.5920   34.3250   36.5620 O   0  0  0  0  0  0  0  0  0  0  0  0
   42.1350   34.2210   35.6820 H   0  0  0  0  0  0  0  0  0  0  0  0
  1  2  1  0  0  0  0
  1  7  1  0  0  0  0
  2  8  1  0  0  0  0
  3  9  1  0  0  0  0
  3  2  2  0  0  0  0
  4  3  1  0  0  0  0
  5  4  2  0  0  0  0
  5  6  1  0  0  0  0
  6  1  2  0  0  0  0
  9 15  1  0  0  0  0
 10 11  2  0  0  0  0
 10  9  1  0  0  0  0
 11 12  1  0  0  0  0
 12 13  2  0  0  0  0
 12 14  1  0  0  0  0
 14 19  1  0  0  0  0
 15 14  1  0  0  0  0
 15 16  2  0  0  0  0
 17 10  1  0  0  0  0
 18 11  1  0  0  0  0
 20 22  1  0  0  0  0
 20  5  1  0  0  0  0
 21 20  1  0  0  0  0
 23 24  1  0  0  0  0
 23 20  1  0  0  0  0
 25 23  1  0  0  0  0
 26 28  1  0  0  0  0
 26 23  1  0  0  0  0
 27 26  1  0  0  0  0
 28 30  1  0  0  0  0
 28 29  1  0  0  0  0
 31 28  1  0  0  0  0
 32 31  1  0  0  0  0
M  END
>  <minimizedAffinity>
-5.13409758

$$$$

 OpenBabel03242521163D

 32 33  0  0  0  0  0  0  0  0999 V2000
   38.1810   28.5940   43.2380 C   0  0  0  0  0  0  0  0  0  0  0  0
   38.4530   27.2730   42.7830 C   0  0  0  0  0  0  0  0  0  0  0  0
   37.7830   26.8460   41.6250 C   0  0  0  0  0  0  0  0  0  0  0  0
   36.9190   27.7050   41.0050 N   0  0  0  0  0  0  0  0  0  0  0  0
   36.6980   28.9400   41.4740 C   0  0  0  0  0  0  0  0  0  0  0  0
   37.3140   29.4010   42.5830 N   0  0  0  0  0  0  0  0  0  0  0  0
   38.6780   28.9550   44.1260 H   0  0  0  0  0  0  0  0  0  0  0  0
   39.1470   26.6430   43.3200 H   0  0  0  0  0  0  0  0  0  0  0  0
   38.0460   25.5310   41.1610 N   0  0  0  0  0  0  0  0  0  0  0  0
   39.0000   25.3780   40.2110 C   0  0  0  0  0  0  0  0  0  0  0  0
   39.2880   24.1090   39.7300 C   0  0  0  0  0  0  0  0  0  0  0  0
   38.5790   23.0740   40.2530 C   0  0  0  0  0  0  0  0  0  0  0  0
   38.8240   21.8870   39.8260 O   0  0  0  0  0  0  0  0  0  0  0  0
   37.6270   23.1980   41.1960 N   0  0  0  0  0  0  0  0  0  0  0  0
   37.3890   24.4570   41.6270 C   0  0  0  0  0  0  0  0  0  0  0  0
   36.5370   24.7030   42.4930 O   0  0  0  0  0  0  0  0  0  0  0  0
   39.5210   26.2590   39.8460 H   0  0  0  0  0  0  0  0  0  0  0  0
   40.0370   23.9600   38.9790 H   0  0  0  0  0  0  0  0  0  0  0  0
   37.0960   22.3790   41.5810 H   0  0  0  0  0  0  0  0  0  0  0  0
   35.7280   29.6740   40.6390 C   0  0  0  0  0  0  0  0  0  0  0  0
   35.0650   28.9280   40.1380 H   0  0  0  0  0  0  0  0  0  0  0  0
   35.0980   30.3000   41.3030 H   0  0  0  0  0  0  0  0  0  0  0  0
   36.3680   30.4730   39.5390 C   0  0  0  0  0  0  0  0  0  0  0  0
   36.1370   29.9370   38.5950 H   0  0  0  0  0  0  0  0  0  0  0  0
   35.9260   31.4870   39.4390 H   0  0  0  0  0  0  0  0  0  0  0  0
   37.7730   30.5840   39.7570 N   0  0  0  0  0  0  0  0  0  0  0  0
   38.1660   29.8950   40.3990 H   0  0  0  0  0  0  0  0  0  0  0  0
   38.2900   32.1970   40.0930 S   0  0  0  0  0  0  0  0  0  0  0  0
   39.0580   32.1460   41.3990 O   0  0  0  0  0  1  0  0  0  0  0  0
   39.2030   32.7180   39.0490 O   0  0  0  0  0  1  0  0  0  0  0  0
   36.9880   33.1980   40.3260 O   0  0  0  0  0  0  0  0  0  0  0  0
   36.1130   32.7510   40.1550 H   0  0  0  0  0  0  0  0  0  0  0  0
  1  7  1  0  0  0  0
  2  1  1  0  0  0  0
  2  8  1  0  0  0  0
  3  2  2  0  0  0  0
  4  5  2  0  0  0  0
  4  3  1  0  0  0  0
  5  6  1  0  0  0  0
  6  1  2  0  0  0  0
  9  3  1  0  0  0  0
  9 15  1  0  0  0  0
 10  9  1  0  0  0  0
 11 10  2  0  0  0  0
 11 12  1  0  0  0  0
 12 14  1  0  0  0  0
 13 12  2  0  0  0  0
 14 19  1  0  0  0  0
 14 15  1  0  0  0  0
 15 16  2  0  0  0  0
 17 10  1  0  0  0  0
 18 11  1  0  0  0  0
 20 22  1  0  0  0  0
 20  5  1  0  0  0  0
 21 20  1  0  0  0  0
 23 26  1  0  0  0  0
 23 20  1  0  0  0  0
 24 23  1  0  0  0  0
 25 23  1  0  0  0  0
 26 28  1  0  0  0  0
 26 27  1  0  0  0  0
 28 31  1  0  0  0  0
 28 29  1  0  0  0  0
 30 28  1  0  0  0  0
 32 31  1  0  0  0  0
M  END
>  <minimizedAffinity>
-5.02402449

$$$$

 OpenBabel03242521163D

 32 33  0  0  0  0  0  0  0  0999 V2000
   39.0670   31.6720   37.7720 C   0  0  0  0  0  0  0  0  0  0  0  0
   38.4850   30.7260   38.6620 C   0  0  0  0  0  0  0  0  0  0  0  0
   38.7680   30.8780   40.0290 C   0  0  0  0  0  0  0  0  0  0  0  0
   39.5750   31.9070   40.4280 N   0  0  0  0  0  0  0  0  0  0  0  0
   40.0980   32.7710   39.5480 C   0  0  0  0  0  0  0  0  0  0  0  0
   39.8590   32.6720   38.2240 N   0  0  0  0  0  0  0  0  0  0  0  0
   38.8700   31.5860   36.7140 H   0  0  0  0  0  0  0  0  0  0  0  0
   37.8560   29.9350   38.2830 H   0  0  0  0  0  0  0  0  0  0  0  0
   38.1950   29.9410   40.9270 N   0  0  0  0  0  0  0  0  0  0  0  0
   38.9330   28.8550   41.2590 C   0  0  0  0  0  0  0  0  0  0  0  0
   38.4100   27.9130   42.1340 C   0  0  0  0  0  0  0  0  0  0  0  0
   37.1600   28.1450   42.6150 C   0  0  0  0  0  0  0  0  0  0  0  0
   36.6500   27.2900   43.4280 O   0  0  0  0  0  0  0  0  0  0  0  0
   36.4060   29.2150   42.3020 N   0  0  0  0  0  0  0  0  0  0  0  0
   36.9670   30.0980   41.4460 C   0  0  0  0  0  0  0  0  0  0  0  0
   36.3740   31.1230   41.0810 O   0  0  0  0  0  0  0  0  0  0  0  0
   39.9250   28.7450   40.8290 H   0  0  0  0  0  0  0  0  0  0  0  0
   38.9720   27.0460   42.4120 H   0  0  0  0  0  0  0  0  0  0  0  0
   35.4430   29.3660   42.6910 H   0  0  0  0  0  0  0  0  0  0  0  0
   40.9330   33.7890   40.2160 C   0  0  0  0  0  0  0  0  0  0  0  0
   40.7940   34.7590   39.6800 H   0  0  0  0  0  0  0  0  0  0  0  0
   40.5670   33.9170   41.2540 H   0  0  0  0  0  0  0  0  0  0  0  0
   42.4050   33.4870   40.1620 C   0  0  0  0  0  0  0  0  0  0  0  0
   42.9120   34.4570   39.9780 H   0  0  0  0  0  0  0  0  0  0  0  0
   42.7950   33.1080   41.1300 H   0  0  0  0  0  0  0  0  0  0  0  0
   42.6800   32.5400   39.1320 N   0  0  0  0  0  0  0  0  0  0  0  0
   43.1170   31.6730   39.4480 H   0  0  0  0  0  0  0  0  0  0  0  0
   43.4610   33.2300   37.7560 S   0  0  0  0  0  0  0  0  0  0  0  0
   44.3820   34.3160   38.2760 O   0  0  0  0  0  1  0  0  0  0  0  0
   44.2910   32.2400   37.0300 O   0  0  0  0  0  1  0  0  0  0  0  0
   42.3570   33.9590   36.7550 O   0  0  0  0  0  0  0  0  0  0  0  0
   41.4130   33.8190   37.0430 H   0  0  0  0  0  0  0  0  0  0  0  0
  1  6  2  0  0  0  0
  1  2  1  0  0  0  0
  2  3  2  0  0  0  0
  3  4  1  0  0  0  0
  3  9  1  0  0  0  0
  5 20  1  0  0  0  0
  5  4  2  0  0  0  0
  6  5  1  0  0  0  0
  7  1  1  0  0  0  0
  8  2  1  0  0  0  0
  9 10  1  0  0  0  0
  9 15  1  0  0  0  0
 10 11  2  0  0  0  0
 11 18  1  0  0  0  0
 11 12  1  0  0  0  0
 12 13  2  0  0  0  0
 14 12  1  0  0  0  0
 14 19  1  0  0  0  0
 15 14  1  0  0  0  0
 16 15  2  0  0  0  0
 17 10  1  0  0  0  0
 20 22  1  0  0  0  0
 21 20  1  0  0  0  0
 23 20  1  0  0  0  0
 23 25  1  0  0  0  0
 24 23  1  0  0  0  0
 26 27  1  0  0  0  0
 26 23  1  0  0  0  0
 28 29  1  0  0  0  0
 28 26  1  0  0  0  0
 30 28  1  0  0  0  0
 31 32  1  0  0  0  0
 31 28  1  0  0  0  0
M  END
>  <minimizedAffinity>
-4.96669006

$$$$

 OpenBabel03242521163D

 32 33  0  0  0  0  0  0  0  0999 V2000
   37.4190   30.6930   37.3380 C   0  0  0  0  0  0  0  0  0  0  0  0
   38.5150   31.4250   37.8730 C   0  0  0  0  0  0  0  0  0  0  0  0
   38.5260   31.6330   39.2620 C   0  0  0  0  0  0  0  0  0  0  0  0
   37.5010   31.1310   40.0150 N   0  0  0  0  0  0  0  0  0  0  0  0
   36.4910   30.4480   39.4610 C   0  0  0  0  0  0  0  0  0  0  0  0
   36.4310   30.2190   38.1320 N   0  0  0  0  0  0  0  0  0  0  0  0
   37.3780   30.5140   36.2740 H   0  0  0  0  0  0  0  0  0  0  0  0
   39.2940   31.7950   37.2230 H   0  0  0  0  0  0  0  0  0  0  0  0
   39.6140   32.3620   39.8090 N   0  0  0  0  0  0  0  0  0  0  0  0
   40.8170   31.7420   39.8750 C   0  0  0  0  0  0  0  0  0  0  0  0
   41.9070   32.4180   40.4020 C   0  0  0  0  0  0  0  0  0  0  0  0
   41.6960   33.6910   40.8310 C   0  0  0  0  0  0  0  0  0  0  0  0
   42.6880   34.3420   41.3240 O   0  0  0  0  0  0  0  0  0  0  0  0
   40.5130   34.3300   40.7770 N   0  0  0  0  0  0  0  0  0  0  0  0
   39.4870   33.6220   40.2530 C   0  0  0  0  0  0  0  0  0  0  0  0
   38.3480   34.0990   40.1500 O   0  0  0  0  0  0  0  0  0  0  0  0
   40.9000   30.7210   39.5090 H   0  0  0  0  0  0  0  0  0  0  0  0
   42.8690   31.9520   40.4660 H   0  0  0  0  0  0  0  0  0  0  0  0
   40.3810   35.3140   41.1160 H   0  0  0  0  0  0  0  0  0  0  0  0
   35.5090   30.0120   40.4720 C   0  0  0  0  0  0  0  0  0  0  0  0
   35.5860   30.6980   41.3500 H   0  0  0  0  0  0  0  0  0  0  0  0
   34.4930   30.1190   40.0420 H   0  0  0  0  0  0  0  0  0  0  0  0
   35.7640   28.6270   40.9980 C   0  0  0  0  0  0  0  0  0  0  0  0
   35.3770   28.6170   42.0380 H   0  0  0  0  0  0  0  0  0  0  0  0
   35.1940   27.8520   40.4440 H   0  0  0  0  0  0  0  0  0  0  0  0
   37.1560   28.3240   40.9460 N   0  0  0  0  0  0  0  0  0  0  0  0
   37.4090   27.5590   40.3190 H   0  0  0  0  0  0  0  0  0  0  0  0
   37.8900   28.1950   42.5040 S   0  0  0  0  0  0  0  0  0  0  0  0
   37.6170   26.7880   42.9990 O   0  0  0  0  0  1  0  0  0  0  0  0
   39.3590   28.3800   42.4460 O   0  0  0  0  0  1  0  0  0  0  0  0
   37.1800   29.2410   43.5780 O   0  0  0  0  0  0  0  0  0  0  0  0
   36.5070   29.8420   43.1550 H   0  0  0  0  0  0  0  0  0  0  0  0
  1  2  2  0  0  0  0
  1  6  1  0  0  0  0
  2  3  1  0  0  0  0
  3  9  1  0  0  0  0
  3  4  2  0  0  0  0
  5  4  1  0  0  0  0
  5 20  1  0  0  0  0
  6  5  2  0  0  0  0
  7  1  1  0  0  0  0
  8  2  1  0  0  0  0
  9 10  1  0  0  0  0
  9 15  1  0  0  0  0
 10 11  2  0  0  0  0
 11 18  1  0  0  0  0
 11 12  1  0  0  0  0
 12 13  2  0  0  0  0
 14 12  1  0  0  0  0
 14 19  1  0  0  0  0
 15 14  1  0  0  0  0
 16 15  2  0  0  0  0
 17 10  1  0  0  0  0
 20 23  1  0  0  0  0
 20 21  1  0  0  0  0
 22 20  1  0  0  0  0
 23 24  1  0  0  0  0
 25 23  1  0  0  0  0
 26 23  1  0  0  0  0
 26 28  1  0  0  0  0
 27 26  1  0  0  0  0
 28 29  1  0  0  0  0
 28 31  1  0  0  0  0
 30 28  1  0  0  0  0
 32 31  1  0  0  0  0
M  END
>  <minimizedAffinity>
-4.92743826

$$$$

 OpenBabel03242521163D

 32 33  0  0  0  0  0  0  0  0999 V2000
   34.5610   27.7250   37.6210 C   0  0  0  0  0  0  0  0  0  0  0  0
   34.9760   29.0440   37.9590 C   0  0  0  0  0  0  0  0  0  0  0  0
   36.1660   29.1700   38.6940 C   0  0  0  0  0  0  0  0  0  0  0  0
   36.8510   28.0390   39.0430 N   0  0  0  0  0  0  0  0  0  0  0  0
   36.4170   26.8200   38.7000 C   0  0  0  0  0  0  0  0  0  0  0  0
   35.2810   26.6410   37.9940 N   0  0  0  0  0  0  0  0  0  0  0  0
   33.6510   27.5910   37.0560 H   0  0  0  0  0  0  0  0  0  0  0  0
   34.3870   29.8960   37.6530 H   0  0  0  0  0  0  0  0  0  0  0  0
   36.5900   30.4790   39.0370 N   0  0  0  0  0  0  0  0  0  0  0  0
   37.2250   31.2040   38.0850 C   0  0  0  0  0  0  0  0  0  0  0  0
   37.6570   32.4900   38.3790 C   0  0  0  0  0  0  0  0  0  0  0  0
   37.4110   32.9520   39.6330 C   0  0  0  0  0  0  0  0  0  0  0  0
   37.8000   34.1400   39.9340 O   0  0  0  0  0  0  0  0  0  0  0  0
   36.7830   32.2540   40.5970 N   0  0  0  0  0  0  0  0  0  0  0  0
   36.3850   31.0080   40.2540 C   0  0  0  0  0  0  0  0  0  0  0  0
   35.7970   30.2660   41.0530 O   0  0  0  0  0  0  0  0  0  0  0  0
   37.3820   30.7590   37.1060 H   0  0  0  0  0  0  0  0  0  0  0  0
   38.1610   33.0840   37.6450 H   0  0  0  0  0  0  0  0  0  0  0  0
   36.6080   32.6390   41.5570 H   0  0  0  0  0  0  0  0  0  0  0  0
   37.3220   25.7620   39.1890 C   0  0  0  0  0  0  0  0  0  0  0  0
   36.6970   24.9350   39.6070 H   0  0  0  0  0  0  0  0  0  0  0  0
   37.8890   25.3590   38.3260 H   0  0  0  0  0  0  0  0  0  0  0  0
   38.2230   26.2120   40.3050 C   0  0  0  0  0  0  0  0  0  0  0  0
   39.0470   25.4710   40.3530 H   0  0  0  0  0  0  0  0  0  0  0  0
   38.6970   27.1940   40.0970 H   0  0  0  0  0  0  0  0  0  0  0  0
   37.4980   26.2820   41.5310 N   0  0  0  0  0  0  0  0  0  0  0  0
   36.4910   26.1410   41.4470 H   0  0  0  0  0  0  0  0  0  0  0  0
   37.9130   27.6530   42.4960 S   0  0  0  0  0  0  0  0  0  0  0  0
   38.7040   27.1290   43.6800 O   0  0  0  0  0  1  0  0  0  0  0  0
   38.7730   28.6120   41.7640 O   0  0  0  0  0  1  0  0  0  0  0  0
   36.5510   28.3830   43.0990 O   0  0  0  0  0  0  0  0  0  0  0  0
   35.7060   27.9860   42.7510 H   0  0  0  0  0  0  0  0  0  0  0  0
  1  2  2  0  0  0  0
  1  6  1  0  0  0  0
  2  3  1  0  0  0  0
  3  9  1  0  0  0  0
  3  4  2  0  0  0  0
  5  4  1  0  0  0  0
  5 20  1  0  0  0  0
  6  5  2  0  0  0  0
  7  1  1  0  0  0  0
  8  2  1  0  0  0  0
  9 15  1  0  0  0  0
 10 11  2  0  0  0  0
 10  9  1  0  0  0  0
 11 12  1  0  0  0  0
 12 13  2  0  0  0  0
 12 14  1  0  0  0  0
 14 19  1  0  0  0  0
 15 14  1  0  0  0  0
 15 16  2  0  0  0  0
 17 10  1  0  0  0  0
 18 11  1  0  0  0  0
 20 21  1  0  0  0  0
 20 23  1  0  0  0  0
 22 20  1  0  0  0  0
 23 24  1  0  0  0  0
 23 26  1  0  0  0  0
 25 23  1  0  0  0  0
 26 28  1  0  0  0  0
 27 26  1  0  0  0  0
 28 31  1  0  0  0  0
 28 29  1  0  0  0  0
 30 28  1  0  0  0  0
 32 31  1  0  0  0  0
M  END
>  <minimizedAffinity>
-4.90133905

$$$$

 OpenBabel03242521163D

 32 33  0  0  0  0  0  0  0  0999 V2000
   39.5190   30.1780   42.5110 C   0  0  0  0  0  0  0  0  0  0  0  0
   39.3320   28.7720   42.3940 C   0  0  0  0  0  0  0  0  0  0  0  0
   38.2590   28.3350   41.6000 C   0  0  0  0  0  0  0  0  0  0  0  0
   37.4630   29.2650   40.9930 N   0  0  0  0  0  0  0  0  0  0  0  0
   37.6820   30.5790   41.1350 C   0  0  0  0  0  0  0  0  0  0  0  0
   38.6980   31.0530   41.8860 N   0  0  0  0  0  0  0  0  0  0  0  0
   40.3340   30.5490   43.1130 H   0  0  0  0  0  0  0  0  0  0  0  0
   39.9970   28.0890   42.9000 H   0  0  0  0  0  0  0  0  0  0  0  0
   38.0620   26.9350   41.4750 N   0  0  0  0  0  0  0  0  0  0  0  0
   38.7700   26.2830   40.5230 C   0  0  0  0  0  0  0  0  0  0  0  0
   38.6070   24.9130   40.3660 C   0  0  0  0  0  0  0  0  0  0  0  0
   37.7260   24.2980   41.1980 C   0  0  0  0  0  0  0  0  0  0  0  0
   37.5550   23.0300   41.0760 O   0  0  0  0  0  0  0  0  0  0  0  0
   37.0100   24.9220   42.1510 N   0  0  0  0  0  0  0  0  0  0  0  0
   37.2100   26.2540   42.2570 C   0  0  0  0  0  0  0  0  0  0  0  0
   36.6100   26.9420   43.0960 O   0  0  0  0  0  0  0  0  0  0  0  0
   39.4560   26.8510   39.8990 H   0  0  0  0  0  0  0  0  0  0  0  0
   39.1550   24.3740   39.6220 H   0  0  0  0  0  0  0  0  0  0  0  0
   36.3360   24.4180   42.7790 H   0  0  0  0  0  0  0  0  0  0  0  0
   36.6930   31.3800   40.3890 C   0  0  0  0  0  0  0  0  0  0  0  0
   35.8660   30.7020   40.0680 H   0  0  0  0  0  0  0  0  0  0  0  0
   36.2660   32.1380   41.0760 H   0  0  0  0  0  0  0  0  0  0  0  0
   37.2450   31.9940   39.1320 C   0  0  0  0  0  0  0  0  0  0  0  0
   36.3780   32.1370   38.4540 H   0  0  0  0  0  0  0  0  0  0  0  0
   37.6740   33.0030   39.3070 H   0  0  0  0  0  0  0  0  0  0  0  0
   38.2350   31.1450   38.5580 N   0  0  0  0  0  0  0  0  0  0  0  0
   38.3160   30.2230   38.9870 H   0  0  0  0  0  0  0  0  0  0  0  0
   39.7600   31.9240   38.3320 S   0  0  0  0  0  0  0  0  0  0  0  0
   39.7370   33.1800   39.1810 O   0  0  0  0  0  1  0  0  0  0  0  0
   40.8890   31.0840   38.7940 O   0  0  0  0  0  1  0  0  0  0  0  0
   39.9510   32.4000   36.7540 O   0  0  0  0  0  0  0  0  0  0  0  0
   39.2120   32.0940   36.1590 H   0  0  0  0  0  0  0  0  0  0  0  0
  1  7  1  0  0  0  0
  2  1  1  0  0  0  0
  2  8  1  0  0  0  0
  3  2  2  0  0  0  0
  4  5  2  0  0  0  0
  4  3  1  0  0  0  0
  5  6  1  0  0  0  0
  6  1  2  0  0  0  0
  9  3  1  0  0  0  0
  9 15  1  0  0  0  0
 10  9  1  0  0  0  0
 11 10  2  0  0  0  0
 11 12  1  0  0  0  0
 12 14  1  0  0  0  0
 13 12  2  0  0  0  0
 14 15  1  0  0  0  0
 14 19  1  0  0  0  0
 15 16  2  0  0  0  0
 17 10  1  0  0  0  0
 18 11  1  0  0  0  0
 20 22  1  0  0  0  0
 20  5  1  0  0  0  0
 21 20  1  0  0  0  0
 23 25  1  0  0  0  0
 23 20  1  0  0  0  0
 24 23  1  0  0  0  0
 26 27  1  0  0  0  0
 26 23  1  0  0  0  0
 28 26  1  0  0  0  0
 28 30  1  0  0  0  0
 28 29  1  0  0  0  0
 31 28  1  0  0  0  0
 32 31  1  0  0  0  0
M  END
>  <minimizedAffinity>
-4.87574482

$$$$
