
 OpenBabel03252505163D

 23 24  0  0  0  0  0  0  0  0999 V2000
   37.0820   26.2700   38.9620 C   0  0  0  0  0  0  0  0  0  0  0  0
   37.1470   25.8960   40.3140 C   0  0  0  0  0  0  0  0  0  0  0  0
   37.0270   26.9200   41.2510 C   0  0  0  0  0  0  0  0  0  0  0  0
   36.8550   28.2180   40.8370 N   0  0  0  0  0  0  0  0  0  0  0  0
   36.7960   28.5360   39.5120 C   0  0  0  0  0  0  0  0  0  0  0  0
   36.9100   27.5590   38.5980 N   0  0  0  0  0  0  0  0  0  0  0  0
   37.1680   25.5330   38.1860 H   0  0  0  0  0  0  0  0  0  0  0  0
   37.2820   24.8770   40.6160 H   0  0  0  0  0  0  0  0  0  0  0  0
   36.6170   29.8830   39.0850 N   0  0  0  0  0  0  0  0  0  0  0  0
   36.3430   30.1120   38.1050 H   0  0  0  0  0  0  0  0  0  0  0  0
   37.0500   26.6250   42.7140 C   0  0  0  0  0  0  0  0  0  0  0  0
   38.1510   27.3380   43.4600 C   0  0  0  0  0  0  0  0  0  0  0  0
   36.6580   27.6830   43.6390 C   0  0  0  0  0  0  0  0  0  0  0  0
   36.8900   25.5520   42.9430 H   0  0  0  0  0  0  0  0  0  0  0  0
   38.5580   26.7700   44.3170 H   0  0  0  0  0  0  0  0  0  0  0  0
   38.8130   28.0330   42.9420 H   0  0  0  0  0  0  0  0  0  0  0  0
   36.1870   27.4570   44.6200 H   0  0  0  0  0  0  0  0  0  0  0  0
   36.4330   28.7010   43.2580 H   0  0  0  0  0  0  0  0  0  0  0  0
   36.8520   31.1850   40.1940 S   0  0  0  0  0  0  0  0  0  0  0  0
   38.1880   31.0670   40.9100 O   0  0  0  0  0  1  0  0  0  0  0  0
   36.8230   32.5070   39.4800 O   0  0  0  0  0  1  0  0  0  0  0  0
   35.6930   31.1100   41.4300 O   0  0  0  0  0  0  0  0  0  0  0  0
   35.3030   32.0040   41.5060 H   0  0  0  0  0  0  0  0  0  0  0  0
  1  2  1  0  0  0  0
  2  8  1  0  0  0  0
  2  3  2  0  0  0  0
  3 11  1  0  0  0  0
  4  3  1  0  0  0  0
  5  4  2  0  0  0  0
  6  1  2  0  0  0  0
  6  5  1  0  0  0  0
  7  1  1  0  0  0  0
  9  5  1  0  0  0  0
  9 19  1  0  0  0  0
 10  9  1  0  0  0  0
 11 14  1  0  0  0  0
 11 12  1  0  0  0  0
 11 13  1  0  0  0  0
 12 13  1  0  0  0  0
 12 15  1  0  0  0  0
 13 17  1  0  0  0  0
 16 12  1  0  0  0  0
 18 13  1  0  0  0  0
 19 20  1  0  0  0  0
 19 22  1  0  0  0  0
 21 19  1  0  0  0  0
 22 23  1  0  0  0  0
M  END
>  <minimizedAffinity>
-4.59818411

$$$$

 OpenBabel03252505163D

 23 24  0  0  0  0  0  0  0  0999 V2000
   38.0190   28.4790   43.1890 C   0  0  0  0  0  0  0  0  0  0  0  0
   37.0570   27.9920   42.2900 C   0  0  0  0  0  0  0  0  0  0  0  0
   36.8110   28.7670   41.1590 C   0  0  0  0  0  0  0  0  0  0  0  0
   37.4940   29.9420   40.9660 N   0  0  0  0  0  0  0  0  0  0  0  0
   38.4220   30.3770   41.8660 C   0  0  0  0  0  0  0  0  0  0  0  0
   38.6690   29.6400   42.9600 N   0  0  0  0  0  0  0  0  0  0  0  0
   38.2580   27.9320   44.0820 H   0  0  0  0  0  0  0  0  0  0  0  0
   36.5350   27.0710   42.4590 H   0  0  0  0  0  0  0  0  0  0  0  0
   39.1290   31.5960   41.6630 N   0  0  0  0  0  0  0  0  0  0  0  0
   39.9890   31.8250   42.2080 H   0  0  0  0  0  0  0  0  0  0  0  0
   35.8310   28.3210   40.1250 C   0  0  0  0  0  0  0  0  0  0  0  0
   34.6710   29.2690   39.9390 C   0  0  0  0  0  0  0  0  0  0  0  0
   35.7640   29.0640   38.8700 C   0  0  0  0  0  0  0  0  0  0  0  0
   35.6010   27.2380   40.1820 H   0  0  0  0  0  0  0  0  0  0  0  0
   33.7200   28.7730   39.6710 H   0  0  0  0  0  0  0  0  0  0  0  0
   34.6230   30.2050   40.4980 H   0  0  0  0  0  0  0  0  0  0  0  0
   35.4710   28.5750   37.9170 H   0  0  0  0  0  0  0  0  0  0  0  0
   36.3700   29.9840   38.7350 H   0  0  0  0  0  0  0  0  0  0  0  0
   38.5730   32.7400   40.4950 S   0  0  0  0  0  0  0  0  0  0  0  0
   38.9380   34.1610   40.8950 O   0  0  0  0  0  1  0  0  0  0  0  0
   39.1810   32.4660   39.1480 O   0  0  0  0  0  1  0  0  0  0  0  0
   36.8790   32.7310   40.4370 O   0  0  0  0  0  0  0  0  0  0  0  0
   36.6280   32.6580   39.4940 H   0  0  0  0  0  0  0  0  0  0  0  0
  1  7  1  0  0  0  0
  2  8  1  0  0  0  0
  2  1  2  0  0  0  0
  3  2  1  0  0  0  0
  4  3  2  0  0  0  0
  4  5  1  0  0  0  0
  5  6  2  0  0  0  0
  6  1  1  0  0  0  0
  9  5  1  0  0  0  0
  9 10  1  0  0  0  0
 11 14  1  0  0  0  0
 11  3  1  0  0  0  0
 12 11  1  0  0  0  0
 12 16  1  0  0  0  0
 13 12  1  0  0  0  0
 13 11  1  0  0  0  0
 15 12  1  0  0  0  0
 17 13  1  0  0  0  0
 18 13  1  0  0  0  0
 19 20  1  0  0  0  0
 19  9  1  0  0  0  0
 21 19  1  0  0  0  0
 22 19  1  0  0  0  0
 23 22  1  0  0  0  0
M  END
>  <minimizedAffinity>
-4.48014927

$$$$

 OpenBabel03252505163D

 23 24  0  0  0  0  0  0  0  0999 V2000
   40.0070   28.4240   42.9680 C   0  0  0  0  0  0  0  0  0  0  0  0
   39.0740   27.3750   42.9500 C   0  0  0  0  0  0  0  0  0  0  0  0
   37.9310   27.5700   42.1780 C   0  0  0  0  0  0  0  0  0  0  0  0
   37.7590   28.7420   41.4830 N   0  0  0  0  0  0  0  0  0  0  0  0
   38.6930   29.7350   41.5280 C   0  0  0  0  0  0  0  0  0  0  0  0
   39.8000   29.5590   42.2680 N   0  0  0  0  0  0  0  0  0  0  0  0
   40.9110   28.3410   43.5420 H   0  0  0  0  0  0  0  0  0  0  0  0
   39.2270   26.4680   43.5000 H   0  0  0  0  0  0  0  0  0  0  0  0
   38.5130   30.9480   40.8060 N   0  0  0  0  0  0  0  0  0  0  0  0
   39.3030   31.6090   40.6450 H   0  0  0  0  0  0  0  0  0  0  0  0
   36.8930   26.5030   42.0660 C   0  0  0  0  0  0  0  0  0  0  0  0
   36.9750   25.7080   40.7860 C   0  0  0  0  0  0  0  0  0  0  0  0
   37.3180   25.1110   42.1660 C   0  0  0  0  0  0  0  0  0  0  0  0
   35.8880   26.8380   42.3960 H   0  0  0  0  0  0  0  0  0  0  0  0
   35.9970   25.3590   40.4070 H   0  0  0  0  0  0  0  0  0  0  0  0
   37.7680   25.9010   40.0620 H   0  0  0  0  0  0  0  0  0  0  0  0
   36.6490   24.3220   42.5710 H   0  0  0  0  0  0  0  0  0  0  0  0
   38.3980   24.8620   42.2380 H   0  0  0  0  0  0  0  0  0  0  0  0
   36.9600   31.3600   40.1720 S   0  0  0  0  0  0  0  0  0  0  0  0
   36.8600   32.8480   39.8780 O   0  0  0  0  0  1  0  0  0  0  0  0
   36.6890   30.6150   38.8950 O   0  0  0  0  0  1  0  0  0  0  0  0
   35.7630   31.0700   41.3380 O   0  0  0  0  0  0  0  0  0  0  0  0
   35.0600   30.5520   40.8980 H   0  0  0  0  0  0  0  0  0  0  0  0
  1  7  1  0  0  0  0
  2  1  1  0  0  0  0
  2  8  1  0  0  0  0
  3  2  2  0  0  0  0
  4  5  2  0  0  0  0
  4  3  1  0  0  0  0
  5  6  1  0  0  0  0
  6  1  2  0  0  0  0
  9  5  1  0  0  0  0
 10  9  1  0  0  0  0
 11 13  1  0  0  0  0
 11  3  1  0  0  0  0
 11 14  1  0  0  0  0
 12 11  1  0  0  0  0
 12 13  1  0  0  0  0
 13 18  1  0  0  0  0
 13 17  1  0  0  0  0
 15 12  1  0  0  0  0
 16 12  1  0  0  0  0
 19  9  1  0  0  0  0
 19 22  1  0  0  0  0
 20 19  1  0  0  0  0
 21 19  1  0  0  0  0
 23 22  1  0  0  0  0
M  END
>  <minimizedAffinity>
-4.40781069

$$$$

 OpenBabel03252505163D

 23 24  0  0  0  0  0  0  0  0999 V2000
   36.9610   31.2120   40.7720 C   0  0  0  0  0  0  0  0  0  0  0  0
   37.0390   30.0630   41.5760 C   0  0  0  0  0  0  0  0  0  0  0  0
   38.2430   29.8520   42.2450 C   0  0  0  0  0  0  0  0  0  0  0  0
   39.2780   30.7420   42.1020 N   0  0  0  0  0  0  0  0  0  0  0  0
   39.1580   31.8460   41.3100 C   0  0  0  0  0  0  0  0  0  0  0  0
   38.0030   32.0620   40.6590 N   0  0  0  0  0  0  0  0  0  0  0  0
   36.0630   31.4370   40.2270 H   0  0  0  0  0  0  0  0  0  0  0  0
   36.2190   29.3810   41.6750 H   0  0  0  0  0  0  0  0  0  0  0  0
   40.2330   32.7670   41.1630 N   0  0  0  0  0  0  0  0  0  0  0  0
   40.0860   33.7170   40.7570 H   0  0  0  0  0  0  0  0  0  0  0  0
   38.4180   28.6780   43.1510 C   0  0  0  0  0  0  0  0  0  0  0  0
   37.1180   28.1120   43.6690 C   0  0  0  0  0  0  0  0  0  0  0  0
   38.0160   27.3620   42.6630 C   0  0  0  0  0  0  0  0  0  0  0  0
   39.2430   28.8110   43.8790 H   0  0  0  0  0  0  0  0  0  0  0  0
   37.1830   27.6900   44.6890 H   0  0  0  0  0  0  0  0  0  0  0  0
   36.1630   28.5270   43.3440 H   0  0  0  0  0  0  0  0  0  0  0  0
   38.5180   26.4330   43.0090 H   0  0  0  0  0  0  0  0  0  0  0  0
   37.5170   27.2620   41.6770 H   0  0  0  0  0  0  0  0  0  0  0  0
   41.8270   32.3300   41.6610 S   0  0  0  0  0  0  0  0  0  0  0  0
   42.3920   31.2180   40.7910 O   0  0  0  0  0  1  0  0  0  0  0  0
   42.7570   33.5070   41.5700 O   0  0  0  0  0  1  0  0  0  0  0  0
   41.7880   31.6760   43.2250 O   0  0  0  0  0  0  0  0  0  0  0  0
   42.4780   32.1370   43.7420 H   0  0  0  0  0  0  0  0  0  0  0  0
  1  2  1  0  0  0  0
  2  8  1  0  0  0  0
  2  3  2  0  0  0  0
  3 11  1  0  0  0  0
  4  3  1  0  0  0  0
  5  4  2  0  0  0  0
  6  1  2  0  0  0  0
  6  5  1  0  0  0  0
  7  1  1  0  0  0  0
  9  5  1  0  0  0  0
  9 19  1  0  0  0  0
 10  9  1  0  0  0  0
 11 12  1  0  0  0  0
 11 14  1  0  0  0  0
 12 15  1  0  0  0  0
 13 17  1  0  0  0  0
 13 11  1  0  0  0  0
 13 12  1  0  0  0  0
 16 12  1  0  0  0  0
 18 13  1  0  0  0  0
 19 22  1  0  0  0  0
 20 19  1  0  0  0  0
 21 19  1  0  0  0  0
 22 23  1  0  0  0  0
M  END
>  <minimizedAffinity>
-4.30072594

$$$$

 OpenBabel03252505163D

 23 24  0  0  0  0  0  0  0  0999 V2000
   35.6680   29.3850   40.0190 C   0  0  0  0  0  0  0  0  0  0  0  0
   36.0850   28.7850   41.2180 C   0  0  0  0  0  0  0  0  0  0  0  0
   37.1790   29.3630   41.8570 C   0  0  0  0  0  0  0  0  0  0  0  0
   37.7940   30.4640   41.3140 N   0  0  0  0  0  0  0  0  0  0  0  0
   37.3550   31.0160   40.1460 C   0  0  0  0  0  0  0  0  0  0  0  0
   36.3010   30.4690   39.5190 N   0  0  0  0  0  0  0  0  0  0  0  0
   34.8320   28.9910   39.4730 H   0  0  0  0  0  0  0  0  0  0  0  0
   35.5910   27.9260   41.6250 H   0  0  0  0  0  0  0  0  0  0  0  0
   37.9930   32.1580   39.5850 N   0  0  0  0  0  0  0  0  0  0  0  0
   37.5400   32.7210   38.8340 H   0  0  0  0  0  0  0  0  0  0  0  0
   37.6810   28.8210   43.1550 C   0  0  0  0  0  0  0  0  0  0  0  0
   36.8750   27.6590   43.6800 C   0  0  0  0  0  0  0  0  0  0  0  0
   38.3180   27.5080   43.1550 C   0  0  0  0  0  0  0  0  0  0  0  0
   37.9640   29.6140   43.8760 H   0  0  0  0  0  0  0  0  0  0  0  0
   36.8190   27.6080   44.7820 H   0  0  0  0  0  0  0  0  0  0  0  0
   36.0400   27.2570   43.1040 H   0  0  0  0  0  0  0  0  0  0  0  0
   39.1100   27.2430   43.8870 H   0  0  0  0  0  0  0  0  0  0  0  0
   38.3450   26.9020   42.2250 H   0  0  0  0  0  0  0  0  0  0  0  0
   39.5540   32.6420   40.1420 S   0  0  0  0  0  0  0  0  0  0  0  0
   40.6240   31.6460   39.7240 O   0  0  0  0  0  1  0  0  0  0  0  0
   39.9280   33.9870   39.5830 O   0  0  0  0  0  1  0  0  0  0  0  0
   39.5940   32.6320   41.8370 O   0  0  0  0  0  0  0  0  0  0  0  0
   39.9680   33.4910   42.1170 H   0  0  0  0  0  0  0  0  0  0  0  0
  1  2  1  0  0  0  0
  2  8  1  0  0  0  0
  2  3  2  0  0  0  0
  3 11  1  0  0  0  0
  4  3  1  0  0  0  0
  5  4  2  0  0  0  0
  6  1  2  0  0  0  0
  6  5  1  0  0  0  0
  7  1  1  0  0  0  0
  9 19  1  0  0  0  0
  9  5  1  0  0  0  0
 10  9  1  0  0  0  0
 11 12  1  0  0  0  0
 11 14  1  0  0  0  0
 12 15  1  0  0  0  0
 13 11  1  0  0  0  0
 13 12  1  0  0  0  0
 13 17  1  0  0  0  0
 16 12  1  0  0  0  0
 18 13  1  0  0  0  0
 19 22  1  0  0  0  0
 20 19  1  0  0  0  0
 21 19  1  0  0  0  0
 22 23  1  0  0  0  0
M  END
>  <minimizedAffinity>
-4.25796556

$$$$

 OpenBabel03252505163D

 23 24  0  0  0  0  0  0  0  0999 V2000
   40.0150   25.7350   43.6800 C   0  0  0  0  0  0  0  0  0  0  0  0
   39.0980   26.7990   43.6720 C   0  0  0  0  0  0  0  0  0  0  0  0
   37.9570   26.6320   42.8910 C   0  0  0  0  0  0  0  0  0  0  0  0
   37.7710   25.4730   42.1780 N   0  0  0  0  0  0  0  0  0  0  0  0
   38.6890   24.4640   42.2150 C   0  0  0  0  0  0  0  0  0  0  0  0
   39.7930   24.6120   42.9650 N   0  0  0  0  0  0  0  0  0  0  0  0
   40.9170   25.7960   44.2590 H   0  0  0  0  0  0  0  0  0  0  0  0
   39.2620   27.6950   44.2360 H   0  0  0  0  0  0  0  0  0  0  0  0
   38.4930   23.2640   41.4760 N   0  0  0  0  0  0  0  0  0  0  0  0
   39.0560   22.4070   41.6700 H   0  0  0  0  0  0  0  0  0  0  0  0
   36.9040   27.6890   42.8400 C   0  0  0  0  0  0  0  0  0  0  0  0
   37.4260   29.0470   42.4370 C   0  0  0  0  0  0  0  0  0  0  0  0
   36.5020   28.2020   41.5340 C   0  0  0  0  0  0  0  0  0  0  0  0
   36.2020   27.6450   43.6970 H   0  0  0  0  0  0  0  0  0  0  0  0
   36.8940   29.8930   42.9090 H   0  0  0  0  0  0  0  0  0  0  0  0
   38.4750   29.1820   42.1710 H   0  0  0  0  0  0  0  0  0  0  0  0
   35.4750   28.5800   41.3450 H   0  0  0  0  0  0  0  0  0  0  0  0
   37.0330   27.8690   40.6180 H   0  0  0  0  0  0  0  0  0  0  0  0
   37.3060   23.1970   40.2240 S   0  0  0  0  0  0  0  0  0  0  0  0
   37.6520   24.1380   39.0820 O   0  0  0  0  0  1  0  0  0  0  0  0
   37.1980   21.8060   39.6640 O   0  0  0  0  0  1  0  0  0  0  0  0
   35.8160   23.7570   40.8090 O   0  0  0  0  0  0  0  0  0  0  0  0
   35.1440   23.0910   40.5570 H   0  0  0  0  0  0  0  0  0  0  0  0
  1  7  1  0  0  0  0
  2  1  1  0  0  0  0
  2  8  1  0  0  0  0
  3  2  2  0  0  0  0
  4  5  2  0  0  0  0
  4  3  1  0  0  0  0
  5  6  1  0  0  0  0
  6  1  2  0  0  0  0
  9 10  1  0  0  0  0
  9  5  1  0  0  0  0
 11  3  1  0  0  0  0
 11 14  1  0  0  0  0
 12 11  1  0  0  0  0
 12 15  1  0  0  0  0
 13 12  1  0  0  0  0
 13 11  1  0  0  0  0
 16 12  1  0  0  0  0
 17 13  1  0  0  0  0
 18 13  1  0  0  0  0
 19 22  1  0  0  0  0
 19  9  1  0  0  0  0
 20 19  1  0  0  0  0
 21 19  1  0  0  0  0
 23 22  1  0  0  0  0
M  END
>  <minimizedAffinity>
-4.19290066

$$$$

 OpenBabel03252505163D

 23 24  0  0  0  0  0  0  0  0999 V2000
   39.2600   31.2200   41.4200 C   0  0  0  0  0  0  0  0  0  0  0  0
   39.0490   30.4300   42.5620 C   0  0  0  0  0  0  0  0  0  0  0  0
   38.0750   29.4390   42.4630 C   0  0  0  0  0  0  0  0  0  0  0  0
   37.3770   29.2710   41.2930 N   0  0  0  0  0  0  0  0  0  0  0  0
   37.6150   30.0610   40.2070 C   0  0  0  0  0  0  0  0  0  0  0  0
   38.5520   31.0200   40.2880 N   0  0  0  0  0  0  0  0  0  0  0  0
   39.9950   32.0030   41.4260 H   0  0  0  0  0  0  0  0  0  0  0  0
   39.6050   30.5780   43.4660 H   0  0  0  0  0  0  0  0  0  0  0  0
   36.8910   29.8850   38.9950 N   0  0  0  0  0  0  0  0  0  0  0  0
   37.2120   30.3140   38.1000 H   0  0  0  0  0  0  0  0  0  0  0  0
   37.7960   28.5240   43.6100 C   0  0  0  0  0  0  0  0  0  0  0  0
   36.6770   27.5460   43.3480 C   0  0  0  0  0  0  0  0  0  0  0  0
   38.1530   27.1160   43.4730 C   0  0  0  0  0  0  0  0  0  0  0  0
   37.8040   29.0420   44.5900 H   0  0  0  0  0  0  0  0  0  0  0  0
   36.0850   27.2870   44.2450 H   0  0  0  0  0  0  0  0  0  0  0  0
   36.1800   27.5180   42.3770 H   0  0  0  0  0  0  0  0  0  0  0  0
   38.4410   26.4980   44.3500 H   0  0  0  0  0  0  0  0  0  0  0  0
   38.5420   26.7310   42.5070 H   0  0  0  0  0  0  0  0  0  0  0  0
   35.4430   28.9440   38.9770 S   0  0  0  0  0  0  0  0  0  0  0  0
   34.5970   29.2550   37.7520 O   0  0  0  0  0  1  0  0  0  0  0  0
   35.7600   27.4750   38.9610 O   0  0  0  0  0  1  0  0  0  0  0  0
   34.4630   29.3630   40.2950 O   0  0  0  0  0  0  0  0  0  0  0  0
   34.2020   28.5270   40.7310 H   0  0  0  0  0  0  0  0  0  0  0  0
  1  7  1  0  0  0  0
  1  2  1  0  0  0  0
  2  8  1  0  0  0  0
  3  2  2  0  0  0  0
  3 11  1  0  0  0  0
  4  3  1  0  0  0  0
  5  6  1  0  0  0  0
  5  4  2  0  0  0  0
  6  1  2  0  0  0  0
  9  5  1  0  0  0  0
 10  9  1  0  0  0  0
 11 14  1  0  0  0  0
 12 13  1  0  0  0  0
 12 11  1  0  0  0  0
 12 15  1  0  0  0  0
 13 11  1  0  0  0  0
 13 17  1  0  0  0  0
 16 12  1  0  0  0  0
 18 13  1  0  0  0  0
 19  9  1  0  0  0  0
 19 22  1  0  0  0  0
 20 19  1  0  0  0  0
 21 19  1  0  0  0  0
 22 23  1  0  0  0  0
M  END
>  <minimizedAffinity>
-4.18353462

$$$$

 OpenBabel03252505163D

 23 24  0  0  0  0  0  0  0  0999 V2000
   39.5930   27.2050   39.5870 C   0  0  0  0  0  0  0  0  0  0  0  0
   39.2640   26.8530   40.9060 C   0  0  0  0  0  0  0  0  0  0  0  0
   38.4690   27.7520   41.6120 C   0  0  0  0  0  0  0  0  0  0  0  0
   38.0470   28.9160   41.0170 N   0  0  0  0  0  0  0  0  0  0  0  0
   38.3900   29.2180   39.7320 C   0  0  0  0  0  0  0  0  0  0  0  0
   39.1550   28.3590   39.0390 N   0  0  0  0  0  0  0  0  0  0  0  0
   40.2030   26.5590   38.9840 H   0  0  0  0  0  0  0  0  0  0  0  0
   39.6030   25.9390   41.3510 H   0  0  0  0  0  0  0  0  0  0  0  0
   37.9510   30.4250   39.1170 N   0  0  0  0  0  0  0  0  0  0  0  0
   38.0070   30.5620   38.0850 H   0  0  0  0  0  0  0  0  0  0  0  0
   38.0360   27.4560   43.0100 C   0  0  0  0  0  0  0  0  0  0  0  0
   37.3160   28.6020   43.6780 C   0  0  0  0  0  0  0  0  0  0  0  0
   36.6090   27.2920   43.2710 C   0  0  0  0  0  0  0  0  0  0  0  0
   38.8080   26.9230   43.6000 H   0  0  0  0  0  0  0  0  0  0  0  0
   37.4860   28.6680   44.7690 H   0  0  0  0  0  0  0  0  0  0  0  0
   37.1130   29.5240   43.1330 H   0  0  0  0  0  0  0  0  0  0  0  0
   36.2350   26.6310   44.0820 H   0  0  0  0  0  0  0  0  0  0  0  0
   35.8710   27.4710   42.4620 H   0  0  0  0  0  0  0  0  0  0  0  0
   37.3070   31.7060   40.0790 S   0  0  0  0  0  0  0  0  0  0  0  0
   38.3190   32.1890   41.1050 O   0  0  0  0  0  1  0  0  0  0  0  0
   36.9210   32.8770   39.2190 O   0  0  0  0  0  1  0  0  0  0  0  0
   35.9980   31.1400   40.9970 O   0  0  0  0  0  0  0  0  0  0  0  0
   35.2650   31.7740   40.8640 H   0  0  0  0  0  0  0  0  0  0  0  0
  1  2  1  0  0  0  0
  2  8  1  0  0  0  0
  2  3  2  0  0  0  0
  3 11  1  0  0  0  0
  4  3  1  0  0  0  0
  5  4  2  0  0  0  0
  6  1  2  0  0  0  0
  6  5  1  0  0  0  0
  7  1  1  0  0  0  0
  9  5  1  0  0  0  0
  9 19  1  0  0  0  0
 10  9  1  0  0  0  0
 11 13  1  0  0  0  0
 11 14  1  0  0  0  0
 11 12  1  0  0  0  0
 12 15  1  0  0  0  0
 13 12  1  0  0  0  0
 13 17  1  0  0  0  0
 16 12  1  0  0  0  0
 18 13  1  0  0  0  0
 19 22  1  0  0  0  0
 19 20  1  0  0  0  0
 21 19  1  0  0  0  0
 23 22  1  0  0  0  0
M  END
>  <minimizedAffinity>
-4.13069391

$$$$

 OpenBabel03252505163D

 23 24  0  0  0  0  0  0  0  0999 V2000
   37.8700   28.7880   43.4650 C   0  0  0  0  0  0  0  0  0  0  0  0
   37.6490   27.4030   43.5460 C   0  0  0  0  0  0  0  0  0  0  0  0
   37.0800   26.7960   42.4280 C   0  0  0  0  0  0  0  0  0  0  0  0
   36.7640   27.5450   41.3220 N   0  0  0  0  0  0  0  0  0  0  0  0
   36.9960   28.8890   41.2870 C   0  0  0  0  0  0  0  0  0  0  0  0
   37.5450   29.4860   42.3560 N   0  0  0  0  0  0  0  0  0  0  0  0
   38.3050   29.3210   44.2890 H   0  0  0  0  0  0  0  0  0  0  0  0
   37.9040   26.8370   44.4190 H   0  0  0  0  0  0  0  0  0  0  0  0
   36.6670   29.6630   40.1380 N   0  0  0  0  0  0  0  0  0  0  0  0
   37.0420   30.6270   40.0050 H   0  0  0  0  0  0  0  0  0  0  0  0
   36.8350   25.3240   42.4000 C   0  0  0  0  0  0  0  0  0  0  0  0
   36.8900   24.7260   41.0150 C   0  0  0  0  0  0  0  0  0  0  0  0
   37.9570   24.4420   42.0930 C   0  0  0  0  0  0  0  0  0  0  0  0
   36.0020   25.0090   43.0600 H   0  0  0  0  0  0  0  0  0  0  0  0
   36.2050   23.8710   40.8650 H   0  0  0  0  0  0  0  0  0  0  0  0
   37.1370   25.3450   40.1520 H   0  0  0  0  0  0  0  0  0  0  0  0
   38.0200   23.4110   42.5020 H   0  0  0  0  0  0  0  0  0  0  0  0
   38.9400   24.8710   41.8060 H   0  0  0  0  0  0  0  0  0  0  0  0
   35.6270   29.0150   38.9220 S   0  0  0  0  0  0  0  0  0  0  0  0
   34.1790   28.9980   39.3850 O   0  0  0  0  0  1  0  0  0  0  0  0
   35.7020   29.8330   37.6630 O   0  0  0  0  0  1  0  0  0  0  0  0
   36.0080   27.3870   38.6390 O   0  0  0  0  0  0  0  0  0  0  0  0
   36.0950   27.2800   37.6710 H   0  0  0  0  0  0  0  0  0  0  0  0
  1  2  1  0  0  0  0
  1  7  1  0  0  0  0
  2  8  1  0  0  0  0
  3  2  2  0  0  0  0
  4  3  1  0  0  0  0
  5  4  2  0  0  0  0
  5  6  1  0  0  0  0
  6  1  2  0  0  0  0
  9  5  1  0  0  0  0
 10  9  1  0  0  0  0
 11  3  1  0  0  0  0
 11 14  1  0  0  0  0
 12 13  1  0  0  0  0
 12 11  1  0  0  0  0
 13 11  1  0  0  0  0
 13 17  1  0  0  0  0
 15 12  1  0  0  0  0
 16 12  1  0  0  0  0
 18 13  1  0  0  0  0
 19 20  1  0  0  0  0
 19  9  1  0  0  0  0
 21 19  1  0  0  0  0
 22 19  1  0  0  0  0
 23 22  1  0  0  0  0
M  END
>  <minimizedAffinity>
-4.02184963

$$$$
