
 OpenBabel03252503033D

 31 31  0  0  0  0  0  0  0  0999 V2000
   36.1070   30.5640   40.8180 S   0  0  0  0  0  0  0  0  0  0  0  0
   38.1810   29.7820   42.4340 C   0  0  0  0  0  0  0  0  0  0  0  0
   37.0910   29.3500   41.7130 C   0  0  0  0  0  0  0  0  0  0  0  0
   36.7480   28.0050   41.6700 C   0  0  0  0  0  0  0  0  0  0  0  0
   37.5370   27.1560   42.3680 N   0  0  0  0  0  0  0  0  0  0  0  0
   38.6000   27.5900   43.0690 C   0  0  0  0  0  0  0  0  0  0  0  0
   38.9400   28.8750   43.1200 N   0  0  0  0  0  0  0  0  0  0  0  0
   38.4130   30.8450   42.4400 H   0  0  0  0  0  0  0  0  0  0  0  0
   35.9000   27.6500   41.1100 H   0  0  0  0  0  0  0  0  0  0  0  0
   39.4030   26.6610   43.7900 N   0  0  0  0  0  0  0  0  0  0  0  0
   39.5140   26.7510   44.8430 H   0  0  0  0  0  0  0  0  0  0  0  0
   40.2290   25.3590   43.0110 S   0  0  0  0  0  0  0  0  0  0  0  0
   41.6680   25.4230   43.4340 O   0  0  0  0  0  1  0  0  0  0  0  0
   39.6320   24.0470   43.3710 O   0  0  0  0  0  1  0  0  0  0  0  0
   40.2140   25.6250   41.3500 O   0  0  0  0  0  0  0  0  0  0  0  0
   40.9290   26.2500   41.0720 H   0  0  0  0  0  0  0  0  0  0  0  0
   37.1920   31.5960   39.8320 C   0  0  0  0  0  0  0  0  0  0  0  0
   38.2090   31.1150   39.8570 H   0  0  0  0  0  0  0  0  0  0  0  0
   36.8540   31.6980   38.7660 H   0  0  0  0  0  0  0  0  0  0  0  0
   37.2170   32.9030   40.4690 N   0  0  0  0  0  0  0  0  0  0  0  0
   36.6210   33.5810   39.9170 H   0  0  0  0  0  0  0  0  0  0  0  0
   38.7920   33.5720   40.5570 S   0  0  0  0  0  0  0  0  0  0  0  0
   39.2140   34.1820   39.2650 O   0  0  0  0  0  0  0  0  0  0  0  0
   38.9270   33.7760   38.3920 H   0  0  0  0  0  0  0  0  0  0  0  0
   38.7450   34.6310   41.6310 O   0  0  0  0  0  0  0  0  0  0  0  0
   38.8700   35.5900   41.4000 H   0  0  0  0  0  0  0  0  0  0  0  0
   39.8800   32.4070   41.0480 O   0  0  0  0  0  0  0  0  0  0  0  0
   41.1950   32.7550   40.7850 C   0  0  0  0  0  0  0  0  0  0  0  0
   41.3570   33.8010   40.5110 H   0  0  0  0  0  0  0  0  0  0  0  0
   41.5100   32.1530   39.8920 H   0  0  0  0  0  0  0  0  0  0  0  0
   41.8550   32.4140   41.6140 H   0  0  0  0  0  0  0  0  0  0  0  0
  1  3  1  0  0  0  0
  2  8  1  0  0  0  0
  2  7  1  0  0  0  0
  3  2  2  0  0  0  0
  4  3  1  0  0  0  0
  4  5  2  0  0  0  0
  5  6  1  0  0  0  0
  6  7  2  0  0  0  0
  6 10  1  0  0  0  0
  9  4  1  0  0  0  0
 10 11  1  0  0  0  0
 12 14  1  0  0  0  0
 12 13  1  0  0  0  0
 12 10  1  0  0  0  0
 15 12  1  0  0  0  0
 16 15  1  0  0  0  0
 17 18  1  0  0  0  0
 17 20  1  0  0  0  0
 17  1  1  0  0  0  0
 19 17  1  0  0  0  0
 20 22  1  0  0  0  0
 21 20  1  0  0  0  0
 22 27  1  0  0  0  0
 22 25  1  0  0  0  0
 23 22  1  0  0  0  0
 24 23  1  0  0  0  0
 26 25  1  0  0  0  0
 28 27  1  0  0  0  0
 28 31  1  0  0  0  0
 29 28  1  0  0  0  0
 30 28  1  0  0  0  0
M  END
>  <minimizedAffinity>
-5.31224489

$$$$

 OpenBabel03252503033D

 31 31  0  0  0  0  0  0  0  0999 V2000
   39.8480   33.9990   40.2890 S   0  0  0  0  0  0  0  0  0  0  0  0
   38.5620   31.6050   39.9130 C   0  0  0  0  0  0  0  0  0  0  0  0
   39.4630   32.2880   40.6980 C   0  0  0  0  0  0  0  0  0  0  0  0
   40.0700   31.6770   41.7890 C   0  0  0  0  0  0  0  0  0  0  0  0
   39.7280   30.3910   42.0300 N   0  0  0  0  0  0  0  0  0  0  0  0
   38.8450   29.7330   41.2550 C   0  0  0  0  0  0  0  0  0  0  0  0
   38.2570   30.3050   40.2070 N   0  0  0  0  0  0  0  0  0  0  0  0
   38.1110   32.1220   39.0680 H   0  0  0  0  0  0  0  0  0  0  0  0
   40.7750   32.1960   42.4140 H   0  0  0  0  0  0  0  0  0  0  0  0
   38.5140   28.3790   41.5460 N   0  0  0  0  0  0  0  0  0  0  0  0
   38.6980   27.6160   40.8290 H   0  0  0  0  0  0  0  0  0  0  0  0
   37.8100   27.9070   43.0510 S   0  0  0  0  0  0  0  0  0  0  0  0
   36.5800   27.1040   42.7380 O   0  0  0  0  0  1  0  0  0  0  0  0
   38.7620   27.1130   43.8680 O   0  0  0  0  0  1  0  0  0  0  0  0
   37.2820   29.2840   43.8580 O   0  0  0  0  0  0  0  0  0  0  0  0
   36.3960   29.5840   43.5330 H   0  0  0  0  0  0  0  0  0  0  0  0
   41.4470   34.0700   39.4810 C   0  0  0  0  0  0  0  0  0  0  0  0
   41.3580   34.8260   38.6520 H   0  0  0  0  0  0  0  0  0  0  0  0
   42.2770   34.3730   40.1740 H   0  0  0  0  0  0  0  0  0  0  0  0
   41.7050   32.7420   38.9500 N   0  0  0  0  0  0  0  0  0  0  0  0
   42.6760   32.4270   39.2310 H   0  0  0  0  0  0  0  0  0  0  0  0
   41.6330   32.6820   37.2380 S   0  0  0  0  0  0  0  0  0  0  0  0
   40.2370   32.5180   36.7430 O   0  0  0  0  0  0  0  0  0  0  0  0
   39.5760   31.9640   37.2570 H   0  0  0  0  0  0  0  0  0  0  0  0
   42.2000   33.9910   36.7440 O   0  0  0  0  0  0  0  0  0  0  0  0
   41.6210   34.6440   36.2670 H   0  0  0  0  0  0  0  0  0  0  0  0
   42.6150   31.4610   36.6690 O   0  0  0  0  0  0  0  0  0  0  0  0
   42.4450   30.2700   37.3550 C   0  0  0  0  0  0  0  0  0  0  0  0
   41.5640   30.2230   38.0030 H   0  0  0  0  0  0  0  0  0  0  0  0
   43.3300   30.1680   38.0370 H   0  0  0  0  0  0  0  0  0  0  0  0
   42.5170   29.4090   36.6540 H   0  0  0  0  0  0  0  0  0  0  0  0
  1  3  1  0  0  0  0
  2  7  2  0  0  0  0
  2  3  1  0  0  0  0
  3  4  2  0  0  0  0
  4  5  1  0  0  0  0
  4  9  1  0  0  0  0
  6 10  1  0  0  0  0
  6  5  2  0  0  0  0
  7  6  1  0  0  0  0
  8  2  1  0  0  0  0
 10 12  1  0  0  0  0
 11 10  1  0  0  0  0
 12 15  1  0  0  0  0
 12 14  1  0  0  0  0
 13 12  1  0  0  0  0
 16 15  1  0  0  0  0
 17 19  1  0  0  0  0
 17  1  1  0  0  0  0
 18 17  1  0  0  0  0
 20 21  1  0  0  0  0
 20 17  1  0  0  0  0
 22 20  1  0  0  0  0
 23 22  1  0  0  0  0
 23 24  1  0  0  0  0
 25 22  1  0  0  0  0
 26 25  1  0  0  0  0
 27 22  1  0  0  0  0
 27 28  1  0  0  0  0
 28 29  1  0  0  0  0
 28 30  1  0  0  0  0
 31 28  1  0  0  0  0
M  END
>  <minimizedAffinity>
-5.04743958

$$$$

 OpenBabel03252503033D

 31 31  0  0  0  0  0  0  0  0999 V2000
   39.1270   28.9990   42.6510 S   0  0  0  0  0  0  0  0  0  0  0  0
   39.9660   31.4340   41.7070 C   0  0  0  0  0  0  0  0  0  0  0  0
   40.0550   30.0700   41.5400 C   0  0  0  0  0  0  0  0  0  0  0  0
   40.8420   29.5210   40.5360 C   0  0  0  0  0  0  0  0  0  0  0  0
   41.5070   30.3920   39.7430 N   0  0  0  0  0  0  0  0  0  0  0  0
   41.4130   31.7230   39.9150 C   0  0  0  0  0  0  0  0  0  0  0  0
   40.6630   32.2640   40.8730 N   0  0  0  0  0  0  0  0  0  0  0  0
   39.3380   31.8210   42.5060 H   0  0  0  0  0  0  0  0  0  0  0  0
   40.9220   28.4580   40.3910 H   0  0  0  0  0  0  0  0  0  0  0  0
   42.1300   32.6040   39.0560 N   0  0  0  0  0  0  0  0  0  0  0  0
   42.8500   33.2760   39.4570 H   0  0  0  0  0  0  0  0  0  0  0  0
   41.8790   32.6320   37.3480 S   0  0  0  0  0  0  0  0  0  0  0  0
   42.7910   31.6030   36.7430 O   0  0  0  0  0  1  0  0  0  0  0  0
   40.4620   32.3450   37.0050 O   0  0  0  0  0  1  0  0  0  0  0  0
   42.3840   34.1200   36.7500 O   0  0  0  0  0  0  0  0  0  0  0  0
   43.3630   34.1470   36.6100 H   0  0  0  0  0  0  0  0  0  0  0  0
   37.3740   29.3150   42.4530 C   0  0  0  0  0  0  0  0  0  0  0  0
   36.8380   28.6460   43.1820 H   0  0  0  0  0  0  0  0  0  0  0  0
   37.0930   30.3840   42.6520 H   0  0  0  0  0  0  0  0  0  0  0  0
   37.0390   28.9640   41.0820 N   0  0  0  0  0  0  0  0  0  0  0  0
   37.8950   29.0700   40.4670 H   0  0  0  0  0  0  0  0  0  0  0  0
   35.8140   29.9620   40.4180 S   0  0  0  0  0  0  0  0  0  0  0  0
   34.5030   29.2590   40.3370 O   0  0  0  0  0  0  0  0  0  0  0  0
   34.4640   28.2760   40.1370 H   0  0  0  0  0  0  0  0  0  0  0  0
   35.6980   31.1570   41.3320 O   0  0  0  0  0  0  0  0  0  0  0  0
   34.8690   31.3100   41.8600 H   0  0  0  0  0  0  0  0  0  0  0  0
   36.2840   30.5200   38.9180 O   0  0  0  0  0  0  0  0  0  0  0  0
   37.5570   31.0670   38.9230 C   0  0  0  0  0  0  0  0  0  0  0  0
   38.1510   30.8630   39.8190 H   0  0  0  0  0  0  0  0  0  0  0  0
   37.4230   32.1810   38.8920 H   0  0  0  0  0  0  0  0  0  0  0  0
   38.0880   30.8110   37.9790 H   0  0  0  0  0  0  0  0  0  0  0  0
  2  8  1  0  0  0  0
  3  2  1  0  0  0  0
  3  1  1  0  0  0  0
  4  3  2  0  0  0  0
  5  6  2  0  0  0  0
  5  4  1  0  0  0  0
  6  7  1  0  0  0  0
  7  2  2  0  0  0  0
  9  4  1  0  0  0  0
 10 11  1  0  0  0  0
 10  6  1  0  0  0  0
 12 10  1  0  0  0  0
 13 12  1  0  0  0  0
 14 12  1  0  0  0  0
 15 12  1  0  0  0  0
 16 15  1  0  0  0  0
 17  1  1  0  0  0  0
 17 19  1  0  0  0  0
 17 18  1  0  0  0  0
 20 17  1  0  0  0  0
 21 20  1  0  0  0  0
 22 20  1  0  0  0  0
 22 25  1  0  0  0  0
 23 22  1  0  0  0  0
 24 23  1  0  0  0  0
 25 26  1  0  0  0  0
 27 28  1  0  0  0  0
 27 22  1  0  0  0  0
 28 29  1  0  0  0  0
 30 28  1  0  0  0  0
 31 28  1  0  0  0  0
M  END
>  <minimizedAffinity>
-4.86763334

$$$$

 OpenBabel03252503033D

 31 31  0  0  0  0  0  0  0  0999 V2000
   36.1980   30.9250   40.8680 S   0  0  0  0  0  0  0  0  0  0  0  0
   37.8740   29.5190   42.5240 C   0  0  0  0  0  0  0  0  0  0  0  0
   36.9530   29.4190   41.5060 C   0  0  0  0  0  0  0  0  0  0  0  0
   36.6080   28.1840   40.9710 C   0  0  0  0  0  0  0  0  0  0  0  0
   37.2190   27.1020   41.5040 N   0  0  0  0  0  0  0  0  0  0  0  0
   38.1180   27.2120   42.5000 C   0  0  0  0  0  0  0  0  0  0  0  0
   38.4580   28.3880   43.0220 N   0  0  0  0  0  0  0  0  0  0  0  0
   38.1150   30.5070   42.9130 H   0  0  0  0  0  0  0  0  0  0  0  0
   35.8910   28.0880   40.1740 H   0  0  0  0  0  0  0  0  0  0  0  0
   38.7370   26.0450   43.0310 N   0  0  0  0  0  0  0  0  0  0  0  0
   38.6250   25.7970   44.0580 H   0  0  0  0  0  0  0  0  0  0  0  0
   39.6890   24.9840   42.0550 S   0  0  0  0  0  0  0  0  0  0  0  0
   41.0030   24.7870   42.7560 O   0  0  0  0  0  1  0  0  0  0  0  0
   39.0050   23.6820   41.8450 O   0  0  0  0  0  1  0  0  0  0  0  0
   40.0410   25.7530   40.6020 O   0  0  0  0  0  0  0  0  0  0  0  0
   40.8100   26.3700   40.6890 H   0  0  0  0  0  0  0  0  0  0  0  0
   37.3680   31.7720   39.8070 C   0  0  0  0  0  0  0  0  0  0  0  0
   38.3710   31.2890   39.9780 H   0  0  0  0  0  0  0  0  0  0  0  0
   37.1040   31.7050   38.7180 H   0  0  0  0  0  0  0  0  0  0  0  0
   37.3810   33.1640   40.2280 N   0  0  0  0  0  0  0  0  0  0  0  0
   37.1240   33.7860   39.4110 H   0  0  0  0  0  0  0  0  0  0  0  0
   38.9180   33.6770   40.7870 S   0  0  0  0  0  0  0  0  0  0  0  0
   38.8270   34.9100   41.6180 O   0  0  0  0  0  0  0  0  0  0  0  0
   38.1480   35.6180   41.4060 H   0  0  0  0  0  0  0  0  0  0  0  0
   39.4690   32.5420   41.6160 O   0  0  0  0  0  0  0  0  0  0  0  0
   39.6080   32.6530   42.5940 H   0  0  0  0  0  0  0  0  0  0  0  0
   39.9480   33.9030   39.4960 O   0  0  0  0  0  0  0  0  0  0  0  0
   40.9190   32.9200   39.4050 C   0  0  0  0  0  0  0  0  0  0  0  0
   40.7530   32.0370   40.0280 H   0  0  0  0  0  0  0  0  0  0  0  0
   41.8730   33.3810   39.7770 H   0  0  0  0  0  0  0  0  0  0  0  0
   41.1140   32.6700   38.3380 H   0  0  0  0  0  0  0  0  0  0  0  0
  1  3  1  0  0  0  0
  2  8  1  0  0  0  0
  2  7  1  0  0  0  0
  3  2  2  0  0  0  0
  4  5  2  0  0  0  0
  4  3  1  0  0  0  0
  5  6  1  0  0  0  0
  6  7  2  0  0  0  0
  6 10  1  0  0  0  0
  9  4  1  0  0  0  0
 10 11  1  0  0  0  0
 12 13  1  0  0  0  0
 12 10  1  0  0  0  0
 14 12  1  0  0  0  0
 15 16  1  0  0  0  0
 15 12  1  0  0  0  0
 17 18  1  0  0  0  0
 17 20  1  0  0  0  0
 17  1  1  0  0  0  0
 19 17  1  0  0  0  0
 20 22  1  0  0  0  0
 21 20  1  0  0  0  0
 22 25  1  0  0  0  0
 22 23  1  0  0  0  0
 24 23  1  0  0  0  0
 25 26  1  0  0  0  0
 27 22  1  0  0  0  0
 28 27  1  0  0  0  0
 28 30  1  0  0  0  0
 28 29  1  0  0  0  0
 31 28  1  0  0  0  0
M  END
>  <minimizedAffinity>
-4.84592962

$$$$

 OpenBabel03252503033D

 31 31  0  0  0  0  0  0  0  0999 V2000
   36.9580   31.3970   40.4850 S   0  0  0  0  0  0  0  0  0  0  0  0
   38.7600   29.7760   41.7690 C   0  0  0  0  0  0  0  0  0  0  0  0
   37.4750   29.8670   41.2820 C   0  0  0  0  0  0  0  0  0  0  0  0
   36.5880   28.8050   41.3980 C   0  0  0  0  0  0  0  0  0  0  0  0
   37.0530   27.6910   42.0090 N   0  0  0  0  0  0  0  0  0  0  0  0
   38.3110   27.6130   42.4810 C   0  0  0  0  0  0  0  0  0  0  0  0
   39.1710   28.6230   42.3780 N   0  0  0  0  0  0  0  0  0  0  0  0
   39.4220   30.6320   41.6570 H   0  0  0  0  0  0  0  0  0  0  0  0
   35.5810   28.8590   41.0220 H   0  0  0  0  0  0  0  0  0  0  0  0
   38.7580   26.4200   43.1180 N   0  0  0  0  0  0  0  0  0  0  0  0
   39.0930   26.4430   44.1270 H   0  0  0  0  0  0  0  0  0  0  0  0
   38.7830   24.8970   42.3050 S   0  0  0  0  0  0  0  0  0  0  0  0
   37.3770   24.3680   42.3000 O   0  0  0  0  0  1  0  0  0  0  0  0
   39.2990   25.0320   40.9190 O   0  0  0  0  0  1  0  0  0  0  0  0
   39.6910   23.8120   43.2130 O   0  0  0  0  0  0  0  0  0  0  0  0
   39.1620   23.4150   43.9500 H   0  0  0  0  0  0  0  0  0  0  0  0
   36.9230   31.1570   38.7090 C   0  0  0  0  0  0  0  0  0  0  0  0
   37.3390   30.1300   38.5110 H   0  0  0  0  0  0  0  0  0  0  0  0
   35.8910   31.2300   38.2740 H   0  0  0  0  0  0  0  0  0  0  0  0
   37.7770   32.1840   38.1330 N   0  0  0  0  0  0  0  0  0  0  0  0
   37.3630   32.5200   37.2180 H   0  0  0  0  0  0  0  0  0  0  0  0
   39.3600   31.6230   37.7930 S   0  0  0  0  0  0  0  0  0  0  0  0
   39.3680   30.1980   37.3600 O   0  0  0  0  0  0  0  0  0  0  0  0
   38.7150   29.5430   37.7520 H   0  0  0  0  0  0  0  0  0  0  0  0
   39.8920   32.4970   36.6830 O   0  0  0  0  0  0  0  0  0  0  0  0
   40.0800   32.1140   35.7850 H   0  0  0  0  0  0  0  0  0  0  0  0
   40.3410   31.8470   39.1230 O   0  0  0  0  0  0  0  0  0  0  0  0
   40.7760   33.1560   39.2550 C   0  0  0  0  0  0  0  0  0  0  0  0
   40.2580   33.8880   38.6300 H   0  0  0  0  0  0  0  0  0  0  0  0
   41.8470   33.1700   38.9190 H   0  0  0  0  0  0  0  0  0  0  0  0
   40.8050   33.4430   40.3300 H   0  0  0  0  0  0  0  0  0  0  0  0
  1  3  1  0  0  0  0
  2  7  1  0  0  0  0
  3  4  1  0  0  0  0
  3  2  2  0  0  0  0
  4  5  2  0  0  0  0
  5  6  1  0  0  0  0
  6 10  1  0  0  0  0
  7  6  2  0  0  0  0
  8  2  1  0  0  0  0
  9  4  1  0  0  0  0
 10 11  1  0  0  0  0
 12 10  1  0  0  0  0
 12 15  1  0  0  0  0
 13 12  1  0  0  0  0
 14 12  1  0  0  0  0
 15 16  1  0  0  0  0
 17  1  1  0  0  0  0
 18 17  1  0  0  0  0
 19 17  1  0  0  0  0
 20 17  1  0  0  0  0
 21 20  1  0  0  0  0
 22 20  1  0  0  0  0
 22 27  1  0  0  0  0
 23 24  1  0  0  0  0
 23 22  1  0  0  0  0
 25 22  1  0  0  0  0
 26 25  1  0  0  0  0
 27 28  1  0  0  0  0
 28 31  1  0  0  0  0
 29 28  1  0  0  0  0
 30 28  1  0  0  0  0
M  END
>  <minimizedAffinity>
-4.84358215

$$$$

 OpenBabel03252503033D

 31 31  0  0  0  0  0  0  0  0999 V2000
   37.2560   30.4720   39.1990 S   0  0  0  0  0  0  0  0  0  0  0  0
   39.9910   30.2720   39.2410 C   0  0  0  0  0  0  0  0  0  0  0  0
   38.9180   30.9130   38.6650 C   0  0  0  0  0  0  0  0  0  0  0  0
   39.1030   31.8840   37.6890 C   0  0  0  0  0  0  0  0  0  0  0  0
   40.3820   32.1580   37.3430 N   0  0  0  0  0  0  0  0  0  0  0  0
   41.4240   31.5250   37.9130 C   0  0  0  0  0  0  0  0  0  0  0  0
   41.2610   30.5930   38.8480 N   0  0  0  0  0  0  0  0  0  0  0  0
   39.8000   29.5170   40.0020 H   0  0  0  0  0  0  0  0  0  0  0  0
   38.2760   32.3960   37.2290 H   0  0  0  0  0  0  0  0  0  0  0  0
   42.7540   31.8460   37.5180 N   0  0  0  0  0  0  0  0  0  0  0  0
   43.3860   31.0980   37.1040 H   0  0  0  0  0  0  0  0  0  0  0  0
   43.4050   33.4370   37.6860 S   0  0  0  0  0  0  0  0  0  0  0  0
   43.0890   33.9070   39.0770 O   0  0  0  0  0  1  0  0  0  0  0  0
   44.8710   33.4490   37.4470 O   0  0  0  0  0  1  0  0  0  0  0  0
   42.5870   34.4700   36.6420 O   0  0  0  0  0  0  0  0  0  0  0  0
   41.7280   34.7770   37.0260 H   0  0  0  0  0  0  0  0  0  0  0  0
   36.9420   31.1880   40.8120 C   0  0  0  0  0  0  0  0  0  0  0  0
   37.9400   31.4970   41.2300 H   0  0  0  0  0  0  0  0  0  0  0  0
   36.2620   32.0800   40.7740 H   0  0  0  0  0  0  0  0  0  0  0  0
   36.3400   30.1420   41.6220 N   0  0  0  0  0  0  0  0  0  0  0  0
   35.6770   30.5720   42.3270 H   0  0  0  0  0  0  0  0  0  0  0  0
   37.4940   29.2340   42.5060 S   0  0  0  0  0  0  0  0  0  0  0  0
   38.8490   29.8520   42.4550 O   0  0  0  0  0  0  0  0  0  0  0  0
   39.1620   30.3250   41.6270 H   0  0  0  0  0  0  0  0  0  0  0  0
   37.0030   29.1970   43.9330 O   0  0  0  0  0  0  0  0  0  0  0  0
   37.5150   29.6500   44.6550 H   0  0  0  0  0  0  0  0  0  0  0  0
   37.5350   27.6640   41.9470 O   0  0  0  0  0  0  0  0  0  0  0  0
   38.6320   27.4080   41.1420 C   0  0  0  0  0  0  0  0  0  0  0  0
   39.4170   28.1700   41.1620 H   0  0  0  0  0  0  0  0  0  0  0  0
   38.2540   27.3880   40.0860 H   0  0  0  0  0  0  0  0  0  0  0  0
   39.0170   26.3810   41.3320 H   0  0  0  0  0  0  0  0  0  0  0  0
  1 17  1  0  0  0  0
  2  8  1  0  0  0  0
  3  1  1  0  0  0  0
  3  2  2  0  0  0  0
  4  3  1  0  0  0  0
  5  4  2  0  0  0  0
  5  6  1  0  0  0  0
  6  7  2  0  0  0  0
  7  2  1  0  0  0  0
  9  4  1  0  0  0  0
 10 12  1  0  0  0  0
 10  6  1  0  0  0  0
 11 10  1  0  0  0  0
 12 13  1  0  0  0  0
 14 12  1  0  0  0  0
 15 16  1  0  0  0  0
 15 12  1  0  0  0  0
 17 18  1  0  0  0  0
 17 20  1  0  0  0  0
 19 17  1  0  0  0  0
 20 21  1  0  0  0  0
 20 22  1  0  0  0  0
 22 25  1  0  0  0  0
 23 22  1  0  0  0  0
 24 23  1  0  0  0  0
 25 26  1  0  0  0  0
 27 22  1  0  0  0  0
 28 29  1  0  0  0  0
 28 31  1  0  0  0  0
 28 27  1  0  0  0  0
 30 28  1  0  0  0  0
M  END
>  <minimizedAffinity>
-4.83746338

$$$$

 OpenBabel03252503033D

 31 31  0  0  0  0  0  0  0  0999 V2000
   35.6490   29.8030   40.1830 S   0  0  0  0  0  0  0  0  0  0  0  0
   37.2370   30.0870   37.9640 C   0  0  0  0  0  0  0  0  0  0  0  0
   36.9430   30.5930   39.2110 C   0  0  0  0  0  0  0  0  0  0  0  0
   37.6260   31.6900   39.7180 C   0  0  0  0  0  0  0  0  0  0  0  0
   38.5840   32.2260   38.9270 N   0  0  0  0  0  0  0  0  0  0  0  0
   38.8630   31.7240   37.7100 C   0  0  0  0  0  0  0  0  0  0  0  0
   38.2160   30.6730   37.2110 N   0  0  0  0  0  0  0  0  0  0  0  0
   36.6770   29.2260   37.6060 H   0  0  0  0  0  0  0  0  0  0  0  0
   37.4100   32.0970   40.6910 H   0  0  0  0  0  0  0  0  0  0  0  0
   39.8800   32.3200   36.9110 N   0  0  0  0  0  0  0  0  0  0  0  0
   39.6450   32.7210   35.9560 H   0  0  0  0  0  0  0  0  0  0  0  0
   41.5210   32.4230   37.4370 S   0  0  0  0  0  0  0  0  0  0  0  0
   42.3010   31.3850   36.6810 O   0  0  0  0  0  1  0  0  0  0  0  0
   42.0810   33.7780   37.2010 O   0  0  0  0  0  1  0  0  0  0  0  0
   41.6000   31.9820   39.0580 O   0  0  0  0  0  0  0  0  0  0  0  0
   41.6210   30.9990   39.1710 H   0  0  0  0  0  0  0  0  0  0  0  0
   36.2160   28.1930   40.7290 C   0  0  0  0  0  0  0  0  0  0  0  0
   35.5240   27.8670   41.5540 H   0  0  0  0  0  0  0  0  0  0  0  0
   36.2100   27.4230   39.9120 H   0  0  0  0  0  0  0  0  0  0  0  0
   37.5710   28.3750   41.2260 N   0  0  0  0  0  0  0  0  0  0  0  0
   38.2130   27.6600   40.7820 H   0  0  0  0  0  0  0  0  0  0  0  0
   37.6910   28.1730   42.9240 S   0  0  0  0  0  0  0  0  0  0  0  0
   37.0740   29.3080   43.6670 O   0  0  0  0  0  0  0  0  0  0  0  0
   37.1260   30.2420   43.3030 H   0  0  0  0  0  0  0  0  0  0  0  0
   36.9630   26.8920   43.2520 O   0  0  0  0  0  0  0  0  0  0  0  0
   36.1300   26.9100   43.7950 H   0  0  0  0  0  0  0  0  0  0  0  0
   39.2870   27.9710   43.3630 O   0  0  0  0  0  0  0  0  0  0  0  0
   39.5610   26.6910   43.8150 C   0  0  0  0  0  0  0  0  0  0  0  0
   38.7840   25.9470   43.6180 H   0  0  0  0  0  0  0  0  0  0  0  0
   39.6430   26.7590   44.9320 H   0  0  0  0  0  0  0  0  0  0  0  0
   40.5690   26.3700   43.4690 H   0  0  0  0  0  0  0  0  0  0  0  0
  1 17  1  0  0  0  0
  2  3  1  0  0  0  0
  3  4  2  0  0  0  0
  3  1  1  0  0  0  0
  4  9  1  0  0  0  0
  5  4  1  0  0  0  0
  6  5  2  0  0  0  0
  7  6  1  0  0  0  0
  7  2  2  0  0  0  0
  8  2  1  0  0  0  0
 10 12  1  0  0  0  0
 10  6  1  0  0  0  0
 11 10  1  0  0  0  0
 12 15  1  0  0  0  0
 13 12  1  0  0  0  0
 14 12  1  0  0  0  0
 15 16  1  0  0  0  0
 17 20  1  0  0  0  0
 17 18  1  0  0  0  0
 19 17  1  0  0  0  0
 20 22  1  0  0  0  0
 21 20  1  0  0  0  0
 22 25  1  0  0  0  0
 22 27  1  0  0  0  0
 22 23  1  0  0  0  0
 24 23  1  0  0  0  0
 25 26  1  0  0  0  0
 27 28  1  0  0  0  0
 28 30  1  0  0  0  0
 29 28  1  0  0  0  0
 31 28  1  0  0  0  0
M  END
>  <minimizedAffinity>
-4.79876852

$$$$

 OpenBabel03252503033D

 31 31  0  0  0  0  0  0  0  0999 V2000
   35.9010   29.1360   39.1150 S   0  0  0  0  0  0  0  0  0  0  0  0
   38.3310   30.1770   38.3800 C   0  0  0  0  0  0  0  0  0  0  0  0
   37.1520   30.4300   39.0430 C   0  0  0  0  0  0  0  0  0  0  0  0
   36.9210   31.6580   39.6510 C   0  0  0  0  0  0  0  0  0  0  0  0
   37.9090   32.5770   39.5520 N   0  0  0  0  0  0  0  0  0  0  0  0
   39.0580   32.3180   38.9010 C   0  0  0  0  0  0  0  0  0  0  0  0
   39.2920   31.1470   38.3150 N   0  0  0  0  0  0  0  0  0  0  0  0
   38.4690   29.2010   37.9180 H   0  0  0  0  0  0  0  0  0  0  0  0
   36.0060   31.8730   40.1740 H   0  0  0  0  0  0  0  0  0  0  0  0
   40.0720   33.3150   38.8230 N   0  0  0  0  0  0  0  0  0  0  0  0
   40.3970   33.6770   37.8780 H   0  0  0  0  0  0  0  0  0  0  0  0
   40.8170   33.9820   40.2310 S   0  0  0  0  0  0  0  0  0  0  0  0
   41.3330   32.8350   41.0510 O   0  0  0  0  0  1  0  0  0  0  0  0
   41.9200   34.9090   39.8710 O   0  0  0  0  0  1  0  0  0  0  0  0
   39.6380   34.7350   41.1630 O   0  0  0  0  0  0  0  0  0  0  0  0
   39.1450   34.0870   41.7270 H   0  0  0  0  0  0  0  0  0  0  0  0
   36.2510   28.0500   40.4970 C   0  0  0  0  0  0  0  0  0  0  0  0
   35.4990   27.2140   40.4520 H   0  0  0  0  0  0  0  0  0  0  0  0
   37.2880   27.6200   40.4680 H   0  0  0  0  0  0  0  0  0  0  0  0
   36.0780   28.8420   41.7040 N   0  0  0  0  0  0  0  0  0  0  0  0
   35.8740   29.8480   41.4450 H   0  0  0  0  0  0  0  0  0  0  0  0
   37.4720   28.8510   42.7020 S   0  0  0  0  0  0  0  0  0  0  0  0
   38.3770   29.9920   42.3890 O   0  0  0  0  0  0  0  0  0  0  0  0
   38.4760   30.3180   41.4440 H   0  0  0  0  0  0  0  0  0  0  0  0
   36.9760   28.9670   44.1230 O   0  0  0  0  0  0  0  0  0  0  0  0
   37.1730   29.7800   44.6610 H   0  0  0  0  0  0  0  0  0  0  0  0
   38.2780   27.3970   42.5680 O   0  0  0  0  0  0  0  0  0  0  0  0
   39.5230   27.4160   43.1740 C   0  0  0  0  0  0  0  0  0  0  0  0
   39.7130   28.2700   43.8310 H   0  0  0  0  0  0  0  0  0  0  0  0
   40.2780   27.4930   42.3470 H   0  0  0  0  0  0  0  0  0  0  0  0
   39.7270   26.4370   43.6630 H   0  0  0  0  0  0  0  0  0  0  0  0
  1 17  1  0  0  0  0
  2  3  1  0  0  0  0
  3  1  1  0  0  0  0
  3  4  2  0  0  0  0
  4  9  1  0  0  0  0
  5  4  1  0  0  0  0
  6  5  2  0  0  0  0
  7  2  2  0  0  0  0
  7  6  1  0  0  0  0
  8  2  1  0  0  0  0
 10  6  1  0  0  0  0
 10 12  1  0  0  0  0
 11 10  1  0  0  0  0
 12 13  1  0  0  0  0
 12 15  1  0  0  0  0
 14 12  1  0  0  0  0
 15 16  1  0  0  0  0
 17 20  1  0  0  0  0
 18 17  1  0  0  0  0
 19 17  1  0  0  0  0
 20 22  1  0  0  0  0
 21 20  1  0  0  0  0
 22 25  1  0  0  0  0
 23 22  1  0  0  0  0
 24 23  1  0  0  0  0
 25 26  1  0  0  0  0
 27 22  1  0  0  0  0
 27 28  1  0  0  0  0
 28 31  1  0  0  0  0
 28 29  1  0  0  0  0
 30 28  1  0  0  0  0
M  END
>  <minimizedAffinity>
-4.70323038

$$$$

 OpenBabel03252503033D

 31 31  0  0  0  0  0  0  0  0999 V2000
   42.8810   29.5250   38.3880 S   0  0  0  0  0  0  0  0  0  0  0  0
   40.7570   30.4650   39.8480 C   0  0  0  0  0  0  0  0  0  0  0  0
   41.3700   29.3370   39.3500 C   0  0  0  0  0  0  0  0  0  0  0  0
   40.8420   28.0730   39.5810 C   0  0  0  0  0  0  0  0  0  0  0  0
   39.7060   28.0170   40.3130 N   0  0  0  0  0  0  0  0  0  0  0  0
   39.1150   29.1250   40.7950 C   0  0  0  0  0  0  0  0  0  0  0  0
   39.6090   30.3420   40.5810 N   0  0  0  0  0  0  0  0  0  0  0  0
   41.2050   31.4350   39.6430 H   0  0  0  0  0  0  0  0  0  0  0  0
   41.3090   27.1820   39.2010 H   0  0  0  0  0  0  0  0  0  0  0  0
   37.9190   29.0190   41.5610 N   0  0  0  0  0  0  0  0  0  0  0  0
   37.0270   29.4930   41.2330 H   0  0  0  0  0  0  0  0  0  0  0  0
   37.8510   28.1290   43.0400 S   0  0  0  0  0  0  0  0  0  0  0  0
   36.9990   26.9170   42.7950 O   0  0  0  0  0  1  0  0  0  0  0  0
   39.2070   27.7350   43.4980 O   0  0  0  0  0  1  0  0  0  0  0  0
   37.0400   29.0510   44.1890 O   0  0  0  0  0  0  0  0  0  0  0  0
   36.0570   28.9760   44.0940 H   0  0  0  0  0  0  0  0  0  0  0  0
   43.4520   31.2190   38.5060 C   0  0  0  0  0  0  0  0  0  0  0  0
   42.8880   31.6950   39.3550 H   0  0  0  0  0  0  0  0  0  0  0  0
   44.5550   31.3000   38.7010 H   0  0  0  0  0  0  0  0  0  0  0  0
   43.1260   31.8590   37.2410 N   0  0  0  0  0  0  0  0  0  0  0  0
   44.0160   32.1270   36.7360 H   0  0  0  0  0  0  0  0  0  0  0  0
   42.2050   33.2920   37.4360 S   0  0  0  0  0  0  0  0  0  0  0  0
   42.7090   34.4010   36.5780 O   0  0  0  0  0  0  0  0  0  0  0  0
   43.6920   34.4990   36.3980 H   0  0  0  0  0  0  0  0  0  0  0  0
   40.7900   32.9440   37.0430 O   0  0  0  0  0  0  0  0  0  0  0  0
   40.3740   33.3570   36.2400 H   0  0  0  0  0  0  0  0  0  0  0  0
   42.1850   33.7420   39.0410 O   0  0  0  0  0  0  0  0  0  0  0  0
   40.9360   34.1650   39.4650 C   0  0  0  0  0  0  0  0  0  0  0  0
   40.1090   33.9420   38.7840 H   0  0  0  0  0  0  0  0  0  0  0  0
   40.9850   35.2850   39.5290 H   0  0  0  0  0  0  0  0  0  0  0  0
   40.7470   33.8220   40.5070 H   0  0  0  0  0  0  0  0  0  0  0  0
  1 17  1  0  0  0  0
  1  3  1  0  0  0  0
  2  7  1  0  0  0  0
  3  4  1  0  0  0  0
  3  2  2  0  0  0  0
  4  5  2  0  0  0  0
  5  6  1  0  0  0  0
  6 10  1  0  0  0  0
  7  6  2  0  0  0  0
  8  2  1  0  0  0  0
  9  4  1  0  0  0  0
 10 12  1  0  0  0  0
 11 10  1  0  0  0  0
 12 14  1  0  0  0  0
 12 15  1  0  0  0  0
 13 12  1  0  0  0  0
 16 15  1  0  0  0  0
 17 19  1  0  0  0  0
 17 18  1  0  0  0  0
 20 22  1  0  0  0  0
 20 17  1  0  0  0  0
 21 20  1  0  0  0  0
 22 27  1  0  0  0  0
 23 22  1  0  0  0  0
 24 23  1  0  0  0  0
 25 22  1  0  0  0  0
 26 25  1  0  0  0  0
 27 28  1  0  0  0  0
 28 30  1  0  0  0  0
 28 31  1  0  0  0  0
 29 28  1  0  0  0  0
M  END
>  <minimizedAffinity>
-4.64017582

$$$$
