
 OpenBabel03252509353D

 42 43  0  0  1  0  0  0  0  0999 V2000
   44.6850   35.2510   45.0380 O   0  0  0  0  0  0  0  0  0  0  0  0
   45.5310   34.0660   44.6130 P   0  0  1  0  0  0  0  0  0  0  0  0
   44.6220   32.9830   43.6790 O   0  0  0  0  0  0  0  0  0  0  0  0
   43.9810   33.5370   43.1550 H   0  0  0  0  0  0  0  0  0  0  0  0
   46.8190   34.6440   43.7220 O   0  0  0  0  0  0  0  0  0  0  0  0
   46.9540   33.8930   42.5460 C   0  0  1  0  0  0  0  0  0  0  0  0
   46.4020   34.6860   41.3590 C   0  0  0  0  0  0  0  0  0  0  0  0
   46.9100   33.8580   40.2100 C   0  0  0  0  0  0  0  0  0  0  0  0
   48.1800   33.1910   40.7040 C   0  0  0  0  0  0  0  0  0  0  0  0
   48.3760   33.7120   42.1140 C   0  0  1  0  0  0  0  0  0  0  0  0
   46.4190   32.9460   42.5620 H   0  0  0  0  0  0  0  0  0  0  0  0
   46.6870   35.7330   41.3540 H   0  0  0  0  0  0  0  0  0  0  0  0
   45.3010   34.6210   41.3510 H   0  0  0  0  0  0  0  0  0  0  0  0
   46.1570   33.0750   39.9400 H   0  0  0  0  0  0  0  0  0  0  0  0
   47.0610   34.4860   39.3260 H   0  0  0  0  0  0  0  0  0  0  0  0
   48.0580   32.0760   40.7470 H   0  0  0  0  0  0  0  0  0  0  0  0
   49.0400   33.4170   40.0550 H   0  0  0  0  0  0  0  0  0  0  0  0
   48.8650   32.9110   42.7250 H   0  0  0  0  0  0  0  0  0  0  0  0
   49.1630   34.9960   42.1280 C   0  0  0  0  0  0  0  0  0  0  0  0
   49.7680   35.0590   41.1840 H   0  0  0  0  0  0  0  0  0  0  0  0
   48.5340   35.9120   42.1300 H   0  0  0  0  0  0  0  0  0  0  0  0
   49.9860   35.0960   43.2270 O   0  0  0  0  0  0  0  0  0  0  0  0
   50.9090   34.8440   42.9310 H   0  0  0  0  0  0  0  0  0  0  0  0
   46.0620   33.2100   45.9420 O   0  0  0  0  0  0  0  0  0  0  0  0
   46.0960   31.8870   45.6370 C   0  0  0  0  0  0  0  0  0  0  0  0
   45.5280   31.5380   44.7800 H   0  0  0  0  0  0  0  0  0  0  0  0
   47.1720   31.6290   45.4030 H   0  0  0  0  0  0  0  0  0  0  0  0
   45.0750   30.8100   49.0480 C   0  0  0  0  0  0  0  0  0  0  0  0
   45.4050   31.6560   47.9850 C   0  0  0  0  0  0  0  0  0  0  0  0
   45.7380   31.0300   46.7800 C   0  0  0  0  0  0  0  0  0  0  0  0
   45.7240   29.6630   46.7060 N   0  0  0  0  0  0  0  0  0  0  0  0
   45.3990   28.8810   47.7570 C   0  0  0  0  0  0  0  0  0  0  0  0
   45.0800   29.4540   48.9110 N   0  0  0  0  0  0  0  0  0  0  0  0
   44.8140   31.2840   49.9920 H   0  0  0  0  0  0  0  0  0  0  0  0
   45.3900   32.7140   48.1320 H   0  0  0  0  0  0  0  0  0  0  0  0
   45.4070   27.4660   47.6060 N   0  0  0  0  0  0  0  0  0  0  0  0
   45.8760   27.0260   46.7840 H   0  0  0  0  0  0  0  0  0  0  0  0
   44.6470   26.4330   48.7640 S   0  0  0  0  0  0  0  0  0  0  0  0
   44.0400   27.2540   49.8660 O   0  0  0  0  0  1  0  0  0  0  0  0
   43.6010   25.6350   48.0400 O   0  0  0  0  0  1  0  0  0  0  0  0
   45.8340   25.4160   49.4100 O   0  0  0  0  0  0  0  0  0  0  0  0
   46.6880   25.9180   49.5280 H   0  0  0  0  0  0  0  0  0  0  0  0
  2  1  2  1  0  0  0
  2 24  1  0  0  0  0
  3  2  1  0  0  0  0
  4  3  1  0  0  0  0
  5  2  1  0  0  0  0
  6 11  1  1  0  0  0
  6  5  1  0  0  0  0
  7  6  1  0  0  0  0
  8  9  1  0  0  0  0
  8  7  1  0  0  0  0
  9 16  1  0  0  0  0
  9 10  1  0  0  0  0
 10 19  1  0  0  0  0
 10  6  1  0  0  0  0
 10 18  1  1  0  0  0
 12  7  1  0  0  0  0
 13  7  1  0  0  0  0
 14  8  1  0  0  0  0
 15  8  1  0  0  0  0
 17  9  1  0  0  0  0
 19 21  1  0  0  0  0
 19 22  1  0  0  0  0
 20 19  1  0  0  0  0
 23 22  1  0  0  0  0
 25 24  1  0  0  0  0
 25 30  1  0  0  0  0
 26 25  1  0  0  0  0
 27 25  1  0  0  0  0
 28 34  1  0  0  0  0
 29 35  1  0  0  0  0
 29 28  2  0  0  0  0
 30 29  1  0  0  0  0
 31 30  2  0  0  0  0
 31 32  1  0  0  0  0
 32 33  2  0  0  0  0
 33 28  1  0  0  0  0
 36 32  1  0  0  0  0
 36 38  1  0  0  0  0
 37 36  1  0  0  0  0
 38 41  1  0  0  0  0
 38 39  1  0  0  0  0
 40 38  1  0  0  0  0
 41 42  1  0  0  0  0
M  END
>  <minimizedAffinity>
-5.57843256

>  <minimizedRMSD>
1.09854805

$$$$
