
 OpenBabel03252500123D

 36 38  0  0  0  0  0  0  0  0999 V2000
   45.6580   32.5120   40.2730 Cl  0  0  0  0  0  0  0  0  0  0  0  0
   46.9520   33.6510   40.0580 C   0  0  0  0  0  0  0  0  0  0  0  0
   47.4600   34.3350   41.1220 C   0  0  0  0  0  0  0  0  0  0  0  0
   48.4930   35.2490   40.9790 C   0  0  0  0  0  0  0  0  0  0  0  0
   48.9820   35.4310   39.6960 C   0  0  0  0  0  0  0  0  0  0  0  0
   48.4620   34.7350   38.6270 C   0  0  0  0  0  0  0  0  0  0  0  0
   47.4570   33.8500   38.7900 C   0  0  0  0  0  0  0  0  0  0  0  0
   48.9040   35.7970   41.8160 H   0  0  0  0  0  0  0  0  0  0  0  0
   49.7840   36.1320   39.5450 H   0  0  0  0  0  0  0  0  0  0  0  0
   48.8620   34.8960   37.6370 H   0  0  0  0  0  0  0  0  0  0  0  0
   46.7570   32.8000   44.3950 C   0  0  0  0  0  0  0  0  0  0  0  0
   45.8360   33.7080   44.9720 C   0  0  0  0  0  0  0  0  0  0  0  0
   45.4740   34.8300   44.2280 C   0  0  0  0  0  0  0  0  0  0  0  0
   46.0250   34.9900   42.9860 N   0  0  0  0  0  0  0  0  0  0  0  0
   46.9040   34.1030   42.4640 C   0  0  0  0  0  0  0  0  0  0  0  0
   47.2580   33.0150   43.1770 N   0  0  0  0  0  0  0  0  0  0  0  0
   47.0040   31.9470   45.0130 H   0  0  0  0  0  0  0  0  0  0  0  0
   45.3760   33.6370   45.9270 H   0  0  0  0  0  0  0  0  0  0  0  0
   44.5150   35.8500   44.7330 C   0  0  0  0  0  0  0  0  0  0  0  0
   44.9970   37.1180   44.5020 F   0  0  0  0  0  0  0  0  0  0  0  0
   43.3140   35.7020   44.0540 F   0  0  0  0  0  0  0  0  0  0  0  0
   44.3240   35.6130   46.0620 F   0  0  0  0  0  0  0  0  0  0  0  0
   46.8970   33.1070   37.6630 C   0  0  0  0  0  0  0  0  0  0  0  0
   45.6020   33.2700   37.1820 C   0  0  0  0  0  0  0  0  0  0  0  0
   45.4150   32.4150   36.1190 C   0  0  0  0  0  0  0  0  0  0  0  0
   46.6250   31.7650   36.0090 C   0  0  0  0  0  0  0  0  0  0  0  0
   47.4670   32.1960   36.9290 O   0  0  0  0  0  0  0  0  0  0  0  0
   44.8040   33.9420   37.5270 H   0  0  0  0  0  0  0  0  0  0  0  0
   44.5820   32.2120   35.4620 H   0  0  0  0  0  0  0  0  0  0  0  0
   47.0970   30.7600   35.1190 N   0  0  0  0  0  0  0  0  0  0  0  0
   47.1240   29.7380   35.3270 H   0  0  0  0  0  0  0  0  0  0  0  0
   47.7220   30.9730   33.5200 S   0  0  0  0  0  0  0  0  0  0  0  0
   49.0620   30.3200   33.4050 O   0  0  0  0  0  0  0  0  0  0  0  0
   47.8580   32.4310   33.1760 O   0  0  0  0  0  0  0  0  0  0  0  0
   46.6020   30.2560   32.4640 O   0  0  0  0  0  0  0  0  0  0  0  0
   46.1410   30.9490   31.9250 H   0  0  0  0  0  0  0  0  0  0  0  0
  2  1  1  0  0  0  0
  2  3  1  0  0  0  0
  3 15  1  0  0  0  0
  4  3  2  0  0  0  0
  4  8  1  0  0  0  0
  5  4  1  0  0  0  0
  6  7  1  0  0  0  0
  6  5  2  0  0  0  0
  7  2  2  0  0  0  0
  9  5  1  0  0  0  0
 10  6  1  0  0  0  0
 11 12  1  0  0  0  0
 11 17  1  0  0  0  0
 12 18  1  0  0  0  0
 13 19  1  0  0  0  0
 13 12  2  0  0  0  0
 14 13  1  0  0  0  0
 15 14  2  0  0  0  0
 15 16  1  0  0  0  0
 16 11  2  0  0  0  0
 19 22  1  0  0  0  0
 20 19  1  0  0  0  0
 21 19  1  0  0  0  0
 23  7  1  0  0  0  0
 24 28  1  0  0  0  0
 24 23  2  0  0  0  0
 25 24  1  0  0  0  0
 26 25  2  0  0  0  0
 26 27  1  0  0  0  0
 27 23  1  0  0  0  0
 29 25  1  0  0  0  0
 30 31  1  0  0  0  0
 30 26  1  0  0  0  0
 32 30  1  0  0  0  0
 33 32  1  0  0  0  0
 34 32  1  0  0  0  0
 35 32  1  0  0  0  0
 36 35  1  0  0  0  0
M  END
>  <minimizedAffinity>
-5.93685389

>  <minimizedRMSD>
1.10628426

$$$$
