
 OpenBabel03242517463D

 35 37  0  0  0  0  0  0  0  0999 V2000
   36.0950   27.5560   39.2530 C   0  0  0  0  0  0  0  0  0  0  0  0
   35.5040   27.1740   38.0670 C   0  0  0  0  0  0  0  0  0  0  0  0
   35.5130   25.8530   37.6700 C   0  0  0  0  0  0  0  0  0  0  0  0
   36.1120   24.8940   38.4500 C   0  0  0  0  0  0  0  0  0  0  0  0
   36.6980   25.2750   39.6260 C   0  0  0  0  0  0  0  0  0  0  0  0
   36.7020   26.6040   40.0480 C   0  0  0  0  0  0  0  0  0  0  0  0
   35.0420   27.9690   37.4830 H   0  0  0  0  0  0  0  0  0  0  0  0
   35.0290   25.6470   36.7340 H   0  0  0  0  0  0  0  0  0  0  0  0
   36.0870   23.8680   38.0850 H   0  0  0  0  0  0  0  0  0  0  0  0
   37.1640   24.4940   40.2220 H   0  0  0  0  0  0  0  0  0  0  0  0
   37.3360   26.9870   41.3110 C   0  0  0  0  0  0  0  0  0  0  0  0
   36.6730   27.2260   42.4640 C   0  0  0  0  0  0  0  0  0  0  0  0
   37.3040   27.5900   43.6540 C   0  0  0  0  0  0  0  0  0  0  0  0
   38.6410   27.7130   43.6630 N   0  0  0  0  0  0  0  0  0  0  0  0
   39.3040   27.4740   42.5070 C   0  0  0  0  0  0  0  0  0  0  0  0
   38.6850   27.1240   41.3670 N   0  0  0  0  0  0  0  0  0  0  0  0
   35.5880   27.1260   42.4590 H   0  0  0  0  0  0  0  0  0  0  0  0
   36.7110   27.7680   44.5490 H   0  0  0  0  0  0  0  0  0  0  0  0
   40.3910   27.5440   42.3920 H   0  0  0  0  0  0  0  0  0  0  0  0
   36.1310   29.2230   39.8380 S   0  0  0  0  0  0  0  0  0  0  0  0
   37.0670   31.1210   38.0550 C   0  0  0  0  0  0  0  0  0  0  0  0
   37.4030   30.1440   39.0230 C   0  0  0  0  0  0  0  0  0  0  0  0
   38.7430   29.9480   39.2970 C   0  0  0  0  0  0  0  0  0  0  0  0
   39.6560   30.6950   38.6300 N   0  0  0  0  0  0  0  0  0  0  0  0
   39.2890   31.6100   37.7200 C   0  0  0  0  0  0  0  0  0  0  0  0
   38.0240   31.8460   37.4120 N   0  0  0  0  0  0  0  0  0  0  0  0
   36.0090   31.3000   37.8150 H   0  0  0  0  0  0  0  0  0  0  0  0
   39.0610   29.2300   40.0140 H   0  0  0  0  0  0  0  0  0  0  0  0
   40.2550   32.3890   37.0250 N   0  0  0  0  0  0  0  0  0  0  0  0
   40.2500   32.5800   36.0010 H   0  0  0  0  0  0  0  0  0  0  0  0
   41.6080   33.1490   37.7870 S   0  0  0  0  0  0  0  0  0  0  0  0
   41.2110   33.9940   38.9590 O   0  0  0  0  0  1  0  0  0  0  0  0
   42.6200   32.0870   38.1840 O   0  0  0  0  0  1  0  0  0  0  0  0
   42.3840   34.1430   36.6580 O   0  0  0  0  0  0  0  0  0  0  0  0
   42.4830   33.6830   35.7940 H   0  0  0  0  0  0  0  0  0  0  0  0
  1 20  1  0  0  0  0
  1  6  1  0  0  0  0
  2  1  2  0  0  0  0
  3  2  1  0  0  0  0
  3  4  2  0  0  0  0
  4  5  1  0  0  0  0
  5  6  2  0  0  0  0
  5 10  1  0  0  0  0
  6 11  1  0  0  0  0
  7  2  1  0  0  0  0
  8  3  1  0  0  0  0
  9  4  1  0  0  0  0
 11 16  2  0  0  0  0
 11 12  1  0  0  0  0
 12 13  2  0  0  0  0
 13 14  1  0  0  0  0
 13 18  1  0  0  0  0
 15 14  2  0  0  0  0
 16 15  1  0  0  0  0
 17 12  1  0  0  0  0
 19 15  1  0  0  0  0
 21 22  1  0  0  0  0
 22 23  2  0  0  0  0
 22 20  1  0  0  0  0
 23 28  1  0  0  0  0
 24 23  1  0  0  0  0
 25 24  2  0  0  0  0
 26 25  1  0  0  0  0
 26 21  2  0  0  0  0
 27 21  1  0  0  0  0
 29 25  1  0  0  0  0
 29 31  1  0  0  0  0
 30 29  1  0  0  0  0
 31 33  1  0  0  0  0
 31 32  1  0  0  0  0
 34 31  1  0  0  0  0
 35 34  1  0  0  0  0
M  END
>  <minimizedAffinity>
-6.2424264

$$$$

 OpenBabel03242517463D

 35 37  0  0  0  0  0  0  0  0999 V2000
   36.8930   27.9600   40.9240 C   0  0  0  0  0  0  0  0  0  0  0  0
   36.8820   28.8430   41.9840 C   0  0  0  0  0  0  0  0  0  0  0  0
   37.2820   28.4380   43.2400 C   0  0  0  0  0  0  0  0  0  0  0  0
   37.6990   27.1480   43.4580 C   0  0  0  0  0  0  0  0  0  0  0  0
   37.7090   26.2740   42.4060 C   0  0  0  0  0  0  0  0  0  0  0  0
   37.3090   26.6590   41.1270 C   0  0  0  0  0  0  0  0  0  0  0  0
   36.5430   29.8540   41.7620 H   0  0  0  0  0  0  0  0  0  0  0  0
   37.2410   29.1920   44.0050 H   0  0  0  0  0  0  0  0  0  0  0  0
   38.0030   26.8860   44.4720 H   0  0  0  0  0  0  0  0  0  0  0  0
   38.0440   25.2600   42.6100 H   0  0  0  0  0  0  0  0  0  0  0  0
   37.3300   25.7060   40.0170 C   0  0  0  0  0  0  0  0  0  0  0  0
   36.3290   24.8450   39.7220 C   0  0  0  0  0  0  0  0  0  0  0  0
   36.3760   23.9460   38.6560 C   0  0  0  0  0  0  0  0  0  0  0  0
   37.4690   23.9270   37.8770 N   0  0  0  0  0  0  0  0  0  0  0  0
   38.4700   24.7890   38.1730 C   0  0  0  0  0  0  0  0  0  0  0  0
   38.4140   25.6500   39.2020 N   0  0  0  0  0  0  0  0  0  0  0  0
   35.4420   24.8600   40.3530 H   0  0  0  0  0  0  0  0  0  0  0  0
   35.5350   23.2800   38.4730 H   0  0  0  0  0  0  0  0  0  0  0  0
   39.4070   24.8650   37.6110 H   0  0  0  0  0  0  0  0  0  0  0  0
   36.3980   28.3910   39.2840 S   0  0  0  0  0  0  0  0  0  0  0  0
   37.1390   30.9150   38.4250 C   0  0  0  0  0  0  0  0  0  0  0  0
   37.5230   29.5610   38.5790 C   0  0  0  0  0  0  0  0  0  0  0  0
   38.7910   29.2030   38.1620 C   0  0  0  0  0  0  0  0  0  0  0  0
   39.5930   30.1580   37.6330 N   0  0  0  0  0  0  0  0  0  0  0  0
   39.1840   31.4300   37.5070 C   0  0  0  0  0  0  0  0  0  0  0  0
   37.9840   31.8380   37.8860 N   0  0  0  0  0  0  0  0  0  0  0  0
   36.1370   31.2310   38.7470 H   0  0  0  0  0  0  0  0  0  0  0  0
   39.1390   28.2020   38.2510 H   0  0  0  0  0  0  0  0  0  0  0  0
   40.0340   32.4260   36.9500 N   0  0  0  0  0  0  0  0  0  0  0  0
   39.7460   33.1360   36.2430 H   0  0  0  0  0  0  0  0  0  0  0  0
   41.7000   32.6140   37.3670 S   0  0  0  0  0  0  0  0  0  0  0  0
   41.9260   32.6370   38.8480 O   0  0  0  0  0  1  0  0  0  0  0  0
   42.5100   31.5150   36.6980 O   0  0  0  0  0  1  0  0  0  0  0  0
   42.2640   34.0740   36.7250 O   0  0  0  0  0  0  0  0  0  0  0  0
   41.9590   34.1910   35.7960 H   0  0  0  0  0  0  0  0  0  0  0  0
  1  6  2  0  0  0  0
  1  2  1  0  0  0  0
  2  3  2  0  0  0  0
  3  4  1  0  0  0  0
  3  8  1  0  0  0  0
  4  9  1  0  0  0  0
  5 10  1  0  0  0  0
  5  4  2  0  0  0  0
  6  5  1  0  0  0  0
  7  2  1  0  0  0  0
 11  6  1  0  0  0  0
 12 11  1  0  0  0  0
 12 17  1  0  0  0  0
 13 12  2  0  0  0  0
 14 15  2  0  0  0  0
 14 13  1  0  0  0  0
 15 16  1  0  0  0  0
 16 11  2  0  0  0  0
 18 13  1  0  0  0  0
 19 15  1  0  0  0  0
 20  1  1  0  0  0  0
 21 22  1  0  0  0  0
 21 27  1  0  0  0  0
 22 20  1  0  0  0  0
 23 28  1  0  0  0  0
 23 22  2  0  0  0  0
 24 23  1  0  0  0  0
 25 24  2  0  0  0  0
 25 26  1  0  0  0  0
 26 21  2  0  0  0  0
 29 31  1  0  0  0  0
 29 25  1  0  0  0  0
 30 29  1  0  0  0  0
 31 32  1  0  0  0  0
 33 31  1  0  0  0  0
 34 31  1  0  0  0  0
 35 34  1  0  0  0  0
M  END
>  <minimizedAffinity>
-5.9511714

$$$$

 OpenBabel03242517463D

 35 37  0  0  0  0  0  0  0  0999 V2000
   36.4420   30.2270   39.1180 C   0  0  0  0  0  0  0  0  0  0  0  0
   35.6790   29.2820   38.4640 C   0  0  0  0  0  0  0  0  0  0  0  0
   35.7470   29.1500   37.0930 C   0  0  0  0  0  0  0  0  0  0  0  0
   36.5750   29.9580   36.3540 C   0  0  0  0  0  0  0  0  0  0  0  0
   37.3310   30.8950   37.0040 C   0  0  0  0  0  0  0  0  0  0  0  0
   37.2800   31.0480   38.3890 C   0  0  0  0  0  0  0  0  0  0  0  0
   35.0380   28.6650   39.0920 H   0  0  0  0  0  0  0  0  0  0  0  0
   35.1190   28.3890   36.6690 H   0  0  0  0  0  0  0  0  0  0  0  0
   36.5870   29.8070   35.2750 H   0  0  0  0  0  0  0  0  0  0  0  0
   37.9770   31.5200   36.3920 H   0  0  0  0  0  0  0  0  0  0  0  0
   38.0980   32.0580   39.0620 C   0  0  0  0  0  0  0  0  0  0  0  0
   37.6250   33.2160   39.5750 C   0  0  0  0  0  0  0  0  0  0  0  0
   38.4300   34.1610   40.2120 C   0  0  0  0  0  0  0  0  0  0  0  0
   39.7450   33.9160   40.3260 N   0  0  0  0  0  0  0  0  0  0  0  0
   40.2170   32.7560   39.8120 C   0  0  0  0  0  0  0  0  0  0  0  0
   39.4330   31.8530   39.2000 N   0  0  0  0  0  0  0  0  0  0  0  0
   36.5590   33.4160   39.4830 H   0  0  0  0  0  0  0  0  0  0  0  0
   37.9850   35.0740   40.6030 H   0  0  0  0  0  0  0  0  0  0  0  0
   41.2680   32.4480   39.8440 H   0  0  0  0  0  0  0  0  0  0  0  0
   36.4180   30.4660   40.8690 S   0  0  0  0  0  0  0  0  0  0  0  0
   37.1840   28.8030   42.9430 C   0  0  0  0  0  0  0  0  0  0  0  0
   37.5100   29.3270   41.6690 C   0  0  0  0  0  0  0  0  0  0  0  0
   38.6960   28.9150   41.0910 C   0  0  0  0  0  0  0  0  0  0  0  0
   39.4770   28.0400   41.7690 N   0  0  0  0  0  0  0  0  0  0  0  0
   39.1250   27.5700   42.9760 C   0  0  0  0  0  0  0  0  0  0  0  0
   38.0050   27.9250   43.5840 N   0  0  0  0  0  0  0  0  0  0  0  0
   36.2480   29.1120   43.4290 H   0  0  0  0  0  0  0  0  0  0  0  0
   38.9970   29.2720   40.1360 H   0  0  0  0  0  0  0  0  0  0  0  0
   39.9530   26.6520   43.6800 N   0  0  0  0  0  0  0  0  0  0  0  0
   40.1930   26.7110   44.6920 H   0  0  0  0  0  0  0  0  0  0  0  0
   40.6970   25.2730   42.9510 S   0  0  0  0  0  0  0  0  0  0  0  0
   42.1420   25.1320   43.3210 O   0  0  0  0  0  1  0  0  0  0  0  0
   39.9050   24.0270   43.3150 O   0  0  0  0  0  1  0  0  0  0  0  0
   40.5940   25.4210   41.2680 O   0  0  0  0  0  0  0  0  0  0  0  0
   39.6950   25.7150   40.9950 H   0  0  0  0  0  0  0  0  0  0  0  0
  1 20  1  0  0  0  0
  2  7  1  0  0  0  0
  2  1  1  0  0  0  0
  3  2  2  0  0  0  0
  4  5  2  0  0  0  0
  4  3  1  0  0  0  0
  5  6  1  0  0  0  0
  6 11  1  0  0  0  0
  6  1  2  0  0  0  0
  8  3  1  0  0  0  0
  9  4  1  0  0  0  0
 10  5  1  0  0  0  0
 11 16  2  0  0  0  0
 11 12  1  0  0  0  0
 12 13  2  0  0  0  0
 13 14  1  0  0  0  0
 13 18  1  0  0  0  0
 15 19  1  0  0  0  0
 15 14  2  0  0  0  0
 16 15  1  0  0  0  0
 17 12  1  0  0  0  0
 20 22  1  0  0  0  0
 21 27  1  0  0  0  0
 21 26  1  0  0  0  0
 22 21  2  0  0  0  0
 23 22  1  0  0  0  0
 23 24  2  0  0  0  0
 24 25  1  0  0  0  0
 25 26  2  0  0  0  0
 25 29  1  0  0  0  0
 28 23  1  0  0  0  0
 29 30  1  0  0  0  0
 31 33  1  0  0  0  0
 31 32  1  0  0  0  0
 31 29  1  0  0  0  0
 34 31  1  0  0  0  0
 35 34  1  0  0  0  0
M  END
>  <minimizedAffinity>
-5.86656237

$$$$

 OpenBabel03242517463D

 35 37  0  0  0  0  0  0  0  0999 V2000
   35.7650   28.4740   39.4170 C   0  0  0  0  0  0  0  0  0  0  0  0
   35.1160   28.2690   38.2170 C   0  0  0  0  0  0  0  0  0  0  0  0
   35.1780   27.0450   37.5840 C   0  0  0  0  0  0  0  0  0  0  0  0
   35.8870   26.0090   38.1380 C   0  0  0  0  0  0  0  0  0  0  0  0
   36.5310   26.2130   39.3280 C   0  0  0  0  0  0  0  0  0  0  0  0
   36.4830   27.4410   39.9870 C   0  0  0  0  0  0  0  0  0  0  0  0
   34.5660   29.1210   37.8180 H   0  0  0  0  0  0  0  0  0  0  0  0
   34.6420   26.9760   36.6560 H   0  0  0  0  0  0  0  0  0  0  0  0
   35.9000   25.0650   37.5920 H   0  0  0  0  0  0  0  0  0  0  0  0
   37.0840   25.3730   39.7410 H   0  0  0  0  0  0  0  0  0  0  0  0
   37.1800   27.6360   41.2590 C   0  0  0  0  0  0  0  0  0  0  0  0
   36.5980   27.5490   42.4760 C   0  0  0  0  0  0  0  0  0  0  0  0
   37.2870   27.7410   43.6740 C   0  0  0  0  0  0  0  0  0  0  0  0
   38.5980   28.0270   43.6250 N   0  0  0  0  0  0  0  0  0  0  0  0
   39.1790   28.1130   42.4050 C   0  0  0  0  0  0  0  0  0  0  0  0
   38.5050   27.9280   41.2580 N   0  0  0  0  0  0  0  0  0  0  0  0
   35.5350   27.3170   42.5180 H   0  0  0  0  0  0  0  0  0  0  0  0
   36.7590   27.6570   44.6220 H   0  0  0  0  0  0  0  0  0  0  0  0
   40.2380   28.3410   42.2390 H   0  0  0  0  0  0  0  0  0  0  0  0
   35.7400   30.0070   40.2960 S   0  0  0  0  0  0  0  0  0  0  0  0
   37.7650   31.8330   40.7650 C   0  0  0  0  0  0  0  0  0  0  0  0
   37.0990   31.0290   39.8090 C   0  0  0  0  0  0  0  0  0  0  0  0
   37.5510   31.0780   38.5030 C   0  0  0  0  0  0  0  0  0  0  0  0
   38.5990   31.8860   38.2110 N   0  0  0  0  0  0  0  0  0  0  0  0
   39.1980   32.6310   39.1530 C   0  0  0  0  0  0  0  0  0  0  0  0
   38.8140   32.6300   40.4190 N   0  0  0  0  0  0  0  0  0  0  0  0
   37.4290   31.8150   41.8110 H   0  0  0  0  0  0  0  0  0  0  0  0
   37.0940   30.4980   37.7390 H   0  0  0  0  0  0  0  0  0  0  0  0
   40.2970   33.4770   38.8350 N   0  0  0  0  0  0  0  0  0  0  0  0
   40.4150   34.4590   39.1620 H   0  0  0  0  0  0  0  0  0  0  0  0
   41.6280   32.9950   37.8440 S   0  0  0  0  0  0  0  0  0  0  0  0
   42.3840   34.1610   37.2840 O   0  0  0  0  0  1  0  0  0  0  0  0
   42.5370   32.0730   38.6410 O   0  0  0  0  0  1  0  0  0  0  0  0
   41.0420   32.0750   36.5490 O   0  0  0  0  0  0  0  0  0  0  0  0
   40.3770   31.4180   36.8580 H   0  0  0  0  0  0  0  0  0  0  0  0
  1  6  1  0  0  0  0
  1 20  1  0  0  0  0
  2  1  2  0  0  0  0
  3  4  2  0  0  0  0
  3  2  1  0  0  0  0
  4  5  1  0  0  0  0
  5 10  1  0  0  0  0
  5  6  2  0  0  0  0
  6 11  1  0  0  0  0
  7  2  1  0  0  0  0
  8  3  1  0  0  0  0
  9  4  1  0  0  0  0
 11 12  1  0  0  0  0
 12 17  1  0  0  0  0
 12 13  2  0  0  0  0
 13 18  1  0  0  0  0
 14 13  1  0  0  0  0
 15 14  2  0  0  0  0
 16 11  2  0  0  0  0
 16 15  1  0  0  0  0
 19 15  1  0  0  0  0
 21 27  1  0  0  0  0
 22 20  1  0  0  0  0
 22 21  2  0  0  0  0
 23 22  1  0  0  0  0
 24 23  2  0  0  0  0
 24 25  1  0  0  0  0
 25 26  2  0  0  0  0
 26 21  1  0  0  0  0
 28 23  1  0  0  0  0
 29 25  1  0  0  0  0
 29 30  1  0  0  0  0
 31 33  1  0  0  0  0
 31 29  1  0  0  0  0
 32 31  1  0  0  0  0
 34 35  1  0  0  0  0
 34 31  1  0  0  0  0
M  END
>  <minimizedAffinity>
-5.78390217

$$$$

 OpenBabel03242517463D

 35 37  0  0  0  0  0  0  0  0999 V2000
   36.1430   29.8330   39.9710 C   0  0  0  0  0  0  0  0  0  0  0  0
   35.2150   28.8670   39.6410 C   0  0  0  0  0  0  0  0  0  0  0  0
   34.9290   28.5890   38.3200 C   0  0  0  0  0  0  0  0  0  0  0  0
   35.5650   29.2700   37.3110 C   0  0  0  0  0  0  0  0  0  0  0  0
   36.4850   30.2270   37.6400 C   0  0  0  0  0  0  0  0  0  0  0  0
   36.7900   30.5260   38.9670 C   0  0  0  0  0  0  0  0  0  0  0  0
   34.7380   28.3550   40.4750 H   0  0  0  0  0  0  0  0  0  0  0  0
   34.1950   27.8230   38.1560 H   0  0  0  0  0  0  0  0  0  0  0  0
   35.2980   29.0060   36.2870 H   0  0  0  0  0  0  0  0  0  0  0  0
   36.9710   30.7480   36.8190 H   0  0  0  0  0  0  0  0  0  0  0  0
   37.7780   31.5550   39.2950 C   0  0  0  0  0  0  0  0  0  0  0  0
   37.4790   32.8030   39.7200 C   0  0  0  0  0  0  0  0  0  0  0  0
   38.4430   33.7640   40.0250 C   0  0  0  0  0  0  0  0  0  0  0  0
   39.7400   33.4410   39.8920 N   0  0  0  0  0  0  0  0  0  0  0  0
   40.0380   32.1910   39.4660 C   0  0  0  0  0  0  0  0  0  0  0  0
   39.1010   31.2740   39.1750 N   0  0  0  0  0  0  0  0  0  0  0  0
   36.4280   33.0660   39.8290 H   0  0  0  0  0  0  0  0  0  0  0  0
   38.1350   34.7510   40.3630 H   0  0  0  0  0  0  0  0  0  0  0  0
   41.0560   31.8140   39.3190 H   0  0  0  0  0  0  0  0  0  0  0  0
   36.5700   30.2540   41.6330 S   0  0  0  0  0  0  0  0  0  0  0  0
   37.5390   27.8490   42.5990 C   0  0  0  0  0  0  0  0  0  0  0  0
   37.8410   29.1850   42.2410 C   0  0  0  0  0  0  0  0  0  0  0  0
   39.1500   29.6070   42.3850 C   0  0  0  0  0  0  0  0  0  0  0  0
   40.0660   28.7270   42.8570 N   0  0  0  0  0  0  0  0  0  0  0  0
   39.7310   27.4690   43.1840 C   0  0  0  0  0  0  0  0  0  0  0  0
   38.4980   27.0040   43.0710 N   0  0  0  0  0  0  0  0  0  0  0  0
   36.5080   27.4840   42.4970 H   0  0  0  0  0  0  0  0  0  0  0  0
   39.4410   30.5980   42.1330 H   0  0  0  0  0  0  0  0  0  0  0  0
   40.7000   26.5530   43.6800 N   0  0  0  0  0  0  0  0  0  0  0  0
   40.5660   25.9180   44.4950 H   0  0  0  0  0  0  0  0  0  0  0  0
   42.2720   26.3490   42.9920 S   0  0  0  0  0  0  0  0  0  0  0  0
   42.2790   26.5230   41.5040 O   0  0  0  0  0  1  0  0  0  0  0  0
   43.2420   27.3040   43.6690 O   0  0  0  0  0  1  0  0  0  0  0  0
   42.8250   24.7880   43.3430 O   0  0  0  0  0  0  0  0  0  0  0  0
   42.6500   24.5570   44.2840 H   0  0  0  0  0  0  0  0  0  0  0  0
  1 20  1  0  0  0  0
  2  1  1  0  0  0  0
  2  7  1  0  0  0  0
  3  2  2  0  0  0  0
  4  5  2  0  0  0  0
  4  3  1  0  0  0  0
  5  6  1  0  0  0  0
  6 11  1  0  0  0  0
  6  1  2  0  0  0  0
  8  3  1  0  0  0  0
  9  4  1  0  0  0  0
 10  5  1  0  0  0  0
 11 12  1  0  0  0  0
 12 17  1  0  0  0  0
 12 13  2  0  0  0  0
 13 18  1  0  0  0  0
 14 13  1  0  0  0  0
 15 14  2  0  0  0  0
 16 11  2  0  0  0  0
 16 15  1  0  0  0  0
 19 15  1  0  0  0  0
 20 22  1  0  0  0  0
 21 26  1  0  0  0  0
 22 23  1  0  0  0  0
 22 21  2  0  0  0  0
 23 24  2  0  0  0  0
 24 25  1  0  0  0  0
 25 29  1  0  0  0  0
 26 25  2  0  0  0  0
 27 21  1  0  0  0  0
 28 23  1  0  0  0  0
 29 30  1  0  0  0  0
 31 34  1  0  0  0  0
 31 33  1  0  0  0  0
 31 29  1  0  0  0  0
 32 31  1  0  0  0  0
 34 35  1  0  0  0  0
M  END
>  <minimizedAffinity>
-5.70740938

$$$$

 OpenBabel03242517463D

 35 37  0  0  0  0  0  0  0  0999 V2000
   36.8810   29.9160   39.6420 C   0  0  0  0  0  0  0  0  0  0  0  0
   36.3480   30.2690   38.4210 C   0  0  0  0  0  0  0  0  0  0  0  0
   35.9230   29.3030   37.5320 C   0  0  0  0  0  0  0  0  0  0  0  0
   36.0240   27.9710   37.8500 C   0  0  0  0  0  0  0  0  0  0  0  0
   36.5530   27.6220   39.0620 C   0  0  0  0  0  0  0  0  0  0  0  0
   36.9900   28.5800   39.9760 C   0  0  0  0  0  0  0  0  0  0  0  0
   36.2880   31.3370   38.2140 H   0  0  0  0  0  0  0  0  0  0  0  0
   35.5210   29.6700   36.6060 H   0  0  0  0  0  0  0  0  0  0  0  0
   35.6720   27.2540   37.1080 H   0  0  0  0  0  0  0  0  0  0  0  0
   36.6200   26.5600   39.2840 H   0  0  0  0  0  0  0  0  0  0  0  0
   37.5520   28.1820   41.2670 C   0  0  0  0  0  0  0  0  0  0  0  0
   36.8830   28.2120   42.4410 C   0  0  0  0  0  0  0  0  0  0  0  0
   37.4450   27.8260   43.6580 C   0  0  0  0  0  0  0  0  0  0  0  0
   38.7190   27.4010   43.6740 N   0  0  0  0  0  0  0  0  0  0  0  0
   39.3880   27.3720   42.4970 C   0  0  0  0  0  0  0  0  0  0  0  0
   38.8360   27.7460   41.3310 N   0  0  0  0  0  0  0  0  0  0  0  0
   35.8500   28.5560   42.4300 H   0  0  0  0  0  0  0  0  0  0  0  0
   36.8510   27.8740   44.5690 H   0  0  0  0  0  0  0  0  0  0  0  0
   40.4290   27.0460   42.3850 H   0  0  0  0  0  0  0  0  0  0  0  0
   37.4500   31.0840   40.8390 S   0  0  0  0  0  0  0  0  0  0  0  0
   40.1200   31.7270   41.1790 C   0  0  0  0  0  0  0  0  0  0  0  0
   38.9860   31.8000   40.3330 C   0  0  0  0  0  0  0  0  0  0  0  0
   39.1340   32.4430   39.1180 C   0  0  0  0  0  0  0  0  0  0  0  0
   40.3440   32.9640   38.8040 N   0  0  0  0  0  0  0  0  0  0  0  0
   41.3900   32.8700   39.6400 C   0  0  0  0  0  0  0  0  0  0  0  0
   41.3150   32.2690   40.8160 N   0  0  0  0  0  0  0  0  0  0  0  0
   40.0340   31.2220   42.1510 H   0  0  0  0  0  0  0  0  0  0  0  0
   38.3210   32.5310   38.4390 H   0  0  0  0  0  0  0  0  0  0  0  0
   42.6570   33.4210   39.3000 N   0  0  0  0  0  0  0  0  0  0  0  0
   43.2590   33.9840   39.9380 H   0  0  0  0  0  0  0  0  0  0  0  0
   43.4040   33.2380   37.7530 S   0  0  0  0  0  0  0  0  0  0  0  0
   44.8320   33.6890   37.7430 O   0  0  0  0  0  1  0  0  0  0  0  0
   43.2740   31.7910   37.3040 O   0  0  0  0  0  1  0  0  0  0  0  0
   42.5500   34.1610   36.6200 O   0  0  0  0  0  0  0  0  0  0  0  0
   41.5790   34.0430   36.7300 H   0  0  0  0  0  0  0  0  0  0  0  0
  1  6  1  0  0  0  0
  1 20  1  0  0  0  0
  2  1  2  0  0  0  0
  3  4  2  0  0  0  0
  3  2  1  0  0  0  0
  4  5  1  0  0  0  0
  5 10  1  0  0  0  0
  5  6  2  0  0  0  0
  6 11  1  0  0  0  0
  7  2  1  0  0  0  0
  8  3  1  0  0  0  0
  9  4  1  0  0  0  0
 11 16  2  0  0  0  0
 11 12  1  0  0  0  0
 12 13  2  0  0  0  0
 13 14  1  0  0  0  0
 13 18  1  0  0  0  0
 15 14  2  0  0  0  0
 16 15  1  0  0  0  0
 17 12  1  0  0  0  0
 19 15  1  0  0  0  0
 21 27  1  0  0  0  0
 22 20  1  0  0  0  0
 22 21  2  0  0  0  0
 23 22  1  0  0  0  0
 24 23  2  0  0  0  0
 24 25  1  0  0  0  0
 25 26  2  0  0  0  0
 26 21  1  0  0  0  0
 28 23  1  0  0  0  0
 29 25  1  0  0  0  0
 29 30  1  0  0  0  0
 31 29  1  0  0  0  0
 32 31  1  0  0  0  0
 33 31  1  0  0  0  0
 34 35  1  0  0  0  0
 34 31  1  0  0  0  0
M  END
>  <minimizedAffinity>
-5.68901491

$$$$

 OpenBabel03242517463D

 35 37  0  0  0  0  0  0  0  0999 V2000
   37.1020   26.1750   39.8190 C   0  0  0  0  0  0  0  0  0  0  0  0
   36.9900   24.8010   39.8330 C   0  0  0  0  0  0  0  0  0  0  0  0
   36.9050   24.1140   41.0260 C   0  0  0  0  0  0  0  0  0  0  0  0
   36.9320   24.7880   42.2220 C   0  0  0  0  0  0  0  0  0  0  0  0
   37.0430   26.1510   42.2070 C   0  0  0  0  0  0  0  0  0  0  0  0
   37.1300   26.8680   41.0140 C   0  0  0  0  0  0  0  0  0  0  0  0
   36.9730   24.3120   38.8600 H   0  0  0  0  0  0  0  0  0  0  0  0
   36.8200   23.0470   40.9410 H   0  0  0  0  0  0  0  0  0  0  0  0
   36.8610   24.1910   43.1320 H   0  0  0  0  0  0  0  0  0  0  0  0
   37.0610   26.6560   43.1700 H   0  0  0  0  0  0  0  0  0  0  0  0
   37.2490   28.3260   41.0240 C   0  0  0  0  0  0  0  0  0  0  0  0
   36.2080   29.1830   41.1280 C   0  0  0  0  0  0  0  0  0  0  0  0
   36.3510   30.5710   41.1340 C   0  0  0  0  0  0  0  0  0  0  0  0
   37.5840   31.0920   41.0300 N   0  0  0  0  0  0  0  0  0  0  0  0
   38.6260   30.2330   40.9260 C   0  0  0  0  0  0  0  0  0  0  0  0
   38.4760   28.8980   40.9210 N   0  0  0  0  0  0  0  0  0  0  0  0
   35.2080   28.7620   41.2130 H   0  0  0  0  0  0  0  0  0  0  0  0
   35.4720   31.2050   41.2220 H   0  0  0  0  0  0  0  0  0  0  0  0
   39.6740   30.5390   40.8350 H   0  0  0  0  0  0  0  0  0  0  0  0
   37.2160   27.1350   38.3400 S   0  0  0  0  0  0  0  0  0  0  0  0
   34.6820   26.6050   37.3630 C   0  0  0  0  0  0  0  0  0  0  0  0
   35.6070   27.5970   37.7700 C   0  0  0  0  0  0  0  0  0  0  0  0
   35.2010   28.9170   37.7020 C   0  0  0  0  0  0  0  0  0  0  0  0
   33.9510   29.1880   37.2540 N   0  0  0  0  0  0  0  0  0  0  0  0
   33.1100   28.2120   36.8800 C   0  0  0  0  0  0  0  0  0  0  0  0
   33.4360   26.9310   36.9200 N   0  0  0  0  0  0  0  0  0  0  0  0
   34.9750   25.5460   37.4050 H   0  0  0  0  0  0  0  0  0  0  0  0
   35.8480   29.7090   37.9930 H   0  0  0  0  0  0  0  0  0  0  0  0
   31.8000   28.5080   36.4100 N   0  0  0  0  0  0  0  0  0  0  0  0
   31.3500   28.0800   35.5730 H   0  0  0  0  0  0  0  0  0  0  0  0
   30.7370   29.6390   37.1710 S   0  0  0  0  0  0  0  0  0  0  0  0
   30.8430   31.0140   36.5870 O   0  0  0  0  0  1  0  0  0  0  0  0
   29.3130   29.1120   37.0990 O   0  0  0  0  0  1  0  0  0  0  0  0
   31.1240   29.7320   38.8160 O   0  0  0  0  0  0  0  0  0  0  0  0
   31.2630   28.8350   39.1960 H   0  0  0  0  0  0  0  0  0  0  0  0
  1  2  2  0  0  0  0
  1  6  1  0  0  0  0
  2  3  1  0  0  0  0
  3  4  2  0  0  0  0
  4  9  1  0  0  0  0
  5  4  1  0  0  0  0
  5 10  1  0  0  0  0
  6 11  1  0  0  0  0
  6  5  2  0  0  0  0
  7  2  1  0  0  0  0
  8  3  1  0  0  0  0
 11 12  1  0  0  0  0
 12 13  2  0  0  0  0
 12 17  1  0  0  0  0
 13 18  1  0  0  0  0
 14 13  1  0  0  0  0
 15 14  2  0  0  0  0
 16 15  1  0  0  0  0
 16 11  2  0  0  0  0
 19 15  1  0  0  0  0
 20  1  1  0  0  0  0
 21 27  1  0  0  0  0
 21 22  1  0  0  0  0
 22 20  1  0  0  0  0
 23 22  2  0  0  0  0
 23 28  1  0  0  0  0
 24 23  1  0  0  0  0
 25 26  1  0  0  0  0
 25 24  2  0  0  0  0
 26 21  2  0  0  0  0
 29 25  1  0  0  0  0
 29 31  1  0  0  0  0
 30 29  1  0  0  0  0
 31 34  1  0  0  0  0
 32 31  1  0  0  0  0
 33 31  1  0  0  0  0
 34 35  1  0  0  0  0
M  END
>  <minimizedAffinity>
-5.34216928

$$$$

 OpenBabel03242517463D

 35 37  0  0  0  0  0  0  0  0999 V2000
   37.4300   28.2700   40.9040 C   0  0  0  0  0  0  0  0  0  0  0  0
   37.0930   27.0940   41.5410 C   0  0  0  0  0  0  0  0  0  0  0  0
   37.1090   27.0110   42.9180 C   0  0  0  0  0  0  0  0  0  0  0  0
   37.4620   28.0980   43.6780 C   0  0  0  0  0  0  0  0  0  0  0  0
   37.7960   29.2640   43.0450 C   0  0  0  0  0  0  0  0  0  0  0  0
   37.7870   29.3730   41.6550 C   0  0  0  0  0  0  0  0  0  0  0  0
   36.8210   26.2600   40.8960 H   0  0  0  0  0  0  0  0  0  0  0  0
   36.8330   26.0570   43.3280 H   0  0  0  0  0  0  0  0  0  0  0  0
   37.4560   27.9730   44.7610 H   0  0  0  0  0  0  0  0  0  0  0  0
   38.0700   30.1070   43.6740 H   0  0  0  0  0  0  0  0  0  0  0  0
   38.1480   30.6300   40.9990 C   0  0  0  0  0  0  0  0  0  0  0  0
   37.2680   31.5900   40.6360 C   0  0  0  0  0  0  0  0  0  0  0  0
   37.6410   32.7810   40.0120 C   0  0  0  0  0  0  0  0  0  0  0  0
   38.9420   32.9930   39.7540 N   0  0  0  0  0  0  0  0  0  0  0  0
   39.8220   32.0310   40.1180 C   0  0  0  0  0  0  0  0  0  0  0  0
   39.4510   30.8880   40.7180 N   0  0  0  0  0  0  0  0  0  0  0  0
   36.2130   31.4200   40.8450 H   0  0  0  0  0  0  0  0  0  0  0  0
   36.8820   33.5130   39.7450 H   0  0  0  0  0  0  0  0  0  0  0  0
   40.9040   32.0910   39.9590 H   0  0  0  0  0  0  0  0  0  0  0  0
   37.4370   28.4660   39.1480 S   0  0  0  0  0  0  0  0  0  0  0  0
   34.7500   29.0840   39.3880 C   0  0  0  0  0  0  0  0  0  0  0  0
   35.7870   28.6400   38.5320 C   0  0  0  0  0  0  0  0  0  0  0  0
   35.4580   28.3550   37.2200 C   0  0  0  0  0  0  0  0  0  0  0  0
   34.1720   28.5140   36.8260 N   0  0  0  0  0  0  0  0  0  0  0  0
   33.2220   28.9390   37.6750 C   0  0  0  0  0  0  0  0  0  0  0  0
   33.4710   29.2270   38.9420 N   0  0  0  0  0  0  0  0  0  0  0  0
   34.9800   29.3180   40.4360 H   0  0  0  0  0  0  0  0  0  0  0  0
   36.1910   28.0180   36.5280 H   0  0  0  0  0  0  0  0  0  0  0  0
   31.8740   29.1020   37.2510 N   0  0  0  0  0  0  0  0  0  0  0  0
   31.0340   28.7820   37.7790 H   0  0  0  0  0  0  0  0  0  0  0  0
   31.4160   29.8700   35.7720 S   0  0  0  0  0  0  0  0  0  0  0  0
   30.3570   29.1130   35.0320 O   0  0  0  0  0  1  0  0  0  0  0  0
   30.9790   31.2970   36.0650 O   0  0  0  0  0  1  0  0  0  0  0  0
   32.7770   29.9890   34.7730 O   0  0  0  0  0  0  0  0  0  0  0  0
   33.5610   30.2980   35.2820 H   0  0  0  0  0  0  0  0  0  0  0  0
  1  2  2  0  0  0  0
  1  6  1  0  0  0  0
  2  3  1  0  0  0  0
  3  8  1  0  0  0  0
  3  4  2  0  0  0  0
  4  9  1  0  0  0  0
  5 10  1  0  0  0  0
  5  4  1  0  0  0  0
  6  5  2  0  0  0  0
  7  2  1  0  0  0  0
 11  6  1  0  0  0  0
 12 17  1  0  0  0  0
 12 11  2  0  0  0  0
 13 12  1  0  0  0  0
 14 13  2  0  0  0  0
 14 15  1  0  0  0  0
 15 16  2  0  0  0  0
 16 11  1  0  0  0  0
 18 13  1  0  0  0  0
 19 15  1  0  0  0  0
 20  1  1  0  0  0  0
 21 27  1  0  0  0  0
 22 20  1  0  0  0  0
 22 21  2  0  0  0  0
 23 22  1  0  0  0  0
 24 23  2  0  0  0  0
 24 25  1  0  0  0  0
 25 26  2  0  0  0  0
 26 21  1  0  0  0  0
 28 23  1  0  0  0  0
 29 25  1  0  0  0  0
 29 30  1  0  0  0  0
 31 33  1  0  0  0  0
 31 29  1  0  0  0  0
 32 31  1  0  0  0  0
 34 35  1  0  0  0  0
 34 31  1  0  0  0  0
M  END
>  <minimizedAffinity>
-5.33470106

$$$$

 OpenBabel03242517463D

 35 37  0  0  0  0  0  0  0  0999 V2000
   37.6860   28.0210   40.9960 C   0  0  0  0  0  0  0  0  0  0  0  0
   37.3630   26.7670   41.4700 C   0  0  0  0  0  0  0  0  0  0  0  0
   37.0550   26.5760   42.8010 C   0  0  0  0  0  0  0  0  0  0  0  0
   37.0650   27.6320   43.6780 C   0  0  0  0  0  0  0  0  0  0  0  0
   37.3860   28.8760   43.2070 C   0  0  0  0  0  0  0  0  0  0  0  0
   37.7010   29.0940   41.8660 C   0  0  0  0  0  0  0  0  0  0  0  0
   37.3680   25.9610   40.7370 H   0  0  0  0  0  0  0  0  0  0  0  0
   36.8150   25.5670   43.0810 H   0  0  0  0  0  0  0  0  0  0  0  0
   36.8120   27.4200   44.7170 H   0  0  0  0  0  0  0  0  0  0  0  0
   37.3850   29.6920   43.9250 H   0  0  0  0  0  0  0  0  0  0  0  0
   38.0420   30.4330   41.3850 C   0  0  0  0  0  0  0  0  0  0  0  0
   39.2680   30.9960   41.4760 C   0  0  0  0  0  0  0  0  0  0  0  0
   39.5640   32.2760   41.0080 C   0  0  0  0  0  0  0  0  0  0  0  0
   38.5850   32.9960   40.4370 N   0  0  0  0  0  0  0  0  0  0  0  0
   37.3580   32.4320   40.3470 C   0  0  0  0  0  0  0  0  0  0  0  0
   37.0840   31.1970   40.8010 N   0  0  0  0  0  0  0  0  0  0  0  0
   40.0630   30.4130   41.9390 H   0  0  0  0  0  0  0  0  0  0  0  0
   40.5730   32.6710   41.1120 H   0  0  0  0  0  0  0  0  0  0  0  0
   36.4830   32.9210   39.9030 H   0  0  0  0  0  0  0  0  0  0  0  0
   38.0940   28.3570   39.3100 S   0  0  0  0  0  0  0  0  0  0  0  0
   36.7200   29.0240   37.0030 C   0  0  0  0  0  0  0  0  0  0  0  0
   36.6280   28.5930   38.3480 C   0  0  0  0  0  0  0  0  0  0  0  0
   35.3660   28.3680   38.8640 C   0  0  0  0  0  0  0  0  0  0  0  0
   34.2930   28.5720   38.0620 N   0  0  0  0  0  0  0  0  0  0  0  0
   34.4310   28.9820   36.7920 C   0  0  0  0  0  0  0  0  0  0  0  0
   35.6090   29.2150   36.2380 N   0  0  0  0  0  0  0  0  0  0  0  0
   37.7100   29.2120   36.5640 H   0  0  0  0  0  0  0  0  0  0  0  0
   35.2290   28.0430   39.8670 H   0  0  0  0  0  0  0  0  0  0  0  0
   33.2970   29.1930   35.9580 N   0  0  0  0  0  0  0  0  0  0  0  0
   33.1540   30.0150   35.3350 H   0  0  0  0  0  0  0  0  0  0  0  0
   31.9650   28.0970   35.8490 S   0  0  0  0  0  0  0  0  0  0  0  0
   30.6990   28.6700   36.4100 O   0  0  0  0  0  1  0  0  0  0  0  0
   31.7890   27.6670   34.4020 O   0  0  0  0  0  1  0  0  0  0  0  0
   32.3390   26.6930   36.7170 O   0  0  0  0  0  0  0  0  0  0  0  0
   33.2560   26.3940   36.5230 H   0  0  0  0  0  0  0  0  0  0  0  0
  1  2  2  0  0  0  0
  1  6  1  0  0  0  0
  2  3  1  0  0  0  0
  3  8  1  0  0  0  0
  3  4  2  0  0  0  0
  4  9  1  0  0  0  0
  5  4  1  0  0  0  0
  5 10  1  0  0  0  0
  6  5  2  0  0  0  0
  7  2  1  0  0  0  0
 11 12  1  0  0  0  0
 11  6  1  0  0  0  0
 12 17  1  0  0  0  0
 13 18  1  0  0  0  0
 13 12  2  0  0  0  0
 14 13  1  0  0  0  0
 15 14  2  0  0  0  0
 15 16  1  0  0  0  0
 16 11  2  0  0  0  0
 19 15  1  0  0  0  0
 20  1  1  0  0  0  0
 21 22  1  0  0  0  0
 22 23  2  0  0  0  0
 22 20  1  0  0  0  0
 23 28  1  0  0  0  0
 24 23  1  0  0  0  0
 25 24  2  0  0  0  0
 26 25  1  0  0  0  0
 26 21  2  0  0  0  0
 27 21  1  0  0  0  0
 29 25  1  0  0  0  0
 30 29  1  0  0  0  0
 31 29  1  0  0  0  0
 31 32  1  0  0  0  0
 31 34  1  0  0  0  0
 33 31  1  0  0  0  0
 35 34  1  0  0  0  0
M  END
>  <minimizedAffinity>
-5.19052601

$$$$
