
 OpenBabel03242513283D

 35 37  0  0  0  0  0  0  0  0999 V2000
   46.5950   33.9210   41.1610 C   0  0  0  0  0  0  0  0  0  0  0  0
   46.9630   34.8240   42.1450 C   0  0  0  0  0  0  0  0  0  0  0  0
   48.0530   35.5920   41.9040 C   0  0  0  0  0  0  0  0  0  0  0  0
   48.7880   35.4970   40.7270 C   0  0  0  0  0  0  0  0  0  0  0  0
   48.4120   34.5940   39.7550 C   0  0  0  0  0  0  0  0  0  0  0  0
   47.2930   33.7840   39.9660 C   0  0  0  0  0  0  0  0  0  0  0  0
   48.3420   36.2950   42.6650 H   0  0  0  0  0  0  0  0  0  0  0  0
   49.6590   36.1070   40.5300 H   0  0  0  0  0  0  0  0  0  0  0  0
   48.9180   34.4460   38.8090 H   0  0  0  0  0  0  0  0  0  0  0  0
   44.4970   35.9010   44.7750 C   0  0  0  0  0  0  0  0  0  0  0  0
   45.2500   35.8700   43.5970 C   0  0  0  0  0  0  0  0  0  0  0  0
   46.1700   34.8850   43.3460 C   0  0  0  0  0  0  0  0  0  0  0  0
   46.2860   33.9480   44.3320 N   0  0  0  0  0  0  0  0  0  0  0  0
   45.5730   33.9550   45.4730 C   0  0  0  0  0  0  0  0  0  0  0  0
   44.6770   34.9360   45.6910 N   0  0  0  0  0  0  0  0  0  0  0  0
   43.7750   36.6740   44.9690 H   0  0  0  0  0  0  0  0  0  0  0  0
   45.0870   36.6630   42.8670 H   0  0  0  0  0  0  0  0  0  0  0  0
   45.7130   33.1810   46.2160 H   0  0  0  0  0  0  0  0  0  0  0  0
   45.4900   33.1130   41.3570 O   0  0  0  0  0  0  0  0  0  0  0  0
   45.6440   32.1100   41.4560 H   0  0  0  0  0  0  0  0  0  0  0  0
   46.8750   32.8710   39.0340 O   0  0  0  0  0  0  0  0  0  0  0  0
   47.4580   32.6310   37.8420 C   0  0  0  0  0  0  0  0  0  0  0  0
   47.0450   32.9080   36.5570 C   0  0  0  0  0  0  0  0  0  0  0  0
   47.8370   32.5530   35.5220 C   0  0  0  0  0  0  0  0  0  0  0  0
   49.0670   31.9070   35.8240 C   0  0  0  0  0  0  0  0  0  0  0  0
   49.0490   31.8240   37.6500 S   0  0  0  0  0  0  0  0  0  0  0  0
   46.0940   33.4020   36.4250 H   0  0  0  0  0  0  0  0  0  0  0  0
   47.6320   32.7110   34.4890 H   0  0  0  0  0  0  0  0  0  0  0  0
   50.0650   31.4370   34.9840 N   0  0  0  0  0  0  0  0  0  0  0  0
   50.8450   30.8500   35.4010 H   0  0  0  0  0  0  0  0  0  0  0  0
   50.2130   31.6880   33.2730 S   0  0  0  0  0  0  0  0  0  0  0  0
   49.1590   30.8310   32.6230 O   0  0  0  0  0  0  0  0  0  0  0  0
   51.5700   31.1700   32.8760 O   0  0  0  0  0  0  0  0  0  0  0  0
   50.0480   33.3010   32.8520 O   0  0  0  0  0  0  0  0  0  0  0  0
   50.6880   33.4560   32.0970 H   0  0  0  0  0  0  0  0  0  0  0  0
  1 19  1  0  0  0  0
  1  2  1  0  0  0  0
  2 12  1  0  0  0  0
  3  2  2  0  0  0  0
  3  7  1  0  0  0  0
  4  3  1  0  0  0  0
  5  6  1  0  0  0  0
  5  4  2  0  0  0  0
  6  1  2  0  0  0  0
  8  4  1  0  0  0  0
  9  5  1  0  0  0  0
 10 16  1  0  0  0  0
 10 15  1  0  0  0  0
 11 10  2  0  0  0  0
 12 11  1  0  0  0  0
 12 13  2  0  0  0  0
 13 14  1  0  0  0  0
 14 15  2  0  0  0  0
 14 18  1  0  0  0  0
 17 11  1  0  0  0  0
 19 20  1  0  0  0  0
 21  6  1  0  0  0  0
 22 21  1  0  0  0  0
 23 22  2  0  0  0  0
 24 25  2  0  0  0  0
 24 23  1  0  0  0  0
 25 26  1  0  0  0  0
 26 22  1  0  0  0  0
 27 23  1  0  0  0  0
 28 24  1  0  0  0  0
 29 30  1  0  0  0  0
 29 25  1  0  0  0  0
 31 29  1  0  0  0  0
 32 31  1  0  0  0  0
 33 31  1  0  0  0  0
 34 31  1  0  0  0  0
 35 34  1  0  0  0  0
M  END
>  <minimizedAffinity>
-6.040483

>  <minimizedRMSD>
2.15363407

$$$$
