
 OpenBabel03252509353D

 42 43  0  0  1  0  0  0  0  0999 V2000
   44.7090   35.3320   45.0070 O   0  0  0  0  0  0  0  0  0  0  0  0
   45.5870   34.2220   44.4610 P   0  0  1  0  0  0  0  0  0  0  0  0
   44.6460   33.0060   43.7490 O   0  0  0  0  0  0  0  0  0  0  0  0
   43.8610   33.4650   43.3420 H   0  0  0  0  0  0  0  0  0  0  0  0
   46.6130   34.8870   43.3250 O   0  0  0  0  0  0  0  0  0  0  0  0
   46.8060   33.9800   42.2750 C   0  0  1  0  0  0  0  0  0  0  0  0
   46.0590   34.4630   41.0280 C   0  0  0  0  0  0  0  0  0  0  0  0
   46.6340   33.5430   39.9850 C   0  0  0  0  0  0  0  0  0  0  0  0
   48.0250   33.1770   40.4690 C   0  0  0  0  0  0  0  0  0  0  0  0
   48.2100   33.9540   41.7580 C   0  0  1  0  0  0  0  0  0  0  0  0
   46.4400   32.9760   42.4850 H   0  0  0  0  0  0  0  0  0  0  0  0
   46.1620   35.5250   40.8350 H   0  0  0  0  0  0  0  0  0  0  0  0
   44.9870   34.2240   41.1240 H   0  0  0  0  0  0  0  0  0  0  0  0
   46.0100   32.6170   39.9060 H   0  0  0  0  0  0  0  0  0  0  0  0
   46.6250   34.0280   39.0040 H   0  0  0  0  0  0  0  0  0  0  0  0
   48.0970   32.0810   40.6970 H   0  0  0  0  0  0  0  0  0  0  0  0
   48.7950   33.4240   39.7210 H   0  0  0  0  0  0  0  0  0  0  0  0
   48.8620   33.3560   42.4440 H   0  0  0  0  0  0  0  0  0  0  0  0
   48.7670   35.3300   41.5030 C   0  0  0  0  0  0  0  0  0  0  0  0
   49.2460   35.3430   40.4870 H   0  0  0  0  0  0  0  0  0  0  0  0
   47.9980   36.1300   41.4700 H   0  0  0  0  0  0  0  0  0  0  0  0
   49.6780   35.7150   42.4610 O   0  0  0  0  0  0  0  0  0  0  0  0
   50.5920   35.5630   42.0810 H   0  0  0  0  0  0  0  0  0  0  0  0
   46.4500   33.4930   45.6880 O   0  0  0  0  0  0  0  0  0  0  0  0
   46.2850   32.1470   45.6100 C   0  0  0  0  0  0  0  0  0  0  0  0
   45.6190   31.7490   44.8510 H   0  0  0  0  0  0  0  0  0  0  0  0
   47.2990   31.7030   45.3720 H   0  0  0  0  0  0  0  0  0  0  0  0
   45.4030   31.7830   49.2050 C   0  0  0  0  0  0  0  0  0  0  0  0
   45.7690   32.3920   48.0000 C   0  0  0  0  0  0  0  0  0  0  0  0
   45.8980   31.5440   46.8960 C   0  0  0  0  0  0  0  0  0  0  0  0
   45.6660   30.2030   47.0470 N   0  0  0  0  0  0  0  0  0  0  0  0
   45.3140   29.6550   48.2290 C   0  0  0  0  0  0  0  0  0  0  0  0
   45.1870   30.4410   49.2900 N   0  0  0  0  0  0  0  0  0  0  0  0
   45.2990   32.4320   50.0730 H   0  0  0  0  0  0  0  0  0  0  0  0
   45.9310   33.4480   47.9730 H   0  0  0  0  0  0  0  0  0  0  0  0
   45.0900   28.2520   48.3110 N   0  0  0  0  0  0  0  0  0  0  0  0
   45.2770   27.7370   49.2000 H   0  0  0  0  0  0  0  0  0  0  0  0
   44.5040   27.3530   46.9550 S   0  0  0  0  0  0  0  0  0  0  0  0
   43.5710   28.2040   46.1400 O   0  0  0  0  0  1  0  0  0  0  0  0
   45.6960   26.9240   46.1490 O   0  0  0  0  0  1  0  0  0  0  0  0
   43.6650   26.0100   47.5460 O   0  0  0  0  0  0  0  0  0  0  0  0
   43.1500   26.2590   48.3630 H   0  0  0  0  0  0  0  0  0  0  0  0
  2  1  2  1  0  0  0
  2 24  1  0  0  0  0
  3  2  1  0  0  0  0
  4  3  1  0  0  0  0
  5  2  1  0  0  0  0
  6 11  1  1  0  0  0
  6  5  1  0  0  0  0
  7 13  1  0  0  0  0
  7  6  1  0  0  0  0
  8  9  1  0  0  0  0
  8  7  1  0  0  0  0
  9 16  1  0  0  0  0
  9 10  1  0  0  0  0
 10  6  1  0  0  0  0
 10 18  1  1  0  0  0
 12  7  1  0  0  0  0
 14  8  1  0  0  0  0
 15  8  1  0  0  0  0
 17  9  1  0  0  0  0
 19 10  1  0  0  0  0
 19 22  1  0  0  0  0
 20 19  1  0  0  0  0
 21 19  1  0  0  0  0
 23 22  1  0  0  0  0
 25 24  1  0  0  0  0
 25 30  1  0  0  0  0
 26 25  1  0  0  0  0
 27 25  1  0  0  0  0
 28 33  1  0  0  0  0
 28 34  1  0  0  0  0
 29 28  2  0  0  0  0
 30 31  2  0  0  0  0
 30 29  1  0  0  0  0
 31 32  1  0  0  0  0
 32 36  1  0  0  0  0
 32 33  2  0  0  0  0
 35 29  1  0  0  0  0
 36 37  1  0  0  0  0
 38 41  1  0  0  0  0
 38 36  1  0  0  0  0
 39 38  1  0  0  0  0
 40 38  1  0  0  0  0
 41 42  1  0  0  0  0
M  END
>  <minimizedAffinity>
-5.48178816

>  <minimizedRMSD>
0.488830864

$$$$
