
 OpenBabel03242519083D

 46 49  0  0  1  0  0  0  0  0999 V2000
   37.1310   29.4930   42.5420 N   0  0  0  0  0  0  0  0  0  0  0  0
   36.1920   29.6160   42.9860 H   0  0  0  0  0  0  0  0  0  0  0  0
   40.1660   27.8040   43.3260 N   0  0  0  0  0  0  0  0  0  0  0  0
   39.4320   28.6620   42.4110 C   0  0  0  0  0  0  0  0  0  0  0  0
   38.2370   28.9510   43.2660 C   0  0  2  0  0  0  0  0  0  0  0  0
   37.8510   27.5590   43.7380 C   0  0  0  0  0  0  0  0  0  0  0  0
   39.1900   26.8850   43.8980 C   0  0  0  0  0  0  0  0  0  0  0  0
   39.1030   28.1130   41.5140 H   0  0  0  0  0  0  0  0  0  0  0  0
   39.9700   29.5890   42.1470 H   0  0  0  0  0  0  0  0  0  0  0  0
   38.4800   29.6040   44.1280 H   0  0  0  0  0  0  0  0  0  0  0  0
   37.1740   27.0470   43.0320 H   0  0  0  0  0  0  0  0  0  0  0  0
   37.3490   27.6530   44.7380 H   0  0  0  0  0  0  0  0  0  0  0  0
   39.1700   25.9680   43.2810 H   0  0  0  0  0  0  0  0  0  0  0  0
   39.3970   26.6250   44.9400 H   0  0  0  0  0  0  0  0  0  0  0  0
   43.4650   26.9250   44.8050 C   0  0  0  0  0  0  0  0  0  0  0  0
   42.1020   26.8610   44.5370 C   0  0  0  0  0  0  0  0  0  0  0  0
   41.5240   27.7780   43.6640 C   0  0  0  0  0  0  0  0  0  0  0  0
   42.3600   28.6990   43.1180 N   0  0  0  0  0  0  0  0  0  0  0  0
   43.6750   28.7710   43.3670 C   0  0  0  0  0  0  0  0  0  0  0  0
   44.2310   27.8690   44.2230 N   0  0  0  0  0  0  0  0  0  0  0  0
   43.8680   26.1900   45.4910 H   0  0  0  0  0  0  0  0  0  0  0  0
   41.4180   26.1240   44.9710 H   0  0  0  0  0  0  0  0  0  0  0  0
   44.2960   29.5300   42.9000 H   0  0  0  0  0  0  0  0  0  0  0  0
   36.7320   29.1400   40.1220 C   0  0  0  0  0  0  0  0  0  0  0  0
   36.9880   29.9530   41.2190 C   0  0  0  0  0  0  0  0  0  0  0  0
   37.0920   31.2790   40.8970 C   0  0  0  0  0  0  0  0  0  0  0  0
   36.9680   31.8210   39.6380 C   0  0  0  0  0  0  0  0  0  0  0  0
   36.7140   30.9720   38.5830 C   0  0  0  0  0  0  0  0  0  0  0  0
   36.5960   29.6240   38.8390 C   0  0  0  0  0  0  0  0  0  0  0  0
   37.2920   32.0090   41.6720 H   0  0  0  0  0  0  0  0  0  0  0  0
   37.0590   32.8800   39.4370 H   0  0  0  0  0  0  0  0  0  0  0  0
   36.5950   31.2750   37.5510 H   0  0  0  0  0  0  0  0  0  0  0  0
   37.0350   29.1500   36.5280 C   0  0  2  0  0  3  0  0  0  0  0  0
   36.3230   28.6360   37.7590 C   0  0  2  0  0  3  0  0  0  0  0  0
   34.8640   28.5290   37.4030 C   0  0  0  0  0  3  0  0  0  0  0  0
   34.6590   27.4480   37.1550 H   0  0  0  0  0  0  0  0  0  0  0  0
   34.5660   29.2320   36.2400 O   0  0  0  0  0  0  0  0  0  0  0  0
   35.1320   28.5800   35.1460 C   0  0  0  0  0  3  0  0  0  0  0  0
   34.6750   27.5680   35.1020 H   0  0  0  0  0  0  0  0  0  0  0  0
   36.6310   28.4010   35.2780 C   0  0  1  0  0  3  0  0  0  0  0  0
   38.4120   29.1180   36.6210 O   0  0  0  0  0  0  0  0  0  0  0  0
   38.7890   29.9550   36.9860 H   0  0  0  0  0  0  0  0  0  0  0  0
   37.2940   29.0210   34.2140 O   0  0  0  0  0  0  0  0  0  0  0  0
   38.0720   29.5670   34.5370 H   0  0  0  0  0  0  0  0  0  0  0  0
   36.5140   26.5650   40.5630 N   0  0  0  0  0  0  0  0  0  0  0  0
   36.6020   27.7040   40.3660 C   0  0  0  0  0  0  0  0  0  0  0  0
  1  2  1  0  0  0  0
  1  5  1  0  0  0  0
  3 17  1  0  0  0  0
  3  7  1  0  0  0  0
  4  5  1  0  0  0  0
  4  3  1  0  0  0  0
  5  6  1  0  0  0  0
  5 10  1  1  0  0  0
  6  7  1  0  0  0  0
  6 12  1  0  0  0  0
  7 14  1  0  0  0  0
  8  4  1  0  0  0  0
  9  4  1  0  0  0  0
 11  6  1  0  0  0  0
 13  7  1  0  0  0  0
 15 21  1  0  0  0  0
 16 15  1  0  0  0  0
 16 22  1  0  0  0  0
 17 16  2  0  0  0  0
 18 19  2  0  0  0  0
 18 17  1  0  0  0  0
 19 20  1  0  0  0  0
 20 15  2  0  0  0  0
 23 19  1  0  0  0  0
 24 46  1  0  0  0  0
 24 25  1  0  0  0  0
 25  1  1  0  0  0  0
 26 25  2  0  0  0  0
 26 30  1  0  0  0  0
 27 26  1  0  0  0  0
 28 29  1  0  0  0  0
 28 27  2  0  0  0  0
 29 24  2  0  0  0  0
 31 27  1  0  0  0  0
 32 28  1  0  0  0  0
 33 41  1  1  0  0  0
 33 34  1  0  0  0  0
 34 29  1  1  0  0  0
 35 34  1  0  0  0  0
 36 35  1  0  0  0  0
 37 35  1  0  0  0  0
 38 40  1  0  0  0  0
 38 37  1  0  0  0  0
 39 38  1  0  0  0  0
 40 43  1  6  0  0  0
 40 33  1  0  0  0  0
 41 42  1  0  0  0  0
 43 44  1  0  0  0  0
 46 45  3  0  0  0  0
M  END
>  <minimizedAffinity>
-6.23585653

$$$$

 OpenBabel03242519083D

 46 49  0  0  1  0  0  0  0  0999 V2000
   38.7400   30.0470   43.0040 N   0  0  0  0  0  0  0  0  0  0  0  0
   38.1420   30.7430   43.5080 H   0  0  0  0  0  0  0  0  0  0  0  0
   37.1440   27.0260   42.0010 N   0  0  0  0  0  0  0  0  0  0  0  0
   37.7120   28.3080   41.6180 C   0  0  0  0  0  0  0  0  0  0  0  0
   38.3720   28.6700   42.9130 C   0  0  2  0  0  0  0  0  0  0  0  0
   37.2540   28.4150   43.9110 C   0  0  0  0  0  0  0  0  0  0  0  0
   36.5560   27.2170   43.3210 C   0  0  0  0  0  0  0  0  0  0  0  0
   36.9280   29.0510   41.4000 H   0  0  0  0  0  0  0  0  0  0  0  0
   38.4470   28.2380   40.7990 H   0  0  0  0  0  0  0  0  0  0  0  0
   39.2500   28.0290   43.1350 H   0  0  0  0  0  0  0  0  0  0  0  0
   36.6000   29.2940   44.0440 H   0  0  0  0  0  0  0  0  0  0  0  0
   37.7180   28.1400   44.8970 H   0  0  0  0  0  0  0  0  0  0  0  0
   35.4920   27.4890   43.1940 H   0  0  0  0  0  0  0  0  0  0  0  0
   36.6390   26.3360   43.9650 H   0  0  0  0  0  0  0  0  0  0  0  0
   37.4600   23.4310   41.0990 C   0  0  0  0  0  0  0  0  0  0  0  0
   37.5360   24.5910   41.8620 C   0  0  0  0  0  0  0  0  0  0  0  0
   37.1100   25.8020   41.3250 C   0  0  0  0  0  0  0  0  0  0  0  0
   36.6330   25.7620   40.0530 N   0  0  0  0  0  0  0  0  0  0  0  0
   36.5540   24.6500   39.3080 C   0  0  0  0  0  0  0  0  0  0  0  0
   36.9730   23.4710   39.8430 N   0  0  0  0  0  0  0  0  0  0  0  0
   37.8040   22.5140   41.5610 H   0  0  0  0  0  0  0  0  0  0  0  0
   37.9180   24.6360   42.8870 H   0  0  0  0  0  0  0  0  0  0  0  0
   36.1630   24.6780   38.2940 H   0  0  0  0  0  0  0  0  0  0  0  0
   39.8290   31.5580   41.3710 C   0  0  0  0  0  0  0  0  0  0  0  0
   39.8410   30.7760   42.5190 C   0  0  0  0  0  0  0  0  0  0  0  0
   41.0510   30.7740   43.1590 C   0  0  0  0  0  0  0  0  0  0  0  0
   42.1800   31.4530   42.7620 C   0  0  0  0  0  0  0  0  0  0  0  0
   42.1170   32.2140   41.6160 C   0  0  0  0  0  0  0  0  0  0  0  0
   40.9280   32.2610   40.9230 C   0  0  0  0  0  0  0  0  0  0  0  0
   41.1800   30.1980   44.0670 H   0  0  0  0  0  0  0  0  0  0  0  0
   43.1150   31.4170   43.3060 H   0  0  0  0  0  0  0  0  0  0  0  0
   42.9330   32.7920   41.2030 H   0  0  0  0  0  0  0  0  0  0  0  0
   41.7640   32.4910   38.6860 C   0  0  2  0  0  3  0  0  0  0  0  0
   40.7700   33.0580   39.6760 C   0  0  2  0  0  3  0  0  0  0  0  0
   41.1140   34.5130   39.8500 C   0  0  0  0  0  3  0  0  0  0  0  0
   40.4050   35.1040   39.2010 H   0  0  0  0  0  0  0  0  0  0  0  0
   42.3830   34.8040   39.3610 O   0  0  0  0  0  0  0  0  0  0  0  0
   42.3750   34.7210   37.9690 C   0  0  0  0  0  3  0  0  0  0  0  0
   41.6480   35.4790   37.6060 H   0  0  0  0  0  0  0  0  0  0  0  0
   41.9170   33.3670   37.4640 C   0  0  1  0  0  3  0  0  0  0  0  0
   41.4670   31.2120   38.2630 O   0  0  0  0  0  0  0  0  0  0  0  0
   41.8840   30.5170   38.8280 H   0  0  0  0  0  0  0  0  0  0  0  0
   42.9100   32.7770   36.6760 O   0  0  0  0  0  0  0  0  0  0  0  0
   43.0510   31.8150   36.9260 H   0  0  0  0  0  0  0  0  0  0  0  0
   37.5840   31.6640   40.0220 N   0  0  0  0  0  0  0  0  0  0  0  0
   38.5780   31.6250   40.6160 C   0  0  0  0  0  0  0  0  0  0  0  0
  1  2  1  0  0  0  0
  3  7  1  0  0  0  0
  4  3  1  0  0  0  0
  4  5  1  0  0  0  0
  5  1  1  0  0  0  0
  5 10  1  1  0  0  0
  5  6  1  0  0  0  0
  6 11  1  0  0  0  0
  6 12  1  0  0  0  0
  7  6  1  0  0  0  0
  7 14  1  0  0  0  0
  8  4  1  0  0  0  0
  9  4  1  0  0  0  0
 13  7  1  0  0  0  0
 15 21  1  0  0  0  0
 15 16  1  0  0  0  0
 16 22  1  0  0  0  0
 17 16  2  0  0  0  0
 17  3  1  0  0  0  0
 18 17  1  0  0  0  0
 19 20  1  0  0  0  0
 19 18  2  0  0  0  0
 20 15  2  0  0  0  0
 23 19  1  0  0  0  0
 24 25  1  0  0  0  0
 25  1  1  0  0  0  0
 25 26  2  0  0  0  0
 26 30  1  0  0  0  0
 27 26  1  0  0  0  0
 27 31  1  0  0  0  0
 28 27  2  0  0  0  0
 29 24  2  0  0  0  0
 29 28  1  0  0  0  0
 32 28  1  0  0  0  0
 33 41  1  6  0  0  0
 33 34  1  0  0  0  0
 34 35  1  0  0  0  0
 34 29  1  1  0  0  0
 36 35  1  0  0  0  0
 37 35  1  0  0  0  0
 38 37  1  0  0  0  0
 39 38  1  0  0  0  0
 40 43  1  6  0  0  0
 40 38  1  0  0  0  0
 40 33  1  0  0  0  0
 41 42  1  0  0  0  0
 43 44  1  0  0  0  0
 45 46  3  0  0  0  0
 46 24  1  0  0  0  0
M  END
>  <minimizedAffinity>
-6.02872992

$$$$

 OpenBabel03242519083D

 46 49  0  0  1  0  0  0  0  0999 V2000
   37.7680   32.1610   41.0050 N   0  0  0  0  0  0  0  0  0  0  0  0
   37.3220   32.6050   41.8420 H   0  0  0  0  0  0  0  0  0  0  0  0
   40.7060   33.9200   40.0300 N   0  0  0  0  0  0  0  0  0  0  0  0
   40.1090   32.8620   40.8290 C   0  0  0  0  0  0  0  0  0  0  0  0
   38.7400   32.8530   40.2200 C   0  0  2  0  0  0  0  0  0  0  0  0
   38.3870   34.3310   40.2300 C   0  0  0  0  0  0  0  0  0  0  0  0
   39.7160   34.9860   39.9560 C   0  0  0  0  0  0  0  0  0  0  0  0
   40.0240   33.1520   41.8880 H   0  0  0  0  0  0  0  0  0  0  0  0
   40.6070   31.8850   40.7110 H   0  0  0  0  0  0  0  0  0  0  0  0
   38.7400   32.4560   39.1840 H   0  0  0  0  0  0  0  0  0  0  0  0
   37.9200   34.6460   41.1790 H   0  0  0  0  0  0  0  0  0  0  0  0
   37.6800   34.5300   39.3800 H   0  0  0  0  0  0  0  0  0  0  0  0
   39.9060   35.6980   40.7800 H   0  0  0  0  0  0  0  0  0  0  0  0
   39.7220   35.5180   39.0000 H   0  0  0  0  0  0  0  0  0  0  0  0
   43.4520   34.2120   37.5360 C   0  0  0  0  0  0  0  0  0  0  0  0
   42.1590   34.1400   38.0440 C   0  0  0  0  0  0  0  0  0  0  0  0
   41.9600   34.0020   39.4140 C   0  0  0  0  0  0  0  0  0  0  0  0
   43.0800   33.9480   40.1830 N   0  0  0  0  0  0  0  0  0  0  0  0
   44.3310   34.0170   39.7050 C   0  0  0  0  0  0  0  0  0  0  0  0
   44.5140   34.1510   38.3630 N   0  0  0  0  0  0  0  0  0  0  0  0
   43.5550   34.3180   36.4630 H   0  0  0  0  0  0  0  0  0  0  0  0
   41.2500   34.1830   37.4350 H   0  0  0  0  0  0  0  0  0  0  0  0
   45.1900   33.9680   40.3690 H   0  0  0  0  0  0  0  0  0  0  0  0
   37.7630   29.7240   41.4520 C   0  0  0  0  0  0  0  0  0  0  0  0
   37.2030   30.8760   40.9120 C   0  0  0  0  0  0  0  0  0  0  0  0
   36.0200   30.6480   40.2630 C   0  0  0  0  0  0  0  0  0  0  0  0
   35.3920   29.4330   40.1210 C   0  0  0  0  0  0  0  0  0  0  0  0
   35.9880   28.3210   40.6730 C   0  0  0  0  0  0  0  0  0  0  0  0
   37.1820   28.4790   41.3430 C   0  0  0  0  0  0  0  0  0  0  0  0
   35.4910   31.4740   39.8010 H   0  0  0  0  0  0  0  0  0  0  0  0
   34.4540   29.3080   39.5960 H   0  0  0  0  0  0  0  0  0  0  0  0
   35.5950   27.3130   40.6300 H   0  0  0  0  0  0  0  0  0  0  0  0
   38.3150   26.4260   40.8340 C   0  0  2  0  0  3  0  0  0  0  0  0
   37.8940   27.3330   41.9700 C   0  0  2  0  0  3  0  0  0  0  0  0
   37.0200   26.5110   42.8790 C   0  0  0  0  0  3  0  0  0  0  0  0
   37.6630   26.1680   43.7400 H   0  0  0  0  0  0  0  0  0  0  0  0
   36.5870   25.3430   42.2590 O   0  0  0  0  0  0  0  0  0  0  0  0
   37.6650   24.4720   42.1070 C   0  0  0  0  0  3  0  0  0  0  0  0
   38.0400   24.2410   43.1270 H   0  0  0  0  0  0  0  0  0  0  0  0
   38.8110   25.0850   41.3260 C   0  0  1  0  0  3  0  0  0  0  0  0
   39.2830   26.9670   40.0130 O   0  0  0  0  0  0  0  0  0  0  0  0
   38.9010   27.4680   39.2520 H   0  0  0  0  0  0  0  0  0  0  0  0
   39.0890   24.3240   40.1860 O   0  0  0  0  0  0  0  0  0  0  0  0
   39.1950   24.9060   39.3750 H   0  0  0  0  0  0  0  0  0  0  0  0
   40.0380   29.9890   42.7260 N   0  0  0  0  0  0  0  0  0  0  0  0
   39.0300   29.8650   42.1670 C   0  0  0  0  0  0  0  0  0  0  0  0
  1  2  1  0  0  0  0
  3  4  1  0  0  0  0
  4  8  1  0  0  0  0
  5 10  1  6  0  0  0
  5  6  1  0  0  0  0
  5  4  1  0  0  0  0
  5  1  1  0  0  0  0
  6 11  1  0  0  0  0
  7  3  1  0  0  0  0
  7  6  1  0  0  0  0
  7 13  1  0  0  0  0
  9  4  1  0  0  0  0
 12  6  1  0  0  0  0
 14  7  1  0  0  0  0
 15 16  2  0  0  0  0
 15 20  1  0  0  0  0
 16 17  1  0  0  0  0
 17  3  1  0  0  0  0
 17 18  2  0  0  0  0
 19 18  1  0  0  0  0
 19 23  1  0  0  0  0
 20 19  2  0  0  0  0
 21 15  1  0  0  0  0
 22 16  1  0  0  0  0
 24 46  1  0  0  0  0
 25  1  1  0  0  0  0
 25 24  2  0  0  0  0
 26 25  1  0  0  0  0
 27 26  2  0  0  0  0
 27 28  1  0  0  0  0
 28 29  2  0  0  0  0
 29 24  1  0  0  0  0
 30 26  1  0  0  0  0
 31 27  1  0  0  0  0
 32 28  1  0  0  0  0
 33 41  1  1  0  0  0
 33 40  1  0  0  0  0
 33 34  1  0  0  0  0
 34 29  1  6  0  0  0
 34 35  1  0  0  0  0
 35 36  1  0  0  0  0
 37 35  1  0  0  0  0
 38 37  1  0  0  0  0
 38 39  1  0  0  0  0
 40 43  1  6  0  0  0
 40 38  1  0  0  0  0
 42 41  1  0  0  0  0
 44 43  1  0  0  0  0
 46 45  3  0  0  0  0
M  END
>  <minimizedAffinity>
-5.96457911

$$$$

 OpenBabel03242519083D

 46 49  0  0  1  0  0  0  0  0999 V2000
   37.9000   32.2530   40.8700 N   0  0  0  0  0  0  0  0  0  0  0  0
   37.7560   32.2270   41.9070 H   0  0  0  0  0  0  0  0  0  0  0  0
   36.9090   29.6590   38.6420 N   0  0  0  0  0  0  0  0  0  0  0  0
   37.6410   30.0480   39.8370 C   0  0  0  0  0  0  0  0  0  0  0  0
   37.1230   31.4450   39.9860 C   0  0  2  0  0  0  0  0  0  0  0  0
   37.2950   31.9900   38.5770 C   0  0  0  0  0  0  0  0  0  0  0  0
   36.9990   30.7850   37.7220 C   0  0  0  0  0  0  0  0  0  0  0  0
   38.7260   30.0890   39.6530 H   0  0  0  0  0  0  0  0  0  0  0  0
   37.4000   29.4340   40.7210 H   0  0  0  0  0  0  0  0  0  0  0  0
   36.0560   31.4710   40.2890 H   0  0  0  0  0  0  0  0  0  0  0  0
   38.2970   32.4210   38.4130 H   0  0  0  0  0  0  0  0  0  0  0  0
   36.5140   32.7800   38.4070 H   0  0  0  0  0  0  0  0  0  0  0  0
   37.8740   30.6290   37.0630 H   0  0  0  0  0  0  0  0  0  0  0  0
   36.1000   30.9230   37.1150 H   0  0  0  0  0  0  0  0  0  0  0  0
   34.4640   27.1850   37.3210 C   0  0  0  0  0  0  0  0  0  0  0  0
   35.0650   28.4150   37.5670 C   0  0  0  0  0  0  0  0  0  0  0  0
   36.2250   28.4780   38.3330 C   0  0  0  0  0  0  0  0  0  0  0  0
   36.7030   27.2940   38.8000 N   0  0  0  0  0  0  0  0  0  0  0  0
   36.1340   26.1030   38.5690 C   0  0  0  0  0  0  0  0  0  0  0  0
   34.9990   26.0530   37.8180 N   0  0  0  0  0  0  0  0  0  0  0  0
   33.5640   27.1880   36.7200 H   0  0  0  0  0  0  0  0  0  0  0  0
   34.6900   29.3740   37.1970 H   0  0  0  0  0  0  0  0  0  0  0  0
   36.5610   25.1880   38.9690 H   0  0  0  0  0  0  0  0  0  0  0  0
   40.2880   32.9020   40.7430 C   0  0  0  0  0  0  0  0  0  0  0  0
   38.9310   33.1870   40.6550 C   0  0  0  0  0  0  0  0  0  0  0  0
   38.6730   34.4920   40.3320 C   0  0  0  0  0  0  0  0  0  0  0  0
   39.6100   35.4720   40.1030 C   0  0  0  0  0  0  0  0  0  0  0  0
   40.9430   35.1390   40.2030 C   0  0  0  0  0  0  0  0  0  0  0  0
   41.2730   33.8400   40.5250 C   0  0  0  0  0  0  0  0  0  0  0  0
   37.6480   34.8310   40.2350 H   0  0  0  0  0  0  0  0  0  0  0  0
   39.3520   36.4910   39.8500 H   0  0  0  0  0  0  0  0  0  0  0  0
   41.7710   35.8170   40.0470 H   0  0  0  0  0  0  0  0  0  0  0  0
   43.4230   34.5180   41.3470 C   0  0  2  0  0  3  0  0  0  0  0  0
   42.6870   33.3930   40.6530 C   0  0  2  0  0  3  0  0  0  0  0  0
   43.3690   33.1810   39.3290 C   0  0  0  0  0  3  0  0  0  0  0  0
   44.0640   32.3010   39.4480 H   0  0  0  0  0  0  0  0  0  0  0  0
   44.1920   34.2530   38.9970 O   0  0  0  0  0  0  0  0  0  0  0  0
   45.3010   34.2650   39.8420 C   0  0  0  0  0  3  0  0  0  0  0  0
   45.8420   33.3080   39.6770 H   0  0  0  0  0  0  0  0  0  0  0  0
   44.9220   34.3310   41.3080 C   0  0  1  0  0  3  0  0  0  0  0  0
   43.0480   34.7070   42.6620 O   0  0  0  0  0  0  0  0  0  0  0  0
   42.3070   35.3550   42.7580 H   0  0  0  0  0  0  0  0  0  0  0  0
   45.4780   35.4660   41.9070 O   0  0  0  0  0  0  0  0  0  0  0  0
   44.8020   35.9510   42.4680 H   0  0  0  0  0  0  0  0  0  0  0  0
   40.9740   30.4430   41.3430 N   0  0  0  0  0  0  0  0  0  0  0  0
   40.6650   31.5300   41.0830 C   0  0  0  0  0  0  0  0  0  0  0  0
  1  2  1  0  0  0  0
  3  4  1  0  0  0  0
  4  5  1  0  0  0  0
  4  9  1  0  0  0  0
  5 10  1  1  0  0  0
  5  1  1  0  0  0  0
  6  5  1  0  0  0  0
  7  6  1  0  0  0  0
  7  3  1  0  0  0  0
  8  4  1  0  0  0  0
 11  6  1  0  0  0  0
 12  6  1  0  0  0  0
 13  7  1  0  0  0  0
 14  7  1  0  0  0  0
 15 16  2  0  0  0  0
 15 20  1  0  0  0  0
 16 17  1  0  0  0  0
 17  3  1  0  0  0  0
 17 18  2  0  0  0  0
 19 18  1  0  0  0  0
 19 23  1  0  0  0  0
 20 19  2  0  0  0  0
 21 15  1  0  0  0  0
 22 16  1  0  0  0  0
 24 46  1  0  0  0  0
 25 24  1  0  0  0  0
 25  1  1  0  0  0  0
 26 25  2  0  0  0  0
 27 28  2  0  0  0  0
 27 26  1  0  0  0  0
 28 29  1  0  0  0  0
 29 24  2  0  0  0  0
 30 26  1  0  0  0  0
 31 27  1  0  0  0  0
 32 28  1  0  0  0  0
 33 41  1  1  0  0  0
 34 29  1  6  0  0  0
 34 33  1  0  0  0  0
 35 36  1  0  0  0  0
 35 34  1  0  0  0  0
 37 35  1  0  0  0  0
 37 38  1  0  0  0  0
 38 40  1  0  0  0  0
 39 38  1  0  0  0  0
 40 33  1  0  0  0  0
 40 43  1  6  0  0  0
 41 42  1  0  0  0  0
 43 44  1  0  0  0  0
 46 45  3  0  0  0  0
M  END
>  <minimizedAffinity>
-5.87594318

$$$$

 OpenBabel03242519083D

 46 49  0  0  1  0  0  0  0  0999 V2000
   37.1350   30.1910   42.2070 N   0  0  0  0  0  0  0  0  0  0  0  0
   37.0980   30.9150   42.9620 H   0  0  0  0  0  0  0  0  0  0  0  0
   36.5400   30.1420   38.6970 N   0  0  0  0  0  0  0  0  0  0  0  0
   36.9740   29.4260   39.8860 C   0  0  0  0  0  0  0  0  0  0  0  0
   36.5460   30.4160   40.9260 C   0  0  2  0  0  0  0  0  0  0  0  0
   37.1110   31.7120   40.3690 C   0  0  0  0  0  0  0  0  0  0  0  0
   36.9480   31.5280   38.8830 C   0  0  0  0  0  0  0  0  0  0  0  0
   38.0700   29.3250   39.9220 H   0  0  0  0  0  0  0  0  0  0  0  0
   36.4690   28.4550   40.0250 H   0  0  0  0  0  0  0  0  0  0  0  0
   35.4430   30.4790   41.0230 H   0  0  0  0  0  0  0  0  0  0  0  0
   38.1530   31.8880   40.6870 H   0  0  0  0  0  0  0  0  0  0  0  0
   36.4630   32.5590   40.7230 H   0  0  0  0  0  0  0  0  0  0  0  0
   37.9460   31.6630   38.4250 H   0  0  0  0  0  0  0  0  0  0  0  0
   36.2450   32.2490   38.4540 H   0  0  0  0  0  0  0  0  0  0  0  0
   34.0280   28.6910   36.3680 C   0  0  0  0  0  0  0  0  0  0  0  0
   34.6070   29.1010   37.5640 C   0  0  0  0  0  0  0  0  0  0  0  0
   35.8660   29.6940   37.5560 C   0  0  0  0  0  0  0  0  0  0  0  0
   36.4570   29.8350   36.3400 N   0  0  0  0  0  0  0  0  0  0  0  0
   35.9090   29.4450   35.1810 C   0  0  0  0  0  0  0  0  0  0  0  0
   34.6770   28.8660   35.2000 N   0  0  0  0  0  0  0  0  0  0  0  0
   33.0480   28.2340   36.4270 H   0  0  0  0  0  0  0  0  0  0  0  0
   34.1410   28.9920   38.5490 H   0  0  0  0  0  0  0  0  0  0  0  0
   36.4290   29.5840   34.2370 H   0  0  0  0  0  0  0  0  0  0  0  0
   39.2100   28.9160   42.6630 C   0  0  0  0  0  0  0  0  0  0  0  0
   37.8360   29.1040   42.7600 C   0  0  0  0  0  0  0  0  0  0  0  0
   37.2030   28.1120   43.4590 C   0  0  0  0  0  0  0  0  0  0  0  0
   37.8020   27.0140   44.0330 C   0  0  0  0  0  0  0  0  0  0  0  0
   39.1660   26.8740   43.9090 C   0  0  0  0  0  0  0  0  0  0  0  0
   39.8660   27.8380   43.2180 C   0  0  0  0  0  0  0  0  0  0  0  0
   36.1300   28.1510   43.5990 H   0  0  0  0  0  0  0  0  0  0  0  0
   37.2530   26.2570   44.5770 H   0  0  0  0  0  0  0  0  0  0  0  0
   39.7510   26.0580   44.3140 H   0  0  0  0  0  0  0  0  0  0  0  0
   41.6010   26.5410   42.1860 C   0  0  2  0  0  3  0  0  0  0  0  0
   41.3410   27.7660   43.0350 C   0  0  2  0  0  3  0  0  0  0  0  0
   42.0940   27.5670   44.3230 C   0  0  0  0  0  3  0  0  0  0  0  0
   43.0550   28.1510   44.2420 H   0  0  0  0  0  0  0  0  0  0  0  0
   42.4840   26.2420   44.4910 O   0  0  0  0  0  0  0  0  0  0  0  0
   43.4880   25.9350   43.5740 C   0  0  0  0  0  3  0  0  0  0  0  0
   44.3430   26.6110   43.7930 H   0  0  0  0  0  0  0  0  0  0  0  0
   43.0680   26.1780   42.1390 C   0  0  1  0  0  3  0  0  0  0  0  0
   41.1440   26.6510   40.8880 O   0  0  0  0  0  0  0  0  0  0  0  0
   40.2170   26.3250   40.7820 H   0  0  0  0  0  0  0  0  0  0  0  0
   43.1590   24.9970   41.3950 O   0  0  0  0  0  0  0  0  0  0  0  0
   42.3360   24.8520   40.8370 H   0  0  0  0  0  0  0  0  0  0  0  0
   40.5940   30.7170   41.3550 N   0  0  0  0  0  0  0  0  0  0  0  0
   39.9760   29.9260   41.9340 C   0  0  0  0  0  0  0  0  0  0  0  0
  1 25  1  0  0  0  0
  1  2  1  0  0  0  0
  3  7  1  0  0  0  0
  3  4  1  0  0  0  0
  4  8  1  0  0  0  0
  4  9  1  0  0  0  0
  4  5  1  0  0  0  0
  5 10  1  1  0  0  0
  5  1  1  0  0  0  0
  6 11  1  0  0  0  0
  6 12  1  0  0  0  0
  6  5  1  0  0  0  0
  7  6  1  0  0  0  0
 13  7  1  0  0  0  0
 14  7  1  0  0  0  0
 15 21  1  0  0  0  0
 15 16  1  0  0  0  0
 16 22  1  0  0  0  0
 17 16  2  0  0  0  0
 17  3  1  0  0  0  0
 18 17  1  0  0  0  0
 19 20  1  0  0  0  0
 19 18  2  0  0  0  0
 20 15  2  0  0  0  0
 23 19  1  0  0  0  0
 24 25  2  0  0  0  0
 24 29  1  0  0  0  0
 25 26  1  0  0  0  0
 26 30  1  0  0  0  0
 26 27  2  0  0  0  0
 27 31  1  0  0  0  0
 28 27  1  0  0  0  0
 28 32  1  0  0  0  0
 29 28  2  0  0  0  0
 33 41  1  6  0  0  0
 33 34  1  0  0  0  0
 34 29  1  1  0  0  0
 34 35  1  0  0  0  0
 35 37  1  0  0  0  0
 36 35  1  0  0  0  0
 38 39  1  0  0  0  0
 38 37  1  0  0  0  0
 40 43  1  6  0  0  0
 40 33  1  0  0  0  0
 40 38  1  0  0  0  0
 42 41  1  0  0  0  0
 44 43  1  0  0  0  0
 45 46  3  0  0  0  0
 46 24  1  0  0  0  0
M  END
>  <minimizedAffinity>
-5.86084795

$$$$

 OpenBabel03242519083D

 46 49  0  0  1  0  0  0  0  0999 V2000
   36.7780   27.3880   40.2550 N   0  0  0  0  0  0  0  0  0  0  0  0
   35.8480   27.5790   40.6970 H   0  0  0  0  0  0  0  0  0  0  0  0
   37.5480   23.9160   40.0780 N   0  0  0  0  0  0  0  0  0  0  0  0
   37.0240   25.0990   39.4160 C   0  0  0  0  0  0  0  0  0  0  0  0
   37.4400   26.1330   40.4170 C   0  0  2  0  0  0  0  0  0  0  0  0
   36.9590   25.5130   41.7190 C   0  0  0  0  0  0  0  0  0  0  0  0
   37.1900   24.0420   41.4850 C   0  0  0  0  0  0  0  0  0  0  0  0
   35.9240   25.0810   39.3610 H   0  0  0  0  0  0  0  0  0  0  0  0
   37.4800   25.2910   38.4290 H   0  0  0  0  0  0  0  0  0  0  0  0
   38.5390   26.2850   40.4380 H   0  0  0  0  0  0  0  0  0  0  0  0
   35.9110   25.7710   41.9460 H   0  0  0  0  0  0  0  0  0  0  0  0
   37.6230   25.8760   42.5490 H   0  0  0  0  0  0  0  0  0  0  0  0
   36.2240   23.5290   41.6470 H   0  0  0  0  0  0  0  0  0  0  0  0
   37.9440   23.6310   42.1630 H   0  0  0  0  0  0  0  0  0  0  0  0
   39.8410   21.7470   38.1070 C   0  0  0  0  0  0  0  0  0  0  0  0
   39.1890   22.8990   38.5360 C   0  0  0  0  0  0  0  0  0  0  0  0
   38.2600   22.8240   39.5700 C   0  0  0  0  0  0  0  0  0  0  0  0
   38.0500   21.5910   40.1030 N   0  0  0  0  0  0  0  0  0  0  0  0
   38.6720   20.4750   39.6990 C   0  0  0  0  0  0  0  0  0  0  0  0
   39.5790   20.5590   38.6870 N   0  0  0  0  0  0  0  0  0  0  0  0
   40.5540   21.8570   37.3000 H   0  0  0  0  0  0  0  0  0  0  0  0
   39.3490   23.8960   38.1150 H   0  0  0  0  0  0  0  0  0  0  0  0
   38.4650   19.5150   40.1630 H   0  0  0  0  0  0  0  0  0  0  0  0
   37.8310   29.6250   40.1010 C   0  0  0  0  0  0  0  0  0  0  0  0
   37.1160   28.5640   39.5600 C   0  0  0  0  0  0  0  0  0  0  0  0
   36.7550   28.7650   38.2550 C   0  0  0  0  0  0  0  0  0  0  0  0
   37.0390   29.8770   37.4960 C   0  0  0  0  0  0  0  0  0  0  0  0
   37.7510   30.9010   38.0790 C   0  0  0  0  0  0  0  0  0  0  0  0
   38.1460   30.7640   39.3910 C   0  0  0  0  0  0  0  0  0  0  0  0
   36.1930   28.0040   37.7280 H   0  0  0  0  0  0  0  0  0  0  0  0
   36.7290   29.9850   36.4660 H   0  0  0  0  0  0  0  0  0  0  0  0
   38.0350   31.8230   37.5890 H   0  0  0  0  0  0  0  0  0  0  0  0
   38.2540   33.1340   39.7470 C   0  0  2  0  0  3  0  0  0  0  0  0
   38.9180   31.8210   40.1000 C   0  0  2  0  0  3  0  0  0  0  0  0
   40.3490   31.9230   39.6430 C   0  0  0  0  0  3  0  0  0  0  0  0
   40.9710   32.1780   40.5480 H   0  0  0  0  0  0  0  0  0  0  0  0
   40.5330   32.9840   38.7630 O   0  0  0  0  0  0  0  0  0  0  0  0
   40.4140   34.1880   39.4560 C   0  0  0  0  0  3  0  0  0  0  0  0
   41.2120   34.1960   40.2290 H   0  0  0  0  0  0  0  0  0  0  0  0
   39.0840   34.3260   40.1690 C   0  0  1  0  0  3  0  0  0  0  0  0
   36.9890   33.2830   40.2770 O   0  0  0  0  0  0  0  0  0  0  0  0
   36.2810   32.9530   39.6710 H   0  0  0  0  0  0  0  0  0  0  0  0
   38.4020   35.4610   39.7200 O   0  0  0  0  0  0  0  0  0  0  0  0
   37.4390   35.2550   39.5220 H   0  0  0  0  0  0  0  0  0  0  0  0
   38.6160   29.4000   42.5930 N   0  0  0  0  0  0  0  0  0  0  0  0
   38.2620   29.5040   41.4930 C   0  0  0  0  0  0  0  0  0  0  0  0
  1  5  1  0  0  0  0
  1  2  1  0  0  0  0
  3  7  1  0  0  0  0
  4  3  1  0  0  0  0
  4  5  1  0  0  0  0
  5 10  1  1  0  0  0
  5  6  1  0  0  0  0
  6 11  1  0  0  0  0
  6 12  1  0  0  0  0
  7 13  1  0  0  0  0
  7  6  1  0  0  0  0
  7 14  1  0  0  0  0
  8  4  1  0  0  0  0
  9  4  1  0  0  0  0
 15 16  2  0  0  0  0
 15 20  1  0  0  0  0
 16 17  1  0  0  0  0
 17  3  1  0  0  0  0
 17 18  2  0  0  0  0
 19 18  1  0  0  0  0
 19 23  1  0  0  0  0
 20 19  2  0  0  0  0
 21 15  1  0  0  0  0
 22 16  1  0  0  0  0
 24 46  1  0  0  0  0
 25 24  1  0  0  0  0
 25  1  1  0  0  0  0
 26 25  2  0  0  0  0
 27 28  2  0  0  0  0
 27 26  1  0  0  0  0
 28 29  1  0  0  0  0
 29 24  2  0  0  0  0
 30 26  1  0  0  0  0
 31 27  1  0  0  0  0
 32 28  1  0  0  0  0
 33 34  1  0  0  0  0
 33 40  1  0  0  0  0
 33 41  1  1  0  0  0
 34 29  1  6  0  0  0
 35 34  1  0  0  0  0
 35 36  1  0  0  0  0
 37 38  1  0  0  0  0
 37 35  1  0  0  0  0
 38 40  1  0  0  0  0
 38 39  1  0  0  0  0
 40 43  1  6  0  0  0
 42 41  1  0  0  0  0
 44 43  1  0  0  0  0
 46 45  3  0  0  0  0
M  END
>  <minimizedAffinity>
-5.85326624

$$$$

 OpenBabel03242519083D

 46 49  0  0  1  0  0  0  0  0999 V2000
   38.1650   31.5170   39.5410 N   0  0  0  0  0  0  0  0  0  0  0  0
   37.8660   31.7490   38.5650 H   0  0  0  0  0  0  0  0  0  0  0  0
   36.6920   28.3500   40.2290 N   0  0  0  0  0  0  0  0  0  0  0  0
   37.5870   29.1410   39.4010 C   0  0  0  0  0  0  0  0  0  0  0  0
   37.6420   30.3840   40.2350 C   0  0  2  0  0  0  0  0  0  0  0  0
   36.1690   30.6390   40.5090 C   0  0  0  0  0  0  0  0  0  0  0  0
   35.6150   29.2430   40.6370 C   0  0  0  0  0  0  0  0  0  0  0  0
   37.1310   29.3860   38.4290 H   0  0  0  0  0  0  0  0  0  0  0  0
   38.5880   28.6930   39.2810 H   0  0  0  0  0  0  0  0  0  0  0  0
   38.1970   30.2330   41.1840 H   0  0  0  0  0  0  0  0  0  0  0  0
   35.6920   31.2390   39.7160 H   0  0  0  0  0  0  0  0  0  0  0  0
   36.0810   31.1760   41.4910 H   0  0  0  0  0  0  0  0  0  0  0  0
   34.7890   29.1510   39.9070 H   0  0  0  0  0  0  0  0  0  0  0  0
   35.2410   29.0410   41.6450 H   0  0  0  0  0  0  0  0  0  0  0  0
   37.1210   25.2070   42.1740 C   0  0  0  0  0  0  0  0  0  0  0  0
   37.0900   26.5700   41.8950 C   0  0  0  0  0  0  0  0  0  0  0  0
   36.7530   27.0070   40.6180 C   0  0  0  0  0  0  0  0  0  0  0  0
   36.4690   26.0410   39.7050 N   0  0  0  0  0  0  0  0  0  0  0  0
   36.4950   24.7250   39.9620 C   0  0  0  0  0  0  0  0  0  0  0  0
   36.8260   24.3080   41.2150 N   0  0  0  0  0  0  0  0  0  0  0  0
   37.3890   24.9170   43.1820 H   0  0  0  0  0  0  0  0  0  0  0  0
   37.3160   27.3570   42.6210 H   0  0  0  0  0  0  0  0  0  0  0  0
   36.2580   23.9960   39.1910 H   0  0  0  0  0  0  0  0  0  0  0  0
   40.4450   32.2830   40.1380 C   0  0  0  0  0  0  0  0  0  0  0  0
   39.0960   32.5110   39.8980 C   0  0  0  0  0  0  0  0  0  0  0  0
   38.7360   33.8240   40.0420 C   0  0  0  0  0  0  0  0  0  0  0  0
   39.5710   34.8620   40.3860 C   0  0  0  0  0  0  0  0  0  0  0  0
   40.9000   34.5830   40.6140 C   0  0  0  0  0  0  0  0  0  0  0  0
   41.3300   33.2800   40.4860 C   0  0  0  0  0  0  0  0  0  0  0  0
   37.7070   34.1220   39.8790 H   0  0  0  0  0  0  0  0  0  0  0  0
   39.2340   35.8850   40.4860 H   0  0  0  0  0  0  0  0  0  0  0  0
   41.6530   35.3090   40.8900 H   0  0  0  0  0  0  0  0  0  0  0  0
   43.0050   33.0810   42.1920 C   0  0  2  0  0  3  0  0  0  0  0  0
   42.7480   32.8900   40.7140 C   0  0  2  0  0  3  0  0  0  0  0  0
   43.7330   33.7650   39.9870 C   0  0  0  0  0  3  0  0  0  0  0  0
   44.5860   33.1050   39.6560 H   0  0  0  0  0  0  0  0  0  0  0  0
   44.3080   34.7060   40.8350 O   0  0  0  0  0  0  0  0  0  0  0  0
   45.1660   34.0640   41.7260 C   0  0  0  0  0  3  0  0  0  0  0  0
   45.9550   33.5730   41.1170 H   0  0  0  0  0  0  0  0  0  0  0  0
   44.4740   32.9860   42.5350 C   0  0  1  0  0  3  0  0  0  0  0  0
   42.3170   32.1970   43.0000 O   0  0  0  0  0  0  0  0  0  0  0  0
   41.4340   32.5430   43.2770 H   0  0  0  0  0  0  0  0  0  0  0  0
   44.5790   33.2560   43.9030 O   0  0  0  0  0  0  0  0  0  0  0  0
   43.6960   33.1410   44.3680 H   0  0  0  0  0  0  0  0  0  0  0  0
   41.2970   29.8130   39.9140 N   0  0  0  0  0  0  0  0  0  0  0  0
   40.9260   30.9080   40.0090 C   0  0  0  0  0  0  0  0  0  0  0  0
  1 25  1  0  0  0  0
  1  5  1  0  0  0  0
  2  1  1  0  0  0  0
  3 17  1  0  0  0  0
  3  7  1  0  0  0  0
  4  3  1  0  0  0  0
  4  5  1  0  0  0  0
  5  6  1  0  0  0  0
  5 10  1  1  0  0  0
  6  7  1  0  0  0  0
  6 12  1  0  0  0  0
  7 14  1  0  0  0  0
  8  4  1  0  0  0  0
  9  4  1  0  0  0  0
 11  6  1  0  0  0  0
 13  7  1  0  0  0  0
 15 21  1  0  0  0  0
 16 15  1  0  0  0  0
 16 22  1  0  0  0  0
 17 16  2  0  0  0  0
 18 19  2  0  0  0  0
 18 17  1  0  0  0  0
 19 20  1  0  0  0  0
 20 15  2  0  0  0  0
 23 19  1  0  0  0  0
 24 29  1  0  0  0  0
 25 26  1  0  0  0  0
 25 24  2  0  0  0  0
 26 27  2  0  0  0  0
 27 31  1  0  0  0  0
 27 28  1  0  0  0  0
 28 32  1  0  0  0  0
 29 28  2  0  0  0  0
 30 26  1  0  0  0  0
 33 40  1  0  0  0  0
 33 41  1  1  0  0  0
 34 29  1  1  0  0  0
 34 33  1  0  0  0  0
 35 34  1  0  0  0  0
 35 37  1  0  0  0  0
 36 35  1  0  0  0  0
 37 38  1  0  0  0  0
 38 40  1  0  0  0  0
 39 38  1  0  0  0  0
 40 43  1  1  0  0  0
 41 42  1  0  0  0  0
 43 44  1  0  0  0  0
 45 46  3  0  0  0  0
 46 24  1  0  0  0  0
M  END
>  <minimizedAffinity>
-5.83361006

$$$$

 OpenBabel03242519083D

 46 49  0  0  1  0  0  0  0  0999 V2000
   36.4490   29.0220   40.2330 N   0  0  0  0  0  0  0  0  0  0  0  0
   35.4070   29.1210   40.2140 H   0  0  0  0  0  0  0  0  0  0  0  0
   37.8700   32.2550   39.7830 N   0  0  0  0  0  0  0  0  0  0  0  0
   37.2200   31.3060   40.6700 C   0  0  0  0  0  0  0  0  0  0  0  0
   37.3090   30.0820   39.8120 C   0  0  2  0  0  0  0  0  0  0  0  0
   36.7980   30.6010   38.4780 C   0  0  0  0  0  0  0  0  0  0  0  0
   37.3260   32.0120   38.4530 C   0  0  0  0  0  0  0  0  0  0  0  0
   36.1570   31.5550   40.8230 H   0  0  0  0  0  0  0  0  0  0  0  0
   37.7480   31.1640   41.6280 H   0  0  0  0  0  0  0  0  0  0  0  0
   38.3490   29.7080   39.7140 H   0  0  0  0  0  0  0  0  0  0  0  0
   35.7000   30.5320   38.3930 H   0  0  0  0  0  0  0  0  0  0  0  0
   37.2760   29.9990   37.6590 H   0  0  0  0  0  0  0  0  0  0  0  0
   36.4600   32.6830   38.3010 H   0  0  0  0  0  0  0  0  0  0  0  0
   38.0550   32.1630   37.6510 H   0  0  0  0  0  0  0  0  0  0  0  0
   39.5750   35.4740   40.5430 C   0  0  0  0  0  0  0  0  0  0  0  0
   38.5410   34.5760   40.2980 C   0  0  0  0  0  0  0  0  0  0  0  0
   38.8300   33.2400   40.0420 C   0  0  0  0  0  0  0  0  0  0  0  0
   40.1450   32.8960   40.0510 N   0  0  0  0  0  0  0  0  0  0  0  0
   41.1510   33.7500   40.2870 C   0  0  0  0  0  0  0  0  0  0  0  0
   40.8560   35.0560   40.5360 N   0  0  0  0  0  0  0  0  0  0  0  0
   39.2990   36.5030   40.7370 H   0  0  0  0  0  0  0  0  0  0  0  0
   37.4790   34.8420   40.2880 H   0  0  0  0  0  0  0  0  0  0  0  0
   42.1850   33.4180   40.2820 H   0  0  0  0  0  0  0  0  0  0  0  0
   36.9470   26.6130   39.9340 C   0  0  0  0  0  0  0  0  0  0  0  0
   36.6980   27.7270   40.7260 C   0  0  0  0  0  0  0  0  0  0  0  0
   36.7140   27.4520   42.0660 C   0  0  0  0  0  0  0  0  0  0  0  0
   36.9470   26.2240   42.6400 C   0  0  0  0  0  0  0  0  0  0  0  0
   37.1890   25.1500   41.8120 C   0  0  0  0  0  0  0  0  0  0  0  0
   37.1880   25.3580   40.4500 C   0  0  0  0  0  0  0  0  0  0  0  0
   36.5320   28.2450   42.7820 H   0  0  0  0  0  0  0  0  0  0  0  0
   36.9490   26.0600   43.7090 H   0  0  0  0  0  0  0  0  0  0  0  0
   37.3850   24.1380   42.1400 H   0  0  0  0  0  0  0  0  0  0  0  0
   36.2730   23.3030   39.6160 C   0  0  2  0  0  3  0  0  0  0  0  0
   37.4400   24.2560   39.4820 C   0  0  2  0  0  3  0  0  0  0  0  0
   38.6830   23.4640   39.7880 C   0  0  0  0  0  3  0  0  0  0  0  0
   39.1460   23.1740   38.8020 H   0  0  0  0  0  0  0  0  0  0  0  0
   38.3840   22.2610   40.4180 O   0  0  0  0  0  0  0  0  0  0  0  0
   37.7670   21.4020   39.5100 C   0  0  0  0  0  3  0  0  0  0  0  0
   38.4940   21.2270   38.6870 H   0  0  0  0  0  0  0  0  0  0  0  0
   36.5150   21.9960   38.8960 C   0  0  1  0  0  3  0  0  0  0  0  0
   35.0720   23.8200   39.1750 O   0  0  0  0  0  0  0  0  0  0  0  0
   34.5670   24.2770   39.8910 H   0  0  0  0  0  0  0  0  0  0  0  0
   35.4070   21.1860   39.1630 O   0  0  0  0  0  0  0  0  0  0  0  0
   34.6230   21.7300   39.4770 H   0  0  0  0  0  0  0  0  0  0  0  0
   36.9670   26.9530   37.3340 N   0  0  0  0  0  0  0  0  0  0  0  0
   36.9510   26.8070   38.4840 C   0  0  0  0  0  0  0  0  0  0  0  0
  1 25  1  0  0  0  0
  2  1  1  0  0  0  0
  3 17  1  0  0  0  0
  3  4  1  0  0  0  0
  4  8  1  0  0  0  0
  4  9  1  0  0  0  0
  5 10  1  6  0  0  0
  5  1  1  0  0  0  0
  5  4  1  0  0  0  0
  6  5  1  0  0  0  0
  7  6  1  0  0  0  0
  7  3  1  0  0  0  0
 11  6  1  0  0  0  0
 12  6  1  0  0  0  0
 13  7  1  0  0  0  0
 14  7  1  0  0  0  0
 15 21  1  0  0  0  0
 16 15  2  0  0  0  0
 17 18  2  0  0  0  0
 17 16  1  0  0  0  0
 18 19  1  0  0  0  0
 19 20  2  0  0  0  0
 20 15  1  0  0  0  0
 22 16  1  0  0  0  0
 23 19  1  0  0  0  0
 24 29  2  0  0  0  0
 24 25  1  0  0  0  0
 25 26  2  0  0  0  0
 26 27  1  0  0  0  0
 26 30  1  0  0  0  0
 27 31  1  0  0  0  0
 28 32  1  0  0  0  0
 28 27  2  0  0  0  0
 29 28  1  0  0  0  0
 33 41  1  6  0  0  0
 34 33  1  0  0  0  0
 34 35  1  0  0  0  0
 34 29  1  1  0  0  0
 35 37  1  0  0  0  0
 36 35  1  0  0  0  0
 38 37  1  0  0  0  0
 39 38  1  0  0  0  0
 40 43  1  1  0  0  0
 40 38  1  0  0  0  0
 40 33  1  0  0  0  0
 41 42  1  0  0  0  0
 43 44  1  0  0  0  0
 45 46  3  0  0  0  0
 46 24  1  0  0  0  0
M  END
>  <minimizedAffinity>
-5.83269215

$$$$

 OpenBabel03242519083D

 46 49  0  0  1  0  0  0  0  0999 V2000
   37.9640   31.5450   40.9280 N   0  0  0  0  0  0  0  0  0  0  0  0
   37.7430   31.6120   41.9490 H   0  0  0  0  0  0  0  0  0  0  0  0
   36.0110   29.9670   38.4040 N   0  0  0  0  0  0  0  0  0  0  0  0
   36.8590   31.0820   38.7920 C   0  0  0  0  0  0  0  0  0  0  0  0
   37.3660   30.5500   40.0970 C   0  0  2  0  0  0  0  0  0  0  0  0
   36.0790   30.0920   40.7640 C   0  0  0  0  0  0  0  0  0  0  0  0
   35.2710   29.5810   39.5990 C   0  0  0  0  0  0  0  0  0  0  0  0
   36.2700   31.9930   38.9840 H   0  0  0  0  0  0  0  0  0  0  0  0
   37.6880   31.2720   38.0880 H   0  0  0  0  0  0  0  0  0  0  0  0
   38.0640   29.6980   39.9660 H   0  0  0  0  0  0  0  0  0  0  0  0
   35.5870   30.9020   41.3300 H   0  0  0  0  0  0  0  0  0  0  0  0
   36.3250   29.2450   41.4590 H   0  0  0  0  0  0  0  0  0  0  0  0
   34.3080   30.1250   39.6050 H   0  0  0  0  0  0  0  0  0  0  0  0
   35.0880   28.5050   39.6670 H   0  0  0  0  0  0  0  0  0  0  0  0
   34.8260   27.7740   35.6420 C   0  0  0  0  0  0  0  0  0  0  0  0
   34.8900   28.3560   36.9040 C   0  0  0  0  0  0  0  0  0  0  0  0
   35.8570   29.3200   37.1730 C   0  0  0  0  0  0  0  0  0  0  0  0
   36.6950   29.6350   36.1500 N   0  0  0  0  0  0  0  0  0  0  0  0
   36.6420   29.0830   34.9300 C   0  0  0  0  0  0  0  0  0  0  0  0
   35.6930   28.1400   34.6780 N   0  0  0  0  0  0  0  0  0  0  0  0
   34.0570   27.0290   35.4810 H   0  0  0  0  0  0  0  0  0  0  0  0
   34.2220   28.1100   37.7350 H   0  0  0  0  0  0  0  0  0  0  0  0
   37.3400   29.3740   34.1500 H   0  0  0  0  0  0  0  0  0  0  0  0
   40.2650   32.4260   40.6680 C   0  0  0  0  0  0  0  0  0  0  0  0
   38.8840   32.5790   40.6710 C   0  0  0  0  0  0  0  0  0  0  0  0
   38.4820   33.8580   40.3960 C   0  0  0  0  0  0  0  0  0  0  0  0
   39.3040   34.9290   40.1330 C   0  0  0  0  0  0  0  0  0  0  0  0
   40.6660   34.7250   40.1420 C   0  0  0  0  0  0  0  0  0  0  0  0
   41.1390   33.4600   40.4110 C   0  0  0  0  0  0  0  0  0  0  0  0
   37.4250   34.0970   40.3720 H   0  0  0  0  0  0  0  0  0  0  0  0
   38.9330   35.9220   39.9210 H   0  0  0  0  0  0  0  0  0  0  0  0
   41.4130   35.4840   39.9510 H   0  0  0  0  0  0  0  0  0  0  0  0
   43.2640   34.3360   41.1010 C   0  0  2  0  0  3  0  0  0  0  0  0
   42.5950   33.1500   40.4400 C   0  0  2  0  0  3  0  0  0  0  0  0
   43.2050   33.0160   39.0710 C   0  0  0  0  0  3  0  0  0  0  0  0
   43.9870   32.2060   39.1310 H   0  0  0  0  0  0  0  0  0  0  0  0
   43.8970   34.1650   38.7020 O   0  0  0  0  0  0  0  0  0  0  0  0
   45.0540   34.2780   39.4720 C   0  0  0  0  0  3  0  0  0  0  0  0
   45.6720   33.3790   39.2590 H   0  0  0  0  0  0  0  0  0  0  0  0
   44.7690   34.2940   40.9610 C   0  0  1  0  0  3  0  0  0  0  0  0
   42.9610   34.4770   42.4400 O   0  0  0  0  0  0  0  0  0  0  0  0
   42.1700   35.0490   42.5930 H   0  0  0  0  0  0  0  0  0  0  0  0
   45.2520   35.4730   41.5380 O   0  0  0  0  0  0  0  0  0  0  0  0
   44.5710   35.8860   42.1500 H   0  0  0  0  0  0  0  0  0  0  0  0
   41.2240   30.0370   41.1670 N   0  0  0  0  0  0  0  0  0  0  0  0
   40.7940   31.0920   40.9510 C   0  0  0  0  0  0  0  0  0  0  0  0
  1  2  1  0  0  0  0
  3  4  1  0  0  0  0
  3  7  1  0  0  0  0
  4  8  1  0  0  0  0
  4  5  1  0  0  0  0
  5 10  1  6  0  0  0
  5  6  1  0  0  0  0
  5  1  1  0  0  0  0
  6 11  1  0  0  0  0
  6 12  1  0  0  0  0
  7 13  1  0  0  0  0
  7 14  1  0  0  0  0
  7  6  1  0  0  0  0
  9  4  1  0  0  0  0
 15 16  1  0  0  0  0
 16 17  2  0  0  0  0
 16 22  1  0  0  0  0
 17  3  1  0  0  0  0
 18 17  1  0  0  0  0
 19 18  2  0  0  0  0
 20 19  1  0  0  0  0
 20 15  2  0  0  0  0
 21 15  1  0  0  0  0
 23 19  1  0  0  0  0
 24 25  1  0  0  0  0
 24 46  1  0  0  0  0
 25  1  1  0  0  0  0
 26 25  2  0  0  0  0
 27 28  2  0  0  0  0
 27 26  1  0  0  0  0
 28 29  1  0  0  0  0
 29 24  2  0  0  0  0
 30 26  1  0  0  0  0
 31 27  1  0  0  0  0
 32 28  1  0  0  0  0
 33 41  1  1  0  0  0
 34 29  1  6  0  0  0
 34 33  1  0  0  0  0
 35 36  1  0  0  0  0
 35 34  1  0  0  0  0
 37 35  1  0  0  0  0
 37 38  1  0  0  0  0
 38 40  1  0  0  0  0
 39 38  1  0  0  0  0
 40 33  1  0  0  0  0
 40 43  1  6  0  0  0
 41 42  1  0  0  0  0
 43 44  1  0  0  0  0
 46 45  3  0  0  0  0
M  END
>  <minimizedAffinity>
-5.79280519

$$$$
