
 OpenBabel03242519053D

 46 49  0  0  1  0  0  0  0  0999 V2000
   48.9040   32.8950   40.1350 N   0  0  0  0  0  0  0  0  0  0  0  0
   49.9420   32.8400   40.2540 H   0  0  0  0  0  0  0  0  0  0  0  0
   47.3880   33.6070   43.2770 N   0  0  0  0  0  0  0  0  0  0  0  0
   48.0480   34.1090   42.0830 C   0  0  0  0  0  0  0  0  0  0  0  0
   48.0190   32.8610   41.2560 C   0  0  2  0  0  0  0  0  0  0  0  0
   48.5450   31.8270   42.2380 C   0  0  0  0  0  0  0  0  0  0  0  0
   47.9710   32.3000   43.5480 C   0  0  0  0  0  0  0  0  0  0  0  0
   49.0980   34.3780   42.2820 H   0  0  0  0  0  0  0  0  0  0  0  0
   47.5020   34.9310   41.5890 H   0  0  0  0  0  0  0  0  0  0  0  0
   46.9950   32.5980   40.9210 H   0  0  0  0  0  0  0  0  0  0  0  0
   49.6460   31.7600   42.2290 H   0  0  0  0  0  0  0  0  0  0  0  0
   48.1060   30.8290   41.9670 H   0  0  0  0  0  0  0  0  0  0  0  0
   48.8180   32.4330   44.2470 H   0  0  0  0  0  0  0  0  0  0  0  0
   47.2570   31.5840   43.9660 H   0  0  0  0  0  0  0  0  0  0  0  0
   44.6160   35.7270   44.5680 C   0  0  0  0  0  0  0  0  0  0  0  0
   45.5790   35.2380   43.6910 C   0  0  0  0  0  0  0  0  0  0  0  0
   46.3900   34.1750   44.0770 C   0  0  0  0  0  0  0  0  0  0  0  0
   46.1750   33.6750   45.3220 N   0  0  0  0  0  0  0  0  0  0  0  0
   45.2510   34.1360   46.1750 C   0  0  0  0  0  0  0  0  0  0  0  0
   44.4620   35.1770   45.7880 N   0  0  0  0  0  0  0  0  0  0  0  0
   44.0100   36.5550   44.2220 H   0  0  0  0  0  0  0  0  0  0  0  0
   45.7610   35.6330   42.6870 H   0  0  0  0  0  0  0  0  0  0  0  0
   45.1230   33.6960   47.1610 H   0  0  0  0  0  0  0  0  0  0  0  0
   48.7860   31.9440   37.8500 C   0  0  0  0  0  0  0  0  0  0  0  0
   48.6860   32.9990   38.7480 C   0  0  0  0  0  0  0  0  0  0  0  0
   48.3480   34.1840   38.1540 C   0  0  0  0  0  0  0  0  0  0  0  0
   48.1160   34.3830   36.8120 C   0  0  0  0  0  0  0  0  0  0  0  0
   48.2290   33.3040   35.9630 C   0  0  0  0  0  0  0  0  0  0  0  0
   48.5660   32.0800   36.4960 C   0  0  0  0  0  0  0  0  0  0  0  0
   48.2410   35.0780   38.7560 H   0  0  0  0  0  0  0  0  0  0  0  0
   47.8510   35.3440   36.3920 H   0  0  0  0  0  0  0  0  0  0  0  0
   48.0720   33.3320   34.8930 H   0  0  0  0  0  0  0  0  0  0  0  0
   49.8430   31.1470   34.6920 C   0  0  2  0  0  3  0  0  0  0  0  0
   48.7090   30.8620   35.6530 C   0  0  2  0  0  3  0  0  0  0  0  0
   47.4940   30.5700   34.8140 C   0  0  0  0  0  3  0  0  0  0  0  0
   47.3830   29.4490   34.7640 H   0  0  0  0  0  0  0  0  0  0  0  0
   47.6680   30.9770   33.4950 O   0  0  0  0  0  0  0  0  0  0  0  0
   48.5980   30.1470   32.8740 C   0  0  0  0  0  3  0  0  0  0  0  0
   48.1790   29.1180   32.8970 H   0  0  0  0  0  0  0  0  0  0  0  0
   49.9330   30.1130   33.5920 C   0  0  1  0  0  3  0  0  0  0  0  0
   51.0800   31.2390   35.2960 O   0  0  0  0  0  0  0  0  0  0  0  0
   51.3020   32.1620   35.5710 H   0  0  0  0  0  0  0  0  0  0  0  0
   50.9590   30.5340   32.7390 O   0  0  0  0  0  0  0  0  0  0  0  0
   51.5640   31.1950   33.1910 H   0  0  0  0  0  0  0  0  0  0  0  0
   49.4190   29.5970   38.8330 N   0  0  0  0  0  0  0  0  0  0  0  0
   49.1430   30.6330   38.3910 C   0  0  0  0  0  0  0  0  0  0  0  0
  1  2  1  0  0  0  0
  1  5  1  0  0  0  0
  3  7  1  0  0  0  0
  3 17  1  0  0  0  0
  4  8  1  0  0  0  0
  4  3  1  0  0  0  0
  5 10  1  6  0  0  0
  5  4  1  0  0  0  0
  5  6  1  0  0  0  0
  6  7  1  0  0  0  0
  7 14  1  0  0  0  0
  7 13  1  0  0  0  0
  9  4  1  0  0  0  0
 11  6  1  0  0  0  0
 12  6  1  0  0  0  0
 15 20  1  0  0  0  0
 16 17  1  0  0  0  0
 16 15  2  0  0  0  0
 17 18  2  0  0  0  0
 18 19  1  0  0  0  0
 19 23  1  0  0  0  0
 20 19  2  0  0  0  0
 21 15  1  0  0  0  0
 22 16  1  0  0  0  0
 24 46  1  0  0  0  0
 24 25  1  0  0  0  0
 25  1  1  0  0  0  0
 26 25  2  0  0  0  0
 26 30  1  0  0  0  0
 27 26  1  0  0  0  0
 28 29  1  0  0  0  0
 28 27  2  0  0  0  0
 29 24  2  0  0  0  0
 31 27  1  0  0  0  0
 32 28  1  0  0  0  0
 33 41  1  1  0  0  0
 33 34  1  0  0  0  0
 34 29  1  1  0  0  0
 35 34  1  0  0  0  0
 36 35  1  0  0  0  0
 37 35  1  0  0  0  0
 38 39  1  0  0  0  0
 38 37  1  0  0  0  0
 38 40  1  0  0  0  0
 40 43  1  6  0  0  0
 40 33  1  0  0  0  0
 41 42  1  0  0  0  0
 43 44  1  0  0  0  0
 46 45  3  0  0  0  0
M  END
>  <minimizedAffinity>
-5.10885429

>  <minimizedRMSD>
1.22387016

$$$$
