
 OpenBabel03252500253D

 40 42  0  0  1  0  0  0  0  0999 V2000
   47.0720   30.0970   48.0310 C   0  0  2  0  0  0  0  0  0  0  0  0
   45.6480   30.3880   48.3180 C   0  0  2  0  0  0  0  0  0  0  0  0
   44.9080   29.5150   47.3730 C   0  0  0  0  0  0  0  0  0  0  0  0
   45.6850   28.3920   47.1550 O   0  0  0  0  0  0  0  0  0  0  0  0
   46.9190   28.5960   47.6810 C   0  0  0  0  0  0  0  0  0  0  0  0
   47.6300   30.4560   47.2170 H   0  0  0  0  0  0  0  0  0  0  0  0
   45.4890   30.1010   49.3770 H   0  0  0  0  0  0  0  0  0  0  0  0
   44.4290   29.9620   46.5100 H   0  0  0  0  0  0  0  0  0  0  0  0
   44.0260   29.1050   47.9580 H   0  0  0  0  0  0  0  0  0  0  0  0
   47.0180   27.9840   48.5980 H   0  0  0  0  0  0  0  0  0  0  0  0
   47.6900   28.2410   46.9950 H   0  0  0  0  0  0  0  0  0  0  0  0
   45.3150   31.7190   48.1990 O   0  0  0  0  0  0  0  0  0  0  0  0
   47.4170   32.8670   47.2680 O   0  0  0  0  0  0  0  0  0  0  0  0
   46.0600   32.3670   46.8560 P   0  0  1  0  0  0  0  0  0  0  0  0
   46.2600   31.1600   45.6850 O   0  0  0  0  0  0  0  0  0  0  0  0
   46.8630   31.4730   44.9640 H   0  0  0  0  0  0  0  0  0  0  0  0
   45.2160   33.7110   46.2210 O   0  0  0  0  0  0  0  0  0  0  0  0
   45.2450   36.0460   43.5200 C   0  0  0  0  0  0  0  0  0  0  0  0
   46.0280   35.4090   42.5200 C   0  0  0  0  0  0  0  0  0  0  0  0
   46.5420   34.1410   42.8250 C   0  0  0  0  0  0  0  0  0  0  0  0
   46.2590   33.6150   44.0430 N   0  0  0  0  0  0  0  0  0  0  0  0
   45.5120   34.2500   44.9640 C   0  0  0  0  0  0  0  0  0  0  0  0
   45.0090   35.4630   44.6950 N   0  0  0  0  0  0  0  0  0  0  0  0
   46.2330   35.8620   41.5560 H   0  0  0  0  0  0  0  0  0  0  0  0
   47.1450   33.6040   42.1080 H   0  0  0  0  0  0  0  0  0  0  0  0
   44.7410   37.2930   43.2200 O   0  0  0  0  0  0  0  0  0  0  0  0
   44.4720   37.9680   43.9210 H   0  0  0  0  0  0  0  0  0  0  0  0
   47.9040   30.2870   49.1030 O   0  0  0  0  0  0  0  0  0  0  0  0
   49.9590   29.2560   49.7930 C   0  0  2  0  0  3  0  0  0  0  0  0
   49.2290   30.3590   48.9830 C   0  0  2  0  0  3  0  0  0  0  0  0
   49.7250   31.6440   49.6030 C   0  0  0  0  0  3  0  0  0  0  0  0
   49.4980   32.5530   49.0610 H   0  0  0  0  0  0  0  0  0  0  0  0
   51.0850   31.5790   49.8990 O   0  0  0  0  0  0  0  0  0  0  0  0
   51.3050   30.8560   51.0680 C   0  0  0  0  0  3  0  0  0  0  0  0
   52.2920   30.3680   50.9360 H   0  0  0  0  0  0  0  0  0  0  0  0
   50.2690   29.7740   51.2030 C   0  0  2  0  0  3  0  0  0  0  0  0
   51.2140   29.0090   49.2380 O   0  0  0  0  0  0  0  0  0  0  0  0
   51.5540   28.2050   49.6800 H   0  0  0  0  0  0  0  0  0  0  0  0
   50.8920   28.6920   51.8410 O   0  0  0  0  0  0  0  0  0  0  0  0
   50.5270   28.4780   52.7200 H   0  0  0  0  0  0  0  0  0  0  0  0
  1  6  1  6  0  0  0
  1  2  1  0  0  0  0
  1 28  1  0  0  0  0
  2  7  1  1  0  0  0
  3  9  1  0  0  0  0
  3  2  1  0  0  0  0
  4  3  1  0  0  0  0
  4  5  1  0  0  0  0
  5  1  1  0  0  0  0
  5 10  1  0  0  0  0
  8  3  1  0  0  0  0
 11  5  1  0  0  0  0
 12  2  1  0  0  0  0
 14 13  2  1  0  0  0
 14 12  1  0  0  0  0
 15 14  1  0  0  0  0
 16 15  1  0  0  0  0
 17 14  1  0  0  0  0
 18 23  1  0  0  0  0
 19 20  1  0  0  0  0
 19 18  2  0  0  0  0
 20 21  2  0  0  0  0
 21 22  1  0  0  0  0
 22 17  1  0  0  0  0
 23 22  2  0  0  0  0
 24 19  1  0  0  0  0
 25 20  1  0  0  0  0
 26 18  1  0  0  0  0
 26 27  1  0  0  0  0
 29 37  1  6  0  0  0
 29 36  1  0  0  0  0
 30 28  1  1  0  0  0
 30 31  1  0  0  0  0
 30 29  1  0  0  0  0
 31 33  1  0  0  0  0
 32 31  1  0  0  0  0
 33 34  1  0  0  0  0
 34 36  1  0  0  0  0
 35 34  1  0  0  0  0
 36 39  1  1  0  0  0
 37 38  1  0  0  0  0
 39 40  1  0  0  0  0
M  END
>  <minimizedAffinity>
-5.45966816

>  <minimizedRMSD>
1.98788428

$$$$
