
 OpenBabel03252507383D

 41 45  0  0  1  0  0  0  0  0999 V2000
   45.6840   34.7820   43.5160 C   0  0  0  0  0  0  0  0  0  0  0  0
   46.3880   33.7130   44.1270 C   0  0  0  0  0  0  0  0  0  0  0  0
   46.1310   33.4800   45.4760 C   0  0  0  0  0  0  0  0  0  0  0  0
   45.2580   34.2510   46.1210 N   0  0  0  0  0  0  0  0  0  0  0  0
   44.5970   35.2680   45.5170 C   0  0  0  0  0  0  0  0  0  0  0  0
   44.8120   35.5240   44.2320 N   0  0  0  0  0  0  0  0  0  0  0  0
   47.0850   33.0930   43.6260 H   0  0  0  0  0  0  0  0  0  0  0  0
   43.9080   35.8350   46.1300 H   0  0  0  0  0  0  0  0  0  0  0  0
   47.0290   32.6550   47.5810 C   0  0  0  0  0  0  0  0  0  0  0  0
   46.7920   32.4040   46.2280 C   0  0  0  0  0  0  0  0  0  0  0  0
   47.1810   31.2130   45.7100 C   0  0  0  0  0  0  0  0  0  0  0  0
   47.8010   30.2330   46.4590 C   0  0  0  0  0  0  0  0  0  0  0  0
   48.2610   29.0010   46.1500 N   0  0  0  0  0  0  0  0  0  0  0  0
   48.7930   28.4660   47.3150 C   0  0  0  0  0  0  0  0  0  0  0  0
   48.6430   29.3860   48.3010 N   0  0  0  0  0  0  0  0  0  0  0  0
   48.0430   30.4580   47.7860 C   0  0  0  0  0  0  0  0  0  0  0  0
   47.6590   31.6600   48.3430 C   0  0  0  0  0  0  0  0  0  0  0  0
   46.7700   33.5660   48.1240 H   0  0  0  0  0  0  0  0  0  0  0  0
   46.9820   31.0560   44.6610 H   0  0  0  0  0  0  0  0  0  0  0  0
   48.2360   28.5140   45.2210 H   0  0  0  0  0  0  0  0  0  0  0  0
   49.2400   27.4830   47.3830 H   0  0  0  0  0  0  0  0  0  0  0  0
   47.8680   31.8000   49.3960 H   0  0  0  0  0  0  0  0  0  0  0  0
   45.9340   35.0250   42.1640 O   0  0  0  0  0  0  0  0  0  0  0  0
   44.9710   34.7020   41.2150 C   0  0  0  0  0  0  0  0  0  0  0  0
   45.5970   33.7270   40.5310 C   0  0  0  0  0  0  0  0  0  0  0  0
   44.2910   33.2680   39.2240 S   0  0  0  0  0  0  0  0  0  0  0  0
   43.1360   34.5790   39.9510 C   0  0  0  0  0  0  0  0  0  0  0  0
   43.7640   34.9720   40.7670 N   0  0  0  0  0  0  0  0  0  0  0  0
   46.4940   33.0180   40.3040 H   0  0  0  0  0  0  0  0  0  0  0  0
   41.0940   33.5180   39.2930 C   0  0  1  0  0  3  0  0  0  0  0  0
   41.7860   34.8320   39.3970 C   0  0  1  0  0  3  0  0  0  0  0  0
   41.0510   35.7280   40.3720 C   0  0  0  0  0  3  0  0  0  0  0  0
   40.9130   36.7540   39.9770 H   0  0  0  0  0  0  0  0  0  0  0  0
   39.7960   35.1980   40.7030 O   0  0  0  0  0  0  0  0  0  0  0  0
   39.9630   34.0180   41.4260 C   0  0  0  0  0  3  0  0  0  0  0  0
   38.9280   33.6570   41.6320 H   0  0  0  0  0  0  0  0  0  0  0  0
   40.6980   32.9860   40.6280 C   0  0  1  0  0  3  0  0  0  0  0  0
   39.9750   33.6230   38.4400 O   0  0  0  0  0  0  0  0  0  0  0  0
   39.7210   32.7260   38.0940 H   0  0  0  0  0  0  0  0  0  0  0  0
   39.9020   31.8540   40.4040 O   0  0  0  0  0  0  0  0  0  0  0  0
   38.9490   32.1480   40.5100 H   0  0  0  0  0  0  0  0  0  0  0  0
  1  2  2  0  0  0  0
  1  6  1  0  0  0  0
  2  3  1  0  0  0  0
  3  4  2  0  0  0  0
  3 10  1  0  0  0  0
  5  4  1  0  0  0  0
  5  8  1  0  0  0  0
  6  5  2  0  0  0  0
  7  2  1  0  0  0  0
  9 18  1  0  0  0  0
  9 17  1  0  0  0  0
 10  9  2  0  0  0  0
 11 10  1  0  0  0  0
 11 12  2  0  0  0  0
 12 16  1  0  0  0  0
 13 12  1  0  0  0  0
 13 14  1  0  0  0  0
 14 21  1  0  0  0  0
 14 15  2  0  0  0  0
 16 15  1  0  0  0  0
 16 17  2  0  0  0  0
 17 22  1  0  0  0  0
 19 11  1  0  0  0  0
 20 13  1  0  0  0  0
 23  1  1  0  0  0  0
 24 23  1  0  0  0  0
 25 24  2  0  0  0  0
 26 27  1  0  0  0  0
 26 25  1  0  0  0  0
 27 28  2  0  0  0  0
 28 24  1  0  0  0  0
 29 25  1  0  0  0  0
 30 38  1  6  0  0  0
 30 31  1  0  0  0  0
 30 37  1  0  0  0  0
 31 27  1  1  0  0  0
 31 32  1  0  0  0  0
 32 34  1  0  0  0  0
 33 32  1  0  0  0  0
 34 35  1  0  0  0  0
 35 36  1  0  0  0  0
 37 40  1  6  0  0  0
 37 35  1  0  0  0  0
 39 38  1  0  0  0  0
 40 41  1  0  0  0  0
M  END
>  <minimizedAffinity>
-6.79118013

>  <minimizedRMSD>
0.696076453

$$$$
