
 OpenBabel03252507383D

 41 45  0  0  1  0  0  0  0  0999 V2000
   45.6310   34.8020   43.4930 C   0  0  0  0  0  0  0  0  0  0  0  0
   46.3270   33.7270   44.1030 C   0  0  0  0  0  0  0  0  0  0  0  0
   46.0800   33.5060   45.4570 C   0  0  0  0  0  0  0  0  0  0  0  0
   45.2240   34.2910   46.1050 N   0  0  0  0  0  0  0  0  0  0  0  0
   44.5700   35.3130   45.5020 C   0  0  0  0  0  0  0  0  0  0  0  0
   44.7750   35.5590   44.2130 N   0  0  0  0  0  0  0  0  0  0  0  0
   47.0100   33.0950   43.5990 H   0  0  0  0  0  0  0  0  0  0  0  0
   43.8940   35.8930   46.1180 H   0  0  0  0  0  0  0  0  0  0  0  0
   47.0120   32.6920   47.5510 C   0  0  0  0  0  0  0  0  0  0  0  0
   46.7360   32.4260   46.2090 C   0  0  0  0  0  0  0  0  0  0  0  0
   47.0830   31.2180   45.7000 C   0  0  0  0  0  0  0  0  0  0  0  0
   47.6990   30.2350   46.4480 C   0  0  0  0  0  0  0  0  0  0  0  0
   48.1220   28.9880   46.1480 N   0  0  0  0  0  0  0  0  0  0  0  0
   48.6710   28.4590   47.3070 C   0  0  0  0  0  0  0  0  0  0  0  0
   48.5680   29.3970   48.2810 N   0  0  0  0  0  0  0  0  0  0  0  0
   47.9800   30.4750   47.7640 C   0  0  0  0  0  0  0  0  0  0  0  0
   47.6390   31.6940   48.3120 C   0  0  0  0  0  0  0  0  0  0  0  0
   46.7880   33.6170   48.0850 H   0  0  0  0  0  0  0  0  0  0  0  0
   46.8530   31.0500   44.6590 H   0  0  0  0  0  0  0  0  0  0  0  0
   48.0620   28.4880   45.2270 H   0  0  0  0  0  0  0  0  0  0  0  0
   49.0970   27.4670   47.3790 H   0  0  0  0  0  0  0  0  0  0  0  0
   47.8770   31.8440   49.3580 H   0  0  0  0  0  0  0  0  0  0  0  0
   45.8700   35.0330   42.1370 O   0  0  0  0  0  0  0  0  0  0  0  0
   44.8730   34.7700   41.2050 C   0  0  0  0  0  0  0  0  0  0  0  0
   45.4330   33.7720   40.4990 C   0  0  0  0  0  0  0  0  0  0  0  0
   44.0790   33.3940   39.2150 S   0  0  0  0  0  0  0  0  0  0  0  0
   43.0080   34.7550   39.9780 C   0  0  0  0  0  0  0  0  0  0  0  0
   43.6720   35.1060   40.7850 N   0  0  0  0  0  0  0  0  0  0  0  0
   46.2870   33.0200   40.2470 H   0  0  0  0  0  0  0  0  0  0  0  0
   40.9830   33.7980   39.1350 C   0  0  1  0  0  3  0  0  0  0  0  0
   41.6620   35.0830   39.4550 C   0  0  1  0  0  3  0  0  0  0  0  0
   40.9090   35.8090   40.5500 C   0  0  0  0  0  3  0  0  0  0  0  0
   40.7670   36.8830   40.3210 H   0  0  0  0  0  0  0  0  0  0  0  0
   39.6550   35.2250   40.7770 O   0  0  0  0  0  0  0  0  0  0  0  0
   39.8240   33.9450   41.3070 C   0  0  0  0  0  3  0  0  0  0  0  0
   38.7900   33.5500   41.4390 H   0  0  0  0  0  0  0  0  0  0  0  0
   40.5760   33.0580   40.3650 C   0  0  1  0  0  3  0  0  0  0  0  0
   39.8730   34.0280   38.2960 O   0  0  0  0  0  0  0  0  0  0  0  0
   39.6300   33.1970   37.8090 H   0  0  0  0  0  0  0  0  0  0  0  0
   39.7930   31.9710   39.9540 O   0  0  0  0  0  0  0  0  0  0  0  0
   38.8360   32.2370   40.0930 H   0  0  0  0  0  0  0  0  0  0  0  0
  1  2  2  0  0  0  0
  1  6  1  0  0  0  0
  2  3  1  0  0  0  0
  3  4  2  0  0  0  0
  3 10  1  0  0  0  0
  5  4  1  0  0  0  0
  5  8  1  0  0  0  0
  6  5  2  0  0  0  0
  7  2  1  0  0  0  0
  9 18  1  0  0  0  0
  9 17  1  0  0  0  0
 10  9  2  0  0  0  0
 11 10  1  0  0  0  0
 11 12  2  0  0  0  0
 12 16  1  0  0  0  0
 13 12  1  0  0  0  0
 13 14  1  0  0  0  0
 14 21  1  0  0  0  0
 14 15  2  0  0  0  0
 16 15  1  0  0  0  0
 16 17  2  0  0  0  0
 17 22  1  0  0  0  0
 19 11  1  0  0  0  0
 20 13  1  0  0  0  0
 23  1  1  0  0  0  0
 24 23  1  0  0  0  0
 25 24  2  0  0  0  0
 26 27  1  0  0  0  0
 26 25  1  0  0  0  0
 27 28  2  0  0  0  0
 28 24  1  0  0  0  0
 29 25  1  0  0  0  0
 30 38  1  6  0  0  0
 30 31  1  0  0  0  0
 30 37  1  0  0  0  0
 31 27  1  1  0  0  0
 31 32  1  0  0  0  0
 32 34  1  0  0  0  0
 33 32  1  0  0  0  0
 34 35  1  0  0  0  0
 35 36  1  0  0  0  0
 37 40  1  6  0  0  0
 37 35  1  0  0  0  0
 39 38  1  0  0  0  0
 40 41  1  0  0  0  0
M  END
>  <minimizedAffinity>
-6.8156867

>  <minimizedRMSD>
0.627471745

$$$$
