
 OpenBabel03242523463D

 22 23  0  0  1  0  0  0  0  0999 V2000
   46.7760   32.1230   41.8120 C   0  0  1  0  0  3  0  0  0  0  0  0
   47.4340   33.4170   42.1730 C   0  0  2  0  0  3  0  0  0  0  0  0
   48.7230   33.2380   42.9540 C   0  0  0  0  0  3  0  0  0  0  0  0
   49.4140   34.0380   42.6150 H   0  0  0  0  0  0  0  0  0  0  0  0
   49.3580   32.0400   42.6810 O   0  0  0  0  0  0  0  0  0  0  0  0
   48.6140   30.9310   43.0660 C   0  0  0  0  0  3  0  0  0  0  0  0
   48.9770   30.0680   42.4630 H   0  0  0  0  0  0  0  0  0  0  0  0
   47.1440   31.0780   42.8370 C   0  0  2  0  0  3  0  0  0  0  0  0
   45.1990   36.1150   43.5620 C   0  0  0  0  0  0  0  0  0  0  0  0
   46.0650   35.4510   42.6780 C   0  0  0  0  0  0  0  0  0  0  0  0
   46.5180   34.1660   43.0660 C   0  0  0  0  0  0  0  0  0  0  0  0
   46.0980   33.6560   44.2480 N   0  0  0  0  0  0  0  0  0  0  0  0
   45.2660   34.3320   45.0610 C   0  0  0  0  0  0  0  0  0  0  0  0
   44.8180   35.5490   44.7270 N   0  0  0  0  0  0  0  0  0  0  0  0
   46.3840   35.8830   41.7400 H   0  0  0  0  0  0  0  0  0  0  0  0
   44.9080   33.9540   46.0190 H   0  0  0  0  0  0  0  0  0  0  0  0
   44.7590   37.3570   43.1920 O   0  0  0  0  0  0  0  0  0  0  0  0
   45.3840   38.1440   43.3130 H   0  0  0  0  0  0  0  0  0  0  0  0
   45.3770   32.2950   41.9070 O   0  0  0  0  0  0  0  0  0  0  0  0
   44.8650   31.6150   41.4430 H   0  0  0  0  0  0  0  0  0  0  0  0
   46.6160   29.8620   42.4040 O   0  0  0  0  0  0  0  0  0  0  0  0
   45.6810   29.8840   42.1520 H   0  0  0  0  0  0  0  0  0  0  0  0
  1 19  1  1  0  0  0
  1  2  1  0  0  0  0
  1  8  1  0  0  0  0
  2  3  1  0  0  0  0
  2 11  1  1  0  0  0
  4  3  1  0  0  0  0
  5  3  1  0  0  0  0
  5  6  1  0  0  0  0
  7  6  1  0  0  0  0
  8 21  1  6  0  0  0
  8  6  1  0  0  0  0
  9 14  1  0  0  0  0
 10 11  1  0  0  0  0
 10  9  2  0  0  0  0
 11 12  2  0  0  0  0
 12 13  1  0  0  0  0
 13 16  1  0  0  0  0
 14 13  2  0  0  0  0
 15 10  1  0  0  0  0
 17 18  1  0  0  0  0
 17  9  1  0  0  0  0
 20 19  1  0  0  0  0
 22 21  1  0  0  0  0
M  END
>  <minimizedAffinity>
-3.76590157

>  <minimizedRMSD>
1.12990844

$$$$
