
 OpenBabel03252506183D

 26 27  0  0  1  0  0  0  0  0999 V2000
   44.9680   35.6090   43.8600 C   0  0  0  0  0  0  0  0  0  0  0  0
   44.1910   35.0900   42.7930 C   0  0  0  0  0  0  0  0  0  0  0  0
   44.3560   33.7490   42.4720 C   0  0  0  0  0  0  0  0  0  0  0  0
   45.2450   33.0010   43.1860 N   0  0  0  0  0  0  0  0  0  0  0  0
   45.9730   33.5300   44.2020 C   0  0  0  0  0  0  0  0  0  0  0  0
   45.8160   34.8300   44.5180 N   0  0  0  0  0  0  0  0  0  0  0  0
   43.4940   35.6950   42.2420 H   0  0  0  0  0  0  0  0  0  0  0  0
   43.7950   33.2800   41.6660 H   0  0  0  0  0  0  0  0  0  0  0  0
   46.6330   32.5020   46.3760 C   0  0  2  0  0  3  0  0  0  0  0  0
   46.9020   32.6350   44.9040 C   0  0  1  0  0  3  0  0  0  0  0  0
   46.8020   31.2350   44.2810 C   0  0  0  0  0  3  0  0  0  0  0  0
   45.9130   30.7350   44.7660 H   0  0  0  0  0  0  0  0  0  0  0  0
   47.9300   30.5840   44.7860 O   0  0  0  0  0  0  0  0  0  0  0  0
   47.6680   30.2030   46.0730 C   0  0  0  0  0  3  0  0  0  0  0  0
   48.6550   29.8480   46.4940 H   0  0  0  0  0  0  0  0  0  0  0  0
   47.0260   31.1910   46.9610 C   0  0  2  0  0  3  0  0  0  0  0  0
   45.2680   32.8000   46.5490 O   0  0  0  0  0  0  0  0  0  0  0  0
   44.7840   31.9820   46.2470 H   0  0  0  0  0  0  0  0  0  0  0  0
   45.8430   30.6120   47.4750 O   0  0  0  0  0  0  0  0  0  0  0  0
   45.7350   30.7490   48.4310 H   0  0  0  0  0  0  0  0  0  0  0  0
   44.8000   37.0260   44.2080 C   0  0  0  0  0  3  0  0  0  0  0  0
   45.4940   37.9230   43.5200 C   0  0  0  0  0  3  0  0  0  0  0  0
   45.3620   39.3750   43.8320 C   0  0  0  0  0  0  0  0  0  0  0  0
   44.4280   39.7660   43.3830 H   0  0  0  0  0  0  0  0  0  0  0  0
   45.2690   39.5550   44.9370 H   0  0  0  0  0  0  0  0  0  0  0  0
   46.1980   39.9540   43.4230 H   0  0  0  0  0  0  0  0  0  0  0  0
  1 21  1  0  0  0  0
  1  6  1  0  0  0  0
  2  1  2  0  0  0  0
  3  2  1  0  0  0  0
  3  4  2  0  0  0  0
  4  5  1  0  0  0  0
  5  6  2  0  0  0  0
  7  2  1  0  0  0  0
  8  3  1  0  0  0  0
  9 17  1  6  0  0  0
  9 16  1  0  0  0  0
 10  5  1  6  0  0  0
 10  9  1  0  0  0  0
 11 12  1  0  0  0  0
 11 13  1  0  0  0  0
 11 10  1  0  0  0  0
 13 14  1  0  0  0  0
 14 15  1  0  0  0  0
 14 16  1  0  0  0  0
 16 19  1  6  0  0  0
 18 17  1  0  0  0  0
 19 20  1  0  0  0  0
 22 23  1  0  0  0  0
 22 21  2  0  0  0  0
 23 25  1  0  0  0  0
 24 23  1  0  0  0  0
 26 23  1  0  0  0  0
M  END
>  <minimizedAffinity>
-3.76466894

>  <minimizedRMSD>
2.22271848

$$$$
