
 OpenBabel03252504323D

 43 45  0  0  1  0  0  0  0  0999 V2000
   41.5600   35.5530   41.3360 C   0  0  0  0  0  0  0  0  0  0  0  0
   41.5320   35.5890   42.4560 H   0  0  0  0  0  0  0  0  0  0  0  0
   41.0420   36.4690   40.9870 H   0  0  0  0  0  0  0  0  0  0  0  0
   41.2440   33.1340   41.1470 C   0  0  0  0  0  0  0  0  0  0  0  0
   40.6490   34.4080   41.0030 C   0  0  0  0  0  0  0  0  0  0  0  0
   39.3560   34.4470   40.5900 C   0  0  0  0  0  0  0  0  0  0  0  0
   38.7540   33.2920   40.3560 N   0  0  0  0  0  0  0  0  0  0  0  0
   39.3060   32.1010   40.4890 C   0  0  0  0  0  0  0  0  0  0  0  0
   40.6270   31.9760   40.9070 N   0  0  0  0  0  0  0  0  0  0  0  0
   42.2710   33.0210   41.4720 H   0  0  0  0  0  0  0  0  0  0  0  0
   38.9550   35.4480   40.4970 H   0  0  0  0  0  0  0  0  0  0  0  0
   39.4700   29.6510   40.3170 C   0  0  1  0  0  3  0  0  0  0  0  0
   38.5600   30.8420   40.2050 C   0  0  1  0  0  3  0  0  0  0  0  0
   37.3790   30.6840   41.1490 C   0  0  0  0  0  3  0  0  0  0  0  0
   36.5740   31.4240   40.8850 H   0  0  0  0  0  0  0  0  0  0  0  0
   36.8840   29.3970   41.1390 O   0  0  0  0  0  0  0  0  0  0  0  0
   37.7690   28.5940   41.8250 C   0  0  0  0  0  3  0  0  0  0  0  0
   37.5120   28.6650   42.9090 H   0  0  0  0  0  0  0  0  0  0  0  0
   39.2100   28.9080   41.5960 C   0  0  2  0  0  3  0  0  0  0  0  0
   39.3840   28.8110   39.2050 O   0  0  0  0  0  0  0  0  0  0  0  0
   38.4790   28.6890   38.8690 H   0  0  0  0  0  0  0  0  0  0  0  0
   39.6880   29.7130   42.6550 O   0  0  0  0  0  0  0  0  0  0  0  0
   40.6840   29.6630   42.6510 H   0  0  0  0  0  0  0  0  0  0  0  0
   42.7840   35.4350   40.7470 O   0  0  0  0  0  0  0  0  0  0  0  0
   44.0270   35.3740   41.3560 C   0  0  0  0  0  3  0  0  0  0  0  0
   44.0370   35.5410   42.6740 C   0  0  0  0  0  3  0  0  0  0  0  0
   45.2670   35.5140   43.5630 C   0  0  0  0  0  0  0  0  0  0  0  0
   45.4910   36.5300   43.9340 H   0  0  0  0  0  0  0  0  0  0  0  0
   46.0850   35.1540   42.9000 H   0  0  0  0  0  0  0  0  0  0  0  0
   45.0290   34.5920   44.5640 O   0  0  0  0  0  0  0  0  0  0  0  0
   45.6260   32.4300   43.1280 O   0  0  0  0  0  0  0  0  0  0  0  0
   45.9950   33.2260   44.3580 P   0  0  1  0  0  0  0  0  0  0  0  0
   47.6280   33.6860   44.1750 O   0  0  0  0  0  0  0  0  0  0  0  0
   47.8740   34.1130   45.0340 H   0  0  0  0  0  0  0  0  0  0  0  0
   45.9130   32.2430   45.7280 O   0  0  0  0  0  0  0  0  0  0  0  0
   46.2220   32.9270   46.8830 C   0  0  0  0  0  0  0  0  0  0  0  0
   47.1330   32.2940   47.8880 C   0  0  0  0  0  0  0  0  0  0  0  0
   45.6470   32.3580   48.1560 C   0  0  0  0  0  0  0  0  0  0  0  0
   46.2430   34.0240   46.7840 H   0  0  0  0  0  0  0  0  0  0  0  0
   47.6050   31.3310   47.6360 H   0  0  0  0  0  0  0  0  0  0  0  0
   47.7240   33.0010   48.5000 H   0  0  0  0  0  0  0  0  0  0  0  0
   45.2690   33.0480   48.9500 H   0  0  0  0  0  0  0  0  0  0  0  0
   45.1560   31.3590   48.1200 H   0  0  0  0  0  0  0  0  0  0  0  0
  1  2  1  0  0  0  0
  3  1  1  0  0  0  0
  4 10  1  0  0  0  0
  5  4  1  0  0  0  0
  5  1  1  0  0  0  0
  6  5  2  0  0  0  0
  7  8  2  0  0  0  0
  7  6  1  0  0  0  0
  8  9  1  0  0  0  0
  9  4  2  0  0  0  0
 11  6  1  0  0  0  0
 12 20  1  6  0  0  0
 12 19  1  0  0  0  0
 13 12  1  0  0  0  0
 13  8  1  1  0  0  0
 13 14  1  0  0  0  0
 15 14  1  0  0  0  0
 16 14  1  0  0  0  0
 16 17  1  0  0  0  0
 17 18  1  0  0  0  0
 19 17  1  0  0  0  0
 19 22  1  1  0  0  0
 21 20  1  0  0  0  0
 23 22  1  0  0  0  0
 24  1  1  0  0  0  0
 24 25  1  0  0  0  0
 25 26  2  0  0  0  0
 26 27  1  0  0  0  0
 27 28  1  0  0  0  0
 27 30  1  0  0  0  0
 29 27  1  0  0  0  0
 32 31  2  6  0  0  0
 32 30  1  0  0  0  0
 32 35  1  0  0  0  0
 33 32  1  0  0  0  0
 33 34  1  0  0  0  0
 35 36  1  0  0  0  0
 36 37  1  0  0  0  0
 36 38  1  0  0  0  0
 37 38  1  0  0  0  0
 37 41  1  0  0  0  0
 38 42  1  0  0  0  0
 39 36  1  0  0  0  0
 40 37  1  0  0  0  0
 43 38  1  0  0  0  0
M  END
>  <minimizedAffinity>
-5.16763258

>  <minimizedRMSD>
1.39968812

$$$$
