
 OpenBabel03252500253D

 40 42  0  0  1  0  0  0  0  0999 V2000
   47.1470   30.0240   47.9890 C   0  0  2  0  0  0  0  0  0  0  0  0
   45.7100   30.2760   48.2470 C   0  0  2  0  0  0  0  0  0  0  0  0
   45.0140   29.4140   47.2600 C   0  0  0  0  0  0  0  0  0  0  0  0
   45.8200   28.3140   47.0310 O   0  0  0  0  0  0  0  0  0  0  0  0
   47.0360   28.5310   47.5950 C   0  0  0  0  0  0  0  0  0  0  0  0
   47.7170   30.4180   47.2010 H   0  0  0  0  0  0  0  0  0  0  0  0
   45.5300   29.9570   49.2930 H   0  0  0  0  0  0  0  0  0  0  0  0
   44.5470   29.8740   46.3970 H   0  0  0  0  0  0  0  0  0  0  0  0
   44.1270   28.9680   47.8100 H   0  0  0  0  0  0  0  0  0  0  0  0
   47.1250   27.8950   48.4970 H   0  0  0  0  0  0  0  0  0  0  0  0
   47.8320   28.2110   46.9190 H   0  0  0  0  0  0  0  0  0  0  0  0
   45.3510   31.6030   48.1560 O   0  0  0  0  0  0  0  0  0  0  0  0
   47.4560   32.9040   47.4680 O   0  0  0  0  0  0  0  0  0  0  0  0
   46.1860   32.3260   46.9090 P   0  0  1  0  0  0  0  0  0  0  0  0
   46.5860   31.1610   45.7460 O   0  0  0  0  0  0  0  0  0  0  0  0
   47.2380   31.5290   45.0970 H   0  0  0  0  0  0  0  0  0  0  0  0
   45.3240   33.6270   46.2090 O   0  0  0  0  0  0  0  0  0  0  0  0
   45.2000   35.7680   43.3540 C   0  0  0  0  0  0  0  0  0  0  0  0
   46.2740   35.3210   42.5400 C   0  0  0  0  0  0  0  0  0  0  0  0
   47.0390   34.2510   43.0240 C   0  0  0  0  0  0  0  0  0  0  0  0
   46.7030   33.7210   44.2270 N   0  0  0  0  0  0  0  0  0  0  0  0
   45.6760   34.1720   44.9690 C   0  0  0  0  0  0  0  0  0  0  0  0
   44.9300   35.1940   44.5270 N   0  0  0  0  0  0  0  0  0  0  0  0
   46.5120   35.7720   41.5820 H   0  0  0  0  0  0  0  0  0  0  0  0
   47.8710   33.8650   42.4530 H   0  0  0  0  0  0  0  0  0  0  0  0
   44.4490   36.8210   42.8780 O   0  0  0  0  0  0  0  0  0  0  0  0
   43.9030   37.4280   43.4720 H   0  0  0  0  0  0  0  0  0  0  0  0
   47.9460   30.2020   49.0870 O   0  0  0  0  0  0  0  0  0  0  0  0
   50.0050   29.1920   49.7980 C   0  0  2  0  0  3  0  0  0  0  0  0
   49.2720   30.3040   49.0050 C   0  0  2  0  0  3  0  0  0  0  0  0
   49.7250   31.5780   49.6790 C   0  0  0  0  0  3  0  0  0  0  0  0
   49.4920   32.5000   49.1600 H   0  0  0  0  0  0  0  0  0  0  0  0
   51.0790   31.5330   50.0070 O   0  0  0  0  0  0  0  0  0  0  0  0
   51.2850   30.7760   51.1570 C   0  0  0  0  0  3  0  0  0  0  0  0
   52.2850   30.3120   51.0360 H   0  0  0  0  0  0  0  0  0  0  0  0
   50.2700   29.6680   51.2310 C   0  0  2  0  0  3  0  0  0  0  0  0
   51.2790   28.9890   49.2680 O   0  0  0  0  0  0  0  0  0  0  0  0
   51.6250   28.1770   49.6920 H   0  0  0  0  0  0  0  0  0  0  0  0
   50.8990   28.5780   51.8500 O   0  0  0  0  0  0  0  0  0  0  0  0
   50.5160   28.3300   52.7110 H   0  0  0  0  0  0  0  0  0  0  0  0
  1  6  1  6  0  0  0
  1  2  1  0  0  0  0
  1 28  1  0  0  0  0
  2  7  1  1  0  0  0
  3  9  1  0  0  0  0
  3  2  1  0  0  0  0
  4  3  1  0  0  0  0
  4  5  1  0  0  0  0
  5  1  1  0  0  0  0
  5 10  1  0  0  0  0
  8  3  1  0  0  0  0
 11  5  1  0  0  0  0
 12  2  1  0  0  0  0
 14 13  2  1  0  0  0
 14 12  1  0  0  0  0
 15 14  1  0  0  0  0
 16 15  1  0  0  0  0
 17 14  1  0  0  0  0
 18 23  1  0  0  0  0
 19 20  1  0  0  0  0
 19 18  2  0  0  0  0
 20 21  2  0  0  0  0
 21 22  1  0  0  0  0
 22 17  1  0  0  0  0
 23 22  2  0  0  0  0
 24 19  1  0  0  0  0
 25 20  1  0  0  0  0
 26 18  1  0  0  0  0
 26 27  1  0  0  0  0
 29 37  1  6  0  0  0
 29 36  1  0  0  0  0
 30 28  1  1  0  0  0
 30 31  1  0  0  0  0
 30 29  1  0  0  0  0
 31 33  1  0  0  0  0
 32 31  1  0  0  0  0
 33 34  1  0  0  0  0
 34 36  1  0  0  0  0
 35 34  1  0  0  0  0
 36 39  1  1  0  0  0
 37 38  1  0  0  0  0
 39 40  1  0  0  0  0
M  END
>  <minimizedAffinity>
-5.53652811

>  <minimizedRMSD>
0.878756344

$$$$
