
 OpenBabel03242513073D

 44 48  0  0  1  0  0  0  0  0999 V2000
   45.9420   33.2180   41.6180 C   0  0  0  0  0  0  0  0  0  0  0  0
   47.1250   33.9040   41.3170 C   0  0  0  0  0  0  0  0  0  0  0  0
   48.0960   33.9530   42.3020 C   0  0  0  0  0  0  0  0  0  0  0  0
   47.8260   33.3300   43.4900 N   0  0  0  0  0  0  0  0  0  0  0  0
   46.7000   32.6830   43.7650 C   0  0  0  0  0  0  0  0  0  0  0  0
   45.7390   32.6200   42.8220 N   0  0  0  0  0  0  0  0  0  0  0  0
   45.1710   33.1660   40.8680 H   0  0  0  0  0  0  0  0  0  0  0  0
   46.7300   30.7240   45.2360 C   0  0  0  0  0  0  0  0  0  0  0  0
   46.5170   32.0570   45.0580 C   0  0  0  0  0  0  0  0  0  0  0  0
   46.1080   32.9050   46.1090 C   0  0  0  0  0  0  0  0  0  0  0  0
   45.9090   32.3820   47.3840 C   0  0  0  0  0  0  0  0  0  0  0  0
   45.5290   32.8760   48.5970 N   0  0  0  0  0  0  0  0  0  0  0  0
   45.5250   31.8270   49.4720 C   0  0  0  0  0  0  0  0  0  0  0  0
   45.8980   30.7110   48.7940 N   0  0  0  0  0  0  0  0  0  0  0  0
   46.1380   31.0270   47.5110 C   0  0  0  0  0  0  0  0  0  0  0  0
   46.5380   30.1780   46.5020 C   0  0  0  0  0  0  0  0  0  0  0  0
   47.0430   30.1070   44.4050 H   0  0  0  0  0  0  0  0  0  0  0  0
   45.9360   33.9670   45.9790 H   0  0  0  0  0  0  0  0  0  0  0  0
   45.3010   33.8780   48.7560 H   0  0  0  0  0  0  0  0  0  0  0  0
   45.2590   31.9390   50.5140 H   0  0  0  0  0  0  0  0  0  0  0  0
   46.7000   29.1220   46.6710 H   0  0  0  0  0  0  0  0  0  0  0  0
   49.3700   34.6630   42.0440 C   0  0  0  0  0  0  0  0  0  0  0  0
   49.1460   35.7910   41.2420 F   0  0  0  0  0  0  0  0  0  0  0  0
   49.9050   35.1300   43.2210 F   0  0  0  0  0  0  0  0  0  0  0  0
   50.2220   33.8050   41.4100 F   0  0  0  0  0  0  0  0  0  0  0  0
   47.2650   34.4780   40.1000 O   0  0  0  0  0  0  0  0  0  0  0  0
   47.4060   33.7310   38.9460 C   0  0  0  0  0  0  0  0  0  0  0  0
   48.3790   34.4250   38.2370 C   0  0  0  0  0  0  0  0  0  0  0  0
   48.5880   33.4540   36.6970 S   0  0  0  0  0  0  0  0  0  0  0  0
   47.2720   32.2240   37.2920 C   0  0  0  0  0  0  0  0  0  0  0  0
   47.0350   32.6970   38.2590 N   0  0  0  0  0  0  0  0  0  0  0  0
   49.1680   35.3260   38.0800 H   0  0  0  0  0  0  0  0  0  0  0  0
   47.3380   29.7310   37.1130 C   0  0  2  0  0  3  0  0  0  0  0  0
   46.7940   31.0040   36.5520 C   0  0  2  0  0  3  0  0  0  0  0  0
   47.1130   31.1350   35.0690 C   0  0  0  0  0  3  0  0  0  0  0  0
   46.5660   30.2870   34.5810 H   0  0  0  0  0  0  0  0  0  0  0  0
   48.4780   31.0900   34.8180 O   0  0  0  0  0  0  0  0  0  0  0  0
   49.0210   29.8860   35.2420 C   0  0  0  0  0  3  0  0  0  0  0  0
   49.3640   29.3020   34.3660 H   0  0  0  0  0  0  0  0  0  0  0  0
   48.0460   29.0040   35.9790 C   0  0  1  0  0  3  0  0  0  0  0  0
   46.3590   28.8640   37.5970 O   0  0  0  0  0  0  0  0  0  0  0  0
   45.8050   29.2450   38.3060 H   0  0  0  0  0  0  0  0  0  0  0  0
   48.8200   27.9950   36.5780 O   0  0  0  0  0  0  0  0  0  0  0  0
   49.2160   27.4380   35.8510 H   0  0  0  0  0  0  0  0  0  0  0  0
  1  6  1  0  0  0  0
  2  1  2  0  0  0  0
  2  3  1  0  0  0  0
  3  4  2  0  0  0  0
  4  5  1  0  0  0  0
  5  9  1  0  0  0  0
  6  5  2  0  0  0  0
  7  1  1  0  0  0  0
  8 16  1  0  0  0  0
  9  8  2  0  0  0  0
  9 10  1  0  0  0  0
 10 11  2  0  0  0  0
 11 15  1  0  0  0  0
 11 12  1  0  0  0  0
 12 19  1  0  0  0  0
 12 13  1  0  0  0  0
 13 20  1  0  0  0  0
 14 13  2  0  0  0  0
 15 14  1  0  0  0  0
 16 21  1  0  0  0  0
 16 15  2  0  0  0  0
 17  8  1  0  0  0  0
 18 10  1  0  0  0  0
 22  3  1  0  0  0  0
 22 24  1  0  0  0  0
 23 22  1  0  0  0  0
 25 22  1  0  0  0  0
 26  2  1  0  0  0  0
 27 26  1  0  0  0  0
 28 27  2  0  0  0  0
 29 30  1  0  0  0  0
 29 28  1  0  0  0  0
 30 31  2  0  0  0  0
 31 27  1  0  0  0  0
 32 28  1  0  0  0  0
 33 41  1  6  0  0  0
 34 33  1  0  0  0  0
 34 30  1  1  0  0  0
 35 34  1  0  0  0  0
 36 35  1  0  0  0  0
 37 35  1  0  0  0  0
 37 38  1  0  0  0  0
 38 40  1  0  0  0  0
 39 38  1  0  0  0  0
 40 43  1  1  0  0  0
 40 33  1  0  0  0  0
 41 42  1  0  0  0  0
 44 43  1  0  0  0  0
M  END
>  <minimizedAffinity>
-6.25142336

>  <minimizedRMSD>
0.0943383351

$$$$
