
 OpenBabel03252507433D

 34 36  0  0  1  0  0  0  0  0999 V2000
   44.5290   34.7570   41.3840 C   0  0  0  0  0  0  0  0  0  0  0  0
   43.6020   35.6680   41.9880 C   0  0  0  0  0  0  0  0  0  0  0  0
   42.0550   35.3680   41.0260 S   0  0  0  0  0  0  0  0  0  0  0  0
   42.9340   34.0660   39.9800 C   0  0  0  0  0  0  0  0  0  0  0  0
   43.9880   34.0620   40.4090 N   0  0  0  0  0  0  0  0  0  0  0  0
   43.8290   36.3380   42.8070 H   0  0  0  0  0  0  0  0  0  0  0  0
   41.2180   32.3410   39.4720 C   0  0  1  0  0  3  0  0  0  0  0  0
   42.2430   33.3150   38.8810 C   0  0  2  0  0  3  0  0  0  0  0  0
   43.2900   32.5240   38.1720 C   0  0  0  0  0  3  0  0  0  0  0  0
   43.4100   32.9410   37.1440 H   0  0  0  0  0  0  0  0  0  0  0  0
   42.8340   31.2090   37.9580 O   0  0  0  0  0  0  0  0  0  0  0  0
   41.5830   31.2010   37.3500 C   0  0  0  0  0  3  0  0  0  0  0  0
   41.5590   31.8570   36.4420 H   0  0  0  0  0  0  0  0  0  0  0  0
   40.5490   31.6290   38.3430 C   0  0  2  0  0  3  0  0  0  0  0  0
   41.8760   31.5420   40.3720 O   0  0  0  0  0  0  0  0  0  0  0  0
   41.4250   31.4570   41.2460 H   0  0  0  0  0  0  0  0  0  0  0  0
   39.6230   32.5340   37.7740 O   0  0  0  0  0  0  0  0  0  0  0  0
   39.3670   33.2060   38.4520 H   0  0  0  0  0  0  0  0  0  0  0  0
   45.9250   34.6610   41.8580 C   0  0  0  0  0  0  0  0  0  0  0  0
   46.2320   35.6150   42.3290 H   0  0  0  0  0  0  0  0  0  0  0  0
   45.9220   33.8530   42.6370 H   0  0  0  0  0  0  0  0  0  0  0  0
   46.9260   34.2810   40.8320 C   0  0  0  0  0  0  0  0  0  0  0  0
   47.0380   35.1730   40.1470 H   0  0  0  0  0  0  0  0  0  0  0  0
   46.6150   33.4680   40.1870 H   0  0  0  0  0  0  0  0  0  0  0  0
   48.2930   34.0630   41.3750 C   0  0  0  0  0  0  0  0  0  0  0  0
   48.9170   32.8540   41.0650 C   0  0  0  0  0  0  0  0  0  0  0  0
   50.1870   32.6070   41.5460 C   0  0  0  0  0  0  0  0  0  0  0  0
   50.7880   33.5670   42.3160 N   0  0  0  0  0  0  0  0  0  0  0  0
   50.1480   34.7260   42.5960 C   0  0  0  0  0  0  0  0  0  0  0  0
   48.9330   34.9590   42.1320 N   0  0  0  0  0  0  0  0  0  0  0  0
   50.7010   31.6850   41.3270 H   0  0  0  0  0  0  0  0  0  0  0  0
   50.6280   35.4890   43.2100 H   0  0  0  0  0  0  0  0  0  0  0  0
   48.0570   31.6430   40.0450 S   0  0  0  0  0  0  0  0  0  0  0  0
   47.9320   30.4230   40.7680 H   0  0  0  0  0  0  0  0  0  0  0  0
  1 19  1  0  0  0  0
  1  2  2  0  0  0  0
  2  6  1  0  0  0  0
  3  2  1  0  0  0  0
  4  5  2  0  0  0  0
  4  3  1  0  0  0  0
  5  1  1  0  0  0  0
  7 15  1  1  0  0  0
  8  7  1  0  0  0  0
  8  4  1  1  0  0  0
  9  8  1  0  0  0  0
 10  9  1  0  0  0  0
 11  9  1  0  0  0  0
 12 11  1  0  0  0  0
 12 14  1  0  0  0  0
 13 12  1  0  0  0  0
 14 17  1  6  0  0  0
 14  7  1  0  0  0  0
 15 16  1  0  0  0  0
 17 18  1  0  0  0  0
 19 20  1  0  0  0  0
 19 21  1  0  0  0  0
 22 25  1  0  0  0  0
 22 19  1  0  0  0  0
 23 22  1  0  0  0  0
 24 22  1  0  0  0  0
 25 30  1  0  0  0  0
 26 25  2  0  0  0  0
 26 27  1  0  0  0  0
 27 28  2  0  0  0  0
 28 29  1  0  0  0  0
 29 32  1  0  0  0  0
 30 29  2  0  0  0  0
 31 27  1  0  0  0  0
 33 34  1  0  0  0  0
 33 26  1  0  0  0  0
M  END
>  <minimizedAffinity>
-4.46984816

>  <minimizedRMSD>
0.829234421

$$$$
