
 OpenBabel03252501453D

 26 27  0  0  1  0  0  0  0  0999 V2000
   44.4520   35.9410   42.5090 C   0  0  0  0  0  0  0  0  0  0  0  0
   43.8320   35.0870   41.5970 C   0  0  0  0  0  0  0  0  0  0  0  0
   44.4010   33.8490   41.3570 C   0  0  0  0  0  0  0  0  0  0  0  0
   45.5460   33.5180   42.0260 N   0  0  0  0  0  0  0  0  0  0  0  0
   46.1260   34.3720   42.9090 C   0  0  0  0  0  0  0  0  0  0  0  0
   45.5690   35.5570   43.1280 N   0  0  0  0  0  0  0  0  0  0  0  0
   44.0020   36.9190   42.6960 H   0  0  0  0  0  0  0  0  0  0  0  0
   43.9860   33.1090   40.6580 H   0  0  0  0  0  0  0  0  0  0  0  0
   48.5760   34.1970   42.7490 C   0  0  1  0  0  3  0  0  0  0  0  0
   47.3830   33.9400   43.6050 C   0  0  2  0  0  3  0  0  0  0  0  0
   47.2530   32.5180   44.0900 C   0  0  0  0  0  3  0  0  0  0  0  0
   46.2290   32.1510   43.8450 H   0  0  0  0  0  0  0  0  0  0  0  0
   48.2320   31.6910   43.5830 O   0  0  0  0  0  0  0  0  0  0  0  0
   48.2870   31.7530   42.1860 C   0  0  0  0  0  3  0  0  0  0  0  0
   47.2950   31.4850   41.7720 H   0  0  0  0  0  0  0  0  0  0  0  0
   48.7660   33.1080   41.7340 C   0  0  1  0  0  3  0  0  0  0  0  0
   48.3720   35.3940   42.0760 O   0  0  0  0  0  0  0  0  0  0  0  0
   48.6710   36.1970   42.5460 H   0  0  0  0  0  0  0  0  0  0  0  0
   48.0530   33.4800   40.5820 O   0  0  0  0  0  0  0  0  0  0  0  0
   48.5970   33.2790   39.7830 H   0  0  0  0  0  0  0  0  0  0  0  0
   42.6080   35.4540   40.8890 C   0  0  0  0  0  3  0  0  0  0  0  0
   41.3990   35.4930   41.3910 C   0  0  0  0  0  3  0  0  0  0  0  0
   40.2040   35.8890   40.5620 C   0  0  0  0  0  0  0  0  0  0  0  0
   39.2730   35.5450   41.0060 H   0  0  0  0  0  0  0  0  0  0  0  0
   40.2210   36.9970   40.5350 H   0  0  0  0  0  0  0  0  0  0  0  0
   40.4100   35.5330   39.5330 H   0  0  0  0  0  0  0  0  0  0  0  0
  1  7  1  0  0  0  0
  1  6  1  0  0  0  0
  2  1  2  0  0  0  0
  3  2  1  0  0  0  0
  3  4  2  0  0  0  0
  4  5  1  0  0  0  0
  5  6  2  0  0  0  0
  8  3  1  0  0  0  0
  9 17  1  6  0  0  0
  9 10  1  0  0  0  0
 10  5  1  6  0  0  0
 10 11  1  0  0  0  0
 12 11  1  0  0  0  0
 13 11  1  0  0  0  0
 14 13  1  0  0  0  0
 15 14  1  0  0  0  0
 16 19  1  6  0  0  0
 16 14  1  0  0  0  0
 16  9  1  0  0  0  0
 17 18  1  0  0  0  0
 20 19  1  0  0  0  0
 21 22  2  0  0  0  0
 21  2  1  0  0  0  0
 23 24  1  0  0  0  0
 23 22  1  0  0  0  0
 25 23  1  0  0  0  0
 26 23  1  0  0  0  0
M  END
>  <minimizedAffinity>
-4.60652161

>  <minimizedRMSD>
4.13022757

$$$$
