
 OpenBabel03252504213D

 22 23  0  0  1  0  0  0  0  0999 V2000
   37.5190   29.7880   41.5990 C   0  0  1  0  0  3  0  0  0  0  0  0
   37.1850   28.6150   40.6760 C   0  0  1  0  0  3  0  0  0  0  0  0
   37.8510   28.9600   39.3620 C   0  0  0  0  0  3  0  0  0  0  0  0
   37.8900   28.1250   38.6600 H   0  0  0  0  0  0  0  0  0  0  0  0
   37.1180   29.9740   38.8030 O   0  0  0  0  0  0  0  0  0  0  0  0
   37.0580   31.1320   39.5190 C   0  0  0  0  0  3  0  0  0  0  0  0
   37.9050   31.8400   39.2960 H   0  0  0  0  0  0  0  0  0  0  0  0
   36.8930   31.0100   40.9910 C   0  0  1  0  0  3  0  0  0  0  0  0
   39.0460   26.0980   42.5870 C   0  0  0  0  0  0  0  0  0  0  0  0
   38.3290   24.9200   42.3010 C   0  0  0  0  0  0  0  0  0  0  0  0
   37.2130   25.0080   41.4530 C   0  0  0  0  0  0  0  0  0  0  0  0
   36.8900   26.2300   40.9560 N   0  0  0  0  0  0  0  0  0  0  0  0
   37.6000   27.3320   41.2530 C   0  0  0  0  0  0  0  0  0  0  0  0
   38.6710   27.2870   42.0590 N   0  0  0  0  0  0  0  0  0  0  0  0
   38.6160   23.9710   42.7140 H   0  0  0  0  0  0  0  0  0  0  0  0
   36.6360   24.1230   41.2090 H   0  0  0  0  0  0  0  0  0  0  0  0
   40.4560   25.8810   43.6800 S   0  0  0  0  0  0  0  0  0  0  0  0
   40.0320   25.9210   45.0110 H   0  0  0  0  0  0  0  0  0  0  0  0
   36.9300   29.5160   42.8360 O   0  0  0  0  0  0  0  0  0  0  0  0
   37.1550   30.2160   43.4930 H   0  0  0  0  0  0  0  0  0  0  0  0
   35.5510   31.0450   41.3830 O   0  0  0  0  0  0  0  0  0  0  0  0
   35.0610   30.2900   41.0050 H   0  0  0  0  0  0  0  0  0  0  0  0
  1 19  1  1  0  0  0
  2 13  1  1  0  0  0
  2  1  1  0  0  0  0
  3  2  1  0  0  0  0
  4  3  1  0  0  0  0
  5  3  1  0  0  0  0
  5  6  1  0  0  0  0
  6  8  1  0  0  0  0
  7  6  1  0  0  0  0
  8 21  1  6  0  0  0
  8  1  1  0  0  0  0
  9 17  1  0  0  0  0
 10  9  1  0  0  0  0
 10 15  1  0  0  0  0
 11 10  2  0  0  0  0
 12 13  2  0  0  0  0
 12 11  1  0  0  0  0
 13 14  1  0  0  0  0
 14  9  2  0  0  0  0
 16 11  1  0  0  0  0
 17 18  1  0  0  0  0
 19 20  1  0  0  0  0
 22 21  1  0  0  0  0
M  END
>  <minimizedAffinity>
-5.03376913

$$$$

 OpenBabel03252504213D

 22 23  0  0  1  0  0  0  0  0999 V2000
   37.6010   29.9020   41.7270 C   0  0  1  0  0  3  0  0  0  0  0  0
   37.4840   28.7080   40.7780 C   0  0  1  0  0  3  0  0  0  0  0  0
   38.2160   29.1400   39.5260 C   0  0  0  0  0  3  0  0  0  0  0  0
   38.4110   28.3230   38.8310 H   0  0  0  0  0  0  0  0  0  0  0  0
   37.4230   30.0710   38.9070 O   0  0  0  0  0  0  0  0  0  0  0  0
   37.1690   31.2060   39.6150 C   0  0  0  0  0  3  0  0  0  0  0  0
   37.9460   32.0080   39.4670 H   0  0  0  0  0  0  0  0  0  0  0  0
   36.8940   31.0510   41.0680 C   0  0  1  0  0  3  0  0  0  0  0  0
   38.0510   25.1550   41.4890 C   0  0  0  0  0  0  0  0  0  0  0  0
   38.9670   25.2100   42.5570 C   0  0  0  0  0  0  0  0  0  0  0  0
   39.3790   26.4710   43.0190 C   0  0  0  0  0  0  0  0  0  0  0  0
   38.8650   27.5690   42.4050 N   0  0  0  0  0  0  0  0  0  0  0  0
   37.9920   27.4750   41.3870 C   0  0  0  0  0  0  0  0  0  0  0  0
   37.5760   26.2890   40.9190 N   0  0  0  0  0  0  0  0  0  0  0  0
   39.3510   24.3180   43.0170 H   0  0  0  0  0  0  0  0  0  0  0  0
   40.0830   26.5540   43.8390 H   0  0  0  0  0  0  0  0  0  0  0  0
   37.5870   23.4980   40.9720 S   0  0  0  0  0  0  0  0  0  0  0  0
   38.5330   23.0030   40.0700 H   0  0  0  0  0  0  0  0  0  0  0  0
   36.9420   29.5510   42.9080 O   0  0  0  0  0  0  0  0  0  0  0  0
   37.0280   30.2660   43.5820 H   0  0  0  0  0  0  0  0  0  0  0  0
   35.5270   30.9280   41.3420 O   0  0  0  0  0  0  0  0  0  0  0  0
   35.1610   30.1260   40.9220 H   0  0  0  0  0  0  0  0  0  0  0  0
  1 19  1  1  0  0  0
  2 13  1  1  0  0  0
  2  1  1  0  0  0  0
  3  2  1  0  0  0  0
  4  3  1  0  0  0  0
  5  3  1  0  0  0  0
  5  6  1  0  0  0  0
  6  8  1  0  0  0  0
  7  6  1  0  0  0  0
  8 21  1  6  0  0  0
  8  1  1  0  0  0  0
  9 10  1  0  0  0  0
 10 15  1  0  0  0  0
 10 11  2  0  0  0  0
 11 16  1  0  0  0  0
 12 11  1  0  0  0  0
 13 12  2  0  0  0  0
 14 13  1  0  0  0  0
 14  9  2  0  0  0  0
 17  9  1  0  0  0  0
 18 17  1  0  0  0  0
 19 20  1  0  0  0  0
 22 21  1  0  0  0  0
M  END
>  <minimizedAffinity>
-4.86751699

$$$$

 OpenBabel03252504213D

 22 23  0  0  1  0  0  0  0  0999 V2000
   36.9440   31.5260   39.7120 C   0  0  1  0  0  3  0  0  0  0  0  0
   38.3150   31.1090   40.2460 C   0  0  1  0  0  3  0  0  0  0  0  0
   38.5530   29.7340   39.6600 C   0  0  0  0  0  3  0  0  0  0  0  0
   39.5800   29.3850   39.7690 H   0  0  0  0  0  0  0  0  0  0  0  0
   37.7190   28.8730   40.3240 O   0  0  0  0  0  0  0  0  0  0  0  0
   36.3840   29.1180   40.2000 C   0  0  0  0  0  3  0  0  0  0  0  0
   35.9200   28.6190   39.3030 H   0  0  0  0  0  0  0  0  0  0  0  0
   35.9490   30.5390   40.2520 C   0  0  1  0  0  3  0  0  0  0  0  0
   41.1130   32.8040   38.5890 C   0  0  0  0  0  0  0  0  0  0  0  0
   41.2570   33.9690   39.3680 C   0  0  0  0  0  0  0  0  0  0  0  0
   40.3880   34.1550   40.4550 C   0  0  0  0  0  0  0  0  0  0  0  0
   39.4550   33.1960   40.6920 N   0  0  0  0  0  0  0  0  0  0  0  0
   39.3490   32.0970   39.9240 C   0  0  0  0  0  0  0  0  0  0  0  0
   40.1610   31.8850   38.8770 N   0  0  0  0  0  0  0  0  0  0  0  0
   42.0070   34.7050   39.1480 H   0  0  0  0  0  0  0  0  0  0  0  0
   40.4670   35.0380   41.0780 H   0  0  0  0  0  0  0  0  0  0  0  0
   42.2710   32.6590   37.2220 S   0  0  0  0  0  0  0  0  0  0  0  0
   41.7830   33.3550   36.1130 H   0  0  0  0  0  0  0  0  0  0  0  0
   36.6770   32.7990   40.2210 O   0  0  0  0  0  0  0  0  0  0  0  0
   35.8230   33.1450   39.8680 H   0  0  0  0  0  0  0  0  0  0  0  0
   35.6020   30.9440   41.5450 O   0  0  0  0  0  0  0  0  0  0  0  0
   36.3720   30.8870   42.1440 H   0  0  0  0  0  0  0  0  0  0  0  0
  1 19  1  1  0  0  0
  1  2  1  0  0  0  0
  1  8  1  0  0  0  0
  2 13  1  6  0  0  0
  3  4  1  0  0  0  0
  3  2  1  0  0  0  0
  3  5  1  0  0  0  0
  6  8  1  0  0  0  0
  6  5  1  0  0  0  0
  7  6  1  0  0  0  0
  8 21  1  1  0  0  0
  9 14  2  0  0  0  0
  9 10  1  0  0  0  0
 10 11  2  0  0  0  0
 11 12  1  0  0  0  0
 11 16  1  0  0  0  0
 13 12  2  0  0  0  0
 14 13  1  0  0  0  0
 15 10  1  0  0  0  0
 17  9  1  0  0  0  0
 18 17  1  0  0  0  0
 20 19  1  0  0  0  0
 21 22  1  0  0  0  0
M  END
>  <minimizedAffinity>
-4.80447006

$$$$

 OpenBabel03252504213D

 22 23  0  0  1  0  0  0  0  0999 V2000
   39.3620   31.8050   40.9670 C   0  0  1  0  0  3  0  0  0  0  0  0
   38.1020   31.0290   41.3550 C   0  0  1  0  0  3  0  0  0  0  0  0
   37.3590   30.8280   40.0530 C   0  0  0  0  0  3  0  0  0  0  0  0
   36.5450   30.1060   40.1220 H   0  0  0  0  0  0  0  0  0  0  0  0
   36.8410   32.0480   39.7020 O   0  0  0  0  0  0  0  0  0  0  0  0
   37.7480   33.0400   39.4780 C   0  0  0  0  0  3  0  0  0  0  0  0
   38.1200   33.0740   38.4150 H   0  0  0  0  0  0  0  0  0  0  0  0
   38.9060   33.1220   40.4070 C   0  0  1  0  0  3  0  0  0  0  0  0
   39.9150   28.0820   42.5700 C   0  0  0  0  0  0  0  0  0  0  0  0
   38.9720   27.4890   43.4320 C   0  0  0  0  0  0  0  0  0  0  0  0
   37.7230   28.1120   43.5830 C   0  0  0  0  0  0  0  0  0  0  0  0
   37.4970   29.2570   42.8860 N   0  0  0  0  0  0  0  0  0  0  0  0
   38.4240   29.7920   42.0720 C   0  0  0  0  0  0  0  0  0  0  0  0
   39.6280   29.2250   41.9030 N   0  0  0  0  0  0  0  0  0  0  0  0
   39.1880   26.5830   43.9670 H   0  0  0  0  0  0  0  0  0  0  0  0
   36.9710   27.6860   44.2370 H   0  0  0  0  0  0  0  0  0  0  0  0
   41.4810   27.2100   42.4440 S   0  0  0  0  0  0  0  0  0  0  0  0
   42.3230   27.5980   43.4900 H   0  0  0  0  0  0  0  0  0  0  0  0
   40.0920   32.0130   42.1400 O   0  0  0  0  0  0  0  0  0  0  0  0
   40.9460   32.4670   41.9450 H   0  0  0  0  0  0  0  0  0  0  0  0
   38.6680   33.9860   41.4820 O   0  0  0  0  0  0  0  0  0  0  0  0
   37.9220   33.6650   42.0250 H   0  0  0  0  0  0  0  0  0  0  0  0
  1  2  1  0  0  0  0
  1 19  1  1  0  0  0
  2 13  1  6  0  0  0
  3  4  1  0  0  0  0
  3  2  1  0  0  0  0
  5  3  1  0  0  0  0
  6  5  1  0  0  0  0
  6  8  1  0  0  0  0
  7  6  1  0  0  0  0
  8  1  1  0  0  0  0
  8 21  1  1  0  0  0
  9 10  1  0  0  0  0
 10 11  2  0  0  0  0
 10 15  1  0  0  0  0
 11 16  1  0  0  0  0
 12 11  1  0  0  0  0
 13 12  2  0  0  0  0
 14 13  1  0  0  0  0
 14  9  2  0  0  0  0
 17  9  1  0  0  0  0
 17 18  1  0  0  0  0
 20 19  1  0  0  0  0
 21 22  1  0  0  0  0
M  END
>  <minimizedAffinity>
-4.68680382

$$$$

 OpenBabel03252504213D

 22 23  0  0  1  0  0  0  0  0999 V2000
   36.8700   28.1710   41.5280 C   0  0  1  0  0  3  0  0  0  0  0  0
   37.6920   29.4390   41.7620 C   0  0  1  0  0  3  0  0  0  0  0  0
   39.1020   28.9430   41.9990 C   0  0  0  0  0  3  0  0  0  0  0  0
   39.8540   29.7330   41.9690 H   0  0  0  0  0  0  0  0  0  0  0  0
   39.1130   28.3670   43.2420 O   0  0  0  0  0  0  0  0  0  0  0  0
   38.2940   27.2910   43.4100 C   0  0  0  0  0  3  0  0  0  0  0  0
   38.7790   26.3130   43.1300 H   0  0  0  0  0  0  0  0  0  0  0  0
   36.9440   27.3660   42.7930 C   0  0  1  0  0  3  0  0  0  0  0  0
   37.2960   30.8130   38.3850 C   0  0  0  0  0  0  0  0  0  0  0  0
   37.3080   32.2010   38.6270 C   0  0  0  0  0  0  0  0  0  0  0  0
   37.4530   32.6450   39.9510 C   0  0  0  0  0  0  0  0  0  0  0  0
   37.5730   31.7060   40.9250 N   0  0  0  0  0  0  0  0  0  0  0  0
   37.5570   30.3900   40.6540 C   0  0  0  0  0  0  0  0  0  0  0  0
   37.4200   29.9270   39.4020 N   0  0  0  0  0  0  0  0  0  0  0  0
   37.2100   32.9130   37.8290 H   0  0  0  0  0  0  0  0  0  0  0  0
   37.4660   33.7050   40.1770 H   0  0  0  0  0  0  0  0  0  0  0  0
   37.1070   30.3460   36.6610 S   0  0  0  0  0  0  0  0  0  0  0  0
   35.7510   30.3270   36.3220 H   0  0  0  0  0  0  0  0  0  0  0  0
   35.5530   28.5750   41.2960 O   0  0  0  0  0  0  0  0  0  0  0  0
   34.9800   27.8000   41.0870 H   0  0  0  0  0  0  0  0  0  0  0  0
   35.9800   27.8640   43.6760 O   0  0  0  0  0  0  0  0  0  0  0  0
   36.1940   28.7790   43.9410 H   0  0  0  0  0  0  0  0  0  0  0  0
  1 19  1  1  0  0  0
  1  2  1  0  0  0  0
  1  8  1  0  0  0  0
  2 13  1  6  0  0  0
  2  3  1  0  0  0  0
  3  5  1  0  0  0  0
  4  3  1  0  0  0  0
  5  6  1  0  0  0  0
  7  6  1  0  0  0  0
  8  6  1  0  0  0  0
  8 21  1  1  0  0  0
  9 10  2  0  0  0  0
  9 14  1  0  0  0  0
 10 11  1  0  0  0  0
 11 16  1  0  0  0  0
 11 12  2  0  0  0  0
 13 12  1  0  0  0  0
 14 13  2  0  0  0  0
 15 10  1  0  0  0  0
 17  9  1  0  0  0  0
 18 17  1  0  0  0  0
 20 19  1  0  0  0  0
 21 22  1  0  0  0  0
M  END
>  <minimizedAffinity>
-4.5279007

$$$$

 OpenBabel03252504213D

 22 23  0  0  1  0  0  0  0  0999 V2000
   37.0550   29.2460   41.2400 C   0  0  1  0  0  3  0  0  0  0  0  0
   36.7410   28.7450   39.8290 C   0  0  1  0  0  3  0  0  0  0  0  0
   37.8030   29.3750   38.9540 C   0  0  0  0  0  3  0  0  0  0  0  0
   37.8520   28.9490   37.9510 H   0  0  0  0  0  0  0  0  0  0  0  0
   37.4940   30.7070   38.8560 O   0  0  0  0  0  0  0  0  0  0  0  0
   37.4920   31.4080   40.0240 C   0  0  0  0  0  3  0  0  0  0  0  0
   38.5020   31.8290   40.2930 H   0  0  0  0  0  0  0  0  0  0  0  0
   36.9050   30.7390   41.2140 C   0  0  1  0  0  3  0  0  0  0  0  0
   37.2470   25.2080   40.6550 C   0  0  0  0  0  0  0  0  0  0  0  0
   36.5610   24.5590   39.6100 C   0  0  0  0  0  0  0  0  0  0  0  0
   35.9330   25.3490   38.6330 C   0  0  0  0  0  0  0  0  0  0  0  0
   36.0250   26.6990   38.7550 N   0  0  0  0  0  0  0  0  0  0  0  0
   36.6890   27.2810   39.7680 C   0  0  0  0  0  0  0  0  0  0  0  0
   37.3010   26.5600   40.7200 N   0  0  0  0  0  0  0  0  0  0  0  0
   36.5110   23.4880   39.5480 H   0  0  0  0  0  0  0  0  0  0  0  0
   35.3960   24.8860   37.8130 H   0  0  0  0  0  0  0  0  0  0  0  0
   38.0160   24.1120   41.8530 S   0  0  0  0  0  0  0  0  0  0  0  0
   37.0790   23.7360   42.8190 H   0  0  0  0  0  0  0  0  0  0  0  0
   36.1020   28.6850   42.0940 O   0  0  0  0  0  0  0  0  0  0  0  0
   36.2840   28.9310   43.0310 H   0  0  0  0  0  0  0  0  0  0  0  0
   35.5470   31.0370   41.3780 O   0  0  0  0  0  0  0  0  0  0  0  0
   35.0280   30.7130   40.6170 H   0  0  0  0  0  0  0  0  0  0  0  0
  1 19  1  1  0  0  0
  2 13  1  1  0  0  0
  2  1  1  0  0  0  0
  3  2  1  0  0  0  0
  4  3  1  0  0  0  0
  5  3  1  0  0  0  0
  5  6  1  0  0  0  0
  6  7  1  0  0  0  0
  6  8  1  0  0  0  0
  8  1  1  0  0  0  0
  8 21  1  6  0  0  0
  9 14  1  0  0  0  0
  9 17  1  0  0  0  0
 10  9  2  0  0  0  0
 11 12  2  0  0  0  0
 11 10  1  0  0  0  0
 12 13  1  0  0  0  0
 13 14  2  0  0  0  0
 15 10  1  0  0  0  0
 16 11  1  0  0  0  0
 17 18  1  0  0  0  0
 19 20  1  0  0  0  0
 22 21  1  0  0  0  0
M  END
>  <minimizedAffinity>
-4.50159216

$$$$

 OpenBabel03252504213D

 22 23  0  0  1  0  0  0  0  0999 V2000
   37.8360   32.1750   40.6230 C   0  0  1  0  0  3  0  0  0  0  0  0
   38.2480   31.1440   39.5710 C   0  0  1  0  0  3  0  0  0  0  0  0
   39.7610   31.1810   39.5710 C   0  0  0  0  0  3  0  0  0  0  0  0
   40.2180   30.3510   39.0300 H   0  0  0  0  0  0  0  0  0  0  0  0
   40.1270   32.3570   38.9720 O   0  0  0  0  0  0  0  0  0  0  0  0
   39.7160   33.4980   39.5920 C   0  0  0  0  0  3  0  0  0  0  0  0
   40.4350   33.8630   40.3790 H   0  0  0  0  0  0  0  0  0  0  0  0
   38.3360   33.5080   40.1450 C   0  0  1  0  0  3  0  0  0  0  0  0
   37.0040   28.1910   41.3520 C   0  0  0  0  0  0  0  0  0  0  0  0
   36.5820   27.3620   40.2940 C   0  0  0  0  0  0  0  0  0  0  0  0
   36.7330   27.8320   38.9790 C   0  0  0  0  0  0  0  0  0  0  0  0
   37.2790   29.0650   38.8050 N   0  0  0  0  0  0  0  0  0  0  0  0
   37.6690   29.8260   39.8420 C   0  0  0  0  0  0  0  0  0  0  0  0
   37.5400   29.4110   41.1120 N   0  0  0  0  0  0  0  0  0  0  0  0
   36.1550   26.3930   40.4720 H   0  0  0  0  0  0  0  0  0  0  0  0
   36.4210   27.2240   38.1380 H   0  0  0  0  0  0  0  0  0  0  0  0
   36.7690   27.5000   42.9940 S   0  0  0  0  0  0  0  0  0  0  0  0
   35.4660   27.7530   43.4320 H   0  0  0  0  0  0  0  0  0  0  0  0
   36.4400   32.1770   40.6680 O   0  0  0  0  0  0  0  0  0  0  0  0
   36.1130   32.7890   41.3690 H   0  0  0  0  0  0  0  0  0  0  0  0
   37.4000   34.0160   39.2370 O   0  0  0  0  0  0  0  0  0  0  0  0
   37.3550   33.4570   38.4380 H   0  0  0  0  0  0  0  0  0  0  0  0
  1 19  1  6  0  0  0
  2  3  1  0  0  0  0
  2 13  1  1  0  0  0
  2  1  1  0  0  0  0
  4  3  1  0  0  0  0
  5  3  1  0  0  0  0
  5  6  1  0  0  0  0
  6  8  1  0  0  0  0
  6  7  1  0  0  0  0
  8 21  1  6  0  0  0
  8  1  1  0  0  0  0
  9 17  1  0  0  0  0
 10 15  1  0  0  0  0
 10  9  2  0  0  0  0
 11 10  1  0  0  0  0
 12 11  2  0  0  0  0
 12 13  1  0  0  0  0
 13 14  2  0  0  0  0
 14  9  1  0  0  0  0
 16 11  1  0  0  0  0
 17 18  1  0  0  0  0
 19 20  1  0  0  0  0
 22 21  1  0  0  0  0
M  END
>  <minimizedAffinity>
-4.4968338

$$$$

 OpenBabel03252504213D

 22 23  0  0  1  0  0  0  0  0999 V2000
   37.8110   32.1810   40.6750 C   0  0  1  0  0  3  0  0  0  0  0  0
   38.2970   31.0700   39.7430 C   0  0  1  0  0  3  0  0  0  0  0  0
   39.8070   31.1570   39.7980 C   0  0  0  0  0  3  0  0  0  0  0  0
   40.3100   30.2950   39.3570 H   0  0  0  0  0  0  0  0  0  0  0  0
   40.1630   32.2830   39.1030 O   0  0  0  0  0  0  0  0  0  0  0  0
   39.6920   33.4630   39.5960 C   0  0  0  0  0  3  0  0  0  0  0  0
   40.3670   33.9240   40.3710 H   0  0  0  0  0  0  0  0  0  0  0  0
   38.2910   33.4790   40.0910 C   0  0  1  0  0  3  0  0  0  0  0  0
   36.8910   27.6910   39.5110 C   0  0  0  0  0  0  0  0  0  0  0  0
   36.7250   27.3460   40.8670 C   0  0  0  0  0  0  0  0  0  0  0  0
   37.1010   28.2820   41.8430 C   0  0  0  0  0  0  0  0  0  0  0  0
   37.6040   29.4720   41.4210 N   0  0  0  0  0  0  0  0  0  0  0  0
   37.7460   29.7640   40.1170 C   0  0  0  0  0  0  0  0  0  0  0  0
   37.3990   28.8950   39.1550 N   0  0  0  0  0  0  0  0  0  0  0  0
   36.3240   26.3940   41.1610 H   0  0  0  0  0  0  0  0  0  0  0  0
   36.9880   28.0530   42.8970 H   0  0  0  0  0  0  0  0  0  0  0  0
   36.3820   26.4280   38.3390 S   0  0  0  0  0  0  0  0  0  0  0  0
   37.4250   25.5180   38.1440 H   0  0  0  0  0  0  0  0  0  0  0  0
   36.4150   32.1410   40.6650 O   0  0  0  0  0  0  0  0  0  0  0  0
   36.0410   32.8050   41.2920 H   0  0  0  0  0  0  0  0  0  0  0  0
   37.3790   33.8680   39.1030 O   0  0  0  0  0  0  0  0  0  0  0  0
   37.3840   33.2340   38.3600 H   0  0  0  0  0  0  0  0  0  0  0  0
  1 19  1  6  0  0  0
  2  3  1  0  0  0  0
  2 13  1  1  0  0  0
  2  1  1  0  0  0  0
  4  3  1  0  0  0  0
  5  6  1  0  0  0  0
  5  3  1  0  0  0  0
  6  8  1  0  0  0  0
  6  7  1  0  0  0  0
  8 21  1  6  0  0  0
  8  1  1  0  0  0  0
  9 10  1  0  0  0  0
 10 15  1  0  0  0  0
 10 11  2  0  0  0  0
 11 16  1  0  0  0  0
 12 11  1  0  0  0  0
 13 12  2  0  0  0  0
 14  9  2  0  0  0  0
 14 13  1  0  0  0  0
 17  9  1  0  0  0  0
 18 17  1  0  0  0  0
 19 20  1  0  0  0  0
 22 21  1  0  0  0  0
M  END
>  <minimizedAffinity>
-4.31140041

$$$$

 OpenBabel03252504213D

 22 23  0  0  1  0  0  0  0  0999 V2000
   39.3280   30.7880   40.5730 C   0  0  1  0  0  3  0  0  0  0  0  0
   38.0050   30.7480   41.3410 C   0  0  1  0  0  3  0  0  0  0  0  0
   36.9860   31.3190   40.3780 C   0  0  0  0  0  3  0  0  0  0  0  0
   35.9530   31.1620   40.6920 H   0  0  0  0  0  0  0  0  0  0  0  0
   37.2270   32.6660   40.3020 O   0  0  0  0  0  0  0  0  0  0  0  0
   38.4510   33.0280   39.8250 C   0  0  0  0  0  3  0  0  0  0  0  0
   38.4830   33.1230   38.7030 H   0  0  0  0  0  0  0  0  0  0  0  0
   39.6190   32.2320   40.2850 C   0  0  1  0  0  3  0  0  0  0  0  0
   37.2260   27.1650   41.4060 C   0  0  0  0  0  0  0  0  0  0  0  0
   37.1280   26.9090   42.7880 C   0  0  0  0  0  0  0  0  0  0  0  0
   37.3310   27.9750   43.6800 C   0  0  0  0  0  0  0  0  0  0  0  0
   37.6120   29.1960   43.1540 N   0  0  0  0  0  0  0  0  0  0  0  0
   37.6970   29.4000   41.8280 C   0  0  0  0  0  0  0  0  0  0  0  0
   37.5090   28.4070   40.9460 N   0  0  0  0  0  0  0  0  0  0  0  0
   36.9040   25.9290   43.1650 H   0  0  0  0  0  0  0  0  0  0  0  0
   37.2640   27.8170   44.7500 H   0  0  0  0  0  0  0  0  0  0  0  0
   36.9490   25.7390   40.3490 S   0  0  0  0  0  0  0  0  0  0  0  0
   38.1370   25.0160   40.2100 H   0  0  0  0  0  0  0  0  0  0  0  0
   40.3070   30.2630   41.4200 O   0  0  0  0  0  0  0  0  0  0  0  0
   41.1780   30.2140   40.9600 H   0  0  0  0  0  0  0  0  0  0  0  0
   40.2270   32.7820   41.4200 O   0  0  0  0  0  0  0  0  0  0  0  0
   39.6060   32.7900   42.1740 H   0  0  0  0  0  0  0  0  0  0  0  0
  1  2  1  0  0  0  0
  1 19  1  1  0  0  0
  2 13  1  6  0  0  0
  3  4  1  0  0  0  0
  3  2  1  0  0  0  0
  5  3  1  0  0  0  0
  6  8  1  0  0  0  0
  6  5  1  0  0  0  0
  7  6  1  0  0  0  0
  8  1  1  0  0  0  0
  8 21  1  1  0  0  0
  9 10  1  0  0  0  0
 10 15  1  0  0  0  0
 10 11  2  0  0  0  0
 11 16  1  0  0  0  0
 12 11  1  0  0  0  0
 13 12  2  0  0  0  0
 14  9  2  0  0  0  0
 14 13  1  0  0  0  0
 17  9  1  0  0  0  0
 18 17  1  0  0  0  0
 20 19  1  0  0  0  0
 21 22  1  0  0  0  0
M  END
>  <minimizedAffinity>
-4.31064606

$$$$
