
 OpenBabel03252507373D

 41 45  0  0  1  0  0  0  0  0999 V2000
   45.1660   34.4990   43.4370 C   0  0  0  0  0  0  0  0  0  0  0  0
   45.8890   33.4420   44.0480 C   0  0  0  0  0  0  0  0  0  0  0  0
   45.9030   33.4150   45.4410 C   0  0  0  0  0  0  0  0  0  0  0  0
   45.2570   34.3570   46.1240 N   0  0  0  0  0  0  0  0  0  0  0  0
   44.5730   35.3580   45.5180 C   0  0  0  0  0  0  0  0  0  0  0  0
   44.5320   35.4210   44.1920 N   0  0  0  0  0  0  0  0  0  0  0  0
   46.4070   32.6880   43.5170 H   0  0  0  0  0  0  0  0  0  0  0  0
   44.0800   36.0740   46.1640 H   0  0  0  0  0  0  0  0  0  0  0  0
   46.9530   32.6960   47.5140 C   0  0  0  0  0  0  0  0  0  0  0  0
   46.6140   32.3750   46.1990 C   0  0  0  0  0  0  0  0  0  0  0  0
   46.9570   31.1540   45.7180 C   0  0  0  0  0  0  0  0  0  0  0  0
   47.6260   30.2100   46.4710 C   0  0  0  0  0  0  0  0  0  0  0  0
   48.0560   28.9590   46.1960 N   0  0  0  0  0  0  0  0  0  0  0  0
   48.6710   28.4830   47.3450 C   0  0  0  0  0  0  0  0  0  0  0  0
   48.6000   29.4560   48.2880 N   0  0  0  0  0  0  0  0  0  0  0  0
   47.9680   30.5040   47.7620 C   0  0  0  0  0  0  0  0  0  0  0  0
   47.6340   31.7380   48.2800 C   0  0  0  0  0  0  0  0  0  0  0  0
   46.7400   33.6370   48.0250 H   0  0  0  0  0  0  0  0  0  0  0  0
   46.6790   30.9430   44.6970 H   0  0  0  0  0  0  0  0  0  0  0  0
   47.9590   28.4240   45.2990 H   0  0  0  0  0  0  0  0  0  0  0  0
   49.1170   27.5010   47.4320 H   0  0  0  0  0  0  0  0  0  0  0  0
   47.9210   31.9320   49.3060 H   0  0  0  0  0  0  0  0  0  0  0  0
   45.1440   34.5370   42.0410 O   0  0  0  0  0  0  0  0  0  0  0  0
   44.1540   33.8510   41.3470 C   0  0  0  0  0  0  0  0  0  0  0  0
   44.7460   33.6760   40.1520 C   0  0  0  0  0  0  0  0  0  0  0  0
   43.4050   32.7340   39.1850 S   0  0  0  0  0  0  0  0  0  0  0  0
   42.2900   32.8000   40.7130 C   0  0  0  0  0  0  0  0  0  0  0  0
   42.9410   33.3440   41.4160 N   0  0  0  0  0  0  0  0  0  0  0  0
   45.6250   33.7860   39.3950 H   0  0  0  0  0  0  0  0  0  0  0  0
   39.9600   33.3250   40.8700 C   0  0  1  0  0  3  0  0  0  0  0  0
   40.9320   32.2070   40.7220 C   0  0  1  0  0  3  0  0  0  0  0  0
   40.7250   31.5120   39.3930 C   0  0  0  0  0  3  0  0  0  0  0  0
   40.7190   30.4080   39.4930 H   0  0  0  0  0  0  0  0  0  0  0  0
   39.5280   31.9190   38.7880 O   0  0  0  0  0  0  0  0  0  0  0  0
   39.6190   33.2640   38.4290 C   0  0  0  0  0  3  0  0  0  0  0  0
   38.6300   33.5080   37.9750 H   0  0  0  0  0  0  0  0  0  0  0  0
   39.8450   34.1360   39.6240 C   0  0  1  0  0  3  0  0  0  0  0  0
   38.7000   32.8260   41.2640 O   0  0  0  0  0  0  0  0  0  0  0  0
   38.1620   33.5450   41.6890 H   0  0  0  0  0  0  0  0  0  0  0  0
   38.7830   35.0310   39.8090 O   0  0  0  0  0  0  0  0  0  0  0  0
   37.9910   34.6390   39.3340 H   0  0  0  0  0  0  0  0  0  0  0  0
  1  2  2  0  0  0  0
  1  6  1  0  0  0  0
  2  3  1  0  0  0  0
  3  4  2  0  0  0  0
  3 10  1  0  0  0  0
  5  4  1  0  0  0  0
  5  8  1  0  0  0  0
  6  5  2  0  0  0  0
  7  2  1  0  0  0  0
  9 18  1  0  0  0  0
  9 17  1  0  0  0  0
 10  9  2  0  0  0  0
 11 10  1  0  0  0  0
 11 12  2  0  0  0  0
 12 16  1  0  0  0  0
 13 12  1  0  0  0  0
 13 14  1  0  0  0  0
 14 21  1  0  0  0  0
 14 15  2  0  0  0  0
 16 17  2  0  0  0  0
 16 15  1  0  0  0  0
 17 22  1  0  0  0  0
 19 11  1  0  0  0  0
 20 13  1  0  0  0  0
 23  1  1  0  0  0  0
 24 28  1  0  0  0  0
 24 23  1  0  0  0  0
 25 24  2  0  0  0  0
 26 25  1  0  0  0  0
 26 27  1  0  0  0  0
 27 28  2  0  0  0  0
 29 25  1  0  0  0  0
 30 38  1  6  0  0  0
 31 27  1  6  0  0  0
 31 30  1  0  0  0  0
 32 33  1  0  0  0  0
 32 31  1  0  0  0  0
 34 32  1  0  0  0  0
 35 34  1  0  0  0  0
 35 37  1  0  0  0  0
 36 35  1  0  0  0  0
 37 40  1  1  0  0  0
 37 30  1  0  0  0  0
 38 39  1  0  0  0  0
 41 40  1  0  0  0  0
M  END
>  <minimizedAffinity>
-6.31660748

>  <minimizedRMSD>
2.40434504

$$$$
