
 OpenBabel03252501453D

 26 27  0  0  1  0  0  0  0  0999 V2000
   44.3520   35.6310   44.1400 C   0  0  0  0  0  0  0  0  0  0  0  0
   44.1650   34.8390   43.0070 C   0  0  0  0  0  0  0  0  0  0  0  0
   44.6620   33.5490   43.0130 C   0  0  0  0  0  0  0  0  0  0  0  0
   45.3140   33.1060   44.1300 N   0  0  0  0  0  0  0  0  0  0  0  0
   45.4790   33.9010   45.2180 C   0  0  0  0  0  0  0  0  0  0  0  0
   44.9970   35.1390   45.1980 N   0  0  0  0  0  0  0  0  0  0  0  0
   43.9590   36.6510   44.1330 H   0  0  0  0  0  0  0  0  0  0  0  0
   44.5640   32.8510   42.1690 H   0  0  0  0  0  0  0  0  0  0  0  0
   47.1570   32.2770   45.9950 C   0  0  1  0  0  3  0  0  0  0  0  0
   46.2060   33.3480   46.4080 C   0  0  2  0  0  3  0  0  0  0  0  0
   45.2250   32.9380   47.4780 C   0  0  0  0  0  3  0  0  0  0  0  0
   44.1960   33.1900   47.1320 H   0  0  0  0  0  0  0  0  0  0  0  0
   45.3420   31.6100   47.8260 O   0  0  0  0  0  0  0  0  0  0  0  0
   45.2580   30.7740   46.7070 C   0  0  0  0  0  3  0  0  0  0  0  0
   44.2980   30.9600   46.1870 H   0  0  0  0  0  0  0  0  0  0  0  0
   46.4560   30.9630   45.8130 C   0  0  1  0  0  3  0  0  0  0  0  0
   47.7200   32.6480   44.7800 O   0  0  0  0  0  0  0  0  0  0  0  0
   48.5280   33.1920   44.8400 H   0  0  0  0  0  0  0  0  0  0  0  0
   46.0390   30.8930   44.4740 O   0  0  0  0  0  0  0  0  0  0  0  0
   46.2120   29.9860   44.1250 H   0  0  0  0  0  0  0  0  0  0  0  0
   43.4670   35.3250   41.8190 C   0  0  0  0  0  3  0  0  0  0  0  0
   42.3170   34.8960   41.3610 C   0  0  0  0  0  3  0  0  0  0  0  0
   41.6880   35.4750   40.1190 C   0  0  0  0  0  0  0  0  0  0  0  0
   40.9480   34.8030   39.6920 H   0  0  0  0  0  0  0  0  0  0  0  0
   41.1990   36.4120   40.4500 H   0  0  0  0  0  0  0  0  0  0  0  0
   42.5250   35.7600   39.4530 H   0  0  0  0  0  0  0  0  0  0  0  0
  1  6  1  0  0  0  0
  2  3  1  0  0  0  0
  2  1  2  0  0  0  0
  3  4  2  0  0  0  0
  4  5  1  0  0  0  0
  6  5  2  0  0  0  0
  7  1  1  0  0  0  0
  8  3  1  0  0  0  0
  9 17  1  6  0  0  0
  9 10  1  0  0  0  0
 10  5  1  6  0  0  0
 10 11  1  0  0  0  0
 11 13  1  0  0  0  0
 12 11  1  0  0  0  0
 14 13  1  0  0  0  0
 15 14  1  0  0  0  0
 16 19  1  6  0  0  0
 16  9  1  0  0  0  0
 16 14  1  0  0  0  0
 17 18  1  0  0  0  0
 20 19  1  0  0  0  0
 21  2  1  0  0  0  0
 22 21  2  0  0  0  0
 23 25  1  0  0  0  0
 23 22  1  0  0  0  0
 24 23  1  0  0  0  0
 26 23  1  0  0  0  0
M  END
>  <minimizedAffinity>
-4.24026394

>  <minimizedRMSD>
0.788644016

$$$$
