
 OpenBabel03252507383D

 41 45  0  0  1  0  0  0  0  0999 V2000
   45.6880   34.7830   43.5040 C   0  0  0  0  0  0  0  0  0  0  0  0
   46.3890   33.7120   44.1160 C   0  0  0  0  0  0  0  0  0  0  0  0
   46.1320   33.4820   45.4660 C   0  0  0  0  0  0  0  0  0  0  0  0
   45.2620   34.2560   46.1100 N   0  0  0  0  0  0  0  0  0  0  0  0
   44.6030   35.2740   45.5050 C   0  0  0  0  0  0  0  0  0  0  0  0
   44.8180   35.5280   44.2190 N   0  0  0  0  0  0  0  0  0  0  0  0
   47.0840   33.0900   43.6150 H   0  0  0  0  0  0  0  0  0  0  0  0
   43.9150   35.8440   46.1170 H   0  0  0  0  0  0  0  0  0  0  0  0
   47.0260   32.6570   47.5720 C   0  0  0  0  0  0  0  0  0  0  0  0
   46.7920   32.4060   46.2190 C   0  0  0  0  0  0  0  0  0  0  0  0
   47.1790   31.2140   45.7010 C   0  0  0  0  0  0  0  0  0  0  0  0
   47.7970   30.2340   46.4510 C   0  0  0  0  0  0  0  0  0  0  0  0
   48.2560   29.0010   46.1440 N   0  0  0  0  0  0  0  0  0  0  0  0
   48.7860   28.4660   47.3090 C   0  0  0  0  0  0  0  0  0  0  0  0
   48.6360   29.3860   48.2950 N   0  0  0  0  0  0  0  0  0  0  0  0
   48.0380   30.4590   47.7780 C   0  0  0  0  0  0  0  0  0  0  0  0
   47.6550   31.6620   48.3350 C   0  0  0  0  0  0  0  0  0  0  0  0
   46.7680   33.5690   48.1140 H   0  0  0  0  0  0  0  0  0  0  0  0
   46.9810   31.0570   44.6520 H   0  0  0  0  0  0  0  0  0  0  0  0
   48.2320   28.5140   45.2150 H   0  0  0  0  0  0  0  0  0  0  0  0
   49.2320   27.4830   47.3780 H   0  0  0  0  0  0  0  0  0  0  0  0
   47.8620   31.8010   49.3880 H   0  0  0  0  0  0  0  0  0  0  0  0
   45.9370   35.0230   42.1510 O   0  0  0  0  0  0  0  0  0  0  0  0
   44.9870   34.6690   41.2000 C   0  0  0  0  0  0  0  0  0  0  0  0
   45.6590   33.7430   40.4930 C   0  0  0  0  0  0  0  0  0  0  0  0
   44.3720   33.2430   39.1830 S   0  0  0  0  0  0  0  0  0  0  0  0
   43.1530   34.4760   39.9430 C   0  0  0  0  0  0  0  0  0  0  0  0
   43.7650   34.8840   40.7640 N   0  0  0  0  0  0  0  0  0  0  0  0
   46.5900   33.0870   40.2480 H   0  0  0  0  0  0  0  0  0  0  0  0
   41.0840   33.3600   39.4930 C   0  0  1  0  0  3  0  0  0  0  0  0
   41.7880   34.6680   39.4010 C   0  0  1  0  0  3  0  0  0  0  0  0
   41.0910   35.6940   40.2680 C   0  0  0  0  0  3  0  0  0  0  0  0
   40.9480   36.6610   39.7440 H   0  0  0  0  0  0  0  0  0  0  0  0
   39.8430   35.2280   40.7050 O   0  0  0  0  0  0  0  0  0  0  0  0
   40.0250   34.1530   41.5740 C   0  0  0  0  0  3  0  0  0  0  0  0
   38.9940   33.8330   41.8570 H   0  0  0  0  0  0  0  0  0  0  0  0
   40.7250   33.0160   40.9000 C   0  0  1  0  0  3  0  0  0  0  0  0
   39.9400   33.3620   38.6680 O   0  0  0  0  0  0  0  0  0  0  0  0
   39.6680   32.4310   38.4530 H   0  0  0  0  0  0  0  0  0  0  0  0
   39.9150   31.8740   40.8520 O   0  0  0  0  0  0  0  0  0  0  0  0
   38.9680   32.1890   40.9460 H   0  0  0  0  0  0  0  0  0  0  0  0
  1  2  2  0  0  0  0
  1  6  1  0  0  0  0
  2  3  1  0  0  0  0
  3  4  2  0  0  0  0
  3 10  1  0  0  0  0
  5  4  1  0  0  0  0
  5  8  1  0  0  0  0
  6  5  2  0  0  0  0
  7  2  1  0  0  0  0
  9 18  1  0  0  0  0
  9 17  1  0  0  0  0
 10  9  2  0  0  0  0
 11 10  1  0  0  0  0
 11 12  2  0  0  0  0
 12 16  1  0  0  0  0
 13 12  1  0  0  0  0
 13 14  1  0  0  0  0
 14 21  1  0  0  0  0
 14 15  2  0  0  0  0
 16 15  1  0  0  0  0
 16 17  2  0  0  0  0
 17 22  1  0  0  0  0
 19 11  1  0  0  0  0
 20 13  1  0  0  0  0
 23  1  1  0  0  0  0
 24 23  1  0  0  0  0
 25 24  2  0  0  0  0
 26 27  1  0  0  0  0
 26 25  1  0  0  0  0
 27 28  2  0  0  0  0
 28 24  1  0  0  0  0
 29 25  1  0  0  0  0
 30 38  1  6  0  0  0
 30 37  1  0  0  0  0
 31 30  1  0  0  0  0
 31 27  1  1  0  0  0
 31 32  1  0  0  0  0
 32 34  1  0  0  0  0
 33 32  1  0  0  0  0
 34 35  1  0  0  0  0
 35 36  1  0  0  0  0
 37 40  1  6  0  0  0
 37 35  1  0  0  0  0
 39 38  1  0  0  0  0
 40 41  1  0  0  0  0
M  END
>  <minimizedAffinity>
-6.77277517

>  <minimizedRMSD>
1.10770369

$$$$
