
 OpenBabel03242523463D

 22 23  0  0  1  0  0  0  0  0999 V2000
   48.1320   33.4110   41.2510 C   0  0  1  0  0  3  0  0  0  0  0  0
   48.0970   34.6660   42.0650 C   0  0  2  0  0  3  0  0  0  0  0  0
   49.3860   34.9240   42.8260 C   0  0  0  0  0  3  0  0  0  0  0  0
   49.5440   36.0230   42.8190 H   0  0  0  0  0  0  0  0  0  0  0  0
   50.4940   34.3700   42.2150 O   0  0  0  0  0  0  0  0  0  0  0  0
   50.4470   32.9830   42.1590 C   0  0  0  0  0  3  0  0  0  0  0  0
   51.1190   32.6660   41.3300 H   0  0  0  0  0  0  0  0  0  0  0  0
   49.0840   32.4330   41.8930 C   0  0  2  0  0  3  0  0  0  0  0  0
   44.8910   35.1210   43.9920 C   0  0  0  0  0  0  0  0  0  0  0  0
   45.8600   35.3000   42.9910 C   0  0  0  0  0  0  0  0  0  0  0  0
   47.0390   34.5200   43.0920 C   0  0  0  0  0  0  0  0  0  0  0  0
   47.1640   33.6580   44.1280 N   0  0  0  0  0  0  0  0  0  0  0  0
   46.2050   33.5230   45.0630 C   0  0  0  0  0  0  0  0  0  0  0  0
   45.0780   34.2440   45.0000 N   0  0  0  0  0  0  0  0  0  0  0  0
   45.7330   35.9960   42.1750 H   0  0  0  0  0  0  0  0  0  0  0  0
   46.2710   32.8400   45.9100 H   0  0  0  0  0  0  0  0  0  0  0  0
   43.7510   35.8730   43.9000 O   0  0  0  0  0  0  0  0  0  0  0  0
   43.7870   36.8400   44.1970 H   0  0  0  0  0  0  0  0  0  0  0  0
   46.8540   32.8130   41.3040 O   0  0  0  0  0  0  0  0  0  0  0  0
   46.6970   32.1570   40.6090 H   0  0  0  0  0  0  0  0  0  0  0  0
   49.1830   31.3280   41.0470 O   0  0  0  0  0  0  0  0  0  0  0  0
   48.3390   30.9540   40.7560 H   0  0  0  0  0  0  0  0  0  0  0  0
  1 19  1  1  0  0  0
  1  8  1  0  0  0  0
  1  2  1  0  0  0  0
  2  3  1  0  0  0  0
  2 11  1  1  0  0  0
  4  3  1  0  0  0  0
  5  3  1  0  0  0  0
  6  5  1  0  0  0  0
  7  6  1  0  0  0  0
  8 21  1  6  0  0  0
  8  6  1  0  0  0  0
  9 14  1  0  0  0  0
 10 11  1  0  0  0  0
 10  9  2  0  0  0  0
 11 12  2  0  0  0  0
 12 13  1  0  0  0  0
 13 16  1  0  0  0  0
 14 13  2  0  0  0  0
 15 10  1  0  0  0  0
 17  9  1  0  0  0  0
 17 18  1  0  0  0  0
 20 19  1  0  0  0  0
 22 21  1  0  0  0  0
M  END
>  <minimizedAffinity>
-4.74863052

>  <minimizedRMSD>
2.33823538

$$$$
