
 OpenBabel03242519053D

 46 49  0  0  1  0  0  0  0  0999 V2000
   48.6450   32.2830   40.2460 N   0  0  0  0  0  0  0  0  0  0  0  0
   49.5900   31.8390   40.3210 H   0  0  0  0  0  0  0  0  0  0  0  0
   47.2350   33.3500   43.3360 N   0  0  0  0  0  0  0  0  0  0  0  0
   47.9060   33.7070   42.0970 C   0  0  0  0  0  0  0  0  0  0  0  0
   47.7800   32.4000   41.3760 C   0  0  2  0  0  0  0  0  0  0  0  0
   48.2540   31.4170   42.4340 C   0  0  0  0  0  0  0  0  0  0  0  0
   47.7360   32.0330   43.7080 C   0  0  0  0  0  0  0  0  0  0  0  0
   48.9750   33.9200   42.2610 H   0  0  0  0  0  0  0  0  0  0  0  0
   47.4070   34.5200   41.5430 H   0  0  0  0  0  0  0  0  0  0  0  0
   46.7350   32.1810   41.0760 H   0  0  0  0  0  0  0  0  0  0  0  0
   49.3480   31.2750   42.4170 H   0  0  0  0  0  0  0  0  0  0  0  0
   47.7450   30.4320   42.2510 H   0  0  0  0  0  0  0  0  0  0  0  0
   48.6010   32.1650   44.3830 H   0  0  0  0  0  0  0  0  0  0  0  0
   46.9830   31.4030   44.1910 H   0  0  0  0  0  0  0  0  0  0  0  0
   44.6630   35.7750   44.4940 C   0  0  0  0  0  0  0  0  0  0  0  0
   45.5790   35.1560   43.6510 C   0  0  0  0  0  0  0  0  0  0  0  0
   46.2910   34.0470   44.0980 C   0  0  0  0  0  0  0  0  0  0  0  0
   46.0310   33.6350   45.3670 N   0  0  0  0  0  0  0  0  0  0  0  0
   45.1500   34.2230   46.1890 C   0  0  0  0  0  0  0  0  0  0  0  0
   44.4580   35.3070   45.7410 N   0  0  0  0  0  0  0  0  0  0  0  0
   44.1340   36.6350   44.1010 H   0  0  0  0  0  0  0  0  0  0  0  0
   45.7970   35.4780   42.6280 H   0  0  0  0  0  0  0  0  0  0  0  0
   44.9820   33.8490   47.1950 H   0  0  0  0  0  0  0  0  0  0  0  0
   48.5180   31.7930   37.8200 C   0  0  0  0  0  0  0  0  0  0  0  0
   48.5160   32.6690   38.8980 C   0  0  0  0  0  0  0  0  0  0  0  0
   48.3730   33.9800   38.5300 C   0  0  0  0  0  0  0  0  0  0  0  0
   48.2400   34.4510   37.2440 C   0  0  0  0  0  0  0  0  0  0  0  0
   48.2480   33.5420   36.2100 C   0  0  0  0  0  0  0  0  0  0  0  0
   48.3880   32.2050   36.5120 C   0  0  0  0  0  0  0  0  0  0  0  0
   48.3580   34.7540   39.2870 H   0  0  0  0  0  0  0  0  0  0  0  0
   48.1290   35.5010   37.0070 H   0  0  0  0  0  0  0  0  0  0  0  0
   48.1520   33.7870   35.1600 H   0  0  0  0  0  0  0  0  0  0  0  0
   49.4970   31.5520   34.4870 C   0  0  2  0  0  3  0  0  0  0  0  0
   48.4070   31.1540   35.4570 C   0  0  2  0  0  3  0  0  0  0  0  0
   47.1290   31.0790   34.6670 C   0  0  0  0  0  3  0  0  0  0  0  0
   46.9480   29.9920   34.4250 H   0  0  0  0  0  0  0  0  0  0  0  0
   47.2500   31.7090   33.4320 O   0  0  0  0  0  0  0  0  0  0  0  0
   48.0890   30.9600   32.6100 C   0  0  0  0  0  3  0  0  0  0  0  0
   47.6110   29.9650   32.4780 H   0  0  0  0  0  0  0  0  0  0  0  0
   49.4600   30.7320   33.2170 C   0  0  1  0  0  3  0  0  0  0  0  0
   50.7710   31.4730   35.0110 O   0  0  0  0  0  0  0  0  0  0  0  0
   51.0640   32.3190   35.4290 H   0  0  0  0  0  0  0  0  0  0  0  0
   50.4570   31.2490   32.3840 O   0  0  0  0  0  0  0  0  0  0  0  0
   51.1270   31.7870   32.9030 H   0  0  0  0  0  0  0  0  0  0  0  0
   48.7750   29.2400   38.3590 N   0  0  0  0  0  0  0  0  0  0  0  0
   48.6650   30.3680   38.1140 C   0  0  0  0  0  0  0  0  0  0  0  0
  1  2  1  0  0  0  0
  1  5  1  0  0  0  0
  3  7  1  0  0  0  0
  3 17  1  0  0  0  0
  4  8  1  0  0  0  0
  4  3  1  0  0  0  0
  5 10  1  6  0  0  0
  5  4  1  0  0  0  0
  5  6  1  0  0  0  0
  6  7  1  0  0  0  0
  7 14  1  0  0  0  0
  7 13  1  0  0  0  0
  9  4  1  0  0  0  0
 11  6  1  0  0  0  0
 12  6  1  0  0  0  0
 15 20  1  0  0  0  0
 16 17  1  0  0  0  0
 16 15  2  0  0  0  0
 17 18  2  0  0  0  0
 18 19  1  0  0  0  0
 19 23  1  0  0  0  0
 20 19  2  0  0  0  0
 21 15  1  0  0  0  0
 22 16  1  0  0  0  0
 24 46  1  0  0  0  0
 24 25  1  0  0  0  0
 25  1  1  0  0  0  0
 26 25  2  0  0  0  0
 26 30  1  0  0  0  0
 27 26  1  0  0  0  0
 28 29  1  0  0  0  0
 28 27  2  0  0  0  0
 29 24  2  0  0  0  0
 31 27  1  0  0  0  0
 32 28  1  0  0  0  0
 33 41  1  1  0  0  0
 33 34  1  0  0  0  0
 34 29  1  1  0  0  0
 35 34  1  0  0  0  0
 36 35  1  0  0  0  0
 37 35  1  0  0  0  0
 38 40  1  0  0  0  0
 38 37  1  0  0  0  0
 39 38  1  0  0  0  0
 40 43  1  6  0  0  0
 40 33  1  0  0  0  0
 41 42  1  0  0  0  0
 43 44  1  0  0  0  0
 46 45  3  0  0  0  0
M  END
>  <minimizedAffinity>
-5.39040995

>  <minimizedRMSD>
1.31708813

$$$$
