
 OpenBabel03242511333D

 38 40  0  0  1  0  0  0  0  0999 V2000
   49.3910   31.9860   41.5890 C   0  0  0  0  0  0  0  0  0  0  0  0
   50.7330   31.6160   41.8410 C   0  0  0  0  0  0  0  0  0  0  0  0
   51.6180   31.4560   40.7590 C   0  0  0  0  0  0  0  0  0  0  0  0
   51.1140   31.6730   39.5220 N   0  0  0  0  0  0  0  0  0  0  0  0
   49.8240   32.0280   39.3080 C   0  0  0  0  0  0  0  0  0  0  0  0
   49.0090   32.1730   40.3420 N   0  0  0  0  0  0  0  0  0  0  0  0
   51.1620   31.4350   42.8270 H   0  0  0  0  0  0  0  0  0  0  0  0
   52.6500   31.1710   40.9330 H   0  0  0  0  0  0  0  0  0  0  0  0
   48.1070   32.9530   37.7970 C   0  0  2  0  0  3  0  0  0  0  0  0
   49.4140   32.2330   37.8840 C   0  0  2  0  0  3  0  0  0  0  0  0
   49.2850   30.9230   37.1520 C   0  0  0  0  0  3  0  0  0  0  0  0
   49.8380   30.1420   37.7170 H   0  0  0  0  0  0  0  0  0  0  0  0
   47.9620   30.4980   37.0650 O   0  0  0  0  0  0  0  0  0  0  0  0
   47.2120   31.3110   36.2220 C   0  0  0  0  0  3  0  0  0  0  0  0
   46.1450   31.0910   36.4280 H   0  0  0  0  0  0  0  0  0  0  0  0
   47.4600   32.7670   36.4490 C   0  0  2  0  0  3  0  0  0  0  0  0
   48.2530   34.3280   38.0220 O   0  0  0  0  0  0  0  0  0  0  0  0
   49.1360   34.6040   37.6720 H   0  0  0  0  0  0  0  0  0  0  0  0
   48.2210   33.3410   35.4160 O   0  0  0  0  0  0  0  0  0  0  0  0
   48.6550   34.1750   35.7100 H   0  0  0  0  0  0  0  0  0  0  0  0
   48.5260   32.1360   42.7490 C   0  0  0  0  0  3  0  0  0  0  0  0
   48.0040   33.3370   42.9920 C   0  0  0  0  0  3  0  0  0  0  0  0
   47.1140   33.6010   44.1390 C   0  0  0  0  0  0  0  0  0  0  0  0
   46.9300   32.6970   44.7260 H   0  0  0  0  0  0  0  0  0  0  0  0
   47.6430   34.3380   44.8050 H   0  0  0  0  0  0  0  0  0  0  0  0
   44.7380   36.2290   43.4450 C   0  0  1  0  0  0  0  0  0  0  0  0
   45.8930   35.4000   42.8830 C   0  0  0  0  0  0  0  0  0  0  0  0
   45.7590   34.1530   43.6900 C   0  0  2  0  0  0  0  0  0  0  0  0
   44.9260   34.3830   44.7530 O   0  0  0  0  0  0  0  0  0  0  0  0
   44.7070   35.7340   44.8710 C   0  0  0  0  0  0  0  0  0  0  0  0
   43.8030   35.9340   42.9300 H   0  0  0  0  0  0  0  0  0  0  0  0
   46.8390   35.9320   43.0820 H   0  0  0  0  0  0  0  0  0  0  0  0
   45.7470   35.1400   41.8220 H   0  0  0  0  0  0  0  0  0  0  0  0
   45.3100   33.3230   43.0900 H   0  0  0  0  0  0  0  0  0  0  0  0
   45.4120   36.2610   45.5310 H   0  0  0  0  0  0  0  0  0  0  0  0
   43.6680   35.9090   45.2480 H   0  0  0  0  0  0  0  0  0  0  0  0
   45.0280   37.5840   43.3610 O   0  0  0  0  0  0  0  0  0  0  0  0
   44.8000   37.8760   42.4440 H   0  0  0  0  0  0  0  0  0  0  0  0
  1  2  1  0  0  0  0
  1 21  1  0  0  0  0
  2  7  1  0  0  0  0
  3  8  1  0  0  0  0
  3  2  2  0  0  0  0
  4  3  1  0  0  0  0
  5  4  2  0  0  0  0
  5  6  1  0  0  0  0
  6  1  2  0  0  0  0
  9 10  1  0  0  0  0
  9 17  1  6  0  0  0
 10  5  1  1  0  0  0
 11 12  1  0  0  0  0
 11 10  1  0  0  0  0
 13 11  1  0  0  0  0
 14 15  1  0  0  0  0
 14 16  1  0  0  0  0
 14 13  1  0  0  0  0
 16 19  1  6  0  0  0
 16  9  1  0  0  0  0
 18 17  1  0  0  0  0
 19 20  1  0  0  0  0
 21 22  2  0  0  0  0
 22 23  1  0  0  0  0
 23 24  1  0  0  0  0
 23 25  1  0  0  0  0
 26 31  1  6  0  0  0
 26 30  1  0  0  0  0
 27 32  1  0  0  0  0
 27 26  1  0  0  0  0
 27 28  1  0  0  0  0
 28 34  1  6  0  0  0
 28 23  1  0  0  0  0
 28 29  1  0  0  0  0
 29 30  1  0  0  0  0
 30 36  1  0  0  0  0
 30 35  1  0  0  0  0
 33 27  1  0  0  0  0
 37 26  1  0  0  0  0
 38 37  1  0  0  0  0
M  END
>  <minimizedAffinity>
-5.2730546

>  <minimizedRMSD>
0.687195301

$$$$
