
 OpenBabel03252506173D

 26 27  0  0  1  0  0  0  0  0999 V2000
   44.9110   35.7990   44.0210 C   0  0  0  0  0  0  0  0  0  0  0  0
   44.3270   35.3530   42.8080 C   0  0  0  0  0  0  0  0  0  0  0  0
   44.4080   33.9980   42.5160 C   0  0  0  0  0  0  0  0  0  0  0  0
   45.0370   33.1670   43.3960 N   0  0  0  0  0  0  0  0  0  0  0  0
   45.5860   33.6270   44.5490 C   0  0  0  0  0  0  0  0  0  0  0  0
   45.5090   34.9410   44.8370 N   0  0  0  0  0  0  0  0  0  0  0  0
   43.8340   36.0230   42.1270 H   0  0  0  0  0  0  0  0  0  0  0  0
   43.9840   33.5820   41.6050 H   0  0  0  0  0  0  0  0  0  0  0  0
   45.9720   32.8520   46.8870 C   0  0  2  0  0  3  0  0  0  0  0  0
   46.2400   32.6460   45.4240 C   0  0  1  0  0  3  0  0  0  0  0  0
   45.7410   31.2430   45.0510 C   0  0  0  0  0  3  0  0  0  0  0  0
   44.7550   31.1030   45.5860 H   0  0  0  0  0  0  0  0  0  0  0  0
   46.6490   30.4020   45.6950 O   0  0  0  0  0  0  0  0  0  0  0  0
   46.3160   30.3400   47.0200 C   0  0  0  0  0  3  0  0  0  0  0  0
   47.1700   29.8030   47.5270 H   0  0  0  0  0  0  0  0  0  0  0  0
   45.9920   31.6070   47.7020 C   0  0  2  0  0  3  0  0  0  0  0  0
   44.7480   33.5450   46.9640 O   0  0  0  0  0  0  0  0  0  0  0  0
   44.0490   32.8550   46.7930 H   0  0  0  0  0  0  0  0  0  0  0  0
   44.7040   31.4800   48.2720 O   0  0  0  0  0  0  0  0  0  0  0  0
   44.6570   31.8070   49.1860 H   0  0  0  0  0  0  0  0  0  0  0  0
   44.8300   37.2300   44.3390 C   0  0  0  0  0  3  0  0  0  0  0  0
   45.4630   38.0830   43.5440 C   0  0  0  0  0  3  0  0  0  0  0  0
   45.4130   39.5470   43.8210 C   0  0  0  0  0  0  0  0  0  0  0  0
   44.4440   39.9560   43.4730 H   0  0  0  0  0  0  0  0  0  0  0  0
   45.4590   39.7620   44.9230 H   0  0  0  0  0  0  0  0  0  0  0  0
   46.2110   40.0850   43.2970 H   0  0  0  0  0  0  0  0  0  0  0  0
  1 21  1  0  0  0  0
  1  6  1  0  0  0  0
  2  1  2  0  0  0  0
  3  2  1  0  0  0  0
  3  4  2  0  0  0  0
  4  5  1  0  0  0  0
  5  6  2  0  0  0  0
  7  2  1  0  0  0  0
  8  3  1  0  0  0  0
  9 17  1  6  0  0  0
  9 16  1  0  0  0  0
 10  5  1  6  0  0  0
 10  9  1  0  0  0  0
 11 10  1  0  0  0  0
 11 12  1  0  0  0  0
 11 13  1  0  0  0  0
 13 14  1  0  0  0  0
 14 15  1  0  0  0  0
 14 16  1  0  0  0  0
 16 19  1  6  0  0  0
 18 17  1  0  0  0  0
 19 20  1  0  0  0  0
 22 23  1  0  0  0  0
 22 21  2  0  0  0  0
 23 25  1  0  0  0  0
 24 23  1  0  0  0  0
 26 23  1  0  0  0  0
M  END
>  <minimizedAffinity>
-4.15482044

>  <minimizedRMSD>
1.24196708

$$$$
