
 OpenBabel03242513073D

 44 48  0  0  1  0  0  0  0  0999 V2000
   45.9420   33.2290   41.6620 C   0  0  0  0  0  0  0  0  0  0  0  0
   47.1250   33.9140   41.3580 C   0  0  0  0  0  0  0  0  0  0  0  0
   48.1000   33.9590   42.3390 C   0  0  0  0  0  0  0  0  0  0  0  0
   47.8330   33.3340   43.5270 N   0  0  0  0  0  0  0  0  0  0  0  0
   46.7070   32.6880   43.8050 C   0  0  0  0  0  0  0  0  0  0  0  0
   45.7430   32.6290   42.8660 N   0  0  0  0  0  0  0  0  0  0  0  0
   45.1680   33.1790   40.9160 H   0  0  0  0  0  0  0  0  0  0  0  0
   46.7540   30.7300   45.2760 C   0  0  0  0  0  0  0  0  0  0  0  0
   46.5280   32.0600   45.0980 C   0  0  0  0  0  0  0  0  0  0  0  0
   46.1090   32.9050   46.1490 C   0  0  0  0  0  0  0  0  0  0  0  0
   45.9130   32.3790   47.4230 C   0  0  0  0  0  0  0  0  0  0  0  0
   45.5270   32.8690   48.6360 N   0  0  0  0  0  0  0  0  0  0  0  0
   45.5310   31.8190   49.5110 C   0  0  0  0  0  0  0  0  0  0  0  0
   45.9160   30.7080   48.8320 N   0  0  0  0  0  0  0  0  0  0  0  0
   46.1560   31.0260   47.5500 C   0  0  0  0  0  0  0  0  0  0  0  0
   46.5650   30.1810   46.5420 C   0  0  0  0  0  0  0  0  0  0  0  0
   47.0740   30.1160   44.4460 H   0  0  0  0  0  0  0  0  0  0  0  0
   45.9260   33.9640   46.0180 H   0  0  0  0  0  0  0  0  0  0  0  0
   45.2880   33.8680   48.7950 H   0  0  0  0  0  0  0  0  0  0  0  0
   45.2620   31.9290   50.5520 H   0  0  0  0  0  0  0  0  0  0  0  0
   46.7370   29.1270   46.7110 H   0  0  0  0  0  0  0  0  0  0  0  0
   49.3730   34.6680   42.0780 C   0  0  0  0  0  0  0  0  0  0  0  0
   49.1470   35.8030   41.2860 F   0  0  0  0  0  0  0  0  0  0  0  0
   49.9190   35.1240   43.2540 F   0  0  0  0  0  0  0  0  0  0  0  0
   50.2180   33.8130   41.4310 F   0  0  0  0  0  0  0  0  0  0  0  0
   47.2600   34.4890   40.1420 O   0  0  0  0  0  0  0  0  0  0  0  0
   47.3940   33.7450   38.9850 C   0  0  0  0  0  0  0  0  0  0  0  0
   48.3920   34.4170   38.2900 C   0  0  0  0  0  0  0  0  0  0  0  0
   48.5920   33.4480   36.7480 S   0  0  0  0  0  0  0  0  0  0  0  0
   47.2390   32.2490   37.3230 C   0  0  0  0  0  0  0  0  0  0  0  0
   47.0040   32.7230   38.2900 N   0  0  0  0  0  0  0  0  0  0  0  0
   49.2060   35.2980   38.1450 H   0  0  0  0  0  0  0  0  0  0  0  0
   47.7400   30.4990   35.6080 C   0  0  2  0  0  3  0  0  0  0  0  0
   46.7380   31.0440   36.5720 C   0  0  2  0  0  3  0  0  0  0  0  0
   45.4230   31.3720   35.8770 C   0  0  0  0  0  3  0  0  0  0  0  0
   45.0400   30.3860   35.5080 H   0  0  0  0  0  0  0  0  0  0  0  0
   45.5880   32.2880   34.8470 O   0  0  0  0  0  0  0  0  0  0  0  0
   46.4450   31.7950   33.8750 C   0  0  0  0  0  3  0  0  0  0  0  0
   45.8850   31.6200   32.9380 H   0  0  0  0  0  0  0  0  0  0  0  0
   47.0810   30.4760   34.2370 C   0  0  1  0  0  3  0  0  0  0  0  0
   48.1380   29.1930   35.8860 O   0  0  0  0  0  0  0  0  0  0  0  0
   48.5380   29.0760   36.7690 H   0  0  0  0  0  0  0  0  0  0  0  0
   48.1150   30.2830   33.3040 O   0  0  0  0  0  0  0  0  0  0  0  0
   47.6990   30.1620   32.4050 H   0  0  0  0  0  0  0  0  0  0  0  0
  1  6  1  0  0  0  0
  2  1  2  0  0  0  0
  2  3  1  0  0  0  0
  3  4  2  0  0  0  0
  4  5  1  0  0  0  0
  5  9  1  0  0  0  0
  6  5  2  0  0  0  0
  7  1  1  0  0  0  0
  8 16  1  0  0  0  0
  9  8  2  0  0  0  0
  9 10  1  0  0  0  0
 10 11  2  0  0  0  0
 11 15  1  0  0  0  0
 11 12  1  0  0  0  0
 12 19  1  0  0  0  0
 12 13  1  0  0  0  0
 13 20  1  0  0  0  0
 14 13  2  0  0  0  0
 15 14  1  0  0  0  0
 16 21  1  0  0  0  0
 16 15  2  0  0  0  0
 17  8  1  0  0  0  0
 18 10  1  0  0  0  0
 22  3  1  0  0  0  0
 22 24  1  0  0  0  0
 23 22  1  0  0  0  0
 25 22  1  0  0  0  0
 26  2  1  0  0  0  0
 27 26  1  0  0  0  0
 28 27  2  0  0  0  0
 29 30  1  0  0  0  0
 29 28  1  0  0  0  0
 30 31  2  0  0  0  0
 31 27  1  0  0  0  0
 32 28  1  0  0  0  0
 33 41  1  1  0  0  0
 33 34  1  0  0  0  0
 34 30  1  6  0  0  0
 35 34  1  0  0  0  0
 36 35  1  0  0  0  0
 37 35  1  0  0  0  0
 38 40  1  0  0  0  0
 38 37  1  0  0  0  0
 39 38  1  0  0  0  0
 40 43  1  6  0  0  0
 40 33  1  0  0  0  0
 41 42  1  0  0  0  0
 44 43  1  0  0  0  0
M  END
>  <minimizedAffinity>
-6.60824585

>  <minimizedRMSD>
0.893752158

$$$$
