
 OpenBabel03242513073D

 44 48  0  0  1  0  0  0  0  0999 V2000
   45.9630   33.2280   41.6910 C   0  0  0  0  0  0  0  0  0  0  0  0
   47.1360   33.9230   41.3680 C   0  0  0  0  0  0  0  0  0  0  0  0
   48.1230   33.9820   42.3370 C   0  0  0  0  0  0  0  0  0  0  0  0
   47.8770   33.3590   43.5300 N   0  0  0  0  0  0  0  0  0  0  0  0
   46.7620   32.7030   43.8250 C   0  0  0  0  0  0  0  0  0  0  0  0
   45.7860   32.6310   42.8990 N   0  0  0  0  0  0  0  0  0  0  0  0
   45.1800   33.1690   40.9540 H   0  0  0  0  0  0  0  0  0  0  0  0
   46.9270   30.7710   45.3220 C   0  0  0  0  0  0  0  0  0  0  0  0
   46.6050   32.0790   45.1220 C   0  0  0  0  0  0  0  0  0  0  0  0
   46.1040   32.9010   46.1540 C   0  0  0  0  0  0  0  0  0  0  0  0
   45.9240   32.3770   47.4310 C   0  0  0  0  0  0  0  0  0  0  0  0
   45.4790   32.8510   48.6310 N   0  0  0  0  0  0  0  0  0  0  0  0
   45.5450   31.8150   49.5190 C   0  0  0  0  0  0  0  0  0  0  0  0
   46.0250   30.7270   48.8620 N   0  0  0  0  0  0  0  0  0  0  0  0
   46.2650   31.0470   47.5800 C   0  0  0  0  0  0  0  0  0  0  0  0
   46.7550   30.2240   46.5910 C   0  0  0  0  0  0  0  0  0  0  0  0
   47.3080   30.1730   44.5060 H   0  0  0  0  0  0  0  0  0  0  0  0
   45.8460   33.9430   46.0070 H   0  0  0  0  0  0  0  0  0  0  0  0
   45.1630   33.8310   48.7720 H   0  0  0  0  0  0  0  0  0  0  0  0
   45.2490   31.9160   50.5530 H   0  0  0  0  0  0  0  0  0  0  0  0
   47.0020   29.1880   46.7760 H   0  0  0  0  0  0  0  0  0  0  0  0
   49.3860   34.7010   42.0560 C   0  0  0  0  0  0  0  0  0  0  0  0
   49.1400   35.8260   41.2570 F   0  0  0  0  0  0  0  0  0  0  0  0
   49.9380   35.1740   43.2230 F   0  0  0  0  0  0  0  0  0  0  0  0
   50.2340   33.8490   41.4080 F   0  0  0  0  0  0  0  0  0  0  0  0
   47.2500   34.4950   40.1480 O   0  0  0  0  0  0  0  0  0  0  0  0
   47.3840   33.7480   38.9930 C   0  0  0  0  0  0  0  0  0  0  0  0
   48.3870   34.4150   38.3000 C   0  0  0  0  0  0  0  0  0  0  0  0
   48.5870   33.4420   36.7600 S   0  0  0  0  0  0  0  0  0  0  0  0
   47.2290   32.2490   37.3350 C   0  0  0  0  0  0  0  0  0  0  0  0
   46.9930   32.7260   38.2990 N   0  0  0  0  0  0  0  0  0  0  0  0
   49.2040   35.2920   38.1560 H   0  0  0  0  0  0  0  0  0  0  0  0
   47.7270   30.4960   35.6220 C   0  0  2  0  0  3  0  0  0  0  0  0
   46.7260   31.0450   36.5850 C   0  0  2  0  0  3  0  0  0  0  0  0
   45.4120   31.3750   35.8870 C   0  0  0  0  0  3  0  0  0  0  0  0
   45.0280   30.3890   35.5190 H   0  0  0  0  0  0  0  0  0  0  0  0
   45.5810   32.2890   34.8560 O   0  0  0  0  0  0  0  0  0  0  0  0
   46.4380   31.7920   33.8850 C   0  0  0  0  0  3  0  0  0  0  0  0
   45.8780   31.6170   32.9480 H   0  0  0  0  0  0  0  0  0  0  0  0
   47.0700   30.4730   34.2510 C   0  0  1  0  0  3  0  0  0  0  0  0
   48.1220   29.1890   35.9020 O   0  0  0  0  0  0  0  0  0  0  0  0
   48.5200   29.0720   36.7860 H   0  0  0  0  0  0  0  0  0  0  0  0
   48.1050   30.2750   33.3190 O   0  0  0  0  0  0  0  0  0  0  0  0
   47.6890   30.1540   32.4200 H   0  0  0  0  0  0  0  0  0  0  0  0
  1  6  1  0  0  0  0
  2  1  2  0  0  0  0
  2  3  1  0  0  0  0
  3  4  2  0  0  0  0
  4  5  1  0  0  0  0
  5  9  1  0  0  0  0
  6  5  2  0  0  0  0
  7  1  1  0  0  0  0
  8 16  1  0  0  0  0
  9  8  2  0  0  0  0
  9 10  1  0  0  0  0
 10 11  2  0  0  0  0
 11 15  1  0  0  0  0
 11 12  1  0  0  0  0
 12 19  1  0  0  0  0
 12 13  1  0  0  0  0
 13 20  1  0  0  0  0
 14 13  2  0  0  0  0
 15 14  1  0  0  0  0
 16 21  1  0  0  0  0
 16 15  2  0  0  0  0
 17  8  1  0  0  0  0
 18 10  1  0  0  0  0
 22  3  1  0  0  0  0
 22 24  1  0  0  0  0
 23 22  1  0  0  0  0
 25 22  1  0  0  0  0
 26  2  1  0  0  0  0
 27 26  1  0  0  0  0
 28 27  2  0  0  0  0
 29 30  1  0  0  0  0
 29 28  1  0  0  0  0
 30 31  2  0  0  0  0
 31 27  1  0  0  0  0
 32 28  1  0  0  0  0
 33 41  1  1  0  0  0
 33 34  1  0  0  0  0
 34 30  1  6  0  0  0
 35 34  1  0  0  0  0
 36 35  1  0  0  0  0
 37 35  1  0  0  0  0
 38 40  1  0  0  0  0
 38 37  1  0  0  0  0
 39 38  1  0  0  0  0
 40 43  1  6  0  0  0
 40 33  1  0  0  0  0
 41 42  1  0  0  0  0
 44 43  1  0  0  0  0
M  END
>  <minimizedAffinity>
-6.6196909

>  <minimizedRMSD>
0.384938091

$$$$
