
 OpenBabel03242523463D

 22 23  0  0  1  0  0  0  0  0999 V2000
   48.1300   33.4120   41.2500 C   0  0  1  0  0  3  0  0  0  0  0  0
   48.0960   34.6680   42.0640 C   0  0  2  0  0  3  0  0  0  0  0  0
   49.3840   34.9240   42.8250 C   0  0  0  0  0  3  0  0  0  0  0  0
   49.5450   36.0230   42.8180 H   0  0  0  0  0  0  0  0  0  0  0  0
   50.4930   34.3700   42.2140 O   0  0  0  0  0  0  0  0  0  0  0  0
   50.4460   32.9810   42.1580 C   0  0  0  0  0  3  0  0  0  0  0  0
   51.1170   32.6640   41.3300 H   0  0  0  0  0  0  0  0  0  0  0  0
   49.0810   32.4330   41.8930 C   0  0  2  0  0  3  0  0  0  0  0  0
   44.8900   35.1210   43.9920 C   0  0  0  0  0  0  0  0  0  0  0  0
   45.8590   35.3010   42.9920 C   0  0  0  0  0  0  0  0  0  0  0  0
   47.0380   34.5210   43.0910 C   0  0  0  0  0  0  0  0  0  0  0  0
   47.1640   33.6590   44.1270 N   0  0  0  0  0  0  0  0  0  0  0  0
   46.2050   33.5230   45.0620 C   0  0  0  0  0  0  0  0  0  0  0  0
   45.0770   34.2440   45.0000 N   0  0  0  0  0  0  0  0  0  0  0  0
   45.7320   35.9970   42.1750 H   0  0  0  0  0  0  0  0  0  0  0  0
   46.2720   32.8400   45.9100 H   0  0  0  0  0  0  0  0  0  0  0  0
   43.7500   35.8730   43.9010 O   0  0  0  0  0  0  0  0  0  0  0  0
   43.7860   36.8400   44.1980 H   0  0  0  0  0  0  0  0  0  0  0  0
   46.8510   32.8150   41.3050 O   0  0  0  0  0  0  0  0  0  0  0  0
   46.6940   32.1590   40.6080 H   0  0  0  0  0  0  0  0  0  0  0  0
   49.1790   31.3280   41.0480 O   0  0  0  0  0  0  0  0  0  0  0  0
   48.3350   30.9540   40.7560 H   0  0  0  0  0  0  0  0  0  0  0  0
  1 19  1  1  0  0  0
  1  8  1  0  0  0  0
  1  2  1  0  0  0  0
  2  3  1  0  0  0  0
  2 11  1  1  0  0  0
  4  3  1  0  0  0  0
  5  3  1  0  0  0  0
  6  5  1  0  0  0  0
  7  6  1  0  0  0  0
  8 21  1  6  0  0  0
  8  6  1  0  0  0  0
  9 14  1  0  0  0  0
 10 11  1  0  0  0  0
 10  9  2  0  0  0  0
 11 12  2  0  0  0  0
 12 13  1  0  0  0  0
 13 16  1  0  0  0  0
 14 13  2  0  0  0  0
 15 10  1  0  0  0  0
 17  9  1  0  0  0  0
 17 18  1  0  0  0  0
 20 19  1  0  0  0  0
 22 21  1  0  0  0  0
M  END
>  <minimizedAffinity>
-4.7456336

>  <minimizedRMSD>
1.95757568

$$$$
