
 OpenBabel03252500253D

 40 42  0  0  1  0  0  0  0  0999 V2000
   47.1380   30.0360   47.9870 C   0  0  2  0  0  0  0  0  0  0  0  0
   45.7020   30.2910   48.2460 C   0  0  2  0  0  0  0  0  0  0  0  0
   45.0040   29.4260   47.2620 C   0  0  0  0  0  0  0  0  0  0  0  0
   45.8090   28.3240   47.0360 O   0  0  0  0  0  0  0  0  0  0  0  0
   47.0250   28.5410   47.5980 C   0  0  0  0  0  0  0  0  0  0  0  0
   47.7080   30.4260   47.1970 H   0  0  0  0  0  0  0  0  0  0  0  0
   45.5230   29.9750   49.2930 H   0  0  0  0  0  0  0  0  0  0  0  0
   44.5360   29.8840   46.3980 H   0  0  0  0  0  0  0  0  0  0  0  0
   44.1170   28.9830   47.8150 H   0  0  0  0  0  0  0  0  0  0  0  0
   47.1150   27.9080   48.5020 H   0  0  0  0  0  0  0  0  0  0  0  0
   47.8200   28.2180   46.9230 H   0  0  0  0  0  0  0  0  0  0  0  0
   45.3440   31.6170   48.1510 O   0  0  0  0  0  0  0  0  0  0  0  0
   47.4500   32.9020   47.4330 O   0  0  0  0  0  0  0  0  0  0  0  0
   46.1680   32.3320   46.8910 P   0  0  1  0  0  0  0  0  0  0  0  0
   46.5450   31.1620   45.7260 O   0  0  0  0  0  0  0  0  0  0  0  0
   47.1920   31.5230   45.0680 H   0  0  0  0  0  0  0  0  0  0  0  0
   45.3070   33.6380   46.2000 O   0  0  0  0  0  0  0  0  0  0  0  0
   45.2550   35.8640   43.4100 C   0  0  0  0  0  0  0  0  0  0  0  0
   46.2630   35.3600   42.5460 C   0  0  0  0  0  0  0  0  0  0  0  0
   46.9580   34.2210   42.9740 C   0  0  0  0  0  0  0  0  0  0  0  0
   46.6220   33.6830   44.1730 N   0  0  0  0  0  0  0  0  0  0  0  0
   45.6590   34.1900   44.9630 C   0  0  0  0  0  0  0  0  0  0  0  0
   44.9810   35.2790   44.5750 N   0  0  0  0  0  0  0  0  0  0  0  0
   46.5040   35.8190   41.5930 H   0  0  0  0  0  0  0  0  0  0  0  0
   47.7370   33.7890   42.3630 H   0  0  0  0  0  0  0  0  0  0  0  0
   44.5730   36.9860   42.9880 O   0  0  0  0  0  0  0  0  0  0  0  0
   44.0960   37.6160   43.6170 H   0  0  0  0  0  0  0  0  0  0  0  0
   47.9390   30.2170   49.0840 O   0  0  0  0  0  0  0  0  0  0  0  0
   49.9960   29.1990   49.7920 C   0  0  2  0  0  3  0  0  0  0  0  0
   49.2650   30.3140   49.0000 C   0  0  2  0  0  3  0  0  0  0  0  0
   49.7240   31.5860   49.6720 C   0  0  0  0  0  3  0  0  0  0  0  0
   49.4930   32.5090   49.1540 H   0  0  0  0  0  0  0  0  0  0  0  0
   51.0780   31.5360   50.0000 O   0  0  0  0  0  0  0  0  0  0  0  0
   51.2830   30.7780   51.1500 C   0  0  0  0  0  3  0  0  0  0  0  0
   52.2800   30.3120   51.0270 H   0  0  0  0  0  0  0  0  0  0  0  0
   50.2630   29.6760   51.2250 C   0  0  2  0  0  3  0  0  0  0  0  0
   51.2680   28.9920   49.2600 O   0  0  0  0  0  0  0  0  0  0  0  0
   51.6120   28.1780   49.6830 H   0  0  0  0  0  0  0  0  0  0  0  0
   50.8890   28.5830   51.8420 O   0  0  0  0  0  0  0  0  0  0  0  0
   50.5070   28.3360   52.7050 H   0  0  0  0  0  0  0  0  0  0  0  0
  1  6  1  6  0  0  0
  1  2  1  0  0  0  0
  1 28  1  0  0  0  0
  2  7  1  1  0  0  0
  3  9  1  0  0  0  0
  3  2  1  0  0  0  0
  4  3  1  0  0  0  0
  4  5  1  0  0  0  0
  5  1  1  0  0  0  0
  5 10  1  0  0  0  0
  8  3  1  0  0  0  0
 11  5  1  0  0  0  0
 12  2  1  0  0  0  0
 14 13  2  1  0  0  0
 14 12  1  0  0  0  0
 15 14  1  0  0  0  0
 16 15  1  0  0  0  0
 17 14  1  0  0  0  0
 18 23  1  0  0  0  0
 19 20  1  0  0  0  0
 19 18  2  0  0  0  0
 20 21  2  0  0  0  0
 21 22  1  0  0  0  0
 22 17  1  0  0  0  0
 23 22  2  0  0  0  0
 24 19  1  0  0  0  0
 25 20  1  0  0  0  0
 26 18  1  0  0  0  0
 26 27  1  0  0  0  0
 29 37  1  6  0  0  0
 29 36  1  0  0  0  0
 30 28  1  1  0  0  0
 30 31  1  0  0  0  0
 30 29  1  0  0  0  0
 31 33  1  0  0  0  0
 32 31  1  0  0  0  0
 33 34  1  0  0  0  0
 34 36  1  0  0  0  0
 35 34  1  0  0  0  0
 36 39  1  1  0  0  0
 37 38  1  0  0  0  0
 39 40  1  0  0  0  0
M  END
>  <minimizedAffinity>
-5.51494169

>  <minimizedRMSD>
1.09384751

$$$$
