
 OpenBabel03242517163D

 36 38  0  0  1  0  0  0  0  0999 V2000
   44.6120   34.9910   44.9740 C   0  0  0  0  0  0  0  0  0  0  0  0
   45.1460   34.3750   43.8110 C   0  0  0  0  0  0  0  0  0  0  0  0
   45.9990   33.2900   43.9820 C   0  0  0  0  0  0  0  0  0  0  0  0
   46.2620   32.8960   45.2650 N   0  0  0  0  0  0  0  0  0  0  0  0
   45.7470   33.4950   46.3320 C   0  0  0  0  0  0  0  0  0  0  0  0
   44.9240   34.5400   46.1930 N   0  0  0  0  0  0  0  0  0  0  0  0
   43.9570   35.8230   44.8320 H   0  0  0  0  0  0  0  0  0  0  0  0
   46.3890   32.8420   43.0910 H   0  0  0  0  0  0  0  0  0  0  0  0
   47.4000   32.3240   47.6670 C   0  0  2  0  0  0  0  0  0  0  0  0
   46.0730   33.0160   47.7120 C   0  0  2  0  0  0  0  0  0  0  0  0
   44.9760   31.9910   48.0290 C   0  0  0  0  0  0  0  0  0  0  0  0
   44.0100   32.5290   47.8230 H   0  0  0  0  0  0  0  0  0  0  0  0
   45.0730   30.9910   47.0850 O   0  0  0  0  0  0  0  0  0  0  0  0
   46.1730   30.1650   47.3250 C   0  0  0  0  0  0  0  0  0  0  0  0
   45.8760   29.2640   47.8900 H   0  0  0  0  0  0  0  0  0  0  0  0
   47.2940   30.8650   48.0530 C   0  0  2  0  0  0  0  0  0  0  0  0
   48.3030   32.9340   48.5320 O   0  0  0  0  0  0  0  0  0  0  0  0
   47.8820   33.1050   49.4010 H   0  0  0  0  0  0  0  0  0  0  0  0
   47.1780   30.7220   49.4480 O   0  0  0  0  0  0  0  0  0  0  0  0
   46.6840   29.8520   49.5560 H   0  0  0  0  0  0  0  0  0  0  0  0
   44.8150   34.8560   42.4780 C   0  0  0  0  0  0  0  0  0  0  0  0
   43.6210   34.9000   41.9540 C   0  0  0  0  0  0  0  0  0  0  0  0
   43.3500   35.4040   40.5770 C   0  0  0  0  0  0  0  0  0  0  0  0
   44.0540   34.8710   39.8990 H   0  0  0  0  0  0  0  0  0  0  0  0
   43.6080   36.4870   40.4970 H   0  0  0  0  0  0  0  0  0  0  0  0
   42.5080   35.7490   37.9410 F   0  0  0  0  0  0  0  0  0  0  0  0
   41.5990   35.2810   38.8270 C   0  0  0  0  0  0  0  0  0  0  0  0
   41.9890   35.0950   40.1640 C   0  0  0  0  0  0  0  0  0  0  0  0
   40.9820   34.6200   40.9540 C   0  0  0  0  0  0  0  0  0  0  0  0
   39.6840   34.3190   40.5850 C   0  0  0  0  0  0  0  0  0  0  0  0
   39.3920   34.5370   39.2310 C   0  0  0  0  0  0  0  0  0  0  0  0
   40.3180   35.0120   38.3370 C   0  0  0  0  0  0  0  0  0  0  0  0
   41.1950   34.4480   42.0000 H   0  0  0  0  0  0  0  0  0  0  0  0
   38.9490   33.9500   41.2630 H   0  0  0  0  0  0  0  0  0  0  0  0
   38.4060   34.3360   38.8320 H   0  0  0  0  0  0  0  0  0  0  0  0
   40.1110   35.1870   37.2900 H   0  0  0  0  0  0  0  0  0  0  0  0
  1  6  1  0  0  0  0
  2  3  1  0  0  0  0
  2  1  2  0  0  0  0
  3  4  2  0  0  0  0
  4  5  1  0  0  0  0
  6  5  2  0  0  0  0
  7  1  1  0  0  0  0
  8  3  1  0  0  0  0
  9 10  1  0  0  0  0
  9 16  1  0  0  0  0
  9 17  1  1  0  0  0
 10  5  1  6  0  0  0
 10 11  1  0  0  0  0
 12 11  1  0  0  0  0
 13 14  1  0  0  0  0
 13 11  1  0  0  0  0
 14 15  1  0  0  0  0
 14 16  1  0  0  0  0
 16 19  1  1  0  0  0
 17 18  1  0  0  0  0
 19 20  1  0  0  0  0
 21  2  1  0  0  0  0
 22 21  2  0  0  0  0
 23 22  1  0  0  0  0
 24 23  1  0  0  0  0
 25 23  1  0  0  0  0
 26 27  1  0  0  0  0
 27 28  1  0  0  0  0
 28 23  1  0  0  0  0
 28 29  2  0  0  0  0
 29 33  1  0  0  0  0
 30 29  1  0  0  0  0
 30 34  1  0  0  0  0
 31 30  2  0  0  0  0
 32 27  2  0  0  0  0
 32 31  1  0  0  0  0
 35 31  1  0  0  0  0
 36 32  1  0  0  0  0
M  END
>  <minimizedAffinity>
-6.42012405

>  <minimizedRMSD>
2.20300412

$$$$
