
 OpenBabel03252504323D

 43 45  0  0  1  0  0  0  0  0999 V2000
   41.2610   35.5790   41.4930 C   0  0  0  0  0  0  0  0  0  0  0  0
   41.2850   35.4360   42.6040 H   0  0  0  0  0  0  0  0  0  0  0  0
   40.7320   36.5380   41.3190 H   0  0  0  0  0  0  0  0  0  0  0  0
   40.4540   33.2810   41.7300 C   0  0  0  0  0  0  0  0  0  0  0  0
   40.3300   34.5000   41.0240 C   0  0  0  0  0  0  0  0  0  0  0  0
   39.4070   34.5510   40.0300 C   0  0  0  0  0  0  0  0  0  0  0  0
   38.6960   33.4590   39.7990 N   0  0  0  0  0  0  0  0  0  0  0  0
   38.8090   32.3200   40.4550 C   0  0  0  0  0  0  0  0  0  0  0  0
   39.7310   32.1860   41.4870 N   0  0  0  0  0  0  0  0  0  0  0  0
   41.1680   33.1630   42.5350 H   0  0  0  0  0  0  0  0  0  0  0  0
   39.3570   35.5080   39.5260 H   0  0  0  0  0  0  0  0  0  0  0  0
   38.7500   30.1310   39.3280 C   0  0  1  0  0  3  0  0  0  0  0  0
   37.9690   31.1300   40.1350 C   0  0  1  0  0  3  0  0  0  0  0  0
   37.4470   30.4760   41.4060 C   0  0  0  0  0  3  0  0  0  0  0  0
   36.6560   31.1250   41.8740 H   0  0  0  0  0  0  0  0  0  0  0  0
   36.9630   29.2070   41.1660 O   0  0  0  0  0  0  0  0  0  0  0  0
   38.0380   28.3710   40.9640 C   0  0  0  0  0  3  0  0  0  0  0  0
   38.3870   28.0290   41.9680 H   0  0  0  0  0  0  0  0  0  0  0  0
   39.1620   28.9680   40.1830 C   0  0  2  0  0  3  0  0  0  0  0  0
   38.0600   29.7170   38.1880 O   0  0  0  0  0  0  0  0  0  0  0  0
   37.1080   29.5740   38.3290 H   0  0  0  0  0  0  0  0  0  0  0  0
   40.1570   29.4320   41.0750 O   0  0  0  0  0  0  0  0  0  0  0  0
   41.0010   29.5460   40.5570 H   0  0  0  0  0  0  0  0  0  0  0  0
   42.4550   35.5610   40.8360 O   0  0  0  0  0  0  0  0  0  0  0  0
   43.7300   35.4800   41.3750 C   0  0  0  0  0  3  0  0  0  0  0  0
   43.8150   35.6410   42.6910 C   0  0  0  0  0  3  0  0  0  0  0  0
   45.0920   35.5940   43.5100 C   0  0  0  0  0  0  0  0  0  0  0  0
   45.3400   36.6020   43.8870 H   0  0  0  0  0  0  0  0  0  0  0  0
   45.8710   35.2450   42.7970 H   0  0  0  0  0  0  0  0  0  0  0  0
   44.9070   34.6540   44.5040 O   0  0  0  0  0  0  0  0  0  0  0  0
   45.5590   32.5420   43.0190 O   0  0  0  0  0  0  0  0  0  0  0  0
   45.9130   33.3230   44.2630 P   0  0  1  0  0  0  0  0  0  0  0  0
   47.5290   33.8380   44.0770 O   0  0  0  0  0  0  0  0  0  0  0  0
   47.7690   34.2550   44.9430 H   0  0  0  0  0  0  0  0  0  0  0  0
   45.8740   32.3100   45.6120 O   0  0  0  0  0  0  0  0  0  0  0  0
   46.1740   32.9780   46.7780 C   0  0  0  0  0  0  0  0  0  0  0  0
   47.0500   32.3160   47.7960 C   0  0  0  0  0  0  0  0  0  0  0  0
   45.5610   32.4120   48.0350 C   0  0  0  0  0  0  0  0  0  0  0  0
   46.2220   34.0750   46.6890 H   0  0  0  0  0  0  0  0  0  0  0  0
   47.5050   31.3450   47.5460 H   0  0  0  0  0  0  0  0  0  0  0  0
   47.6440   33.0050   48.4260 H   0  0  0  0  0  0  0  0  0  0  0  0
   45.1820   33.1040   48.8260 H   0  0  0  0  0  0  0  0  0  0  0  0
   45.0480   31.4250   47.9810 H   0  0  0  0  0  0  0  0  0  0  0  0
  1  2  1  0  0  0  0
  3  1  1  0  0  0  0
  4 10  1  0  0  0  0
  5  1  1  0  0  0  0
  5  4  2  0  0  0  0
  6  5  1  0  0  0  0
  7  6  2  0  0  0  0
  7  8  1  0  0  0  0
  8  9  2  0  0  0  0
  9  4  1  0  0  0  0
 11  6  1  0  0  0  0
 12 20  1  6  0  0  0
 12 13  1  0  0  0  0
 12 19  1  0  0  0  0
 13  8  1  1  0  0  0
 13 14  1  0  0  0  0
 14 15  1  0  0  0  0
 16 14  1  0  0  0  0
 17 16  1  0  0  0  0
 17 18  1  0  0  0  0
 19 17  1  0  0  0  0
 19 22  1  1  0  0  0
 20 21  1  0  0  0  0
 23 22  1  0  0  0  0
 24 25  1  0  0  0  0
 24  1  1  0  0  0  0
 25 26  2  0  0  0  0
 26 27  1  0  0  0  0
 27 28  1  0  0  0  0
 27 30  1  0  0  0  0
 29 27  1  0  0  0  0
 32 31  2  6  0  0  0
 32 30  1  0  0  0  0
 32 35  1  0  0  0  0
 33 32  1  0  0  0  0
 33 34  1  0  0  0  0
 35 36  1  0  0  0  0
 36 37  1  0  0  0  0
 36 38  1  0  0  0  0
 37 38  1  0  0  0  0
 37 41  1  0  0  0  0
 38 42  1  0  0  0  0
 39 36  1  0  0  0  0
 40 37  1  0  0  0  0
 43 38  1  0  0  0  0
M  END
>  <minimizedAffinity>
-5.18360376

>  <minimizedRMSD>
0.932936072

$$$$
