
 OpenBabel03242523463D

 22 23  0  0  1  0  0  0  0  0999 V2000
   47.9570   33.0990   41.5200 C   0  0  1  0  0  3  0  0  0  0  0  0
   47.8750   34.4540   42.1510 C   0  0  2  0  0  3  0  0  0  0  0  0
   49.1900   34.9130   42.7580 C   0  0  0  0  0  3  0  0  0  0  0  0
   49.2550   36.0080   42.5850 H   0  0  0  0  0  0  0  0  0  0  0  0
   50.2940   34.3590   42.1380 O   0  0  0  0  0  0  0  0  0  0  0  0
   50.3610   32.9780   42.2800 C   0  0  0  0  0  3  0  0  0  0  0  0
   50.9940   32.5940   41.4490 H   0  0  0  0  0  0  0  0  0  0  0  0
   49.0330   32.2980   42.2100 C   0  0  2  0  0  3  0  0  0  0  0  0
   44.8680   35.0760   44.3350 C   0  0  0  0  0  0  0  0  0  0  0  0
   45.7460   35.1850   43.2440 C   0  0  0  0  0  0  0  0  0  0  0  0
   46.9120   34.3810   43.2750 C   0  0  0  0  0  0  0  0  0  0  0  0
   47.1140   33.5640   44.3360 N   0  0  0  0  0  0  0  0  0  0  0  0
   46.2410   33.4950   45.3580 C   0  0  0  0  0  0  0  0  0  0  0  0
   45.1280   34.2400   45.3630 N   0  0  0  0  0  0  0  0  0  0  0  0
   45.5600   35.8460   42.4100 H   0  0  0  0  0  0  0  0  0  0  0  0
   46.3700   32.8500   46.2280 H   0  0  0  0  0  0  0  0  0  0  0  0
   43.7400   35.8510   44.3110 O   0  0  0  0  0  0  0  0  0  0  0  0
   43.8230   36.8290   44.5570 H   0  0  0  0  0  0  0  0  0  0  0  0
   46.7410   32.4240   41.7640 O   0  0  0  0  0  0  0  0  0  0  0  0
   46.5890   31.6640   41.1820 H   0  0  0  0  0  0  0  0  0  0  0  0
   49.1620   31.0920   41.5200 O   0  0  0  0  0  0  0  0  0  0  0  0
   48.3340   30.6180   41.3560 H   0  0  0  0  0  0  0  0  0  0  0  0
  1 19  1  1  0  0  0
  1  2  1  0  0  0  0
  1  8  1  0  0  0  0
  2  3  1  0  0  0  0
  2 11  1  1  0  0  0
  4  3  1  0  0  0  0
  5  6  1  0  0  0  0
  5  3  1  0  0  0  0
  7  6  1  0  0  0  0
  8 21  1  6  0  0  0
  8  6  1  0  0  0  0
  9 14  1  0  0  0  0
 10 11  1  0  0  0  0
 10  9  2  0  0  0  0
 11 12  2  0  0  0  0
 12 13  1  0  0  0  0
 13 14  2  0  0  0  0
 13 16  1  0  0  0  0
 15 10  1  0  0  0  0
 17  9  1  0  0  0  0
 17 18  1  0  0  0  0
 20 19  1  0  0  0  0
 22 21  1  0  0  0  0
M  END
>  <minimizedAffinity>
-4.70832825

>  <minimizedRMSD>
1.72630095

$$$$
