
 OpenBabel03242519053D

 46 49  0  0  1  0  0  0  0  0999 V2000
   48.9480   33.1670   40.4670 N   0  0  0  0  0  0  0  0  0  0  0  0
   49.9660   33.3180   40.6570 H   0  0  0  0  0  0  0  0  0  0  0  0
   47.3380   33.4280   43.6310 N   0  0  0  0  0  0  0  0  0  0  0  0
   48.1150   34.0720   42.5850 C   0  0  0  0  0  0  0  0  0  0  0  0
   48.0020   33.0190   41.5260 C   0  0  2  0  0  0  0  0  0  0  0  0
   48.3580   31.7610   42.3020 C   0  0  0  0  0  0  0  0  0  0  0  0
   47.7640   32.0340   43.6590 C   0  0  0  0  0  0  0  0  0  0  0  0
   49.1740   34.1750   42.8710 H   0  0  0  0  0  0  0  0  0  0  0  0
   47.6880   35.0300   42.2450 H   0  0  0  0  0  0  0  0  0  0  0  0
   46.9760   32.9450   41.1100 H   0  0  0  0  0  0  0  0  0  0  0  0
   49.4450   31.5710   42.3190 H   0  0  0  0  0  0  0  0  0  0  0  0
   47.8330   30.8910   41.8230 H   0  0  0  0  0  0  0  0  0  0  0  0
   48.5780   31.9320   44.4000 H   0  0  0  0  0  0  0  0  0  0  0  0
   46.9550   31.3380   43.9010 H   0  0  0  0  0  0  0  0  0  0  0  0
   44.5730   35.4290   45.1120 C   0  0  0  0  0  0  0  0  0  0  0  0
   45.5090   34.9960   44.1800 C   0  0  0  0  0  0  0  0  0  0  0  0
   46.3610   33.9410   44.4920 C   0  0  0  0  0  0  0  0  0  0  0  0
   46.2110   33.3910   45.7260 N   0  0  0  0  0  0  0  0  0  0  0  0
   45.3120   33.7980   46.6330 C   0  0  0  0  0  0  0  0  0  0  0  0
   44.4840   34.8320   46.3170 N   0  0  0  0  0  0  0  0  0  0  0  0
   43.9330   36.2530   44.8230 H   0  0  0  0  0  0  0  0  0  0  0  0
   45.6390   35.4310   43.1840 H   0  0  0  0  0  0  0  0  0  0  0  0
   45.2370   33.3200   47.6060 H   0  0  0  0  0  0  0  0  0  0  0  0
   49.2070   32.1090   38.2410 C   0  0  0  0  0  0  0  0  0  0  0  0
   48.8220   33.1590   39.0650 C   0  0  0  0  0  0  0  0  0  0  0  0
   48.2940   34.2190   38.3780 C   0  0  0  0  0  0  0  0  0  0  0  0
   48.1310   34.3020   37.0140 C   0  0  0  0  0  0  0  0  0  0  0  0
   48.5290   33.2340   36.2420 C   0  0  0  0  0  0  0  0  0  0  0  0
   49.0690   32.1340   36.8700 C   0  0  0  0  0  0  0  0  0  0  0  0
   47.9580   35.0970   38.9160 H   0  0  0  0  0  0  0  0  0  0  0  0
   47.7070   35.1660   36.5200 H   0  0  0  0  0  0  0  0  0  0  0  0
   48.4540   33.1790   35.1640 H   0  0  0  0  0  0  0  0  0  0  0  0
   49.1820   29.7390   36.9730 C   0  0  2  0  0  3  0  0  0  0  0  0
   49.5260   30.9360   36.1140 C   0  0  2  0  0  3  0  0  0  0  0  0
   51.0140   30.8990   35.8940 C   0  0  0  0  0  3  0  0  0  0  0  0
   51.1910   30.4470   34.8760 H   0  0  0  0  0  0  0  0  0  0  0  0
   51.6450   30.0370   36.7880 O   0  0  0  0  0  0  0  0  0  0  0  0
   51.3190   28.7210   36.4700 C   0  0  0  0  0  3  0  0  0  0  0  0
   51.6930   28.5340   35.4400 H   0  0  0  0  0  0  0  0  0  0  0  0
   49.8250   28.4680   36.4660 C   0  0  1  0  0  3  0  0  0  0  0  0
   47.8270   29.5130   37.1030 O   0  0  0  0  0  0  0  0  0  0  0  0
   47.4370   29.9770   37.8830 H   0  0  0  0  0  0  0  0  0  0  0  0
   49.4940   27.4660   37.3840 O   0  0  0  0  0  0  0  0  0  0  0  0
   48.7050   27.7290   37.9470 H   0  0  0  0  0  0  0  0  0  0  0  0
   50.2330   29.9950   39.4050 N   0  0  0  0  0  0  0  0  0  0  0  0
   49.7840   30.9280   38.8840 C   0  0  0  0  0  0  0  0  0  0  0  0
  1  2  1  0  0  0  0
  1  5  1  0  0  0  0
  3  7  1  0  0  0  0
  3 17  1  0  0  0  0
  4  8  1  0  0  0  0
  4  3  1  0  0  0  0
  5 10  1  6  0  0  0
  5  6  1  0  0  0  0
  5  4  1  0  0  0  0
  6 11  1  0  0  0  0
  6  7  1  0  0  0  0
  7 14  1  0  0  0  0
  7 13  1  0  0  0  0
  9  4  1  0  0  0  0
 12  6  1  0  0  0  0
 15 20  1  0  0  0  0
 16 17  1  0  0  0  0
 16 15  2  0  0  0  0
 17 18  2  0  0  0  0
 18 19  1  0  0  0  0
 19 23  1  0  0  0  0
 20 19  2  0  0  0  0
 21 15  1  0  0  0  0
 22 16  1  0  0  0  0
 24 46  1  0  0  0  0
 24 25  1  0  0  0  0
 25  1  1  0  0  0  0
 26 30  1  0  0  0  0
 26 25  2  0  0  0  0
 27 26  1  0  0  0  0
 28 29  1  0  0  0  0
 28 27  2  0  0  0  0
 29 24  2  0  0  0  0
 31 27  1  0  0  0  0
 32 28  1  0  0  0  0
 33 41  1  6  0  0  0
 34 29  1  1  0  0  0
 34 33  1  0  0  0  0
 35 34  1  0  0  0  0
 35 37  1  0  0  0  0
 36 35  1  0  0  0  0
 38 37  1  0  0  0  0
 39 38  1  0  0  0  0
 40 38  1  0  0  0  0
 40 33  1  0  0  0  0
 40 43  1  1  0  0  0
 41 42  1  0  0  0  0
 43 44  1  0  0  0  0
 46 45  3  0  0  0  0
M  END
>  <minimizedAffinity>
-4.42857504

>  <minimizedRMSD>
0.74036479

$$$$
