
 OpenBabel03252504323D

 43 45  0  0  1  0  0  0  0  0999 V2000
   41.2530   35.5810   41.4940 C   0  0  0  0  0  0  0  0  0  0  0  0
   41.2840   35.4320   42.6040 H   0  0  0  0  0  0  0  0  0  0  0  0
   40.7190   36.5380   41.3280 H   0  0  0  0  0  0  0  0  0  0  0  0
   40.4490   33.2820   41.7310 C   0  0  0  0  0  0  0  0  0  0  0  0
   40.3230   34.5000   41.0250 C   0  0  0  0  0  0  0  0  0  0  0  0
   39.4000   34.5500   40.0300 C   0  0  0  0  0  0  0  0  0  0  0  0
   38.6900   33.4570   39.7990 N   0  0  0  0  0  0  0  0  0  0  0  0
   38.8050   32.3180   40.4550 C   0  0  0  0  0  0  0  0  0  0  0  0
   39.7270   32.1860   41.4880 N   0  0  0  0  0  0  0  0  0  0  0  0
   41.1630   33.1640   42.5360 H   0  0  0  0  0  0  0  0  0  0  0  0
   39.3490   35.5070   39.5260 H   0  0  0  0  0  0  0  0  0  0  0  0
   38.7490   30.1300   39.3290 C   0  0  1  0  0  3  0  0  0  0  0  0
   37.9670   31.1280   40.1360 C   0  0  1  0  0  3  0  0  0  0  0  0
   37.4450   30.4730   41.4060 C   0  0  0  0  0  3  0  0  0  0  0  0
   36.6530   31.1200   41.8750 H   0  0  0  0  0  0  0  0  0  0  0  0
   36.9630   29.2030   41.1660 O   0  0  0  0  0  0  0  0  0  0  0  0
   38.0400   28.3680   40.9640 C   0  0  0  0  0  3  0  0  0  0  0  0
   38.3890   28.0270   41.9680 H   0  0  0  0  0  0  0  0  0  0  0  0
   39.1630   28.9670   40.1840 C   0  0  2  0  0  3  0  0  0  0  0  0
   38.0600   29.7140   38.1870 O   0  0  0  0  0  0  0  0  0  0  0  0
   37.1080   29.5700   38.3300 H   0  0  0  0  0  0  0  0  0  0  0  0
   40.1560   29.4330   41.0750 O   0  0  0  0  0  0  0  0  0  0  0  0
   41.0010   29.5480   40.5560 H   0  0  0  0  0  0  0  0  0  0  0  0
   42.4430   35.5700   40.8300 O   0  0  0  0  0  0  0  0  0  0  0  0
   43.7200   35.4750   41.3600 C   0  0  0  0  0  3  0  0  0  0  0  0
   43.8170   35.6380   42.6750 C   0  0  0  0  0  3  0  0  0  0  0  0
   45.0990   35.5770   43.4850 C   0  0  0  0  0  0  0  0  0  0  0  0
   45.3550   36.5800   43.8690 H   0  0  0  0  0  0  0  0  0  0  0  0
   45.8710   35.2290   42.7640 H   0  0  0  0  0  0  0  0  0  0  0  0
   44.9140   34.6300   44.4740 O   0  0  0  0  0  0  0  0  0  0  0  0
   45.5960   32.5310   42.9840 O   0  0  0  0  0  0  0  0  0  0  0  0
   45.9350   33.3100   44.2330 P   0  0  1  0  0  0  0  0  0  0  0  0
   47.5470   33.8410   44.0610 O   0  0  0  0  0  0  0  0  0  0  0  0
   47.7770   34.2560   44.9300 H   0  0  0  0  0  0  0  0  0  0  0  0
   45.8960   32.2910   45.5780 O   0  0  0  0  0  0  0  0  0  0  0  0
   46.1610   32.9610   46.7520 C   0  0  0  0  0  0  0  0  0  0  0  0
   47.0440   32.3210   47.7770 C   0  0  0  0  0  0  0  0  0  0  0  0
   45.5500   32.3700   47.9980 C   0  0  0  0  0  0  0  0  0  0  0  0
   46.1770   34.0590   46.6690 H   0  0  0  0  0  0  0  0  0  0  0  0
   47.5320   31.3650   47.5270 H   0  0  0  0  0  0  0  0  0  0  0  0
   47.6100   33.0240   48.4170 H   0  0  0  0  0  0  0  0  0  0  0  0
   45.1420   33.0450   48.7880 H   0  0  0  0  0  0  0  0  0  0  0  0
   45.0690   31.3680   47.9320 H   0  0  0  0  0  0  0  0  0  0  0  0
  1  2  1  0  0  0  0
  3  1  1  0  0  0  0
  4 10  1  0  0  0  0
  5  1  1  0  0  0  0
  5  4  2  0  0  0  0
  6  5  1  0  0  0  0
  7  6  2  0  0  0  0
  7  8  1  0  0  0  0
  8  9  2  0  0  0  0
  9  4  1  0  0  0  0
 11  6  1  0  0  0  0
 12 20  1  6  0  0  0
 12 13  1  0  0  0  0
 12 19  1  0  0  0  0
 13  8  1  1  0  0  0
 13 14  1  0  0  0  0
 14 15  1  0  0  0  0
 16 14  1  0  0  0  0
 17 16  1  0  0  0  0
 17 18  1  0  0  0  0
 19 17  1  0  0  0  0
 19 22  1  1  0  0  0
 20 21  1  0  0  0  0
 23 22  1  0  0  0  0
 24 25  1  0  0  0  0
 24  1  1  0  0  0  0
 25 26  2  0  0  0  0
 26 27  1  0  0  0  0
 27 28  1  0  0  0  0
 27 30  1  0  0  0  0
 29 27  1  0  0  0  0
 32 31  2  6  0  0  0
 32 30  1  0  0  0  0
 32 35  1  0  0  0  0
 33 32  1  0  0  0  0
 33 34  1  0  0  0  0
 35 36  1  0  0  0  0
 36 37  1  0  0  0  0
 36 38  1  0  0  0  0
 37 38  1  0  0  0  0
 37 41  1  0  0  0  0
 38 42  1  0  0  0  0
 39 36  1  0  0  0  0
 40 37  1  0  0  0  0
 43 38  1  0  0  0  0
M  END
>  <minimizedAffinity>
-5.18035889

>  <minimizedRMSD>
0.743108511

$$$$
