
 OpenBabel03242511353D

 38 40  0  0  1  0  0  0  0  0999 V2000
   38.5320   30.8070   41.2690 C   0  0  0  0  0  0  0  0  0  0  0  0
   37.2100   30.9840   40.7980 C   0  0  0  0  0  0  0  0  0  0  0  0
   36.9820   31.8160   39.6860 C   0  0  0  0  0  0  0  0  0  0  0  0
   38.0660   32.4030   39.1310 N   0  0  0  0  0  0  0  0  0  0  0  0
   39.3230   32.2170   39.6020 C   0  0  0  0  0  0  0  0  0  0  0  0
   39.5140   31.4290   40.6500 N   0  0  0  0  0  0  0  0  0  0  0  0
   36.3210   30.5230   41.2280 H   0  0  0  0  0  0  0  0  0  0  0  0
   35.9750   31.9650   39.3110 H   0  0  0  0  0  0  0  0  0  0  0  0
   40.7950   32.2230   37.6220 C   0  0  2  0  0  3  0  0  0  0  0  0
   40.4210   32.9340   38.8830 C   0  0  2  0  0  3  0  0  0  0  0  0
   41.6520   33.0630   39.7400 C   0  0  0  0  0  3  0  0  0  0  0  0
   41.3660   32.9060   40.8030 H   0  0  0  0  0  0  0  0  0  0  0  0
   42.6090   32.0970   39.4340 O   0  0  0  0  0  0  0  0  0  0  0  0
   43.1730   32.3110   38.1800 C   0  0  0  0  0  3  0  0  0  0  0  0
   43.6920   31.3710   37.8970 H   0  0  0  0  0  0  0  0  0  0  0  0
   42.1590   32.6380   37.1350 C   0  0  2  0  0  3  0  0  0  0  0  0
   39.8750   32.4630   36.5950 O   0  0  0  0  0  0  0  0  0  0  0  0
   39.5230   33.3800   36.7050 H   0  0  0  0  0  0  0  0  0  0  0  0
   42.1970   33.9950   36.7680 O   0  0  0  0  0  0  0  0  0  0  0  0
   41.3490   34.2790   36.3510 H   0  0  0  0  0  0  0  0  0  0  0  0
   38.7030   29.9350   42.4210 C   0  0  0  0  0  3  0  0  0  0  0  0
   38.6390   28.6190   42.2270 C   0  0  0  0  0  3  0  0  0  0  0  0
   38.7990   27.6430   43.3230 C   0  0  0  0  0  0  0  0  0  0  0  0
   39.5860   27.9420   44.0200 H   0  0  0  0  0  0  0  0  0  0  0  0
   37.8280   27.6250   43.8920 H   0  0  0  0  0  0  0  0  0  0  0  0
   41.0170   24.8800   42.6350 C   0  0  1  0  0  0  0  0  0  0  0  0
   40.1060   25.5290   43.6770 C   0  0  0  0  0  0  0  0  0  0  0  0
   39.1430   26.2490   42.7950 C   0  0  2  0  0  0  0  0  0  0  0  0
   39.6390   26.2970   41.5180 O   0  0  0  0  0  0  0  0  0  0  0  0
   40.9570   25.9080   41.5320 C   0  0  0  0  0  0  0  0  0  0  0  0
   40.5490   23.9370   42.2890 H   0  0  0  0  0  0  0  0  0  0  0  0
   40.7090   26.2170   44.2930 H   0  0  0  0  0  0  0  0  0  0  0  0
   39.5440   24.7860   44.2660 H   0  0  0  0  0  0  0  0  0  0  0  0
   38.1580   25.7220   42.7480 H   0  0  0  0  0  0  0  0  0  0  0  0
   41.6800   26.7270   41.6590 H   0  0  0  0  0  0  0  0  0  0  0  0
   41.1930   25.3700   40.5780 H   0  0  0  0  0  0  0  0  0  0  0  0
   42.3000   24.7220   43.1430 O   0  0  0  0  0  0  0  0  0  0  0  0
   42.3030   23.8890   43.6760 H   0  0  0  0  0  0  0  0  0  0  0  0
  1 21  1  0  0  0  0
  2  7  1  0  0  0  0
  2  1  1  0  0  0  0
  3  2  2  0  0  0  0
  4  5  2  0  0  0  0
  4  3  1  0  0  0  0
  5  6  1  0  0  0  0
  6  1  2  0  0  0  0
  8  3  1  0  0  0  0
  9 17  1  6  0  0  0
  9 10  1  0  0  0  0
 10  5  1  1  0  0  0
 10 11  1  0  0  0  0
 11 12  1  0  0  0  0
 13 11  1  0  0  0  0
 14 13  1  0  0  0  0
 15 14  1  0  0  0  0
 16 19  1  1  0  0  0
 16  9  1  0  0  0  0
 16 14  1  0  0  0  0
 17 18  1  0  0  0  0
 20 19  1  0  0  0  0
 22 21  2  0  0  0  0
 22 23  1  0  0  0  0
 23 25  1  0  0  0  0
 23 24  1  0  0  0  0
 26 31  1  6  0  0  0
 26 37  1  0  0  0  0
 26 27  1  0  0  0  0
 27 33  1  0  0  0  0
 27 32  1  0  0  0  0
 28 34  1  6  0  0  0
 28 23  1  0  0  0  0
 28 27  1  0  0  0  0
 29 30  1  0  0  0  0
 29 28  1  0  0  0  0
 30 35  1  0  0  0  0
 30 26  1  0  0  0  0
 36 30  1  0  0  0  0
 37 38  1  0  0  0  0
M  END
>  <minimizedAffinity>
-6.55359936

$$$$

 OpenBabel03242511353D

 38 40  0  0  1  0  0  0  0  0999 V2000
   38.7330   30.4430   40.9010 C   0  0  0  0  0  0  0  0  0  0  0  0
   37.4390   31.0120   40.9380 C   0  0  0  0  0  0  0  0  0  0  0  0
   37.2070   32.2390   40.2870 C   0  0  0  0  0  0  0  0  0  0  0  0
   38.2630   32.8020   39.6570 N   0  0  0  0  0  0  0  0  0  0  0  0
   39.4930   32.2360   39.6360 C   0  0  0  0  0  0  0  0  0  0  0  0
   39.6880   31.0810   40.2560 N   0  0  0  0  0  0  0  0  0  0  0  0
   36.5730   30.5780   41.4400 H   0  0  0  0  0  0  0  0  0  0  0  0
   36.2220   32.6910   40.3050 H   0  0  0  0  0  0  0  0  0  0  0  0
   40.9510   32.2610   37.6450 C   0  0  2  0  0  3  0  0  0  0  0  0
   40.5600   32.9790   38.8970 C   0  0  2  0  0  3  0  0  0  0  0  0
   41.7920   33.1650   39.7430 C   0  0  0  0  0  3  0  0  0  0  0  0
   41.5190   33.0160   40.8110 H   0  0  0  0  0  0  0  0  0  0  0  0
   42.7800   32.2280   39.4460 O   0  0  0  0  0  0  0  0  0  0  0  0
   43.3280   32.4410   38.1840 C   0  0  0  0  0  3  0  0  0  0  0  0
   43.8780   31.5160   37.9130 H   0  0  0  0  0  0  0  0  0  0  0  0
   42.2960   32.7160   37.1420 C   0  0  2  0  0  3  0  0  0  0  0  0
   40.0160   32.4520   36.6210 O   0  0  0  0  0  0  0  0  0  0  0  0
   39.6330   33.3580   36.7200 H   0  0  0  0  0  0  0  0  0  0  0  0
   42.2830   34.0670   36.7530 O   0  0  0  0  0  0  0  0  0  0  0  0
   41.4240   34.3140   36.3370 H   0  0  0  0  0  0  0  0  0  0  0  0
   38.9080   29.1740   41.5920 C   0  0  0  0  0  3  0  0  0  0  0  0
   37.8860   28.3200   41.6030 C   0  0  0  0  0  3  0  0  0  0  0  0
   37.9540   27.0060   42.2720 C   0  0  0  0  0  0  0  0  0  0  0  0
   38.9820   26.6400   42.3420 H   0  0  0  0  0  0  0  0  0  0  0  0
   37.5720   27.1500   43.3210 H   0  0  0  0  0  0  0  0  0  0  0  0
   37.3400   23.7180   40.9150 C   0  0  1  0  0  0  0  0  0  0  0  0
   37.2420   24.6010   42.1590 C   0  0  0  0  0  0  0  0  0  0  0  0
   37.1290   25.9510   41.5340 C   0  0  2  0  0  0  0  0  0  0  0  0
   37.4700   25.8720   40.2100 O   0  0  0  0  0  0  0  0  0  0  0  0
   38.0510   24.6520   39.9650 C   0  0  0  0  0  0  0  0  0  0  0  0
   36.3180   23.5160   40.5390 H   0  0  0  0  0  0  0  0  0  0  0  0
   38.1680   24.4850   42.7480 H   0  0  0  0  0  0  0  0  0  0  0  0
   36.3240   24.4120   42.7380 H   0  0  0  0  0  0  0  0  0  0  0  0
   36.0810   26.3380   41.5840 H   0  0  0  0  0  0  0  0  0  0  0  0
   39.1460   24.6310   40.0710 H   0  0  0  0  0  0  0  0  0  0  0  0
   37.7870   24.3180   38.9290 H   0  0  0  0  0  0  0  0  0  0  0  0
   38.0800   22.5750   41.1870 O   0  0  0  0  0  0  0  0  0  0  0  0
   37.4670   21.9240   41.6100 H   0  0  0  0  0  0  0  0  0  0  0  0
  1  2  1  0  0  0  0
  1 21  1  0  0  0  0
  2  7  1  0  0  0  0
  3  8  1  0  0  0  0
  3  2  2  0  0  0  0
  4  3  1  0  0  0  0
  5  4  2  0  0  0  0
  5  6  1  0  0  0  0
  6  1  2  0  0  0  0
  9 17  1  6  0  0  0
  9 10  1  0  0  0  0
 10  5  1  1  0  0  0
 10 11  1  0  0  0  0
 11 12  1  0  0  0  0
 13 11  1  0  0  0  0
 14 13  1  0  0  0  0
 15 14  1  0  0  0  0
 16 19  1  1  0  0  0
 16  9  1  0  0  0  0
 16 14  1  0  0  0  0
 17 18  1  0  0  0  0
 20 19  1  0  0  0  0
 21 22  2  0  0  0  0
 22 23  1  0  0  0  0
 23 24  1  0  0  0  0
 23 25  1  0  0  0  0
 26 31  1  6  0  0  0
 26 37  1  0  0  0  0
 26 27  1  0  0  0  0
 27 33  1  0  0  0  0
 27 32  1  0  0  0  0
 28 34  1  1  0  0  0
 28 27  1  0  0  0  0
 28 23  1  0  0  0  0
 29 28  1  0  0  0  0
 30 35  1  0  0  0  0
 30 29  1  0  0  0  0
 30 26  1  0  0  0  0
 36 30  1  0  0  0  0
 37 38  1  0  0  0  0
M  END
>  <minimizedAffinity>
-6.24014902

$$$$

 OpenBabel03242511353D

 38 40  0  0  1  0  0  0  0  0999 V2000
   36.6780   28.5520   38.2640 C   0  0  0  0  0  0  0  0  0  0  0  0
   36.2790   28.5600   36.9080 C   0  0  0  0  0  0  0  0  0  0  0  0
   36.5550   29.6900   36.1160 C   0  0  0  0  0  0  0  0  0  0  0  0
   37.1990   30.7150   36.7200 N   0  0  0  0  0  0  0  0  0  0  0  0
   37.5710   30.6810   38.0230 C   0  0  0  0  0  0  0  0  0  0  0  0
   37.3000   29.6070   38.7490 N   0  0  0  0  0  0  0  0  0  0  0  0
   35.7580   27.7480   36.3990 H   0  0  0  0  0  0  0  0  0  0  0  0
   36.2560   29.7160   35.0740 H   0  0  0  0  0  0  0  0  0  0  0  0
   39.7150   31.8970   38.1420 C   0  0  2  0  0  3  0  0  0  0  0  0
   38.2760   31.8910   38.5490 C   0  0  2  0  0  3  0  0  0  0  0  0
   38.2060   31.9620   40.0510 C   0  0  0  0  0  3  0  0  0  0  0  0
   37.3790   31.3060   40.4020 H   0  0  0  0  0  0  0  0  0  0  0  0
   39.3730   31.4980   40.6540 O   0  0  0  0  0  0  0  0  0  0  0  0
   40.4450   32.3550   40.4300 C   0  0  0  0  0  3  0  0  0  0  0  0
   41.3670   31.7910   40.6830 H   0  0  0  0  0  0  0  0  0  0  0  0
   40.5320   32.8160   39.0120 C   0  0  2  0  0  3  0  0  0  0  0  0
   39.8790   32.2990   36.8110 O   0  0  0  0  0  0  0  0  0  0  0  0
   39.1740   32.9600   36.6000 H   0  0  0  0  0  0  0  0  0  0  0  0
   40.1460   34.1600   38.8680 O   0  0  0  0  0  0  0  0  0  0  0  0
   39.8880   34.3630   37.9390 H   0  0  0  0  0  0  0  0  0  0  0  0
   36.3630   27.3550   39.0300 C   0  0  0  0  0  3  0  0  0  0  0  0
   37.1780   27.0150   40.0270 C   0  0  0  0  0  3  0  0  0  0  0  0
   36.9540   25.8230   40.8670 C   0  0  0  0  0  0  0  0  0  0  0  0
   35.9320   25.4470   40.7730 H   0  0  0  0  0  0  0  0  0  0  0  0
   37.6490   25.0200   40.4930 H   0  0  0  0  0  0  0  0  0  0  0  0
   37.7750   27.9450   43.6700 C   0  0  1  0  0  0  0  0  0  0  0  0
   36.6500   27.4300   42.7720 C   0  0  0  0  0  0  0  0  0  0  0  0
   37.2120   26.1160   42.3470 C   0  0  2  0  0  0  0  0  0  0  0  0
   38.5480   26.0700   42.6490 O   0  0  0  0  0  0  0  0  0  0  0  0
   38.9760   27.3290   42.9930 C   0  0  0  0  0  0  0  0  0  0  0  0
   37.6550   27.5070   44.6800 H   0  0  0  0  0  0  0  0  0  0  0  0
   36.5250   28.1290   41.9280 H   0  0  0  0  0  0  0  0  0  0  0  0
   35.7190   27.2410   43.3310 H   0  0  0  0  0  0  0  0  0  0  0  0
   36.7210   25.2670   42.8840 H   0  0  0  0  0  0  0  0  0  0  0  0
   39.3620   27.9310   42.1570 H   0  0  0  0  0  0  0  0  0  0  0  0
   39.7760   27.2470   43.7720 H   0  0  0  0  0  0  0  0  0  0  0  0
   37.8120   29.3330   43.6540 O   0  0  0  0  0  0  0  0  0  0  0  0
   37.1380   29.6510   44.3040 H   0  0  0  0  0  0  0  0  0  0  0  0
  1  6  1  0  0  0  0
  1 21  1  0  0  0  0
  2  1  2  0  0  0  0
  3  4  2  0  0  0  0
  3  2  1  0  0  0  0
  4  5  1  0  0  0  0
  5  6  2  0  0  0  0
  7  2  1  0  0  0  0
  8  3  1  0  0  0  0
  9 17  1  6  0  0  0
  9 10  1  0  0  0  0
  9 16  1  0  0  0  0
 10  5  1  1  0  0  0
 10 11  1  0  0  0  0
 11 12  1  0  0  0  0
 11 13  1  0  0  0  0
 14 13  1  0  0  0  0
 14 15  1  0  0  0  0
 16 19  1  1  0  0  0
 16 14  1  0  0  0  0
 18 17  1  0  0  0  0
 20 19  1  0  0  0  0
 21 22  2  0  0  0  0
 22 23  1  0  0  0  0
 23 28  1  0  0  0  0
 24 23  1  0  0  0  0
 25 23  1  0  0  0  0
 26 31  1  1  0  0  0
 27 33  1  0  0  0  0
 27 26  1  0  0  0  0
 28 29  1  0  0  0  0
 28 27  1  0  0  0  0
 28 34  1  1  0  0  0
 29 30  1  0  0  0  0
 30 26  1  0  0  0  0
 30 36  1  0  0  0  0
 32 27  1  0  0  0  0
 35 30  1  0  0  0  0
 37 26  1  0  0  0  0
 37 38  1  0  0  0  0
M  END
>  <minimizedAffinity>
-6.04702139

$$$$

 OpenBabel03242511353D

 38 40  0  0  1  0  0  0  0  0999 V2000
   37.5410   26.8870   41.6430 C   0  0  0  0  0  0  0  0  0  0  0  0
   38.2650   26.6270   42.8290 C   0  0  0  0  0  0  0  0  0  0  0  0
   38.8990   27.6920   43.4960 C   0  0  0  0  0  0  0  0  0  0  0  0
   38.7700   28.9200   42.9430 N   0  0  0  0  0  0  0  0  0  0  0  0
   38.0700   29.1420   41.8040 C   0  0  0  0  0  0  0  0  0  0  0  0
   37.4810   28.1240   41.1940 N   0  0  0  0  0  0  0  0  0  0  0  0
   38.3840   25.6470   43.2940 H   0  0  0  0  0  0  0  0  0  0  0  0
   39.4600   27.5120   44.4070 H   0  0  0  0  0  0  0  0  0  0  0  0
   36.7800   30.8020   40.5130 C   0  0  2  0  0  3  0  0  0  0  0  0
   38.0170   30.5540   41.3160 C   0  0  2  0  0  3  0  0  0  0  0  0
   39.2120   30.8900   40.4630 C   0  0  0  0  0  3  0  0  0  0  0  0
   40.0140   30.1450   40.6620 H   0  0  0  0  0  0  0  0  0  0  0  0
   38.9230   30.8170   39.1020 O   0  0  0  0  0  0  0  0  0  0  0  0
   38.0600   31.8320   38.7040 C   0  0  0  0  0  3  0  0  0  0  0  0
   37.6610   31.5440   37.7090 H   0  0  0  0  0  0  0  0  0  0  0  0
   36.9180   32.0260   39.6460 C   0  0  2  0  0  3  0  0  0  0  0  0
   35.6550   30.9730   41.3290 O   0  0  0  0  0  0  0  0  0  0  0  0
   35.9460   31.4100   42.1670 H   0  0  0  0  0  0  0  0  0  0  0  0
   37.0550   33.2000   40.4080 O   0  0  0  0  0  0  0  0  0  0  0  0
   36.5090   33.1620   41.2280 H   0  0  0  0  0  0  0  0  0  0  0  0
   36.9080   25.7440   41.0010 C   0  0  0  0  0  3  0  0  0  0  0  0
   36.6740   25.8100   39.6920 C   0  0  0  0  0  3  0  0  0  0  0  0
   36.0390   24.7100   38.9400 C   0  0  0  0  0  0  0  0  0  0  0  0
   36.7280   23.8750   38.7830 H   0  0  0  0  0  0  0  0  0  0  0  0
   35.1840   24.3320   39.5670 H   0  0  0  0  0  0  0  0  0  0  0  0
   33.8280   26.4910   36.7110 C   0  0  1  0  0  0  0  0  0  0  0  0
   35.0810   26.5910   37.5820 C   0  0  0  0  0  0  0  0  0  0  0  0
   35.5420   25.1730   37.5690 C   0  0  2  0  0  0  0  0  0  0  0  0
   34.5390   24.3690   37.0930 O   0  0  0  0  0  0  0  0  0  0  0  0
   33.3710   25.0900   37.0390 C   0  0  0  0  0  0  0  0  0  0  0  0
   34.1270   26.5430   35.6460 H   0  0  0  0  0  0  0  0  0  0  0  0
   34.7850   26.9300   38.5890 H   0  0  0  0  0  0  0  0  0  0  0  0
   35.8660   27.2120   37.1200 H   0  0  0  0  0  0  0  0  0  0  0  0
   36.4240   25.0350   36.8970 H   0  0  0  0  0  0  0  0  0  0  0  0
   32.7510   25.0350   37.9460 H   0  0  0  0  0  0  0  0  0  0  0  0
   32.7610   24.7400   36.1680 H   0  0  0  0  0  0  0  0  0  0  0  0
   32.8980   27.4530   37.0860 O   0  0  0  0  0  0  0  0  0  0  0  0
   33.1530   28.2960   36.6360 H   0  0  0  0  0  0  0  0  0  0  0  0
  1  2  1  0  0  0  0
  2  7  1  0  0  0  0
  2  3  2  0  0  0  0
  3  8  1  0  0  0  0
  4  3  1  0  0  0  0
  5  4  2  0  0  0  0
  6  1  2  0  0  0  0
  6  5  1  0  0  0  0
  9 10  1  0  0  0  0
  9 17  1  1  0  0  0
 10  5  1  6  0  0  0
 11 12  1  0  0  0  0
 11 10  1  0  0  0  0
 13 11  1  0  0  0  0
 14 13  1  0  0  0  0
 14 16  1  0  0  0  0
 15 14  1  0  0  0  0
 16 19  1  1  0  0  0
 16  9  1  0  0  0  0
 17 18  1  0  0  0  0
 19 20  1  0  0  0  0
 21  1  1  0  0  0  0
 22 21  2  0  0  0  0
 23 25  1  0  0  0  0
 23 22  1  0  0  0  0
 24 23  1  0  0  0  0
 26 31  1  6  0  0  0
 26 30  1  0  0  0  0
 26 37  1  0  0  0  0
 26 27  1  0  0  0  0
 27 32  1  0  0  0  0
 28 34  1  6  0  0  0
 28 27  1  0  0  0  0
 28 23  1  0  0  0  0
 29 28  1  0  0  0  0
 30 29  1  0  0  0  0
 30 35  1  0  0  0  0
 33 27  1  0  0  0  0
 36 30  1  0  0  0  0
 38 37  1  0  0  0  0
M  END
>  <minimizedAffinity>
-5.91706944

$$$$

 OpenBabel03242511353D

 38 40  0  0  1  0  0  0  0  0999 V2000
   34.8100   28.3000   37.6960 C   0  0  0  0  0  0  0  0  0  0  0  0
   35.0780   27.0250   37.1460 C   0  0  0  0  0  0  0  0  0  0  0  0
   35.8080   26.0890   37.9010 C   0  0  0  0  0  0  0  0  0  0  0  0
   36.2140   26.4810   39.1300 N   0  0  0  0  0  0  0  0  0  0  0  0
   35.9440   27.7090   39.6350 C   0  0  0  0  0  0  0  0  0  0  0  0
   35.2550   28.5740   38.9060 N   0  0  0  0  0  0  0  0  0  0  0  0
   34.7630   26.6860   36.1580 H   0  0  0  0  0  0  0  0  0  0  0  0
   36.0240   25.1070   37.4950 H   0  0  0  0  0  0  0  0  0  0  0  0
   36.7940   29.4450   41.1690 C   0  0  2  0  0  3  0  0  0  0  0  0
   36.4600   27.9960   41.0090 C   0  0  2  0  0  3  0  0  0  0  0  0
   37.6920   27.1880   41.3180 C   0  0  0  0  0  3  0  0  0  0  0  0
   37.7440   26.3310   40.6100 H   0  0  0  0  0  0  0  0  0  0  0  0
   38.8610   27.9250   41.1450 O   0  0  0  0  0  0  0  0  0  0  0  0
   38.9890   28.9210   42.1080 C   0  0  0  0  0  3  0  0  0  0  0  0
   39.7660   29.6240   41.7420 H   0  0  0  0  0  0  0  0  0  0  0  0
   37.7200   29.6750   42.3340 C   0  0  2  0  0  3  0  0  0  0  0  0
   35.6480   30.2260   41.3630 O   0  0  0  0  0  0  0  0  0  0  0  0
   34.9890   29.6850   41.8640 H   0  0  0  0  0  0  0  0  0  0  0  0
   37.1180   29.3420   43.5600 O   0  0  0  0  0  0  0  0  0  0  0  0
   36.1580   29.5680   43.5630 H   0  0  0  0  0  0  0  0  0  0  0  0
   34.0500   29.2230   36.8670 C   0  0  0  0  0  3  0  0  0  0  0  0
   32.7210   29.1590   36.9130 C   0  0  0  0  0  3  0  0  0  0  0  0
   31.8530   30.0460   36.1150 C   0  0  0  0  0  0  0  0  0  0  0  0
   32.4060   30.8980   35.7100 H   0  0  0  0  0  0  0  0  0  0  0  0
   31.4730   29.4420   35.2450 H   0  0  0  0  0  0  0  0  0  0  0  0
   29.0770   29.7730   38.4060 C   0  0  1  0  0  0  0  0  0  0  0  0
   30.5910   29.9470   38.2830 C   0  0  0  0  0  0  0  0  0  0  0  0
   30.6880   30.5940   36.9420 C   0  0  2  0  0  0  0  0  0  0  0  0
   29.4930   30.4670   36.2850 O   0  0  0  0  0  0  0  0  0  0  0  0
   28.7010   29.5690   36.9590 C   0  0  0  0  0  0  0  0  0  0  0  0
   28.6360   30.7210   38.7730 H   0  0  0  0  0  0  0  0  0  0  0  0
   31.0640   28.9510   38.3070 H   0  0  0  0  0  0  0  0  0  0  0  0
   30.9960   30.6470   39.0320 H   0  0  0  0  0  0  0  0  0  0  0  0
   30.9040   31.6870   37.0300 H   0  0  0  0  0  0  0  0  0  0  0  0
   28.7980   28.5250   36.6260 H   0  0  0  0  0  0  0  0  0  0  0  0
   27.6280   29.8750   36.8600 H   0  0  0  0  0  0  0  0  0  0  0  0
   28.7780   28.6680   39.1920 O   0  0  0  0  0  0  0  0  0  0  0  0
   28.8290   28.9580   40.1360 H   0  0  0  0  0  0  0  0  0  0  0  0
  1  6  1  0  0  0  0
  2  1  2  0  0  0  0
  2  3  1  0  0  0  0
  3  4  2  0  0  0  0
  4  5  1  0  0  0  0
  6  5  2  0  0  0  0
  7  2  1  0  0  0  0
  8  3  1  0  0  0  0
  9 17  1  1  0  0  0
  9 16  1  0  0  0  0
 10  5  1  6  0  0  0
 10  9  1  0  0  0  0
 10 11  1  0  0  0  0
 12 11  1  0  0  0  0
 13 11  1  0  0  0  0
 13 14  1  0  0  0  0
 14 16  1  0  0  0  0
 15 14  1  0  0  0  0
 16 19  1  1  0  0  0
 17 18  1  0  0  0  0
 19 20  1  0  0  0  0
 21 22  2  0  0  0  0
 21  1  1  0  0  0  0
 23 22  1  0  0  0  0
 23 28  1  0  0  0  0
 24 23  1  0  0  0  0
 25 23  1  0  0  0  0
 26 31  1  1  0  0  0
 26 37  1  0  0  0  0
 27 32  1  0  0  0  0
 27 26  1  0  0  0  0
 27 33  1  0  0  0  0
 28 34  1  1  0  0  0
 28 27  1  0  0  0  0
 29 28  1  0  0  0  0
 29 30  1  0  0  0  0
 30 26  1  0  0  0  0
 35 30  1  0  0  0  0
 36 30  1  0  0  0  0
 37 38  1  0  0  0  0
M  END
>  <minimizedAffinity>
-5.8891921

$$$$

 OpenBabel03242511353D

 38 40  0  0  1  0  0  0  0  0999 V2000
   37.8450   27.3800   42.2330 C   0  0  0  0  0  0  0  0  0  0  0  0
   39.0260   27.1880   42.9870 C   0  0  0  0  0  0  0  0  0  0  0  0
   39.9230   28.2610   43.1450 C   0  0  0  0  0  0  0  0  0  0  0  0
   39.5860   29.4290   42.5520 N   0  0  0  0  0  0  0  0  0  0  0  0
   38.4470   29.5870   41.8350 C   0  0  0  0  0  0  0  0  0  0  0  0
   37.6180   28.5630   41.7000 N   0  0  0  0  0  0  0  0  0  0  0  0
   39.3190   26.2570   43.4730 H   0  0  0  0  0  0  0  0  0  0  0  0
   40.8340   28.1330   43.7190 H   0  0  0  0  0  0  0  0  0  0  0  0
   36.9360   30.9720   40.4620 C   0  0  2  0  0  3  0  0  0  0  0  0
   38.2130   30.9380   41.2400 C   0  0  2  0  0  3  0  0  0  0  0  0
   39.3380   31.3420   40.3240 C   0  0  0  0  0  3  0  0  0  0  0  0
   40.2280   30.7160   40.5540 H   0  0  0  0  0  0  0  0  0  0  0  0
   39.0280   31.1250   38.9830 O   0  0  0  0  0  0  0  0  0  0  0  0
   38.0390   31.9950   38.5360 C   0  0  0  0  0  3  0  0  0  0  0  0
   37.6550   31.5810   37.5800 H   0  0  0  0  0  0  0  0  0  0  0  0
   36.9050   32.1280   39.4970 C   0  0  2  0  0  3  0  0  0  0  0  0
   35.8180   31.0740   41.2990 O   0  0  0  0  0  0  0  0  0  0  0  0
   36.0740   31.6090   42.0900 H   0  0  0  0  0  0  0  0  0  0  0  0
   36.9160   33.3680   40.1600 O   0  0  0  0  0  0  0  0  0  0  0  0
   36.3990   33.3320   40.9990 H   0  0  0  0  0  0  0  0  0  0  0  0
   36.9580   26.2320   42.1060 C   0  0  0  0  0  3  0  0  0  0  0  0
   37.3230   25.2440   41.2910 C   0  0  0  0  0  3  0  0  0  0  0  0
   36.5020   24.0350   41.0890 C   0  0  0  0  0  0  0  0  0  0  0  0
   36.1880   23.5950   42.0380 H   0  0  0  0  0  0  0  0  0  0  0  0
   35.5740   24.3550   40.5380 H   0  0  0  0  0  0  0  0  0  0  0  0
   38.9600   22.8640   38.7180 C   0  0  1  0  0  0  0  0  0  0  0  0
   38.7110   23.2710   40.1710 C   0  0  0  0  0  0  0  0  0  0  0  0
   37.2570   22.9630   40.3000 C   0  0  2  0  0  0  0  0  0  0  0  0
   36.7170   22.7710   39.0560 O   0  0  0  0  0  0  0  0  0  0  0  0
   37.6180   23.1830   38.1040 C   0  0  0  0  0  0  0  0  0  0  0  0
   39.1340   21.7710   38.6780 H   0  0  0  0  0  0  0  0  0  0  0  0
   38.9250   24.3480   40.2770 H   0  0  0  0  0  0  0  0  0  0  0  0
   39.2610   22.6380   40.8860 H   0  0  0  0  0  0  0  0  0  0  0  0
   37.0880   22.0240   40.8830 H   0  0  0  0  0  0  0  0  0  0  0  0
   37.5190   24.2350   37.7970 H   0  0  0  0  0  0  0  0  0  0  0  0
   37.5190   22.5360   37.1960 H   0  0  0  0  0  0  0  0  0  0  0  0
   39.9870   23.6220   38.1710 O   0  0  0  0  0  0  0  0  0  0  0  0
   40.8390   23.2000   38.4430 H   0  0  0  0  0  0  0  0  0  0  0  0
  1  2  1  0  0  0  0
  2  3  2  0  0  0  0
  2  7  1  0  0  0  0
  3  8  1  0  0  0  0
  4  3  1  0  0  0  0
  5  4  2  0  0  0  0
  6  5  1  0  0  0  0
  6  1  2  0  0  0  0
  9 10  1  0  0  0  0
  9 17  1  1  0  0  0
 10  5  1  6  0  0  0
 11 12  1  0  0  0  0
 11 10  1  0  0  0  0
 13 11  1  0  0  0  0
 14 13  1  0  0  0  0
 14 16  1  0  0  0  0
 15 14  1  0  0  0  0
 16 19  1  1  0  0  0
 16  9  1  0  0  0  0
 17 18  1  0  0  0  0
 19 20  1  0  0  0  0
 21  1  1  0  0  0  0
 22 21  2  0  0  0  0
 23 22  1  0  0  0  0
 23 24  1  0  0  0  0
 25 23  1  0  0  0  0
 26 31  1  6  0  0  0
 26 27  1  0  0  0  0
 27 32  1  0  0  0  0
 27 28  1  0  0  0  0
 27 33  1  0  0  0  0
 28 34  1  1  0  0  0
 28 23  1  0  0  0  0
 29 28  1  0  0  0  0
 30 26  1  0  0  0  0
 30 29  1  0  0  0  0
 35 30  1  0  0  0  0
 36 30  1  0  0  0  0
 37 38  1  0  0  0  0
 37 26  1  0  0  0  0
M  END
>  <minimizedAffinity>
-5.85904026

$$$$

 OpenBabel03242511353D

 38 40  0  0  1  0  0  0  0  0999 V2000
   35.9650   29.1440   40.7040 C   0  0  0  0  0  0  0  0  0  0  0  0
   36.2100   28.1430   41.6720 C   0  0  0  0  0  0  0  0  0  0  0  0
   37.3170   28.2720   42.5310 C   0  0  0  0  0  0  0  0  0  0  0  0
   38.0890   29.3710   42.3690 N   0  0  0  0  0  0  0  0  0  0  0  0
   37.8320   30.3170   41.4330 C   0  0  0  0  0  0  0  0  0  0  0  0
   36.7840   30.1740   40.6350 N   0  0  0  0  0  0  0  0  0  0  0  0
   35.6040   27.2490   41.8220 H   0  0  0  0  0  0  0  0  0  0  0  0
   37.5220   27.5140   43.2790 H   0  0  0  0  0  0  0  0  0  0  0  0
   38.4230   32.4040   40.2570 C   0  0  2  0  0  3  0  0  0  0  0  0
   38.7760   31.4750   41.3750 C   0  0  2  0  0  3  0  0  0  0  0  0
   40.1990   31.0200   41.1840 C   0  0  0  0  0  3  0  0  0  0  0  0
   40.2710   29.9460   41.4650 H   0  0  0  0  0  0  0  0  0  0  0  0
   40.6080   31.1180   39.8560 O   0  0  0  0  0  0  0  0  0  0  0  0
   40.7300   32.4440   39.4510 C   0  0  0  0  0  3  0  0  0  0  0  0
   40.7740   32.4380   38.3430 H   0  0  0  0  0  0  0  0  0  0  0  0
   39.5820   33.2920   39.8880 C   0  0  2  0  0  3  0  0  0  0  0  0
   37.3350   33.2220   40.5830 O   0  0  0  0  0  0  0  0  0  0  0  0
   37.3690   33.4080   41.5530 H   0  0  0  0  0  0  0  0  0  0  0  0
   39.9350   34.1610   40.9360 O   0  0  0  0  0  0  0  0  0  0  0  0
   39.1400   34.4660   41.4330 H   0  0  0  0  0  0  0  0  0  0  0  0
   34.8050   28.9530   39.8460 C   0  0  0  0  0  3  0  0  0  0  0  0
   34.9690   29.0790   38.5310 C   0  0  0  0  0  3  0  0  0  0  0  0
   33.8630   28.9050   37.5700 C   0  0  0  0  0  0  0  0  0  0  0  0
   33.0750   28.2610   37.9710 H   0  0  0  0  0  0  0  0  0  0  0  0
   33.4150   29.9220   37.3940 H   0  0  0  0  0  0  0  0  0  0  0  0
   36.2770   28.2940   34.9570 C   0  0  1  0  0  0  0  0  0  0  0  0
   35.7670   27.8420   36.3250 C   0  0  0  0  0  0  0  0  0  0  0  0
   34.3460   28.2910   36.2540 C   0  0  2  0  0  0  0  0  0  0  0  0
   34.1910   29.1560   35.2020 O   0  0  0  0  0  0  0  0  0  0  0  0
   35.4290   29.5240   34.7350 C   0  0  0  0  0  0  0  0  0  0  0  0
   36.0160   27.5240   34.2050 H   0  0  0  0  0  0  0  0  0  0  0  0
   36.3380   28.3700   37.1070 H   0  0  0  0  0  0  0  0  0  0  0  0
   35.7750   26.7460   36.4360 H   0  0  0  0  0  0  0  0  0  0  0  0
   33.6530   27.4310   36.0810 H   0  0  0  0  0  0  0  0  0  0  0  0
   35.8480   30.4310   35.1950 H   0  0  0  0  0  0  0  0  0  0  0  0
   35.3740   29.6790   33.6270 H   0  0  0  0  0  0  0  0  0  0  0  0
   37.6330   28.5900   35.0180 O   0  0  0  0  0  0  0  0  0  0  0  0
   38.1230   27.7360   34.9260 H   0  0  0  0  0  0  0  0  0  0  0  0
  1  2  1  0  0  0  0
  2  7  1  0  0  0  0
  2  3  2  0  0  0  0
  3  8  1  0  0  0  0
  4  3  1  0  0  0  0
  5  4  2  0  0  0  0
  6  1  2  0  0  0  0
  6  5  1  0  0  0  0
  9 17  1  1  0  0  0
  9 10  1  0  0  0  0
 10  5  1  6  0  0  0
 11 10  1  0  0  0  0
 11 12  1  0  0  0  0
 13 11  1  0  0  0  0
 14 13  1  0  0  0  0
 14 16  1  0  0  0  0
 15 14  1  0  0  0  0
 16  9  1  0  0  0  0
 16 19  1  1  0  0  0
 17 18  1  0  0  0  0
 19 20  1  0  0  0  0
 21  1  1  0  0  0  0
 22 21  2  0  0  0  0
 23 24  1  0  0  0  0
 23 22  1  0  0  0  0
 25 23  1  0  0  0  0
 26 31  1  6  0  0  0
 26 37  1  0  0  0  0
 26 27  1  0  0  0  0
 27 33  1  0  0  0  0
 27 32  1  0  0  0  0
 28 34  1  6  0  0  0
 28 27  1  0  0  0  0
 28 23  1  0  0  0  0
 29 28  1  0  0  0  0
 30 26  1  0  0  0  0
 30 35  1  0  0  0  0
 30 29  1  0  0  0  0
 36 30  1  0  0  0  0
 38 37  1  0  0  0  0
M  END
>  <minimizedAffinity>
-5.79734898

$$$$

 OpenBabel03242511353D

 38 40  0  0  1  0  0  0  0  0999 V2000
   37.1430   29.0960   41.8520 C   0  0  0  0  0  0  0  0  0  0  0  0
   36.0700   29.5720   41.0630 C   0  0  0  0  0  0  0  0  0  0  0  0
   36.2100   30.7920   40.3750 C   0  0  0  0  0  0  0  0  0  0  0  0
   37.3890   31.4400   40.5170 N   0  0  0  0  0  0  0  0  0  0  0  0
   38.4020   30.9610   41.2790 C   0  0  0  0  0  0  0  0  0  0  0  0
   38.2480   29.8110   41.9180 N   0  0  0  0  0  0  0  0  0  0  0  0
   35.1110   29.0690   40.9330 H   0  0  0  0  0  0  0  0  0  0  0  0
   35.3980   31.1740   39.7660 H   0  0  0  0  0  0  0  0  0  0  0  0
   39.4530   33.1010   40.6440 C   0  0  2  0  0  3  0  0  0  0  0  0
   39.6450   31.7910   41.3380 C   0  0  2  0  0  3  0  0  0  0  0  0
   40.8140   31.0840   40.7050 C   0  0  0  0  0  3  0  0  0  0  0  0
   40.5830   29.9970   40.6430 H   0  0  0  0  0  0  0  0  0  0  0  0
   41.0490   31.5200   39.4030 O   0  0  0  0  0  0  0  0  0  0  0  0
   41.5250   32.8280   39.3760 C   0  0  0  0  0  3  0  0  0  0  0  0
   41.4130   33.1880   38.3320 H   0  0  0  0  0  0  0  0  0  0  0  0
   40.7710   33.7380   40.2880 C   0  0  2  0  0  3  0  0  0  0  0  0
   38.7310   34.0070   41.4300 O   0  0  0  0  0  0  0  0  0  0  0  0
   38.9530   33.8370   42.3780 H   0  0  0  0  0  0  0  0  0  0  0  0
   41.5170   34.0800   41.4290 O   0  0  0  0  0  0  0  0  0  0  0  0
   40.9330   34.3880   42.1620 H   0  0  0  0  0  0  0  0  0  0  0  0
   36.9360   27.8290   42.5380 C   0  0  0  0  0  3  0  0  0  0  0  0
   37.1230   26.7050   41.8500 C   0  0  0  0  0  3  0  0  0  0  0  0
   36.9420   25.3670   42.4460 C   0  0  0  0  0  0  0  0  0  0  0  0
   37.0560   25.3890   43.5330 H   0  0  0  0  0  0  0  0  0  0  0  0
   35.8880   25.0450   42.2210 H   0  0  0  0  0  0  0  0  0  0  0  0
   39.2400   24.0890   39.9730 C   0  0  1  0  0  0  0  0  0  0  0  0
   39.0800   25.0170   41.1770 C   0  0  0  0  0  0  0  0  0  0  0  0
   37.9470   24.3570   41.8880 C   0  0  2  0  0  0  0  0  0  0  0  0
   37.3480   23.4500   41.0540 O   0  0  0  0  0  0  0  0  0  0  0  0
   37.8120   23.6400   39.7750 C   0  0  0  0  0  0  0  0  0  0  0  0
   39.8620   23.2220   40.2700 H   0  0  0  0  0  0  0  0  0  0  0  0
   38.8190   26.0250   40.8130 H   0  0  0  0  0  0  0  0  0  0  0  0
   39.9590   25.0010   41.8410 H   0  0  0  0  0  0  0  0  0  0  0  0
   38.3010   23.7960   42.7880 H   0  0  0  0  0  0  0  0  0  0  0  0
   37.2170   24.3350   39.1650 H   0  0  0  0  0  0  0  0  0  0  0  0
   37.8570   22.6520   39.2480 H   0  0  0  0  0  0  0  0  0  0  0  0
   39.7300   24.7910   38.8800 O   0  0  0  0  0  0  0  0  0  0  0  0
   40.7130   24.8410   38.9810 H   0  0  0  0  0  0  0  0  0  0  0  0
  1  6  1  0  0  0  0
  1 21  1  0  0  0  0
  2  1  2  0  0  0  0
  3  4  2  0  0  0  0
  3  2  1  0  0  0  0
  4  5  1  0  0  0  0
  5  6  2  0  0  0  0
  7  2  1  0  0  0  0
  8  3  1  0  0  0  0
  9 10  1  0  0  0  0
  9 17  1  1  0  0  0
 10  5  1  6  0  0  0
 11 10  1  0  0  0  0
 12 11  1  0  0  0  0
 13 11  1  0  0  0  0
 14 13  1  0  0  0  0
 14 16  1  0  0  0  0
 15 14  1  0  0  0  0
 16  9  1  0  0  0  0
 16 19  1  1  0  0  0
 17 18  1  0  0  0  0
 19 20  1  0  0  0  0
 22 23  1  0  0  0  0
 22 21  2  0  0  0  0
 23 24  1  0  0  0  0
 25 23  1  0  0  0  0
 26 31  1  1  0  0  0
 26 27  1  0  0  0  0
 27 33  1  0  0  0  0
 27 28  1  0  0  0  0
 28 23  1  0  0  0  0
 28 34  1  1  0  0  0
 29 28  1  0  0  0  0
 30 26  1  0  0  0  0
 30 29  1  0  0  0  0
 32 27  1  0  0  0  0
 35 30  1  0  0  0  0
 36 30  1  0  0  0  0
 37 38  1  0  0  0  0
 37 26  1  0  0  0  0
M  END
>  <minimizedAffinity>
-5.71228647

$$$$

 OpenBabel03242511353D

 38 40  0  0  1  0  0  0  0  0999 V2000
   38.4840   25.5720   42.5050 C   0  0  0  0  0  0  0  0  0  0  0  0
   39.6820   25.6130   43.2540 C   0  0  0  0  0  0  0  0  0  0  0  0
   40.1860   26.8560   43.6790 C   0  0  0  0  0  0  0  0  0  0  0  0
   39.4730   27.9530   43.3350 N   0  0  0  0  0  0  0  0  0  0  0  0
   38.3260   27.8860   42.6170 C   0  0  0  0  0  0  0  0  0  0  0  0
   37.8710   26.7050   42.2270 N   0  0  0  0  0  0  0  0  0  0  0  0
   40.2750   24.7450   43.5430 H   0  0  0  0  0  0  0  0  0  0  0  0
   41.1050   26.9080   44.2540 H   0  0  0  0  0  0  0  0  0  0  0  0
   36.7320   29.0560   41.1400 C   0  0  2  0  0  3  0  0  0  0  0  0
   37.6490   29.1850   42.3140 C   0  0  2  0  0  3  0  0  0  0  0  0
   38.6480   30.2730   42.0190 C   0  0  0  0  0  3  0  0  0  0  0  0
   39.6400   29.9660   42.4160 H   0  0  0  0  0  0  0  0  0  0  0  0
   38.8090   30.4820   40.6510 O   0  0  0  0  0  0  0  0  0  0  0  0
   37.6720   31.0470   40.0790 C   0  0  0  0  0  3  0  0  0  0  0  0
   37.7670   30.9160   38.9810 H   0  0  0  0  0  0  0  0  0  0  0  0
   36.4090   30.3980   40.5380 C   0  0  2  0  0  3  0  0  0  0  0  0
   35.5270   28.4330   41.4860 O   0  0  0  0  0  0  0  0  0  0  0  0
   35.3080   28.6840   42.4170 H   0  0  0  0  0  0  0  0  0  0  0  0
   35.6880   31.2140   41.4280 O   0  0  0  0  0  0  0  0  0  0  0  0
   35.0580   30.6850   41.9720 H   0  0  0  0  0  0  0  0  0  0  0  0
   38.0150   24.2570   42.0950 C   0  0  0  0  0  3  0  0  0  0  0  0
   38.4230   23.7830   40.9190 C   0  0  0  0  0  3  0  0  0  0  0  0
   38.0110   22.4620   40.4060 C   0  0  0  0  0  0  0  0  0  0  0  0
   38.8720   21.8240   40.1930 H   0  0  0  0  0  0  0  0  0  0  0  0
   37.4110   21.9660   41.2180 H   0  0  0  0  0  0  0  0  0  0  0  0
   35.8350   24.1690   38.0860 C   0  0  1  0  0  0  0  0  0  0  0  0
   37.2850   23.9430   38.5130 C   0  0  0  0  0  0  0  0  0  0  0  0
   37.1870   22.5850   39.1230 C   0  0  2  0  0  0  0  0  0  0  0  0
   35.8700   22.2710   39.3310 O   0  0  0  0  0  0  0  0  0  0  0  0
   35.1050   23.3980   39.1600 C   0  0  0  0  0  0  0  0  0  0  0  0
   35.6700   23.6820   37.1050 H   0  0  0  0  0  0  0  0  0  0  0  0
   37.5620   24.7170   39.2480 H   0  0  0  0  0  0  0  0  0  0  0  0
   37.9720   23.8840   37.6530 H   0  0  0  0  0  0  0  0  0  0  0  0
   37.6130   21.8020   38.4480 H   0  0  0  0  0  0  0  0  0  0  0  0
   34.9310   23.9830   40.0750 H   0  0  0  0  0  0  0  0  0  0  0  0
   34.1120   23.1090   38.7290 H   0  0  0  0  0  0  0  0  0  0  0  0
   35.5280   25.5230   38.1060 O   0  0  0  0  0  0  0  0  0  0  0  0
   35.8470   25.9070   37.2520 H   0  0  0  0  0  0  0  0  0  0  0  0
  1  2  1  0  0  0  0
  2  7  1  0  0  0  0
  2  3  2  0  0  0  0
  3  8  1  0  0  0  0
  4  3  1  0  0  0  0
  5  4  2  0  0  0  0
  6  1  2  0  0  0  0
  6  5  1  0  0  0  0
  9 17  1  1  0  0  0
  9 10  1  0  0  0  0
 10  5  1  6  0  0  0
 11 10  1  0  0  0  0
 11 12  1  0  0  0  0
 13 11  1  0  0  0  0
 14 16  1  0  0  0  0
 14 13  1  0  0  0  0
 15 14  1  0  0  0  0
 16  9  1  0  0  0  0
 16 19  1  1  0  0  0
 17 18  1  0  0  0  0
 19 20  1  0  0  0  0
 21  1  1  0  0  0  0
 22 21  2  0  0  0  0
 23 22  1  0  0  0  0
 23 25  1  0  0  0  0
 24 23  1  0  0  0  0
 26 31  1  6  0  0  0
 26 37  1  0  0  0  0
 26 27  1  0  0  0  0
 26 30  1  0  0  0  0
 27 28  1  0  0  0  0
 27 32  1  0  0  0  0
 28 34  1  6  0  0  0
 28 29  1  0  0  0  0
 28 23  1  0  0  0  0
 30 29  1  0  0  0  0
 30 35  1  0  0  0  0
 33 27  1  0  0  0  0
 36 30  1  0  0  0  0
 38 37  1  0  0  0  0
M  END
>  <minimizedAffinity>
-5.58219051

$$$$
