
 OpenBabel03252504213D

 22 23  0  0  1  0  0  0  0  0999 V2000
   46.0740   30.1330   46.6240 C   0  0  1  0  0  3  0  0  0  0  0  0
   47.1450   30.9240   45.8690 C   0  0  1  0  0  3  0  0  0  0  0  0
   48.1980   29.8980   45.5120 C   0  0  0  0  0  3  0  0  0  0  0  0
   48.9280   30.2560   44.7860 H   0  0  0  0  0  0  0  0  0  0  0  0
   48.8500   29.5810   46.6760 O   0  0  0  0  0  0  0  0  0  0  0  0
   48.0860   29.0220   47.6570 C   0  0  0  0  0  3  0  0  0  0  0  0
   48.0130   27.9000   47.5820 H   0  0  0  0  0  0  0  0  0  0  0  0
   46.7270   29.5900   47.8620 C   0  0  1  0  0  3  0  0  0  0  0  0
   46.6820   33.4030   43.2070 C   0  0  0  0  0  0  0  0  0  0  0  0
   45.4970   32.9580   42.5910 C   0  0  0  0  0  0  0  0  0  0  0  0
   44.8720   31.8080   43.1000 C   0  0  0  0  0  0  0  0  0  0  0  0
   45.4510   31.1910   44.1640 N   0  0  0  0  0  0  0  0  0  0  0  0
   46.5840   31.6470   44.7250 C   0  0  0  0  0  0  0  0  0  0  0  0
   47.2090   32.7420   44.2660 N   0  0  0  0  0  0  0  0  0  0  0  0
   45.0700   33.4730   41.7510 H   0  0  0  0  0  0  0  0  0  0  0  0
   43.9590   31.4340   42.6530 H   0  0  0  0  0  0  0  0  0  0  0  0
   47.4050   34.8800   42.4830 S   0  0  0  0  0  0  0  0  0  0  0  0
   48.2080   34.5290   41.3950 H   0  0  0  0  0  0  0  0  0  0  0  0
   45.0690   31.0380   46.9730 O   0  0  0  0  0  0  0  0  0  0  0  0
   44.3220   30.5770   47.4200 H   0  0  0  0  0  0  0  0  0  0  0  0
   46.7120   30.5970   48.8340 O   0  0  0  0  0  0  0  0  0  0  0  0
   47.2690   31.3520   48.5590 H   0  0  0  0  0  0  0  0  0  0  0  0
  1 19  1  1  0  0  0
  1  8  1  0  0  0  0
  2 13  1  6  0  0  0
  2  1  1  0  0  0  0
  3  2  1  0  0  0  0
  3  5  1  0  0  0  0
  4  3  1  0  0  0  0
  5  6  1  0  0  0  0
  6  8  1  0  0  0  0
  7  6  1  0  0  0  0
  8 21  1  1  0  0  0
  9 14  1  0  0  0  0
 10 11  1  0  0  0  0
 10  9  2  0  0  0  0
 11 12  2  0  0  0  0
 12 13  1  0  0  0  0
 14 13  2  0  0  0  0
 15 10  1  0  0  0  0
 16 11  1  0  0  0  0
 17  9  1  0  0  0  0
 18 17  1  0  0  0  0
 19 20  1  0  0  0  0
 22 21  1  0  0  0  0
M  END
>  <minimizedAffinity>
-3.24672246

>  <minimizedRMSD>
3.7753675

$$$$
