
 OpenBabel03252504213D

 22 23  0  0  1  0  0  0  0  0999 V2000
   47.0000   30.9150   46.9680 C   0  0  1  0  0  3  0  0  0  0  0  0
   46.6900   29.5870   46.2730 C   0  0  1  0  0  3  0  0  0  0  0  0
   45.2150   29.6610   45.9480 C   0  0  0  0  0  3  0  0  0  0  0  0
   44.8810   28.8830   45.2590 H   0  0  0  0  0  0  0  0  0  0  0  0
   44.5420   29.5200   47.1340 O   0  0  0  0  0  0  0  0  0  0  0  0
   44.7770   30.4820   48.0720 C   0  0  0  0  0  3  0  0  0  0  0  0
   44.0960   31.3740   47.9770 H   0  0  0  0  0  0  0  0  0  0  0  0
   46.1810   30.9480   48.2250 C   0  0  1  0  0  3  0  0  0  0  0  0
   48.0940   28.1590   43.2010 C   0  0  0  0  0  0  0  0  0  0  0  0
   49.2130   28.9840   42.9750 C   0  0  0  0  0  0  0  0  0  0  0  0
   49.4700   30.0220   43.8850 C   0  0  0  0  0  0  0  0  0  0  0  0
   48.6190   30.1700   44.9350 N   0  0  0  0  0  0  0  0  0  0  0  0
   47.5610   29.3610   45.1150 C   0  0  0  0  0  0  0  0  0  0  0  0
   47.2840   28.3600   44.2670 N   0  0  0  0  0  0  0  0  0  0  0  0
   49.8630   28.8350   42.1330 H   0  0  0  0  0  0  0  0  0  0  0  0
   50.3220   30.6780   43.7460 H   0  0  0  0  0  0  0  0  0  0  0  0
   47.8510   26.8610   41.9820 S   0  0  0  0  0  0  0  0  0  0  0  0
   47.1470   27.3670   40.8870 H   0  0  0  0  0  0  0  0  0  0  0  0
   48.3600   30.9030   47.2860 O   0  0  0  0  0  0  0  0  0  0  0  0
   48.6340   31.7580   47.6920 H   0  0  0  0  0  0  0  0  0  0  0  0
   46.8740   30.2370   49.2090 O   0  0  0  0  0  0  0  0  0  0  0  0
   46.9410   29.2920   48.9710 H   0  0  0  0  0  0  0  0  0  0  0  0
  1 19  1  1  0  0  0
  1  8  1  0  0  0  0
  2 13  1  6  0  0  0
  2  1  1  0  0  0  0
  3  2  1  0  0  0  0
  3  5  1  0  0  0  0
  4  3  1  0  0  0  0
  5  6  1  0  0  0  0
  6  8  1  0  0  0  0
  7  6  1  0  0  0  0
  8 21  1  1  0  0  0
  9 14  1  0  0  0  0
 10  9  2  0  0  0  0
 10 11  1  0  0  0  0
 11 12  2  0  0  0  0
 12 13  1  0  0  0  0
 14 13  2  0  0  0  0
 15 10  1  0  0  0  0
 16 11  1  0  0  0  0
 17  9  1  0  0  0  0
 18 17  1  0  0  0  0
 19 20  1  0  0  0  0
 22 21  1  0  0  0  0
M  END
>  <minimizedAffinity>
-2.22773862

>  <minimizedRMSD>
5.07030582

$$$$
