
 OpenBabel03242513073D

 44 48  0  0  1  0  0  0  0  0999 V2000
   45.9370   33.2420   41.6160 C   0  0  0  0  0  0  0  0  0  0  0  0
   47.1220   33.9260   41.3180 C   0  0  0  0  0  0  0  0  0  0  0  0
   48.0930   33.9670   42.3040 C   0  0  0  0  0  0  0  0  0  0  0  0
   47.8210   33.3390   43.4890 N   0  0  0  0  0  0  0  0  0  0  0  0
   46.6930   32.6940   43.7600 C   0  0  0  0  0  0  0  0  0  0  0  0
   45.7320   32.6390   42.8170 N   0  0  0  0  0  0  0  0  0  0  0  0
   45.1660   33.1960   40.8660 H   0  0  0  0  0  0  0  0  0  0  0  0
   46.7120   30.7280   45.2210 C   0  0  0  0  0  0  0  0  0  0  0  0
   46.5070   32.0630   45.0500 C   0  0  0  0  0  0  0  0  0  0  0  0
   46.1060   32.9090   46.1060 C   0  0  0  0  0  0  0  0  0  0  0  0
   45.9050   32.3800   47.3790 C   0  0  0  0  0  0  0  0  0  0  0  0
   45.5300   32.8700   48.5950 N   0  0  0  0  0  0  0  0  0  0  0  0
   45.5200   31.8160   49.4650 C   0  0  0  0  0  0  0  0  0  0  0  0
   45.8840   30.7020   48.7800 N   0  0  0  0  0  0  0  0  0  0  0  0
   46.1260   31.0220   47.4980 C   0  0  0  0  0  0  0  0  0  0  0  0
   46.5180   30.1760   46.4850 C   0  0  0  0  0  0  0  0  0  0  0  0
   47.0200   30.1130   44.3870 H   0  0  0  0  0  0  0  0  0  0  0  0
   45.9400   33.9720   45.9820 H   0  0  0  0  0  0  0  0  0  0  0  0
   45.3090   33.8730   48.7600 H   0  0  0  0  0  0  0  0  0  0  0  0
   45.2560   31.9250   50.5070 H   0  0  0  0  0  0  0  0  0  0  0  0
   46.6730   29.1190   46.6480 H   0  0  0  0  0  0  0  0  0  0  0  0
   49.3700   34.6740   42.0500 C   0  0  0  0  0  0  0  0  0  0  0  0
   49.1500   35.8060   41.2520 F   0  0  0  0  0  0  0  0  0  0  0  0
   49.9050   35.1350   43.2280 F   0  0  0  0  0  0  0  0  0  0  0  0
   50.2200   33.8170   41.4130 F   0  0  0  0  0  0  0  0  0  0  0  0
   47.2640   34.5050   40.1040 O   0  0  0  0  0  0  0  0  0  0  0  0
   47.3800   33.7630   38.9430 C   0  0  0  0  0  0  0  0  0  0  0  0
   48.4070   34.4030   38.2600 C   0  0  0  0  0  0  0  0  0  0  0  0
   48.5840   33.4370   36.7130 S   0  0  0  0  0  0  0  0  0  0  0  0
   47.1830   32.2850   37.2700 C   0  0  0  0  0  0  0  0  0  0  0  0
   46.9580   32.7610   38.2380 N   0  0  0  0  0  0  0  0  0  0  0  0
   49.2540   35.2540   38.1280 H   0  0  0  0  0  0  0  0  0  0  0  0
   45.9580   31.4950   35.2400 C   0  0  2  0  0  0  0  0  0  0  0  0
   46.6440   31.1050   36.5070 C   0  0  2  0  0  0  0  0  0  0  0  0
   45.7290   30.2780   37.4000 C   0  0  0  0  0  0  0  0  0  0  0  0
   45.5300   29.3410   36.8180 H   0  0  0  0  0  0  0  0  0  0  0  0
   44.5590   30.9530   37.7210 O   0  0  0  0  0  0  0  0  0  0  0  0
   43.8350   31.2640   36.5800 C   0  0  0  0  0  0  0  0  0  0  0  0
   42.8910   30.6900   36.5690 H   0  0  0  0  0  0  0  0  0  0  0  0
   44.5490   30.9260   35.2950 C   0  0  1  0  0  0  0  0  0  0  0  0
   46.5560   30.9770   34.0920 O   0  0  0  0  0  0  0  0  0  0  0  0
   47.4890   31.2410   33.9730 H   0  0  0  0  0  0  0  0  0  0  0  0
   43.8220   31.5660   34.2760 O   0  0  0  0  0  0  0  0  0  0  0  0
   42.9230   31.1370   34.2240 H   0  0  0  0  0  0  0  0  0  0  0  0
  1  6  1  0  0  0  0
  2  1  2  0  0  0  0
  2  3  1  0  0  0  0
  3  4  2  0  0  0  0
  4  5  1  0  0  0  0
  5  9  1  0  0  0  0
  6  5  2  0  0  0  0
  7  1  1  0  0  0  0
  8 16  1  0  0  0  0
  9  8  2  0  0  0  0
  9 10  1  0  0  0  0
 10 11  2  0  0  0  0
 11 15  1  0  0  0  0
 11 12  1  0  0  0  0
 12 19  1  0  0  0  0
 12 13  1  0  0  0  0
 13 20  1  0  0  0  0
 14 13  2  0  0  0  0
 15 14  1  0  0  0  0
 16 21  1  0  0  0  0
 16 15  2  0  0  0  0
 17  8  1  0  0  0  0
 18 10  1  0  0  0  0
 22  3  1  0  0  0  0
 22 24  1  0  0  0  0
 23 22  1  0  0  0  0
 25 22  1  0  0  0  0
 26  2  1  0  0  0  0
 27 26  1  0  0  0  0
 28 27  2  0  0  0  0
 29 30  1  0  0  0  0
 29 28  1  0  0  0  0
 30 31  2  0  0  0  0
 31 27  1  0  0  0  0
 32 28  1  0  0  0  0
 33 41  1  6  0  0  0
 33 40  1  0  0  0  0
 33 34  1  0  0  0  0
 34 30  1  1  0  0  0
 34 35  1  0  0  0  0
 35 37  1  0  0  0  0
 36 35  1  0  0  0  0
 38 37  1  0  0  0  0
 39 38  1  0  0  0  0
 40 43  1  6  0  0  0
 40 38  1  0  0  0  0
 42 41  1  0  0  0  0
 44 43  1  0  0  0  0
M  END
>  <minimizedAffinity>
-6.96989202

>  <minimizedRMSD>
0.297638297

$$$$
