
 OpenBabel03252507433D

 34 36  0  0  1  0  0  0  0  0999 V2000
   45.2850   34.8780   41.8080 C   0  0  0  0  0  0  0  0  0  0  0  0
   44.3390   35.6440   42.5640 C   0  0  0  0  0  0  0  0  0  0  0  0
   42.7700   35.3870   41.6260 S   0  0  0  0  0  0  0  0  0  0  0  0
   43.6700   34.2910   40.3810 C   0  0  0  0  0  0  0  0  0  0  0  0
   44.7400   34.2900   40.7670 N   0  0  0  0  0  0  0  0  0  0  0  0
   44.5660   36.2100   43.4580 H   0  0  0  0  0  0  0  0  0  0  0  0
   41.8850   32.6960   39.7110 C   0  0  1  0  0  3  0  0  0  0  0  0
   42.9720   33.6560   39.2150 C   0  0  2  0  0  3  0  0  0  0  0  0
   43.9970   32.8640   38.4760 C   0  0  0  0  0  3  0  0  0  0  0  0
   44.1650   33.3460   37.4830 H   0  0  0  0  0  0  0  0  0  0  0  0
   43.4840   31.5920   38.1580 O   0  0  0  0  0  0  0  0  0  0  0  0
   42.2510   31.6910   37.5210 C   0  0  0  0  0  3  0  0  0  0  0  0
   42.2830   32.4100   36.6630 H   0  0  0  0  0  0  0  0  0  0  0  0
   41.2120   32.1010   38.5180 C   0  0  2  0  0  3  0  0  0  0  0  0
   42.4780   31.8020   40.5680 O   0  0  0  0  0  0  0  0  0  0  0  0
   42.0000   31.6790   41.4210 H   0  0  0  0  0  0  0  0  0  0  0  0
   40.3480   33.0890   37.9950 O   0  0  0  0  0  0  0  0  0  0  0  0
   40.1070   33.7240   38.7120 H   0  0  0  0  0  0  0  0  0  0  0  0
   46.7040   34.8010   42.2130 C   0  0  0  0  0  0  0  0  0  0  0  0
   46.9360   35.6070   42.9360 H   0  0  0  0  0  0  0  0  0  0  0  0
   46.8160   33.8080   42.7250 H   0  0  0  0  0  0  0  0  0  0  0  0
   47.6910   34.8410   41.1070 C   0  0  0  0  0  0  0  0  0  0  0  0
   48.1150   35.8890   41.0940 H   0  0  0  0  0  0  0  0  0  0  0  0
   47.2610   34.6980   40.1230 H   0  0  0  0  0  0  0  0  0  0  0  0
   48.8760   33.9700   41.3250 C   0  0  0  0  0  0  0  0  0  0  0  0
   48.9870   32.8330   40.5230 C   0  0  0  0  0  0  0  0  0  0  0  0
   50.0700   31.9940   40.6880 C   0  0  0  0  0  0  0  0  0  0  0  0
   51.0020   32.3150   41.6400 N   0  0  0  0  0  0  0  0  0  0  0  0
   50.8560   33.4270   42.3990 C   0  0  0  0  0  0  0  0  0  0  0  0
   49.8180   34.2270   42.2370 N   0  0  0  0  0  0  0  0  0  0  0  0
   50.1910   31.1070   40.0880 H   0  0  0  0  0  0  0  0  0  0  0  0
   51.5990   33.6800   43.1560 H   0  0  0  0  0  0  0  0  0  0  0  0
   47.7190   32.4820   39.2930 S   0  0  0  0  0  0  0  0  0  0  0  0
   47.1440   31.2070   39.5600 H   0  0  0  0  0  0  0  0  0  0  0  0
  1 19  1  0  0  0  0
  1  2  2  0  0  0  0
  2  6  1  0  0  0  0
  3  2  1  0  0  0  0
  4  5  2  0  0  0  0
  4  3  1  0  0  0  0
  5  1  1  0  0  0  0
  7 15  1  1  0  0  0
  8  7  1  0  0  0  0
  8  4  1  1  0  0  0
  9  8  1  0  0  0  0
 10  9  1  0  0  0  0
 11  9  1  0  0  0  0
 12 11  1  0  0  0  0
 12 14  1  0  0  0  0
 13 12  1  0  0  0  0
 14 17  1  6  0  0  0
 14  7  1  0  0  0  0
 15 16  1  0  0  0  0
 17 18  1  0  0  0  0
 19 21  1  0  0  0  0
 19 20  1  0  0  0  0
 22 25  1  0  0  0  0
 22 19  1  0  0  0  0
 23 22  1  0  0  0  0
 24 22  1  0  0  0  0
 25 30  1  0  0  0  0
 26 27  1  0  0  0  0
 26 25  2  0  0  0  0
 27 28  2  0  0  0  0
 28 29  1  0  0  0  0
 29 32  1  0  0  0  0
 30 29  2  0  0  0  0
 31 27  1  0  0  0  0
 33 34  1  0  0  0  0
 33 26  1  0  0  0  0
M  END
>  <minimizedAffinity>
-4.6128974

>  <minimizedRMSD>
1.73489249

$$$$
