
 OpenBabel03242518433D

 22 23  0  0  1  0  0  0  0  0999 V2000
   36.6430   31.0210   40.1750 C   0  0  2  0  0  3  0  0  0  0  0  0
   37.4270   29.7640   40.0920 C   0  0  1  0  0  3  0  0  0  0  0  0
   38.9110   30.0530   39.8320 C   0  0  0  0  0  3  0  0  0  0  0  0
   39.4550   29.1290   39.5920 H   0  0  0  0  0  0  0  0  0  0  0  0
   38.9030   30.8290   38.6640 O   0  0  0  0  0  0  0  0  0  0  0  0
   38.4510   32.1170   38.8880 C   0  0  0  0  0  3  0  0  0  0  0  0
   37.8610   32.4050   37.9910 H   0  0  0  0  0  0  0  0  0  0  0  0
   37.5660   32.2330   40.1120 C   0  0  1  0  0  3  0  0  0  0  0  0
   37.0580   26.9000   42.3720 C   0  0  0  0  0  0  0  0  0  0  0  0
   37.3870   27.4290   43.6370 C   0  0  0  0  0  0  0  0  0  0  0  0
   37.7390   28.8010   43.6800 C   0  0  0  0  0  0  0  0  0  0  0  0
   37.7390   29.5080   42.5160 N   0  0  0  0  0  0  0  0  0  0  0  0
   37.4170   28.9520   41.3420 C   0  0  0  0  0  0  0  0  0  0  0  0
   37.0770   27.6470   41.2730 N   0  0  0  0  0  0  0  0  0  0  0  0
   37.3920   26.8860   44.5530 H   0  0  0  0  0  0  0  0  0  0  0  0
   38.0040   29.2660   44.6290 H   0  0  0  0  0  0  0  0  0  0  0  0
   36.7180   25.5770   42.3280 O   0  0  0  0  0  0  0  0  0  0  0  0
   37.1370   24.9890   41.5960 H   0  0  0  0  0  0  0  0  0  0  0  0
   35.8150   31.1200   41.2850 O   0  0  0  0  0  0  0  0  0  0  0  0
   34.8970   31.4410   41.0270 H   0  0  0  0  0  0  0  0  0  0  0  0
   36.7480   33.3550   40.0180 O   0  0  0  0  0  0  0  0  0  0  0  0
   35.8380   33.2200   40.3750 H   0  0  0  0  0  0  0  0  0  0  0  0
  1 19  1  1  0  0  0
  2  1  1  0  0  0  0
  2 13  1  1  0  0  0
  3  2  1  0  0  0  0
  4  3  1  0  0  0  0
  5  6  1  0  0  0  0
  5  3  1  0  0  0  0
  6  8  1  0  0  0  0
  7  6  1  0  0  0  0
  8 21  1  6  0  0  0
  8  1  1  0  0  0  0
  9 10  1  0  0  0  0
 10 11  2  0  0  0  0
 10 15  1  0  0  0  0
 11 16  1  0  0  0  0
 12 11  1  0  0  0  0
 13 12  2  0  0  0  0
 14 13  1  0  0  0  0
 14  9  2  0  0  0  0
 17  9  1  0  0  0  0
 18 17  1  0  0  0  0
 20 19  1  0  0  0  0
 21 22  1  0  0  0  0
M  END
>  <minimizedAffinity>
-5.40062046

$$$$

 OpenBabel03242518433D

 22 23  0  0  1  0  0  0  0  0999 V2000
   41.4890   32.4060   37.7160 C   0  0  2  0  0  3  0  0  0  0  0  0
   41.1600   31.8570   39.0540 C   0  0  1  0  0  3  0  0  0  0  0  0
   41.6560   32.7840   40.1700 C   0  0  0  0  0  3  0  0  0  0  0  0
   41.5740   32.2960   41.1520 H   0  0  0  0  0  0  0  0  0  0  0  0
   43.0250   32.9280   39.9060 O   0  0  0  0  0  0  0  0  0  0  0  0
   43.2690   33.7340   38.8080 C   0  0  0  0  0  3  0  0  0  0  0  0
   44.1450   33.2960   38.2830 H   0  0  0  0  0  0  0  0  0  0  0  0
   42.1030   33.7960   37.8430 C   0  0  1  0  0  3  0  0  0  0  0  0
   37.6220   32.7080   39.5950 C   0  0  0  0  0  0  0  0  0  0  0  0
   36.9980   31.4580   39.7870 C   0  0  0  0  0  0  0  0  0  0  0  0
   37.8340   30.3140   39.7250 C   0  0  0  0  0  0  0  0  0  0  0  0
   39.1620   30.4930   39.4860 N   0  0  0  0  0  0  0  0  0  0  0  0
   39.7000   31.7060   39.3120 C   0  0  0  0  0  0  0  0  0  0  0  0
   38.9260   32.8120   39.3660 N   0  0  0  0  0  0  0  0  0  0  0  0
   35.9600   31.3060   39.9740 H   0  0  0  0  0  0  0  0  0  0  0  0
   37.4090   29.3210   39.8650 H   0  0  0  0  0  0  0  0  0  0  0  0
   36.8180   33.8110   39.6550 O   0  0  0  0  0  0  0  0  0  0  0  0
   36.9180   34.5290   38.9250 H   0  0  0  0  0  0  0  0  0  0  0  0
   40.4270   32.4440   36.8230 O   0  0  0  0  0  0  0  0  0  0  0  0
   40.6960   32.0890   35.9200 H   0  0  0  0  0  0  0  0  0  0  0  0
   42.5400   34.1590   36.5730 O   0  0  0  0  0  0  0  0  0  0  0  0
   42.0710   33.6960   35.8380 H   0  0  0  0  0  0  0  0  0  0  0  0
  1 19  1  6  0  0  0
  1  8  1  0  0  0  0
  1  2  1  0  0  0  0
  2 13  1  6  0  0  0
  2  3  1  0  0  0  0
  3  4  1  0  0  0  0
  5  3  1  0  0  0  0
  6  5  1  0  0  0  0
  7  6  1  0  0  0  0
  8 21  1  6  0  0  0
  8  6  1  0  0  0  0
  9 17  1  0  0  0  0
  9 10  1  0  0  0  0
 10 15  1  0  0  0  0
 11 10  2  0  0  0  0
 11 16  1  0  0  0  0
 12 11  1  0  0  0  0
 13 14  1  0  0  0  0
 13 12  2  0  0  0  0
 14  9  2  0  0  0  0
 18 17  1  0  0  0  0
 20 19  1  0  0  0  0
 22 21  1  0  0  0  0
M  END
>  <minimizedAffinity>
-5.36172628

$$$$

 OpenBabel03242518433D

 22 23  0  0  1  0  0  0  0  0999 V2000
   36.6070   28.8300   41.1920 C   0  0  2  0  0  3  0  0  0  0  0  0
   37.8120   28.1280   40.6860 C   0  0  1  0  0  3  0  0  0  0  0  0
   38.8510   29.1230   40.1550 C   0  0  0  0  0  3  0  0  0  0  0  0
   39.6570   28.6020   39.6200 H   0  0  0  0  0  0  0  0  0  0  0  0
   38.1470   29.8660   39.1960 O   0  0  0  0  0  0  0  0  0  0  0  0
   37.2480   30.7490   39.7670 C   0  0  0  0  0  3  0  0  0  0  0  0
   36.3570   30.7650   39.1040 H   0  0  0  0  0  0  0  0  0  0  0  0
   36.8140   30.3410   41.1600 C   0  0  1  0  0  3  0  0  0  0  0  0
   38.9890   25.2780   42.6930 C   0  0  0  0  0  0  0  0  0  0  0  0
   39.8750   25.8610   43.6230 C   0  0  0  0  0  0  0  0  0  0  0  0
   40.0530   27.2650   43.5370 C   0  0  0  0  0  0  0  0  0  0  0  0
   39.3700   27.9480   42.5780 N   0  0  0  0  0  0  0  0  0  0  0  0
   38.5410   27.3410   41.7200 C   0  0  0  0  0  0  0  0  0  0  0  0
   38.3530   26.0050   41.7800 N   0  0  0  0  0  0  0  0  0  0  0  0
   40.4140   25.3370   44.3770 H   0  0  0  0  0  0  0  0  0  0  0  0
   40.7250   27.7720   44.2290 H   0  0  0  0  0  0  0  0  0  0  0  0
   38.8160   23.9250   42.7740 O   0  0  0  0  0  0  0  0  0  0  0  0
   38.8490   23.3760   41.9050 H   0  0  0  0  0  0  0  0  0  0  0  0
   36.1940   28.4420   42.4590 O   0  0  0  0  0  0  0  0  0  0  0  0
   35.2000   28.2860   42.4870 H   0  0  0  0  0  0  0  0  0  0  0  0
   35.5890   30.9200   41.4780 O   0  0  0  0  0  0  0  0  0  0  0  0
   34.9900   30.3340   42.0000 H   0  0  0  0  0  0  0  0  0  0  0  0
  1 19  1  1  0  0  0
  2  1  1  0  0  0  0
  2 13  1  1  0  0  0
  3  2  1  0  0  0  0
  4  3  1  0  0  0  0
  5  6  1  0  0  0  0
  5  3  1  0  0  0  0
  6  8  1  0  0  0  0
  7  6  1  0  0  0  0
  8  1  1  0  0  0  0
  8 21  1  6  0  0  0
  9 17  1  0  0  0  0
  9 10  1  0  0  0  0
 10 15  1  0  0  0  0
 11 10  2  0  0  0  0
 11 16  1  0  0  0  0
 12 11  1  0  0  0  0
 13 14  1  0  0  0  0
 13 12  2  0  0  0  0
 14  9  2  0  0  0  0
 18 17  1  0  0  0  0
 19 20  1  0  0  0  0
 21 22  1  0  0  0  0
M  END
>  <minimizedAffinity>
-5.08185625

$$$$

 OpenBabel03242518433D

 22 23  0  0  1  0  0  0  0  0999 V2000
   37.4290   29.2160   42.5840 C   0  0  2  0  0  3  0  0  0  0  0  0
   38.5190   30.0600   42.0340 C   0  0  1  0  0  3  0  0  0  0  0  0
   39.7600   29.2200   41.7110 C   0  0  0  0  0  3  0  0  0  0  0  0
   40.6200   29.8630   41.4780 H   0  0  0  0  0  0  0  0  0  0  0  0
   40.0570   28.5770   42.9210 O   0  0  0  0  0  0  0  0  0  0  0  0
   39.1610   27.5650   43.2160 C   0  0  0  0  0  3  0  0  0  0  0  0
   39.0120   27.5850   44.3170 H   0  0  0  0  0  0  0  0  0  0  0  0
   37.8180   27.7420   42.5370 C   0  0  1  0  0  3  0  0  0  0  0  0
   37.3540   32.6140   39.6570 C   0  0  0  0  0  0  0  0  0  0  0  0
   37.5440   32.0140   38.3940 C   0  0  0  0  0  0  0  0  0  0  0  0
   38.0840   30.7040   38.3890 C   0  0  0  0  0  0  0  0  0  0  0  0
   38.3820   30.1190   39.5810 N   0  0  0  0  0  0  0  0  0  0  0  0
   38.1800   30.7380   40.7510 C   0  0  0  0  0  0  0  0  0  0  0  0
   37.6660   31.9860   40.7850 N   0  0  0  0  0  0  0  0  0  0  0  0
   37.3150   32.4620   37.4550 H   0  0  0  0  0  0  0  0  0  0  0  0
   38.2540   30.1890   37.4440 H   0  0  0  0  0  0  0  0  0  0  0  0
   36.8320   33.8770   39.6650 O   0  0  0  0  0  0  0  0  0  0  0  0
   37.2750   34.5840   40.2660 H   0  0  0  0  0  0  0  0  0  0  0  0
   36.1930   29.3920   41.9780 O   0  0  0  0  0  0  0  0  0  0  0  0
   35.4600   29.4780   42.6630 H   0  0  0  0  0  0  0  0  0  0  0  0
   36.8290   27.0450   43.2250 O   0  0  0  0  0  0  0  0  0  0  0  0
   35.9590   27.5100   43.2600 H   0  0  0  0  0  0  0  0  0  0  0  0
  1 19  1  6  0  0  0
  2 13  1  6  0  0  0
  2  1  1  0  0  0  0
  3  2  1  0  0  0  0
  3  5  1  0  0  0  0
  4  3  1  0  0  0  0
  5  6  1  0  0  0  0
  6  7  1  0  0  0  0
  8  1  1  0  0  0  0
  8  6  1  0  0  0  0
  8 21  1  1  0  0  0
  9 17  1  0  0  0  0
  9 14  1  0  0  0  0
 10  9  2  0  0  0  0
 11 10  1  0  0  0  0
 11 12  2  0  0  0  0
 12 13  1  0  0  0  0
 13 14  2  0  0  0  0
 15 10  1  0  0  0  0
 16 11  1  0  0  0  0
 17 18  1  0  0  0  0
 19 20  1  0  0  0  0
 21 22  1  0  0  0  0
M  END
>  <minimizedAffinity>
-4.87469625

$$$$

 OpenBabel03242518433D

 22 23  0  0  1  0  0  0  0  0999 V2000
   36.7740   30.6360   41.1110 C   0  0  2  0  0  3  0  0  0  0  0  0
   38.2340   30.3760   41.0790 C   0  0  1  0  0  3  0  0  0  0  0  0
   38.5480   29.0720   40.3360 C   0  0  0  0  0  3  0  0  0  0  0  0
   39.6020   28.7880   40.4670 H   0  0  0  0  0  0  0  0  0  0  0  0
   37.7850   28.1080   41.0090 O   0  0  0  0  0  0  0  0  0  0  0  0
   36.4340   28.2150   40.7320 C   0  0  0  0  0  3  0  0  0  0  0  0
   35.8980   27.9750   41.6760 H   0  0  0  0  0  0  0  0  0  0  0  0
   36.0270   29.6010   40.2770 C   0  0  1  0  0  3  0  0  0  0  0  0
   39.7620   32.3120   38.3490 C   0  0  0  0  0  0  0  0  0  0  0  0
   40.4830   33.3260   39.0140 C   0  0  0  0  0  0  0  0  0  0  0  0
   40.4260   33.3210   40.4310 C   0  0  0  0  0  0  0  0  0  0  0  0
   39.6910   32.3550   41.0480 N   0  0  0  0  0  0  0  0  0  0  0  0
   39.0260   31.4160   40.3640 C   0  0  0  0  0  0  0  0  0  0  0  0
   39.0640   31.3980   39.0130 N   0  0  0  0  0  0  0  0  0  0  0  0
   41.0600   34.0870   38.5430 H   0  0  0  0  0  0  0  0  0  0  0  0
   40.9610   34.0800   41.0000 H   0  0  0  0  0  0  0  0  0  0  0  0
   39.8160   32.3150   36.9840 O   0  0  0  0  0  0  0  0  0  0  0  0
   38.9380   32.1980   36.4600 H   0  0  0  0  0  0  0  0  0  0  0  0
   36.4000   31.9130   40.7150 O   0  0  0  0  0  0  0  0  0  0  0  0
   35.7310   32.3110   41.3520 H   0  0  0  0  0  0  0  0  0  0  0  0
   34.6690   29.8090   40.5030 O   0  0  0  0  0  0  0  0  0  0  0  0
   34.4460   30.7240   40.7960 H   0  0  0  0  0  0  0  0  0  0  0  0
  1 19  1  6  0  0  0
  2 13  1  6  0  0  0
  2  1  1  0  0  0  0
  3  4  1  0  0  0  0
  3  5  1  0  0  0  0
  3  2  1  0  0  0  0
  6  5  1  0  0  0  0
  6  7  1  0  0  0  0
  8 21  1  1  0  0  0
  8  6  1  0  0  0  0
  8  1  1  0  0  0  0
  9 14  2  0  0  0  0
  9 10  1  0  0  0  0
 10 11  2  0  0  0  0
 11 16  1  0  0  0  0
 11 12  1  0  0  0  0
 13 12  2  0  0  0  0
 14 13  1  0  0  0  0
 15 10  1  0  0  0  0
 17  9  1  0  0  0  0
 18 17  1  0  0  0  0
 19 20  1  0  0  0  0
 21 22  1  0  0  0  0
M  END
>  <minimizedAffinity>
-4.86129093

$$$$

 OpenBabel03242518433D

 22 23  0  0  1  0  0  0  0  0999 V2000
   39.7800   30.6080   37.9900 C   0  0  2  0  0  3  0  0  0  0  0  0
   39.7720   30.0320   39.3580 C   0  0  1  0  0  3  0  0  0  0  0  0
   40.2230   31.0660   40.3970 C   0  0  0  0  0  3  0  0  0  0  0  0
   40.3900   30.5930   41.3750 H   0  0  0  0  0  0  0  0  0  0  0  0
   41.4790   31.4840   39.9330 O   0  0  0  0  0  0  0  0  0  0  0  0
   41.3870   32.2980   38.8190 C   0  0  0  0  0  3  0  0  0  0  0  0
   42.2480   32.0390   38.1660 H   0  0  0  0  0  0  0  0  0  0  0  0
   40.1040   32.0970   38.0380 C   0  0  1  0  0  3  0  0  0  0  0  0
   36.4120   30.1190   40.8540 C   0  0  0  0  0  0  0  0  0  0  0  0
   35.9410   28.7980   40.7070 C   0  0  0  0  0  0  0  0  0  0  0  0
   36.8160   27.8780   40.0760 C   0  0  0  0  0  0  0  0  0  0  0  0
   38.0340   28.3220   39.6600 N   0  0  0  0  0  0  0  0  0  0  0  0
   38.4290   29.5900   39.8270 C   0  0  0  0  0  0  0  0  0  0  0  0
   37.6150   30.4870   40.4250 N   0  0  0  0  0  0  0  0  0  0  0  0
   34.9900   28.4410   41.0280 H   0  0  0  0  0  0  0  0  0  0  0  0
   36.5070   26.8440   39.9330 H   0  0  0  0  0  0  0  0  0  0  0  0
   35.5710   31.0080   41.4620 O   0  0  0  0  0  0  0  0  0  0  0  0
   35.4450   31.9330   41.0320 H   0  0  0  0  0  0  0  0  0  0  0  0
   38.6140   30.4060   37.2650 O   0  0  0  0  0  0  0  0  0  0  0  0
   38.8150   30.0950   36.3300 H   0  0  0  0  0  0  0  0  0  0  0  0
   40.2650   32.5140   36.7200 O   0  0  0  0  0  0  0  0  0  0  0  0
   39.8000   31.9490   36.0590 H   0  0  0  0  0  0  0  0  0  0  0  0
  1 19  1  1  0  0  0
  1  8  1  0  0  0  0
  1  2  1  0  0  0  0
  2 13  1  1  0  0  0
  2  3  1  0  0  0  0
  3  4  1  0  0  0  0
  5  3  1  0  0  0  0
  6  5  1  0  0  0  0
  7  6  1  0  0  0  0
  8 21  1  6  0  0  0
  8  6  1  0  0  0  0
  9 17  1  0  0  0  0
 10  9  1  0  0  0  0
 10 15  1  0  0  0  0
 11 10  2  0  0  0  0
 12 13  2  0  0  0  0
 12 11  1  0  0  0  0
 13 14  1  0  0  0  0
 14  9  2  0  0  0  0
 16 11  1  0  0  0  0
 18 17  1  0  0  0  0
 20 19  1  0  0  0  0
 22 21  1  0  0  0  0
M  END
>  <minimizedAffinity>
-4.80818701

$$$$

 OpenBabel03242518433D

 22 23  0  0  1  0  0  0  0  0999 V2000
   38.0780   28.7900   42.2210 C   0  0  2  0  0  3  0  0  0  0  0  0
   38.6780   29.2110   40.9310 C   0  0  1  0  0  3  0  0  0  0  0  0
   37.7800   28.8250   39.7500 C   0  0  0  0  0  3  0  0  0  0  0  0
   38.3020   28.9720   38.7940 H   0  0  0  0  0  0  0  0  0  0  0  0
   37.6000   27.4430   39.9010 O   0  0  0  0  0  0  0  0  0  0  0  0
   36.7530   27.1320   40.9490 C   0  0  0  0  0  3  0  0  0  0  0  0
   37.1560   26.2070   41.4170 H   0  0  0  0  0  0  0  0  0  0  0  0
   36.6810   28.2200   42.0010 C   0  0  1  0  0  3  0  0  0  0  0  0
   37.9470   32.7650   40.3200 C   0  0  0  0  0  0  0  0  0  0  0  0
   39.1840   33.4070   40.5350 C   0  0  0  0  0  0  0  0  0  0  0  0
   40.2760   32.5790   40.8960 C   0  0  0  0  0  0  0  0  0  0  0  0
   40.0640   31.2390   41.0110 N   0  0  0  0  0  0  0  0  0  0  0  0
   38.8650   30.6830   40.7950 C   0  0  0  0  0  0  0  0  0  0  0  0
   37.8080   31.4500   40.4500 N   0  0  0  0  0  0  0  0  0  0  0  0
   39.3610   34.4540   40.4480 H   0  0  0  0  0  0  0  0  0  0  0  0
   41.2570   33.0180   41.0750 H   0  0  0  0  0  0  0  0  0  0  0  0
   36.8920   33.5620   39.9720 O   0  0  0  0  0  0  0  0  0  0  0  0
   35.9940   33.4200   40.4520 H   0  0  0  0  0  0  0  0  0  0  0  0
   38.0300   29.7800   43.1930 O   0  0  0  0  0  0  0  0  0  0  0  0
   38.3490   29.4330   44.0830 H   0  0  0  0  0  0  0  0  0  0  0  0
   36.2670   27.6930   43.2210 O   0  0  0  0  0  0  0  0  0  0  0  0
   36.7140   28.0920   44.0040 H   0  0  0  0  0  0  0  0  0  0  0  0
  1 19  1  1  0  0  0
  2 13  1  1  0  0  0
  2  1  1  0  0  0  0
  3  5  1  0  0  0  0
  3  2  1  0  0  0  0
  4  3  1  0  0  0  0
  5  6  1  0  0  0  0
  6  7  1  0  0  0  0
  6  8  1  0  0  0  0
  8  1  1  0  0  0  0
  8 21  1  1  0  0  0
  9 14  2  0  0  0  0
  9 10  1  0  0  0  0
 10 11  2  0  0  0  0
 11 12  1  0  0  0  0
 11 16  1  0  0  0  0
 13 12  2  0  0  0  0
 14 13  1  0  0  0  0
 15 10  1  0  0  0  0
 17  9  1  0  0  0  0
 17 18  1  0  0  0  0
 19 20  1  0  0  0  0
 21 22  1  0  0  0  0
M  END
>  <minimizedAffinity>
-4.7137599

$$$$

 OpenBabel03242518433D

 22 23  0  0  1  0  0  0  0  0999 V2000
   36.8340   28.0090   40.6790 C   0  0  2  0  0  3  0  0  0  0  0  0
   36.7550   29.0650   41.7180 C   0  0  1  0  0  3  0  0  0  0  0  0
   37.3840   28.5940   43.0350 C   0  0  0  0  0  3  0  0  0  0  0  0
   37.1670   29.3000   43.8490 H   0  0  0  0  0  0  0  0  0  0  0  0
   36.6940   27.4110   43.3340 O   0  0  0  0  0  0  0  0  0  0  0  0
   37.0630   26.3620   42.5110 C   0  0  0  0  0  3  0  0  0  0  0  0
   36.1400   25.7730   42.3170 H   0  0  0  0  0  0  0  0  0  0  0  0
   37.6390   26.8170   41.1860 C   0  0  1  0  0  3  0  0  0  0  0  0
   37.4550   32.4510   40.4600 C   0  0  0  0  0  0  0  0  0  0  0  0
   38.8260   32.6380   40.7340 C   0  0  0  0  0  0  0  0  0  0  0  0
   39.5000   31.5620   41.3650 C   0  0  0  0  0  0  0  0  0  0  0  0
   38.7930   30.4380   41.6620 N   0  0  0  0  0  0  0  0  0  0  0  0
   37.4910   30.3150   41.3770 C   0  0  0  0  0  0  0  0  0  0  0  0
   36.8240   31.3250   40.7750 N   0  0  0  0  0  0  0  0  0  0  0  0
   39.3890   33.5130   40.5080 H   0  0  0  0  0  0  0  0  0  0  0  0
   40.5600   31.6490   41.6030 H   0  0  0  0  0  0  0  0  0  0  0  0
   36.8030   33.4860   39.8510 O   0  0  0  0  0  0  0  0  0  0  0  0
   35.8880   33.7720   40.2220 H   0  0  0  0  0  0  0  0  0  0  0  0
   37.3410   28.4290   39.4570 O   0  0  0  0  0  0  0  0  0  0  0  0
   36.7770   28.0950   38.6930 H   0  0  0  0  0  0  0  0  0  0  0  0
   37.5140   25.8140   40.2300 O   0  0  0  0  0  0  0  0  0  0  0  0
   37.3010   26.1450   39.3250 H   0  0  0  0  0  0  0  0  0  0  0  0
  1 19  1  6  0  0  0
  1  8  1  0  0  0  0
  1  2  1  0  0  0  0
  2 13  1  6  0  0  0
  2  3  1  0  0  0  0
  3  5  1  0  0  0  0
  3  4  1  0  0  0  0
  6  5  1  0  0  0  0
  7  6  1  0  0  0  0
  8 21  1  6  0  0  0
  8  6  1  0  0  0  0
  9 10  2  0  0  0  0
  9 14  1  0  0  0  0
 10 11  1  0  0  0  0
 11 16  1  0  0  0  0
 11 12  2  0  0  0  0
 13 12  1  0  0  0  0
 14 13  2  0  0  0  0
 15 10  1  0  0  0  0
 17 18  1  0  0  0  0
 17  9  1  0  0  0  0
 20 19  1  0  0  0  0
 22 21  1  0  0  0  0
M  END
>  <minimizedAffinity>
-4.65612745

$$$$

 OpenBabel03242518433D

 22 23  0  0  1  0  0  0  0  0999 V2000
   37.6420   25.1760   42.1060 C   0  0  2  0  0  3  0  0  0  0  0  0
   38.0760   26.5200   42.5600 C   0  0  1  0  0  3  0  0  0  0  0  0
   39.5940   26.5690   42.7740 C   0  0  0  0  0  3  0  0  0  0  0  0
   39.8910   27.4990   43.2780 H   0  0  0  0  0  0  0  0  0  0  0  0
   39.8400   25.5250   43.6770 O   0  0  0  0  0  0  0  0  0  0  0  0
   39.7280   24.2790   43.0890 C   0  0  0  0  0  3  0  0  0  0  0  0
   39.2740   23.6090   43.8510 H   0  0  0  0  0  0  0  0  0  0  0  0
   38.8490   24.2790   41.8550 C   0  0  1  0  0  3  0  0  0  0  0  0
   36.4650   29.4040   40.9410 C   0  0  0  0  0  0  0  0  0  0  0  0
   37.2630   29.6440   39.8030 C   0  0  0  0  0  0  0  0  0  0  0  0
   38.3720   28.7820   39.6120 C   0  0  0  0  0  0  0  0  0  0  0  0
   38.5920   27.7960   40.5230 N   0  0  0  0  0  0  0  0  0  0  0  0
   37.7990   27.6140   41.5870 C   0  0  0  0  0  0  0  0  0  0  0  0
   36.7360   28.4210   41.7920 N   0  0  0  0  0  0  0  0  0  0  0  0
   37.1010   30.4130   39.0840 H   0  0  0  0  0  0  0  0  0  0  0  0
   39.0260   28.9190   38.7510 H   0  0  0  0  0  0  0  0  0  0  0  0
   35.3950   30.2340   41.1270 O   0  0  0  0  0  0  0  0  0  0  0  0
   35.2380   30.6240   42.0650 H   0  0  0  0  0  0  0  0  0  0  0  0
   36.8190   25.1760   40.9880 O   0  0  0  0  0  0  0  0  0  0  0  0
   36.0280   24.5680   41.1180 H   0  0  0  0  0  0  0  0  0  0  0  0
   38.3550   23.0020   41.6080 O   0  0  0  0  0  0  0  0  0  0  0  0
   37.4260   22.9880   41.2750 H   0  0  0  0  0  0  0  0  0  0  0  0
  1 19  1  6  0  0  0
  1  2  1  0  0  0  0
  2 13  1  6  0  0  0
  2  3  1  0  0  0  0
  3  4  1  0  0  0  0
  3  5  1  0  0  0  0
  6  5  1  0  0  0  0
  6  7  1  0  0  0  0
  8 21  1  1  0  0  0
  8  1  1  0  0  0  0
  8  6  1  0  0  0  0
  9 17  1  0  0  0  0
  9 14  1  0  0  0  0
 10  9  2  0  0  0  0
 11 10  1  0  0  0  0
 11 12  2  0  0  0  0
 12 13  1  0  0  0  0
 13 14  2  0  0  0  0
 15 10  1  0  0  0  0
 16 11  1  0  0  0  0
 17 18  1  0  0  0  0
 19 20  1  0  0  0  0
 22 21  1  0  0  0  0
M  END
>  <minimizedAffinity>
-4.61165762

$$$$
