
 OpenBabel03252506183D

 26 27  0  0  1  0  0  0  0  0999 V2000
   45.0040   35.8210   43.0650 C   0  0  0  0  0  0  0  0  0  0  0  0
   44.2540   35.0990   42.1010 C   0  0  0  0  0  0  0  0  0  0  0  0
   44.1780   33.7210   42.2480 C   0  0  0  0  0  0  0  0  0  0  0  0
   44.8180   33.1300   43.2970 N   0  0  0  0  0  0  0  0  0  0  0  0
   45.5270   33.8500   44.2030 C   0  0  0  0  0  0  0  0  0  0  0  0
   45.6040   35.1890   44.0640 N   0  0  0  0  0  0  0  0  0  0  0  0
   43.7560   35.5830   41.2810 H   0  0  0  0  0  0  0  0  0  0  0  0
   43.6220   33.1000   41.5480 H   0  0  0  0  0  0  0  0  0  0  0  0
   45.7220   33.5180   46.6660 C   0  0  2  0  0  0  0  0  0  0  0  0
   46.1770   33.1130   45.2940 C   0  0  1  0  0  0  0  0  0  0  0  0
   45.8760   31.6170   45.1240 C   0  0  0  0  0  0  0  0  0  0  0  0
   44.8570   31.4440   45.5780 H   0  0  0  0  0  0  0  0  0  0  0  0
   46.7890   31.0110   45.9890 O   0  0  0  0  0  0  0  0  0  0  0  0
   46.3150   31.1230   47.2660 C   0  0  0  0  0  0  0  0  0  0  0  0
   47.1570   30.7860   47.9380 H   0  0  0  0  0  0  0  0  0  0  0  0
   45.7810   32.4340   47.6840 C   0  0  2  0  0  0  0  0  0  0  0  0
   44.4300   34.0560   46.5040 O   0  0  0  0  0  0  0  0  0  0  0  0
   43.8330   33.2660   46.3900 H   0  0  0  0  0  0  0  0  0  0  0  0
   44.4570   32.2400   48.1420 O   0  0  0  0  0  0  0  0  0  0  0  0
   44.2700   32.7020   48.9760 H   0  0  0  0  0  0  0  0  0  0  0  0
   45.0900   37.2800   42.9190 C   0  0  0  0  0  0  0  0  0  0  0  0
   45.3020   38.0040   44.0100 C   0  0  0  0  0  0  0  0  0  0  0  0
   45.3990   39.4890   43.9190 C   0  0  0  0  0  0  0  0  0  0  0  0
   46.4020   39.7720   43.5460 H   0  0  0  0  0  0  0  0  0  0  0  0
   44.6670   39.9070   43.1750 H   0  0  0  0  0  0  0  0  0  0  0  0
   45.2580   39.9640   44.8960 H   0  0  0  0  0  0  0  0  0  0  0  0
  1  6  1  0  0  0  0
  2  3  1  0  0  0  0
  2  1  2  0  0  0  0
  3  4  2  0  0  0  0
  4  5  1  0  0  0  0
  6  5  2  0  0  0  0
  7  2  1  0  0  0  0
  8  3  1  0  0  0  0
  9 17  1  6  0  0  0
  9 16  1  0  0  0  0
 10  5  1  6  0  0  0
 10  9  1  0  0  0  0
 11 10  1  0  0  0  0
 11 12  1  0  0  0  0
 11 13  1  0  0  0  0
 13 14  1  0  0  0  0
 14 16  1  0  0  0  0
 14 15  1  0  0  0  0
 16 19  1  6  0  0  0
 18 17  1  0  0  0  0
 19 20  1  0  0  0  0
 21  1  1  0  0  0  0
 21 22  2  0  0  0  0
 23 22  1  0  0  0  0
 23 26  1  0  0  0  0
 24 23  1  0  0  0  0
 25 23  1  0  0  0  0
M  END
>  <minimizedAffinity>
-4.28704309

>  <minimizedRMSD>
2.11045527

$$$$
