
 OpenBabel03252504323D

 43 45  0  0  1  0  0  0  0  0999 V2000
   42.0500   35.3350   40.4270 C   0  0  0  0  0  0  0  0  0  0  0  0
   41.9120   36.0910   41.2420 H   0  0  0  0  0  0  0  0  0  0  0  0
   41.5930   35.7770   39.5190 H   0  0  0  0  0  0  0  0  0  0  0  0
   41.3660   33.0040   40.1330 C   0  0  0  0  0  0  0  0  0  0  0  0
   41.1480   34.2090   40.8400 C   0  0  0  0  0  0  0  0  0  0  0  0
   40.1740   34.2070   41.7860 C   0  0  0  0  0  0  0  0  0  0  0  0
   39.5060   33.0810   41.9740 N   0  0  0  0  0  0  0  0  0  0  0  0
   39.7050   31.9550   41.3160 C   0  0  0  0  0  0  0  0  0  0  0  0
   40.6840   31.8740   40.3310 N   0  0  0  0  0  0  0  0  0  0  0  0
   42.1240   32.9270   39.3640 H   0  0  0  0  0  0  0  0  0  0  0  0
   40.0530   35.1560   42.2940 H   0  0  0  0  0  0  0  0  0  0  0  0
   37.5950   30.7720   40.8560 C   0  0  1  0  0  0  0  0  0  0  0  0
   38.9090   30.7240   41.5850 C   0  0  1  0  0  0  0  0  0  0  0  0
   39.6800   29.4770   41.1820 C   0  0  0  0  0  0  0  0  0  0  0  0
   40.5240   29.2970   41.9050 H   0  0  0  0  0  0  0  0  0  0  0  0
   38.8600   28.3710   41.1020 O   0  0  0  0  0  0  0  0  0  0  0  0
   38.0990   28.4870   39.9580 C   0  0  0  0  0  0  0  0  0  0  0  0
   38.7040   28.0780   39.1140 H   0  0  0  0  0  0  0  0  0  0  0  0
   37.6240   29.8690   39.6570 C   0  0  2  0  0  0  0  0  0  0  0  0
   36.5130   30.4880   41.6920 O   0  0  0  0  0  0  0  0  0  0  0  0
   36.6810   29.7680   42.3250 H   0  0  0  0  0  0  0  0  0  0  0  0
   38.4850   30.4620   38.7050 O   0  0  0  0  0  0  0  0  0  0  0  0
   38.0040   31.2360   38.2990 H   0  0  0  0  0  0  0  0  0  0  0  0
   43.3230   34.9180   40.1720 O   0  0  0  0  0  0  0  0  0  0  0  0
   44.3780   34.7900   41.0620 C   0  0  0  0  0  0  0  0  0  0  0  0
   44.2430   35.4310   42.2180 C   0  0  0  0  0  0  0  0  0  0  0  0
   45.2550   35.4420   43.3500 C   0  0  0  0  0  0  0  0  0  0  0  0
   45.3120   36.4490   43.7990 H   0  0  0  0  0  0  0  0  0  0  0  0
   46.2210   35.1780   42.8660 H   0  0  0  0  0  0  0  0  0  0  0  0
   44.8850   34.4520   44.2390 O   0  0  0  0  0  0  0  0  0  0  0  0
   45.8200   32.2970   42.9850 O   0  0  0  0  0  0  0  0  0  0  0  0
   45.9860   33.1760   44.2020 P   0  0  1  0  0  0  0  0  0  0  0  0
   47.5810   33.7800   44.1600 O   0  0  0  0  0  0  0  0  0  0  0  0
   47.6980   34.2650   45.0150 H   0  0  0  0  0  0  0  0  0  0  0  0
   45.8510   32.2490   45.6070 O   0  0  0  0  0  0  0  0  0  0  0  0
   46.1650   32.9650   46.7400 C   0  0  0  0  0  0  0  0  0  0  0  0
   47.0620   32.3510   47.7690 C   0  0  0  0  0  0  0  0  0  0  0  0
   45.5770   32.4480   48.0290 C   0  0  0  0  0  0  0  0  0  0  0  0
   46.2050   34.0580   46.6050 H   0  0  0  0  0  0  0  0  0  0  0  0
   47.5200   31.3730   47.5510 H   0  0  0  0  0  0  0  0  0  0  0  0
   47.6620   33.0680   48.3600 H   0  0  0  0  0  0  0  0  0  0  0  0
   45.2070   33.1690   48.7970 H   0  0  0  0  0  0  0  0  0  0  0  0
   45.0700   31.4560   48.0220 H   0  0  0  0  0  0  0  0  0  0  0  0
  1  5  1  0  0  0  0
  1  2  1  0  0  0  0
  3  1  1  0  0  0  0
  4  9  2  0  0  0  0
  4  5  1  0  0  0  0
  5  6  2  0  0  0  0
  6  7  1  0  0  0  0
  6 11  1  0  0  0  0
  8  7  2  0  0  0  0
  9  8  1  0  0  0  0
 10  4  1  0  0  0  0
 12 13  1  0  0  0  0
 12 20  1  1  0  0  0
 13  8  1  6  0  0  0
 14 13  1  0  0  0  0
 14 15  1  0  0  0  0
 16 14  1  0  0  0  0
 17 16  1  0  0  0  0
 18 17  1  0  0  0  0
 19 22  1  6  0  0  0
 19 17  1  0  0  0  0
 19 12  1  0  0  0  0
 20 21  1  0  0  0  0
 23 22  1  0  0  0  0
 24  1  1  0  0  0  0
 24 25  1  0  0  0  0
 25 26  2  0  0  0  0
 26 27  1  0  0  0  0
 27 28  1  0  0  0  0
 27 30  1  0  0  0  0
 29 27  1  0  0  0  0
 32 31  2  6  0  0  0
 32 30  1  0  0  0  0
 32 35  1  0  0  0  0
 33 32  1  0  0  0  0
 33 34  1  0  0  0  0
 35 36  1  0  0  0  0
 36 37  1  0  0  0  0
 36 38  1  0  0  0  0
 37 38  1  0  0  0  0
 37 41  1  0  0  0  0
 38 42  1  0  0  0  0
 39 36  1  0  0  0  0
 40 37  1  0  0  0  0
 43 38  1  0  0  0  0
M  END
>  <minimizedAffinity>
-5.41756916

>  <minimizedRMSD>
2.0356524

$$$$
