
 OpenBabel03252506173D

 26 27  0  0  1  0  0  0  0  0999 V2000
   44.9160   35.7980   44.0160 C   0  0  0  0  0  0  0  0  0  0  0  0
   44.4230   35.3090   42.7810 C   0  0  0  0  0  0  0  0  0  0  0  0
   44.5350   33.9470   42.5380 C   0  0  0  0  0  0  0  0  0  0  0  0
   45.1070   33.1500   43.4850 N   0  0  0  0  0  0  0  0  0  0  0  0
   45.5700   33.6510   44.6590 C   0  0  0  0  0  0  0  0  0  0  0  0
   45.4620   34.9730   44.8990 N   0  0  0  0  0  0  0  0  0  0  0  0
   43.9740   35.9530   42.0460 H   0  0  0  0  0  0  0  0  0  0  0  0
   44.1790   33.4990   41.6120 H   0  0  0  0  0  0  0  0  0  0  0  0
   45.8440   32.9890   47.0480 C   0  0  2  0  0  3  0  0  0  0  0  0
   46.1680   32.7040   45.6080 C   0  0  1  0  0  3  0  0  0  0  0  0
   45.6560   31.2930   45.2850 C   0  0  0  0  0  3  0  0  0  0  0  0
   44.6470   31.1980   45.7860 H   0  0  0  0  0  0  0  0  0  0  0  0
   46.5200   30.4690   46.0070 O   0  0  0  0  0  0  0  0  0  0  0  0
   46.1320   30.4810   47.3190 C   0  0  0  0  0  3  0  0  0  0  0  0
   46.9550   29.9550   47.8880 H   0  0  0  0  0  0  0  0  0  0  0  0
   45.8070   31.7870   47.9240 C   0  0  2  0  0  3  0  0  0  0  0  0
   44.6330   33.7070   47.0380 O   0  0  0  0  0  0  0  0  0  0  0  0
   43.9280   33.0210   46.8730 H   0  0  0  0  0  0  0  0  0  0  0  0
   44.4950   31.7130   48.4460 O   0  0  0  0  0  0  0  0  0  0  0  0
   44.4170   32.0850   49.3390 H   0  0  0  0  0  0  0  0  0  0  0  0
   44.8020   37.2380   44.2830 C   0  0  0  0  0  3  0  0  0  0  0  0
   45.5060   38.0700   43.5270 C   0  0  0  0  0  3  0  0  0  0  0  0
   45.4260   39.5410   43.7540 C   0  0  0  0  0  0  0  0  0  0  0  0
   44.4940   39.9350   43.3040 H   0  0  0  0  0  0  0  0  0  0  0  0
   45.3660   39.7900   44.8480 H   0  0  0  0  0  0  0  0  0  0  0  0
   46.2700   40.0680   43.2930 H   0  0  0  0  0  0  0  0  0  0  0  0
  1 21  1  0  0  0  0
  1  6  1  0  0  0  0
  2  1  2  0  0  0  0
  3  2  1  0  0  0  0
  3  4  2  0  0  0  0
  4  5  1  0  0  0  0
  5  6  2  0  0  0  0
  7  2  1  0  0  0  0
  8  3  1  0  0  0  0
  9 17  1  6  0  0  0
  9 16  1  0  0  0  0
 10  5  1  6  0  0  0
 10  9  1  0  0  0  0
 11 10  1  0  0  0  0
 11 12  1  0  0  0  0
 11 13  1  0  0  0  0
 13 14  1  0  0  0  0
 14 15  1  0  0  0  0
 14 16  1  0  0  0  0
 16 19  1  6  0  0  0
 18 17  1  0  0  0  0
 19 20  1  0  0  0  0
 22 23  1  0  0  0  0
 22 21  2  0  0  0  0
 23 25  1  0  0  0  0
 24 23  1  0  0  0  0
 26 23  1  0  0  0  0
M  END
>  <minimizedAffinity>
-4.27362251

>  <minimizedRMSD>
1.51448965

$$$$
