
 OpenBabel03252507433D

 34 36  0  0  1  0  0  0  0  0999 V2000
   44.4970   34.7010   41.2290 C   0  0  0  0  0  0  0  0  0  0  0  0
   43.5770   35.6680   41.7500 C   0  0  0  0  0  0  0  0  0  0  0  0
   42.0480   35.3410   40.7680 S   0  0  0  0  0  0  0  0  0  0  0  0
   42.9240   33.9580   39.8280 C   0  0  0  0  0  0  0  0  0  0  0  0
   43.9660   33.9580   40.2850 N   0  0  0  0  0  0  0  0  0  0  0  0
   43.7980   36.3830   42.5320 H   0  0  0  0  0  0  0  0  0  0  0  0
   41.2730   32.1510   39.3930 C   0  0  1  0  0  3  0  0  0  0  0  0
   42.2430   33.1540   38.7600 C   0  0  2  0  0  3  0  0  0  0  0  0
   43.3080   32.3920   38.0470 C   0  0  0  0  0  3  0  0  0  0  0  0
   43.3910   32.7920   37.0080 H   0  0  0  0  0  0  0  0  0  0  0  0
   42.9060   31.0550   37.8700 O   0  0  0  0  0  0  0  0  0  0  0  0
   41.6440   30.9820   37.2880 C   0  0  0  0  0  3  0  0  0  0  0  0
   41.5740   31.6160   36.3670 H   0  0  0  0  0  0  0  0  0  0  0  0
   40.6130   31.3870   38.2930 C   0  0  2  0  0  3  0  0  0  0  0  0
   41.9820   31.4000   40.2960 O   0  0  0  0  0  0  0  0  0  0  0  0
   41.5530   31.3150   41.1800 H   0  0  0  0  0  0  0  0  0  0  0  0
   39.6380   32.2400   37.7250 O   0  0  0  0  0  0  0  0  0  0  0  0
   39.3670   32.9140   38.3920 H   0  0  0  0  0  0  0  0  0  0  0  0
   45.8790   34.6060   41.7440 C   0  0  0  0  0  0  0  0  0  0  0  0
   46.1640   35.5540   42.2410 H   0  0  0  0  0  0  0  0  0  0  0  0
   45.8570   33.7850   42.5090 H   0  0  0  0  0  0  0  0  0  0  0  0
   46.9140   34.2500   40.7440 C   0  0  0  0  0  0  0  0  0  0  0  0
   47.0270   35.1470   40.0660 H   0  0  0  0  0  0  0  0  0  0  0  0
   46.6360   33.4340   40.0880 H   0  0  0  0  0  0  0  0  0  0  0  0
   48.2700   34.0560   41.3230 C   0  0  0  0  0  0  0  0  0  0  0  0
   48.9210   32.8560   41.0360 C   0  0  0  0  0  0  0  0  0  0  0  0
   50.1810   32.6310   41.5500 C   0  0  0  0  0  0  0  0  0  0  0  0
   50.7490   33.6050   42.3290 N   0  0  0  0  0  0  0  0  0  0  0  0
   50.0830   34.7560   42.5850 C   0  0  0  0  0  0  0  0  0  0  0  0
   48.8770   34.9670   42.0900 N   0  0  0  0  0  0  0  0  0  0  0  0
   50.7150   31.7160   41.3500 H   0  0  0  0  0  0  0  0  0  0  0  0
   50.5370   35.5290   43.2050 H   0  0  0  0  0  0  0  0  0  0  0  0
   48.1050   31.6250   40.0030 S   0  0  0  0  0  0  0  0  0  0  0  0
   47.9800   30.4080   40.7310 H   0  0  0  0  0  0  0  0  0  0  0  0
  1 19  1  0  0  0  0
  1  2  2  0  0  0  0
  2  6  1  0  0  0  0
  3  2  1  0  0  0  0
  4  5  2  0  0  0  0
  4  3  1  0  0  0  0
  5  1  1  0  0  0  0
  7 15  1  1  0  0  0
  8  7  1  0  0  0  0
  8  4  1  1  0  0  0
  9  8  1  0  0  0  0
 10  9  1  0  0  0  0
 11  9  1  0  0  0  0
 12 11  1  0  0  0  0
 12 14  1  0  0  0  0
 13 12  1  0  0  0  0
 14 17  1  6  0  0  0
 14  7  1  0  0  0  0
 15 16  1  0  0  0  0
 17 18  1  0  0  0  0
 19 20  1  0  0  0  0
 19 21  1  0  0  0  0
 22 25  1  0  0  0  0
 22 19  1  0  0  0  0
 23 22  1  0  0  0  0
 24 22  1  0  0  0  0
 25 30  1  0  0  0  0
 26 25  2  0  0  0  0
 26 27  1  0  0  0  0
 27 28  2  0  0  0  0
 28 29  1  0  0  0  0
 29 32  1  0  0  0  0
 30 29  2  0  0  0  0
 31 27  1  0  0  0  0
 33 34  1  0  0  0  0
 33 26  1  0  0  0  0
M  END
>  <minimizedAffinity>
-4.44393206

>  <minimizedRMSD>
0.674849927

$$$$
