
 OpenBabel03242521153D

 31 33  0  0  1  0  0  0  0  0999 V2000
   37.1070   28.2640   43.6770 C   0  0  0  0  0  0  0  0  0  0  0  0
   37.0970   26.9450   43.1620 C   0  0  0  0  0  0  0  0  0  0  0  0
   37.5390   26.7640   41.8480 C   0  0  0  0  0  0  0  0  0  0  0  0
   37.9480   27.8580   41.1510 N   0  0  0  0  0  0  0  0  0  0  0  0
   37.9480   29.0930   41.6590 C   0  0  0  0  0  0  0  0  0  0  0  0
   37.5240   29.3080   42.9390 N   0  0  0  0  0  0  0  0  0  0  0  0
   36.7590   28.3900   44.7060 H   0  0  0  0  0  0  0  0  0  0  0  0
   36.7540   26.1320   43.7890 H   0  0  0  0  0  0  0  0  0  0  0  0
   37.5350   25.4400   41.3150 N   0  0  0  0  0  0  0  0  0  0  0  0
   36.6100   25.1510   40.3780 C   0  0  0  0  0  0  0  0  0  0  0  0
   36.5890   23.8650   39.8460 C   0  0  0  0  0  0  0  0  0  0  0  0
   37.5110   22.9670   40.3060 C   0  0  0  0  0  0  0  0  0  0  0  0
   37.4900   21.7890   39.8170 O   0  0  0  0  0  0  0  0  0  0  0  0
   38.4410   23.2480   41.2450 N   0  0  0  0  0  0  0  0  0  0  0  0
   38.4070   24.5110   41.7200 C   0  0  0  0  0  0  0  0  0  0  0  0
   39.2250   24.8830   42.5940 O   0  0  0  0  0  0  0  0  0  0  0  0
   35.8800   25.8740   40.0160 H   0  0  0  0  0  0  0  0  0  0  0  0
   35.8490   23.6240   39.0900 H   0  0  0  0  0  0  0  0  0  0  0  0
   39.1410   22.5380   41.5820 H   0  0  0  0  0  0  0  0  0  0  0  0
   37.4880   31.4420   41.0180 C   0  0  1  0  0  3  0  0  0  0  0  0
   38.4070   30.2550   40.8490 C   0  0  2  0  0  3  0  0  0  0  0  0
   38.5370   29.8130   39.4250 C   0  0  0  0  0  3  0  0  0  0  0  0
   38.6280   28.7110   39.3860 H   0  0  0  0  0  0  0  0  0  0  0  0
   37.4040   30.1730   38.7180 O   0  0  0  0  0  0  0  0  0  0  0  0
   37.3240   31.5510   38.5240 C   0  0  0  0  0  3  0  0  0  0  0  0
   38.1040   31.8120   37.7710 H   0  0  0  0  0  0  0  0  0  0  0  0
   37.6170   32.3100   39.7910 C   0  0  1  0  0  3  0  0  0  0  0  0
   36.1740   31.0410   41.2360 O   0  0  0  0  0  0  0  0  0  0  0  0
   35.8470   30.6120   40.4060 H   0  0  0  0  0  0  0  0  0  0  0  0
   36.7060   33.3450   39.8980 O   0  0  0  0  0  0  0  0  0  0  0  0
   36.3100   33.3970   40.8060 H   0  0  0  0  0  0  0  0  0  0  0  0
  1  7  1  0  0  0  0
  2  1  1  0  0  0  0
  2  8  1  0  0  0  0
  3  2  2  0  0  0  0
  4  5  2  0  0  0  0
  4  3  1  0  0  0  0
  5  6  1  0  0  0  0
  6  1  2  0  0  0  0
  9 15  1  0  0  0  0
  9  3  1  0  0  0  0
 10  9  1  0  0  0  0
 11 12  1  0  0  0  0
 11 10  2  0  0  0  0
 12 14  1  0  0  0  0
 13 12  2  0  0  0  0
 14 19  1  0  0  0  0
 14 15  1  0  0  0  0
 15 16  2  0  0  0  0
 17 10  1  0  0  0  0
 18 11  1  0  0  0  0
 20 28  1  6  0  0  0
 21 20  1  0  0  0  0
 21  5  1  1  0  0  0
 22 21  1  0  0  0  0
 23 22  1  0  0  0  0
 24 22  1  0  0  0  0
 25 24  1  0  0  0  0
 25 27  1  0  0  0  0
 26 25  1  0  0  0  0
 27 30  1  1  0  0  0
 27 20  1  0  0  0  0
 29 28  1  0  0  0  0
 30 31  1  0  0  0  0
M  END
>  <minimizedAffinity>
-6.18870449

$$$$

 OpenBabel03242521153D

 31 33  0  0  1  0  0  0  0  0999 V2000
   37.3350   32.6980   39.9800 C   0  0  0  0  0  0  0  0  0  0  0  0
   37.0450   31.3900   40.4400 C   0  0  0  0  0  0  0  0  0  0  0  0
   38.1250   30.5210   40.6290 C   0  0  0  0  0  0  0  0  0  0  0  0
   39.3760   30.9830   40.3620 N   0  0  0  0  0  0  0  0  0  0  0  0
   39.6230   32.2220   39.9280 C   0  0  0  0  0  0  0  0  0  0  0  0
   38.5940   33.0980   39.7320 N   0  0  0  0  0  0  0  0  0  0  0  0
   36.4810   33.3660   39.8370 H   0  0  0  0  0  0  0  0  0  0  0  0
   36.0180   31.1070   40.6270 H   0  0  0  0  0  0  0  0  0  0  0  0
   37.8490   29.2000   41.0920 N   0  0  0  0  0  0  0  0  0  0  0  0
   37.3620   28.3170   40.1980 C   0  0  0  0  0  0  0  0  0  0  0  0
   37.0870   27.0240   40.6300 C   0  0  0  0  0  0  0  0  0  0  0  0
   37.3270   26.7220   41.9420 C   0  0  0  0  0  0  0  0  0  0  0  0
   37.0740   25.5360   42.3360 O   0  0  0  0  0  0  0  0  0  0  0  0
   37.8150   27.6000   42.8450 N   0  0  0  0  0  0  0  0  0  0  0  0
   38.0600   28.8370   42.3620 C   0  0  0  0  0  0  0  0  0  0  0  0
   38.5140   29.7330   43.1120 O   0  0  0  0  0  0  0  0  0  0  0  0
   37.1750   28.5660   39.1540 H   0  0  0  0  0  0  0  0  0  0  0  0
   36.6950   26.3060   39.9170 H   0  0  0  0  0  0  0  0  0  0  0  0
   37.9910   27.3430   43.8510 H   0  0  0  0  0  0  0  0  0  0  0  0
   41.0980   33.4320   38.3470 C   0  0  1  0  0  3  0  0  0  0  0  0
   41.0150   32.6720   39.6510 C   0  0  2  0  0  3  0  0  0  0  0  0
   41.9130   31.4770   39.6910 C   0  0  0  0  0  3  0  0  0  0  0  0
   41.4230   30.6630   40.2590 H   0  0  0  0  0  0  0  0  0  0  0  0
   42.1440   31.0210   38.4050 O   0  0  0  0  0  0  0  0  0  0  0  0
   42.9540   31.8910   37.6790 C   0  0  0  0  0  3  0  0  0  0  0  0
   43.9830   31.7940   38.0980 H   0  0  0  0  0  0  0  0  0  0  0  0
   42.5130   33.3230   37.8350 C   0  0  1  0  0  3  0  0  0  0  0  0
   40.1730   32.9580   37.4220 O   0  0  0  0  0  0  0  0  0  0  0  0
   40.4380   32.0380   37.1720 H   0  0  0  0  0  0  0  0  0  0  0  0
   42.5690   33.9320   36.5940 O   0  0  0  0  0  0  0  0  0  0  0  0
   41.7470   34.4510   36.3990 H   0  0  0  0  0  0  0  0  0  0  0  0
  1  2  1  0  0  0  0
  2  8  1  0  0  0  0
  2  3  2  0  0  0  0
  3  9  1  0  0  0  0
  4  3  1  0  0  0  0
  5  4  2  0  0  0  0
  6  5  1  0  0  0  0
  6  1  2  0  0  0  0
  7  1  1  0  0  0  0
  9 15  1  0  0  0  0
 10 11  2  0  0  0  0
 10  9  1  0  0  0  0
 11 12  1  0  0  0  0
 12 13  2  0  0  0  0
 12 14  1  0  0  0  0
 14 19  1  0  0  0  0
 15 14  1  0  0  0  0
 15 16  2  0  0  0  0
 17 10  1  0  0  0  0
 18 11  1  0  0  0  0
 20 28  1  6  0  0  0
 20 21  1  0  0  0  0
 21 22  1  0  0  0  0
 21  5  1  6  0  0  0
 22 23  1  0  0  0  0
 24 22  1  0  0  0  0
 25 27  1  0  0  0  0
 25 26  1  0  0  0  0
 25 24  1  0  0  0  0
 27 30  1  6  0  0  0
 27 20  1  0  0  0  0
 29 28  1  0  0  0  0
 31 30  1  0  0  0  0
M  END
>  <minimizedAffinity>
-6.00785446

$$$$

 OpenBabel03242521153D

 31 33  0  0  1  0  0  0  0  0999 V2000
   37.3460   32.8710   39.9040 C   0  0  0  0  0  0  0  0  0  0  0  0
   37.0370   31.5810   40.3990 C   0  0  0  0  0  0  0  0  0  0  0  0
   38.1050   30.7090   40.6350 C   0  0  0  0  0  0  0  0  0  0  0  0
   39.3650   31.1520   40.3750 N   0  0  0  0  0  0  0  0  0  0  0  0
   39.6300   32.3740   39.9080 C   0  0  0  0  0  0  0  0  0  0  0  0
   38.6130   33.2520   39.6670 N   0  0  0  0  0  0  0  0  0  0  0  0
   36.5010   33.5420   39.7250 H   0  0  0  0  0  0  0  0  0  0  0  0
   36.0030   31.3130   40.5770 H   0  0  0  0  0  0  0  0  0  0  0  0
   37.8090   29.4060   41.1340 N   0  0  0  0  0  0  0  0  0  0  0  0
   37.6200   29.2770   42.4620 C   0  0  0  0  0  0  0  0  0  0  0  0
   37.3320   28.0140   42.9680 C   0  0  0  0  0  0  0  0  0  0  0  0
   37.2560   26.9720   42.0860 C   0  0  0  0  0  0  0  0  0  0  0  0
   36.9910   25.8150   42.5520 O   0  0  0  0  0  0  0  0  0  0  0  0
   37.4440   27.0920   40.7530 N   0  0  0  0  0  0  0  0  0  0  0  0
   37.7210   28.3430   40.3270 C   0  0  0  0  0  0  0  0  0  0  0  0
   37.9140   28.5710   39.1100 O   0  0  0  0  0  0  0  0  0  0  0  0
   37.6820   30.1130   43.1580 H   0  0  0  0  0  0  0  0  0  0  0  0
   37.1770   27.9010   44.0360 H   0  0  0  0  0  0  0  0  0  0  0  0
   37.3800   26.2740   40.0940 H   0  0  0  0  0  0  0  0  0  0  0  0
   41.1460   33.5120   38.3110 C   0  0  1  0  0  3  0  0  0  0  0  0
   41.0310   32.8040   39.6420 C   0  0  2  0  0  3  0  0  0  0  0  0
   41.9190   31.6050   39.7470 C   0  0  0  0  0  3  0  0  0  0  0  0
   41.4110   30.8180   40.3360 H   0  0  0  0  0  0  0  0  0  0  0  0
   42.1720   31.0980   38.4850 O   0  0  0  0  0  0  0  0  0  0  0  0
   43.0030   31.9340   37.7410 C   0  0  0  0  0  3  0  0  0  0  0  0
   44.0220   31.8450   38.1850 H   0  0  0  0  0  0  0  0  0  0  0  0
   42.5700   33.3730   37.8330 C   0  0  1  0  0  3  0  0  0  0  0  0
   40.2360   33.0090   37.3870 O   0  0  0  0  0  0  0  0  0  0  0  0
   40.4990   32.0780   37.1780 H   0  0  0  0  0  0  0  0  0  0  0  0
   42.6560   33.9340   36.5710 O   0  0  0  0  0  0  0  0  0  0  0  0
   41.8420   34.4500   36.3390 H   0  0  0  0  0  0  0  0  0  0  0  0
  1  2  1  0  0  0  0
  2  8  1  0  0  0  0
  2  3  2  0  0  0  0
  3  9  1  0  0  0  0
  4  3  1  0  0  0  0
  5  4  2  0  0  0  0
  6  1  2  0  0  0  0
  6  5  1  0  0  0  0
  7  1  1  0  0  0  0
  9 10  1  0  0  0  0
 10 11  2  0  0  0  0
 10 17  1  0  0  0  0
 11 18  1  0  0  0  0
 12 13  2  0  0  0  0
 12 11  1  0  0  0  0
 14 12  1  0  0  0  0
 15 14  1  0  0  0  0
 15  9  1  0  0  0  0
 16 15  2  0  0  0  0
 19 14  1  0  0  0  0
 20 28  1  6  0  0  0
 20 21  1  0  0  0  0
 21 22  1  0  0  0  0
 21  5  1  6  0  0  0
 22 23  1  0  0  0  0
 24 22  1  0  0  0  0
 25 27  1  0  0  0  0
 25 26  1  0  0  0  0
 25 24  1  0  0  0  0
 27 30  1  6  0  0  0
 27 20  1  0  0  0  0
 29 28  1  0  0  0  0
 31 30  1  0  0  0  0
M  END
>  <minimizedAffinity>
-5.98995972

$$$$

 OpenBabel03242521153D

 31 33  0  0  1  0  0  0  0  0999 V2000
   37.3380   27.6350   43.6780 C   0  0  0  0  0  0  0  0  0  0  0  0
   37.3880   28.9610   43.1850 C   0  0  0  0  0  0  0  0  0  0  0  0
   37.8860   29.1480   41.8910 C   0  0  0  0  0  0  0  0  0  0  0  0
   38.2880   28.0520   41.1930 N   0  0  0  0  0  0  0  0  0  0  0  0
   38.2310   26.8100   41.6820 C   0  0  0  0  0  0  0  0  0  0  0  0
   37.7500   26.5900   42.9400 N   0  0  0  0  0  0  0  0  0  0  0  0
   36.9460   27.5050   44.6910 H   0  0  0  0  0  0  0  0  0  0  0  0
   37.0460   29.7750   43.8110 H   0  0  0  0  0  0  0  0  0  0  0  0
   37.9430   30.4780   41.3800 N   0  0  0  0  0  0  0  0  0  0  0  0
   39.1370   31.1030   41.4050 C   0  0  0  0  0  0  0  0  0  0  0  0
   39.2130   32.4020   40.9110 C   0  0  0  0  0  0  0  0  0  0  0  0
   38.0690   32.9710   40.4270 C   0  0  0  0  0  0  0  0  0  0  0  0
   38.1410   34.1610   39.9740 O   0  0  0  0  0  0  0  0  0  0  0  0
   36.8680   32.3520   40.3970 N   0  0  0  0  0  0  0  0  0  0  0  0
   36.8620   31.0960   40.8910 C   0  0  0  0  0  0  0  0  0  0  0  0
   35.8020   30.4270   40.9130 O   0  0  0  0  0  0  0  0  0  0  0  0
   40.0440   30.6420   41.7930 H   0  0  0  0  0  0  0  0  0  0  0  0
   40.1700   32.9120   40.9280 H   0  0  0  0  0  0  0  0  0  0  0  0
   36.0000   32.8120   40.0180 H   0  0  0  0  0  0  0  0  0  0  0  0
   37.7820   25.4170   39.6820 C   0  0  1  0  0  3  0  0  0  0  0  0
   38.6860   25.6470   40.8710 C   0  0  2  0  0  3  0  0  0  0  0  0
   38.7840   24.4560   41.7720 C   0  0  0  0  0  3  0  0  0  0  0  0
   38.8630   24.7920   42.8230 H   0  0  0  0  0  0  0  0  0  0  0  0
   37.6410   23.6850   41.6540 O   0  0  0  0  0  0  0  0  0  0  0  0
   37.5730   23.0360   40.4230 C   0  0  0  0  0  3  0  0  0  0  0  0
   38.3410   22.2280   40.4460 H   0  0  0  0  0  0  0  0  0  0  0  0
   37.8970   23.9660   39.2840 C   0  0  1  0  0  3  0  0  0  0  0  0
   36.4690   25.7760   39.9640 O   0  0  0  0  0  0  0  0  0  0  0  0
   36.1220   25.1460   40.6440 H   0  0  0  0  0  0  0  0  0  0  0  0
   36.9990   23.7290   38.2590 O   0  0  0  0  0  0  0  0  0  0  0  0
   36.6210   24.5700   37.8960 H   0  0  0  0  0  0  0  0  0  0  0  0
  1  7  1  0  0  0  0
  2  1  1  0  0  0  0
  2  8  1  0  0  0  0
  3  2  2  0  0  0  0
  4  5  2  0  0  0  0
  4  3  1  0  0  0  0
  5  6  1  0  0  0  0
  6  1  2  0  0  0  0
  9 10  1  0  0  0  0
  9  3  1  0  0  0  0
 10 17  1  0  0  0  0
 11 18  1  0  0  0  0
 11 10  2  0  0  0  0
 12 11  1  0  0  0  0
 13 12  2  0  0  0  0
 14 12  1  0  0  0  0
 14 15  1  0  0  0  0
 15 16  2  0  0  0  0
 15  9  1  0  0  0  0
 19 14  1  0  0  0  0
 20 28  1  1  0  0  0
 20 21  1  0  0  0  0
 21  5  1  1  0  0  0
 21 22  1  0  0  0  0
 22 23  1  0  0  0  0
 24 22  1  0  0  0  0
 25 26  1  0  0  0  0
 25 24  1  0  0  0  0
 27 30  1  6  0  0  0
 27 20  1  0  0  0  0
 27 25  1  0  0  0  0
 28 29  1  0  0  0  0
 31 30  1  0  0  0  0
M  END
>  <minimizedAffinity>
-5.87046814

$$$$

 OpenBabel03242521153D

 31 33  0  0  1  0  0  0  0  0999 V2000
   36.3460   26.6870   38.8140 C   0  0  0  0  0  0  0  0  0  0  0  0
   36.2890   28.1030   38.8110 C   0  0  0  0  0  0  0  0  0  0  0  0
   37.3040   28.7890   39.4860 C   0  0  0  0  0  0  0  0  0  0  0  0
   38.2750   28.0590   40.0990 N   0  0  0  0  0  0  0  0  0  0  0  0
   38.3050   26.7240   40.0880 C   0  0  0  0  0  0  0  0  0  0  0  0
   37.3320   26.0210   39.4390 N   0  0  0  0  0  0  0  0  0  0  0  0
   35.5450   26.1650   38.2820 H   0  0  0  0  0  0  0  0  0  0  0  0
   35.4790   28.6020   38.2960 H   0  0  0  0  0  0  0  0  0  0  0  0
   37.2620   30.2150   39.4910 N   0  0  0  0  0  0  0  0  0  0  0  0
   37.8190   30.8570   38.4450 C   0  0  0  0  0  0  0  0  0  0  0  0
   37.7880   32.2480   38.4320 C   0  0  0  0  0  0  0  0  0  0  0  0
   37.1920   32.8850   39.4850 C   0  0  0  0  0  0  0  0  0  0  0  0
   37.1640   34.1600   39.4710 O   0  0  0  0  0  0  0  0  0  0  0  0
   36.6310   32.2500   40.5370 N   0  0  0  0  0  0  0  0  0  0  0  0
   36.6950   30.9020   40.4890 C   0  0  0  0  0  0  0  0  0  0  0  0
   36.2070   30.2090   41.4120 O   0  0  0  0  0  0  0  0  0  0  0  0
   38.2910   30.3410   37.6100 H   0  0  0  0  0  0  0  0  0  0  0  0
   38.2330   32.7730   37.5940 H   0  0  0  0  0  0  0  0  0  0  0  0
   36.1780   32.7630   41.3360 H   0  0  0  0  0  0  0  0  0  0  0  0
   38.8350   24.9110   41.6920 C   0  0  1  0  0  3  0  0  0  0  0  0
   39.3930   25.9770   40.7780 C   0  0  2  0  0  3  0  0  0  0  0  0
   40.2620   26.9650   41.4920 C   0  0  0  0  0  3  0  0  0  0  0  0
   40.1230   27.9690   41.0480 H   0  0  0  0  0  0  0  0  0  0  0  0
   39.8970   27.0320   42.8240 O   0  0  0  0  0  0  0  0  0  0  0  0
   40.2440   25.8770   43.5210 C   0  0  0  0  0  3  0  0  0  0  0  0
   41.3530   25.8920   43.6320 H   0  0  0  0  0  0  0  0  0  0  0  0
   39.8610   24.6330   42.7630 C   0  0  1  0  0  3  0  0  0  0  0  0
   37.6110   25.2920   42.2310 O   0  0  0  0  0  0  0  0  0  0  0  0
   37.7720   26.0570   42.8390 H   0  0  0  0  0  0  0  0  0  0  0  0
   39.3150   23.7300   43.6580 O   0  0  0  0  0  0  0  0  0  0  0  0
   38.4720   23.3340   43.3160 H   0  0  0  0  0  0  0  0  0  0  0  0
  1  6  1  0  0  0  0
  2  1  2  0  0  0  0
  2  3  1  0  0  0  0
  3  9  1  0  0  0  0
  3  4  2  0  0  0  0
  5  4  1  0  0  0  0
  6  5  2  0  0  0  0
  7  1  1  0  0  0  0
  8  2  1  0  0  0  0
  9 15  1  0  0  0  0
 10  9  1  0  0  0  0
 11 10  2  0  0  0  0
 11 12  1  0  0  0  0
 12 14  1  0  0  0  0
 13 12  2  0  0  0  0
 14 19  1  0  0  0  0
 15 14  1  0  0  0  0
 15 16  2  0  0  0  0
 17 10  1  0  0  0  0
 18 11  1  0  0  0  0
 20 28  1  1  0  0  0
 20 27  1  0  0  0  0
 21  5  1  1  0  0  0
 21 22  1  0  0  0  0
 21 20  1  0  0  0  0
 22 24  1  0  0  0  0
 23 22  1  0  0  0  0
 24 25  1  0  0  0  0
 25 26  1  0  0  0  0
 27 25  1  0  0  0  0
 27 30  1  1  0  0  0
 28 29  1  0  0  0  0
 31 30  1  0  0  0  0
M  END
>  <minimizedAffinity>
-5.70726681

$$$$

 OpenBabel03242521153D

 31 33  0  0  1  0  0  0  0  0999 V2000
   36.2600   30.7170   41.0380 C   0  0  0  0  0  0  0  0  0  0  0  0
   36.2680   29.3060   41.1670 C   0  0  0  0  0  0  0  0  0  0  0  0
   37.4640   28.6410   40.8760 C   0  0  0  0  0  0  0  0  0  0  0  0
   38.5360   29.3850   40.4910 N   0  0  0  0  0  0  0  0  0  0  0  0
   38.5020   30.7150   40.3770 C   0  0  0  0  0  0  0  0  0  0  0  0
   37.3520   31.3980   40.6520 N   0  0  0  0  0  0  0  0  0  0  0  0
   35.3180   31.2230   41.2690 H   0  0  0  0  0  0  0  0  0  0  0  0
   35.3680   28.7950   41.4800 H   0  0  0  0  0  0  0  0  0  0  0  0
   37.4890   27.2200   41.0020 N   0  0  0  0  0  0  0  0  0  0  0  0
   37.0210   26.4970   39.9650 C   0  0  0  0  0  0  0  0  0  0  0  0
   37.0370   25.1090   40.0670 C   0  0  0  0  0  0  0  0  0  0  0  0
   37.5270   24.5580   41.2180 C   0  0  0  0  0  0  0  0  0  0  0  0
   37.5400   23.2860   41.3100 O   0  0  0  0  0  0  0  0  0  0  0  0
   37.9970   25.2750   42.2630 N   0  0  0  0  0  0  0  0  0  0  0  0
   37.9540   26.6150   42.1000 C   0  0  0  0  0  0  0  0  0  0  0  0
   38.3650   27.3780   43.0040 O   0  0  0  0  0  0  0  0  0  0  0  0
   36.6330   26.9450   39.0510 H   0  0  0  0  0  0  0  0  0  0  0  0
   36.6630   24.5200   39.2370 H   0  0  0  0  0  0  0  0  0  0  0  0
   38.3700   24.8260   43.1390 H   0  0  0  0  0  0  0  0  0  0  0  0
   40.6340   31.7420   41.1140 C   0  0  1  0  0  3  0  0  0  0  0  0
   39.7070   31.4780   39.9490 C   0  0  2  0  0  3  0  0  0  0  0  0
   39.2540   32.7290   39.2660 C   0  0  0  0  0  3  0  0  0  0  0  0
   38.2090   32.6070   38.9240 H   0  0  0  0  0  0  0  0  0  0  0  0
   39.2910   33.7880   40.1560 O   0  0  0  0  0  0  0  0  0  0  0  0
   40.5960   34.1600   40.4730 C   0  0  0  0  0  3  0  0  0  0  0  0
   41.0120   34.6630   39.5690 H   0  0  0  0  0  0  0  0  0  0  0  0
   41.4550   32.9640   40.7870 C   0  0  1  0  0  3  0  0  0  0  0  0
   39.9270   31.8920   42.3020 O   0  0  0  0  0  0  0  0  0  0  0  0
   39.3960   32.7250   42.2360 H   0  0  0  0  0  0  0  0  0  0  0  0
   42.2340   33.2660   41.8900 O   0  0  0  0  0  0  0  0  0  0  0  0
   42.2230   32.5370   42.5620 H   0  0  0  0  0  0  0  0  0  0  0  0
  1  2  1  0  0  0  0
  1  7  1  0  0  0  0
  2  8  1  0  0  0  0
  3  9  1  0  0  0  0
  3  2  2  0  0  0  0
  4  3  1  0  0  0  0
  5  4  2  0  0  0  0
  5  6  1  0  0  0  0
  6  1  2  0  0  0  0
  9 15  1  0  0  0  0
 10 11  2  0  0  0  0
 10  9  1  0  0  0  0
 11 12  1  0  0  0  0
 12 13  2  0  0  0  0
 12 14  1  0  0  0  0
 14 19  1  0  0  0  0
 15 14  1  0  0  0  0
 15 16  2  0  0  0  0
 17 10  1  0  0  0  0
 18 11  1  0  0  0  0
 20 28  1  1  0  0  0
 21  5  1  1  0  0  0
 21 20  1  0  0  0  0
 22 21  1  0  0  0  0
 22 24  1  0  0  0  0
 23 22  1  0  0  0  0
 24 25  1  0  0  0  0
 25 27  1  0  0  0  0
 26 25  1  0  0  0  0
 27 20  1  0  0  0  0
 27 30  1  1  0  0  0
 29 28  1  0  0  0  0
 30 31  1  0  0  0  0
M  END
>  <minimizedAffinity>
-5.65136909

$$$$

 OpenBabel03242521153D

 31 33  0  0  1  0  0  0  0  0999 V2000
   36.7150   30.7660   41.1980 C   0  0  0  0  0  0  0  0  0  0  0  0
   37.5820   31.5800   40.4290 C   0  0  0  0  0  0  0  0  0  0  0  0
   38.8720   31.0980   40.1880 C   0  0  0  0  0  0  0  0  0  0  0  0
   39.2120   29.8860   40.7030 N   0  0  0  0  0  0  0  0  0  0  0  0
   38.3760   29.1370   41.4260 C   0  0  0  0  0  0  0  0  0  0  0  0
   37.1080   29.5750   41.6810 N   0  0  0  0  0  0  0  0  0  0  0  0
   35.7090   31.1560   41.3780 H   0  0  0  0  0  0  0  0  0  0  0  0
   37.2270   32.5330   40.0580 H   0  0  0  0  0  0  0  0  0  0  0  0
   39.7570   31.9070   39.4140 N   0  0  0  0  0  0  0  0  0  0  0  0
   40.6110   32.7070   40.0830 C   0  0  0  0  0  0  0  0  0  0  0  0
   41.4820   33.5040   39.3460 C   0  0  0  0  0  0  0  0  0  0  0  0
   41.4210   33.4300   37.9830 C   0  0  0  0  0  0  0  0  0  0  0  0
   42.2200   34.1610   37.3100 O   0  0  0  0  0  0  0  0  0  0  0  0
   40.5680   32.6310   37.3050 N   0  0  0  0  0  0  0  0  0  0  0  0
   39.7500   31.8840   38.0770 C   0  0  0  0  0  0  0  0  0  0  0  0
   38.9190   31.1060   37.5550 O   0  0  0  0  0  0  0  0  0  0  0  0
   40.6530   32.7600   41.1700 H   0  0  0  0  0  0  0  0  0  0  0  0
   42.1740   34.1510   39.8760 H   0  0  0  0  0  0  0  0  0  0  0  0
   40.5410   32.5910   36.2530 H   0  0  0  0  0  0  0  0  0  0  0  0
   38.9600   26.7950   40.8630 C   0  0  1  0  0  3  0  0  0  0  0  0
   38.8030   27.8160   41.9660 C   0  0  2  0  0  3  0  0  0  0  0  0
   37.8230   27.3980   43.0160 C   0  0  0  0  0  3  0  0  0  0  0  0
   37.2750   28.2860   43.3860 H   0  0  0  0  0  0  0  0  0  0  0  0
   36.9010   26.5210   42.4750 O   0  0  0  0  0  0  0  0  0  0  0  0
   37.4670   25.2810   42.1830 C   0  0  0  0  0  3  0  0  0  0  0  0
   37.6510   24.7770   43.1610 H   0  0  0  0  0  0  0  0  0  0  0  0
   38.7860   25.4250   41.4700 C   0  0  1  0  0  3  0  0  0  0  0  0
   38.0600   27.0230   39.8270 O   0  0  0  0  0  0  0  0  0  0  0  0
   37.1490   26.8510   40.1740 H   0  0  0  0  0  0  0  0  0  0  0  0
   38.8300   24.4930   40.4480 O   0  0  0  0  0  0  0  0  0  0  0  0
   39.1400   24.8930   39.5950 H   0  0  0  0  0  0  0  0  0  0  0  0
  1  7  1  0  0  0  0
  1  6  1  0  0  0  0
  2  1  2  0  0  0  0
  3  2  1  0  0  0  0
  3  4  2  0  0  0  0
  4  5  1  0  0  0  0
  5  6  2  0  0  0  0
  8  2  1  0  0  0  0
  9 10  1  0  0  0  0
  9  3  1  0  0  0  0
 10 17  1  0  0  0  0
 11 18  1  0  0  0  0
 11 10  2  0  0  0  0
 12 11  1  0  0  0  0
 13 12  2  0  0  0  0
 14 12  1  0  0  0  0
 14 15  1  0  0  0  0
 15  9  1  0  0  0  0
 16 15  2  0  0  0  0
 19 14  1  0  0  0  0
 20 28  1  6  0  0  0
 20 27  1  0  0  0  0
 20 21  1  0  0  0  0
 21  5  1  6  0  0  0
 21 22  1  0  0  0  0
 22 23  1  0  0  0  0
 24 22  1  0  0  0  0
 25 24  1  0  0  0  0
 25 26  1  0  0  0  0
 27 30  1  6  0  0  0
 27 25  1  0  0  0  0
 28 29  1  0  0  0  0
 31 30  1  0  0  0  0
M  END
>  <minimizedAffinity>
-5.42061758

$$$$

 OpenBabel03242521153D

 31 33  0  0  1  0  0  0  0  0999 V2000
   37.1880   28.0400   43.6790 C   0  0  0  0  0  0  0  0  0  0  0  0
   37.6800   29.2280   43.0840 C   0  0  0  0  0  0  0  0  0  0  0  0
   37.9100   29.2090   41.7050 C   0  0  0  0  0  0  0  0  0  0  0  0
   37.6500   28.0590   41.0260 N   0  0  0  0  0  0  0  0  0  0  0  0
   37.1860   26.9520   41.6110 C   0  0  0  0  0  0  0  0  0  0  0  0
   36.9490   26.9340   42.9550 N   0  0  0  0  0  0  0  0  0  0  0  0
   37.0120   28.0710   44.7590 H   0  0  0  0  0  0  0  0  0  0  0  0
   37.8590   30.0980   43.7020 H   0  0  0  0  0  0  0  0  0  0  0  0
   38.4060   30.3970   41.0910 N   0  0  0  0  0  0  0  0  0  0  0  0
   37.5010   31.2990   40.6620 C   0  0  0  0  0  0  0  0  0  0  0  0
   37.9640   32.4640   40.0600 C   0  0  0  0  0  0  0  0  0  0  0  0
   39.3160   32.6280   39.9370 C   0  0  0  0  0  0  0  0  0  0  0  0
   39.7380   33.6970   39.3850 O   0  0  0  0  0  0  0  0  0  0  0  0
   40.2300   31.7300   40.3640 N   0  0  0  0  0  0  0  0  0  0  0  0
   39.7150   30.6210   40.9380 C   0  0  0  0  0  0  0  0  0  0  0  0
   40.4720   29.7210   41.3710 O   0  0  0  0  0  0  0  0  0  0  0  0
   36.4250   31.1600   40.7640 H   0  0  0  0  0  0  0  0  0  0  0  0
   37.2420   33.1960   39.7120 H   0  0  0  0  0  0  0  0  0  0  0  0
   41.2670   31.8800   40.2580 H   0  0  0  0  0  0  0  0  0  0  0  0
   37.4090   24.4840   41.5350 C   0  0  1  0  0  3  0  0  0  0  0  0
   36.9190   25.7210   40.8170 C   0  0  2  0  0  3  0  0  0  0  0  0
   37.5320   25.8930   39.4630 C   0  0  0  0  0  3  0  0  0  0  0  0
   37.6890   26.9690   39.2610 H   0  0  0  0  0  0  0  0  0  0  0  0
   38.7650   25.2670   39.4240 O   0  0  0  0  0  0  0  0  0  0  0  0
   38.6480   23.8780   39.4480 C   0  0  0  0  0  3  0  0  0  0  0  0
   38.2540   23.5750   38.4490 H   0  0  0  0  0  0  0  0  0  0  0  0
   37.6740   23.4190   40.5000 C   0  0  1  0  0  3  0  0  0  0  0  0
   38.5360   24.7560   42.3040 O   0  0  0  0  0  0  0  0  0  0  0  0
   39.2780   24.9740   41.6860 H   0  0  0  0  0  0  0  0  0  0  0  0
   38.2150   22.3200   41.1440 O   0  0  0  0  0  0  0  0  0  0  0  0
   38.1430   22.3960   42.1300 H   0  0  0  0  0  0  0  0  0  0  0  0
  1  7  1  0  0  0  0
  2  1  1  0  0  0  0
  2  8  1  0  0  0  0
  3  2  2  0  0  0  0
  4  5  2  0  0  0  0
  4  3  1  0  0  0  0
  5  6  1  0  0  0  0
  6  1  2  0  0  0  0
  9  3  1  0  0  0  0
 10 17  1  0  0  0  0
 10  9  1  0  0  0  0
 11 10  2  0  0  0  0
 12 11  1  0  0  0  0
 12 14  1  0  0  0  0
 13 12  2  0  0  0  0
 14 15  1  0  0  0  0
 15  9  1  0  0  0  0
 15 16  2  0  0  0  0
 18 11  1  0  0  0  0
 19 14  1  0  0  0  0
 20 28  1  6  0  0  0
 21 20  1  0  0  0  0
 21  5  1  1  0  0  0
 22 21  1  0  0  0  0
 23 22  1  0  0  0  0
 24 25  1  0  0  0  0
 24 22  1  0  0  0  0
 25 27  1  0  0  0  0
 26 25  1  0  0  0  0
 27 30  1  1  0  0  0
 27 20  1  0  0  0  0
 29 28  1  0  0  0  0
 30 31  1  0  0  0  0
M  END
>  <minimizedAffinity>
-5.27485275

$$$$

 OpenBabel03242521153D

 31 33  0  0  1  0  0  0  0  0999 V2000
   36.3650   27.4540   37.8320 C   0  0  0  0  0  0  0  0  0  0  0  0
   36.7440   28.7940   38.0890 C   0  0  0  0  0  0  0  0  0  0  0  0
   37.2130   29.0960   39.3710 C   0  0  0  0  0  0  0  0  0  0  0  0
   37.2770   28.0900   40.2850 N   0  0  0  0  0  0  0  0  0  0  0  0
   36.9140   26.8330   40.0180 C   0  0  0  0  0  0  0  0  0  0  0  0
   36.4510   26.5010   38.7770 N   0  0  0  0  0  0  0  0  0  0  0  0
   36.0010   27.2330   36.8240 H   0  0  0  0  0  0  0  0  0  0  0  0
   36.6600   29.5310   37.3010 H   0  0  0  0  0  0  0  0  0  0  0  0
   37.5980   30.4420   39.6450 N   0  0  0  0  0  0  0  0  0  0  0  0
   38.7550   30.8790   39.1100 C   0  0  0  0  0  0  0  0  0  0  0  0
   39.1480   32.1890   39.3660 C   0  0  0  0  0  0  0  0  0  0  0  0
   38.3350   32.9590   40.1490 C   0  0  0  0  0  0  0  0  0  0  0  0
   38.6970   34.1600   40.3830 O   0  0  0  0  0  0  0  0  0  0  0  0
   37.1740   32.5300   40.6910 N   0  0  0  0  0  0  0  0  0  0  0  0
   36.8510   31.2500   40.4050 C   0  0  0  0  0  0  0  0  0  0  0  0
   35.7950   30.7460   40.8540 O   0  0  0  0  0  0  0  0  0  0  0  0
   39.3960   30.2580   38.4860 H   0  0  0  0  0  0  0  0  0  0  0  0
   40.0770   32.5490   38.9380 H   0  0  0  0  0  0  0  0  0  0  0  0
   36.5650   33.1440   41.2910 H   0  0  0  0  0  0  0  0  0  0  0  0
   38.3630   25.7650   41.7210 C   0  0  1  0  0  3  0  0  0  0  0  0
   37.0040   25.7720   41.0590 C   0  0  2  0  0  3  0  0  0  0  0  0
   36.6530   24.4620   40.4270 C   0  0  0  0  0  3  0  0  0  0  0  0
   36.0760   24.6400   39.5000 H   0  0  0  0  0  0  0  0  0  0  0  0
   37.8090   23.7820   40.0870 O   0  0  0  0  0  0  0  0  0  0  0  0
   38.4930   23.3190   41.2090 C   0  0  0  0  0  3  0  0  0  0  0  0
   37.8940   22.4730   41.6210 H   0  0  0  0  0  0  0  0  0  0  0  0
   38.6050   24.3810   42.2700 C   0  0  1  0  0  3  0  0  0  0  0  0
   39.3620   26.1550   40.8350 O   0  0  0  0  0  0  0  0  0  0  0  0
   39.4400   25.4550   40.1390 H   0  0  0  0  0  0  0  0  0  0  0  0
   39.8870   24.3430   42.7900 O   0  0  0  0  0  0  0  0  0  0  0  0
   40.2870   25.2480   42.8540 H   0  0  0  0  0  0  0  0  0  0  0  0
  1  2  2  0  0  0  0
  1  6  1  0  0  0  0
  2  3  1  0  0  0  0
  3  9  1  0  0  0  0
  3  4  2  0  0  0  0
  5  4  1  0  0  0  0
  6  5  2  0  0  0  0
  7  1  1  0  0  0  0
  8  2  1  0  0  0  0
  9 15  1  0  0  0  0
 10 11  2  0  0  0  0
 10  9  1  0  0  0  0
 11 12  1  0  0  0  0
 12 13  2  0  0  0  0
 12 14  1  0  0  0  0
 14 19  1  0  0  0  0
 15 14  1  0  0  0  0
 15 16  2  0  0  0  0
 17 10  1  0  0  0  0
 18 11  1  0  0  0  0
 20 28  1  6  0  0  0
 20 27  1  0  0  0  0
 21  5  1  6  0  0  0
 21 20  1  0  0  0  0
 22 21  1  0  0  0  0
 23 22  1  0  0  0  0
 24 22  1  0  0  0  0
 24 25  1  0  0  0  0
 25 26  1  0  0  0  0
 25 27  1  0  0  0  0
 27 30  1  6  0  0  0
 29 28  1  0  0  0  0
 30 31  1  0  0  0  0
M  END
>  <minimizedAffinity>
-5.20146656

$$$$
