
 OpenBabel03242523463D

 22 23  0  0  1  0  0  0  0  0999 V2000
   46.2610   32.0260   42.1580 C   0  0  1  0  0  3  0  0  0  0  0  0
   47.0590   33.2630   42.4270 C   0  0  2  0  0  3  0  0  0  0  0  0
   48.3310   32.9990   43.2120 C   0  0  0  0  0  3  0  0  0  0  0  0
   49.1000   33.6940   42.8150 H   0  0  0  0  0  0  0  0  0  0  0  0
   48.8300   31.7240   43.0190 O   0  0  0  0  0  0  0  0  0  0  0  0
   47.9750   30.7300   43.4830 C   0  0  0  0  0  3  0  0  0  0  0  0
   48.2360   29.7940   42.9400 H   0  0  0  0  0  0  0  0  0  0  0  0
   46.5280   31.0200   43.2510 C   0  0  2  0  0  3  0  0  0  0  0  0
   45.1450   36.2750   43.6380 C   0  0  0  0  0  0  0  0  0  0  0  0
   45.9230   35.4630   42.7970 C   0  0  0  0  0  0  0  0  0  0  0  0
   46.2400   34.1650   43.2710 C   0  0  0  0  0  0  0  0  0  0  0  0
   45.7830   33.7850   44.4870 N   0  0  0  0  0  0  0  0  0  0  0  0
   45.0390   34.6010   45.2560 C   0  0  0  0  0  0  0  0  0  0  0  0
   44.7190   35.8340   44.8410 N   0  0  0  0  0  0  0  0  0  0  0  0
   46.2750   35.7920   41.8310 H   0  0  0  0  0  0  0  0  0  0  0  0
   44.6530   34.3300   46.2400 H   0  0  0  0  0  0  0  0  0  0  0  0
   44.8360   37.5290   43.1860 O   0  0  0  0  0  0  0  0  0  0  0  0
   45.5430   38.2510   43.2490 H   0  0  0  0  0  0  0  0  0  0  0  0
   44.8910   32.3540   42.2490 O   0  0  0  0  0  0  0  0  0  0  0  0
   44.3020   31.7040   41.8360 H   0  0  0  0  0  0  0  0  0  0  0  0
   45.8660   29.8420   42.9060 O   0  0  0  0  0  0  0  0  0  0  0  0
   44.9360   29.9470   42.6580 H   0  0  0  0  0  0  0  0  0  0  0  0
  1 19  1  1  0  0  0
  1  2  1  0  0  0  0
  1  8  1  0  0  0  0
  2  3  1  0  0  0  0
  2 11  1  1  0  0  0
  4  3  1  0  0  0  0
  5  3  1  0  0  0  0
  5  6  1  0  0  0  0
  7  6  1  0  0  0  0
  8 21  1  6  0  0  0
  8  6  1  0  0  0  0
  9 14  1  0  0  0  0
 10 11  1  0  0  0  0
 10  9  2  0  0  0  0
 11 12  2  0  0  0  0
 12 13  1  0  0  0  0
 13 16  1  0  0  0  0
 14 13  2  0  0  0  0
 15 10  1  0  0  0  0
 17 18  1  0  0  0  0
 17  9  1  0  0  0  0
 20 19  1  0  0  0  0
 22 21  1  0  0  0  0
M  END
>  <minimizedAffinity>
-3.84521294

>  <minimizedRMSD>
0.994681537

$$$$
