
 OpenBabel03242511363D

 45 48  0  0  1  0  0  0  0  0999 V2000
   49.2620   31.8750   41.5900 C   0  0  0  0  0  0  0  0  0  0  0  0
   50.6430   31.8390   41.9100 C   0  0  0  0  0  0  0  0  0  0  0  0
   51.5980   31.6840   40.8990 C   0  0  0  0  0  0  0  0  0  0  0  0
   51.1120   31.5750   39.6450 N   0  0  0  0  0  0  0  0  0  0  0  0
   49.7910   31.6100   39.3540 C   0  0  0  0  0  0  0  0  0  0  0  0
   48.9030   31.7580   40.3150 N   0  0  0  0  0  0  0  0  0  0  0  0
   50.9410   31.9330   42.9350 H   0  0  0  0  0  0  0  0  0  0  0  0
   52.6460   31.6530   41.1150 H   0  0  0  0  0  0  0  0  0  0  0  0
   49.3050   31.4970   37.9350 C   0  0  2  0  0  0  0  0  0  0  0  0
   50.2270   31.2900   36.8220 C   0  0  0  0  0  0  0  0  0  0  0  0
   49.6310   32.6330   36.9710 C   0  0  1  0  0  0  0  0  0  0  0  0
   48.2220   31.1720   37.9100 H   0  0  0  0  0  0  0  0  0  0  0  0
   49.9390   30.5380   36.0910 H   0  0  0  0  0  0  0  0  0  0  0  0
   51.3050   31.1550   37.1300 H   0  0  0  0  0  0  0  0  0  0  0  0
   50.2840   33.4010   37.4350 H   0  0  0  0  0  0  0  0  0  0  0  0
   48.3010   32.4060   34.8250 C   0  0  1  0  0  0  0  0  0  0  0  0
   48.5950   33.1770   36.0530 C   0  0  1  0  0  0  0  0  0  0  0  0
   47.3630   33.4590   36.8940 C   0  0  0  0  0  0  0  0  0  0  0  0
   47.6560   33.7910   37.8930 H   0  0  0  0  0  0  0  0  0  0  0  0
   46.4760   32.3970   36.9490 O   0  0  0  0  0  0  0  0  0  0  0  0
   45.9700   32.2140   35.6630 C   0  0  0  0  0  0  0  0  0  0  0  0
   45.0680   31.5700   35.6280 H   0  0  0  0  0  0  0  0  0  0  0  0
   47.0750   31.5240   34.8900 C   0  0  1  0  0  0  0  0  0  0  0  0
   48.0390   33.2880   33.7470 O   0  0  0  0  0  0  0  0  0  0  0  0
   48.0310   32.7280   32.9310 H   0  0  0  0  0  0  0  0  0  0  0  0
   46.6360   31.2950   33.5760 O   0  0  0  0  0  0  0  0  0  0  0  0
   46.6140   30.3550   33.3200 H   0  0  0  0  0  0  0  0  0  0  0  0
   48.3210   32.0430   42.6920 C   0  0  0  0  0  0  0  0  0  0  0  0
   48.0320   33.2780   43.0830 C   0  0  0  0  0  0  0  0  0  0  0  0
   47.0950   33.5590   44.1860 C   0  0  0  0  0  0  0  0  0  0  0  0
   47.5200   34.1770   45.0020 H   0  0  0  0  0  0  0  0  0  0  0  0
   46.8250   32.5830   44.6570 H   0  0  0  0  0  0  0  0  0  0  0  0
   44.7710   36.2030   43.4080 C   0  0  1  0  0  0  0  0  0  0  0  0
   45.9580   35.3820   42.8920 C   0  0  0  0  0  0  0  0  0  0  0  0
   45.7870   34.1390   43.6810 C   0  0  2  0  0  0  0  0  0  0  0  0
   44.9140   34.3820   44.7110 O   0  0  0  0  0  0  0  0  0  0  0  0
   44.7090   35.7270   44.8410 C   0  0  0  0  0  0  0  0  0  0  0  0
   43.8530   35.9030   42.8730 H   0  0  0  0  0  0  0  0  0  0  0  0
   46.9210   35.8910   43.0880 H   0  0  0  0  0  0  0  0  0  0  0  0
   45.8270   35.2250   41.8160 H   0  0  0  0  0  0  0  0  0  0  0  0
   45.3060   33.3670   43.0300 H   0  0  0  0  0  0  0  0  0  0  0  0
   45.5880   36.1860   45.3690 H   0  0  0  0  0  0  0  0  0  0  0  0
   43.7610   35.9550   45.3440 H   0  0  0  0  0  0  0  0  0  0  0  0
   45.0410   37.5560   43.3070 O   0  0  0  0  0  0  0  0  0  0  0  0
   45.5060   37.8520   44.1280 H   0  0  0  0  0  0  0  0  0  0  0  0
  1  2  1  0  0  0  0
  1 28  1  0  0  0  0
  2  7  1  0  0  0  0
  3  8  1  0  0  0  0
  3  2  2  0  0  0  0
  4  3  1  0  0  0  0
  5  4  2  0  0  0  0
  5  6  1  0  0  0  0
  6  1  2  0  0  0  0
  9 12  1  6  0  0  0
  9  5  1  0  0  0  0
 10 11  1  0  0  0  0
 10 14  1  0  0  0  0
 10  9  1  0  0  0  0
 11 15  1  1  0  0  0
 11  9  1  0  0  0  0
 13 10  1  0  0  0  0
 16 24  1  6  0  0  0
 16 23  1  0  0  0  0
 16 17  1  0  0  0  0
 17 18  1  1  0  0  0
 17 11  1  0  0  0  0
 18 20  1  0  0  0  0
 18 19  1  0  0  0  0
 21 20  1  0  0  0  0
 22 21  1  0  0  0  0
 23 26  1  6  0  0  0
 23 21  1  0  0  0  0
 25 24  1  0  0  0  0
 27 26  1  0  0  0  0
 28 29  2  0  0  0  0
 29 30  1  0  0  0  0
 30 32  1  0  0  0  0
 30 31  1  0  0  0  0
 33 38  1  6  0  0  0
 33 37  1  0  0  0  0
 34 39  1  0  0  0  0
 34 33  1  0  0  0  0
 34 35  1  0  0  0  0
 35 41  1  6  0  0  0
 35 30  1  0  0  0  0
 35 36  1  0  0  0  0
 36 37  1  0  0  0  0
 37 43  1  0  0  0  0
 37 42  1  0  0  0  0
 40 34  1  0  0  0  0
 44 33  1  0  0  0  0
 44 45  1  0  0  0  0
M  END
>  <minimizedAffinity>
-5.7196002

>  <minimizedRMSD>
0.495073289

$$$$
