
 OpenBabel03252507383D

 41 45  0  0  1  0  0  0  0  0999 V2000
   45.1180   32.7690   43.5330 C   0  0  0  0  0  0  0  0  0  0  0  0
   45.8790   31.9320   44.3890 C   0  0  0  0  0  0  0  0  0  0  0  0
   46.3040   32.4870   45.5950 C   0  0  0  0  0  0  0  0  0  0  0  0
   45.9890   33.7470   45.8860 N   0  0  0  0  0  0  0  0  0  0  0  0
   45.2600   34.5290   45.0520 C   0  0  0  0  0  0  0  0  0  0  0  0
   44.8340   34.0390   43.8930 N   0  0  0  0  0  0  0  0  0  0  0  0
   46.1370   30.9300   44.1700 H   0  0  0  0  0  0  0  0  0  0  0  0
   45.0570   35.5400   45.3820 H   0  0  0  0  0  0  0  0  0  0  0  0
   47.3790   32.3800   47.7740 C   0  0  0  0  0  0  0  0  0  0  0  0
   47.1000   31.7290   46.5710 C   0  0  0  0  0  0  0  0  0  0  0  0
   47.5700   30.4710   46.3880 C   0  0  0  0  0  0  0  0  0  0  0  0
   48.3140   29.8000   47.3370 C   0  0  0  0  0  0  0  0  0  0  0  0
   48.8700   28.5690   47.3610 N   0  0  0  0  0  0  0  0  0  0  0  0
   49.5070   28.4370   48.5860 C   0  0  0  0  0  0  0  0  0  0  0  0
   49.3220   29.5910   49.2760 N   0  0  0  0  0  0  0  0  0  0  0  0
   48.6010   30.4200   48.5220 C   0  0  0  0  0  0  0  0  0  0  0  0
   48.1370   31.7000   48.7390 C   0  0  0  0  0  0  0  0  0  0  0  0
   47.0650   33.3880   48.0510 H   0  0  0  0  0  0  0  0  0  0  0  0
   47.3330   30.0000   45.4460 H   0  0  0  0  0  0  0  0  0  0  0  0
   48.8430   27.8330   46.6140 H   0  0  0  0  0  0  0  0  0  0  0  0
   50.0460   27.5530   48.8990 H   0  0  0  0  0  0  0  0  0  0  0  0
   48.3840   32.1550   49.6900 H   0  0  0  0  0  0  0  0  0  0  0  0
   44.6850   32.2240   42.3230 O   0  0  0  0  0  0  0  0  0  0  0  0
   43.4020   32.4960   41.8620 C   0  0  0  0  0  0  0  0  0  0  0  0
   42.9240   31.2530   41.6740 C   0  0  0  0  0  0  0  0  0  0  0  0
   41.1620   31.6040   41.0430 S   0  0  0  0  0  0  0  0  0  0  0  0
   41.5050   33.4590   41.1890 C   0  0  0  0  0  0  0  0  0  0  0  0
   42.5420   33.4450   41.5620 N   0  0  0  0  0  0  0  0  0  0  0  0
   43.0000   30.0900   41.6880 H   0  0  0  0  0  0  0  0  0  0  0  0
   41.0720   35.3340   39.7660 C   0  0  1  0  0  3  0  0  0  0  0  0
   40.4890   34.4760   40.8340 C   0  0  1  0  0  3  0  0  0  0  0  0
   39.2730   33.7470   40.3070 C   0  0  0  0  0  3  0  0  0  0  0  0
   38.4170   33.7900   41.0110 H   0  0  0  0  0  0  0  0  0  0  0  0
   38.8660   34.2630   39.0680 O   0  0  0  0  0  0  0  0  0  0  0  0
   39.8380   33.9910   38.1070 C   0  0  0  0  0  3  0  0  0  0  0  0
   39.4490   34.4470   37.1660 H   0  0  0  0  0  0  0  0  0  0  0  0
   41.1490   34.6230   38.4570 C   0  0  1  0  0  3  0  0  0  0  0  0
   40.3340   36.5320   39.6460 O   0  0  0  0  0  0  0  0  0  0  0  0
   40.8860   37.2340   39.2100 H   0  0  0  0  0  0  0  0  0  0  0  0
   41.5320   35.5690   37.4960 O   0  0  0  0  0  0  0  0  0  0  0  0
   40.6950   35.8470   37.0170 H   0  0  0  0  0  0  0  0  0  0  0  0
  1  6  2  0  0  0  0
  1  2  1  0  0  0  0
  2  3  2  0  0  0  0
  3  4  1  0  0  0  0
  3 10  1  0  0  0  0
  5  8  1  0  0  0  0
  5  4  2  0  0  0  0
  6  5  1  0  0  0  0
  7  2  1  0  0  0  0
  9 18  1  0  0  0  0
  9 17  1  0  0  0  0
 10  9  2  0  0  0  0
 11 10  1  0  0  0  0
 11 12  2  0  0  0  0
 12 13  1  0  0  0  0
 12 16  1  0  0  0  0
 13 14  1  0  0  0  0
 14 21  1  0  0  0  0
 14 15  2  0  0  0  0
 16 17  2  0  0  0  0
 16 15  1  0  0  0  0
 17 22  1  0  0  0  0
 19 11  1  0  0  0  0
 20 13  1  0  0  0  0
 23  1  1  0  0  0  0
 24 23  1  0  0  0  0
 25 29  1  0  0  0  0
 25 24  2  0  0  0  0
 26 27  1  0  0  0  0
 26 25  1  0  0  0  0
 27 28  2  0  0  0  0
 28 24  1  0  0  0  0
 30 38  1  6  0  0  0
 30 31  1  0  0  0  0
 31 27  1  6  0  0  0
 32 31  1  0  0  0  0
 32 33  1  0  0  0  0
 34 32  1  0  0  0  0
 35 37  1  0  0  0  0
 35 34  1  0  0  0  0
 36 35  1  0  0  0  0
 37 40  1  6  0  0  0
 37 30  1  0  0  0  0
 39 38  1  0  0  0  0
 41 40  1  0  0  0  0
M  END
>  <minimizedAffinity>
-6.2965765

>  <minimizedRMSD>
1.91260791

$$$$
