
 OpenBabel03242511333D

 38 40  0  0  1  0  0  0  0  0999 V2000
   49.3180   32.0090   41.5750 C   0  0  0  0  0  0  0  0  0  0  0  0
   50.6520   31.6010   41.8080 C   0  0  0  0  0  0  0  0  0  0  0  0
   51.5270   31.4520   40.7160 C   0  0  0  0  0  0  0  0  0  0  0  0
   51.0210   31.7150   39.4900 N   0  0  0  0  0  0  0  0  0  0  0  0
   49.7380   32.1050   39.2930 C   0  0  0  0  0  0  0  0  0  0  0  0
   48.9320   32.2380   40.3360 N   0  0  0  0  0  0  0  0  0  0  0  0
   51.0820   31.3830   42.7860 H   0  0  0  0  0  0  0  0  0  0  0  0
   52.5530   31.1390   40.8750 H   0  0  0  0  0  0  0  0  0  0  0  0
   47.9380   32.9130   37.8130 C   0  0  2  0  0  3  0  0  0  0  0  0
   49.3250   32.3580   37.8780 C   0  0  2  0  0  3  0  0  0  0  0  0
   49.3740   31.0990   37.0530 C   0  0  0  0  0  3  0  0  0  0  0  0
   50.0160   30.3550   37.5750 H   0  0  0  0  0  0  0  0  0  0  0  0
   48.1170   30.5180   36.9070 O   0  0  0  0  0  0  0  0  0  0  0  0
   47.2810   31.2900   36.1060 C   0  0  0  0  0  3  0  0  0  0  0  0
   46.2480   30.9220   36.2720 H   0  0  0  0  0  0  0  0  0  0  0  0
   47.3390   32.7430   36.4400 C   0  0  2  0  0  3  0  0  0  0  0  0
   47.9050   34.2740   38.1360 O   0  0  0  0  0  0  0  0  0  0  0  0
   48.7500   34.6840   37.8270 H   0  0  0  0  0  0  0  0  0  0  0  0
   48.0340   33.4830   35.4670 O   0  0  0  0  0  0  0  0  0  0  0  0
   48.3550   34.3420   35.8280 H   0  0  0  0  0  0  0  0  0  0  0  0
   48.4630   32.1450   42.7450 C   0  0  0  0  0  3  0  0  0  0  0  0
   47.9510   33.3450   43.0120 C   0  0  0  0  0  3  0  0  0  0  0  0
   47.0720   33.5960   44.1700 C   0  0  0  0  0  0  0  0  0  0  0  0
   46.8940   32.6850   44.7480 H   0  0  0  0  0  0  0  0  0  0  0  0
   47.6080   34.3250   44.8390 H   0  0  0  0  0  0  0  0  0  0  0  0
   44.7090   36.2350   43.4770 C   0  0  1  0  0  0  0  0  0  0  0  0
   45.8420   35.3830   42.9060 C   0  0  0  0  0  0  0  0  0  0  0  0
   45.7140   34.1540   43.7400 C   0  0  2  0  0  0  0  0  0  0  0  0
   44.9060   34.4130   44.8160 O   0  0  0  0  0  0  0  0  0  0  0  0
   44.7050   35.7690   44.9120 C   0  0  0  0  0  0  0  0  0  0  0  0
   43.7590   35.9400   42.9890 H   0  0  0  0  0  0  0  0  0  0  0  0
   46.7980   35.9090   43.0730 H   0  0  0  0  0  0  0  0  0  0  0  0
   45.6700   35.1040   41.8540 H   0  0  0  0  0  0  0  0  0  0  0  0
   45.2430   33.3170   43.1670 H   0  0  0  0  0  0  0  0  0  0  0  0
   45.4290   36.3010   45.5460 H   0  0  0  0  0  0  0  0  0  0  0  0
   43.6750   35.9620   45.3090 H   0  0  0  0  0  0  0  0  0  0  0  0
   45.0100   37.5860   43.3600 O   0  0  0  0  0  0  0  0  0  0  0  0
   44.7650   37.8610   42.4420 H   0  0  0  0  0  0  0  0  0  0  0  0
  1  2  1  0  0  0  0
  1 21  1  0  0  0  0
  2  7  1  0  0  0  0
  3  8  1  0  0  0  0
  3  2  2  0  0  0  0
  4  3  1  0  0  0  0
  5  4  2  0  0  0  0
  5  6  1  0  0  0  0
  6  1  2  0  0  0  0
  9 10  1  0  0  0  0
  9 17  1  6  0  0  0
 10  5  1  1  0  0  0
 11 12  1  0  0  0  0
 11 10  1  0  0  0  0
 13 11  1  0  0  0  0
 14 15  1  0  0  0  0
 14 16  1  0  0  0  0
 14 13  1  0  0  0  0
 16 19  1  6  0  0  0
 16  9  1  0  0  0  0
 18 17  1  0  0  0  0
 19 20  1  0  0  0  0
 21 22  2  0  0  0  0
 22 23  1  0  0  0  0
 23 24  1  0  0  0  0
 23 25  1  0  0  0  0
 26 31  1  6  0  0  0
 26 30  1  0  0  0  0
 27 32  1  0  0  0  0
 27 26  1  0  0  0  0
 27 28  1  0  0  0  0
 28 34  1  6  0  0  0
 28 23  1  0  0  0  0
 28 29  1  0  0  0  0
 29 30  1  0  0  0  0
 30 36  1  0  0  0  0
 30 35  1  0  0  0  0
 33 27  1  0  0  0  0
 37 26  1  0  0  0  0
 38 37  1  0  0  0  0
M  END
>  <minimizedAffinity>
-5.26744127

>  <minimizedRMSD>
1.0423038

$$$$
