
 OpenBabel03252507433D

 34 36  0  0  1  0  0  0  0  0999 V2000
   44.0610   34.2640   41.5790 C   0  0  0  0  0  0  0  0  0  0  0  0
   43.6920   35.6480   41.6030 C   0  0  0  0  0  0  0  0  0  0  0  0
   41.9090   35.5990   41.1270 S   0  0  0  0  0  0  0  0  0  0  0  0
   41.9800   33.7190   40.9790 C   0  0  0  0  0  0  0  0  0  0  0  0
   43.0600   33.4810   41.2450 N   0  0  0  0  0  0  0  0  0  0  0  0
   44.3550   36.4670   41.8510 H   0  0  0  0  0  0  0  0  0  0  0  0
   40.0590   32.3980   41.8430 C   0  0  1  0  0  0  0  0  0  0  0  0
   40.7870   32.8960   40.5900 C   0  0  2  0  0  0  0  0  0  0  0  0
   41.3030   31.7130   39.8450 C   0  0  0  0  0  0  0  0  0  0  0  0
   40.9770   31.7980   38.7800 H   0  0  0  0  0  0  0  0  0  0  0  0
   40.6690   30.5420   40.3050 O   0  0  0  0  0  0  0  0  0  0  0  0
   39.2860   30.6810   40.2970 C   0  0  0  0  0  0  0  0  0  0  0  0
   38.9110   31.0560   39.3100 H   0  0  0  0  0  0  0  0  0  0  0  0
   38.8760   31.5990   41.4050 C   0  0  2  0  0  0  0  0  0  0  0  0
   40.9730   31.7310   42.6190 O   0  0  0  0  0  0  0  0  0  0  0  0
   40.9700   31.9960   43.5680 H   0  0  0  0  0  0  0  0  0  0  0  0
   37.8890   32.5180   40.9820 O   0  0  0  0  0  0  0  0  0  0  0  0
   38.0430   33.3870   41.4240 H   0  0  0  0  0  0  0  0  0  0  0  0
   45.4360   33.8340   41.9070 C   0  0  0  0  0  0  0  0  0  0  0  0
   45.7440   34.2580   42.8820 H   0  0  0  0  0  0  0  0  0  0  0  0
   45.3880   32.7150   41.9940 H   0  0  0  0  0  0  0  0  0  0  0  0
   46.4680   34.1520   40.8910 C   0  0  0  0  0  0  0  0  0  0  0  0
   46.3110   35.2340   40.6020 H   0  0  0  0  0  0  0  0  0  0  0  0
   46.3670   33.5970   39.9660 H   0  0  0  0  0  0  0  0  0  0  0  0
   47.8600   34.1110   41.4110 C   0  0  0  0  0  0  0  0  0  0  0  0
   48.6130   32.9710   41.1300 C   0  0  0  0  0  0  0  0  0  0  0  0
   49.9110   32.8870   41.5910 C   0  0  0  0  0  0  0  0  0  0  0  0
   50.4120   33.9370   42.3140 N   0  0  0  0  0  0  0  0  0  0  0  0
   49.6490   35.0260   42.5660 C   0  0  0  0  0  0  0  0  0  0  0  0
   48.4070   35.1020   42.1220 N   0  0  0  0  0  0  0  0  0  0  0  0
   50.5230   32.0230   41.3930 H   0  0  0  0  0  0  0  0  0  0  0  0
   50.0500   35.8610   43.1420 H   0  0  0  0  0  0  0  0  0  0  0  0
   47.8790   31.6320   40.1730 S   0  0  0  0  0  0  0  0  0  0  0  0
   47.9060   30.4340   40.9410 H   0  0  0  0  0  0  0  0  0  0  0  0
  1  2  2  0  0  0  0
  1 19  1  0  0  0  0
  2  6  1  0  0  0  0
  3  2  1  0  0  0  0
  4  3  1  0  0  0  0
  4  5  2  0  0  0  0
  5  1  1  0  0  0  0
  7 15  1  6  0  0  0
  8  4  1  1  0  0  0
  8  7  1  0  0  0  0
  9 11  1  0  0  0  0
  9  8  1  0  0  0  0
 10  9  1  0  0  0  0
 12 11  1  0  0  0  0
 12 14  1  0  0  0  0
 13 12  1  0  0  0  0
 14 17  1  6  0  0  0
 14  7  1  0  0  0  0
 15 16  1  0  0  0  0
 17 18  1  0  0  0  0
 19 21  1  0  0  0  0
 19 20  1  0  0  0  0
 22 25  1  0  0  0  0
 22 19  1  0  0  0  0
 23 22  1  0  0  0  0
 24 22  1  0  0  0  0
 25 30  1  0  0  0  0
 26 25  2  0  0  0  0
 26 27  1  0  0  0  0
 27 28  2  0  0  0  0
 28 29  1  0  0  0  0
 29 32  1  0  0  0  0
 30 29  2  0  0  0  0
 31 27  1  0  0  0  0
 33 34  1  0  0  0  0
 33 26  1  0  0  0  0
M  END
>  <minimizedAffinity>
-5.37606335

>  <minimizedRMSD>
2.58854604

$$$$
