
 OpenBabel03252503033D

 37 38  0  0  1  0  0  0  0  0999 V2000
   42.6160   32.8930   41.5930 C   0  0  0  0  0  0  0  0  0  0  0  0
   42.8460   34.2610   41.6290 C   0  0  0  0  0  0  0  0  0  0  0  0
   41.7880   35.1680   41.5690 C   0  0  0  0  0  0  0  0  0  0  0  0
   40.5470   34.6370   41.4760 N   0  0  0  0  0  0  0  0  0  0  0  0
   40.3440   33.3120   41.4430 C   0  0  0  0  0  0  0  0  0  0  0  0
   41.3470   32.4420   41.5000 N   0  0  0  0  0  0  0  0  0  0  0  0
   43.4390   32.2040   41.6400 H   0  0  0  0  0  0  0  0  0  0  0  0
   41.9590   36.2430   41.5970 H   0  0  0  0  0  0  0  0  0  0  0  0
   44.5310   34.8810   41.7530 S   0  0  0  0  0  0  0  0  0  0  0  0
   44.9190   35.2460   43.4540 C   0  0  0  0  0  0  0  0  0  0  0  0
   45.9780   35.6180   43.5330 H   0  0  0  0  0  0  0  0  0  0  0  0
   44.2270   36.0410   43.8200 H   0  0  0  0  0  0  0  0  0  0  0  0
   44.7830   34.0070   44.2110 N   0  0  0  0  0  0  0  0  0  0  0  0
   44.2180   33.2870   43.7250 H   0  0  0  0  0  0  0  0  0  0  0  0
   46.2970   33.3790   44.7260 S   0  0  0  0  0  0  0  0  0  0  0  0
   47.4380   33.9850   43.9700 O   0  0  0  0  0  0  0  0  0  0  0  0
   47.4350   34.2430   43.0190 H   0  0  0  0  0  0  0  0  0  0  0  0
   46.4170   33.7710   46.1990 O   0  0  0  0  0  0  0  0  0  0  0  0
   46.7590   34.6600   46.4060 H   0  0  0  0  0  0  0  0  0  0  0  0
   46.2970   31.7270   44.6650 O   0  0  0  0  0  0  0  0  0  0  0  0
   47.4820   31.2330   44.1400 C   0  0  0  0  0  0  0  0  0  0  0  0
   48.3080   31.5500   44.8100 H   0  0  0  0  0  0  0  0  0  0  0  0
   47.6440   31.7780   43.1640 H   0  0  0  0  0  0  0  0  0  0  0  0
   47.4550   30.1690   43.9150 H   0  0  0  0  0  0  0  0  0  0  0  0
   39.0640   32.7600   41.3470 O   0  0  0  0  0  0  0  0  0  0  0  0
   38.8560   30.8650   39.8490 C   0  0  2  0  0  3  0  0  0  0  0  0
   38.6590   32.3540   40.0390 C   0  0  2  0  0  3  0  0  0  0  0  0
   39.4550   33.0570   38.9740 C   0  0  0  0  0  3  0  0  0  0  0  0
   40.5570   32.9760   39.1450 H   0  0  0  0  0  0  0  0  0  0  0  0
   39.1830   32.4320   37.7590 O   0  0  0  0  0  0  0  0  0  0  0  0
   40.0520   31.3360   37.6960 C   0  0  0  0  0  3  0  0  0  0  0  0
   41.0710   31.7910   37.6300 H   0  0  0  0  0  0  0  0  0  0  0  0
   40.0170   30.5210   38.9630 C   0  0  2  0  0  3  0  0  0  0  0  0
   37.6920   30.3110   39.3040 O   0  0  0  0  0  0  0  0  0  0  0  0
   37.9670   29.4740   38.8510 H   0  0  0  0  0  0  0  0  0  0  0  0
   39.8530   29.1740   38.5900 O   0  0  0  0  0  0  0  0  0  0  0  0
   40.5390   28.8810   37.9510 H   0  0  0  0  0  0  0  0  0  0  0  0
  1  2  1  0  0  0  0
  1  7  1  0  0  0  0
  2  9  1  0  0  0  0
  3  8  1  0  0  0  0
  3  2  2  0  0  0  0
  4  3  1  0  0  0  0
  5  4  2  0  0  0  0
  5  6  1  0  0  0  0
  6  1  2  0  0  0  0
  9 10  1  0  0  0  0
 10 11  1  0  0  0  0
 10 12  1  0  0  0  0
 10 13  1  0  0  0  0
 13 15  1  0  0  0  0
 14 13  1  0  0  0  0
 15 18  1  0  0  0  0
 16 15  1  0  0  0  0
 17 16  1  0  0  0  0
 18 19  1  0  0  0  0
 20 15  1  0  0  0  0
 21 20  1  0  0  0  0
 21 22  1  0  0  0  0
 23 21  1  0  0  0  0
 24 21  1  0  0  0  0
 25  5  1  0  0  0  0
 26 34  1  6  0  0  0
 26 27  1  0  0  0  0
 27 25  1  1  0  0  0
 28 29  1  0  0  0  0
 28 27  1  0  0  0  0
 30 28  1  0  0  0  0
 31 30  1  0  0  0  0
 31 33  1  0  0  0  0
 32 31  1  0  0  0  0
 33 36  1  6  0  0  0
 33 26  1  0  0  0  0
 35 34  1  0  0  0  0
 37 36  1  0  0  0  0
M  END
>  <minimizedAffinity>
-4.51763773

>  <minimizedRMSD>
3.35263538

$$$$
