
 OpenBabel03242517553D

 46 48  0  0  1  0  0  0  0  0999 V2000
   45.5320   30.1530   47.2490 C   0  0  0  0  0  0  0  0  0  0  0  0
   46.1130   31.2380   46.6860 C   0  0  0  0  0  0  0  0  0  0  0  0
   46.2700   32.3780   47.4520 C   0  0  0  0  0  0  0  0  0  0  0  0
   45.8620   32.4570   48.7630 C   0  0  0  0  0  0  0  0  0  0  0  0
   45.2700   31.3430   49.3310 C   0  0  0  0  0  0  0  0  0  0  0  0
   45.1120   30.2000   48.5620 C   0  0  0  0  0  0  0  0  0  0  0  0
   46.7230   33.2870   47.0800 H   0  0  0  0  0  0  0  0  0  0  0  0
   45.9770   33.3310   49.3650 H   0  0  0  0  0  0  0  0  0  0  0  0
   44.9210   31.3370   50.3710 H   0  0  0  0  0  0  0  0  0  0  0  0
   44.6410   29.3130   49.0140 H   0  0  0  0  0  0  0  0  0  0  0  0
   45.2530   28.7940   46.2170 S   0  0  0  0  0  0  0  0  0  0  0  0
   44.8360   29.1330   44.8420 O   0  0  0  0  0  0  0  0  0  0  0  0
   44.0460   28.0440   46.8300 O   0  0  0  0  0  0  0  0  0  0  0  0
   46.0690   26.2860   45.5170 C   0  0  2  0  0  3  0  0  0  0  0  0
   46.4940   27.5550   46.2320 C   0  0  1  0  0  3  0  0  0  0  0  0
   47.6470   28.1230   45.4170 C   0  0  0  0  0  3  0  0  0  0  0  0
   47.3270   28.4320   44.4040 H   0  0  0  0  0  0  0  0  0  0  0  0
   48.7070   27.2520   45.4240 O   0  0  0  0  0  0  0  0  0  0  0  0
   48.4300   26.1720   44.6260 C   0  0  0  0  0  3  0  0  0  0  0  0
   48.9500   26.2610   43.6390 H   0  0  0  0  0  0  0  0  0  0  0  0
   46.9720   25.9360   44.3520 C   0  0  2  0  0  3  0  0  0  0  0  0
   44.8000   26.5100   44.9780 O   0  0  0  0  0  0  0  0  0  0  0  0
   44.1860   25.7500   45.0850 H   0  0  0  0  0  0  0  0  0  0  0  0
   46.5420   26.5380   43.1700 O   0  0  0  0  0  0  0  0  0  0  0  0
   45.8170   25.9870   42.7330 H   0  0  0  0  0  0  0  0  0  0  0  0
   46.5950   31.3650   45.3910 O   0  0  0  0  0  0  0  0  0  0  0  0
   45.3390   34.2360   43.7720 C   0  0  0  0  0  0  0  0  0  0  0  0
   46.4880   34.7490   43.1360 C   0  0  0  0  0  0  0  0  0  0  0  0
   47.6840   34.0950   43.2740 C   0  0  0  0  0  0  0  0  0  0  0  0
   47.6660   32.9860   44.0280 N   0  0  0  0  0  0  0  0  0  0  0  0
   46.5890   32.5030   44.6250 C   0  0  0  0  0  0  0  0  0  0  0  0
   45.4240   33.1290   44.4970 N   0  0  0  0  0  0  0  0  0  0  0  0
   44.3890   34.7480   43.6670 H   0  0  0  0  0  0  0  0  0  0  0  0
   46.3290   35.6470   42.5660 H   0  0  0  0  0  0  0  0  0  0  0  0
   48.9310   34.5300   42.6390 C   0  0  0  0  0  0  0  0  0  0  0  0
   49.6790   34.7820   43.4190 H   0  0  0  0  0  0  0  0  0  0  0  0
   49.3940   33.6840   42.0680 H   0  0  0  0  0  0  0  0  0  0  0  0
   48.7380   35.6810   41.7000 C   0  0  0  0  0  0  0  0  0  0  0  0
   47.9910   36.3890   42.0180 H   0  0  0  0  0  0  0  0  0  0  0  0
   49.7180   36.2600   41.7550 H   0  0  0  0  0  0  0  0  0  0  0  0
   48.6100   35.2860   40.2980 C   0  0  0  0  0  3  0  0  0  0  0  0
   48.0560   34.3610   39.5250 C   0  0  0  0  0  3  0  0  0  0  0  0
   48.2310   34.2020   38.0280 C   0  0  0  0  0  0  0  0  0  0  0  0
   47.2890   34.5070   37.5470 H   0  0  0  0  0  0  0  0  0  0  0  0
   48.4820   33.1460   37.8060 H   0  0  0  0  0  0  0  0  0  0  0  0
   49.0910   34.8260   37.7650 H   0  0  0  0  0  0  0  0  0  0  0  0
  1  6  1  0  0  0  0
  2  1  2  0  0  0  0
  2  3  1  0  0  0  0
  3  4  2  0  0  0  0
  4  5  1  0  0  0  0
  4  8  1  0  0  0  0
  5  9  1  0  0  0  0
  6 10  1  0  0  0  0
  6  5  2  0  0  0  0
  7  3  1  0  0  0  0
 11 13  2  0  0  0  0
 11  1  1  0  0  0  0
 12 11  2  0  0  0  0
 14 22  1  6  0  0  0
 14 15  1  0  0  0  0
 15 11  1  6  0  0  0
 16 18  1  0  0  0  0
 16 15  1  0  0  0  0
 17 16  1  0  0  0  0
 19 18  1  0  0  0  0
 20 19  1  0  0  0  0
 21 24  1  6  0  0  0
 21 19  1  0  0  0  0
 21 14  1  0  0  0  0
 22 23  1  0  0  0  0
 25 24  1  0  0  0  0
 26  2  1  0  0  0  0
 27 32  1  0  0  0  0
 28 29  1  0  0  0  0
 28 27  2  0  0  0  0
 29 30  2  0  0  0  0
 30 31  1  0  0  0  0
 31 26  1  0  0  0  0
 32 31  2  0  0  0  0
 33 27  1  0  0  0  0
 34 28  1  0  0  0  0
 35 29  1  0  0  0  0
 35 36  1  0  0  0  0
 37 35  1  0  0  0  0
 38 40  1  0  0  0  0
 38 39  1  0  0  0  0
 38 35  1  0  0  0  0
 41 38  1  0  0  0  0
 42 41  2  0  0  0  0
 43 42  1  0  0  0  0
 44 43  1  0  0  0  0
 45 43  1  0  0  0  0
 46 43  1  0  0  0  0
M  END
>  <minimizedAffinity>
-5.5299077

>  <minimizedRMSD>
1.46848214

$$$$
