
 OpenBabel03242517543D

 46 48  0  0  1  0  0  0  0  0999 V2000
   45.5540   30.0630   47.2050 C   0  0  0  0  0  0  0  0  0  0  0  0
   45.9960   31.1820   46.5860 C   0  0  0  0  0  0  0  0  0  0  0  0
   46.0690   32.3570   47.3120 C   0  0  0  0  0  0  0  0  0  0  0  0
   45.7110   32.4370   48.6370 C   0  0  0  0  0  0  0  0  0  0  0  0
   45.2600   31.2890   49.2620 C   0  0  0  0  0  0  0  0  0  0  0  0
   45.1880   30.1110   48.5340 C   0  0  0  0  0  0  0  0  0  0  0  0
   46.4110   33.2950   46.8940 H   0  0  0  0  0  0  0  0  0  0  0  0
   45.7620   33.3380   49.2080 H   0  0  0  0  0  0  0  0  0  0  0  0
   44.9590   31.2810   50.3170 H   0  0  0  0  0  0  0  0  0  0  0  0
   44.8300   29.1960   49.0320 H   0  0  0  0  0  0  0  0  0  0  0  0
   45.3710   28.6500   46.2250 S   0  0  0  0  0  0  0  0  0  0  0  0
   45.1670   27.3960   46.9760 O   0  0  0  0  0  0  0  0  0  0  0  0
   46.7240   28.4690   45.4970 O   0  0  0  0  0  0  0  0  0  0  0  0
   44.3620   27.6400   43.8990 C   0  0  2  0  0  3  0  0  0  0  0  0
   44.2520   28.7910   44.8820 C   0  0  1  0  0  3  0  0  0  0  0  0
   42.8630   28.6820   45.4940 C   0  0  0  0  0  3  0  0  0  0  0  0
   42.7430   27.7580   46.0890 H   0  0  0  0  0  0  0  0  0  0  0  0
   41.9050   28.8510   44.5280 O   0  0  0  0  0  0  0  0  0  0  0  0
   41.8440   27.7370   43.7300 C   0  0  0  0  0  3  0  0  0  0  0  0
   40.9670   27.0980   44.0040 H   0  0  0  0  0  0  0  0  0  0  0  0
   43.0680   26.8660   43.7510 C   0  0  2  0  0  3  0  0  0  0  0  0
   45.3020   26.7410   44.4080 O   0  0  0  0  0  0  0  0  0  0  0  0
   45.9140   26.3830   43.7260 H   0  0  0  0  0  0  0  0  0  0  0  0
   42.9780   25.8340   44.6840 O   0  0  0  0  0  0  0  0  0  0  0  0
   43.4690   25.0150   44.3560 H   0  0  0  0  0  0  0  0  0  0  0  0
   46.4080   31.3150   45.2670 O   0  0  0  0  0  0  0  0  0  0  0  0
   45.2750   34.2650   43.6990 C   0  0  0  0  0  0  0  0  0  0  0  0
   46.4580   34.7710   43.1220 C   0  0  0  0  0  0  0  0  0  0  0  0
   47.6330   34.0860   43.2810 C   0  0  0  0  0  0  0  0  0  0  0  0
   47.5630   32.9540   43.9970 N   0  0  0  0  0  0  0  0  0  0  0  0
   46.4540   32.4770   44.5390 C   0  0  0  0  0  0  0  0  0  0  0  0
   45.3090   33.1340   44.3900 N   0  0  0  0  0  0  0  0  0  0  0  0
   44.3410   34.8010   43.5770 H   0  0  0  0  0  0  0  0  0  0  0  0
   46.3400   35.6900   42.5770 H   0  0  0  0  0  0  0  0  0  0  0  0
   48.9120   34.5110   42.7050 C   0  0  0  0  0  0  0  0  0  0  0  0
   49.6230   34.7610   43.5200 H   0  0  0  0  0  0  0  0  0  0  0  0
   49.3960   33.6610   42.1600 H   0  0  0  0  0  0  0  0  0  0  0  0
   48.7710   35.6610   41.7560 C   0  0  0  0  0  0  0  0  0  0  0  0
   48.0540   36.4030   42.0660 H   0  0  0  0  0  0  0  0  0  0  0  0
   49.7750   36.1980   41.8090 H   0  0  0  0  0  0  0  0  0  0  0  0
   48.6300   35.2600   40.3570 C   0  0  0  0  0  3  0  0  0  0  0  0
   48.0330   34.3560   39.5900 C   0  0  0  0  0  3  0  0  0  0  0  0
   48.2090   34.1730   38.0950 C   0  0  0  0  0  0  0  0  0  0  0  0
   47.2860   34.5220   37.6060 H   0  0  0  0  0  0  0  0  0  0  0  0
   48.4060   33.1040   37.8850 H   0  0  0  0  0  0  0  0  0  0  0  0
   49.1000   34.7500   37.8320 H   0  0  0  0  0  0  0  0  0  0  0  0
  1  6  1  0  0  0  0
  2  1  2  0  0  0  0
  2  3  1  0  0  0  0
  3  4  2  0  0  0  0
  4  8  1  0  0  0  0
  4  5  1  0  0  0  0
  5  9  1  0  0  0  0
  6 10  1  0  0  0  0
  6  5  2  0  0  0  0
  7  3  1  0  0  0  0
 11 12  2  0  0  0  0
 11  1  1  0  0  0  0
 13 11  2  0  0  0  0
 14 22  1  1  0  0  0
 14 15  1  0  0  0  0
 15 16  1  0  0  0  0
 15 11  1  1  0  0  0
 16 17  1  0  0  0  0
 18 16  1  0  0  0  0
 19 21  1  0  0  0  0
 19 20  1  0  0  0  0
 19 18  1  0  0  0  0
 21 14  1  0  0  0  0
 21 24  1  1  0  0  0
 23 22  1  0  0  0  0
 25 24  1  0  0  0  0
 26  2  1  0  0  0  0
 27 32  1  0  0  0  0
 28 29  1  0  0  0  0
 28 27  2  0  0  0  0
 29 30  2  0  0  0  0
 30 31  1  0  0  0  0
 31 26  1  0  0  0  0
 32 31  2  0  0  0  0
 33 27  1  0  0  0  0
 34 28  1  0  0  0  0
 35 29  1  0  0  0  0
 35 36  1  0  0  0  0
 37 35  1  0  0  0  0
 38 40  1  0  0  0  0
 38 39  1  0  0  0  0
 38 35  1  0  0  0  0
 41 38  1  0  0  0  0
 42 41  2  0  0  0  0
 43 42  1  0  0  0  0
 44 43  1  0  0  0  0
 45 43  1  0  0  0  0
 46 43  1  0  0  0  0
M  END
>  <minimizedAffinity>
-5.79346037

>  <minimizedRMSD>
1.65285718

$$$$
