
 OpenBabel03242517553D

 46 48  0  0  1  0  0  0  0  0999 V2000
   45.5250   30.1210   47.2840 C   0  0  0  0  0  0  0  0  0  0  0  0
   46.0540   31.2110   46.6810 C   0  0  0  0  0  0  0  0  0  0  0  0
   46.2070   32.3690   47.4200 C   0  0  0  0  0  0  0  0  0  0  0  0
   45.8450   32.4620   48.7430 C   0  0  0  0  0  0  0  0  0  0  0  0
   45.3060   31.3440   49.3520 C   0  0  0  0  0  0  0  0  0  0  0  0
   45.1520   30.1820   48.6110 C   0  0  0  0  0  0  0  0  0  0  0  0
   46.6210   33.2830   47.0150 H   0  0  0  0  0  0  0  0  0  0  0  0
   45.9580   33.3510   49.3240 H   0  0  0  0  0  0  0  0  0  0  0  0
   44.9960   31.3480   50.4050 H   0  0  0  0  0  0  0  0  0  0  0  0
   44.7230   29.2920   49.0960 H   0  0  0  0  0  0  0  0  0  0  0  0
   45.2450   28.7350   46.2880 S   0  0  0  0  0  0  0  0  0  0  0  0
   46.3920   28.3310   45.4520 O   0  0  0  0  0  0  0  0  0  0  0  0
   44.1440   29.1560   45.2860 O   0  0  0  0  0  0  0  0  0  0  0  0
   44.0200   26.3040   46.1080 C   0  0  2  0  0  0  0  0  0  0  0  0
   44.5040   27.3590   47.0840 C   0  0  1  0  0  0  0  0  0  0  0  0
   45.6200   26.7020   47.8840 C   0  0  0  0  0  0  0  0  0  0  0  0
   46.4880   26.4450   47.2500 H   0  0  0  0  0  0  0  0  0  0  0  0
   45.1260   25.6450   48.6060 O   0  0  0  0  0  0  0  0  0  0  0  0
   44.8520   24.5940   47.7690 C   0  0  0  0  0  0  0  0  0  0  0  0
   45.6560   23.8170   47.8280 H   0  0  0  0  0  0  0  0  0  0  0  0
   44.6770   24.9570   46.3220 C   0  0  2  0  0  0  0  0  0  0  0  0
   44.3800   26.7200   44.8250 O   0  0  0  0  0  0  0  0  0  0  0  0
   43.6780   26.5770   44.1520 H   0  0  0  0  0  0  0  0  0  0  0  0
   45.8580   24.8400   45.5900 O   0  0  0  0  0  0  0  0  0  0  0  0
   45.6620   24.5590   44.6410 H   0  0  0  0  0  0  0  0  0  0  0  0
   46.4850   31.3260   45.3660 O   0  0  0  0  0  0  0  0  0  0  0  0
   45.2930   34.2290   43.7560 C   0  0  0  0  0  0  0  0  0  0  0  0
   46.4580   34.7320   43.1420 C   0  0  0  0  0  0  0  0  0  0  0  0
   47.6430   34.0600   43.2920 C   0  0  0  0  0  0  0  0  0  0  0  0
   47.5980   32.9450   44.0350 N   0  0  0  0  0  0  0  0  0  0  0  0
   46.5050   32.4710   44.6110 C   0  0  0  0  0  0  0  0  0  0  0  0
   45.3510   33.1150   44.4720 N   0  0  0  0  0  0  0  0  0  0  0  0
   44.3520   34.7550   43.6410 H   0  0  0  0  0  0  0  0  0  0  0  0
   46.3210   35.6370   42.5790 H   0  0  0  0  0  0  0  0  0  0  0  0
   48.9060   34.4830   42.6790 C   0  0  0  0  0  0  0  0  0  0  0  0
   49.6430   34.7210   43.4730 H   0  0  0  0  0  0  0  0  0  0  0  0
   49.3670   33.6350   42.1110 H   0  0  0  0  0  0  0  0  0  0  0  0
   48.7420   35.6420   41.7450 C   0  0  0  0  0  0  0  0  0  0  0  0
   48.0070   36.3630   42.0620 H   0  0  0  0  0  0  0  0  0  0  0  0
   49.7330   36.2020   41.8100 H   0  0  0  0  0  0  0  0  0  0  0  0
   48.6150   35.2570   40.3400 C   0  0  0  0  0  0  0  0  0  0  0  0
   48.0400   34.3520   39.5590 C   0  0  0  0  0  0  0  0  0  0  0  0
   48.2260   34.1930   38.0620 C   0  0  0  0  0  0  0  0  0  0  0  0
   47.2990   34.5300   37.5730 H   0  0  0  0  0  0  0  0  0  0  0  0
   48.4450   33.1320   37.8380 H   0  0  0  0  0  0  0  0  0  0  0  0
   49.1070   34.7910   37.8110 H   0  0  0  0  0  0  0  0  0  0  0  0
  1  6  1  0  0  0  0
  2  1  2  0  0  0  0
  2  3  1  0  0  0  0
  3  4  2  0  0  0  0
  4  8  1  0  0  0  0
  4  5  1  0  0  0  0
  5  9  1  0  0  0  0
  6 10  1  0  0  0  0
  6  5  2  0  0  0  0
  7  3  1  0  0  0  0
 11  1  1  0  0  0  0
 12 11  2  0  0  0  0
 13 11  2  0  0  0  0
 14 22  1  6  0  0  0
 14 21  1  0  0  0  0
 14 15  1  0  0  0  0
 15 11  1  6  0  0  0
 15 16  1  0  0  0  0
 16 18  1  0  0  0  0
 17 16  1  0  0  0  0
 19 20  1  0  0  0  0
 19 18  1  0  0  0  0
 21 24  1  1  0  0  0
 21 19  1  0  0  0  0
 23 22  1  0  0  0  0
 25 24  1  0  0  0  0
 26  2  1  0  0  0  0
 27 32  1  0  0  0  0
 28 29  1  0  0  0  0
 28 27  2  0  0  0  0
 29 30  2  0  0  0  0
 30 31  1  0  0  0  0
 31 26  1  0  0  0  0
 32 31  2  0  0  0  0
 33 27  1  0  0  0  0
 34 28  1  0  0  0  0
 35 29  1  0  0  0  0
 35 36  1  0  0  0  0
 37 35  1  0  0  0  0
 38 40  1  0  0  0  0
 38 39  1  0  0  0  0
 38 35  1  0  0  0  0
 41 38  1  0  0  0  0
 42 41  2  0  0  0  0
 43 42  1  0  0  0  0
 44 43  1  0  0  0  0
 45 43  1  0  0  0  0
 46 43  1  0  0  0  0
M  END
>  <minimizedAffinity>
-5.9838047

>  <minimizedRMSD>
2.66023159

$$$$
