
 OpenBabel03242517553D

 46 48  0  0  1  0  0  0  0  0999 V2000
   45.4560   30.1100   47.3270 C   0  0  0  0  0  0  0  0  0  0  0  0
   45.9810   31.1900   46.7040 C   0  0  0  0  0  0  0  0  0  0  0  0
   46.1740   32.3480   47.4350 C   0  0  0  0  0  0  0  0  0  0  0  0
   45.8580   32.4480   48.7690 C   0  0  0  0  0  0  0  0  0  0  0  0
   45.3230   31.3390   49.3990 C   0  0  0  0  0  0  0  0  0  0  0  0
   45.1290   30.1780   48.6660 C   0  0  0  0  0  0  0  0  0  0  0  0
   46.5880   33.2550   47.0150 H   0  0  0  0  0  0  0  0  0  0  0  0
   46.0030   33.3360   49.3440 H   0  0  0  0  0  0  0  0  0  0  0  0
   45.0490   31.3490   50.4610 H   0  0  0  0  0  0  0  0  0  0  0  0
   44.7040   29.2950   49.1660 H   0  0  0  0  0  0  0  0  0  0  0  0
   45.1250   28.7260   46.3440 S   0  0  0  0  0  0  0  0  0  0  0  0
   46.1950   28.3700   45.3920 O   0  0  0  0  0  0  0  0  0  0  0  0
   43.9160   29.1200   45.4620 O   0  0  0  0  0  0  0  0  0  0  0  0
   43.9490   26.2650   46.2530 C   0  0  2  0  0  3  0  0  0  0  0  0
   44.5120   27.3170   47.1900 C   0  0  1  0  0  3  0  0  0  0  0  0
   45.7270   26.6770   47.8480 C   0  0  0  0  0  3  0  0  0  0  0  0
   46.5260   26.4560   47.1180 H   0  0  0  0  0  0  0  0  0  0  0  0
   45.3440   25.5950   48.5990 O   0  0  0  0  0  0  0  0  0  0  0  0
   45.0070   24.5510   47.7770 C   0  0  0  0  0  3  0  0  0  0  0  0
   45.8310   23.7960   47.7310 H   0  0  0  0  0  0  0  0  0  0  0  0
   44.6610   24.9330   46.3660 C   0  0  2  0  0  3  0  0  0  0  0  0
   44.1540   26.7120   44.9450 O   0  0  0  0  0  0  0  0  0  0  0  0
   43.3860   26.5610   44.3520 H   0  0  0  0  0  0  0  0  0  0  0  0
   45.7560   24.8620   45.5060 O   0  0  0  0  0  0  0  0  0  0  0  0
   45.4630   24.5910   44.5780 H   0  0  0  0  0  0  0  0  0  0  0  0
   46.3690   31.2970   45.3760 O   0  0  0  0  0  0  0  0  0  0  0  0
   45.2650   34.2510   43.7950 C   0  0  0  0  0  0  0  0  0  0  0  0
   46.4440   34.7220   43.1830 C   0  0  0  0  0  0  0  0  0  0  0  0
   47.6070   34.0120   43.3230 C   0  0  0  0  0  0  0  0  0  0  0  0
   47.5290   32.8920   44.0550 N   0  0  0  0  0  0  0  0  0  0  0  0
   46.4240   32.4480   44.6310 C   0  0  0  0  0  0  0  0  0  0  0  0
   45.2900   33.1290   44.5010 N   0  0  0  0  0  0  0  0  0  0  0  0
   44.3410   34.8070   43.6890 H   0  0  0  0  0  0  0  0  0  0  0  0
   46.3330   35.6370   42.6280 H   0  0  0  0  0  0  0  0  0  0  0  0
   48.8810   34.4010   42.7100 C   0  0  0  0  0  0  0  0  0  0  0  0
   49.6300   34.6010   43.5030 H   0  0  0  0  0  0  0  0  0  0  0  0
   49.3100   33.5460   42.1270 H   0  0  0  0  0  0  0  0  0  0  0  0
   48.7530   35.5790   41.7940 C   0  0  0  0  0  0  0  0  0  0  0  0
   48.0380   36.3160   42.1210 H   0  0  0  0  0  0  0  0  0  0  0  0
   49.7590   36.1080   41.8690 H   0  0  0  0  0  0  0  0  0  0  0  0
   48.6180   35.2200   40.3830 C   0  0  0  0  0  3  0  0  0  0  0  0
   48.0310   34.3350   39.5870 C   0  0  0  0  0  3  0  0  0  0  0  0
   48.2100   34.2010   38.0880 C   0  0  0  0  0  0  0  0  0  0  0  0
   47.2850   34.5560   37.6070 H   0  0  0  0  0  0  0  0  0  0  0  0
   48.4170   33.1410   37.8450 H   0  0  0  0  0  0  0  0  0  0  0  0
   49.0970   34.7930   37.8440 H   0  0  0  0  0  0  0  0  0  0  0  0
  1  6  1  0  0  0  0
  2  1  2  0  0  0  0
  2  3  1  0  0  0  0
  3  4  2  0  0  0  0
  4  8  1  0  0  0  0
  4  5  1  0  0  0  0
  5  9  1  0  0  0  0
  6 10  1  0  0  0  0
  6  5  2  0  0  0  0
  7  3  1  0  0  0  0
 11  1  1  0  0  0  0
 12 11  2  0  0  0  0
 13 11  2  0  0  0  0
 14 22  1  6  0  0  0
 14 21  1  0  0  0  0
 14 15  1  0  0  0  0
 15 11  1  6  0  0  0
 15 16  1  0  0  0  0
 16 18  1  0  0  0  0
 17 16  1  0  0  0  0
 19 18  1  0  0  0  0
 20 19  1  0  0  0  0
 21 24  1  6  0  0  0
 21 19  1  0  0  0  0
 23 22  1  0  0  0  0
 25 24  1  0  0  0  0
 26  2  1  0  0  0  0
 27 32  1  0  0  0  0
 28 29  1  0  0  0  0
 28 27  2  0  0  0  0
 29 30  2  0  0  0  0
 30 31  1  0  0  0  0
 31 26  1  0  0  0  0
 32 31  2  0  0  0  0
 33 27  1  0  0  0  0
 34 28  1  0  0  0  0
 35 29  1  0  0  0  0
 35 36  1  0  0  0  0
 37 35  1  0  0  0  0
 38 40  1  0  0  0  0
 38 39  1  0  0  0  0
 38 35  1  0  0  0  0
 41 38  1  0  0  0  0
 42 41  2  0  0  0  0
 43 42  1  0  0  0  0
 44 43  1  0  0  0  0
 45 43  1  0  0  0  0
 46 43  1  0  0  0  0
M  END
>  <minimizedAffinity>
-5.97658634

>  <minimizedRMSD>
2.57545018

$$$$
