
 OpenBabel03242523503D

 46 49  0  0  1  0  0  0  0  0999 V2000
   42.8170   34.5170   38.7600 C   0  0  1  0  0  0  0  0  0  0  0  0
   42.9310   35.1980   40.1240 C   0  0  1  0  0  0  0  0  0  0  0  0
   41.6400   35.4470   40.6240 O   0  0  0  0  0  0  0  0  0  0  0  0
   40.7200   35.7540   39.6210 C   0  0  0  0  0  0  0  0  0  0  0  0
   40.4160   34.5310   38.7640 C   0  0  2  0  0  0  0  0  0  0  0  0
   41.6150   33.5900   38.8870 C   0  0  1  0  0  0  0  0  0  0  0  0
   43.7540   33.9580   38.6210 H   0  0  0  0  0  0  0  0  0  0  0  0
   43.5260   36.1100   40.0560 H   0  0  0  0  0  0  0  0  0  0  0  0
   39.8030   36.0630   40.1630 H   0  0  0  0  0  0  0  0  0  0  0  0
   41.0070   36.6380   39.0160 H   0  0  0  0  0  0  0  0  0  0  0  0
   39.4660   34.0430   39.0430 H   0  0  0  0  0  0  0  0  0  0  0  0
   41.5930   33.1750   39.9280 H   0  0  0  0  0  0  0  0  0  0  0  0
   42.5880   35.4590   37.7610 O   0  0  0  0  0  0  0  0  0  0  0  0
   42.9800   35.0730   36.9250 H   0  0  0  0  0  0  0  0  0  0  0  0
   40.4320   34.9550   37.4200 O   0  0  0  0  0  0  0  0  0  0  0  0
   39.5110   35.2940   37.2260 H   0  0  0  0  0  0  0  0  0  0  0  0
   43.4590   34.2330   40.9920 O   0  0  0  0  0  0  0  0  0  0  0  0
   44.5720   34.3670   41.7170 C   0  0  0  0  0  0  0  0  0  0  0  0
   45.8210   34.4620   41.1070 C   0  0  0  0  0  0  0  0  0  0  0  0
   46.9420   34.6020   41.9170 C   0  0  0  0  0  0  0  0  0  0  0  0
   46.7910   34.6420   43.2950 N   0  0  0  0  0  0  0  0  0  0  0  0
   45.5740   34.5480   43.8350 C   0  0  0  0  0  0  0  0  0  0  0  0
   44.4680   34.4120   43.0650 N   0  0  0  0  0  0  0  0  0  0  0  0
   45.9550   34.4320   40.0460 H   0  0  0  0  0  0  0  0  0  0  0  0
   45.5260   34.5860   44.9100 H   0  0  0  0  0  0  0  0  0  0  0  0
   48.3170   34.6990   41.2960 C   0  0  0  0  0  0  0  0  0  0  0  0
   49.0640   35.9980   41.4890 C   0  0  0  0  0  0  0  0  0  0  0  0
   49.4790   34.6710   42.1470 C   0  0  0  0  0  0  0  0  0  0  0  0
   48.3130   34.3640   40.2580 H   0  0  0  0  0  0  0  0  0  0  0  0
   49.6760   36.3950   40.6760 H   0  0  0  0  0  0  0  0  0  0  0  0
   48.6090   36.7620   42.1480 H   0  0  0  0  0  0  0  0  0  0  0  0
   50.4280   34.2590   41.7040 H   0  0  0  0  0  0  0  0  0  0  0  0
   49.4220   34.6280   43.2490 H   0  0  0  0  0  0  0  0  0  0  0  0
   41.5720   32.6140   37.9120 O   0  0  0  0  0  0  0  0  0  0  0  0
   41.8730   31.2790   39.8920 C   0  0  2  0  0  3  0  0  0  0  0  0
   41.5760   31.3150   38.3960 C   0  0  2  0  0  3  0  0  0  0  0  0
   42.7250   30.5920   37.7250 C   0  0  0  0  0  3  0  0  0  0  0  0
   42.6670   30.6690   36.6030 H   0  0  0  0  0  0  0  0  0  0  0  0
   43.8930   31.3040   38.0700 O   0  0  0  0  0  0  0  0  0  0  0  0
   44.2730   30.8390   39.3310 C   0  0  0  0  0  3  0  0  0  0  0  0
   44.9420   29.9710   39.1620 H   0  0  0  0  0  0  0  0  0  0  0  0
   43.0950   30.4380   40.1890 C   0  0  1  0  0  3  0  0  0  0  0  0
   40.7900   30.6760   40.5360 O   0  0  0  0  0  0  0  0  0  0  0  0
   40.8240   29.6930   40.4330 H   0  0  0  0  0  0  0  0  0  0  0  0
   43.4050   30.6440   41.5370 O   0  0  0  0  0  0  0  0  0  0  0  0
   43.2860   29.8230   42.0860 H   0  0  0  0  0  0  0  0  0  0  0  0
  1  7  1  6  0  0  0
  1  6  1  0  0  0  0
  1  2  1  0  0  0  0
  2  8  1  6  0  0  0
  2  3  1  0  0  0  0
  2 17  1  0  0  0  0
  4  9  1  0  0  0  0
  4  3  1  0  0  0  0
  5  6  1  0  0  0  0
  5 11  1  1  0  0  0
  5  4  1  0  0  0  0
  6 12  1  1  0  0  0
 10  4  1  0  0  0  0
 13  1  1  0  0  0  0
 14 13  1  0  0  0  0
 15  5  1  0  0  0  0
 16 15  1  0  0  0  0
 17 18  1  0  0  0  0
 18 23  1  0  0  0  0
 19 18  2  0  0  0  0
 19 20  1  0  0  0  0
 20 21  2  0  0  0  0
 21 22  1  0  0  0  0
 22 25  1  0  0  0  0
 23 22  2  0  0  0  0
 24 19  1  0  0  0  0
 26 27  1  0  0  0  0
 26 20  1  0  0  0  0
 26 28  1  0  0  0  0
 27 28  1  0  0  0  0
 27 31  1  0  0  0  0
 28 33  1  0  0  0  0
 29 26  1  0  0  0  0
 30 27  1  0  0  0  0
 32 28  1  0  0  0  0
 34  6  1  0  0  0  0
 35 42  1  0  0  0  0
 35 43  1  1  0  0  0
 36 34  1  6  0  0  0
 36 35  1  0  0  0  0
 37 39  1  0  0  0  0
 37 36  1  0  0  0  0
 38 37  1  0  0  0  0
 39 40  1  0  0  0  0
 40 42  1  0  0  0  0
 41 40  1  0  0  0  0
 42 45  1  1  0  0  0
 44 43  1  0  0  0  0
 45 46  1  0  0  0  0
M  END
>  <minimizedAffinity>
-5.93086672

>  <minimizedRMSD>
0.218745694

$$$$
