
 OpenBabel03242523503D

 46 49  0  0  1  0  0  0  0  0999 V2000
   42.8770   34.4100   38.9380 C   0  0  1  0  0  0  0  0  0  0  0  0
   43.0120   35.2280   40.2230 C   0  0  1  0  0  0  0  0  0  0  0  0
   41.7370   35.6590   40.6300 O   0  0  0  0  0  0  0  0  0  0  0  0
   40.8900   35.9390   39.5570 C   0  0  0  0  0  0  0  0  0  0  0  0
   40.4920   34.6620   38.8260 C   0  0  2  0  0  0  0  0  0  0  0  0
   41.5810   33.6270   39.1090 C   0  0  1  0  0  0  0  0  0  0  0  0
   43.7550   33.7480   38.9070 H   0  0  0  0  0  0  0  0  0  0  0  0
   43.7000   36.0630   40.0830 H   0  0  0  0  0  0  0  0  0  0  0  0
   39.9910   36.3980   40.0180 H   0  0  0  0  0  0  0  0  0  0  0  0
   41.2890   36.7160   38.8730 H   0  0  0  0  0  0  0  0  0  0  0  0
   39.4870   34.3060   39.1130 H   0  0  0  0  0  0  0  0  0  0  0  0
   41.4780   33.3390   40.1880 H   0  0  0  0  0  0  0  0  0  0  0  0
   42.7830   35.2500   37.8320 O   0  0  0  0  0  0  0  0  0  0  0  0
   43.1630   34.7330   37.0630 H   0  0  0  0  0  0  0  0  0  0  0  0
   40.6000   34.9260   37.4460 O   0  0  0  0  0  0  0  0  0  0  0  0
   39.7260   35.3300   37.1730 H   0  0  0  0  0  0  0  0  0  0  0  0
   43.4060   34.3210   41.2160 O   0  0  0  0  0  0  0  0  0  0  0  0
   44.5520   34.3660   41.8970 C   0  0  0  0  0  0  0  0  0  0  0  0
   45.7740   34.4990   41.2410 C   0  0  0  0  0  0  0  0  0  0  0  0
   46.9330   34.5410   42.0080 C   0  0  0  0  0  0  0  0  0  0  0  0
   46.8450   34.4500   43.3890 N   0  0  0  0  0  0  0  0  0  0  0  0
   45.6520   34.3230   43.9740 C   0  0  0  0  0  0  0  0  0  0  0  0
   44.5100   34.2810   43.2460 N   0  0  0  0  0  0  0  0  0  0  0  0
   45.8600   34.5700   40.1770 H   0  0  0  0  0  0  0  0  0  0  0  0
   45.6540   34.2580   45.0490 H   0  0  0  0  0  0  0  0  0  0  0  0
   48.2810   34.6750   41.3360 C   0  0  0  0  0  0  0  0  0  0  0  0
   49.0110   35.9840   41.5240 C   0  0  0  0  0  0  0  0  0  0  0  0
   49.4760   34.6530   42.1400 C   0  0  0  0  0  0  0  0  0  0  0  0
   48.2420   34.3590   40.2930 H   0  0  0  0  0  0  0  0  0  0  0  0
   49.5830   36.4070   40.6960 H   0  0  0  0  0  0  0  0  0  0  0  0
   48.5690   36.7270   42.2150 H   0  0  0  0  0  0  0  0  0  0  0  0
   50.4130   34.2680   41.6520 H   0  0  0  0  0  0  0  0  0  0  0  0
   49.4630   34.5890   43.2420 H   0  0  0  0  0  0  0  0  0  0  0  0
   41.4720   32.5550   38.2470 O   0  0  0  0  0  0  0  0  0  0  0  0
   39.3150   32.2430   39.2700 C   0  0  2  0  0  0  0  0  0  0  0  0
   40.5420   31.6000   38.6290 C   0  0  2  0  0  0  0  0  0  0  0  0
   41.1860   30.7590   39.7120 C   0  0  0  0  0  0  0  0  0  0  0  0
   42.1760   30.3360   39.3780 H   0  0  0  0  0  0  0  0  0  0  0  0
   41.5150   31.6470   40.7580 O   0  0  0  0  0  0  0  0  0  0  0  0
   40.3480   31.8100   41.5090 C   0  0  0  0  0  0  0  0  0  0  0  0
   40.3550   31.0150   42.2820 H   0  0  0  0  0  0  0  0  0  0  0  0
   39.0930   31.7220   40.6730 C   0  0  1  0  0  0  0  0  0  0  0  0
   38.1950   31.8880   38.5140 O   0  0  0  0  0  0  0  0  0  0  0  0
   37.9100   30.9650   38.7240 H   0  0  0  0  0  0  0  0  0  0  0  0
   38.0940   32.5170   41.2420 O   0  0  0  0  0  0  0  0  0  0  0  0
   37.2580   32.0080   41.4230 H   0  0  0  0  0  0  0  0  0  0  0  0
  1  7  1  6  0  0  0
  1  6  1  0  0  0  0
  1  2  1  0  0  0  0
  2  8  1  6  0  0  0
  2  3  1  0  0  0  0
  2 17  1  0  0  0  0
  4  9  1  0  0  0  0
  4  3  1  0  0  0  0
  5  6  1  0  0  0  0
  5 11  1  1  0  0  0
  5  4  1  0  0  0  0
  6 12  1  1  0  0  0
 10  4  1  0  0  0  0
 13  1  1  0  0  0  0
 14 13  1  0  0  0  0
 15  5  1  0  0  0  0
 16 15  1  0  0  0  0
 17 18  1  0  0  0  0
 18 23  1  0  0  0  0
 19 18  2  0  0  0  0
 19 20  1  0  0  0  0
 20 21  2  0  0  0  0
 21 22  1  0  0  0  0
 22 25  1  0  0  0  0
 23 22  2  0  0  0  0
 24 19  1  0  0  0  0
 26 27  1  0  0  0  0
 26 20  1  0  0  0  0
 26 28  1  0  0  0  0
 27 28  1  0  0  0  0
 27 31  1  0  0  0  0
 28 33  1  0  0  0  0
 29 26  1  0  0  0  0
 30 27  1  0  0  0  0
 32 28  1  0  0  0  0
 34  6  1  0  0  0  0
 35 43  1  6  0  0  0
 35 42  1  0  0  0  0
 36 34  1  1  0  0  0
 36 35  1  0  0  0  0
 36 37  1  0  0  0  0
 37 39  1  0  0  0  0
 38 37  1  0  0  0  0
 39 40  1  0  0  0  0
 40 41  1  0  0  0  0
 42 45  1  1  0  0  0
 42 40  1  0  0  0  0
 43 44  1  0  0  0  0
 45 46  1  0  0  0  0
M  END
>  <minimizedAffinity>
-6.92349339

>  <minimizedRMSD>
1.08037925

$$$$
