
 OpenBabel03242523503D

 46 49  0  0  1  0  0  0  0  0999 V2000
   42.8330   34.5400   38.7440 C   0  0  1  0  0  0  0  0  0  0  0  0
   42.9250   35.1800   40.1300 C   0  0  1  0  0  0  0  0  0  0  0  0
   41.6260   35.3720   40.6350 O   0  0  0  0  0  0  0  0  0  0  0  0
   40.6970   35.6810   39.6410 C   0  0  0  0  0  0  0  0  0  0  0  0
   40.4320   34.4770   38.7450 C   0  0  2  0  0  0  0  0  0  0  0  0
   41.6610   33.5710   38.8400 C   0  0  1  0  0  0  0  0  0  0  0  0
   43.7870   34.0160   38.5890 H   0  0  0  0  0  0  0  0  0  0  0  0
   43.4900   36.1130   40.0920 H   0  0  0  0  0  0  0  0  0  0  0  0
   39.7700   35.9430   40.1920 H   0  0  0  0  0  0  0  0  0  0  0  0
   40.9550   36.5930   39.0660 H   0  0  0  0  0  0  0  0  0  0  0  0
   39.4990   33.9490   39.0080 H   0  0  0  0  0  0  0  0  0  0  0  0
   41.6520   33.1230   39.8670 H   0  0  0  0  0  0  0  0  0  0  0  0
   42.5740   35.5060   37.7760 O   0  0  0  0  0  0  0  0  0  0  0  0
   42.9780   35.1600   36.9280 H   0  0  0  0  0  0  0  0  0  0  0  0
   40.4350   34.9440   37.4150 O   0  0  0  0  0  0  0  0  0  0  0  0
   39.5030   35.2590   37.2320 H   0  0  0  0  0  0  0  0  0  0  0  0
   43.4830   34.2060   40.9670 O   0  0  0  0  0  0  0  0  0  0  0  0
   44.5900   34.3520   41.6980 C   0  0  0  0  0  0  0  0  0  0  0  0
   45.8420   34.4520   41.0950 C   0  0  0  0  0  0  0  0  0  0  0  0
   46.9570   34.6050   41.9110 C   0  0  0  0  0  0  0  0  0  0  0  0
   46.7970   34.6550   43.2880 N   0  0  0  0  0  0  0  0  0  0  0  0
   45.5780   34.5560   43.8210 C   0  0  0  0  0  0  0  0  0  0  0  0
   44.4770   34.4060   43.0450 N   0  0  0  0  0  0  0  0  0  0  0  0
   45.9840   34.4150   40.0350 H   0  0  0  0  0  0  0  0  0  0  0  0
   45.5220   34.6020   44.8960 H   0  0  0  0  0  0  0  0  0  0  0  0
   48.3360   34.7070   41.2990 C   0  0  0  0  0  0  0  0  0  0  0  0
   49.0740   36.0110   41.4900 C   0  0  0  0  0  0  0  0  0  0  0  0
   49.4930   34.6890   42.1580 C   0  0  0  0  0  0  0  0  0  0  0  0
   48.3400   34.3670   40.2630 H   0  0  0  0  0  0  0  0  0  0  0  0
   49.6890   36.4070   40.6800 H   0  0  0  0  0  0  0  0  0  0  0  0
   48.6110   36.7760   42.1430 H   0  0  0  0  0  0  0  0  0  0  0  0
   50.4460   34.2810   41.7220 H   0  0  0  0  0  0  0  0  0  0  0  0
   49.4280   34.6510   43.2590 H   0  0  0  0  0  0  0  0  0  0  0  0
   41.6500   32.6260   37.8350 O   0  0  0  0  0  0  0  0  0  0  0  0
   43.3000   31.1510   38.7790 C   0  0  2  0  0  3  0  0  0  0  0  0
   41.8760   31.3270   38.2620 C   0  0  2  0  0  3  0  0  0  0  0  0
   41.7590   30.4300   37.0460 C   0  0  0  0  0  3  0  0  0  0  0  0
   40.7790   30.5790   36.5130 H   0  0  0  0  0  0  0  0  0  0  0  0
   42.7350   30.8800   36.1320 O   0  0  0  0  0  0  0  0  0  0  0  0
   43.9350   30.2800   36.5180 C   0  0  0  0  0  3  0  0  0  0  0  0
   43.9910   29.3080   35.9880 H   0  0  0  0  0  0  0  0  0  0  0  0
   44.0330   30.0710   38.0130 C   0  0  1  0  0  3  0  0  0  0  0  0
   43.2310   30.7370   40.1120 O   0  0  0  0  0  0  0  0  0  0  0  0
   43.0150   29.7750   40.1690 H   0  0  0  0  0  0  0  0  0  0  0  0
   45.3720   30.1380   38.4080 O   0  0  0  0  0  0  0  0  0  0  0  0
   45.6640   29.3270   38.9070 H   0  0  0  0  0  0  0  0  0  0  0  0
  1  7  1  6  0  0  0
  1  6  1  0  0  0  0
  1  2  1  0  0  0  0
  2  8  1  6  0  0  0
  2  3  1  0  0  0  0
  2 17  1  0  0  0  0
  4  9  1  0  0  0  0
  4  3  1  0  0  0  0
  5  6  1  0  0  0  0
  5 11  1  1  0  0  0
  5  4  1  0  0  0  0
  6 12  1  1  0  0  0
 10  4  1  0  0  0  0
 13  1  1  0  0  0  0
 14 13  1  0  0  0  0
 15  5  1  0  0  0  0
 16 15  1  0  0  0  0
 17 18  1  0  0  0  0
 18 23  1  0  0  0  0
 19 18  2  0  0  0  0
 19 20  1  0  0  0  0
 20 21  2  0  0  0  0
 21 22  1  0  0  0  0
 22 25  1  0  0  0  0
 23 22  2  0  0  0  0
 24 19  1  0  0  0  0
 26 27  1  0  0  0  0
 26 20  1  0  0  0  0
 26 28  1  0  0  0  0
 27 31  1  0  0  0  0
 27 28  1  0  0  0  0
 28 33  1  0  0  0  0
 29 26  1  0  0  0  0
 30 27  1  0  0  0  0
 32 28  1  0  0  0  0
 34  6  1  0  0  0  0
 35 43  1  1  0  0  0
 36 34  1  6  0  0  0
 36 35  1  0  0  0  0
 37 36  1  0  0  0  0
 38 37  1  0  0  0  0
 39 40  1  0  0  0  0
 39 37  1  0  0  0  0
 40 42  1  0  0  0  0
 41 40  1  0  0  0  0
 42 45  1  1  0  0  0
 42 35  1  0  0  0  0
 43 44  1  0  0  0  0
 45 46  1  0  0  0  0
M  END
>  <minimizedAffinity>
-5.95040321

>  <minimizedRMSD>
0.341978222

$$$$
