
 OpenBabel03242523503D

 46 49  0  0  1  0  0  0  0  0999 V2000
   42.8190   34.5440   38.6880 C   0  0  1  0  0  0  0  0  0  0  0  0
   42.9580   35.1730   40.0750 C   0  0  1  0  0  0  0  0  0  0  0  0
   41.6760   35.3970   40.6090 O   0  0  0  0  0  0  0  0  0  0  0  0
   40.7350   35.7380   39.6360 C   0  0  0  0  0  0  0  0  0  0  0  0
   40.4190   34.5480   38.7390 C   0  0  2  0  0  0  0  0  0  0  0  0
   41.6240   33.6080   38.8020 C   0  0  1  0  0  0  0  0  0  0  0  0
   43.7560   33.9950   38.5100 H   0  0  0  0  0  0  0  0  0  0  0  0
   43.5480   36.0900   40.0310 H   0  0  0  0  0  0  0  0  0  0  0  0
   39.8280   36.0230   40.2080 H   0  0  0  0  0  0  0  0  0  0  0  0
   41.0070   36.6470   39.0600 H   0  0  0  0  0  0  0  0  0  0  0  0
   39.4770   34.0450   39.0180 H   0  0  0  0  0  0  0  0  0  0  0  0
   41.6230   33.1540   39.8270 H   0  0  0  0  0  0  0  0  0  0  0  0
   42.5680   35.5230   37.7310 O   0  0  0  0  0  0  0  0  0  0  0  0
   42.9450   35.1710   36.8730 H   0  0  0  0  0  0  0  0  0  0  0  0
   40.4070   35.0230   37.4120 O   0  0  0  0  0  0  0  0  0  0  0  0
   39.4810   35.3650   37.2500 H   0  0  0  0  0  0  0  0  0  0  0  0
   43.5070   34.1790   40.8950 O   0  0  0  0  0  0  0  0  0  0  0  0
   44.5990   34.3090   41.6490 C   0  0  0  0  0  0  0  0  0  0  0  0
   45.8620   34.4270   41.0720 C   0  0  0  0  0  0  0  0  0  0  0  0
   46.9620   34.5630   41.9120 C   0  0  0  0  0  0  0  0  0  0  0  0
   46.7770   34.5770   43.2860 N   0  0  0  0  0  0  0  0  0  0  0  0
   45.5480   34.4620   43.7940 C   0  0  0  0  0  0  0  0  0  0  0  0
   44.4620   34.3290   42.9940 N   0  0  0  0  0  0  0  0  0  0  0  0
   46.0230   34.4180   40.0140 H   0  0  0  0  0  0  0  0  0  0  0  0
   45.4730   34.4800   44.8690 H   0  0  0  0  0  0  0  0  0  0  0  0
   48.3500   34.6840   41.3270 C   0  0  0  0  0  0  0  0  0  0  0  0
   49.0580   36.0050   41.5150 C   0  0  0  0  0  0  0  0  0  0  0  0
   49.4890   34.7020   42.2100 C   0  0  0  0  0  0  0  0  0  0  0  0
   48.3840   34.3300   40.2970 H   0  0  0  0  0  0  0  0  0  0  0  0
   49.6830   36.4030   40.7120 H   0  0  0  0  0  0  0  0  0  0  0  0
   48.5660   36.7700   42.1470 H   0  0  0  0  0  0  0  0  0  0  0  0
   50.4600   34.3070   41.8010 H   0  0  0  0  0  0  0  0  0  0  0  0
   49.4020   34.6780   43.3110 H   0  0  0  0  0  0  0  0  0  0  0  0
   41.5650   32.6700   37.7920 O   0  0  0  0  0  0  0  0  0  0  0  0
   42.2420   30.4650   37.1030 C   0  0  2  0  0  3  0  0  0  0  0  0
   41.7000   31.3570   38.2160 C   0  0  2  0  0  3  0  0  0  0  0  0
   40.3090   30.8420   38.5240 C   0  0  0  0  0  3  0  0  0  0  0  0
   39.7690   31.5120   39.2510 H   0  0  0  0  0  0  0  0  0  0  0  0
   39.5740   30.9530   37.3250 O   0  0  0  0  0  0  0  0  0  0  0  0
   39.8810   29.8170   36.5750 C   0  0  0  0  0  3  0  0  0  0  0  0
   39.1480   29.0360   36.8650 H   0  0  0  0  0  0  0  0  0  0  0  0
   41.2930   29.3250   36.8030 C   0  0  1  0  0  3  0  0  0  0  0  0
   43.4410   29.9000   37.5450 O   0  0  0  0  0  0  0  0  0  0  0  0
   43.2660   29.1470   38.1610 H   0  0  0  0  0  0  0  0  0  0  0  0
   41.7670   28.7050   35.6430 O   0  0  0  0  0  0  0  0  0  0  0  0
   42.0840   27.7770   35.8080 H   0  0  0  0  0  0  0  0  0  0  0  0
  1  7  1  6  0  0  0
  1  6  1  0  0  0  0
  1  2  1  0  0  0  0
  2  8  1  6  0  0  0
  2  3  1  0  0  0  0
  2 17  1  0  0  0  0
  4  9  1  0  0  0  0
  4  3  1  0  0  0  0
  5  6  1  0  0  0  0
  5 11  1  1  0  0  0
  5  4  1  0  0  0  0
  6 12  1  1  0  0  0
 10  4  1  0  0  0  0
 13  1  1  0  0  0  0
 14 13  1  0  0  0  0
 15  5  1  0  0  0  0
 16 15  1  0  0  0  0
 17 18  1  0  0  0  0
 18 23  1  0  0  0  0
 19 18  2  0  0  0  0
 19 20  1  0  0  0  0
 20 21  2  0  0  0  0
 21 22  1  0  0  0  0
 22 25  1  0  0  0  0
 23 22  2  0  0  0  0
 24 19  1  0  0  0  0
 26 27  1  0  0  0  0
 26 20  1  0  0  0  0
 26 28  1  0  0  0  0
 27 31  1  0  0  0  0
 27 28  1  0  0  0  0
 28 33  1  0  0  0  0
 29 26  1  0  0  0  0
 30 27  1  0  0  0  0
 32 28  1  0  0  0  0
 34  6  1  0  0  0  0
 35 43  1  1  0  0  0
 35 36  1  0  0  0  0
 36 34  1  6  0  0  0
 36 37  1  0  0  0  0
 37 38  1  0  0  0  0
 39 37  1  0  0  0  0
 40 42  1  0  0  0  0
 40 41  1  0  0  0  0
 40 39  1  0  0  0  0
 42 45  1  6  0  0  0
 42 35  1  0  0  0  0
 43 44  1  0  0  0  0
 45 46  1  0  0  0  0
M  END
>  <minimizedAffinity>
-6.06436491

>  <minimizedRMSD>
0.178715169

$$$$
