
 OpenBabel03242523503D

 46 49  0  0  1  0  0  0  0  0999 V2000
   42.8560   34.5130   38.7760 C   0  0  1  0  0  0  0  0  0  0  0  0
   42.9230   35.1680   40.1570 C   0  0  1  0  0  0  0  0  0  0  0  0
   41.6160   35.3530   40.6420 O   0  0  0  0  0  0  0  0  0  0  0  0
   40.6980   35.6440   39.6320 C   0  0  0  0  0  0  0  0  0  0  0  0
   40.4570   34.4280   38.7450 C   0  0  2  0  0  0  0  0  0  0  0  0
   41.6920   33.5340   38.8660 C   0  0  1  0  0  0  0  0  0  0  0  0
   43.8170   33.9960   38.6400 H   0  0  0  0  0  0  0  0  0  0  0  0
   43.4800   36.1060   40.1170 H   0  0  0  0  0  0  0  0  0  0  0  0
   39.7610   35.9030   40.1680 H   0  0  0  0  0  0  0  0  0  0  0  0
   40.9560   36.5520   39.0510 H   0  0  0  0  0  0  0  0  0  0  0  0
   39.5240   33.8950   39.0010 H   0  0  0  0  0  0  0  0  0  0  0  0
   41.6720   33.0970   39.8980 H   0  0  0  0  0  0  0  0  0  0  0  0
   42.6020   35.4670   37.7950 O   0  0  0  0  0  0  0  0  0  0  0  0
   43.0210   35.1150   36.9570 H   0  0  0  0  0  0  0  0  0  0  0  0
   40.4740   34.8810   37.4110 O   0  0  0  0  0  0  0  0  0  0  0  0
   39.5420   35.1860   37.2110 H   0  0  0  0  0  0  0  0  0  0  0  0
   43.4790   34.2080   41.0120 O   0  0  0  0  0  0  0  0  0  0  0  0
   44.5920   34.3600   41.7300 C   0  0  0  0  0  0  0  0  0  0  0  0
   45.8380   34.4590   41.1140 C   0  0  0  0  0  0  0  0  0  0  0  0
   46.9620   34.6180   41.9180 C   0  0  0  0  0  0  0  0  0  0  0  0
   46.8150   34.6740   43.2960 N   0  0  0  0  0  0  0  0  0  0  0  0
   45.6020   34.5740   43.8420 C   0  0  0  0  0  0  0  0  0  0  0  0
   44.4940   34.4190   43.0780 N   0  0  0  0  0  0  0  0  0  0  0  0
   45.9690   34.4180   40.0530 H   0  0  0  0  0  0  0  0  0  0  0  0
   45.5570   34.6240   44.9170 H   0  0  0  0  0  0  0  0  0  0  0  0
   48.3330   34.7200   41.2910 C   0  0  0  0  0  0  0  0  0  0  0  0
   49.0790   36.0190   41.4880 C   0  0  0  0  0  0  0  0  0  0  0  0
   49.5000   34.6880   42.1360 C   0  0  0  0  0  0  0  0  0  0  0  0
   48.3240   34.3920   40.2510 H   0  0  0  0  0  0  0  0  0  0  0  0
   49.6870   36.4220   40.6750 H   0  0  0  0  0  0  0  0  0  0  0  0
   48.6280   36.7790   42.1550 H   0  0  0  0  0  0  0  0  0  0  0  0
   50.4460   34.2800   41.6850 H   0  0  0  0  0  0  0  0  0  0  0  0
   49.4480   34.6390   43.2380 H   0  0  0  0  0  0  0  0  0  0  0  0
   41.7030   32.5790   37.8710 O   0  0  0  0  0  0  0  0  0  0  0  0
   43.6180   31.2470   38.4610 C   0  0  2  0  0  3  0  0  0  0  0  0
   42.1050   31.3190   38.2850 C   0  0  2  0  0  3  0  0  0  0  0  0
   41.7680   30.3530   37.1680 C   0  0  0  0  0  3  0  0  0  0  0  0
   40.6830   30.4200   36.8730 H   0  0  0  0  0  0  0  0  0  0  0  0
   42.4740   30.8020   36.0340 O   0  0  0  0  0  0  0  0  0  0  0  0
   43.7670   30.2890   36.1530 C   0  0  0  0  0  3  0  0  0  0  0  0
   43.7610   29.2940   35.6640 H   0  0  0  0  0  0  0  0  0  0  0  0
   44.2210   30.1670   37.5900 C   0  0  1  0  0  3  0  0  0  0  0  0
   43.8850   30.9040   39.7900 O   0  0  0  0  0  0  0  0  0  0  0  0
   43.7510   29.9340   39.9330 H   0  0  0  0  0  0  0  0  0  0  0  0
   45.6090   30.3260   37.6570 O   0  0  0  0  0  0  0  0  0  0  0  0
   46.0590   29.5600   38.1060 H   0  0  0  0  0  0  0  0  0  0  0  0
  1  7  1  6  0  0  0
  1  6  1  0  0  0  0
  1  2  1  0  0  0  0
  2  8  1  6  0  0  0
  2  3  1  0  0  0  0
  2 17  1  0  0  0  0
  4  9  1  0  0  0  0
  4  3  1  0  0  0  0
  5  6  1  0  0  0  0
  5 11  1  1  0  0  0
  5  4  1  0  0  0  0
  6 12  1  1  0  0  0
 10  4  1  0  0  0  0
 13  1  1  0  0  0  0
 14 13  1  0  0  0  0
 15  5  1  0  0  0  0
 16 15  1  0  0  0  0
 17 18  1  0  0  0  0
 18 23  1  0  0  0  0
 19 18  2  0  0  0  0
 19 20  1  0  0  0  0
 20 21  2  0  0  0  0
 21 22  1  0  0  0  0
 22 25  1  0  0  0  0
 23 22  2  0  0  0  0
 24 19  1  0  0  0  0
 26 27  1  0  0  0  0
 26 20  1  0  0  0  0
 26 28  1  0  0  0  0
 27 28  1  0  0  0  0
 27 31  1  0  0  0  0
 28 33  1  0  0  0  0
 29 26  1  0  0  0  0
 30 27  1  0  0  0  0
 32 28  1  0  0  0  0
 34  6  1  0  0  0  0
 35 43  1  1  0  0  0
 36 34  1  6  0  0  0
 36 35  1  0  0  0  0
 37 36  1  0  0  0  0
 38 37  1  0  0  0  0
 39 40  1  0  0  0  0
 39 37  1  0  0  0  0
 40 42  1  0  0  0  0
 41 40  1  0  0  0  0
 42 45  1  6  0  0  0
 42 35  1  0  0  0  0
 43 44  1  0  0  0  0
 45 46  1  0  0  0  0
M  END
>  <minimizedAffinity>
-5.96492243

>  <minimizedRMSD>
0.54988116

$$$$
