
 OpenBabel03252504263D

 25 26  0  0  1  0  0  0  0  0999 V2000
   42.7000   35.5010   41.8760 O   0  0  0  0  0  0  0  0  0  0  0  0
   40.7300   35.1900   40.6180 C   0  0  2  0  0  3  0  0  0  0  0  0
   42.2060   35.4160   40.6020 C   0  0  2  0  0  3  0  0  0  0  0  0
   42.8250   34.3370   39.7510 C   0  0  0  0  0  3  0  0  0  0  0  0
   43.9150   34.3560   39.7400 H   0  0  0  0  0  0  0  0  0  0  0  0
   42.3710   34.6100   38.4600 O   0  0  0  0  0  0  0  0  0  0  0  0
   41.0890   34.1590   38.3430 C   0  0  0  0  0  3  0  0  0  0  0  0
   41.1340   33.1080   37.9630 H   0  0  0  0  0  0  0  0  0  0  0  0
   40.2200   34.2990   39.5350 C   0  0  2  0  0  3  0  0  0  0  0  0
   40.1040   36.4370   40.5690 O   0  0  0  0  0  0  0  0  0  0  0  0
   39.2980   36.4770   41.1190 H   0  0  0  0  0  0  0  0  0  0  0  0
   38.9180   34.6790   39.2000 O   0  0  0  0  0  0  0  0  0  0  0  0
   38.8400   35.0800   38.3110 H   0  0  0  0  0  0  0  0  0  0  0  0
   44.0830   35.4380   41.9460 C   0  0  0  0  0  0  0  0  0  0  0  0
   44.5700   36.4050   41.7430 H   0  0  0  0  0  0  0  0  0  0  0  0
   44.3760   34.7250   41.1190 H   0  0  0  0  0  0  0  0  0  0  0  0
   44.3460   35.6340   44.3220 C   0  0  0  0  0  0  0  0  0  0  0  0
   44.5810   34.8670   43.1980 C   0  0  0  0  0  0  0  0  0  0  0  0
   45.2520   33.6620   43.3730 C   0  0  0  0  0  0  0  0  0  0  0  0
   45.6160   33.3390   44.6200 N   0  0  0  0  0  0  0  0  0  0  0  0
   45.3860   34.0860   45.7060 C   0  0  0  0  0  0  0  0  0  0  0  0
   44.7260   35.2900   45.5960 N   0  0  0  0  0  0  0  0  0  0  0  0
   43.8300   36.5910   44.2930 H   0  0  0  0  0  0  0  0  0  0  0  0
   45.4160   33.0970   42.4840 H   0  0  0  0  0  0  0  0  0  0  0  0
   45.7410   33.6940   46.6510 H   0  0  0  0  0  0  0  0  0  0  0  0
  1 14  1  0  0  0  0
  2 10  1  6  0  0  0
  3  2  1  0  0  0  0
  3  1  1  1  0  0  0
  4  3  1  0  0  0  0
  5  4  1  0  0  0  0
  6  4  1  0  0  0  0
  7  6  1  0  0  0  0
  7  9  1  0  0  0  0
  8  7  1  0  0  0  0
  9 12  1  6  0  0  0
  9  2  1  0  0  0  0
 10 11  1  0  0  0  0
 13 12  1  0  0  0  0
 14 18  1  0  0  0  0
 15 14  1  0  0  0  0
 16 14  1  0  0  0  0
 17 22  1  0  0  0  0
 18 19  1  0  0  0  0
 18 17  2  0  0  0  0
 19 20  2  0  0  0  0
 20 21  1  0  0  0  0
 21 25  1  0  0  0  0
 22 21  2  0  0  0  0
 23 17  1  0  0  0  0
 24 19  1  0  0  0  0
M  END
>  <minimizedAffinity>
-4.63550615

>  <minimizedRMSD>
1.14912641

$$$$
