
 OpenBabel03242511163D

 22 23  0  0  1  0  0  0  0  0999 V2000
   48.7010   34.6060   42.7760 C   0  0  2  0  0  0  0  0  0  0  0  0
   48.6270   33.1160   42.7370 C   0  0  2  0  0  0  0  0  0  0  0  0
   48.5050   32.5340   41.3630 C   0  0  0  0  0  0  0  0  0  0  0  0
   47.4560   32.1780   41.2160 H   0  0  0  0  0  0  0  0  0  0  0  0
   48.8670   33.4100   40.3420 O   0  0  0  0  0  0  0  0  0  0  0  0
   47.9600   34.4600   40.3800 C   0  0  0  0  0  0  0  0  0  0  0  0
   46.9110   34.1530   40.4080 H   0  0  0  0  0  0  0  0  0  0  0  0
   48.3420   35.3350   41.5420 C   0  0  2  0  0  0  0  0  0  0  0  0
   49.9940   34.9890   43.2040 O   0  0  0  0  0  0  0  0  0  0  0  0
   50.1650   34.5810   44.0900 H   0  0  0  0  0  0  0  0  0  0  0  0
   49.3960   36.1770   41.1510 O   0  0  0  0  0  0  0  0  0  0  0  0
   49.6880   36.6300   41.9840 H   0  0  0  0  0  0  0  0  0  0  0  0
   47.2430   32.5180   43.7740 S   0  0  0  0  0  0  0  0  0  0  0  0
   44.3690   35.3140   43.0780 C   0  0  0  0  0  0  0  0  0  0  0  0
   45.3410   34.3030   42.8750 C   0  0  0  0  0  0  0  0  0  0  0  0
   46.0160   33.7890   43.9880 C   0  0  0  0  0  0  0  0  0  0  0  0
   45.7000   34.2910   45.2140 N   0  0  0  0  0  0  0  0  0  0  0  0
   44.7780   35.2460   45.3780 C   0  0  0  0  0  0  0  0  0  0  0  0
   44.1120   35.7610   44.3280 N   0  0  0  0  0  0  0  0  0  0  0  0
   43.9390   35.6060   42.1340 H   0  0  0  0  0  0  0  0  0  0  0  0
   45.6100   33.8890   41.9290 H   0  0  0  0  0  0  0  0  0  0  0  0
   44.5000   35.6700   46.3340 H   0  0  0  0  0  0  0  0  0  0  0  0
  1  9  1  6  0  0  0
  2  1  1  0  0  0  0
  2 13  1  1  0  0  0
  3  2  1  0  0  0  0
  4  3  1  0  0  0  0
  5  6  1  0  0  0  0
  5  3  1  0  0  0  0
  6  7  1  0  0  0  0
  6  8  1  0  0  0  0
  8 11  1  6  0  0  0
  8  1  1  0  0  0  0
  9 10  1  0  0  0  0
 11 12  1  0  0  0  0
 13 16  1  0  0  0  0
 14 19  1  0  0  0  0
 15 14  2  0  0  0  0
 15 16  1  0  0  0  0
 16 17  2  0  0  0  0
 17 18  1  0  0  0  0
 18 22  1  0  0  0  0
 19 18  2  0  0  0  0
 20 14  1  0  0  0  0
 21 15  1  0  0  0  0
M  END
>  <minimizedAffinity>
-5.01383972

>  <minimizedRMSD>
2.55261517

$$$$
