
 OpenBabel03242517503D

 22 23  0  0  1  0  0  0  0  0999 V2000
   45.5340   32.0990   47.8960 C   0  0  1  0  0  3  0  0  0  0  0  0
   46.1220   32.4740   46.5750 C   0  0  1  0  0  3  0  0  0  0  0  0
   46.2200   31.2340   45.7040 C   0  0  0  0  0  3  0  0  0  0  0  0
   47.2730   30.8510   45.6280 H   0  0  0  0  0  0  0  0  0  0  0  0
   45.3330   30.2540   46.1000 O   0  0  0  0  0  0  0  0  0  0  0  0
   45.6320   29.7220   47.3460 C   0  0  0  0  0  3  0  0  0  0  0  0
   44.6860   29.3100   47.7630 H   0  0  0  0  0  0  0  0  0  0  0  0
   46.1260   30.7680   48.3150 C   0  0  2  0  0  3  0  0  0  0  0  0
   45.7780   33.0760   48.8590 O   0  0  0  0  0  0  0  0  0  0  0  0
   45.3790   32.7920   49.7200 H   0  0  0  0  0  0  0  0  0  0  0  0
   45.6430   30.5150   49.6160 O   0  0  0  0  0  0  0  0  0  0  0  0
   46.4200   30.5310   50.2320 H   0  0  0  0  0  0  0  0  0  0  0  0
   45.3090   33.4670   45.9470 O   0  0  0  0  0  0  0  0  0  0  0  0
   45.4250   35.4200   42.9690 C   0  0  0  0  0  0  0  0  0  0  0  0
   46.7050   35.1340   42.4280 C   0  0  0  0  0  0  0  0  0  0  0  0
   47.5340   34.2320   43.1380 C   0  0  0  0  0  0  0  0  0  0  0  0
   47.0330   33.7110   44.2880 N   0  0  0  0  0  0  0  0  0  0  0  0
   45.8130   34.0090   44.7660 C   0  0  0  0  0  0  0  0  0  0  0  0
   45.0280   34.8560   44.1030 N   0  0  0  0  0  0  0  0  0  0  0  0
   44.8650   36.1040   42.3770 H   0  0  0  0  0  0  0  0  0  0  0  0
   47.0990   35.5560   41.5050 H   0  0  0  0  0  0  0  0  0  0  0  0
   48.5160   33.9840   42.7650 H   0  0  0  0  0  0  0  0  0  0  0  0
  1  8  1  0  0  0  0
  1  9  1  1  0  0  0
  2 13  1  6  0  0  0
  2  1  1  0  0  0  0
  3  5  1  0  0  0  0
  3  2  1  0  0  0  0
  4  3  1  0  0  0  0
  5  6  1  0  0  0  0
  6  7  1  0  0  0  0
  6  8  1  0  0  0  0
  8 11  1  1  0  0  0
  9 10  1  0  0  0  0
 11 12  1  0  0  0  0
 14 19  1  0  0  0  0
 15 14  2  0  0  0  0
 15 16  1  0  0  0  0
 16 17  2  0  0  0  0
 17 18  1  0  0  0  0
 18 13  1  0  0  0  0
 19 18  2  0  0  0  0
 20 14  1  0  0  0  0
 21 15  1  0  0  0  0
 22 16  1  0  0  0  0
M  END
>  <minimizedAffinity>
-4.71778393

>  <minimizedRMSD>
1.17103159

$$$$
