
 OpenBabel03252504263D

 25 26  0  0  1  0  0  0  0  0999 V2000
   42.6150   35.4370   40.8410 O   0  0  0  0  0  0  0  0  0  0  0  0
   40.9900   34.9450   39.2060 C   0  0  2  0  0  3  0  0  0  0  0  0
   41.5820   34.5950   40.5310 C   0  0  2  0  0  3  0  0  0  0  0  0
   40.4610   34.5660   41.5390 C   0  0  0  0  0  3  0  0  0  0  0  0
   40.7960   34.4030   42.5640 H   0  0  0  0  0  0  0  0  0  0  0  0
   39.6790   33.4760   41.1580 O   0  0  0  0  0  0  0  0  0  0  0  0
   38.9030   33.8440   40.0990 C   0  0  0  0  0  3  0  0  0  0  0  0
   37.9340   34.2270   40.5080 H   0  0  0  0  0  0  0  0  0  0  0  0
   39.5110   34.7670   39.1120 C   0  0  2  0  0  3  0  0  0  0  0  0
   41.6420   34.1860   38.2310 O   0  0  0  0  0  0  0  0  0  0  0  0
   41.7840   34.6800   37.4010 H   0  0  0  0  0  0  0  0  0  0  0  0
   39.1670   34.4380   37.7990 O   0  0  0  0  0  0  0  0  0  0  0  0
   38.8490   33.5200   37.6890 H   0  0  0  0  0  0  0  0  0  0  0  0
   43.8430   34.8030   40.9440 C   0  0  0  0  0  0  0  0  0  0  0  0
   44.6250   35.2740   40.3280 H   0  0  0  0  0  0  0  0  0  0  0  0
   43.6610   33.7650   40.5350 H   0  0  0  0  0  0  0  0  0  0  0  0
   44.2090   35.7760   43.1060 C   0  0  0  0  0  0  0  0  0  0  0  0
   44.3060   34.6430   42.3230 C   0  0  0  0  0  0  0  0  0  0  0  0
   44.8240   33.4970   42.9160 C   0  0  0  0  0  0  0  0  0  0  0  0
   45.1860   33.5830   44.2020 N   0  0  0  0  0  0  0  0  0  0  0  0
   45.0890   34.6830   44.9570 C   0  0  0  0  0  0  0  0  0  0  0  0
   44.5840   35.8490   44.4250 N   0  0  0  0  0  0  0  0  0  0  0  0
   43.8180   36.7220   42.7390 H   0  0  0  0  0  0  0  0  0  0  0  0
   44.8850   32.6420   42.2820 H   0  0  0  0  0  0  0  0  0  0  0  0
   45.4230   34.6010   45.9830 H   0  0  0  0  0  0  0  0  0  0  0  0
  1 14  1  0  0  0  0
  2 10  1  6  0  0  0
  2  3  1  0  0  0  0
  3  1  1  1  0  0  0
  3  4  1  0  0  0  0
  4  5  1  0  0  0  0
  6  4  1  0  0  0  0
  7  8  1  0  0  0  0
  7  6  1  0  0  0  0
  9 12  1  6  0  0  0
  9  2  1  0  0  0  0
  9  7  1  0  0  0  0
 11 10  1  0  0  0  0
 13 12  1  0  0  0  0
 14 18  1  0  0  0  0
 15 14  1  0  0  0  0
 16 14  1  0  0  0  0
 17 22  1  0  0  0  0
 18 19  1  0  0  0  0
 18 17  2  0  0  0  0
 19 20  2  0  0  0  0
 20 21  1  0  0  0  0
 21 25  1  0  0  0  0
 22 21  2  0  0  0  0
 23 17  1  0  0  0  0
 24 19  1  0  0  0  0
M  END
>  <minimizedAffinity>
-4.54765701

>  <minimizedRMSD>
2.48470283

$$$$
