
 OpenBabel03252504263D

 25 26  0  0  1  0  0  0  0  0999 V2000
   43.0250   35.1970   41.9800 O   0  0  0  0  0  0  0  0  0  0  0  0
   40.9310   35.1580   40.8950 C   0  0  2  0  0  3  0  0  0  0  0  0
   42.4140   35.2640   40.7560 C   0  0  2  0  0  3  0  0  0  0  0  0
   42.8580   34.2180   39.7660 C   0  0  0  0  0  3  0  0  0  0  0  0
   43.9410   34.1520   39.6520 H   0  0  0  0  0  0  0  0  0  0  0  0
   42.3180   34.6400   38.5500 O   0  0  0  0  0  0  0  0  0  0  0  0
   40.9960   34.3060   38.5210 C   0  0  0  0  0  3  0  0  0  0  0  0
   40.9150   33.2910   38.0550 H   0  0  0  0  0  0  0  0  0  0  0  0
   40.2520   34.4080   39.7970 C   0  0  2  0  0  3  0  0  0  0  0  0
   40.4150   36.4500   41.0050 O   0  0  0  0  0  0  0  0  0  0  0  0
   39.6680   36.5060   41.6320 H   0  0  0  0  0  0  0  0  0  0  0  0
   38.9630   34.9200   39.6190 O   0  0  0  0  0  0  0  0  0  0  0  0
   38.8410   35.4020   38.7790 H   0  0  0  0  0  0  0  0  0  0  0  0
   44.2230   35.8910   42.0470 C   0  0  0  0  0  0  0  0  0  0  0  0
   44.1240   36.8770   42.5270 H   0  0  0  0  0  0  0  0  0  0  0  0
   44.5130   36.0610   40.9670 H   0  0  0  0  0  0  0  0  0  0  0  0
   44.9740   34.4930   43.8460 C   0  0  0  0  0  0  0  0  0  0  0  0
   45.3080   35.1290   42.6660 C   0  0  0  0  0  0  0  0  0  0  0  0
   46.6100   34.9790   42.2040 C   0  0  0  0  0  0  0  0  0  0  0  0
   47.4390   34.2290   42.9400 N   0  0  0  0  0  0  0  0  0  0  0  0
   47.1110   33.6140   44.0820 C   0  0  0  0  0  0  0  0  0  0  0  0
   45.8350   33.7250   44.5910 N   0  0  0  0  0  0  0  0  0  0  0  0
   43.9840   34.5460   44.2910 H   0  0  0  0  0  0  0  0  0  0  0  0
   46.8320   35.4840   41.2920 H   0  0  0  0  0  0  0  0  0  0  0  0
   47.8900   33.0410   44.5680 H   0  0  0  0  0  0  0  0  0  0  0  0
  1 14  1  0  0  0  0
  2 10  1  6  0  0  0
  3  2  1  0  0  0  0
  3  1  1  1  0  0  0
  4  3  1  0  0  0  0
  5  4  1  0  0  0  0
  6  4  1  0  0  0  0
  7  6  1  0  0  0  0
  7  9  1  0  0  0  0
  8  7  1  0  0  0  0
  9 12  1  6  0  0  0
  9  2  1  0  0  0  0
 10 11  1  0  0  0  0
 13 12  1  0  0  0  0
 14 15  1  0  0  0  0
 14 18  1  0  0  0  0
 16 14  1  0  0  0  0
 17 23  1  0  0  0  0
 17 22  1  0  0  0  0
 18 17  2  0  0  0  0
 19 18  1  0  0  0  0
 19 20  2  0  0  0  0
 20 21  1  0  0  0  0
 21 25  1  0  0  0  0
 21 22  2  0  0  0  0
 24 19  1  0  0  0  0
M  END
>  <minimizedAffinity>
-4.31461573

>  <minimizedRMSD>
1.93766224

$$$$
