
 OpenBabel03242517503D

 22 23  0  0  1  0  0  0  0  0999 V2000
   46.0450   31.1790   46.5620 C   0  0  1  0  0  3  0  0  0  0  0  0
   45.4940   32.0430   47.6490 C   0  0  1  0  0  3  0  0  0  0  0  0
   46.5070   32.1290   48.7780 C   0  0  0  0  0  3  0  0  0  0  0  0
   46.2140   31.4990   49.6600 H   0  0  0  0  0  0  0  0  0  0  0  0
   47.7890   31.8590   48.3430 O   0  0  0  0  0  0  0  0  0  0  0  0
   47.9590   30.5420   47.9400 C   0  0  0  0  0  3  0  0  0  0  0  0
   48.8100   30.5260   47.2240 H   0  0  0  0  0  0  0  0  0  0  0  0
   46.7540   30.0050   47.2070 C   0  0  2  0  0  3  0  0  0  0  0  0
   45.0420   30.7410   45.7010 O   0  0  0  0  0  0  0  0  0  0  0  0
   45.4430   30.1700   44.9960 H   0  0  0  0  0  0  0  0  0  0  0  0
   47.1470   29.1540   46.1510 O   0  0  0  0  0  0  0  0  0  0  0  0
   46.6400   28.3080   46.2450 H   0  0  0  0  0  0  0  0  0  0  0  0
   45.2030   33.3430   47.1340 O   0  0  0  0  0  0  0  0  0  0  0  0
   45.4310   34.7760   43.8790 C   0  0  0  0  0  0  0  0  0  0  0  0
   46.6490   34.2580   43.3680 C   0  0  0  0  0  0  0  0  0  0  0  0
   47.3950   33.3870   44.1990 C   0  0  0  0  0  0  0  0  0  0  0  0
   46.8810   33.1160   45.4260 N   0  0  0  0  0  0  0  0  0  0  0  0
   45.7210   33.6290   45.8720 C   0  0  0  0  0  0  0  0  0  0  0  0
   45.0140   34.4480   45.0970 N   0  0  0  0  0  0  0  0  0  0  0  0
   44.9320   35.4200   43.1960 H   0  0  0  0  0  0  0  0  0  0  0  0
   47.0550   34.4800   42.3820 H   0  0  0  0  0  0  0  0  0  0  0  0
   48.3280   32.9690   43.8520 H   0  0  0  0  0  0  0  0  0  0  0  0
  1  9  1  6  0  0  0
  1  8  1  0  0  0  0
  1  2  1  0  0  0  0
  2 13  1  6  0  0  0
  2  3  1  0  0  0  0
  3  4  1  0  0  0  0
  5  3  1  0  0  0  0
  6  5  1  0  0  0  0
  7  6  1  0  0  0  0
  8 11  1  6  0  0  0
  8  6  1  0  0  0  0
 10  9  1  0  0  0  0
 11 12  1  0  0  0  0
 14 19  1  0  0  0  0
 15 14  2  0  0  0  0
 15 16  1  0  0  0  0
 16 17  2  0  0  0  0
 17 18  1  0  0  0  0
 18 13  1  0  0  0  0
 19 18  2  0  0  0  0
 20 14  1  0  0  0  0
 21 15  1  0  0  0  0
 22 16  1  0  0  0  0
M  END
>  <minimizedAffinity>
-4.10638237

>  <minimizedRMSD>
1.42216468

$$$$
