
 OpenBabel03242517503D

 22 23  0  0  1  0  0  0  0  0999 V2000
   45.6810   30.8120   47.2290 C   0  0  1  0  0  3  0  0  0  0  0  0
   45.7830   32.2680   47.5510 C   0  0  1  0  0  3  0  0  0  0  0  0
   47.1890   32.5730   48.0400 C   0  0  0  0  0  3  0  0  0  0  0  0
   47.2290   32.7170   49.1530 H   0  0  0  0  0  0  0  0  0  0  0  0
   48.1020   31.6340   47.6000 O   0  0  0  0  0  0  0  0  0  0  0  0
   47.8990   30.3780   48.1520 C   0  0  0  0  0  3  0  0  0  0  0  0
   48.3420   29.6360   47.4520 H   0  0  0  0  0  0  0  0  0  0  0  0
   46.4360   30.0390   48.2920 C   0  0  2  0  0  3  0  0  0  0  0  0
   44.3530   30.3970   47.1600 O   0  0  0  0  0  0  0  0  0  0  0  0
   44.3260   29.4290   46.9480 H   0  0  0  0  0  0  0  0  0  0  0  0
   46.2090   28.6730   48.0190 O   0  0  0  0  0  0  0  0  0  0  0  0
   45.6860   28.3020   48.7750 H   0  0  0  0  0  0  0  0  0  0  0  0
   45.4740   33.0440   46.3930 O   0  0  0  0  0  0  0  0  0  0  0  0
   47.6740   33.1070   43.5900 C   0  0  0  0  0  0  0  0  0  0  0  0
   47.3410   31.9290   42.8740 C   0  0  0  0  0  0  0  0  0  0  0  0
   46.3170   31.1040   43.4010 C   0  0  0  0  0  0  0  0  0  0  0  0
   45.7340   31.5110   44.5580 N   0  0  0  0  0  0  0  0  0  0  0  0
   46.0800   32.6360   45.2060 C   0  0  0  0  0  0  0  0  0  0  0  0
   47.0410   33.4170   44.7170 N   0  0  0  0  0  0  0  0  0  0  0  0
   48.4490   33.6700   43.1300 H   0  0  0  0  0  0  0  0  0  0  0  0
   47.8140   31.6100   41.9460 H   0  0  0  0  0  0  0  0  0  0  0  0
   46.0300   30.1970   42.8910 H   0  0  0  0  0  0  0  0  0  0  0  0
  1  9  1  1  0  0  0
  1  2  1  0  0  0  0
  1  8  1  0  0  0  0
  2 13  1  6  0  0  0
  2  3  1  0  0  0  0
  3  4  1  0  0  0  0
  5  3  1  0  0  0  0
  5  6  1  0  0  0  0
  6  8  1  0  0  0  0
  7  6  1  0  0  0  0
  8 11  1  6  0  0  0
 10  9  1  0  0  0  0
 11 12  1  0  0  0  0
 14 19  1  0  0  0  0
 15 16  1  0  0  0  0
 15 14  2  0  0  0  0
 16 17  2  0  0  0  0
 17 18  1  0  0  0  0
 18 13  1  0  0  0  0
 19 18  2  0  0  0  0
 20 14  1  0  0  0  0
 21 15  1  0  0  0  0
 22 16  1  0  0  0  0
M  END
>  <minimizedAffinity>
-3.47115278

>  <minimizedRMSD>
2.51634717

$$$$
