
 OpenBabel03242517503D

 22 23  0  0  1  0  0  0  0  0999 V2000
   46.0680   31.2110   46.3430 C   0  0  1  0  0  3  0  0  0  0  0  0
   45.5620   32.2550   47.2840 C   0  0  1  0  0  3  0  0  0  0  0  0
   46.4990   32.3480   48.4760 C   0  0  0  0  0  3  0  0  0  0  0  0
   46.0700   31.8630   49.3930 H   0  0  0  0  0  0  0  0  0  0  0  0
   47.7610   31.8770   48.1770 O   0  0  0  0  0  0  0  0  0  0  0  0
   47.7870   30.5130   47.9290 C   0  0  0  0  0  3  0  0  0  0  0  0
   48.6770   30.3110   47.2910 H   0  0  0  0  0  0  0  0  0  0  0  0
   46.5750   30.0430   47.1630 C   0  0  2  0  0  3  0  0  0  0  0  0
   45.0760   30.8020   45.4540 O   0  0  0  0  0  0  0  0  0  0  0  0
   45.4470   30.1100   44.8490 H   0  0  0  0  0  0  0  0  0  0  0  0
   46.9260   29.0360   46.2380 O   0  0  0  0  0  0  0  0  0  0  0  0
   46.3090   28.2730   46.3800 H   0  0  0  0  0  0  0  0  0  0  0  0
   45.4740   33.5120   46.6130 O   0  0  0  0  0  0  0  0  0  0  0  0
   45.3690   33.9070   43.0730 C   0  0  0  0  0  0  0  0  0  0  0  0
   46.6900   33.5970   42.6590 C   0  0  0  0  0  0  0  0  0  0  0  0
   47.6280   33.2430   43.6600 C   0  0  0  0  0  0  0  0  0  0  0  0
   47.1820   33.2290   44.9430 N   0  0  0  0  0  0  0  0  0  0  0  0
   45.9200   33.5300   45.2920 C   0  0  0  0  0  0  0  0  0  0  0  0
   45.0330   33.8630   44.3570 N   0  0  0  0  0  0  0  0  0  0  0  0
   44.7270   34.1620   42.2640 H   0  0  0  0  0  0  0  0  0  0  0  0
   47.0390   33.6100   41.6280 H   0  0  0  0  0  0  0  0  0  0  0  0
   48.6450   32.9990   43.3940 H   0  0  0  0  0  0  0  0  0  0  0  0
  1  9  1  6  0  0  0
  1  8  1  0  0  0  0
  1  2  1  0  0  0  0
  2 13  1  6  0  0  0
  2  3  1  0  0  0  0
  3  4  1  0  0  0  0
  5  3  1  0  0  0  0
  6  5  1  0  0  0  0
  7  6  1  0  0  0  0
  8 11  1  6  0  0  0
  8  6  1  0  0  0  0
 10  9  1  0  0  0  0
 11 12  1  0  0  0  0
 14 19  1  0  0  0  0
 15 14  2  0  0  0  0
 15 16  1  0  0  0  0
 16 17  2  0  0  0  0
 17 18  1  0  0  0  0
 18 13  1  0  0  0  0
 19 18  2  0  0  0  0
 20 14  1  0  0  0  0
 21 15  1  0  0  0  0
 22 16  1  0  0  0  0
M  END
>  <minimizedAffinity>
-3.63833737

>  <minimizedRMSD>
1.57753325

$$$$
