
 OpenBabel03242517503D

 22 23  0  0  1  0  0  0  0  0999 V2000
   46.0460   31.1790   46.5630 C   0  0  1  0  0  3  0  0  0  0  0  0
   45.4940   32.0430   47.6500 C   0  0  1  0  0  3  0  0  0  0  0  0
   46.5070   32.1300   48.7790 C   0  0  0  0  0  3  0  0  0  0  0  0
   46.2130   31.4990   49.6610 H   0  0  0  0  0  0  0  0  0  0  0  0
   47.7880   31.8590   48.3440 O   0  0  0  0  0  0  0  0  0  0  0  0
   47.9580   30.5430   47.9410 C   0  0  0  0  0  3  0  0  0  0  0  0
   48.8110   30.5250   47.2260 H   0  0  0  0  0  0  0  0  0  0  0  0
   46.7530   30.0050   47.2080 C   0  0  2  0  0  3  0  0  0  0  0  0
   45.0420   30.7410   45.7010 O   0  0  0  0  0  0  0  0  0  0  0  0
   45.4430   30.1700   44.9970 H   0  0  0  0  0  0  0  0  0  0  0  0
   47.1470   29.1550   46.1520 O   0  0  0  0  0  0  0  0  0  0  0  0
   46.6400   28.3080   46.2470 H   0  0  0  0  0  0  0  0  0  0  0  0
   45.2030   33.3430   47.1340 O   0  0  0  0  0  0  0  0  0  0  0  0
   45.4320   34.7750   43.8790 C   0  0  0  0  0  0  0  0  0  0  0  0
   46.6500   34.2570   43.3680 C   0  0  0  0  0  0  0  0  0  0  0  0
   47.3960   33.3860   44.1990 C   0  0  0  0  0  0  0  0  0  0  0  0
   46.8810   33.1160   45.4260 N   0  0  0  0  0  0  0  0  0  0  0  0
   45.7210   33.6290   45.8720 C   0  0  0  0  0  0  0  0  0  0  0  0
   45.0140   34.4470   45.0970 N   0  0  0  0  0  0  0  0  0  0  0  0
   44.9330   35.4190   43.1950 H   0  0  0  0  0  0  0  0  0  0  0  0
   47.0560   34.4790   42.3820 H   0  0  0  0  0  0  0  0  0  0  0  0
   48.3290   32.9680   43.8530 H   0  0  0  0  0  0  0  0  0  0  0  0
  1  9  1  6  0  0  0
  1  8  1  0  0  0  0
  1  2  1  0  0  0  0
  2 13  1  6  0  0  0
  2  3  1  0  0  0  0
  3  4  1  0  0  0  0
  5  3  1  0  0  0  0
  6  5  1  0  0  0  0
  7  6  1  0  0  0  0
  8 11  1  6  0  0  0
  8  6  1  0  0  0  0
 10  9  1  0  0  0  0
 11 12  1  0  0  0  0
 14 19  1  0  0  0  0
 15 14  2  0  0  0  0
 15 16  1  0  0  0  0
 16 17  2  0  0  0  0
 17 18  1  0  0  0  0
 18 13  1  0  0  0  0
 19 18  2  0  0  0  0
 20 14  1  0  0  0  0
 21 15  1  0  0  0  0
 22 16  1  0  0  0  0
M  END
>  <minimizedAffinity>
-4.10582924

>  <minimizedRMSD>
1.36431181

$$$$
