
 OpenBabel03252507103D

 39 41  0  0  1  0  0  0  0  0999 V2000
   36.0190   28.6070   41.1020 C   0  0  0  0  0  0  0  0  0  0  0  0
   36.5480   29.9140   41.1680 C   0  0  0  0  0  0  0  0  0  0  0  0
   37.9120   30.0370   41.4470 C   0  0  0  0  0  0  0  0  0  0  0  0
   38.6420   28.9230   41.6370 N   0  0  0  0  0  0  0  0  0  0  0  0
   38.1190   27.6930   41.5710 C   0  0  0  0  0  0  0  0  0  0  0  0
   36.7950   27.5410   41.3000 N   0  0  0  0  0  0  0  0  0  0  0  0
   34.9590   28.4550   40.8870 H   0  0  0  0  0  0  0  0  0  0  0  0
   35.8610   30.7360   40.9970 H   0  0  0  0  0  0  0  0  0  0  0  0
   39.3950   26.2400   43.1700 C   0  0  1  0  0  0  0  0  0  0  0  0
   38.8760   26.4440   41.7790 C   0  0  1  0  0  0  0  0  0  0  0  0
   37.9150   25.2400   41.7080 C   0  0  0  0  0  0  0  0  0  0  0  0
   38.4450   24.2620   42.4850 O   0  0  0  0  0  0  0  0  0  0  0  0
   39.5880   24.7320   43.1290 C   0  0  0  0  0  0  0  0  0  0  0  0
   38.6370   26.4780   43.9440 H   0  0  0  0  0  0  0  0  0  0  0  0
   39.6540   26.3630   41.0250 H   0  0  0  0  0  0  0  0  0  0  0  0
   37.9210   24.9150   40.6480 H   0  0  0  0  0  0  0  0  0  0  0  0
   36.8780   25.5430   41.9500 H   0  0  0  0  0  0  0  0  0  0  0  0
   40.4860   24.4350   42.5890 H   0  0  0  0  0  0  0  0  0  0  0  0
   39.5340   24.3810   44.1810 H   0  0  0  0  0  0  0  0  0  0  0  0
   40.5180   26.9540   43.4710 O   0  0  0  0  0  0  0  0  0  0  0  0
   41.2960   26.3100   43.4470 H   0  0  0  0  0  0  0  0  0  0  0  0
   38.4060   31.3230   41.5050 O   0  0  0  0  0  0  0  0  0  0  0  0
   38.4750   31.4550   38.8480 O   0  0  0  0  0  0  0  0  0  0  0  0
   38.4010   32.3000   40.1070 P   0  0  1  0  0  0  0  0  0  0  0  0
   37.0290   33.2590   40.1380 O   0  0  0  0  0  0  0  0  0  0  0  0
   37.0710   33.7800   40.9830 H   0  0  0  0  0  0  0  0  0  0  0  0
   39.8100   33.2610   40.1930 O   0  0  0  0  0  0  0  0  0  0  0  0
   41.0230   33.3890   38.1330 C   0  0  1  0  0  3  0  0  0  0  0  0
   40.7800   32.6090   39.4310 C   0  0  1  0  0  3  0  0  0  0  0  0
   42.0840   32.4200   40.1350 C   0  0  0  0  0  3  0  0  0  0  0  0
   42.6460   31.6280   39.5830 H   0  0  0  0  0  0  0  0  0  0  0  0
   42.9010   33.5430   40.1430 O   0  0  0  0  0  0  0  0  0  0  0  0
   43.3650   33.8440   38.8780 C   0  0  0  0  0  3  0  0  0  0  0  0
   43.3110   34.9450   38.7480 H   0  0  0  0  0  0  0  0  0  0  0  0
   42.4900   33.2640   37.7800 C   0  0  2  0  0  3  0  0  0  0  0  0
   40.2900   32.8540   37.0760 O   0  0  0  0  0  0  0  0  0  0  0  0
   40.3990   31.8690   37.0500 H   0  0  0  0  0  0  0  0  0  0  0  0
   42.7000   33.9140   36.5800 O   0  0  0  0  0  0  0  0  0  0  0  0
   42.6900   34.8930   36.7510 H   0  0  0  0  0  0  0  0  0  0  0  0
  1  2  2  0  0  0  0
  1  6  1  0  0  0  0
  2  3  1  0  0  0  0
  3 22  1  0  0  0  0
  3  4  2  0  0  0  0
  5  4  1  0  0  0  0
  5 10  1  0  0  0  0
  6  5  2  0  0  0  0
  7  1  1  0  0  0  0
  8  2  1  0  0  0  0
  9 20  1  0  0  0  0
  9 14  1  1  0  0  0
 10 15  1  6  0  0  0
 10  9  1  0  0  0  0
 11 10  1  0  0  0  0
 11 17  1  0  0  0  0
 11 12  1  0  0  0  0
 12 13  1  0  0  0  0
 13  9  1  0  0  0  0
 13 19  1  0  0  0  0
 16 11  1  0  0  0  0
 18 13  1  0  0  0  0
 21 20  1  0  0  0  0
 24 23  2  6  0  0  0
 24 25  1  0  0  0  0
 24 27  1  0  0  0  0
 24 22  1  0  0  0  0
 25 26  1  0  0  0  0
 28 36  1  6  0  0  0
 28 29  1  0  0  0  0
 29 30  1  0  0  0  0
 29 27  1  1  0  0  0
 30 32  1  0  0  0  0
 31 30  1  0  0  0  0
 33 32  1  0  0  0  0
 34 33  1  0  0  0  0
 35 38  1  6  0  0  0
 35 28  1  0  0  0  0
 35 33  1  0  0  0  0
 37 36  1  0  0  0  0
 38 39  1  0  0  0  0
M  END
>  <minimizedAffinity>
-6.19565916

$$$$

 OpenBabel03252507103D

 39 41  0  0  1  0  0  0  0  0999 V2000
   39.0330   28.0490   43.3030 C   0  0  0  0  0  0  0  0  0  0  0  0
   38.4150   29.2630   42.9320 C   0  0  0  0  0  0  0  0  0  0  0  0
   37.3010   29.1820   42.0900 C   0  0  0  0  0  0  0  0  0  0  0  0
   36.8800   27.9710   41.6800 N   0  0  0  0  0  0  0  0  0  0  0  0
   37.4820   26.8330   42.0430 C   0  0  0  0  0  0  0  0  0  0  0  0
   38.5680   26.8790   42.8620 N   0  0  0  0  0  0  0  0  0  0  0  0
   39.9060   28.0560   43.9580 H   0  0  0  0  0  0  0  0  0  0  0  0
   38.8440   30.1780   43.3260 H   0  0  0  0  0  0  0  0  0  0  0  0
   37.2030   25.2140   40.1470 C   0  0  1  0  0  0  0  0  0  0  0  0
   37.0640   25.4850   41.6140 C   0  0  1  0  0  0  0  0  0  0  0  0
   38.0680   24.4400   42.1420 C   0  0  0  0  0  0  0  0  0  0  0  0
   38.0500   23.3980   41.2730 O   0  0  0  0  0  0  0  0  0  0  0  0
   37.2250   23.6940   40.1910 C   0  0  0  0  0  0  0  0  0  0  0  0
   38.1730   25.5690   39.7410 H   0  0  0  0  0  0  0  0  0  0  0  0
   36.0630   25.2830   41.9850 H   0  0  0  0  0  0  0  0  0  0  0  0
   37.6680   24.1110   43.1230 H   0  0  0  0  0  0  0  0  0  0  0  0
   39.0570   24.8980   42.3310 H   0  0  0  0  0  0  0  0  0  0  0  0
   36.2350   23.2610   40.3300 H   0  0  0  0  0  0  0  0  0  0  0  0
   37.7580   23.3610   39.2760 H   0  0  0  0  0  0  0  0  0  0  0  0
   36.2180   25.7510   39.3710 O   0  0  0  0  0  0  0  0  0  0  0  0
   35.5990   24.9970   39.1090 H   0  0  0  0  0  0  0  0  0  0  0  0
   36.7150   30.3810   41.7440 O   0  0  0  0  0  0  0  0  0  0  0  0
   36.3480   30.3870   39.1070 O   0  0  0  0  0  0  0  0  0  0  0  0
   37.0720   31.0970   40.2370 P   0  0  1  0  0  0  0  0  0  0  0  0
   36.6680   32.7200   40.3170 O   0  0  0  0  0  0  0  0  0  0  0  0
   37.1920   33.1030   41.0700 H   0  0  0  0  0  0  0  0  0  0  0  0
   38.7520   30.9050   40.0060 O   0  0  0  0  0  0  0  0  0  0  0  0
   40.0430   32.7620   40.7900 C   0  0  1  0  0  3  0  0  0  0  0  0
   39.2440   32.1560   39.6310 C   0  0  1  0  0  3  0  0  0  0  0  0
   40.1040   32.1330   38.4090 C   0  0  0  0  0  3  0  0  0  0  0  0
   40.1610   33.1810   38.0250 H   0  0  0  0  0  0  0  0  0  0  0  0
   41.4130   31.7300   38.6340 O   0  0  0  0  0  0  0  0  0  0  0  0
   42.1090   32.6550   39.3860 C   0  0  0  0  0  3  0  0  0  0  0  0
   42.7190   32.1010   40.1290 H   0  0  0  0  0  0  0  0  0  0  0  0
   41.1950   33.5520   40.2030 C   0  0  2  0  0  3  0  0  0  0  0  0
   39.2650   33.6460   41.5350 O   0  0  0  0  0  0  0  0  0  0  0  0
   38.7850   34.2690   40.9310 H   0  0  0  0  0  0  0  0  0  0  0  0
   41.8810   34.1490   41.2430 O   0  0  0  0  0  0  0  0  0  0  0  0
   42.4210   33.4510   41.6990 H   0  0  0  0  0  0  0  0  0  0  0  0
  1  7  1  0  0  0  0
  2  1  1  0  0  0  0
  2  8  1  0  0  0  0
  3  2  2  0  0  0  0
  4  5  2  0  0  0  0
  4  3  1  0  0  0  0
  5  6  1  0  0  0  0
  6  1  2  0  0  0  0
  9 14  1  6  0  0  0
  9 13  1  0  0  0  0
  9 10  1  0  0  0  0
 10 15  1  1  0  0  0
 10  5  1  0  0  0  0
 10 11  1  0  0  0  0
 11 17  1  0  0  0  0
 11 16  1  0  0  0  0
 12 11  1  0  0  0  0
 13 18  1  0  0  0  0
 13 12  1  0  0  0  0
 19 13  1  0  0  0  0
 20  9  1  0  0  0  0
 21 20  1  0  0  0  0
 22  3  1  0  0  0  0
 24 23  2  6  0  0  0
 24 25  1  0  0  0  0
 24 22  1  0  0  0  0
 25 26  1  0  0  0  0
 27 24  1  0  0  0  0
 28 36  1  6  0  0  0
 29 27  1  1  0  0  0
 29 28  1  0  0  0  0
 30 32  1  0  0  0  0
 30 29  1  0  0  0  0
 31 30  1  0  0  0  0
 32 33  1  0  0  0  0
 33 34  1  0  0  0  0
 33 35  1  0  0  0  0
 35 28  1  0  0  0  0
 35 38  1  1  0  0  0
 37 36  1  0  0  0  0
 38 39  1  0  0  0  0
M  END
>  <minimizedAffinity>
-6.05515289

$$$$

 OpenBabel03252507103D

 39 41  0  0  1  0  0  0  0  0999 V2000
   36.1530   27.7600   40.0720 C   0  0  0  0  0  0  0  0  0  0  0  0
   35.9860   29.1580   39.9860 C   0  0  0  0  0  0  0  0  0  0  0  0
   36.6430   29.9400   40.9410 C   0  0  0  0  0  0  0  0  0  0  0  0
   37.3890   29.3310   41.8810 N   0  0  0  0  0  0  0  0  0  0  0  0
   37.5330   28.0020   41.9440 C   0  0  0  0  0  0  0  0  0  0  0  0
   36.9060   27.2150   41.0280 N   0  0  0  0  0  0  0  0  0  0  0  0
   35.6610   27.1030   39.3500 H   0  0  0  0  0  0  0  0  0  0  0  0
   35.3600   29.5350   39.1840 H   0  0  0  0  0  0  0  0  0  0  0  0
   38.8900   25.9710   42.5150 C   0  0  1  0  0  0  0  0  0  0  0  0
   38.3330   27.2890   42.9580 C   0  0  1  0  0  0  0  0  0  0  0  0
   39.6600   28.0400   43.1900 C   0  0  0  0  0  0  0  0  0  0  0  0
   40.5750   27.1170   43.5800 O   0  0  0  0  0  0  0  0  0  0  0  0
   40.0180   25.8410   43.5290 C   0  0  0  0  0  0  0  0  0  0  0  0
   39.3340   26.0180   41.4990 H   0  0  0  0  0  0  0  0  0  0  0  0
   37.7630   27.2150   43.8800 H   0  0  0  0  0  0  0  0  0  0  0  0
   39.4640   28.7420   44.0260 H   0  0  0  0  0  0  0  0  0  0  0  0
   39.9320   28.6510   42.3090 H   0  0  0  0  0  0  0  0  0  0  0  0
   39.6670   25.5320   44.5130 H   0  0  0  0  0  0  0  0  0  0  0  0
   40.7760   25.1740   43.0700 H   0  0  0  0  0  0  0  0  0  0  0  0
   37.9950   24.9420   42.5180 O   0  0  0  0  0  0  0  0  0  0  0  0
   38.1970   24.3740   43.3290 H   0  0  0  0  0  0  0  0  0  0  0  0
   36.4660   31.3030   40.8360 O   0  0  0  0  0  0  0  0  0  0  0  0
   36.9630   31.7680   38.2630 O   0  0  0  0  0  0  0  0  0  0  0  0
   37.3440   32.1880   39.6710 P   0  0  1  0  0  0  0  0  0  0  0  0
   37.0730   33.8190   39.9330 O   0  0  0  0  0  0  0  0  0  0  0  0
   37.3590   34.0040   40.8670 H   0  0  0  0  0  0  0  0  0  0  0  0
   38.9880   31.8030   39.9220 O   0  0  0  0  0  0  0  0  0  0  0  0
   40.3980   31.7120   37.9890 C   0  0  1  0  0  3  0  0  0  0  0  0
   39.3680   30.9820   38.8590 C   0  0  1  0  0  3  0  0  0  0  0  0
   39.9340   29.6630   39.2780 C   0  0  0  0  0  3  0  0  0  0  0  0
   39.8900   28.9880   38.3890 H   0  0  0  0  0  0  0  0  0  0  0  0
   41.2650   29.7070   39.6680 O   0  0  0  0  0  0  0  0  0  0  0  0
   42.0990   29.9870   38.6040 C   0  0  0  0  0  3  0  0  0  0  0  0
   42.8670   30.7080   38.9540 H   0  0  0  0  0  0  0  0  0  0  0  0
   41.3790   30.6850   37.4630 C   0  0  2  0  0  3  0  0  0  0  0  0
   39.7940   32.3170   36.8890 O   0  0  0  0  0  0  0  0  0  0  0  0
   39.1830   31.6770   36.4410 H   0  0  0  0  0  0  0  0  0  0  0  0
   42.2720   31.3300   36.6310 O   0  0  0  0  0  0  0  0  0  0  0  0
   42.9090   31.8420   37.1960 H   0  0  0  0  0  0  0  0  0  0  0  0
  1  6  1  0  0  0  0
  2  1  2  0  0  0  0
  2  3  1  0  0  0  0
  3  4  2  0  0  0  0
  4  5  1  0  0  0  0
  5 10  1  0  0  0  0
  6  5  2  0  0  0  0
  7  1  1  0  0  0  0
  8  2  1  0  0  0  0
  9 14  1  6  0  0  0
  9 20  1  0  0  0  0
  9 10  1  0  0  0  0
  9 13  1  0  0  0  0
 10 11  1  0  0  0  0
 10 15  1  1  0  0  0
 11 12  1  0  0  0  0
 11 16  1  0  0  0  0
 13 12  1  0  0  0  0
 13 18  1  0  0  0  0
 17 11  1  0  0  0  0
 19 13  1  0  0  0  0
 20 21  1  0  0  0  0
 22  3  1  0  0  0  0
 24 23  2  6  0  0  0
 24 27  1  0  0  0  0
 24 25  1  0  0  0  0
 24 22  1  0  0  0  0
 25 26  1  0  0  0  0
 28 36  1  6  0  0  0
 28 29  1  0  0  0  0
 29 30  1  0  0  0  0
 29 27  1  1  0  0  0
 30 32  1  0  0  0  0
 31 30  1  0  0  0  0
 33 34  1  0  0  0  0
 33 32  1  0  0  0  0
 35 38  1  6  0  0  0
 35 28  1  0  0  0  0
 35 33  1  0  0  0  0
 37 36  1  0  0  0  0
 38 39  1  0  0  0  0
M  END
>  <minimizedAffinity>
-5.97832918

$$$$

 OpenBabel03252507103D

 39 41  0  0  1  0  0  0  0  0999 V2000
   38.6210   27.7260   43.4750 C   0  0  0  0  0  0  0  0  0  0  0  0
   38.0340   28.9670   43.1490 C   0  0  0  0  0  0  0  0  0  0  0  0
   37.2820   29.0290   41.9720 C   0  0  0  0  0  0  0  0  0  0  0  0
   37.1570   27.9200   41.2190 N   0  0  0  0  0  0  0  0  0  0  0  0
   37.7230   26.7540   41.5470 C   0  0  0  0  0  0  0  0  0  0  0  0
   38.4610   26.6620   42.6870 N   0  0  0  0  0  0  0  0  0  0  0  0
   39.2190   27.6240   44.3830 H   0  0  0  0  0  0  0  0  0  0  0  0
   38.2050   29.7910   43.8340 H   0  0  0  0  0  0  0  0  0  0  0  0
   37.0680   24.3320   41.4860 C   0  0  1  0  0  0  0  0  0  0  0  0
   37.6220   25.5150   40.7520 C   0  0  1  0  0  0  0  0  0  0  0  0
   36.5130   25.6730   39.6910 C   0  0  0  0  0  0  0  0  0  0  0  0
   36.0240   24.4320   39.4400 O   0  0  0  0  0  0  0  0  0  0  0  0
   36.6200   23.5040   40.2910 C   0  0  0  0  0  0  0  0  0  0  0  0
   36.1740   24.5900   42.0920 H   0  0  0  0  0  0  0  0  0  0  0  0
   38.5790   25.3080   40.2840 H   0  0  0  0  0  0  0  0  0  0  0  0
   37.0210   26.0610   38.7840 H   0  0  0  0  0  0  0  0  0  0  0  0
   35.7720   26.4340   39.9990 H   0  0  0  0  0  0  0  0  0  0  0  0
   37.4460   22.9980   39.7940 H   0  0  0  0  0  0  0  0  0  0  0  0
   35.8130   22.8360   40.6580 H   0  0  0  0  0  0  0  0  0  0  0  0
   37.9530   23.7090   42.3160 O   0  0  0  0  0  0  0  0  0  0  0  0
   38.2480   22.8600   41.8540 H   0  0  0  0  0  0  0  0  0  0  0  0
   36.7180   30.2510   41.6760 O   0  0  0  0  0  0  0  0  0  0  0  0
   36.9170   30.5040   39.0340 O   0  0  0  0  0  0  0  0  0  0  0  0
   37.2970   31.1560   40.3510 P   0  0  1  0  0  0  0  0  0  0  0  0
   36.6980   32.7150   40.4750 O   0  0  0  0  0  0  0  0  0  0  0  0
   37.0030   33.0630   41.3540 H   0  0  0  0  0  0  0  0  0  0  0  0
   38.9990   31.1540   40.4810 O   0  0  0  0  0  0  0  0  0  0  0  0
   39.8930   32.0940   38.4690 C   0  0  1  0  0  3  0  0  0  0  0  0
   39.4920   30.8180   39.2190 C   0  0  1  0  0  3  0  0  0  0  0  0
   40.6580   29.8840   39.2480 C   0  0  0  0  0  3  0  0  0  0  0  0
   40.7490   29.4390   38.2270 H   0  0  0  0  0  0  0  0  0  0  0  0
   41.8750   30.4930   39.5170 O   0  0  0  0  0  0  0  0  0  0  0  0
   42.2700   31.3220   38.4860 C   0  0  0  0  0  3  0  0  0  0  0  0
   42.6850   32.2490   38.9330 H   0  0  0  0  0  0  0  0  0  0  0  0
   41.1070   31.7760   37.6210 C   0  0  2  0  0  3  0  0  0  0  0  0
   38.8810   32.5170   37.6110 O   0  0  0  0  0  0  0  0  0  0  0  0
   38.5470   31.7530   37.0750 H   0  0  0  0  0  0  0  0  0  0  0  0
   41.4350   32.9060   36.8990 O   0  0  0  0  0  0  0  0  0  0  0  0
   41.8710   33.5520   37.5140 H   0  0  0  0  0  0  0  0  0  0  0  0
  1  7  1  0  0  0  0
  2  1  1  0  0  0  0
  2  8  1  0  0  0  0
  3  2  2  0  0  0  0
  4  5  2  0  0  0  0
  4  3  1  0  0  0  0
  5  6  1  0  0  0  0
  6  1  2  0  0  0  0
  9 14  1  1  0  0  0
  9 20  1  0  0  0  0
 10 15  1  6  0  0  0
 10  9  1  0  0  0  0
 10  5  1  0  0  0  0
 11 17  1  0  0  0  0
 11 10  1  0  0  0  0
 12 11  1  0  0  0  0
 12 13  1  0  0  0  0
 13 19  1  0  0  0  0
 13  9  1  0  0  0  0
 16 11  1  0  0  0  0
 18 13  1  0  0  0  0
 21 20  1  0  0  0  0
 22  3  1  0  0  0  0
 24 23  2  6  0  0  0
 24 25  1  0  0  0  0
 24 27  1  0  0  0  0
 24 22  1  0  0  0  0
 25 26  1  0  0  0  0
 28 36  1  6  0  0  0
 28 29  1  0  0  0  0
 29 30  1  0  0  0  0
 29 27  1  1  0  0  0
 30 32  1  0  0  0  0
 31 30  1  0  0  0  0
 33 34  1  0  0  0  0
 33 32  1  0  0  0  0
 35 38  1  1  0  0  0
 35 28  1  0  0  0  0
 35 33  1  0  0  0  0
 37 36  1  0  0  0  0
 38 39  1  0  0  0  0
M  END
>  <minimizedAffinity>
-5.9624362

$$$$

 OpenBabel03252507103D

 39 41  0  0  1  0  0  0  0  0999 V2000
   36.2710   25.8410   38.9480 C   0  0  0  0  0  0  0  0  0  0  0  0
   36.0060   27.2260   38.8930 C   0  0  0  0  0  0  0  0  0  0  0  0
   36.3800   27.9930   40.0000 C   0  0  0  0  0  0  0  0  0  0  0  0
   36.9630   27.3830   41.0490 N   0  0  0  0  0  0  0  0  0  0  0  0
   37.2040   26.0670   41.0800 C   0  0  0  0  0  0  0  0  0  0  0  0
   36.8520   25.2950   40.0160 N   0  0  0  0  0  0  0  0  0  0  0  0
   35.9980   25.1960   38.1090 H   0  0  0  0  0  0  0  0  0  0  0  0
   35.5300   27.6040   37.9940 H   0  0  0  0  0  0  0  0  0  0  0  0
   38.8590   24.3320   41.8190 C   0  0  1  0  0  0  0  0  0  0  0  0
   37.8330   25.3530   42.2070 C   0  0  1  0  0  0  0  0  0  0  0  0
   38.7470   26.3210   42.9860 C   0  0  0  0  0  0  0  0  0  0  0  0
   39.7310   25.5730   43.5470 O   0  0  0  0  0  0  0  0  0  0  0  0
   39.6140   24.2470   43.1370 C   0  0  0  0  0  0  0  0  0  0  0  0
   39.5540   24.7050   41.0380 H   0  0  0  0  0  0  0  0  0  0  0  0
   37.0600   24.9460   42.8530 H   0  0  0  0  0  0  0  0  0  0  0  0
   38.1120   26.7550   43.7840 H   0  0  0  0  0  0  0  0  0  0  0  0
   39.0800   27.1580   42.3440 H   0  0  0  0  0  0  0  0  0  0  0  0
   39.0910   23.6550   43.8870 H   0  0  0  0  0  0  0  0  0  0  0  0
   40.6370   23.8920   42.8900 H   0  0  0  0  0  0  0  0  0  0  0  0
   38.3470   23.1490   41.3740 O   0  0  0  0  0  0  0  0  0  0  0  0
   38.4520   22.4780   42.1220 H   0  0  0  0  0  0  0  0  0  0  0  0
   36.1120   29.3430   39.9220 O   0  0  0  0  0  0  0  0  0  0  0  0
   36.5010   31.8630   40.6830 O   0  0  0  0  0  0  0  0  0  0  0  0
   36.9840   30.4400   40.8940 P   0  0  1  0  0  0  0  0  0  0  0  0
   36.8400   29.9600   42.4910 O   0  0  0  0  0  0  0  0  0  0  0  0
   37.1870   29.0300   42.5370 H   0  0  0  0  0  0  0  0  0  0  0  0
   38.6090   30.3420   40.3810 O   0  0  0  0  0  0  0  0  0  0  0  0
   39.4360   32.0060   38.8710 C   0  0  1  0  0  3  0  0  0  0  0  0
   38.6220   30.7170   39.0370 C   0  0  1  0  0  3  0  0  0  0  0  0
   39.1720   29.6750   38.1170 C   0  0  0  0  0  3  0  0  0  0  0  0
   38.8360   29.9360   37.0840 H   0  0  0  0  0  0  0  0  0  0  0  0
   40.5580   29.6190   38.0740 O   0  0  0  0  0  0  0  0  0  0  0  0
   41.0950   30.7480   37.4890 C   0  0  0  0  0  3  0  0  0  0  0  0
   41.9840   31.0490   38.0810 H   0  0  0  0  0  0  0  0  0  0  0  0
   40.1540   31.9390   37.5390 C   0  0  2  0  0  3  0  0  0  0  0  0
   38.6100   33.1270   38.8470 O   0  0  0  0  0  0  0  0  0  0  0  0
   37.8520   32.9780   38.2260 H   0  0  0  0  0  0  0  0  0  0  0  0
   40.8400   33.1240   37.3610 O   0  0  0  0  0  0  0  0  0  0  0  0
   41.6440   33.1080   37.9430 H   0  0  0  0  0  0  0  0  0  0  0  0
  1  6  1  0  0  0  0
  2  1  2  0  0  0  0
  2  3  1  0  0  0  0
  3  4  2  0  0  0  0
  4  5  1  0  0  0  0
  5 10  1  0  0  0  0
  6  5  2  0  0  0  0
  7  1  1  0  0  0  0
  8  2  1  0  0  0  0
  9 14  1  6  0  0  0
  9 10  1  0  0  0  0
  9 13  1  0  0  0  0
 10 15  1  1  0  0  0
 10 11  1  0  0  0  0
 11 12  1  0  0  0  0
 11 16  1  0  0  0  0
 13 12  1  0  0  0  0
 13 18  1  0  0  0  0
 17 11  1  0  0  0  0
 19 13  1  0  0  0  0
 20  9  1  0  0  0  0
 20 21  1  0  0  0  0
 22  3  1  0  0  0  0
 22 24  1  0  0  0  0
 24 23  2  6  0  0  0
 24 25  1  0  0  0  0
 25 26  1  0  0  0  0
 27 24  1  0  0  0  0
 28 36  1  6  0  0  0
 28 29  1  0  0  0  0
 29 27  1  1  0  0  0
 30 29  1  0  0  0  0
 31 30  1  0  0  0  0
 32 30  1  0  0  0  0
 33 35  1  0  0  0  0
 33 32  1  0  0  0  0
 33 34  1  0  0  0  0
 35 38  1  1  0  0  0
 35 28  1  0  0  0  0
 37 36  1  0  0  0  0
 38 39  1  0  0  0  0
M  END
>  <minimizedAffinity>
-5.79277277

$$$$

 OpenBabel03252507103D

 39 41  0  0  1  0  0  0  0  0999 V2000
   39.5680   26.8010   43.0370 C   0  0  0  0  0  0  0  0  0  0  0  0
   38.8730   28.0290   43.0640 C   0  0  0  0  0  0  0  0  0  0  0  0
   37.6030   28.0570   42.4800 C   0  0  0  0  0  0  0  0  0  0  0  0
   37.1140   26.9310   41.9280 N   0  0  0  0  0  0  0  0  0  0  0  0
   37.7910   25.7780   41.9120 C   0  0  0  0  0  0  0  0  0  0  0  0
   39.0290   25.7180   42.4740 N   0  0  0  0  0  0  0  0  0  0  0  0
   40.5640   26.7240   43.4790 H   0  0  0  0  0  0  0  0  0  0  0  0
   39.3690   28.8690   43.5370 H   0  0  0  0  0  0  0  0  0  0  0  0
   37.1270   24.5530   39.8260 C   0  0  1  0  0  0  0  0  0  0  0  0
   37.3010   24.5220   41.3130 C   0  0  1  0  0  0  0  0  0  0  0  0
   38.4020   23.4450   41.3990 C   0  0  0  0  0  0  0  0  0  0  0  0
   38.2090   22.5950   40.3580 O   0  0  0  0  0  0  0  0  0  0  0  0
   37.1700   23.0570   39.5540 C   0  0  0  0  0  0  0  0  0  0  0  0
   37.9860   25.0300   39.3090 H   0  0  0  0  0  0  0  0  0  0  0  0
   36.4040   24.2000   41.8340 H   0  0  0  0  0  0  0  0  0  0  0  0
   38.2230   22.9090   42.3530 H   0  0  0  0  0  0  0  0  0  0  0  0
   39.4060   23.9060   41.4690 H   0  0  0  0  0  0  0  0  0  0  0  0
   36.2350   22.5550   39.8020 H   0  0  0  0  0  0  0  0  0  0  0  0
   37.4990   22.9390   38.5000 H   0  0  0  0  0  0  0  0  0  0  0  0
   35.9960   25.1820   39.3960 O   0  0  0  0  0  0  0  0  0  0  0  0
   35.3420   24.4640   39.1190 H   0  0  0  0  0  0  0  0  0  0  0  0
   36.9430   29.2670   42.5200 O   0  0  0  0  0  0  0  0  0  0  0  0
   36.3480   29.3360   39.9270 O   0  0  0  0  0  0  0  0  0  0  0  0
   36.7850   30.1960   41.0990 P   0  0  1  0  0  0  0  0  0  0  0  0
   35.7060   31.4400   41.4000 O   0  0  0  0  0  0  0  0  0  0  0  0
   36.0750   31.9530   42.1670 H   0  0  0  0  0  0  0  0  0  0  0  0
   38.3390   30.8170   40.7610 O   0  0  0  0  0  0  0  0  0  0  0  0
   38.9000   31.7460   38.6270 C   0  0  1  0  0  3  0  0  0  0  0  0
   38.6220   30.4750   39.4380 C   0  0  1  0  0  3  0  0  0  0  0  0
   39.7760   29.5380   39.2820 C   0  0  0  0  0  3  0  0  0  0  0  0
   39.7010   29.0890   38.2620 H   0  0  0  0  0  0  0  0  0  0  0  0
   41.0220   30.1450   39.3500 O   0  0  0  0  0  0  0  0  0  0  0  0
   41.2480   30.9690   38.2660 C   0  0  0  0  0  3  0  0  0  0  0  0
   41.7310   31.8970   38.6360 H   0  0  0  0  0  0  0  0  0  0  0  0
   39.9620   31.4220   37.5970 C   0  0  2  0  0  3  0  0  0  0  0  0
   37.7640   32.1680   37.9400 O   0  0  0  0  0  0  0  0  0  0  0  0
   37.3470   31.4020   37.4680 H   0  0  0  0  0  0  0  0  0  0  0  0
   40.1710   32.5480   36.8250 O   0  0  0  0  0  0  0  0  0  0  0  0
   40.7020   33.1960   37.3600 H   0  0  0  0  0  0  0  0  0  0  0  0
  1  2  1  0  0  0  0
  1  7  1  0  0  0  0
  2  8  1  0  0  0  0
  3 22  1  0  0  0  0
  3  2  2  0  0  0  0
  4  3  1  0  0  0  0
  5  4  2  0  0  0  0
  5  6  1  0  0  0  0
  6  1  2  0  0  0  0
  9 14  1  6  0  0  0
  9 10  1  0  0  0  0
 10 11  1  0  0  0  0
 10 15  1  1  0  0  0
 10  5  1  0  0  0  0
 11 17  1  0  0  0  0
 11 16  1  0  0  0  0
 12 11  1  0  0  0  0
 13 18  1  0  0  0  0
 13  9  1  0  0  0  0
 13 12  1  0  0  0  0
 19 13  1  0  0  0  0
 20  9  1  0  0  0  0
 21 20  1  0  0  0  0
 24 23  2  6  0  0  0
 24 25  1  0  0  0  0
 24 22  1  0  0  0  0
 25 26  1  0  0  0  0
 27 24  1  0  0  0  0
 28 36  1  6  0  0  0
 28 29  1  0  0  0  0
 29 27  1  1  0  0  0
 30 32  1  0  0  0  0
 30 29  1  0  0  0  0
 31 30  1  0  0  0  0
 33 34  1  0  0  0  0
 33 32  1  0  0  0  0
 35 38  1  1  0  0  0
 35 33  1  0  0  0  0
 35 28  1  0  0  0  0
 37 36  1  0  0  0  0
 38 39  1  0  0  0  0
M  END
>  <minimizedAffinity>
-5.77249241

$$$$

 OpenBabel03252507103D

 39 41  0  0  1  0  0  0  0  0999 V2000
   42.8210   33.6150   40.5680 C   0  0  0  0  0  0  0  0  0  0  0  0
   41.4210   33.7290   40.7100 C   0  0  0  0  0  0  0  0  0  0  0  0
   40.6330   33.2830   39.6440 C   0  0  0  0  0  0  0  0  0  0  0  0
   41.2370   32.7770   38.5540 N   0  0  0  0  0  0  0  0  0  0  0  0
   42.5660   32.6790   38.4410 C   0  0  0  0  0  0  0  0  0  0  0  0
   43.3600   33.1040   39.4610 N   0  0  0  0  0  0  0  0  0  0  0  0
   43.4820   33.9490   41.3710 H   0  0  0  0  0  0  0  0  0  0  0  0
   41.0500   34.1540   41.6360 H   0  0  0  0  0  0  0  0  0  0  0  0
   44.7350   32.4640   37.1970 C   0  0  1  0  0  0  0  0  0  0  0  0
   43.2740   32.1390   37.2640 C   0  0  1  0  0  0  0  0  0  0  0  0
   43.3800   30.6040   37.3850 C   0  0  0  0  0  0  0  0  0  0  0  0
   44.4970   30.2300   36.7110 O   0  0  0  0  0  0  0  0  0  0  0  0
   45.1780   31.3550   36.2540 C   0  0  0  0  0  0  0  0  0  0  0  0
   45.2460   32.3240   38.1720 H   0  0  0  0  0  0  0  0  0  0  0  0
   42.7400   32.4200   36.3610 H   0  0  0  0  0  0  0  0  0  0  0  0
   42.4850   30.2010   36.8700 H   0  0  0  0  0  0  0  0  0  0  0  0
   43.3200   30.2830   38.4420 H   0  0  0  0  0  0  0  0  0  0  0  0
   44.9310   31.5610   35.2140 H   0  0  0  0  0  0  0  0  0  0  0  0
   46.2570   31.1860   36.4560 H   0  0  0  0  0  0  0  0  0  0  0  0
   45.0190   33.7280   36.7690 O   0  0  0  0  0  0  0  0  0  0  0  0
   45.3350   33.6550   35.8130 H   0  0  0  0  0  0  0  0  0  0  0  0
   39.2690   33.4040   39.8060 O   0  0  0  0  0  0  0  0  0  0  0  0
   36.7820   32.5010   39.5220 O   0  0  0  0  0  0  0  0  0  0  0  0
   38.2270   32.2250   39.1490 P   0  0  1  0  0  0  0  0  0  0  0  0
   38.4500   32.1910   37.4900 O   0  0  0  0  0  0  0  0  0  0  0  0
   39.4120   31.9950   37.3400 H   0  0  0  0  0  0  0  0  0  0  0  0
   38.6900   30.7380   39.8480 O   0  0  0  0  0  0  0  0  0  0  0  0
   37.2430   29.7700   41.4920 C   0  0  1  0  0  3  0  0  0  0  0  0
   38.3330   30.8070   41.1950 C   0  0  1  0  0  3  0  0  0  0  0  0
   39.4710   30.5980   42.1400 C   0  0  0  0  0  3  0  0  0  0  0  0
   39.1510   30.9920   43.1350 H   0  0  0  0  0  0  0  0  0  0  0  0
   39.8150   29.2680   42.3410 O   0  0  0  0  0  0  0  0  0  0  0  0
   38.8260   28.5820   43.0170 C   0  0  0  0  0  3  0  0  0  0  0  0
   38.7140   27.5870   42.5410 H   0  0  0  0  0  0  0  0  0  0  0  0
   37.4650   29.2450   42.8950 C   0  0  2  0  0  3  0  0  0  0  0  0
   35.9740   30.3440   41.4550 O   0  0  0  0  0  0  0  0  0  0  0  0
   35.9650   31.1850   41.9800 H   0  0  0  0  0  0  0  0  0  0  0  0
   36.4500   28.3560   43.1870 O   0  0  0  0  0  0  0  0  0  0  0  0
   36.6300   27.5080   42.7000 H   0  0  0  0  0  0  0  0  0  0  0  0
  1  2  1  0  0  0  0
  1  7  1  0  0  0  0
  2  8  1  0  0  0  0
  3 22  1  0  0  0  0
  3  2  2  0  0  0  0
  4  3  1  0  0  0  0
  5  4  2  0  0  0  0
  5  6  1  0  0  0  0
  6  1  2  0  0  0  0
  9 10  1  0  0  0  0
  9 14  1  1  0  0  0
 10 15  1  6  0  0  0
 10 11  1  0  0  0  0
 10  5  1  0  0  0  0
 11 17  1  0  0  0  0
 12 11  1  0  0  0  0
 13 19  1  0  0  0  0
 13 12  1  0  0  0  0
 13  9  1  0  0  0  0
 16 11  1  0  0  0  0
 18 13  1  0  0  0  0
 20  9  1  0  0  0  0
 21 20  1  0  0  0  0
 24 23  2  1  0  0  0
 24 22  1  0  0  0  0
 24 27  1  0  0  0  0
 25 24  1  0  0  0  0
 26 25  1  0  0  0  0
 28 36  1  1  0  0  0
 28 35  1  0  0  0  0
 29 27  1  6  0  0  0
 29 28  1  0  0  0  0
 29 30  1  0  0  0  0
 30 32  1  0  0  0  0
 30 31  1  0  0  0  0
 32 33  1  0  0  0  0
 34 33  1  0  0  0  0
 35 33  1  0  0  0  0
 35 38  1  6  0  0  0
 36 37  1  0  0  0  0
 39 38  1  0  0  0  0
M  END
>  <minimizedAffinity>
-5.64541388

$$$$

 OpenBabel03252507103D

 39 41  0  0  1  0  0  0  0  0999 V2000
   40.4580   34.1600   40.3370 C   0  0  0  0  0  0  0  0  0  0  0  0
   39.1200   33.7100   40.3390 C   0  0  0  0  0  0  0  0  0  0  0  0
   38.8480   32.5150   39.6660 C   0  0  0  0  0  0  0  0  0  0  0  0
   39.8570   31.8640   39.0590 N   0  0  0  0  0  0  0  0  0  0  0  0
   41.1180   32.3100   39.0690 C   0  0  0  0  0  0  0  0  0  0  0  0
   41.4150   33.4690   39.7160 N   0  0  0  0  0  0  0  0  0  0  0  0
   40.7250   35.0880   40.8480 H   0  0  0  0  0  0  0  0  0  0  0  0
   38.3930   34.3200   40.8630 H   0  0  0  0  0  0  0  0  0  0  0  0
   42.0350   31.2780   36.9740 C   0  0  1  0  0  0  0  0  0  0  0  0
   42.2540   31.6370   38.4120 C   0  0  1  0  0  0  0  0  0  0  0  0
   43.4130   32.6390   38.2310 C   0  0  0  0  0  0  0  0  0  0  0  0
   44.1170   32.2380   37.1420 O   0  0  0  0  0  0  0  0  0  0  0  0
   43.4880   31.1510   36.5410 C   0  0  0  0  0  0  0  0  0  0  0  0
   41.5670   32.1030   36.3980 H   0  0  0  0  0  0  0  0  0  0  0  0
   42.5670   30.7880   39.0130 H   0  0  0  0  0  0  0  0  0  0  0  0
   44.0430   32.5350   39.1380 H   0  0  0  0  0  0  0  0  0  0  0  0
   43.0400   33.6800   38.2110 H   0  0  0  0  0  0  0  0  0  0  0  0
   43.9440   30.2150   36.8600 H   0  0  0  0  0  0  0  0  0  0  0  0
   43.5050   31.3310   35.4460 H   0  0  0  0  0  0  0  0  0  0  0  0
   41.2770   30.1620   36.7730 O   0  0  0  0  0  0  0  0  0  0  0  0
   41.9070   29.4160   36.5140 H   0  0  0  0  0  0  0  0  0  0  0  0
   37.5350   32.0950   39.6830 O   0  0  0  0  0  0  0  0  0  0  0  0
   38.0890   30.4920   41.7340 O   0  0  0  0  0  0  0  0  0  0  0  0
   37.0860   30.7440   40.6230 P   0  0  1  0  0  0  0  0  0  0  0  0
   35.5430   31.0060   41.2190 O   0  0  0  0  0  0  0  0  0  0  0  0
   34.9580   31.1490   40.4280 H   0  0  0  0  0  0  0  0  0  0  0  0
   37.1030   29.4030   39.5670 O   0  0  0  0  0  0  0  0  0  0  0  0
   37.5150   29.4930   37.2100 C   0  0  1  0  0  3  0  0  0  0  0  0
   36.5620   29.8450   38.3590 C   0  0  1  0  0  3  0  0  0  0  0  0
   35.2100   29.2860   38.0550 C   0  0  0  0  0  3  0  0  0  0  0  0
   34.7520   29.9380   37.2720 H   0  0  0  0  0  0  0  0  0  0  0  0
   35.2230   28.0000   37.5330 O   0  0  0  0  0  0  0  0  0  0  0  0
   35.7730   27.9690   36.2680 C   0  0  0  0  0  3  0  0  0  0  0  0
   36.4290   27.0770   36.2030 H   0  0  0  0  0  0  0  0  0  0  0  0
   36.6780   29.1580   35.9930 C   0  0  2  0  0  3  0  0  0  0  0  0
   38.3260   30.5760   36.8760 O   0  0  0  0  0  0  0  0  0  0  0  0
   37.7780   31.3970   36.7850 H   0  0  0  0  0  0  0  0  0  0  0  0
   37.5340   28.9000   34.9410 O   0  0  0  0  0  0  0  0  0  0  0  0
   37.9320   27.9990   35.0780 H   0  0  0  0  0  0  0  0  0  0  0  0
  1  2  1  0  0  0  0
  1  7  1  0  0  0  0
  2  8  1  0  0  0  0
  3 22  1  0  0  0  0
  3  2  2  0  0  0  0
  4  5  2  0  0  0  0
  4  3  1  0  0  0  0
  5  6  1  0  0  0  0
  6  1  2  0  0  0  0
  9 14  1  6  0  0  0
  9 10  1  0  0  0  0
 10 15  1  1  0  0  0
 10  5  1  0  0  0  0
 11 10  1  0  0  0  0
 11 16  1  0  0  0  0
 12 11  1  0  0  0  0
 13 18  1  0  0  0  0
 13  9  1  0  0  0  0
 13 12  1  0  0  0  0
 17 11  1  0  0  0  0
 19 13  1  0  0  0  0
 20  9  1  0  0  0  0
 21 20  1  0  0  0  0
 22 24  1  0  0  0  0
 24 25  1  0  0  0  0
 24 23  2  1  0  0  0
 26 25  1  0  0  0  0
 27 24  1  0  0  0  0
 28 36  1  6  0  0  0
 28 29  1  0  0  0  0
 29 27  1  1  0  0  0
 30 29  1  0  0  0  0
 31 30  1  0  0  0  0
 32 30  1  0  0  0  0
 33 32  1  0  0  0  0
 34 33  1  0  0  0  0
 35 38  1  6  0  0  0
 35 33  1  0  0  0  0
 35 28  1  0  0  0  0
 37 36  1  0  0  0  0
 38 39  1  0  0  0  0
M  END
>  <minimizedAffinity>
-5.62720013

$$$$

 OpenBabel03252507103D

 39 41  0  0  1  0  0  0  0  0999 V2000
   38.9750   27.4720   43.4230 C   0  0  0  0  0  0  0  0  0  0  0  0
   38.4960   28.7570   43.0930 C   0  0  0  0  0  0  0  0  0  0  0  0
   37.4370   28.8310   42.1830 C   0  0  0  0  0  0  0  0  0  0  0  0
   36.9360   27.6910   41.6730 N   0  0  0  0  0  0  0  0  0  0  0  0
   37.4070   26.4820   41.9990 C   0  0  0  0  0  0  0  0  0  0  0  0
   38.4360   26.3780   42.8820 N   0  0  0  0  0  0  0  0  0  0  0  0
   39.8010   27.3590   44.1290 H   0  0  0  0  0  0  0  0  0  0  0  0
   38.9800   29.6040   43.5680 H   0  0  0  0  0  0  0  0  0  0  0  0
   37.0790   25.0200   39.9860 C   0  0  1  0  0  0  0  0  0  0  0  0
   36.8960   25.2060   41.4610 C   0  0  1  0  0  0  0  0  0  0  0  0
   37.7830   24.0450   41.9570 C   0  0  0  0  0  0  0  0  0  0  0  0
   37.7180   23.0670   41.0180 O   0  0  0  0  0  0  0  0  0  0  0  0
   36.9710   23.5030   39.9270 C   0  0  0  0  0  0  0  0  0  0  0  0
   38.0930   25.3140   39.6450 H   0  0  0  0  0  0  0  0  0  0  0  0
   35.8660   25.0680   41.7770 H   0  0  0  0  0  0  0  0  0  0  0  0
   37.3120   23.6890   42.8960 H   0  0  0  0  0  0  0  0  0  0  0  0
   38.7980   24.4020   42.2170 H   0  0  0  0  0  0  0  0  0  0  0  0
   35.9430   23.1500   39.9950 H   0  0  0  0  0  0  0  0  0  0  0  0
   37.5160   23.1860   39.0130 H   0  0  0  0  0  0  0  0  0  0  0  0
   36.1800   25.6900   39.2100 O   0  0  0  0  0  0  0  0  0  0  0  0
   35.5130   25.0110   38.8720 H   0  0  0  0  0  0  0  0  0  0  0  0
   36.9860   30.0970   41.8770 O   0  0  0  0  0  0  0  0  0  0  0  0
   36.8730   32.1450   40.1810 O   0  0  0  0  0  0  0  0  0  0  0  0
   37.7520   30.9990   40.6490 P   0  0  1  0  0  0  0  0  0  0  0  0
   39.2260   31.5370   41.2310 O   0  0  0  0  0  0  0  0  0  0  0  0
   39.7340   30.7260   41.5010 H   0  0  0  0  0  0  0  0  0  0  0  0
   37.9770   29.9250   39.3410 O   0  0  0  0  0  0  0  0  0  0  0  0
   37.5510   30.2430   37.0070 C   0  0  1  0  0  3  0  0  0  0  0  0
   36.9640   30.2030   38.4220 C   0  0  1  0  0  3  0  0  0  0  0  0
   35.8310   29.2290   38.4510 C   0  0  0  0  0  3  0  0  0  0  0  0
   34.9640   29.7160   37.9400 H   0  0  0  0  0  0  0  0  0  0  0  0
   36.0720   28.0460   37.7660 O   0  0  0  0  0  0  0  0  0  0  0  0
   36.1620   28.2540   36.4050 C   0  0  0  0  0  3  0  0  0  0  0  0
   37.0040   27.6430   36.0210 H   0  0  0  0  0  0  0  0  0  0  0  0
   36.5120   29.6900   36.0530 C   0  0  2  0  0  3  0  0  0  0  0  0
   37.8300   31.5490   36.6110 O   0  0  0  0  0  0  0  0  0  0  0  0
   37.0560   32.1380   36.8060 H   0  0  0  0  0  0  0  0  0  0  0  0
   37.0140   29.7810   34.7700 O   0  0  0  0  0  0  0  0  0  0  0  0
   37.6940   29.0660   34.6520 H   0  0  0  0  0  0  0  0  0  0  0  0
  1  7  1  0  0  0  0
  2  1  1  0  0  0  0
  2  8  1  0  0  0  0
  3  2  2  0  0  0  0
  4  5  2  0  0  0  0
  4  3  1  0  0  0  0
  5  6  1  0  0  0  0
  6  1  2  0  0  0  0
  9 14  1  6  0  0  0
  9 10  1  0  0  0  0
 10 15  1  1  0  0  0
 10 11  1  0  0  0  0
 10  5  1  0  0  0  0
 11 17  1  0  0  0  0
 11 16  1  0  0  0  0
 12 11  1  0  0  0  0
 13  9  1  0  0  0  0
 13 18  1  0  0  0  0
 13 12  1  0  0  0  0
 19 13  1  0  0  0  0
 20  9  1  0  0  0  0
 21 20  1  0  0  0  0
 22  3  1  0  0  0  0
 24 23  2  6  0  0  0
 24 25  1  0  0  0  0
 24 22  1  0  0  0  0
 25 26  1  0  0  0  0
 27 24  1  0  0  0  0
 28 36  1  6  0  0  0
 28 29  1  0  0  0  0
 29 30  1  0  0  0  0
 29 27  1  1  0  0  0
 31 30  1  0  0  0  0
 32 30  1  0  0  0  0
 33 32  1  0  0  0  0
 34 33  1  0  0  0  0
 35 38  1  6  0  0  0
 35 33  1  0  0  0  0
 35 28  1  0  0  0  0
 36 37  1  0  0  0  0
 39 38  1  0  0  0  0
M  END
>  <minimizedAffinity>
-5.46691942

$$$$
