
 OpenBabel03252507103D

 39 41  0  0  1  0  0  0  0  0999 V2000
   44.7180   35.4150   44.2360 C   0  0  0  0  0  0  0  0  0  0  0  0
   45.5170   35.5130   43.0770 C   0  0  0  0  0  0  0  0  0  0  0  0
   46.6680   34.7210   43.0260 C   0  0  0  0  0  0  0  0  0  0  0  0
   46.9550   33.9190   44.0670 N   0  0  0  0  0  0  0  0  0  0  0  0
   46.1830   33.8420   45.1570 C   0  0  0  0  0  0  0  0  0  0  0  0
   45.0560   34.6000   45.2360 N   0  0  0  0  0  0  0  0  0  0  0  0
   43.8080   36.0120   44.3270 H   0  0  0  0  0  0  0  0  0  0  0  0
   45.1840   36.1960   42.3020 H   0  0  0  0  0  0  0  0  0  0  0  0
   45.2770   32.7100   47.2050 C   0  0  1  0  0  0  0  0  0  0  0  0
   46.4590   32.9850   46.3260 C   0  0  1  0  0  0  0  0  0  0  0  0
   46.7400   31.5440   45.8540 C   0  0  0  0  0  0  0  0  0  0  0  0
   46.3670   30.7150   46.8620 O   0  0  0  0  0  0  0  0  0  0  0  0
   45.7840   31.4500   47.8910 C   0  0  0  0  0  0  0  0  0  0  0  0
   44.3670   32.4530   46.6240 H   0  0  0  0  0  0  0  0  0  0  0  0
   47.3060   33.3850   46.8750 H   0  0  0  0  0  0  0  0  0  0  0  0
   47.8390   31.4850   45.7130 H   0  0  0  0  0  0  0  0  0  0  0  0
   46.2760   31.3490   44.8690 H   0  0  0  0  0  0  0  0  0  0  0  0
   46.5090   31.6590   48.6760 H   0  0  0  0  0  0  0  0  0  0  0  0
   44.8840   30.8890   48.2200 H   0  0  0  0  0  0  0  0  0  0  0  0
   44.9440   33.7280   48.0490 O   0  0  0  0  0  0  0  0  0  0  0  0
   45.2660   33.4690   48.9710 H   0  0  0  0  0  0  0  0  0  0  0  0
   47.4310   34.8340   41.8830 O   0  0  0  0  0  0  0  0  0  0  0  0
   47.6910   32.2010   41.5920 O   0  0  0  0  0  0  0  0  0  0  0  0
   48.4010   33.5250   41.3760 P   0  0  1  0  0  0  0  0  0  0  0  0
   48.8090   33.7630   39.7700 O   0  0  0  0  0  0  0  0  0  0  0  0
   49.2750   34.6400   39.7260 H   0  0  0  0  0  0  0  0  0  0  0  0
   49.7950   33.5560   42.3620 O   0  0  0  0  0  0  0  0  0  0  0  0
   49.2380   31.2350   42.1790 C   0  0  1  0  0  3  0  0  0  0  0  0
   50.3540   32.2800   42.2950 C   0  0  1  0  0  3  0  0  0  0  0  0
   51.3130   32.0920   41.1640 C   0  0  0  0  0  3  0  0  0  0  0  0
   51.9250   31.1870   41.3970 H   0  0  0  0  0  0  0  0  0  0  0  0
   50.7130   31.8510   39.9360 O   0  0  0  0  0  0  0  0  0  0  0  0
   50.0840   30.6230   39.9090 C   0  0  0  0  0  3  0  0  0  0  0  0
   49.1110   30.7490   39.3900 H   0  0  0  0  0  0  0  0  0  0  0  0
   49.7380   30.1110   41.2960 C   0  0  2  0  0  3  0  0  0  0  0  0
   48.9270   30.6860   43.4220 O   0  0  0  0  0  0  0  0  0  0  0  0
   49.7580   30.4230   43.8950 H   0  0  0  0  0  0  0  0  0  0  0  0
   48.7570   29.1400   41.2400 O   0  0  0  0  0  0  0  0  0  0  0  0
   48.0340   29.4640   40.6410 H   0  0  0  0  0  0  0  0  0  0  0  0
  1  7  1  0  0  0  0
  1  6  1  0  0  0  0
  2  1  2  0  0  0  0
  3  2  1  0  0  0  0
  3  4  2  0  0  0  0
  4  5  1  0  0  0  0
  5  6  2  0  0  0  0
  5 10  1  0  0  0  0
  8  2  1  0  0  0  0
  9 14  1  6  0  0  0
  9 13  1  0  0  0  0
  9 20  1  0  0  0  0
 10 15  1  1  0  0  0
 10  9  1  0  0  0  0
 11 10  1  0  0  0  0
 11 12  1  0  0  0  0
 12 13  1  0  0  0  0
 13 19  1  0  0  0  0
 13 18  1  0  0  0  0
 16 11  1  0  0  0  0
 17 11  1  0  0  0  0
 20 21  1  0  0  0  0
 22  3  1  0  0  0  0
 24 23  2  1  0  0  0
 24 22  1  0  0  0  0
 24 27  1  0  0  0  0
 25 24  1  0  0  0  0
 26 25  1  0  0  0  0
 28 29  1  0  0  0  0
 28 36  1  1  0  0  0
 29 27  1  6  0  0  0
 30 31  1  0  0  0  0
 30 29  1  0  0  0  0
 32 30  1  0  0  0  0
 33 32  1  0  0  0  0
 33 35  1  0  0  0  0
 34 33  1  0  0  0  0
 35 38  1  6  0  0  0
 35 28  1  0  0  0  0
 36 37  1  0  0  0  0
 39 38  1  0  0  0  0
M  END
>  <minimizedAffinity>
-5.48444128

>  <minimizedRMSD>
1.6049372

$$$$
