
 OpenBabel03242510483D

 42 44  0  0  1  0  0  0  0  0999 V2000
   47.3410   32.3250   40.2660 C   0  0  1  0  0  0  0  0  0  0  0  0
   48.7170   31.8820   39.9690 C   0  0  2  0  0  0  0  0  0  0  0  0
   49.5190   31.8440   41.1540 O   0  0  0  0  0  0  0  0  0  0  0  0
   49.7200   33.1830   41.5000 C   0  0  0  0  0  0  0  0  0  0  0  0
   48.4330   33.7790   42.0310 C   0  0  1  0  0  0  0  0  0  0  0  0
   47.2260   32.9840   41.6360 C   0  0  1  0  0  0  0  0  0  0  0  0
   46.6340   31.4680   40.2800 H   0  0  0  0  0  0  0  0  0  0  0  0
   48.7490   30.8080   39.6500 H   0  0  0  0  0  0  0  0  0  0  0  0
   49.9750   33.7220   40.5620 H   0  0  0  0  0  0  0  0  0  0  0  0
   50.5510   33.2970   42.2400 H   0  0  0  0  0  0  0  0  0  0  0  0
   48.3330   34.8350   41.7090 H   0  0  0  0  0  0  0  0  0  0  0  0
   46.9830   32.1970   42.3980 H   0  0  0  0  0  0  0  0  0  0  0  0
   46.8580   33.1970   39.2720 O   0  0  0  0  0  0  0  0  0  0  0  0
   47.4350   33.9930   39.1790 H   0  0  0  0  0  0  0  0  0  0  0  0
   48.5490   33.7390   43.4330 O   0  0  0  0  0  0  0  0  0  0  0  0
   48.9610   32.8500   43.6480 H   0  0  0  0  0  0  0  0  0  0  0  0
   49.4380   32.6750   39.0330 O   0  0  0  0  0  0  0  0  0  0  0  0
   52.1410   31.0670   37.3180 C   0  0  0  0  0  0  0  0  0  0  0  0
   51.5530   30.6020   36.1320 C   0  0  0  0  0  0  0  0  0  0  0  0
   50.1970   30.8590   35.9360 C   0  0  0  0  0  0  0  0  0  0  0  0
   49.5200   31.5390   36.8960 N   0  0  0  0  0  0  0  0  0  0  0  0
   50.0910   31.9740   38.0160 C   0  0  0  0  0  0  0  0  0  0  0  0
   51.4070   31.7340   38.2210 N   0  0  0  0  0  0  0  0  0  0  0  0
   52.0800   30.0600   35.3610 H   0  0  0  0  0  0  0  0  0  0  0  0
   49.6590   30.5420   35.0590 H   0  0  0  0  0  0  0  0  0  0  0  0
   53.5990   30.7830   37.5220 C   0  0  0  0  0  0  0  0  0  0  0  0
   54.2660   31.8880   37.9550 F   0  0  0  0  0  0  0  0  0  0  0  0
   53.7070   29.7190   38.4070 F   0  0  0  0  0  0  0  0  0  0  0  0
   54.1350   30.2990   36.3010 F   0  0  0  0  0  0  0  0  0  0  0  0
   46.1340   33.8640   41.5890 O   0  0  0  0  0  0  0  0  0  0  0  0
   43.8570   33.4780   41.3700 C   0  0  2  0  0  3  0  0  0  0  0  0
   45.0520   33.4310   42.3200 C   0  0  2  0  0  3  0  0  0  0  0  0
   44.7720   34.4890   43.3790 C   0  0  0  0  0  3  0  0  0  0  0  0
   43.7920   34.3480   43.8730 H   0  0  0  0  0  0  0  0  0  0  0  0
   44.8150   35.7210   42.7260 O   0  0  0  0  0  0  0  0  0  0  0  0
   43.7460   35.8750   41.8450 C   0  0  0  0  0  3  0  0  0  0  0  0
   42.7890   35.6720   42.3320 H   0  0  0  0  0  0  0  0  0  0  0  0
   43.9190   34.8530   40.7280 C   0  0  2  0  0  3  0  0  0  0  0  0
   42.6580   33.4140   42.1080 O   0  0  0  0  0  0  0  0  0  0  0  0
   41.9300   33.1920   41.5060 H   0  0  0  0  0  0  0  0  0  0  0  0
   43.0440   35.0250   39.6880 O   0  0  0  0  0  0  0  0  0  0  0  0
   43.4230   35.6330   38.9890 H   0  0  0  0  0  0  0  0  0  0  0  0
  1  7  1  1  0  0  0
  1  6  1  0  0  0  0
  2  8  1  6  0  0  0
  2  1  1  0  0  0  0
  2  3  1  0  0  0  0
  3  4  1  0  0  0  0
  4  5  1  0  0  0  0
  4 10  1  0  0  0  0
  5 11  1  6  0  0  0
  5 15  1  0  0  0  0
  6  5  1  0  0  0  0
  6 12  1  1  0  0  0
  9  4  1  0  0  0  0
 13  1  1  0  0  0  0
 14 13  1  0  0  0  0
 15 16  1  0  0  0  0
 17  2  1  0  0  0  0
 18 26  1  0  0  0  0
 18 23  1  0  0  0  0
 19 18  2  0  0  0  0
 20 19  1  0  0  0  0
 20 21  2  0  0  0  0
 21 22  1  0  0  0  0
 22 23  2  0  0  0  0
 22 17  1  0  0  0  0
 24 19  1  0  0  0  0
 25 20  1  0  0  0  0
 26 27  1  0  0  0  0
 26 28  1  0  0  0  0
 29 26  1  0  0  0  0
 30  6  1  0  0  0  0
 31 39  1  1  0  0  0
 31 32  1  0  0  0  0
 32 30  1  6  0  0  0
 32 33  1  0  0  0  0
 33 34  1  0  0  0  0
 35 33  1  0  0  0  0
 36 37  1  0  0  0  0
 36 35  1  0  0  0  0
 38 41  1  6  0  0  0
 38 31  1  0  0  0  0
 38 36  1  0  0  0  0
 40 39  1  0  0  0  0
 42 41  1  0  0  0  0
M  END
>  <minimizedAffinity>
-4.87592268

>  <minimizedRMSD>
3.85986114

$$$$
