
 OpenBabel03252509293D

 20 21  0  0  0  0  0  0  0  0999 V2000
   46.7380   34.7740   41.8640 C   0  0  0  0  0  0  0  0  0  0  0  0
   46.7810   35.7660   41.3880 H   0  0  0  0  0  0  0  0  0  0  0  0
   46.1610   34.0530   41.2230 H   0  0  0  0  0  0  0  0  0  0  0  0
   44.5270   36.0740   44.5600 C   0  0  0  0  0  0  0  0  0  0  0  0
   45.1990   35.9760   43.3280 C   0  0  0  0  0  0  0  0  0  0  0  0
   46.0340   34.8880   43.1380 C   0  0  0  0  0  0  0  0  0  0  0  0
   46.1710   33.9650   44.1480 N   0  0  0  0  0  0  0  0  0  0  0  0
   45.4910   34.1160   45.3220 C   0  0  0  0  0  0  0  0  0  0  0  0
   44.6800   35.1570   45.5260 N   0  0  0  0  0  0  0  0  0  0  0  0
   43.8820   36.9420   44.6640 H   0  0  0  0  0  0  0  0  0  0  0  0
   45.0700   36.7190   42.5520 H   0  0  0  0  0  0  0  0  0  0  0  0
   45.6970   33.3130   46.0220 H   0  0  0  0  0  0  0  0  0  0  0  0
   48.1180   34.2610   41.9810 C   0  0  0  0  0  0  0  0  0  0  0  0
   49.2080   34.9370   42.4860 C   0  0  0  0  0  0  0  0  0  0  0  0
   49.0080   35.9630   42.8310 H   0  0  0  0  0  0  0  0  0  0  0  0
   50.4630   34.3790   42.5560 C   0  0  0  0  0  0  0  0  0  0  0  0
   51.2700   34.9930   42.9740 H   0  0  0  0  0  0  0  0  0  0  0  0
   50.6960   33.0880   42.1160 C   0  0  0  0  0  3  0  0  0  0  0  0
   49.5840   32.4340   41.6140 C   0  0  0  0  0  3  0  0  0  0  0  0
   48.3730   32.9990   41.5560 N   0  0  0  0  0  0  0  0  0  0  0  0
  1 13  1  0  0  0  0
  1  6  1  0  0  0  0
  2  1  1  0  0  0  0
  3  1  1  0  0  0  0
  4 10  1  0  0  0  0
  4  9  1  0  0  0  0
  5  4  2  0  0  0  0
  6  5  1  0  0  0  0
  6  7  2  0  0  0  0
  7  8  1  0  0  0  0
  8  9  2  0  0  0  0
  8 12  1  0  0  0  0
 11  5  1  0  0  0  0
 13 14  1  0  0  0  0
 14 16  2  0  0  0  0
 14 15  1  0  0  0  0
 16 17  1  0  0  0  0
 18 16  1  0  0  0  0
 19 18  2  0  0  0  0
 20 19  1  0  0  0  0
 20 13  2  0  0  0  0
M  END
>  <minimizedAffinity>
-4.62954426

>  <minimizedRMSD>
1.84905255

$$$$
