
 OpenBabel03242519273D

 42 45  0  0  0  0  0  0  0  0999 V2000
   47.8760   33.7240   42.8700 C   0  0  0  0  0  0  0  0  0  0  0  0
   48.6160   34.9320   42.6960 C   0  0  0  0  0  0  0  0  0  0  0  0
   49.9820   34.8840   42.3830 C   0  0  0  0  0  0  0  0  0  0  0  0
   50.5340   33.6300   42.2630 N   0  0  0  0  0  0  0  0  0  0  0  0
   49.7820   32.4860   42.4390 C   0  0  0  0  0  0  0  0  0  0  0  0
   48.4920   32.5510   42.7340 N   0  0  0  0  0  0  0  0  0  0  0  0
   48.2340   35.9390   42.7790 H   0  0  0  0  0  0  0  0  0  0  0  0
   50.5670   35.7580   42.2460 H   0  0  0  0  0  0  0  0  0  0  0  0
   46.4590   33.9110   43.1970 C   0  0  0  0  0  0  0  0  0  0  0  0
   45.7960   34.9500   42.4320 C   0  0  0  0  0  0  0  0  0  0  0  0
   45.3740   36.1300   43.2030 C   0  0  0  0  0  0  0  0  0  0  0  0
   44.5210   35.7450   44.4120 C   0  0  0  0  0  0  0  0  0  0  0  0
   44.9770   34.5160   45.1140 C   0  0  0  0  0  0  0  0  0  0  0  0
   46.4150   34.1580   44.7310 C   0  0  0  0  0  0  0  0  0  0  0  0
   45.9460   32.9220   43.0850 H   0  0  0  0  0  0  0  0  0  0  0  0
   46.4850   35.3080   41.6240 H   0  0  0  0  0  0  0  0  0  0  0  0
   44.8990   34.5580   41.8820 H   0  0  0  0  0  0  0  0  0  0  0  0
   44.6760   36.7260   42.5420 H   0  0  0  0  0  0  0  0  0  0  0  0
   46.1310   36.8400   43.5240 H   0  0  0  0  0  0  0  0  0  0  0  0
   44.4340   36.6210   45.0830 H   0  0  0  0  0  0  0  0  0  0  0  0
   43.4870   35.5420   44.0480 H   0  0  0  0  0  0  0  0  0  0  0  0
   44.9680   34.5800   46.2200 H   0  0  0  0  0  0  0  0  0  0  0  0
   44.3740   33.6160   44.8230 H   0  0  0  0  0  0  0  0  0  0  0  0
   47.0190   35.0440   44.9840 H   0  0  0  0  0  0  0  0  0  0  0  0
   46.7240   33.2420   45.2400 H   0  0  0  0  0  0  0  0  0  0  0  0
   50.5310   31.2440   42.2780 C   0  0  0  0  0  0  0  0  0  0  0  0
   50.4400   30.5950   41.0980 N   0  0  0  0  0  0  0  0  0  0  0  0
   51.1950   29.4820   41.1420 C   0  0  0  0  0  0  0  0  0  0  0  0
   51.7650   29.4420   42.3770 N   0  0  0  0  0  0  0  0  0  0  0  0
   51.3630   30.5160   43.0750 N   0  0  0  0  0  0  0  0  0  0  0  0
   51.3580   28.7290   40.3810 H   0  0  0  0  0  0  0  0  0  0  0  0
   52.6730   28.4440   42.9460 C   0  0  0  0  0  0  0  0  0  0  0  0
   52.7620   27.6340   42.1670 H   0  0  0  0  0  0  0  0  0  0  0  0
   52.1420   27.9650   43.7900 H   0  0  0  0  0  0  0  0  0  0  0  0
   53.9810   29.0240   43.2860 C   0  0  0  0  0  0  0  0  0  0  0  0
   54.8600   29.2860   42.2380 C   0  0  0  0  0  0  0  0  0  0  0  0
   54.5980   29.0720   41.2110 H   0  0  0  0  0  0  0  0  0  0  0  0
   56.0810   29.8300   42.5760 C   0  0  0  0  0  0  0  0  0  0  0  0
   56.7680   30.0340   41.7460 H   0  0  0  0  0  0  0  0  0  0  0  0
   56.4780   30.1270   43.8760 C   0  0  0  0  0  0  0  0  0  0  0  0
   55.5450   29.8390   44.8770 C   0  0  0  0  0  0  0  0  0  0  0  0
   54.3370   29.3000   44.5500 N   0  0  0  0  0  0  0  0  0  0  0  0
  1  9  1  0  0  0  0
  2  7  1  0  0  0  0
  2  1  2  0  0  0  0
  3  2  1  0  0  0  0
  4  3  2  0  0  0  0
  4  5  1  0  0  0  0
  5  6  2  0  0  0  0
  6  1  1  0  0  0  0
  8  3  1  0  0  0  0
  9 14  1  0  0  0  0
 10  9  1  0  0  0  0
 10 11  1  0  0  0  0
 11 19  1  0  0  0  0
 11 12  1  0  0  0  0
 12 20  1  0  0  0  0
 12 13  1  0  0  0  0
 13 22  1  0  0  0  0
 14 24  1  0  0  0  0
 14 13  1  0  0  0  0
 14 25  1  0  0  0  0
 15  9  1  0  0  0  0
 16 10  1  0  0  0  0
 17 10  1  0  0  0  0
 18 11  1  0  0  0  0
 21 12  1  0  0  0  0
 23 13  1  0  0  0  0
 26  5  1  0  0  0  0
 26 30  2  0  0  0  0
 27 28  2  0  0  0  0
 27 26  1  0  0  0  0
 28 29  1  0  0  0  0
 29 32  1  0  0  0  0
 29 30  1  0  0  0  0
 31 28  1  0  0  0  0
 32 35  1  0  0  0  0
 32 34  1  0  0  0  0
 33 32  1  0  0  0  0
 35 42  1  0  0  0  0
 36 38  1  0  0  0  0
 36 35  2  0  0  0  0
 37 36  1  0  0  0  0
 38 40  2  0  0  0  0
 39 38  1  0  0  0  0
 40 41  1  0  0  0  0
 42 41  2  0  0  0  0
M  END
>  <minimizedAffinity>
-4.48580599

>  <minimizedRMSD>
1.59974766

$$$$
