
 OpenBabel03252509283D

 20 21  0  0  0  0  0  0  0  0999 V2000
   45.7120   33.4110   42.2320 C   0  0  0  0  0  0  0  0  0  0  0  0
   44.8340   33.3710   41.5700 H   0  0  0  0  0  0  0  0  0  0  0  0
   46.0660   32.3730   42.4820 H   0  0  0  0  0  0  0  0  0  0  0  0
   44.3330   35.8970   44.6330 C   0  0  0  0  0  0  0  0  0  0  0  0
   44.6910   35.2830   43.4180 C   0  0  0  0  0  0  0  0  0  0  0  0
   45.3350   34.0590   43.4850 C   0  0  0  0  0  0  0  0  0  0  0  0
   45.5950   33.5050   44.7160 N   0  0  0  0  0  0  0  0  0  0  0  0
   45.2220   34.1510   45.8590 C   0  0  0  0  0  0  0  0  0  0  0  0
   44.6000   35.3320   45.8190 N   0  0  0  0  0  0  0  0  0  0  0  0
   43.8290   36.8540   44.5320 H   0  0  0  0  0  0  0  0  0  0  0  0
   44.4720   35.7440   42.4650 H   0  0  0  0  0  0  0  0  0  0  0  0
   45.4930   33.5960   46.7510 H   0  0  0  0  0  0  0  0  0  0  0  0
   46.8040   34.0910   41.5050 C   0  0  0  0  0  0  0  0  0  0  0  0
   47.0900   33.9810   40.1610 C   0  0  0  0  0  0  0  0  0  0  0  0
   46.4270   33.3140   39.5900 H   0  0  0  0  0  0  0  0  0  0  0  0
   48.1330   34.6530   39.5640 C   0  0  0  0  0  0  0  0  0  0  0  0
   48.2840   34.5050   38.4890 H   0  0  0  0  0  0  0  0  0  0  0  0
   48.9570   35.4880   40.3000 C   0  0  0  0  0  3  0  0  0  0  0  0
   48.6450   35.5780   41.6460 C   0  0  0  0  0  3  0  0  0  0  0  0
   47.6250   34.9120   42.2020 N   0  0  0  0  0  0  0  0  0  0  0  0
  1  3  1  0  0  0  0
  1  6  1  0  0  0  0
  2  1  1  0  0  0  0
  4  9  1  0  0  0  0
  5  6  1  0  0  0  0
  5  4  2  0  0  0  0
  6  7  2  0  0  0  0
  7  8  1  0  0  0  0
  8 12  1  0  0  0  0
  9  8  2  0  0  0  0
 10  4  1  0  0  0  0
 11  5  1  0  0  0  0
 13 20  1  0  0  0  0
 13  1  1  0  0  0  0
 14 13  2  0  0  0  0
 15 14  1  0  0  0  0
 16 14  1  0  0  0  0
 16 18  2  0  0  0  0
 17 16  1  0  0  0  0
 18 19  1  0  0  0  0
 19 20  2  0  0  0  0
M  END
>  <minimizedAffinity>
-4.11877203

>  <minimizedRMSD>
1.8994025

$$$$
