
 OpenBabel03252502363D

 23 24  0  0  1  0  0  0  0  0999 V2000
   47.7560   35.1990   41.7540 C   0  0  2  0  0  0  0  0  0  0  0  0
   47.6150   36.2850   41.5690 H   0  0  0  0  0  0  0  0  0  0  0  0
   45.7390   35.5480   43.1350 C   0  0  0  0  0  0  0  0  0  0  0  0
   46.9270   34.8170   42.8950 C   0  0  0  0  0  0  0  0  0  0  0  0
   47.2430   33.7510   43.7770 C   0  0  0  0  0  0  0  0  0  0  0  0
   46.3780   33.5080   44.7970 N   0  0  0  0  0  0  0  0  0  0  0  0
   45.2710   34.2310   44.9780 C   0  0  0  0  0  0  0  0  0  0  0  0
   44.9530   35.2390   44.1580 N   0  0  0  0  0  0  0  0  0  0  0  0
   45.4320   36.3720   42.5070 H   0  0  0  0  0  0  0  0  0  0  0  0
   48.1570   33.1960   43.5830 H   0  0  0  0  0  0  0  0  0  0  0  0
   44.7470   33.8400   45.8600 H   0  0  0  0  0  0  0  0  0  0  0  0
   47.4790   34.5040   40.4960 C   0  0  0  0  0  0  0  0  0  0  0  0
   48.3140   34.4950   39.3770 C   0  0  0  0  0  0  0  0  0  0  0  0
   49.2450   35.0530   39.4560 H   0  0  0  0  0  0  0  0  0  0  0  0
   47.9290   33.7920   38.2400 C   0  0  0  0  0  0  0  0  0  0  0  0
   48.5990   33.8100   37.4010 H   0  0  0  0  0  0  0  0  0  0  0  0
   46.7060   33.1140   38.2640 C   0  0  0  0  0  0  0  0  0  0  0  0
   45.8970   33.1440   39.3990 C   0  0  0  0  0  0  0  0  0  0  0  0
   46.3100   33.8320   40.4620 N   0  0  0  0  0  0  0  0  0  0  0  0
   49.2030   35.0130   42.1600 C   0  0  0  0  0  0  0  0  0  0  0  0
   49.3830   35.5150   43.1190 H   0  0  0  0  0  0  0  0  0  0  0  0
   49.3730   33.9100   42.2190 H   0  0  0  0  0  0  0  0  0  0  0  0
   49.9050   35.4220   41.3810 H   0  0  0  0  0  0  0  0  0  0  0  0
  1  2  1  6  0  0  0
  1 20  1  0  0  0  0
  1  4  1  0  0  0  0
  3  8  1  0  0  0  0
  4  3  2  0  0  0  0
  4  5  1  0  0  0  0
  5  6  2  0  0  0  0
  6  7  1  0  0  0  0
  7 11  1  0  0  0  0
  8  7  2  0  0  0  0
  9  3  1  0  0  0  0
 10  5  1  0  0  0  0
 12  1  1  0  0  0  0
 13 14  1  0  0  0  0
 13 12  2  0  0  0  0
 15 17  2  0  0  0  0
 15 13  1  0  0  0  0
 16 15  1  0  0  0  0
 17 18  1  0  0  0  0
 18 19  2  0  0  0  0
 19 12  1  0  0  0  0
 20 22  1  0  0  0  0
 20 21  1  0  0  0  0
 23 20  1  0  0  0  0
M  END
>  <minimizedAffinity>
-4.36633492

>  <minimizedRMSD>
1.53614068

$$$$
