
 OpenBabel03252509283D

 20 21  0  0  0  0  0  0  0  0999 V2000
   46.7740   33.2100   44.5630 C   0  0  0  0  0  0  0  0  0  0  0  0
   47.3150   32.4680   43.9560 H   0  0  0  0  0  0  0  0  0  0  0  0
   47.4760   34.0110   44.9260 H   0  0  0  0  0  0  0  0  0  0  0  0
   45.6900   30.5400   46.9170 C   0  0  0  0  0  0  0  0  0  0  0  0
   46.2310   31.1650   45.7780 C   0  0  0  0  0  0  0  0  0  0  0  0
   46.2160   32.5490   45.7390 C   0  0  0  0  0  0  0  0  0  0  0  0
   45.6810   33.2430   46.7980 N   0  0  0  0  0  0  0  0  0  0  0  0
   45.1710   32.5780   47.8760 C   0  0  0  0  0  0  0  0  0  0  0  0
   45.1750   31.2440   47.9350 N   0  0  0  0  0  0  0  0  0  0  0  0
   45.7240   29.4540   46.9040 H   0  0  0  0  0  0  0  0  0  0  0  0
   46.6460   30.5910   44.9600 H   0  0  0  0  0  0  0  0  0  0  0  0
   44.7840   33.2550   48.6300 H   0  0  0  0  0  0  0  0  0  0  0  0
   45.7650   33.8600   43.7010 C   0  0  0  0  0  0  0  0  0  0  0  0
   44.8960   33.2320   42.8340 C   0  0  0  0  0  0  0  0  0  0  0  0
   44.9770   32.1370   42.7970 H   0  0  0  0  0  0  0  0  0  0  0  0
   43.9850   33.9210   42.0660 C   0  0  0  0  0  0  0  0  0  0  0  0
   43.3330   33.3360   41.4050 H   0  0  0  0  0  0  0  0  0  0  0  0
   43.8970   35.3000   42.1280 C   0  0  0  0  0  3  0  0  0  0  0  0
   44.7820   35.9030   43.0050 C   0  0  0  0  0  3  0  0  0  0  0  0
   45.6600   35.2100   43.7420 N   0  0  0  0  0  0  0  0  0  0  0  0
  1  3  1  0  0  0  0
  1  6  1  0  0  0  0
  2  1  1  0  0  0  0
  4  9  1  0  0  0  0
  5  4  2  0  0  0  0
  6  5  1  0  0  0  0
  6  7  2  0  0  0  0
  7  8  1  0  0  0  0
  8  9  2  0  0  0  0
  8 12  1  0  0  0  0
 10  4  1  0  0  0  0
 11  5  1  0  0  0  0
 13 20  1  0  0  0  0
 13  1  1  0  0  0  0
 14 13  2  0  0  0  0
 15 14  1  0  0  0  0
 16 18  2  0  0  0  0
 16 14  1  0  0  0  0
 17 16  1  0  0  0  0
 18 19  1  0  0  0  0
 19 20  2  0  0  0  0
M  END
>  <minimizedAffinity>
-3.5380218

>  <minimizedRMSD>
4.8922286

$$$$
