
 OpenBabel03252509293D

 20 21  0  0  0  0  0  0  0  0999 V2000
   45.5980   33.5250   42.1020 C   0  0  0  0  0  0  0  0  0  0  0  0
   44.7220   33.6060   41.4400 H   0  0  0  0  0  0  0  0  0  0  0  0
   45.8580   32.4460   42.2840 H   0  0  0  0  0  0  0  0  0  0  0  0
   44.3310   35.9150   44.6570 C   0  0  0  0  0  0  0  0  0  0  0  0
   44.6370   35.3510   43.4050 C   0  0  0  0  0  0  0  0  0  0  0  0
   45.2740   34.1220   43.3950 C   0  0  0  0  0  0  0  0  0  0  0  0
   45.5780   33.5150   44.5910 N   0  0  0  0  0  0  0  0  0  0  0  0
   45.2550   34.1140   45.7740 C   0  0  0  0  0  0  0  0  0  0  0  0
   44.6390   35.2990   45.8070 N   0  0  0  0  0  0  0  0  0  0  0  0
   43.8310   36.8790   44.6170 H   0  0  0  0  0  0  0  0  0  0  0  0
   44.3840   35.8530   42.4810 H   0  0  0  0  0  0  0  0  0  0  0  0
   45.5550   33.5200   46.6310 H   0  0  0  0  0  0  0  0  0  0  0  0
   46.7490   34.1510   41.4190 C   0  0  0  0  0  0  0  0  0  0  0  0
   47.6660   35.0160   41.9770 C   0  0  0  0  0  0  0  0  0  0  0  0
   47.5060   35.2510   43.0400 H   0  0  0  0  0  0  0  0  0  0  0  0
   48.7120   35.5540   41.2630 C   0  0  0  0  0  0  0  0  0  0  0  0
   49.3920   36.2340   41.7910 H   0  0  0  0  0  0  0  0  0  0  0  0
   48.8960   35.2470   39.9260 C   0  0  0  0  0  3  0  0  0  0  0  0
   47.9600   34.3760   39.3930 C   0  0  0  0  0  3  0  0  0  0  0  0
   46.9510   33.8660   40.1100 N   0  0  0  0  0  0  0  0  0  0  0  0
  1  3  1  0  0  0  0
  1  6  1  0  0  0  0
  2  1  1  0  0  0  0
  4  9  1  0  0  0  0
  5  4  2  0  0  0  0
  6  5  1  0  0  0  0
  6  7  2  0  0  0  0
  7  8  1  0  0  0  0
  8  9  2  0  0  0  0
  8 12  1  0  0  0  0
 10  4  1  0  0  0  0
 11  5  1  0  0  0  0
 13 14  1  0  0  0  0
 13  1  1  0  0  0  0
 14 15  1  0  0  0  0
 16 17  1  0  0  0  0
 16 14  2  0  0  0  0
 18 16  1  0  0  0  0
 19 18  2  0  0  0  0
 19 20  1  0  0  0  0
 20 13  2  0  0  0  0
M  END
>  <minimizedAffinity>
-4.20072365

>  <minimizedRMSD>
1.93530715

$$$$
