
 OpenBabel03252509283D

 20 21  0  0  0  0  0  0  0  0999 V2000
   43.4680   33.2150   41.3120 C   0  0  0  0  0  0  0  0  0  0  0  0
   43.9780   33.6480   42.1870 H   0  0  0  0  0  0  0  0  0  0  0  0
   43.1560   32.1550   41.5210 H   0  0  0  0  0  0  0  0  0  0  0  0
   46.6290   33.3430   39.3530 C   0  0  0  0  0  0  0  0  0  0  0  0
   45.7440   33.3730   40.4460 C   0  0  0  0  0  0  0  0  0  0  0  0
   44.3970   33.1860   40.1870 C   0  0  0  0  0  0  0  0  0  0  0  0
   43.9880   32.9830   38.8900 N   0  0  0  0  0  0  0  0  0  0  0  0
   44.8960   32.9650   37.8710 C   0  0  0  0  0  0  0  0  0  0  0  0
   46.2000   33.1430   38.0990 N   0  0  0  0  0  0  0  0  0  0  0  0
   47.6750   33.4940   39.6040 H   0  0  0  0  0  0  0  0  0  0  0  0
   46.0980   33.5350   41.4560 H   0  0  0  0  0  0  0  0  0  0  0  0
   44.4270   32.7950   36.9070 H   0  0  0  0  0  0  0  0  0  0  0  0
   42.2410   33.9990   41.0620 C   0  0  0  0  0  0  0  0  0  0  0  0
   42.1380   35.3730   41.0150 C   0  0  0  0  0  0  0  0  0  0  0  0
   43.0760   35.9230   41.1830 H   0  0  0  0  0  0  0  0  0  0  0  0
   40.9480   36.0230   40.7740 C   0  0  0  0  0  0  0  0  0  0  0  0
   40.9640   37.1190   40.7540 H   0  0  0  0  0  0  0  0  0  0  0  0
   39.7790   35.3150   40.5650 C   0  0  0  0  0  3  0  0  0  0  0  0
   39.9130   33.9380   40.6190 C   0  0  0  0  0  3  0  0  0  0  0  0
   41.0820   33.3310   40.8540 N   0  0  0  0  0  0  0  0  0  0  0  0
  1  3  1  0  0  0  0
  1  2  1  0  0  0  0
  4 10  1  0  0  0  0
  4  5  1  0  0  0  0
  5 11  1  0  0  0  0
  6  5  2  0  0  0  0
  6  1  1  0  0  0  0
  7  6  1  0  0  0  0
  8  9  1  0  0  0  0
  8  7  2  0  0  0  0
  9  4  2  0  0  0  0
 12  8  1  0  0  0  0
 13  1  1  0  0  0  0
 14 13  1  0  0  0  0
 14 15  1  0  0  0  0
 16 14  2  0  0  0  0
 17 16  1  0  0  0  0
 18 19  2  0  0  0  0
 18 16  1  0  0  0  0
 19 20  1  0  0  0  0
 20 13  2  0  0  0  0
M  END
>  <minimizedAffinity>
-3.0930047

>  <minimizedRMSD>
7.43434763

$$$$
