
 OpenBabel03242517513D

 18 19  0  0  0  0  0  0  0  0999 V2000
   37.4280   32.6500   39.0810 C   0  0  0  0  0  0  0  0  0  0  0  0
   37.5410   31.8950   37.8880 C   0  0  0  0  0  0  0  0  0  0  0  0
   37.1650   30.5510   37.9490 C   0  0  0  0  0  0  0  0  0  0  0  0
   36.7190   30.0340   39.1170 N   0  0  0  0  0  0  0  0  0  0  0  0
   36.6290   30.8000   40.2360 C   0  0  0  0  0  0  0  0  0  0  0  0
   36.9820   32.0840   40.1980 N   0  0  0  0  0  0  0  0  0  0  0  0
   37.7260   33.6800   38.9950 H   0  0  0  0  0  0  0  0  0  0  0  0
   37.8860   32.2550   36.9440 H   0  0  0  0  0  0  0  0  0  0  0  0
   37.2370   29.9470   37.0620 H   0  0  0  0  0  0  0  0  0  0  0  0
   36.1780   30.3100   41.4520 O   0  0  0  0  0  0  0  0  0  0  0  0
   36.9690   29.3250   42.0390 C   0  0  0  0  0  0  0  0  0  0  0  0
   36.5410   28.0130   42.2070 C   0  0  0  0  0  0  0  0  0  0  0  0
   35.5450   27.7840   41.8560 H   0  0  0  0  0  0  0  0  0  0  0  0
   37.2960   27.0290   42.7800 C   0  0  0  0  0  0  0  0  0  0  0  0
   36.9520   26.0070   42.9060 H   0  0  0  0  0  0  0  0  0  0  0  0
   38.5690   27.3280   43.2270 C   0  0  0  0  0  3  0  0  0  0  0  0
   38.9880   28.6320   43.0570 C   0  0  0  0  0  3  0  0  0  0  0  0
   38.2270   29.6110   42.4850 N   0  0  0  0  0  0  0  0  0  0  0  0
  1  6  1  0  0  0  0
  2  3  1  0  0  0  0
  2  1  2  0  0  0  0
  3  4  2  0  0  0  0
  4  5  1  0  0  0  0
  5 10  1  0  0  0  0
  6  5  2  0  0  0  0
  7  1  1  0  0  0  0
  8  2  1  0  0  0  0
  9  3  1  0  0  0  0
 10 11  1  0  0  0  0
 11 12  2  0  0  0  0
 11 18  1  0  0  0  0
 12 14  1  0  0  0  0
 13 12  1  0  0  0  0
 14 15  1  0  0  0  0
 14 16  2  0  0  0  0
 17 16  1  0  0  0  0
 18 17  2  0  0  0  0
M  END
>  <minimizedAffinity>
-4.1273098

$$$$

 OpenBabel03242517513D

 18 19  0  0  0  0  0  0  0  0999 V2000
   39.0900   28.7800   42.9570 C   0  0  0  0  0  0  0  0  0  0  0  0
   38.6400   27.4590   43.2010 C   0  0  0  0  0  0  0  0  0  0  0  0
   37.3220   27.1610   42.8450 C   0  0  0  0  0  0  0  0  0  0  0  0
   36.5450   28.1240   42.2950 N   0  0  0  0  0  0  0  0  0  0  0  0
   37.0240   29.3770   42.0810 C   0  0  0  0  0  0  0  0  0  0  0  0
   38.2780   29.6800   42.4130 N   0  0  0  0  0  0  0  0  0  0  0  0
   40.1090   28.9700   43.2430 H   0  0  0  0  0  0  0  0  0  0  0  0
   39.2110   26.6670   43.6300 H   0  0  0  0  0  0  0  0  0  0  0  0
   36.9450   26.1690   43.0150 H   0  0  0  0  0  0  0  0  0  0  0  0
   36.2620   30.3910   41.5210 O   0  0  0  0  0  0  0  0  0  0  0  0
   36.6850   30.8490   40.2750 C   0  0  0  0  0  0  0  0  0  0  0  0
   37.0910   32.1590   40.0490 C   0  0  0  0  0  0  0  0  0  0  0  0
   37.0650   32.8240   40.9010 H   0  0  0  0  0  0  0  0  0  0  0  0
   37.5100   32.6320   38.8380 C   0  0  0  0  0  0  0  0  0  0  0  0
   37.8250   33.6570   38.6720 H   0  0  0  0  0  0  0  0  0  0  0  0
   37.5430   31.7760   37.7530 C   0  0  0  0  0  3  0  0  0  0  0  0
   37.1380   30.4780   37.9840 C   0  0  0  0  0  3  0  0  0  0  0  0
   36.7200   30.0110   39.1970 N   0  0  0  0  0  0  0  0  0  0  0  0
  1  2  1  0  0  0  0
  1  7  1  0  0  0  0
  2  8  1  0  0  0  0
  3  9  1  0  0  0  0
  3  2  2  0  0  0  0
  4  3  1  0  0  0  0
  5  4  2  0  0  0  0
  5  6  1  0  0  0  0
  6  1  2  0  0  0  0
 10  5  1  0  0  0  0
 11 10  1  0  0  0  0
 12 11  1  0  0  0  0
 12 13  1  0  0  0  0
 14 12  2  0  0  0  0
 15 14  1  0  0  0  0
 16 17  2  0  0  0  0
 16 14  1  0  0  0  0
 17 18  1  0  0  0  0
 18 11  2  0  0  0  0
M  END
>  <minimizedAffinity>
-4.03930998

$$$$

 OpenBabel03242517513D

 18 19  0  0  0  0  0  0  0  0999 V2000
   37.1500   31.2630   38.1640 C   0  0  0  0  0  0  0  0  0  0  0  0
   37.6870   32.3350   38.9170 C   0  0  0  0  0  0  0  0  0  0  0  0
   37.4100   32.3500   40.2870 C   0  0  0  0  0  0  0  0  0  0  0  0
   36.6560   31.3640   40.8270 N   0  0  0  0  0  0  0  0  0  0  0  0
   36.1640   30.3560   40.0610 C   0  0  0  0  0  0  0  0  0  0  0  0
   36.4170   30.3230   38.7540 N   0  0  0  0  0  0  0  0  0  0  0  0
   37.3850   31.2850   37.1140 H   0  0  0  0  0  0  0  0  0  0  0  0
   38.2840   33.1340   38.5400 H   0  0  0  0  0  0  0  0  0  0  0  0
   37.8010   33.1490   40.8910 H   0  0  0  0  0  0  0  0  0  0  0  0
   35.3890   29.3270   40.5740 O   0  0  0  0  0  0  0  0  0  0  0  0
   36.0850   28.1980   40.9990 C   0  0  0  0  0  0  0  0  0  0  0  0
   36.4850   28.0090   42.3170 C   0  0  0  0  0  0  0  0  0  0  0  0
   36.2270   28.7930   43.0150 H   0  0  0  0  0  0  0  0  0  0  0  0
   37.1690   26.9120   42.7590 C   0  0  0  0  0  0  0  0  0  0  0  0
   37.4770   26.7740   43.7910 H   0  0  0  0  0  0  0  0  0  0  0  0
   37.4960   25.9130   41.8620 C   0  0  0  0  0  3  0  0  0  0  0  0
   37.0960   26.1070   40.5560 C   0  0  0  0  0  3  0  0  0  0  0  0
   36.4130   27.2060   40.1200 N   0  0  0  0  0  0  0  0  0  0  0  0
  1  6  2  0  0  0  0
  1  2  1  0  0  0  0
  2  3  2  0  0  0  0
  3  4  1  0  0  0  0
  3  9  1  0  0  0  0
  5 10  1  0  0  0  0
  5  4  2  0  0  0  0
  6  5  1  0  0  0  0
  7  1  1  0  0  0  0
  8  2  1  0  0  0  0
 10 11  1  0  0  0  0
 11 12  1  0  0  0  0
 12 14  2  0  0  0  0
 12 13  1  0  0  0  0
 14 15  1  0  0  0  0
 16 14  1  0  0  0  0
 17 16  2  0  0  0  0
 18 17  1  0  0  0  0
 18 11  2  0  0  0  0
M  END
>  <minimizedAffinity>
-3.99814248

$$$$

 OpenBabel03242517513D

 18 19  0  0  0  0  0  0  0  0999 V2000
   36.2680   29.6670   37.7260 C   0  0  0  0  0  0  0  0  0  0  0  0
   35.0300   29.0620   37.4010 C   0  0  0  0  0  0  0  0  0  0  0  0
   34.1360   28.8420   38.4520 C   0  0  0  0  0  0  0  0  0  0  0  0
   34.4800   29.2070   39.7100 N   0  0  0  0  0  0  0  0  0  0  0  0
   35.6810   29.7850   39.9700 C   0  0  0  0  0  0  0  0  0  0  0  0
   36.5470   30.0040   38.9820 N   0  0  0  0  0  0  0  0  0  0  0  0
   36.9290   29.8210   36.8910 H   0  0  0  0  0  0  0  0  0  0  0  0
   34.7120   28.7570   36.4300 H   0  0  0  0  0  0  0  0  0  0  0  0
   33.1860   28.3840   38.2440 H   0  0  0  0  0  0  0  0  0  0  0  0
   36.0730   30.1740   41.2420 O   0  0  0  0  0  0  0  0  0  0  0  0
   36.9150   29.2900   41.9130 C   0  0  0  0  0  0  0  0  0  0  0  0
   36.5520   27.9830   42.2170 C   0  0  0  0  0  0  0  0  0  0  0  0
   35.5640   27.6730   41.9040 H   0  0  0  0  0  0  0  0  0  0  0  0
   37.3590   27.0970   42.8730 C   0  0  0  0  0  0  0  0  0  0  0  0
   37.0650   26.0780   43.1060 H   0  0  0  0  0  0  0  0  0  0  0  0
   38.6190   27.4990   43.2700 C   0  0  0  0  0  3  0  0  0  0  0  0
   38.9740   28.7960   42.9660 C   0  0  0  0  0  3  0  0  0  0  0  0
   38.1620   29.6770   42.3100 N   0  0  0  0  0  0  0  0  0  0  0  0
  1  6  1  0  0  0  0
  2  1  2  0  0  0  0
  2  3  1  0  0  0  0
  3  4  2  0  0  0  0
  4  5  1  0  0  0  0
  5 10  1  0  0  0  0
  6  5  2  0  0  0  0
  7  1  1  0  0  0  0
  8  2  1  0  0  0  0
  9  3  1  0  0  0  0
 10 11  1  0  0  0  0
 11 12  2  0  0  0  0
 11 18  1  0  0  0  0
 12 14  1  0  0  0  0
 13 12  1  0  0  0  0
 14 15  1  0  0  0  0
 14 16  2  0  0  0  0
 17 16  1  0  0  0  0
 18 17  2  0  0  0  0
M  END
>  <minimizedAffinity>
-3.96824169

$$$$

 OpenBabel03242517513D

 18 19  0  0  0  0  0  0  0  0999 V2000
   38.9050   31.1140   41.1300 C   0  0  0  0  0  0  0  0  0  0  0  0
   37.7420   31.4400   40.3890 C   0  0  0  0  0  0  0  0  0  0  0  0
   36.5530   30.8090   40.7660 C   0  0  0  0  0  0  0  0  0  0  0  0
   36.5590   29.9330   41.7970 N   0  0  0  0  0  0  0  0  0  0  0  0
   37.7020   29.6550   42.4770 C   0  0  0  0  0  0  0  0  0  0  0  0
   38.8450   30.2460   42.1340 N   0  0  0  0  0  0  0  0  0  0  0  0
   39.8000   31.6190   40.8110 H   0  0  0  0  0  0  0  0  0  0  0  0
   37.6860   32.1210   39.5710 H   0  0  0  0  0  0  0  0  0  0  0  0
   35.6500   31.0320   40.2270 H   0  0  0  0  0  0  0  0  0  0  0  0
   37.7520   28.7650   43.5380 O   0  0  0  0  0  0  0  0  0  0  0  0
   38.1960   27.4800   43.2320 C   0  0  0  0  0  0  0  0  0  0  0  0
   39.4110   26.9740   43.6800 C   0  0  0  0  0  0  0  0  0  0  0  0
   40.0110   27.6340   44.2900 H   0  0  0  0  0  0  0  0  0  0  0  0
   39.8690   25.7190   43.3930 C   0  0  0  0  0  0  0  0  0  0  0  0
   40.8200   25.3330   43.7480 H   0  0  0  0  0  0  0  0  0  0  0  0
   39.0970   24.8800   42.6130 C   0  0  0  0  0  3  0  0  0  0  0  0
   37.8930   25.3880   42.1720 C   0  0  0  0  0  3  0  0  0  0  0  0
   37.4410   26.6440   42.4610 N   0  0  0  0  0  0  0  0  0  0  0  0
  1  6  1  0  0  0  0
  2  3  1  0  0  0  0
  2  1  2  0  0  0  0
  3  4  2  0  0  0  0
  4  5  1  0  0  0  0
  5 10  1  0  0  0  0
  6  5  2  0  0  0  0
  7  1  1  0  0  0  0
  8  2  1  0  0  0  0
  9  3  1  0  0  0  0
 11 10  1  0  0  0  0
 11 12  1  0  0  0  0
 12 13  1  0  0  0  0
 14 12  2  0  0  0  0
 14 15  1  0  0  0  0
 16 14  1  0  0  0  0
 17 18  1  0  0  0  0
 17 16  2  0  0  0  0
 18 11  2  0  0  0  0
M  END
>  <minimizedAffinity>
-3.93829536

$$$$

 OpenBabel03242517513D

 18 19  0  0  0  0  0  0  0  0999 V2000
   38.6030   25.1120   42.0950 C   0  0  0  0  0  0  0  0  0  0  0  0
   39.7460   25.3690   42.8900 C   0  0  0  0  0  0  0  0  0  0  0  0
   39.7240   26.5230   43.6790 C   0  0  0  0  0  0  0  0  0  0  0  0
   38.6370   27.3300   43.6520 N   0  0  0  0  0  0  0  0  0  0  0  0
   37.5640   27.0380   42.8710 C   0  0  0  0  0  0  0  0  0  0  0  0
   37.5660   25.9430   42.1130 N   0  0  0  0  0  0  0  0  0  0  0  0
   38.6570   24.2150   41.5030 H   0  0  0  0  0  0  0  0  0  0  0  0
   40.6250   24.7670   42.9470 H   0  0  0  0  0  0  0  0  0  0  0  0
   40.5740   26.7510   44.2960 H   0  0  0  0  0  0  0  0  0  0  0  0
   36.4330   27.8370   42.8140 O   0  0  0  0  0  0  0  0  0  0  0  0
   36.4290   28.8130   41.8200 C   0  0  0  0  0  0  0  0  0  0  0  0
   35.5630   28.7810   40.7330 C   0  0  0  0  0  0  0  0  0  0  0  0
   34.8760   27.9480   40.6900 H   0  0  0  0  0  0  0  0  0  0  0  0
   35.5400   29.7250   39.7460 C   0  0  0  0  0  0  0  0  0  0  0  0
   34.8590   29.6910   38.9010 H   0  0  0  0  0  0  0  0  0  0  0  0
   36.4210   30.7880   39.8070 C   0  0  0  0  0  3  0  0  0  0  0  0
   37.2780   30.8130   40.8870 C   0  0  0  0  0  3  0  0  0  0  0  0
   37.2960   29.8660   41.8710 N   0  0  0  0  0  0  0  0  0  0  0  0
  1  6  2  0  0  0  0
  1  2  1  0  0  0  0
  2  8  1  0  0  0  0
  2  3  2  0  0  0  0
  3  9  1  0  0  0  0
  4  3  1  0  0  0  0
  5  4  2  0  0  0  0
  6  5  1  0  0  0  0
  7  1  1  0  0  0  0
 10  5  1  0  0  0  0
 11 18  1  0  0  0  0
 11 10  1  0  0  0  0
 12 11  2  0  0  0  0
 13 12  1  0  0  0  0
 14 16  2  0  0  0  0
 14 12  1  0  0  0  0
 15 14  1  0  0  0  0
 16 17  1  0  0  0  0
 17 18  2  0  0  0  0
M  END
>  <minimizedAffinity>
-3.90445828

$$$$

 OpenBabel03242517513D

 18 19  0  0  0  0  0  0  0  0999 V2000
   37.8370   26.9160   41.9540 C   0  0  0  0  0  0  0  0  0  0  0  0
   37.2420   27.2370   43.1990 C   0  0  0  0  0  0  0  0  0  0  0  0
   37.4270   28.5380   43.6740 C   0  0  0  0  0  0  0  0  0  0  0  0
   38.1500   29.4200   42.9450 N   0  0  0  0  0  0  0  0  0  0  0  0
   38.7010   29.0630   41.7560 C   0  0  0  0  0  0  0  0  0  0  0  0
   38.5360   27.8280   41.2850 N   0  0  0  0  0  0  0  0  0  0  0  0
   37.6720   25.9070   41.6210 H   0  0  0  0  0  0  0  0  0  0  0  0
   36.6650   26.5810   43.8100 H   0  0  0  0  0  0  0  0  0  0  0  0
   36.9900   28.8180   44.6160 H   0  0  0  0  0  0  0  0  0  0  0  0
   39.4480   29.9340   40.9780 O   0  0  0  0  0  0  0  0  0  0  0  0
   38.7870   31.0840   40.5520 C   0  0  0  0  0  0  0  0  0  0  0  0
   37.7070   31.0540   39.6760 C   0  0  0  0  0  0  0  0  0  0  0  0
   37.3940   30.0780   39.3320 H   0  0  0  0  0  0  0  0  0  0  0  0
   37.0430   32.1670   39.2430 C   0  0  0  0  0  0  0  0  0  0  0  0
   36.2000   32.1320   38.5600 H   0  0  0  0  0  0  0  0  0  0  0  0
   37.4470   33.4100   39.6880 C   0  0  0  0  0  3  0  0  0  0  0  0
   38.5190   33.4330   40.5560 C   0  0  0  0  0  3  0  0  0  0  0  0
   39.1800   32.3180   40.9840 N   0  0  0  0  0  0  0  0  0  0  0  0
  1  2  1  0  0  0  0
  2  3  2  0  0  0  0
  2  8  1  0  0  0  0
  3  9  1  0  0  0  0
  4  3  1  0  0  0  0
  5  4  2  0  0  0  0
  6  5  1  0  0  0  0
  6  1  2  0  0  0  0
  7  1  1  0  0  0  0
 10  5  1  0  0  0  0
 11 10  1  0  0  0  0
 11 18  1  0  0  0  0
 12 11  2  0  0  0  0
 13 12  1  0  0  0  0
 14 12  1  0  0  0  0
 14 16  2  0  0  0  0
 15 14  1  0  0  0  0
 16 17  1  0  0  0  0
 17 18  2  0  0  0  0
M  END
>  <minimizedAffinity>
-3.85583162

$$$$

 OpenBabel03242517513D

 18 19  0  0  0  0  0  0  0  0999 V2000
   39.1850   31.2700   38.6150 C   0  0  0  0  0  0  0  0  0  0  0  0
   39.7610   32.5350   38.8870 C   0  0  0  0  0  0  0  0  0  0  0  0
   39.2670   33.2320   39.9930 C   0  0  0  0  0  0  0  0  0  0  0  0
   38.2800   32.6860   40.7420 N   0  0  0  0  0  0  0  0  0  0  0  0
   37.7600   31.4680   40.4380 C   0  0  0  0  0  0  0  0  0  0  0  0
   38.2180   30.7870   39.3890 N   0  0  0  0  0  0  0  0  0  0  0  0
   39.5910   30.7640   37.7570 H   0  0  0  0  0  0  0  0  0  0  0  0
   40.5370   33.0080   38.3300 H   0  0  0  0  0  0  0  0  0  0  0  0
   39.6800   34.1950   40.2310 H   0  0  0  0  0  0  0  0  0  0  0  0
   36.7500   30.8720   41.1780 O   0  0  0  0  0  0  0  0  0  0  0  0
   37.0920   29.6880   41.8260 C   0  0  0  0  0  0  0  0  0  0  0  0
   36.4100   28.4930   41.6260 C   0  0  0  0  0  0  0  0  0  0  0  0
   35.5830   28.5220   40.9310 H   0  0  0  0  0  0  0  0  0  0  0  0
   36.7250   27.3190   42.2490 C   0  0  0  0  0  0  0  0  0  0  0  0
   36.1860   26.3910   42.0860 H   0  0  0  0  0  0  0  0  0  0  0  0
   37.7830   27.2880   43.1370 C   0  0  0  0  0  3  0  0  0  0  0  0
   38.4570   28.4760   43.3300 C   0  0  0  0  0  3  0  0  0  0  0  0
   38.1360   29.6470   42.7050 N   0  0  0  0  0  0  0  0  0  0  0  0
  1  2  2  0  0  0  0
  1  6  1  0  0  0  0
  2  3  1  0  0  0  0
  3  9  1  0  0  0  0
  3  4  2  0  0  0  0
  5  4  1  0  0  0  0
  5 10  1  0  0  0  0
  6  5  2  0  0  0  0
  7  1  1  0  0  0  0
  8  2  1  0  0  0  0
 10 11  1  0  0  0  0
 11 18  1  0  0  0  0
 12 11  2  0  0  0  0
 12 14  1  0  0  0  0
 13 12  1  0  0  0  0
 14 16  2  0  0  0  0
 15 14  1  0  0  0  0
 16 17  1  0  0  0  0
 18 17  2  0  0  0  0
M  END
>  <minimizedAffinity>
-3.82835579

$$$$

 OpenBabel03242517513D

 18 19  0  0  0  0  0  0  0  0999 V2000
   39.2690   25.4010   40.9230 C   0  0  0  0  0  0  0  0  0  0  0  0
   38.6260   24.1390   40.9190 C   0  0  0  0  0  0  0  0  0  0  0  0
   37.4120   24.0430   41.6060 C   0  0  0  0  0  0  0  0  0  0  0  0
   36.9110   25.1320   42.2340 N   0  0  0  0  0  0  0  0  0  0  0  0
   37.5670   26.3220   42.2080 C   0  0  0  0  0  0  0  0  0  0  0  0
   38.7240   26.4340   41.5580 N   0  0  0  0  0  0  0  0  0  0  0  0
   40.1990   25.4360   40.3840 H   0  0  0  0  0  0  0  0  0  0  0  0
   38.9780   23.2530   40.4420 H   0  0  0  0  0  0  0  0  0  0  0  0
   36.8960   23.1000   41.6250 H   0  0  0  0  0  0  0  0  0  0  0  0
   37.0890   27.4610   42.8370 O   0  0  0  0  0  0  0  0  0  0  0  0
   36.8030   28.5380   42.0020 C   0  0  0  0  0  0  0  0  0  0  0  0
   35.7690   28.5200   41.0720 C   0  0  0  0  0  0  0  0  0  0  0  0
   35.1830   27.6130   41.0230 H   0  0  0  0  0  0  0  0  0  0  0  0
   35.4680   29.5630   40.2420 C   0  0  0  0  0  0  0  0  0  0  0  0
   34.6580   29.5380   39.5190 H   0  0  0  0  0  0  0  0  0  0  0  0
   36.2210   30.7190   40.3100 C   0  0  0  0  0  3  0  0  0  0  0  0
   37.2450   30.7310   41.2340 C   0  0  0  0  0  3  0  0  0  0  0  0
   37.5410   29.6850   42.0610 N   0  0  0  0  0  0  0  0  0  0  0  0
  1  6  1  0  0  0  0
  2  1  2  0  0  0  0
  2  3  1  0  0  0  0
  3  9  1  0  0  0  0
  3  4  2  0  0  0  0
  5  4  1  0  0  0  0
  5 10  1  0  0  0  0
  6  5  2  0  0  0  0
  7  1  1  0  0  0  0
  8  2  1  0  0  0  0
 11 18  1  0  0  0  0
 11 10  1  0  0  0  0
 12 11  2  0  0  0  0
 13 12  1  0  0  0  0
 14 16  2  0  0  0  0
 14 12  1  0  0  0  0
 15 14  1  0  0  0  0
 16 17  1  0  0  0  0
 17 18  2  0  0  0  0
M  END
>  <minimizedAffinity>
-3.73979688

$$$$
