
 OpenBabel03252509283D

 20 21  0  0  0  0  0  0  0  0999 V2000
   44.0440   35.8590   41.7120 C   0  0  0  0  0  0  0  0  0  0  0  0
   44.8190   35.6620   40.9560 H   0  0  0  0  0  0  0  0  0  0  0  0
   43.9360   36.9640   41.8900 H   0  0  0  0  0  0  0  0  0  0  0  0
   45.3570   33.3910   44.1680 C   0  0  0  0  0  0  0  0  0  0  0  0
   44.9740   33.9680   42.9440 C   0  0  0  0  0  0  0  0  0  0  0  0
   44.4460   35.2480   42.9760 C   0  0  0  0  0  0  0  0  0  0  0  0
   44.3190   35.8900   44.1850 N   0  0  0  0  0  0  0  0  0  0  0  0
   44.7100   35.2760   45.3400 C   0  0  0  0  0  0  0  0  0  0  0  0
   45.2220   34.0420   45.3320 N   0  0  0  0  0  0  0  0  0  0  0  0
   45.7670   32.3870   44.0950 H   0  0  0  0  0  0  0  0  0  0  0  0
   45.0870   33.4370   42.0080 H   0  0  0  0  0  0  0  0  0  0  0  0
   44.5500   35.9020   46.2120 H   0  0  0  0  0  0  0  0  0  0  0  0
   42.7540   35.3640   41.1860 C   0  0  0  0  0  0  0  0  0  0  0  0
   41.5300   35.4320   41.8140 C   0  0  0  0  0  0  0  0  0  0  0  0
   41.5340   35.9050   42.8070 H   0  0  0  0  0  0  0  0  0  0  0  0
   40.3740   34.9440   41.2470 C   0  0  0  0  0  0  0  0  0  0  0  0
   39.4440   35.0420   41.8220 H   0  0  0  0  0  0  0  0  0  0  0  0
   40.3880   34.3520   39.9960 C   0  0  0  0  0  3  0  0  0  0  0  0
   41.6310   34.2980   39.3910 C   0  0  0  0  0  3  0  0  0  0  0  0
   42.7410   34.7800   39.9640 N   0  0  0  0  0  0  0  0  0  0  0  0
  1  3  1  0  0  0  0
  1  6  1  0  0  0  0
  2  1  1  0  0  0  0
  4  9  1  0  0  0  0
  5  6  1  0  0  0  0
  5  4  2  0  0  0  0
  6  7  2  0  0  0  0
  7  8  1  0  0  0  0
  8 12  1  0  0  0  0
  9  8  2  0  0  0  0
 10  4  1  0  0  0  0
 11  5  1  0  0  0  0
 13  1  1  0  0  0  0
 13 14  1  0  0  0  0
 14 15  1  0  0  0  0
 16 14  2  0  0  0  0
 16 17  1  0  0  0  0
 18 16  1  0  0  0  0
 19 20  1  0  0  0  0
 19 18  2  0  0  0  0
 20 13  2  0  0  0  0
M  END
>  <minimizedAffinity>
-4.08050823

>  <minimizedRMSD>
5.94564295

$$$$
