
 OpenBabel03252509303D

 20 21  0  0  0  0  0  0  0  0999 V2000
   37.6940   28.4090   43.6730 C   0  0  0  0  0  0  0  0  0  0  0  0
   36.6690   28.4890   44.0680 H   0  0  0  0  0  0  0  0  0  0  0  0
   38.4470   28.5610   44.4940 H   0  0  0  0  0  0  0  0  0  0  0  0
   39.3340   31.0870   41.6770 C   0  0  0  0  0  0  0  0  0  0  0  0
   39.1450   30.0740   42.6350 C   0  0  0  0  0  0  0  0  0  0  0  0
   37.9050   29.4610   42.6830 C   0  0  0  0  0  0  0  0  0  0  0  0
   36.9250   29.8630   41.8060 N   0  0  0  0  0  0  0  0  0  0  0  0
   37.1710   30.8520   40.8980 C   0  0  0  0  0  0  0  0  0  0  0  0
   38.3600   31.4570   40.8340 N   0  0  0  0  0  0  0  0  0  0  0  0
   40.3230   31.5390   41.6750 H   0  0  0  0  0  0  0  0  0  0  0  0
   39.9360   29.7800   43.3120 H   0  0  0  0  0  0  0  0  0  0  0  0
   36.3070   31.0620   40.2750 H   0  0  0  0  0  0  0  0  0  0  0  0
   37.8780   27.0400   43.1480 C   0  0  0  0  0  0  0  0  0  0  0  0
   36.9340   26.2740   42.5010 C   0  0  0  0  0  0  0  0  0  0  0  0
   35.9480   26.7470   42.3730 H   0  0  0  0  0  0  0  0  0  0  0  0
   37.1930   25.0020   42.0440 C   0  0  0  0  0  0  0  0  0  0  0  0
   36.3790   24.4670   41.5400 H   0  0  0  0  0  0  0  0  0  0  0  0
   38.4380   24.4230   42.2150 C   0  0  0  0  0  3  0  0  0  0  0  0
   39.3660   25.2160   42.8680 C   0  0  0  0  0  3  0  0  0  0  0  0
   39.0880   26.4500   43.3030 N   0  0  0  0  0  0  0  0  0  0  0  0
  1  2  1  0  0  0  0
  1  3  1  0  0  0  0
  4  5  1  0  0  0  0
  5  6  2  0  0  0  0
  5 11  1  0  0  0  0
  6  1  1  0  0  0  0
  7  6  1  0  0  0  0
  8  7  2  0  0  0  0
  9  8  1  0  0  0  0
  9  4  2  0  0  0  0
 10  4  1  0  0  0  0
 12  8  1  0  0  0  0
 13 20  1  0  0  0  0
 13  1  1  0  0  0  0
 14 13  2  0  0  0  0
 15 14  1  0  0  0  0
 16 18  2  0  0  0  0
 16 14  1  0  0  0  0
 17 16  1  0  0  0  0
 18 19  1  0  0  0  0
 19 20  2  0  0  0  0
M  END
>  <minimizedAffinity>
-4.2050848

$$$$

 OpenBabel03252509303D

 20 21  0  0  0  0  0  0  0  0999 V2000
   37.7010   28.4640   43.6560 C   0  0  0  0  0  0  0  0  0  0  0  0
   36.6160   28.3430   43.8030 H   0  0  0  0  0  0  0  0  0  0  0  0
   38.1930   28.8020   44.6090 H   0  0  0  0  0  0  0  0  0  0  0  0
   39.4090   31.0420   41.5880 C   0  0  0  0  0  0  0  0  0  0  0  0
   39.1990   30.0470   42.5600 C   0  0  0  0  0  0  0  0  0  0  0  0
   37.9330   29.4970   42.6510 C   0  0  0  0  0  0  0  0  0  0  0  0
   36.9470   29.9400   41.8000 N   0  0  0  0  0  0  0  0  0  0  0  0
   37.2140   30.9090   40.8760 C   0  0  0  0  0  0  0  0  0  0  0  0
   38.4290   31.4530   40.7710 N   0  0  0  0  0  0  0  0  0  0  0  0
   40.4180   31.4440   41.5520 H   0  0  0  0  0  0  0  0  0  0  0  0
   39.9950   29.7190   43.2150 H   0  0  0  0  0  0  0  0  0  0  0  0
   36.3430   31.1560   40.2770 H   0  0  0  0  0  0  0  0  0  0  0  0
   38.2660   27.1440   43.3080 C   0  0  0  0  0  0  0  0  0  0  0  0
   39.5000   26.6540   43.6760 C   0  0  0  0  0  0  0  0  0  0  0  0
   40.1110   27.3310   44.2930 H   0  0  0  0  0  0  0  0  0  0  0  0
   39.9490   25.4080   43.3040 C   0  0  0  0  0  0  0  0  0  0  0  0
   40.9450   25.1030   43.6450 H   0  0  0  0  0  0  0  0  0  0  0  0
   39.1650   24.5710   42.5280 C   0  0  0  0  0  3  0  0  0  0  0  0
   37.9320   25.0890   42.1730 C   0  0  0  0  0  3  0  0  0  0  0  0
   37.5200   26.3060   42.5480 N   0  0  0  0  0  0  0  0  0  0  0  0
  1  2  1  0  0  0  0
  1  3  1  0  0  0  0
  4  5  1  0  0  0  0
  5  6  2  0  0  0  0
  5 11  1  0  0  0  0
  6  1  1  0  0  0  0
  7  6  1  0  0  0  0
  8  7  2  0  0  0  0
  9  8  1  0  0  0  0
  9  4  2  0  0  0  0
 10  4  1  0  0  0  0
 12  8  1  0  0  0  0
 13  1  1  0  0  0  0
 13 14  1  0  0  0  0
 14 15  1  0  0  0  0
 16 17  1  0  0  0  0
 16 14  2  0  0  0  0
 18 16  1  0  0  0  0
 19 18  2  0  0  0  0
 19 20  1  0  0  0  0
 20 13  2  0  0  0  0
M  END
>  <minimizedAffinity>
-4.15518093

$$$$

 OpenBabel03252509303D

 20 21  0  0  0  0  0  0  0  0999 V2000
   35.3590   29.2770   40.4090 C   0  0  0  0  0  0  0  0  0  0  0  0
   34.7700   28.8940   39.5610 H   0  0  0  0  0  0  0  0  0  0  0  0
   34.6810   29.6850   41.2090 H   0  0  0  0  0  0  0  0  0  0  0  0
   37.3550   31.4800   38.1710 C   0  0  0  0  0  0  0  0  0  0  0  0
   36.5420   30.4160   38.6040 C   0  0  0  0  0  0  0  0  0  0  0  0
   36.2020   30.3750   39.9450 C   0  0  0  0  0  0  0  0  0  0  0  0
   36.6670   31.3600   40.7850 N   0  0  0  0  0  0  0  0  0  0  0  0
   37.4530   32.3670   40.3030 C   0  0  0  0  0  0  0  0  0  0  0  0
   37.7930   32.4260   39.0130 N   0  0  0  0  0  0  0  0  0  0  0  0
   37.5950   31.4710   37.1110 H   0  0  0  0  0  0  0  0  0  0  0  0
   36.1910   29.6560   37.9190 H   0  0  0  0  0  0  0  0  0  0  0  0
   37.7430   33.0680   41.0790 H   0  0  0  0  0  0  0  0  0  0  0  0
   36.1080   28.1460   40.9950 C   0  0  0  0  0  0  0  0  0  0  0  0
   36.5000   28.0120   42.3090 C   0  0  0  0  0  0  0  0  0  0  0  0
   36.2170   28.8420   42.9730 H   0  0  0  0  0  0  0  0  0  0  0  0
   37.2000   26.9200   42.7690 C   0  0  0  0  0  0  0  0  0  0  0  0
   37.4690   26.8990   43.8320 H   0  0  0  0  0  0  0  0  0  0  0  0
   37.5480   25.8850   41.9180 C   0  0  0  0  0  3  0  0  0  0  0  0
   37.1410   26.0480   40.6050 C   0  0  0  0  0  3  0  0  0  0  0  0
   36.4620   27.1210   40.1820 N   0  0  0  0  0  0  0  0  0  0  0  0
  1 13  1  0  0  0  0
  1  3  1  0  0  0  0
  2  1  1  0  0  0  0
  4  5  2  0  0  0  0
  4  9  1  0  0  0  0
  5  6  1  0  0  0  0
  6  1  1  0  0  0  0
  6  7  2  0  0  0  0
  8  7  1  0  0  0  0
  8 12  1  0  0  0  0
  9  8  2  0  0  0  0
 10  4  1  0  0  0  0
 11  5  1  0  0  0  0
 13 14  1  0  0  0  0
 14 16  2  0  0  0  0
 14 15  1  0  0  0  0
 16 17  1  0  0  0  0
 18 16  1  0  0  0  0
 19 18  2  0  0  0  0
 20 19  1  0  0  0  0
 20 13  2  0  0  0  0
M  END
>  <minimizedAffinity>
-4.12193871

$$$$

 OpenBabel03252509303D

 20 21  0  0  0  0  0  0  0  0999 V2000
   35.5630   29.0090   40.7820 C   0  0  0  0  0  0  0  0  0  0  0  0
   34.8630   29.4330   41.5190 H   0  0  0  0  0  0  0  0  0  0  0  0
   35.0090   28.4070   40.0110 H   0  0  0  0  0  0  0  0  0  0  0  0
   37.7710   26.0950   41.4750 C   0  0  0  0  0  0  0  0  0  0  0  0
   36.8840   26.9570   40.8050 C   0  0  0  0  0  0  0  0  0  0  0  0
   36.4840   28.1060   41.4660 C   0  0  0  0  0  0  0  0  0  0  0  0
   36.9620   28.3510   42.7320 N   0  0  0  0  0  0  0  0  0  0  0  0
   37.8220   27.4750   43.3300 C   0  0  0  0  0  0  0  0  0  0  0  0
   38.2210   26.3610   42.7100 N   0  0  0  0  0  0  0  0  0  0  0  0
   38.0590   25.2080   40.9180 H   0  0  0  0  0  0  0  0  0  0  0  0
   36.5260   26.7370   39.8080 H   0  0  0  0  0  0  0  0  0  0  0  0
   38.1120   27.7980   44.3240 H   0  0  0  0  0  0  0  0  0  0  0  0
   36.2250   30.1290   40.0820 C   0  0  0  0  0  0  0  0  0  0  0  0
   36.5170   30.2000   38.7370 C   0  0  0  0  0  0  0  0  0  0  0  0
   36.2200   29.3230   38.1420 H   0  0  0  0  0  0  0  0  0  0  0  0
   37.1400   31.2860   38.1670 C   0  0  0  0  0  0  0  0  0  0  0  0
   37.3320   31.2540   37.0870 H   0  0  0  0  0  0  0  0  0  0  0  0
   37.5070   32.3800   38.9310 C   0  0  0  0  0  3  0  0  0  0  0  0
   37.2010   32.2810   40.2770 C   0  0  0  0  0  3  0  0  0  0  0  0
   36.5950   31.2120   40.8070 N   0  0  0  0  0  0  0  0  0  0  0  0
  1  6  1  0  0  0  0
  1  2  1  0  0  0  0
  3  1  1  0  0  0  0
  4  9  1  0  0  0  0
  5  6  1  0  0  0  0
  5  4  2  0  0  0  0
  6  7  2  0  0  0  0
  7  8  1  0  0  0  0
  8 12  1  0  0  0  0
  9  8  2  0  0  0  0
 10  4  1  0  0  0  0
 11  5  1  0  0  0  0
 13  1  1  0  0  0  0
 13 20  1  0  0  0  0
 14 13  2  0  0  0  0
 15 14  1  0  0  0  0
 16 14  1  0  0  0  0
 16 18  2  0  0  0  0
 17 16  1  0  0  0  0
 18 19  1  0  0  0  0
 19 20  2  0  0  0  0
M  END
>  <minimizedAffinity>
-4.09616804

$$$$

 OpenBabel03252509303D

 20 21  0  0  0  0  0  0  0  0999 V2000
   35.6840   29.4580   40.5170 C   0  0  0  0  0  0  0  0  0  0  0  0
   34.9900   30.1210   41.0560 H   0  0  0  0  0  0  0  0  0  0  0  0
   35.1200   28.6430   39.9860 H   0  0  0  0  0  0  0  0  0  0  0  0
   37.6020   26.8440   42.3430 C   0  0  0  0  0  0  0  0  0  0  0  0
   36.7390   27.4460   41.4090 C   0  0  0  0  0  0  0  0  0  0  0  0
   36.5770   28.8190   41.4800 C   0  0  0  0  0  0  0  0  0  0  0  0
   37.2540   29.5250   42.4470 N   0  0  0  0  0  0  0  0  0  0  0  0
   38.0780   28.8820   43.3250 C   0  0  0  0  0  0  0  0  0  0  0  0
   38.2500   27.5580   43.2740 N   0  0  0  0  0  0  0  0  0  0  0  0
   37.6990   25.7650   42.2490 H   0  0  0  0  0  0  0  0  0  0  0  0
   36.2200   26.8640   40.6590 H   0  0  0  0  0  0  0  0  0  0  0  0
   38.5420   29.5650   44.0280 H   0  0  0  0  0  0  0  0  0  0  0  0
   36.3790   30.2600   39.4890 C   0  0  0  0  0  0  0  0  0  0  0  0
   36.8140   31.5620   39.6160 C   0  0  0  0  0  0  0  0  0  0  0  0
   36.6120   32.0340   40.5890 H   0  0  0  0  0  0  0  0  0  0  0  0
   37.4540   32.2350   38.6010 C   0  0  0  0  0  0  0  0  0  0  0  0
   37.7650   33.2690   38.7940 H   0  0  0  0  0  0  0  0  0  0  0  0
   37.6990   31.6250   37.3840 C   0  0  0  0  0  3  0  0  0  0  0  0
   37.2520   30.3190   37.2850 C   0  0  0  0  0  3  0  0  0  0  0  0
   36.6300   29.6860   38.2870 N   0  0  0  0  0  0  0  0  0  0  0  0
  1  2  1  0  0  0  0
  1  6  1  0  0  0  0
  3  1  1  0  0  0  0
  4  9  1  0  0  0  0
  5  6  1  0  0  0  0
  5  4  2  0  0  0  0
  6  7  2  0  0  0  0
  7  8  1  0  0  0  0
  8 12  1  0  0  0  0
  9  8  2  0  0  0  0
 10  4  1  0  0  0  0
 11  5  1  0  0  0  0
 13 14  1  0  0  0  0
 13  1  1  0  0  0  0
 14 15  1  0  0  0  0
 16 17  1  0  0  0  0
 16 14  2  0  0  0  0
 18 16  1  0  0  0  0
 19 18  2  0  0  0  0
 19 20  1  0  0  0  0
 20 13  2  0  0  0  0
M  END
>  <minimizedAffinity>
-4.05717611

$$$$

 OpenBabel03252509303D

 20 21  0  0  0  0  0  0  0  0999 V2000
   36.5740   27.6470   42.9450 C   0  0  0  0  0  0  0  0  0  0  0  0
   36.5380   28.1950   43.9000 H   0  0  0  0  0  0  0  0  0  0  0  0
   35.6630   26.9980   42.8270 H   0  0  0  0  0  0  0  0  0  0  0  0
   38.8270   24.7860   42.1790 C   0  0  0  0  0  0  0  0  0  0  0  0
   37.6960   25.6230   42.1700 C   0  0  0  0  0  0  0  0  0  0  0  0
   37.7410   26.7690   42.9450 C   0  0  0  0  0  0  0  0  0  0  0  0
   38.8720   27.0370   43.6800 N   0  0  0  0  0  0  0  0  0  0  0  0
   39.9380   26.1850   43.6460 C   0  0  0  0  0  0  0  0  0  0  0  0
   39.9160   25.0730   42.9060 N   0  0  0  0  0  0  0  0  0  0  0  0
   38.7470   23.8990   41.5560 H   0  0  0  0  0  0  0  0  0  0  0  0
   36.8210   25.3850   41.5810 H   0  0  0  0  0  0  0  0  0  0  0  0
   40.7550   26.5250   44.2740 H   0  0  0  0  0  0  0  0  0  0  0  0
   36.5620   28.6360   41.8480 C   0  0  0  0  0  0  0  0  0  0  0  0
   35.8230   28.5670   40.6870 C   0  0  0  0  0  0  0  0  0  0  0  0
   35.1840   27.6770   40.5860 H   0  0  0  0  0  0  0  0  0  0  0  0
   35.8750   29.5380   39.7130 C   0  0  0  0  0  0  0  0  0  0  0  0
   35.2500   29.3980   38.8220 H   0  0  0  0  0  0  0  0  0  0  0  0
   36.6850   30.6510   39.8570 C   0  0  0  0  0  3  0  0  0  0  0  0
   37.4150   30.6920   41.0320 C   0  0  0  0  0  3  0  0  0  0  0  0
   37.3480   29.7340   41.9640 N   0  0  0  0  0  0  0  0  0  0  0  0
  1  2  1  0  0  0  0
  3  1  1  0  0  0  0
  4  9  1  0  0  0  0
  5  4  2  0  0  0  0
  5  6  1  0  0  0  0
  6  1  1  0  0  0  0
  6  7  2  0  0  0  0
  8  7  1  0  0  0  0
  8 12  1  0  0  0  0
  9  8  2  0  0  0  0
 10  4  1  0  0  0  0
 11  5  1  0  0  0  0
 13 20  1  0  0  0  0
 13  1  1  0  0  0  0
 14 13  2  0  0  0  0
 15 14  1  0  0  0  0
 16 18  2  0  0  0  0
 16 14  1  0  0  0  0
 17 16  1  0  0  0  0
 18 19  1  0  0  0  0
 19 20  2  0  0  0  0
M  END
>  <minimizedAffinity>
-4.02246761

$$$$

 OpenBabel03252509303D

 20 21  0  0  0  0  0  0  0  0999 V2000
   39.3810   29.9320   40.8610 C   0  0  0  0  0  0  0  0  0  0  0  0
   40.2990   30.1070   41.4420 H   0  0  0  0  0  0  0  0  0  0  0  0
   39.6140   29.3860   39.9060 H   0  0  0  0  0  0  0  0  0  0  0  0
   38.7490   33.5970   40.7170 C   0  0  0  0  0  0  0  0  0  0  0  0
   39.3220   32.3630   41.0750 C   0  0  0  0  0  0  0  0  0  0  0  0
   38.7960   31.2200   40.4980 C   0  0  0  0  0  0  0  0  0  0  0  0
   37.7490   31.3380   39.6140 N   0  0  0  0  0  0  0  0  0  0  0  0
   37.2360   32.5650   39.3070 C   0  0  0  0  0  0  0  0  0  0  0  0
   37.7290   33.6810   39.8510 N   0  0  0  0  0  0  0  0  0  0  0  0
   39.1950   34.4660   41.1940 H   0  0  0  0  0  0  0  0  0  0  0  0
   40.1460   32.3030   41.7740 H   0  0  0  0  0  0  0  0  0  0  0  0
   36.4170   32.5020   38.5980 H   0  0  0  0  0  0  0  0  0  0  0  0
   38.4890   29.0680   41.6610 C   0  0  0  0  0  0  0  0  0  0  0  0
   38.2360   29.1730   43.0120 C   0  0  0  0  0  0  0  0  0  0  0  0
   38.7630   29.9900   43.5280 H   0  0  0  0  0  0  0  0  0  0  0  0
   37.3880   28.3200   43.6800 C   0  0  0  0  0  0  0  0  0  0  0  0
   37.2480   28.4810   44.7550 H   0  0  0  0  0  0  0  0  0  0  0  0
   36.7350   27.2980   43.0130 C   0  0  0  0  0  3  0  0  0  0  0  0
   37.0070   27.2170   41.6590 C   0  0  0  0  0  3  0  0  0  0  0  0
   37.8380   28.0600   41.0330 N   0  0  0  0  0  0  0  0  0  0  0  0
  1  2  1  0  0  0  0
  1 13  1  0  0  0  0
  3  1  1  0  0  0  0
  4  5  1  0  0  0  0
  4 10  1  0  0  0  0
  5 11  1  0  0  0  0
  6  1  1  0  0  0  0
  6  5  2  0  0  0  0
  7  6  1  0  0  0  0
  8  7  2  0  0  0  0
  8  9  1  0  0  0  0
  9  4  2  0  0  0  0
 12  8  1  0  0  0  0
 13 14  1  0  0  0  0
 14 15  1  0  0  0  0
 14 16  2  0  0  0  0
 16 17  1  0  0  0  0
 18 16  1  0  0  0  0
 19 18  2  0  0  0  0
 20 19  1  0  0  0  0
 20 13  2  0  0  0  0
M  END
>  <minimizedAffinity>
-3.98731661

$$$$

 OpenBabel03252509303D

 20 21  0  0  0  0  0  0  0  0999 V2000
   37.7320   29.2360   39.7000 C   0  0  0  0  0  0  0  0  0  0  0  0
   38.4840   28.6810   39.1180 H   0  0  0  0  0  0  0  0  0  0  0  0
   36.7120   29.1190   39.2410 H   0  0  0  0  0  0  0  0  0  0  0  0
   37.4220   32.9300   40.0170 C   0  0  0  0  0  0  0  0  0  0  0  0
   37.0880   31.5640   40.0460 C   0  0  0  0  0  0  0  0  0  0  0  0
   38.0660   30.6570   39.6750 C   0  0  0  0  0  0  0  0  0  0  0  0
   39.3040   31.1230   39.2990 N   0  0  0  0  0  0  0  0  0  0  0  0
   39.5670   32.4630   39.2920 C   0  0  0  0  0  0  0  0  0  0  0  0
   38.6380   33.3550   39.6460 N   0  0  0  0  0  0  0  0  0  0  0  0
   36.6240   33.6050   40.3170 H   0  0  0  0  0  0  0  0  0  0  0  0
   36.1050   31.2280   40.3470 H   0  0  0  0  0  0  0  0  0  0  0  0
   40.5810   32.6800   38.9740 H   0  0  0  0  0  0  0  0  0  0  0  0
   37.6800   28.6510   41.0560 C   0  0  0  0  0  0  0  0  0  0  0  0
   36.5680   28.1380   41.6880 C   0  0  0  0  0  0  0  0  0  0  0  0
   35.6350   28.1770   41.1070 H   0  0  0  0  0  0  0  0  0  0  0  0
   36.6110   27.6120   42.9590 C   0  0  0  0  0  0  0  0  0  0  0  0
   35.6750   27.2260   43.3810 H   0  0  0  0  0  0  0  0  0  0  0  0
   37.7950   27.5720   43.6750 C   0  0  0  0  0  3  0  0  0  0  0  0
   38.8930   28.0940   43.0160 C   0  0  0  0  0  3  0  0  0  0  0  0
   38.8250   28.6010   41.7790 N   0  0  0  0  0  0  0  0  0  0  0  0
  1 13  1  0  0  0  0
  2  1  1  0  0  0  0
  3  1  1  0  0  0  0
  4  5  1  0  0  0  0
  4 10  1  0  0  0  0
  5 11  1  0  0  0  0
  6  1  1  0  0  0  0
  6  5  2  0  0  0  0
  7  6  1  0  0  0  0
  8  7  2  0  0  0  0
  8  9  1  0  0  0  0
  9  4  2  0  0  0  0
 12  8  1  0  0  0  0
 13 14  2  0  0  0  0
 13 20  1  0  0  0  0
 14 16  1  0  0  0  0
 15 14  1  0  0  0  0
 16 17  1  0  0  0  0
 16 18  2  0  0  0  0
 19 18  1  0  0  0  0
 20 19  2  0  0  0  0
M  END
>  <minimizedAffinity>
-3.7864275

$$$$

 OpenBabel03252509303D

 20 21  0  0  0  0  0  0  0  0999 V2000
   39.4530   29.8420   41.6420 C   0  0  0  0  0  0  0  0  0  0  0  0
   40.1330   29.4000   40.8970 H   0  0  0  0  0  0  0  0  0  0  0  0
   40.0310   30.2120   42.5330 H   0  0  0  0  0  0  0  0  0  0  0  0
   37.4790   26.6920   41.8090 C   0  0  0  0  0  0  0  0  0  0  0  0
   38.3730   27.6740   41.3440 C   0  0  0  0  0  0  0  0  0  0  0  0
   38.5290   28.8140   42.1130 C   0  0  0  0  0  0  0  0  0  0  0  0
   37.8140   28.9370   43.2820 N   0  0  0  0  0  0  0  0  0  0  0  0
   36.9620   27.9480   43.6800 C   0  0  0  0  0  0  0  0  0  0  0  0
   36.7960   26.8390   42.9530 N   0  0  0  0  0  0  0  0  0  0  0  0
   37.3900   25.8150   41.1730 H   0  0  0  0  0  0  0  0  0  0  0  0
   38.9220   27.5490   40.4200 H   0  0  0  0  0  0  0  0  0  0  0  0
   36.4690   28.1830   44.6170 H   0  0  0  0  0  0  0  0  0  0  0  0
   38.7930   31.0100   41.0240 C   0  0  0  0  0  0  0  0  0  0  0  0
   37.6480   30.9970   40.2570 C   0  0  0  0  0  0  0  0  0  0  0  0
   37.1950   30.0060   40.1010 H   0  0  0  0  0  0  0  0  0  0  0  0
   37.1000   32.1390   39.7170 C   0  0  0  0  0  0  0  0  0  0  0  0
   36.1860   32.0310   39.1210 H   0  0  0  0  0  0  0  0  0  0  0  0
   37.6840   33.3760   39.9240 C   0  0  0  0  0  3  0  0  0  0  0  0
   38.8320   33.3580   40.6970 C   0  0  0  0  0  3  0  0  0  0  0  0
   39.3450   32.2330   41.2100 N   0  0  0  0  0  0  0  0  0  0  0  0
  1  6  1  0  0  0  0
  1  3  1  0  0  0  0
  2  1  1  0  0  0  0
  4  9  1  0  0  0  0
  5  4  2  0  0  0  0
  5  6  1  0  0  0  0
  6  7  2  0  0  0  0
  7  8  1  0  0  0  0
  8 12  1  0  0  0  0
  9  8  2  0  0  0  0
 10  4  1  0  0  0  0
 11  5  1  0  0  0  0
 13 20  1  0  0  0  0
 13  1  1  0  0  0  0
 14 13  2  0  0  0  0
 15 14  1  0  0  0  0
 16 18  2  0  0  0  0
 16 14  1  0  0  0  0
 17 16  1  0  0  0  0
 18 19  1  0  0  0  0
 19 20  2  0  0  0  0
M  END
>  <minimizedAffinity>
-3.78075027

$$$$
