
 OpenBabel03242517503D

 18 19  0  0  0  0  0  0  0  0999 V2000
   44.7190   35.9410   44.4060 C   0  0  0  0  0  0  0  0  0  0  0  0
   45.4610   35.2150   43.4430 C   0  0  0  0  0  0  0  0  0  0  0  0
   45.9710   33.9750   43.8370 C   0  0  0  0  0  0  0  0  0  0  0  0
   45.7430   33.5270   45.0940 N   0  0  0  0  0  0  0  0  0  0  0  0
   45.0240   34.2630   45.9820 C   0  0  0  0  0  0  0  0  0  0  0  0
   44.5280   35.4460   45.6250 N   0  0  0  0  0  0  0  0  0  0  0  0
   44.3420   36.8890   44.0660 H   0  0  0  0  0  0  0  0  0  0  0  0
   45.6680   35.5220   42.4430 H   0  0  0  0  0  0  0  0  0  0  0  0
   46.5390   33.3950   43.1330 H   0  0  0  0  0  0  0  0  0  0  0  0
   44.7670   33.8420   47.2780 O   0  0  0  0  0  0  0  0  0  0  0  0
   45.5410   32.7770   47.7340 C   0  0  0  0  0  0  0  0  0  0  0  0
   44.9920   31.6090   48.2500 C   0  0  0  0  0  0  0  0  0  0  0  0
   43.9120   31.5600   48.2850 H   0  0  0  0  0  0  0  0  0  0  0  0
   45.7290   30.5520   48.7030 C   0  0  0  0  0  0  0  0  0  0  0  0
   45.2890   29.6440   49.1050 H   0  0  0  0  0  0  0  0  0  0  0  0
   47.1080   30.6210   48.6560 C   0  0  0  0  0  0  0  0  0  0  0  0
   47.6470   31.7820   48.1430 C   0  0  0  0  0  0  0  0  0  0  0  0
   46.9050   32.8360   47.6920 N   0  0  0  0  0  0  0  0  0  0  0  0
  1  6  1  0  0  0  0
  2  3  1  0  0  0  0
  2  1  2  0  0  0  0
  3  4  2  0  0  0  0
  4  5  1  0  0  0  0
  5 10  1  0  0  0  0
  6  5  2  0  0  0  0
  7  1  1  0  0  0  0
  8  2  1  0  0  0  0
  9  3  1  0  0  0  0
 10 11  1  0  0  0  0
 11 12  1  0  0  0  0
 12 13  1  0  0  0  0
 12 14  2  0  0  0  0
 14 15  1  0  0  0  0
 16 14  1  0  0  0  0
 17 16  2  0  0  0  0
 18 11  2  0  0  0  0
 18 17  1  0  0  0  0
M  END
>  <minimizedAffinity>
-4.29122877

>  <minimizedRMSD>
0.83043462

$$$$
