
 OpenBabel03252501363D

 24 25  0  0  0  0  0  0  0  0999 V2000
   38.2300   29.1460   42.6690 C   0  0  0  0  0  0  0  0  0  0  0  0
   38.7290   30.3130   42.7910 O   0  0  0  0  0  0  0  0  0  0  0  0
   37.6400   28.9130   41.3860 N   0  0  0  0  0  0  0  0  0  0  0  0
   37.2080   28.0140   41.1440 H   0  0  0  0  0  0  0  0  0  0  0  0
   37.7860   30.1330   40.5940 C   0  0  0  0  0  0  0  0  0  0  0  0
   36.8630   31.1470   40.5580 C   0  0  0  0  0  0  0  0  0  0  0  0
   37.1720   32.2360   39.7460 C   0  0  0  0  0  0  0  0  0  0  0  0
   38.3350   32.1980   39.0780 N   0  0  0  0  0  0  0  0  0  0  0  0
   39.2130   31.1910   39.1360 C   0  0  0  0  0  0  0  0  0  0  0  0
   38.9450   30.1140   39.9150 N   0  0  0  0  0  0  0  0  0  0  0  0
   36.4490   33.0390   39.7140 H   0  0  0  0  0  0  0  0  0  0  0  0
   40.1300   31.2370   38.5650 H   0  0  0  0  0  0  0  0  0  0  0  0
   35.6990   31.0020   41.3360 N   0  0  0  0  0  0  0  0  0  0  0  0
   34.8600   30.3870   41.2890 H   0  0  0  0  0  0  0  0  0  0  0  0
   35.4010   31.5200   42.1930 H   0  0  0  0  0  0  0  0  0  0  0  0
   38.2270   28.1390   43.6560 O   0  0  0  0  0  0  0  0  0  0  0  0
   38.6420   26.8590   43.2960 C   0  0  0  0  0  0  0  0  0  0  0  0
   39.8640   26.3440   43.6800 C   0  0  0  0  0  0  0  0  0  0  0  0
   40.5170   26.9590   44.2790 H   0  0  0  0  0  0  0  0  0  0  0  0
   40.2690   25.0850   43.3250 C   0  0  0  0  0  0  0  0  0  0  0  0
   41.2150   24.6350   43.5980 H   0  0  0  0  0  0  0  0  0  0  0  0
   39.4400   24.2690   42.5480 C   0  0  0  0  0  3  0  0  0  0  0  0
   38.2260   24.8180   42.1830 C   0  0  0  0  0  3  0  0  0  0  0  0
   37.8570   26.0570   42.5490 N   0  0  0  0  0  0  0  0  0  0  0  0
  1  2  2  0  0  0  0
  1 16  1  0  0  0  0
  3  1  1  0  0  0  0
  4  3  1  0  0  0  0
  5  3  1  0  0  0  0
  6  5  1  0  0  0  0
  6 13  1  0  0  0  0
  7  6  2  0  0  0  0
  8  9  2  0  0  0  0
  8  7  1  0  0  0  0
  9 10  1  0  0  0  0
 10  5  2  0  0  0  0
 11  7  1  0  0  0  0
 12  9  1  0  0  0  0
 13 15  1  0  0  0  0
 14 13  1  0  0  0  0
 17 16  1  0  0  0  0
 17 18  1  0  0  0  0
 18 19  1  0  0  0  0
 20 21  1  0  0  0  0
 20 18  2  0  0  0  0
 22 20  1  0  0  0  0
 23 22  2  0  0  0  0
 23 24  1  0  0  0  0
 24 17  2  0  0  0  0
M  END
>  <minimizedAffinity>
-5.09943724

$$$$

 OpenBabel03252501363D

 24 25  0  0  0  0  0  0  0  0999 V2000
   39.1350   32.0880   38.1440 C   0  0  0  0  0  0  0  0  0  0  0  0
   39.9140   31.7730   39.1030 O   0  0  0  0  0  0  0  0  0  0  0  0
   39.8190   32.2900   36.9020 N   0  0  0  0  0  0  0  0  0  0  0  0
   39.3160   32.5390   36.0430 H   0  0  0  0  0  0  0  0  0  0  0  0
   41.2460   32.0790   37.1330 C   0  0  0  0  0  0  0  0  0  0  0  0
   41.8630   30.8540   37.0950 C   0  0  0  0  0  0  0  0  0  0  0  0
   43.2340   30.8440   37.3390 C   0  0  0  0  0  0  0  0  0  0  0  0
   43.8260   32.0230   37.5870 N   0  0  0  0  0  0  0  0  0  0  0  0
   43.1930   33.2000   37.6170 C   0  0  0  0  0  0  0  0  0  0  0  0
   41.8580   33.2480   37.3850 N   0  0  0  0  0  0  0  0  0  0  0  0
   43.7270   29.8820   37.3100 H   0  0  0  0  0  0  0  0  0  0  0  0
   43.7440   34.1070   37.8250 H   0  0  0  0  0  0  0  0  0  0  0  0
   41.0670   29.7280   36.8140 N   0  0  0  0  0  0  0  0  0  0  0  0
   40.3220   29.2120   37.3280 H   0  0  0  0  0  0  0  0  0  0  0  0
   41.0510   29.1170   35.9660 H   0  0  0  0  0  0  0  0  0  0  0  0
   37.7360   32.2360   38.2280 O   0  0  0  0  0  0  0  0  0  0  0  0
   37.0180   31.3140   38.9860 C   0  0  0  0  0  0  0  0  0  0  0  0
   36.4840   30.1650   38.4380 C   0  0  0  0  0  0  0  0  0  0  0  0
   36.6310   29.9800   37.3850 H   0  0  0  0  0  0  0  0  0  0  0  0
   35.7780   29.2600   39.1850 C   0  0  0  0  0  0  0  0  0  0  0  0
   35.3390   28.3470   38.8050 H   0  0  0  0  0  0  0  0  0  0  0  0
   35.5740   29.4790   40.5510 C   0  0  0  0  0  3  0  0  0  0  0  0
   36.1220   30.6380   41.0640 C   0  0  0  0  0  3  0  0  0  0  0  0
   36.8100   31.5070   40.3040 N   0  0  0  0  0  0  0  0  0  0  0  0
  1 16  1  0  0  0  0
  1  2  2  0  0  0  0
  3  5  1  0  0  0  0
  3  1  1  0  0  0  0
  4  3  1  0  0  0  0
  5 10  1  0  0  0  0
  6  5  2  0  0  0  0
  6  7  1  0  0  0  0
  7  8  2  0  0  0  0
  8  9  1  0  0  0  0
  9 12  1  0  0  0  0
 10  9  2  0  0  0  0
 11  7  1  0  0  0  0
 13  6  1  0  0  0  0
 13 14  1  0  0  0  0
 15 13  1  0  0  0  0
 16 17  1  0  0  0  0
 17 24  1  0  0  0  0
 18 17  2  0  0  0  0
 18 20  1  0  0  0  0
 19 18  1  0  0  0  0
 20 22  2  0  0  0  0
 21 20  1  0  0  0  0
 22 23  1  0  0  0  0
 24 23  2  0  0  0  0
M  END
>  <minimizedAffinity>
-4.8396554

$$$$

 OpenBabel03252501363D

 24 25  0  0  0  0  0  0  0  0999 V2000
   37.3830   31.2570   40.6600 C   0  0  0  0  0  0  0  0  0  0  0  0
   37.1890   32.0340   39.6680 O   0  0  0  0  0  0  0  0  0  0  0  0
   38.7460   31.2250   41.0960 N   0  0  0  0  0  0  0  0  0  0  0  0
   39.0460   30.6490   41.8920 H   0  0  0  0  0  0  0  0  0  0  0  0
   39.5190   32.1110   40.2290 C   0  0  0  0  0  0  0  0  0  0  0  0
   39.6170   33.4690   40.4010 C   0  0  0  0  0  0  0  0  0  0  0  0
   40.4000   34.1550   39.4750 C   0  0  0  0  0  0  0  0  0  0  0  0
   40.9850   33.4330   38.5060 N   0  0  0  0  0  0  0  0  0  0  0  0
   40.8670   32.1090   38.3680 C   0  0  0  0  0  0  0  0  0  0  0  0
   40.1120   31.4090   39.2500 N   0  0  0  0  0  0  0  0  0  0  0  0
   40.4820   35.2240   39.6050 H   0  0  0  0  0  0  0  0  0  0  0  0
   41.3720   31.6010   37.5570 H   0  0  0  0  0  0  0  0  0  0  0  0
   38.9280   34.0440   41.4850 N   0  0  0  0  0  0  0  0  0  0  0  0
   37.9240   34.2000   41.7130 H   0  0  0  0  0  0  0  0  0  0  0  0
   39.3030   34.4730   42.3610 H   0  0  0  0  0  0  0  0  0  0  0  0
   36.4000   30.4830   41.3110 O   0  0  0  0  0  0  0  0  0  0  0  0
   36.7710   29.2490   41.8370 C   0  0  0  0  0  0  0  0  0  0  0  0
   36.5170   28.0610   41.1820 C   0  0  0  0  0  0  0  0  0  0  0  0
   36.0130   28.0960   40.2290 H   0  0  0  0  0  0  0  0  0  0  0  0
   36.8830   26.8480   41.7020 C   0  0  0  0  0  0  0  0  0  0  0  0
   36.7070   25.8900   41.2300 H   0  0  0  0  0  0  0  0  0  0  0  0
   37.5380   26.7770   42.9360 C   0  0  0  0  0  3  0  0  0  0  0  0
   37.7740   27.9850   43.5620 C   0  0  0  0  0  3  0  0  0  0  0  0
   37.4030   29.1600   43.0250 N   0  0  0  0  0  0  0  0  0  0  0  0
  1  3  1  0  0  0  0
  1 16  1  0  0  0  0
  2  1  2  0  0  0  0
  3  4  1  0  0  0  0
  5  6  1  0  0  0  0
  5  3  1  0  0  0  0
  6 13  1  0  0  0  0
  7 11  1  0  0  0  0
  7  6  2  0  0  0  0
  8  7  1  0  0  0  0
  9  8  2  0  0  0  0
  9 10  1  0  0  0  0
 10  5  2  0  0  0  0
 12  9  1  0  0  0  0
 13 14  1  0  0  0  0
 13 15  1  0  0  0  0
 16 17  1  0  0  0  0
 17 24  1  0  0  0  0
 18 20  1  0  0  0  0
 18 17  2  0  0  0  0
 19 18  1  0  0  0  0
 20 22  2  0  0  0  0
 21 20  1  0  0  0  0
 22 23  1  0  0  0  0
 24 23  2  0  0  0  0
M  END
>  <minimizedAffinity>
-4.80523634

$$$$

 OpenBabel03252501363D

 24 25  0  0  0  0  0  0  0  0999 V2000
   37.1730   28.1430   40.9980 C   0  0  0  0  0  0  0  0  0  0  0  0
   36.8540   28.4550   39.8030 O   0  0  0  0  0  0  0  0  0  0  0  0
   37.8010   29.2130   41.7140 N   0  0  0  0  0  0  0  0  0  0  0  0
   38.1020   29.1060   42.6890 H   0  0  0  0  0  0  0  0  0  0  0  0
   37.8960   30.3620   40.8160 C   0  0  0  0  0  0  0  0  0  0  0  0
   36.8830   31.2640   40.6050 C   0  0  0  0  0  0  0  0  0  0  0  0
   37.1550   32.2990   39.7140 C   0  0  0  0  0  0  0  0  0  0  0  0
   38.3710   32.3240   39.1460 N   0  0  0  0  0  0  0  0  0  0  0  0
   39.3360   31.4270   39.3760 C   0  0  0  0  0  0  0  0  0  0  0  0
   39.1060   30.4040   40.2370 N   0  0  0  0  0  0  0  0  0  0  0  0
   36.3620   33.0140   39.5430 H   0  0  0  0  0  0  0  0  0  0  0  0
   40.2900   31.5180   38.8770 H   0  0  0  0  0  0  0  0  0  0  0  0
   35.6750   31.0680   41.2990 N   0  0  0  0  0  0  0  0  0  0  0  0
   34.9090   30.3650   41.2480 H   0  0  0  0  0  0  0  0  0  0  0  0
   35.2520   31.6290   42.0730 H   0  0  0  0  0  0  0  0  0  0  0  0
   36.9560   26.8930   41.6140 O   0  0  0  0  0  0  0  0  0  0  0  0
   38.0470   26.2350   42.1760 C   0  0  0  0  0  0  0  0  0  0  0  0
   38.4020   24.9520   41.8100 C   0  0  0  0  0  0  0  0  0  0  0  0
   37.8110   24.4470   41.0620 H   0  0  0  0  0  0  0  0  0  0  0  0
   39.4750   24.3060   42.3640 C   0  0  0  0  0  0  0  0  0  0  0  0
   39.7960   23.3030   42.1140 H   0  0  0  0  0  0  0  0  0  0  0  0
   40.2560   24.9400   43.3360 C   0  0  0  0  0  3  0  0  0  0  0  0
   39.8700   26.2220   43.6770 C   0  0  0  0  0  3  0  0  0  0  0  0
   38.8110   26.8280   43.1130 N   0  0  0  0  0  0  0  0  0  0  0  0
  1 16  1  0  0  0  0
  1  3  1  0  0  0  0
  2  1  2  0  0  0  0
  3  4  1  0  0  0  0
  5  3  1  0  0  0  0
  6  5  1  0  0  0  0
  6 13  1  0  0  0  0
  7  6  2  0  0  0  0
  8  9  2  0  0  0  0
  8  7  1  0  0  0  0
  9 10  1  0  0  0  0
 10  5  2  0  0  0  0
 11  7  1  0  0  0  0
 12  9  1  0  0  0  0
 13 15  1  0  0  0  0
 14 13  1  0  0  0  0
 16 17  1  0  0  0  0
 17 24  1  0  0  0  0
 18 17  2  0  0  0  0
 18 20  1  0  0  0  0
 19 18  1  0  0  0  0
 20 22  2  0  0  0  0
 21 20  1  0  0  0  0
 22 23  1  0  0  0  0
 24 23  2  0  0  0  0
M  END
>  <minimizedAffinity>
-4.77252245

$$$$

 OpenBabel03252501363D

 24 25  0  0  0  0  0  0  0  0999 V2000
   38.2920   31.8020   39.9820 C   0  0  0  0  0  0  0  0  0  0  0  0
   38.3820   33.0700   40.0820 O   0  0  0  0  0  0  0  0  0  0  0  0
   39.5010   31.1820   39.5300 N   0  0  0  0  0  0  0  0  0  0  0  0
   39.5750   30.1650   39.4130 H   0  0  0  0  0  0  0  0  0  0  0  0
   40.4890   32.2330   39.3020 C   0  0  0  0  0  0  0  0  0  0  0  0
   40.7610   32.7870   38.0760 C   0  0  0  0  0  0  0  0  0  0  0  0
   41.7360   33.7810   38.0490 C   0  0  0  0  0  0  0  0  0  0  0  0
   42.3190   34.1070   39.2140 N   0  0  0  0  0  0  0  0  0  0  0  0
   42.0300   33.5450   40.3920 C   0  0  0  0  0  0  0  0  0  0  0  0
   41.0860   32.5730   40.4560 N   0  0  0  0  0  0  0  0  0  0  0  0
   41.9540   34.2230   37.0870 H   0  0  0  0  0  0  0  0  0  0  0  0
   42.5460   33.8650   41.2870 H   0  0  0  0  0  0  0  0  0  0  0  0
   40.0370   32.3110   36.9670 N   0  0  0  0  0  0  0  0  0  0  0  0
   40.0210   31.4170   36.4350 H   0  0  0  0  0  0  0  0  0  0  0  0
   39.3060   32.7880   36.3930 H   0  0  0  0  0  0  0  0  0  0  0  0
   37.1510   31.0270   40.2740 O   0  0  0  0  0  0  0  0  0  0  0  0
   37.2580   30.0290   41.2390 C   0  0  0  0  0  0  0  0  0  0  0  0
   36.4030   28.9460   41.2770 C   0  0  0  0  0  0  0  0  0  0  0  0
   35.6260   28.8750   40.5320 H   0  0  0  0  0  0  0  0  0  0  0  0
   36.5100   27.9640   42.2270 C   0  0  0  0  0  0  0  0  0  0  0  0
   35.8680   27.0970   42.3020 H   0  0  0  0  0  0  0  0  0  0  0  0
   37.5090   28.0340   43.2040 C   0  0  0  0  0  3  0  0  0  0  0  0
   38.3450   29.1310   43.1340 C   0  0  0  0  0  3  0  0  0  0  0  0
   38.2130   30.0770   42.1880 N   0  0  0  0  0  0  0  0  0  0  0  0
  1  2  2  0  0  0  0
  1 16  1  0  0  0  0
  3  1  1  0  0  0  0
  4  3  1  0  0  0  0
  5  3  1  0  0  0  0
  5 10  1  0  0  0  0
  6  5  2  0  0  0  0
  7  6  1  0  0  0  0
  7  8  2  0  0  0  0
  8  9  1  0  0  0  0
  9 10  2  0  0  0  0
  9 12  1  0  0  0  0
 11  7  1  0  0  0  0
 13  6  1  0  0  0  0
 14 13  1  0  0  0  0
 15 13  1  0  0  0  0
 16 17  1  0  0  0  0
 17 18  2  0  0  0  0
 17 24  1  0  0  0  0
 18 20  1  0  0  0  0
 19 18  1  0  0  0  0
 20 21  1  0  0  0  0
 20 22  2  0  0  0  0
 23 22  1  0  0  0  0
 24 23  2  0  0  0  0
M  END
>  <minimizedAffinity>
-4.75042582

$$$$

 OpenBabel03252501363D

 24 25  0  0  0  0  0  0  0  0999 V2000
   36.5850   27.9260   41.8050 C   0  0  0  0  0  0  0  0  0  0  0  0
   36.4790   27.4010   42.9630 O   0  0  0  0  0  0  0  0  0  0  0  0
   37.7630   27.5160   41.1030 N   0  0  0  0  0  0  0  0  0  0  0  0
   37.9720   27.8530   40.1560 H   0  0  0  0  0  0  0  0  0  0  0  0
   38.5090   26.6040   41.9670 C   0  0  0  0  0  0  0  0  0  0  0  0
   39.4050   27.0060   42.9250 C   0  0  0  0  0  0  0  0  0  0  0  0
   40.0240   25.9940   43.6560 C   0  0  0  0  0  0  0  0  0  0  0  0
   39.6910   24.7270   43.3620 N   0  0  0  0  0  0  0  0  0  0  0  0
   38.8120   24.3710   42.4200 C   0  0  0  0  0  0  0  0  0  0  0  0
   38.1920   25.3290   41.6870 N   0  0  0  0  0  0  0  0  0  0  0  0
   40.7300   26.3040   44.4130 H   0  0  0  0  0  0  0  0  0  0  0  0
   38.6000   23.3260   42.2440 H   0  0  0  0  0  0  0  0  0  0  0  0
   39.6170   28.3880   43.0860 N   0  0  0  0  0  0  0  0  0  0  0  0
   40.0690   29.1290   42.5110 H   0  0  0  0  0  0  0  0  0  0  0  0
   39.3490   29.0160   43.8770 H   0  0  0  0  0  0  0  0  0  0  0  0
   35.6700   28.8230   41.2160 O   0  0  0  0  0  0  0  0  0  0  0  0
   36.1680   29.8300   40.3930 C   0  0  0  0  0  0  0  0  0  0  0  0
   36.5190   31.0740   40.8790 C   0  0  0  0  0  0  0  0  0  0  0  0
   36.4010   31.2670   41.9340 H   0  0  0  0  0  0  0  0  0  0  0  0
   37.0080   32.0620   40.0680 C   0  0  0  0  0  0  0  0  0  0  0  0
   37.2970   33.0520   40.3960 H   0  0  0  0  0  0  0  0  0  0  0  0
   37.1690   31.8350   38.6970 C   0  0  0  0  0  3  0  0  0  0  0  0
   36.8080   30.5810   38.2470 C   0  0  0  0  0  3  0  0  0  0  0  0
   36.3300   29.6310   39.0700 N   0  0  0  0  0  0  0  0  0  0  0  0
  1  2  2  0  0  0  0
  3  1  1  0  0  0  0
  3  5  1  0  0  0  0
  4  3  1  0  0  0  0
  5  6  1  0  0  0  0
  6 13  1  0  0  0  0
  6  7  2  0  0  0  0
  7 11  1  0  0  0  0
  8  7  1  0  0  0  0
  9  8  2  0  0  0  0
 10  5  2  0  0  0  0
 10  9  1  0  0  0  0
 12  9  1  0  0  0  0
 13 15  1  0  0  0  0
 14 13  1  0  0  0  0
 16  1  1  0  0  0  0
 17 18  1  0  0  0  0
 17 16  1  0  0  0  0
 18 19  1  0  0  0  0
 20 21  1  0  0  0  0
 20 18  2  0  0  0  0
 22 20  1  0  0  0  0
 23 22  2  0  0  0  0
 23 24  1  0  0  0  0
 24 17  2  0  0  0  0
M  END
>  <minimizedAffinity>
-4.64208698

$$$$

 OpenBabel03252501363D

 24 25  0  0  0  0  0  0  0  0999 V2000
   37.6130   29.9420   41.4310 C   0  0  0  0  0  0  0  0  0  0  0  0
   38.5770   30.5140   42.0400 O   0  0  0  0  0  0  0  0  0  0  0  0
   37.5180   30.3100   40.0510 N   0  0  0  0  0  0  0  0  0  0  0  0
   36.7950   29.9190   39.4360 H   0  0  0  0  0  0  0  0  0  0  0  0
   38.5810   31.2710   39.7650 C   0  0  0  0  0  0  0  0  0  0  0  0
   38.4620   32.6280   39.9310 C   0  0  0  0  0  0  0  0  0  0  0  0
   39.5830   33.3900   39.6090 C   0  0  0  0  0  0  0  0  0  0  0  0
   40.6700   32.7360   39.1690 N   0  0  0  0  0  0  0  0  0  0  0  0
   40.7500   31.4100   39.0190 C   0  0  0  0  0  0  0  0  0  0  0  0
   39.6780   30.6360   39.3220 N   0  0  0  0  0  0  0  0  0  0  0  0
   39.4970   34.4600   39.7380 H   0  0  0  0  0  0  0  0  0  0  0  0
   41.6650   30.9600   38.6580 H   0  0  0  0  0  0  0  0  0  0  0  0
   37.2360   33.1250   40.4080 N   0  0  0  0  0  0  0  0  0  0  0  0
   36.2750   33.2020   40.0140 H   0  0  0  0  0  0  0  0  0  0  0  0
   37.0060   33.5600   41.3310 H   0  0  0  0  0  0  0  0  0  0  0  0
   36.7020   29.0270   41.9980 O   0  0  0  0  0  0  0  0  0  0  0  0
   36.7980   27.6860   41.6350 C   0  0  0  0  0  0  0  0  0  0  0  0
   37.0540   26.6900   42.5560 C   0  0  0  0  0  0  0  0  0  0  0  0
   37.1830   26.9660   43.5910 H   0  0  0  0  0  0  0  0  0  0  0  0
   37.1480   25.3720   42.1970 C   0  0  0  0  0  0  0  0  0  0  0  0
   37.3470   24.5540   42.8770 H   0  0  0  0  0  0  0  0  0  0  0  0
   36.9840   24.9900   40.8610 C   0  0  0  0  0  3  0  0  0  0  0  0
   36.7300   26.0140   39.9690 C   0  0  0  0  0  3  0  0  0  0  0  0
   36.6430   27.2990   40.3530 N   0  0  0  0  0  0  0  0  0  0  0  0
  1 16  1  0  0  0  0
  1  2  2  0  0  0  0
  3  1  1  0  0  0  0
  4  3  1  0  0  0  0
  5  6  1  0  0  0  0
  5  3  1  0  0  0  0
  6 13  1  0  0  0  0
  7 11  1  0  0  0  0
  7  6  2  0  0  0  0
  8  7  1  0  0  0  0
  9  8  2  0  0  0  0
  9 10  1  0  0  0  0
 10  5  2  0  0  0  0
 12  9  1  0  0  0  0
 13 15  1  0  0  0  0
 14 13  1  0  0  0  0
 17 16  1  0  0  0  0
 17 18  1  0  0  0  0
 18 19  1  0  0  0  0
 20 18  2  0  0  0  0
 20 21  1  0  0  0  0
 22 20  1  0  0  0  0
 23 24  1  0  0  0  0
 23 22  2  0  0  0  0
 24 17  2  0  0  0  0
M  END
>  <minimizedAffinity>
-4.57772207

$$$$

 OpenBabel03252501363D

 24 25  0  0  0  0  0  0  0  0999 V2000
   36.9240   27.9020   41.1350 C   0  0  0  0  0  0  0  0  0  0  0  0
   37.9810   27.5040   40.5420 O   0  0  0  0  0  0  0  0  0  0  0  0
   36.7530   27.3250   42.4340 N   0  0  0  0  0  0  0  0  0  0  0  0
   35.9510   27.5620   43.0290 H   0  0  0  0  0  0  0  0  0  0  0  0
   37.8720   26.4170   42.6760 C   0  0  0  0  0  0  0  0  0  0  0  0
   37.9180   25.1140   42.2480 C   0  0  0  0  0  0  0  0  0  0  0  0
   39.0680   24.3980   42.5700 C   0  0  0  0  0  0  0  0  0  0  0  0
   40.0210   25.0390   43.2650 N   0  0  0  0  0  0  0  0  0  0  0  0
   39.9430   26.3120   43.6670 C   0  0  0  0  0  0  0  0  0  0  0  0
   38.8370   27.0400   43.3720 N   0  0  0  0  0  0  0  0  0  0  0  0
   39.1120   23.3710   42.2350 H   0  0  0  0  0  0  0  0  0  0  0  0
   40.7570   26.7560   44.2240 H   0  0  0  0  0  0  0  0  0  0  0  0
   36.8140   24.6220   41.5270 N   0  0  0  0  0  0  0  0  0  0  0  0
   35.8280   24.3910   41.7680 H   0  0  0  0  0  0  0  0  0  0  0  0
   36.7400   24.3600   40.5180 H   0  0  0  0  0  0  0  0  0  0  0  0
   35.9820   28.8180   40.6230 O   0  0  0  0  0  0  0  0  0  0  0  0
   36.4490   30.0060   40.0670 C   0  0  0  0  0  0  0  0  0  0  0  0
   36.6310   30.1620   38.7070 C   0  0  0  0  0  0  0  0  0  0  0  0
   36.4010   29.3320   38.0580 H   0  0  0  0  0  0  0  0  0  0  0  0
   37.0900   31.3320   38.1620 C   0  0  0  0  0  0  0  0  0  0  0  0
   37.2500   31.5070   37.1070 H   0  0  0  0  0  0  0  0  0  0  0  0
   37.3940   32.4220   38.9840 C   0  0  0  0  0  3  0  0  0  0  0  0
   37.2010   32.2280   40.3380 C   0  0  0  0  0  3  0  0  0  0  0  0
   36.7480   31.0670   40.8420 N   0  0  0  0  0  0  0  0  0  0  0  0
  1  3  1  0  0  0  0
  2  1  2  0  0  0  0
  3  5  1  0  0  0  0
  3  4  1  0  0  0  0
  5 10  1  0  0  0  0
  6  7  1  0  0  0  0
  6  5  2  0  0  0  0
  7  8  2  0  0  0  0
  8  9  1  0  0  0  0
  9 12  1  0  0  0  0
 10  9  2  0  0  0  0
 11  7  1  0  0  0  0
 13 14  1  0  0  0  0
 13  6  1  0  0  0  0
 15 13  1  0  0  0  0
 16  1  1  0  0  0  0
 17 16  1  0  0  0  0
 17 24  1  0  0  0  0
 18 17  2  0  0  0  0
 19 18  1  0  0  0  0
 20 18  1  0  0  0  0
 20 22  2  0  0  0  0
 21 20  1  0  0  0  0
 22 23  1  0  0  0  0
 23 24  2  0  0  0  0
M  END
>  <minimizedAffinity>
-4.5498538

$$$$

 OpenBabel03252501363D

 24 25  0  0  0  0  0  0  0  0999 V2000
   36.5150   28.5550   41.6690 C   0  0  0  0  0  0  0  0  0  0  0  0
   35.5430   29.0590   41.0150 O   0  0  0  0  0  0  0  0  0  0  0  0
   37.7850   29.1090   41.3110 N   0  0  0  0  0  0  0  0  0  0  0  0
   38.6540   28.8040   41.7640 H   0  0  0  0  0  0  0  0  0  0  0  0
   37.5660   30.1010   40.2620 C   0  0  0  0  0  0  0  0  0  0  0  0
   37.4800   29.8060   38.9240 C   0  0  0  0  0  0  0  0  0  0  0  0
   37.2670   30.8820   38.0660 C   0  0  0  0  0  0  0  0  0  0  0  0
   37.1640   32.1020   38.6180 N   0  0  0  0  0  0  0  0  0  0  0  0
   37.2530   32.3530   39.9280 C   0  0  0  0  0  0  0  0  0  0  0  0
   37.4620   31.3300   40.7930 N   0  0  0  0  0  0  0  0  0  0  0  0
   37.1970   30.6570   37.0120 H   0  0  0  0  0  0  0  0  0  0  0  0
   37.1600   33.3670   40.2930 H   0  0  0  0  0  0  0  0  0  0  0  0
   37.6110   28.4590   38.5400 N   0  0  0  0  0  0  0  0  0  0  0  0
   38.3970   27.7760   38.5260 H   0  0  0  0  0  0  0  0  0  0  0  0
   36.8950   27.8020   38.1550 H   0  0  0  0  0  0  0  0  0  0  0  0
   36.4170   27.5560   42.6600 O   0  0  0  0  0  0  0  0  0  0  0  0
   37.3670   26.5380   42.6680 C   0  0  0  0  0  0  0  0  0  0  0  0
   37.0980   25.2740   42.1820 C   0  0  0  0  0  0  0  0  0  0  0  0
   36.1150   25.0740   41.7830 H   0  0  0  0  0  0  0  0  0  0  0  0
   38.0340   24.2740   42.1910 C   0  0  0  0  0  0  0  0  0  0  0  0
   37.8740   23.2690   41.8240 H   0  0  0  0  0  0  0  0  0  0  0  0
   39.3140   24.5100   42.7030 C   0  0  0  0  0  3  0  0  0  0  0  0
   39.5460   25.7850   43.1800 C   0  0  0  0  0  3  0  0  0  0  0  0
   38.6060   26.7450   43.1570 N   0  0  0  0  0  0  0  0  0  0  0  0
  1 16  1  0  0  0  0
  2  1  2  0  0  0  0
  3  1  1  0  0  0  0
  3  4  1  0  0  0  0
  5 10  1  0  0  0  0
  5  3  1  0  0  0  0
  6  5  2  0  0  0  0
  7  8  2  0  0  0  0
  7  6  1  0  0  0  0
  8  9  1  0  0  0  0
  9 12  1  0  0  0  0
  9 10  2  0  0  0  0
 11  7  1  0  0  0  0
 13  6  1  0  0  0  0
 14 13  1  0  0  0  0
 15 13  1  0  0  0  0
 16 17  1  0  0  0  0
 17 24  1  0  0  0  0
 18 20  1  0  0  0  0
 18 17  2  0  0  0  0
 19 18  1  0  0  0  0
 20 22  2  0  0  0  0
 21 20  1  0  0  0  0
 22 23  1  0  0  0  0
 24 23  2  0  0  0  0
M  END
>  <minimizedAffinity>
-4.53396559

$$$$
