
 OpenBabel03252502383D

 37 39  0  0  1  0  0  0  0  0999 V2000
   45.2050   34.5830   41.2850 C   0  0  1  0  0  0  0  0  0  0  0  0
   45.5100   35.5340   40.8110 H   0  0  0  0  0  0  0  0  0  0  0  0
   44.0110   34.1600   40.5800 N   0  0  0  0  0  0  0  0  0  0  0  0
   43.0770   35.2200   40.3900 C   0  0  0  0  0  0  0  0  0  0  0  0
   41.7690   34.5340   39.9870 C   0  0  0  0  0  0  0  0  0  0  0  0
   42.0320   34.0970   38.6410 N   0  0  0  0  0  0  0  0  0  0  0  0
   43.1220   33.1870   38.5000 C   0  0  0  0  0  0  0  0  0  0  0  0
   44.2740   33.3760   39.4340 C   0  0  0  0  0  0  0  0  0  0  0  0
   43.3790   35.9020   39.5720 H   0  0  0  0  0  0  0  0  0  0  0  0
   42.9280   35.7170   41.3640 H   0  0  0  0  0  0  0  0  0  0  0  0
   40.9920   35.3150   39.9330 H   0  0  0  0  0  0  0  0  0  0  0  0
   41.5330   33.6850   40.6360 H   0  0  0  0  0  0  0  0  0  0  0  0
   42.2950   34.9770   38.1090 H   0  0  0  0  0  0  0  0  0  0  0  0
   42.6760   32.1520   38.5590 H   0  0  0  0  0  0  0  0  0  0  0  0
   43.5000   33.2650   37.4510 H   0  0  0  0  0  0  0  0  0  0  0  0
   44.5550   32.3540   39.7920 H   0  0  0  0  0  0  0  0  0  0  0  0
   45.1550   33.8200   38.8910 H   0  0  0  0  0  0  0  0  0  0  0  0
   44.8750   36.0580   43.2290 C   0  0  0  0  0  0  0  0  0  0  0  0
   45.0700   34.7720   42.7020 C   0  0  0  0  0  0  0  0  0  0  0  0
   45.1360   33.6870   43.5800 C   0  0  0  0  0  0  0  0  0  0  0  0
   45.0030   33.9530   44.9230 N   0  0  0  0  0  0  0  0  0  0  0  0
   44.8170   35.1970   45.4080 C   0  0  0  0  0  0  0  0  0  0  0  0
   44.7500   36.2640   44.5650 N   0  0  0  0  0  0  0  0  0  0  0  0
   44.8230   36.9040   42.5560 H   0  0  0  0  0  0  0  0  0  0  0  0
   45.2810   32.6820   43.2640 H   0  0  0  0  0  0  0  0  0  0  0  0
   44.7280   35.2590   46.4930 H   0  0  0  0  0  0  0  0  0  0  0  0
   46.3260   33.5790   41.0080 C   0  0  0  0  0  0  0  0  0  0  0  0
   46.4410   33.4400   39.9000 H   0  0  0  0  0  0  0  0  0  0  0  0
   46.1590   32.6280   41.5450 H   0  0  0  0  0  0  0  0  0  0  0  0
   47.6280   34.1180   41.4750 C   0  0  0  0  0  0  0  0  0  0  0  0
   48.4130   33.1910   42.1490 C   0  0  0  0  0  0  0  0  0  0  0  0
   48.1260   32.1790   42.3260 H   0  0  0  0  0  0  0  0  0  0  0  0
   49.6550   33.6290   42.6200 C   0  0  0  0  0  0  0  0  0  0  0  0
   50.3450   32.9900   43.1570 H   0  0  0  0  0  0  0  0  0  0  0  0
   50.0660   34.9370   42.4110 C   0  0  0  0  0  0  0  0  0  0  0  0
   49.2400   35.8260   41.7300 C   0  0  0  0  0  0  0  0  0  0  0  0
   48.0440   35.4040   41.2780 N   0  0  0  0  0  0  0  0  0  0  0  0
  1  2  1  6  0  0  0
  1 19  1  0  0  0  0
  3  1  1  0  0  0  0
  4  3  1  0  0  0  0
  4 10  1  0  0  0  0
  5  4  1  0  0  0  0
  5 12  1  0  0  0  0
  6  5  1  0  0  0  0
  7 14  1  0  0  0  0
  7  6  1  0  0  0  0
  7  8  1  0  0  0  0
  8 16  1  0  0  0  0
  8  3  1  0  0  0  0
  9  4  1  0  0  0  0
 11  5  1  0  0  0  0
 13  6  1  0  0  0  0
 15  7  1  0  0  0  0
 17  8  1  0  0  0  0
 18 23  1  0  0  0  0
 19 18  2  0  0  0  0
 19 20  1  0  0  0  0
 20 21  2  0  0  0  0
 21 22  1  0  0  0  0
 22 26  1  0  0  0  0
 23 22  2  0  0  0  0
 24 18  1  0  0  0  0
 25 20  1  0  0  0  0
 27  1  1  0  0  0  0
 27 30  1  0  0  0  0
 27 29  1  0  0  0  0
 28 27  1  0  0  0  0
 30 31  1  0  0  0  0
 31 32  1  0  0  0  0
 31 33  2  0  0  0  0
 33 34  1  0  0  0  0
 35 33  1  0  0  0  0
 36 35  2  0  0  0  0
 37 30  2  0  0  0  0
 37 36  1  0  0  0  0
M  END
>  <minimizedAffinity>
-5.06142092

>  <minimizedRMSD>
2.65359235

$$$$
