
 OpenBabel03252509283D

 20 21  0  0  0  0  0  0  0  0999 V2000
   45.4520   35.2590   42.4980 C   0  0  0  0  0  0  0  0  0  0  0  0
   46.2960   35.1470   41.7990 H   0  0  0  0  0  0  0  0  0  0  0  0
   45.3050   36.3400   42.7700 H   0  0  0  0  0  0  0  0  0  0  0  0
   47.0860   32.9410   44.9070 C   0  0  0  0  0  0  0  0  0  0  0  0
   46.8060   33.6330   43.7150 C   0  0  0  0  0  0  0  0  0  0  0  0
   45.7550   34.5330   43.7290 C   0  0  0  0  0  0  0  0  0  0  0  0
   45.0380   34.7090   44.8890 N   0  0  0  0  0  0  0  0  0  0  0  0
   45.3600   34.0070   46.0150 C   0  0  0  0  0  0  0  0  0  0  0  0
   46.3700   33.1340   46.0240 N   0  0  0  0  0  0  0  0  0  0  0  0
   47.9200   32.2460   44.8500 H   0  0  0  0  0  0  0  0  0  0  0  0
   47.3880   33.4730   42.8170 H   0  0  0  0  0  0  0  0  0  0  0  0
   44.7100   34.2490   46.8490 H   0  0  0  0  0  0  0  0  0  0  0  0
   44.2260   34.8010   41.8130 C   0  0  0  0  0  0  0  0  0  0  0  0
   43.8960   33.4990   41.5000 C   0  0  0  0  0  0  0  0  0  0  0  0
   44.6340   32.7400   41.8010 H   0  0  0  0  0  0  0  0  0  0  0  0
   42.7270   33.1620   40.8570 C   0  0  0  0  0  0  0  0  0  0  0  0
   42.5490   32.1000   40.6500 H   0  0  0  0  0  0  0  0  0  0  0  0
   41.8100   34.1320   40.4870 C   0  0  0  0  0  3  0  0  0  0  0  0
   42.1690   35.4280   40.8140 C   0  0  0  0  0  3  0  0  0  0  0  0
   43.3140   35.7290   41.4400 N   0  0  0  0  0  0  0  0  0  0  0  0
  1  3  1  0  0  0  0
  1  6  1  0  0  0  0
  2  1  1  0  0  0  0
  4  9  1  0  0  0  0
  5  6  1  0  0  0  0
  5  4  2  0  0  0  0
  6  7  2  0  0  0  0
  7  8  1  0  0  0  0
  8  9  2  0  0  0  0
  8 12  1  0  0  0  0
 10  4  1  0  0  0  0
 11  5  1  0  0  0  0
 13  1  1  0  0  0  0
 14 15  1  0  0  0  0
 14 13  1  0  0  0  0
 16 14  2  0  0  0  0
 17 16  1  0  0  0  0
 18 19  2  0  0  0  0
 18 16  1  0  0  0  0
 19 20  1  0  0  0  0
 20 13  2  0  0  0  0
M  END
>  <minimizedAffinity>
-3.60754037

>  <minimizedRMSD>
5.20604229

$$$$
