
 OpenBabel03252509293D

 20 21  0  0  0  0  0  0  0  0999 V2000
   45.6920   34.1180   44.2270 C   0  0  0  0  0  0  0  0  0  0  0  0
   44.6340   33.9110   44.0040 H   0  0  0  0  0  0  0  0  0  0  0  0
   45.7940   35.0810   44.7980 H   0  0  0  0  0  0  0  0  0  0  0  0
   46.4620   34.1700   40.5870 C   0  0  0  0  0  0  0  0  0  0  0  0
   45.7480   34.0180   41.7890 C   0  0  0  0  0  0  0  0  0  0  0  0
   46.4210   34.2720   42.9720 C   0  0  0  0  0  0  0  0  0  0  0  0
   47.7410   34.6560   42.9210 N   0  0  0  0  0  0  0  0  0  0  0  0
   48.3800   34.7860   41.7220 C   0  0  0  0  0  0  0  0  0  0  0  0
   47.7490   34.5460   40.5690 N   0  0  0  0  0  0  0  0  0  0  0  0
   45.8930   33.9610   39.6850 H   0  0  0  0  0  0  0  0  0  0  0  0
   44.7090   33.7150   41.7960 H   0  0  0  0  0  0  0  0  0  0  0  0
   49.4130   35.0940   41.8390 H   0  0  0  0  0  0  0  0  0  0  0  0
   46.2000   33.0320   45.0910 C   0  0  0  0  0  0  0  0  0  0  0  0
   46.4140   31.7210   44.7240 C   0  0  0  0  0  0  0  0  0  0  0  0
   46.1770   31.4790   43.6780 H   0  0  0  0  0  0  0  0  0  0  0  0
   46.8920   30.7720   45.5990 C   0  0  0  0  0  0  0  0  0  0  0  0
   47.0320   29.7530   45.2170 H   0  0  0  0  0  0  0  0  0  0  0  0
   47.1850   31.0960   46.9130 C   0  0  0  0  0  3  0  0  0  0  0  0
   46.9610   32.4190   47.2520 C   0  0  0  0  0  3  0  0  0  0  0  0
   46.4950   33.3230   46.3810 N   0  0  0  0  0  0  0  0  0  0  0  0
  1  3  1  0  0  0  0
  1 13  1  0  0  0  0
  2  1  1  0  0  0  0
  4  5  1  0  0  0  0
  5 11  1  0  0  0  0
  5  6  2  0  0  0  0
  6  1  1  0  0  0  0
  7  6  1  0  0  0  0
  8 12  1  0  0  0  0
  8  7  2  0  0  0  0
  9  4  2  0  0  0  0
  9  8  1  0  0  0  0
 10  4  1  0  0  0  0
 13 20  1  0  0  0  0
 14 13  2  0  0  0  0
 14 16  1  0  0  0  0
 15 14  1  0  0  0  0
 16 18  2  0  0  0  0
 17 16  1  0  0  0  0
 18 19  1  0  0  0  0
 20 19  2  0  0  0  0
M  END
>  <minimizedAffinity>
-3.35623527

>  <minimizedRMSD>
5.3318758

$$$$
