
 OpenBabel03252509283D

 20 21  0  0  0  0  0  0  0  0999 V2000
   45.3720   33.5690   41.9440 C   0  0  0  0  0  0  0  0  0  0  0  0
   44.4890   33.7650   41.3170 H   0  0  0  0  0  0  0  0  0  0  0  0
   45.5270   32.4630   42.0740 H   0  0  0  0  0  0  0  0  0  0  0  0
   44.3440   35.9250   44.6340 C   0  0  0  0  0  0  0  0  0  0  0  0
   44.5510   35.3860   43.3520 C   0  0  0  0  0  0  0  0  0  0  0  0
   45.1520   34.1410   43.2690 C   0  0  0  0  0  0  0  0  0  0  0  0
   45.5170   33.4960   44.4270 N   0  0  0  0  0  0  0  0  0  0  0  0
   45.2900   34.0730   45.6430 C   0  0  0  0  0  0  0  0  0  0  0  0
   44.7110   35.2720   45.7460 N   0  0  0  0  0  0  0  0  0  0  0  0
   43.8690   36.9020   44.6500 H   0  0  0  0  0  0  0  0  0  0  0  0
   44.2510   35.9180   42.4580 H   0  0  0  0  0  0  0  0  0  0  0  0
   45.6300   33.4490   46.4630 H   0  0  0  0  0  0  0  0  0  0  0  0
   46.5580   34.1060   41.2440 C   0  0  0  0  0  0  0  0  0  0  0  0
   47.5150   34.9460   41.7730 C   0  0  0  0  0  0  0  0  0  0  0  0
   47.3610   35.2350   42.8220 H   0  0  0  0  0  0  0  0  0  0  0  0
   48.5910   35.3990   41.0450 C   0  0  0  0  0  0  0  0  0  0  0  0
   49.3020   36.0650   41.5490 H   0  0  0  0  0  0  0  0  0  0  0  0
   48.7690   35.0240   39.7250 C   0  0  0  0  0  3  0  0  0  0  0  0
   47.7940   34.1800   39.2220 C   0  0  0  0  0  3  0  0  0  0  0  0
   46.7550   33.7540   39.9510 N   0  0  0  0  0  0  0  0  0  0  0  0
  1  3  1  0  0  0  0
  1  6  1  0  0  0  0
  2  1  1  0  0  0  0
  4 10  1  0  0  0  0
  4  9  1  0  0  0  0
  5  4  2  0  0  0  0
  6  5  1  0  0  0  0
  6  7  2  0  0  0  0
  7  8  1  0  0  0  0
  8  9  2  0  0  0  0
  8 12  1  0  0  0  0
 11  5  1  0  0  0  0
 13 14  1  0  0  0  0
 13  1  1  0  0  0  0
 14 15  1  0  0  0  0
 16 17  1  0  0  0  0
 16 14  2  0  0  0  0
 18 16  1  0  0  0  0
 19 18  2  0  0  0  0
 19 20  1  0  0  0  0
 20 13  2  0  0  0  0
M  END
>  <minimizedAffinity>
-4.1508894

>  <minimizedRMSD>
2.11834359

$$$$
