
 OpenBabel03252508453D

 44 46  0  0  0  0  0  0  0  0999 V2000
   42.9850   32.4600   41.6430 C   0  0  0  0  0  0  0  0  0  0  0  0
   43.4660   32.0010   40.7380 H   0  0  0  0  0  0  0  0  0  0  0  0
   42.0440   32.9370   41.2720 H   0  0  0  0  0  0  0  0  0  0  0  0
   43.6590   34.8600   41.9020 C   0  0  0  0  0  0  0  0  0  0  0  0
   43.8730   33.5200   42.1970 C   0  0  0  0  0  0  0  0  0  0  0  0
   44.9270   33.1900   43.0150 C   0  0  0  0  0  0  0  0  0  0  0  0
   45.7410   34.1660   43.5210 C   0  0  0  0  0  0  0  0  0  0  0  0
   45.5550   35.4860   43.2500 C   0  0  0  0  0  0  0  0  0  0  0  0
   44.4850   35.7770   42.4250 C   0  0  0  0  0  0  0  0  0  0  0  0
   45.1360   32.1590   43.2740 H   0  0  0  0  0  0  0  0  0  0  0  0
   46.5620   33.8740   44.1620 H   0  0  0  0  0  0  0  0  0  0  0  0
   46.1660   36.2950   43.6230 H   0  0  0  0  0  0  0  0  0  0  0  0
   44.2620   36.8090   42.1550 H   0  0  0  0  0  0  0  0  0  0  0  0
   40.2720   35.8210   40.5280 C   0  0  0  0  0  0  0  0  0  0  0  0
   41.2890   35.5660   41.4640 C   0  0  0  0  0  0  0  0  0  0  0  0
   42.5330   35.1540   41.0350 C   0  0  0  0  0  0  0  0  0  0  0  0
   42.7030   35.0150   39.6890 N   0  0  0  0  0  0  0  0  0  0  0  0
   41.7170   35.2630   38.7930 C   0  0  0  0  0  0  0  0  0  0  0  0
   40.5080   35.6650   39.2330 N   0  0  0  0  0  0  0  0  0  0  0  0
   39.3390   36.1390   40.9820 H   0  0  0  0  0  0  0  0  0  0  0  0
   41.1790   35.6690   42.5390 H   0  0  0  0  0  0  0  0  0  0  0  0
   41.9420   35.1260   37.7380 H   0  0  0  0  0  0  0  0  0  0  0  0
   42.6200   31.4340   42.5580 N   0  0  0  0  0  0  0  0  0  0  0  0
   43.1040   30.5330   42.3990 H   0  0  0  0  0  0  0  0  0  0  0  0
   40.9400   31.1560   42.6330 S   0  0  0  0  0  0  0  0  0  0  0  0
   40.1720   32.4000   42.2290 O   0  0  0  0  0  0  0  0  0  0  0  0
   39.8890   32.5040   41.2820 H   0  0  0  0  0  0  0  0  0  0  0  0
   40.5220   30.7060   43.9870 O   0  0  0  0  0  0  0  0  0  0  0  0
   41.1110   30.2130   44.6180 H   0  0  0  0  0  0  0  0  0  0  0  0
   40.5630   29.9480   41.5160 O   0  0  0  0  0  0  0  0  0  0  0  0
   40.0020   28.9000   42.2250 C   0  0  0  0  0  0  0  0  0  0  0  0
   39.5740   29.1570   43.1920 H   0  0  0  0  0  0  0  0  0  0  0  0
   39.1450   28.5400   41.5830 H   0  0  0  0  0  0  0  0  0  0  0  0
   40.9620   27.7380   42.2780 C   0  0  0  0  0  0  0  0  0  0  0  0
   41.7190   27.9260   41.4600 H   0  0  0  0  0  0  0  0  0  0  0  0
   40.3910   26.8490   41.8970 H   0  0  0  0  0  0  0  0  0  0  0  0
   41.5890   27.4990   43.5750 C   0  0  0  0  0  0  0  0  0  0  0  0
   41.1990   26.4960   44.4370 C   0  0  0  0  0  0  0  0  0  0  0  0
   40.3850   25.8420   44.1570 H   0  0  0  0  0  0  0  0  0  0  0  0
   41.9040   26.4020   45.6420 C   0  0  0  0  0  0  0  0  0  0  0  0
   41.6230   25.6250   46.3420 H   0  0  0  0  0  0  0  0  0  0  0  0
   42.9350   27.2790   45.9280 C   0  0  0  0  0  3  0  0  0  0  0  0
   43.3060   28.2860   45.0320 C   0  0  0  0  0  3  0  0  0  0  0  0
   42.6080   28.3570   43.8730 N   0  0  0  0  0  0  0  0  0  0  0  0
  1  5  1  0  0  0  0
  1 23  1  0  0  0  0
  2  1  1  0  0  0  0
  3  1  1  0  0  0  0
  4  5  2  0  0  0  0
  4  9  1  0  0  0  0
  5  6  1  0  0  0  0
  6 10  1  0  0  0  0
  6  7  2  0  0  0  0
  7 11  1  0  0  0  0
  8  7  1  0  0  0  0
  8 12  1  0  0  0  0
  9  8  2  0  0  0  0
 13  9  1  0  0  0  0
 14 20  1  0  0  0  0
 14 15  1  0  0  0  0
 15 21  1  0  0  0  0
 16 15  2  0  0  0  0
 16  4  1  0  0  0  0
 17 16  1  0  0  0  0
 18 19  1  0  0  0  0
 18 17  2  0  0  0  0
 19 14  2  0  0  0  0
 22 18  1  0  0  0  0
 23 25  1  0  0  0  0
 24 23  1  0  0  0  0
 25 28  1  0  0  0  0
 26 25  1  0  0  0  0
 27 26  1  0  0  0  0
 28 29  1  0  0  0  0
 30 31  1  0  0  0  0
 30 25  1  0  0  0  0
 31 34  1  0  0  0  0
 31 32  1  0  0  0  0
 33 31  1  0  0  0  0
 34 37  1  0  0  0  0
 35 34  1  0  0  0  0
 36 34  1  0  0  0  0
 37 44  2  0  0  0  0
 37 38  1  0  0  0  0
 38 40  2  0  0  0  0
 39 38  1  0  0  0  0
 40 42  1  0  0  0  0
 40 41  1  0  0  0  0
 43 42  2  0  0  0  0
 44 43  1  0  0  0  0
M  END
>  <minimizedAffinity>
-5.05166292

>  <minimizedRMSD>
1.53023112

$$$$
