
 OpenBabel03252505513D

 24 25  0  0  0  0  0  0  0  0999 V2000
   44.7050   35.4100   45.0690 C   0  0  0  0  0  0  0  0  0  0  0  0
   45.5330   35.0180   44.0080 C   0  0  0  0  0  0  0  0  0  0  0  0
   46.3010   33.8680   44.1700 C   0  0  0  0  0  0  0  0  0  0  0  0
   46.2170   33.1820   45.3340 N   0  0  0  0  0  0  0  0  0  0  0  0
   45.4060   33.5920   46.3360 C   0  0  0  0  0  0  0  0  0  0  0  0
   44.6570   34.6880   46.2150 N   0  0  0  0  0  0  0  0  0  0  0  0
   44.0970   36.3020   44.9670 H   0  0  0  0  0  0  0  0  0  0  0  0
   46.9320   33.5860   43.3390 H   0  0  0  0  0  0  0  0  0  0  0  0
   45.5210   35.8750   42.7850 C   0  0  0  0  0  0  0  0  0  0  0  0
   45.2190   37.1500   43.2300 F   0  0  0  0  0  0  0  0  0  0  0  0
   44.5420   35.3960   41.9500 F   0  0  0  0  0  0  0  0  0  0  0  0
   46.7820   35.8020   42.2100 F   0  0  0  0  0  0  0  0  0  0  0  0
   45.3300   32.8820   47.5190 O   0  0  0  0  0  0  0  0  0  0  0  0
   45.5310   31.5000   47.6230 C   0  0  0  0  0  0  0  0  0  0  0  0
   44.8330   31.0730   48.3470 H   0  0  0  0  0  0  0  0  0  0  0  0
   45.3650   30.9930   46.6440 H   0  0  0  0  0  0  0  0  0  0  0  0
   46.8960   31.1240   48.0680 C   0  0  0  0  0  0  0  0  0  0  0  0
   47.7860   31.8650   48.7840 C   0  0  0  0  0  0  0  0  0  0  0  0
   47.4590   32.8380   49.0600 H   0  0  0  0  0  0  0  0  0  0  0  0
   49.0310   31.3780   49.1260 C   0  0  0  0  0  0  0  0  0  0  0  0
   49.6480   32.0620   49.6970 H   0  0  0  0  0  0  0  0  0  0  0  0
   49.3710   30.1020   48.7250 C   0  0  0  0  0  0  0  0  0  0  0  0
   48.4470   29.3720   47.9970 C   0  0  0  0  0  0  0  0  0  0  0  0
   47.2340   29.8790   47.6780 N   0  0  0  0  0  0  0  0  0  0  0  0
  1  6  1  0  0  0  0
  2  3  1  0  0  0  0
  2  1  2  0  0  0  0
  3  4  2  0  0  0  0
  4  5  1  0  0  0  0
  5 13  1  0  0  0  0
  6  5  2  0  0  0  0
  7  1  1  0  0  0  0
  8  3  1  0  0  0  0
  9 10  1  0  0  0  0
  9  2  1  0  0  0  0
 11  9  1  0  0  0  0
 12  9  1  0  0  0  0
 13 14  1  0  0  0  0
 14 17  1  0  0  0  0
 14 15  1  0  0  0  0
 16 14  1  0  0  0  0
 17 18  1  0  0  0  0
 18 19  1  0  0  0  0
 18 20  2  0  0  0  0
 20 21  1  0  0  0  0
 22 20  1  0  0  0  0
 23 22  2  0  0  0  0
 24 23  1  0  0  0  0
 24 17  2  0  0  0  0
M  END
>  <minimizedAffinity>
-4.98264265

>  <minimizedRMSD>
1.94008541

$$$$
