
 OpenBabel03252508463D

 44 46  0  0  0  0  0  0  0  0999 V2000
   42.9690   32.4940   41.6110 C   0  0  0  0  0  0  0  0  0  0  0  0
   43.4410   32.0540   40.6910 H   0  0  0  0  0  0  0  0  0  0  0  0
   42.0200   32.9690   41.2620 H   0  0  0  0  0  0  0  0  0  0  0  0
   43.6420   34.8930   41.8840 C   0  0  0  0  0  0  0  0  0  0  0  0
   43.8570   33.5510   42.1710 C   0  0  0  0  0  0  0  0  0  0  0  0
   44.9120   33.2160   42.9860 C   0  0  0  0  0  0  0  0  0  0  0  0
   45.7260   34.1900   43.4980 C   0  0  0  0  0  0  0  0  0  0  0  0
   45.5390   35.5120   43.2340 C   0  0  0  0  0  0  0  0  0  0  0  0
   44.4690   35.8070   42.4110 C   0  0  0  0  0  0  0  0  0  0  0  0
   45.1220   32.1840   43.2380 H   0  0  0  0  0  0  0  0  0  0  0  0
   46.5480   33.8940   44.1360 H   0  0  0  0  0  0  0  0  0  0  0  0
   46.1500   36.3180   43.6110 H   0  0  0  0  0  0  0  0  0  0  0  0
   44.2450   36.8400   42.1480 H   0  0  0  0  0  0  0  0  0  0  0  0
   40.2500   35.8450   40.5190 C   0  0  0  0  0  0  0  0  0  0  0  0
   41.2670   35.5820   41.4520 C   0  0  0  0  0  0  0  0  0  0  0  0
   42.5160   35.1910   41.0190 C   0  0  0  0  0  0  0  0  0  0  0  0
   42.6910   35.0790   39.6710 N   0  0  0  0  0  0  0  0  0  0  0  0
   41.7040   35.3340   38.7780 C   0  0  0  0  0  0  0  0  0  0  0  0
   40.4900   35.7150   39.2220 N   0  0  0  0  0  0  0  0  0  0  0  0
   39.3120   36.1440   40.9760 H   0  0  0  0  0  0  0  0  0  0  0  0
   41.1530   35.6640   42.5290 H   0  0  0  0  0  0  0  0  0  0  0  0
   41.9330   35.2190   37.7210 H   0  0  0  0  0  0  0  0  0  0  0  0
   42.6260   31.4490   42.5130 N   0  0  0  0  0  0  0  0  0  0  0  0
   43.1120   30.5540   42.3300 H   0  0  0  0  0  0  0  0  0  0  0  0
   40.9490   31.1590   42.6110 S   0  0  0  0  0  0  0  0  0  0  0  0
   40.1780   32.4660   42.6070 O   0  0  0  0  0  0  0  0  0  0  0  0
   39.8420   32.8230   41.7430 H   0  0  0  0  0  0  0  0  0  0  0  0
   40.6040   30.3590   43.8150 O   0  0  0  0  0  0  0  0  0  0  0  0
   41.2210   29.7130   44.2520 H   0  0  0  0  0  0  0  0  0  0  0  0
   40.4890   30.3010   41.2330 O   0  0  0  0  0  0  0  0  0  0  0  0
   39.1250   30.4830   41.0780 C   0  0  0  0  0  0  0  0  0  0  0  0
   38.5130   30.2460   41.9460 H   0  0  0  0  0  0  0  0  0  0  0  0
   38.9990   31.5900   40.8910 H   0  0  0  0  0  0  0  0  0  0  0  0
   38.6550   29.8180   39.8080 C   0  0  0  0  0  0  0  0  0  0  0  0
   39.5920   29.5170   39.2530 H   0  0  0  0  0  0  0  0  0  0  0  0
   38.2330   30.6390   39.1680 H   0  0  0  0  0  0  0  0  0  0  0  0
   37.7290   28.7030   39.9870 C   0  0  0  0  0  0  0  0  0  0  0  0
   36.4870   28.6420   39.3920 C   0  0  0  0  0  0  0  0  0  0  0  0
   36.1600   29.4530   38.7570 H   0  0  0  0  0  0  0  0  0  0  0  0
   35.7220   27.5020   39.6660 C   0  0  0  0  0  0  0  0  0  0  0  0
   34.7410   27.4210   39.2150 H   0  0  0  0  0  0  0  0  0  0  0  0
   36.2110   26.5050   40.4920 C   0  0  0  0  0  3  0  0  0  0  0  0
   37.4760   26.5980   41.0800 C   0  0  0  0  0  3  0  0  0  0  0  0
   38.1960   27.7110   40.8000 N   0  0  0  0  0  0  0  0  0  0  0  0
  1  5  1  0  0  0  0
  1 23  1  0  0  0  0
  2  1  1  0  0  0  0
  3  1  1  0  0  0  0
  4  5  2  0  0  0  0
  4  9  1  0  0  0  0
  5  6  1  0  0  0  0
  6 10  1  0  0  0  0
  6  7  2  0  0  0  0
  7 11  1  0  0  0  0
  8  7  1  0  0  0  0
  8 12  1  0  0  0  0
  9  8  2  0  0  0  0
 13  9  1  0  0  0  0
 14 20  1  0  0  0  0
 14 15  1  0  0  0  0
 15 21  1  0  0  0  0
 16 15  2  0  0  0  0
 16  4  1  0  0  0  0
 17 16  1  0  0  0  0
 18 19  1  0  0  0  0
 18 17  2  0  0  0  0
 19 14  2  0  0  0  0
 22 18  1  0  0  0  0
 23 25  1  0  0  0  0
 24 23  1  0  0  0  0
 25 28  1  0  0  0  0
 26 25  1  0  0  0  0
 27 26  1  0  0  0  0
 28 29  1  0  0  0  0
 30 25  1  0  0  0  0
 31 30  1  0  0  0  0
 31 32  1  0  0  0  0
 33 31  1  0  0  0  0
 34 37  1  0  0  0  0
 34 31  1  0  0  0  0
 35 34  1  0  0  0  0
 36 34  1  0  0  0  0
 37 44  1  0  0  0  0
 38 40  1  0  0  0  0
 38 37  2  0  0  0  0
 39 38  1  0  0  0  0
 40 42  2  0  0  0  0
 41 40  1  0  0  0  0
 42 43  1  0  0  0  0
 44 43  2  0  0  0  0
M  END
>  <minimizedAffinity>
-5.35123062

>  <minimizedRMSD>
3.55959392

$$$$
