
 OpenBabel03252508463D

 44 46  0  0  0  0  0  0  0  0999 V2000
   42.9160   32.4780   41.5970 C   0  0  0  0  0  0  0  0  0  0  0  0
   43.3770   32.0440   40.6680 H   0  0  0  0  0  0  0  0  0  0  0  0
   41.9690   32.9660   41.2600 H   0  0  0  0  0  0  0  0  0  0  0  0
   43.6230   34.8660   41.8790 C   0  0  0  0  0  0  0  0  0  0  0  0
   43.8190   33.5200   42.1620 C   0  0  0  0  0  0  0  0  0  0  0  0
   44.8680   33.1670   42.9770 C   0  0  0  0  0  0  0  0  0  0  0  0
   45.6940   34.1280   43.4930 C   0  0  0  0  0  0  0  0  0  0  0  0
   45.5270   35.4530   43.2340 C   0  0  0  0  0  0  0  0  0  0  0  0
   44.4620   35.7670   42.4110 C   0  0  0  0  0  0  0  0  0  0  0  0
   45.0620   32.1320   43.2250 H   0  0  0  0  0  0  0  0  0  0  0  0
   46.5120   33.8180   44.1310 H   0  0  0  0  0  0  0  0  0  0  0  0
   46.1480   36.2490   43.6150 H   0  0  0  0  0  0  0  0  0  0  0  0
   44.2530   36.8030   42.1520 H   0  0  0  0  0  0  0  0  0  0  0  0
   40.2450   35.8670   40.5140 C   0  0  0  0  0  0  0  0  0  0  0  0
   41.2570   35.5870   41.4480 C   0  0  0  0  0  0  0  0  0  0  0  0
   42.5020   35.1830   41.0150 C   0  0  0  0  0  0  0  0  0  0  0  0
   42.6780   35.0780   39.6660 N   0  0  0  0  0  0  0  0  0  0  0  0
   41.6960   35.3500   38.7730 C   0  0  0  0  0  0  0  0  0  0  0  0
   40.4860   35.7430   39.2170 N   0  0  0  0  0  0  0  0  0  0  0  0
   39.3100   36.1750   40.9720 H   0  0  0  0  0  0  0  0  0  0  0  0
   41.1420   35.6620   42.5250 H   0  0  0  0  0  0  0  0  0  0  0  0
   41.9260   35.2400   37.7160 H   0  0  0  0  0  0  0  0  0  0  0  0
   42.5690   31.4270   42.4900 N   0  0  0  0  0  0  0  0  0  0  0  0
   43.0270   30.5230   42.2790 H   0  0  0  0  0  0  0  0  0  0  0  0
   40.8890   31.1780   42.6260 S   0  0  0  0  0  0  0  0  0  0  0  0
   40.1490   32.5030   42.6320 O   0  0  0  0  0  0  0  0  0  0  0  0
   39.8030   32.8630   41.7730 H   0  0  0  0  0  0  0  0  0  0  0  0
   40.5510   30.3930   43.8420 O   0  0  0  0  0  0  0  0  0  0  0  0
   41.1620   29.7340   44.2700 H   0  0  0  0  0  0  0  0  0  0  0  0
   40.3770   30.3230   41.2650 O   0  0  0  0  0  0  0  0  0  0  0  0
   39.0540   29.9750   41.4770 C   0  0  0  0  0  0  0  0  0  0  0  0
   38.8650   28.9190   41.6600 H   0  0  0  0  0  0  0  0  0  0  0  0
   38.7580   30.5210   42.4200 H   0  0  0  0  0  0  0  0  0  0  0  0
   38.1830   30.5660   40.3960 C   0  0  0  0  0  0  0  0  0  0  0  0
   38.7440   31.4670   40.0080 H   0  0  0  0  0  0  0  0  0  0  0  0
   37.3030   31.0210   40.9240 H   0  0  0  0  0  0  0  0  0  0  0  0
   37.7950   29.6470   39.3300 C   0  0  0  0  0  0  0  0  0  0  0  0
   38.4360   29.5800   38.1110 C   0  0  0  0  0  0  0  0  0  0  0  0
   39.2720   30.2360   37.9130 H   0  0  0  0  0  0  0  0  0  0  0  0
   37.9400   28.6430   37.1970 C   0  0  0  0  0  0  0  0  0  0  0  0
   38.4200   28.5650   36.2310 H   0  0  0  0  0  0  0  0  0  0  0  0
   36.8630   27.8400   37.5250 C   0  0  0  0  0  3  0  0  0  0  0  0
   36.2340   27.9330   38.7710 C   0  0  0  0  0  3  0  0  0  0  0  0
   36.7320   28.8470   39.6370 N   0  0  0  0  0  0  0  0  0  0  0  0
  1  5  1  0  0  0  0
  1 23  1  0  0  0  0
  2  1  1  0  0  0  0
  3  1  1  0  0  0  0
  4  5  2  0  0  0  0
  4  9  1  0  0  0  0
  5  6  1  0  0  0  0
  6 10  1  0  0  0  0
  6  7  2  0  0  0  0
  7 11  1  0  0  0  0
  8  7  1  0  0  0  0
  8 12  1  0  0  0  0
  9  8  2  0  0  0  0
 13  9  1  0  0  0  0
 14 20  1  0  0  0  0
 14 15  1  0  0  0  0
 15 21  1  0  0  0  0
 16 15  2  0  0  0  0
 16  4  1  0  0  0  0
 17 16  1  0  0  0  0
 18 19  1  0  0  0  0
 18 17  2  0  0  0  0
 19 14  2  0  0  0  0
 22 18  1  0  0  0  0
 23 25  1  0  0  0  0
 24 23  1  0  0  0  0
 25 26  1  0  0  0  0
 25 28  1  0  0  0  0
 27 26  1  0  0  0  0
 28 29  1  0  0  0  0
 30 31  1  0  0  0  0
 30 25  1  0  0  0  0
 31 32  1  0  0  0  0
 31 33  1  0  0  0  0
 34 36  1  0  0  0  0
 34 31  1  0  0  0  0
 35 34  1  0  0  0  0
 37 44  1  0  0  0  0
 37 34  1  0  0  0  0
 38 37  2  0  0  0  0
 39 38  1  0  0  0  0
 40 42  2  0  0  0  0
 40 38  1  0  0  0  0
 41 40  1  0  0  0  0
 42 43  1  0  0  0  0
 43 44  2  0  0  0  0
M  END
>  <minimizedAffinity>
-5.35156059

>  <minimizedRMSD>
3.73042822

$$$$
