
 OpenBabel03252508453D

 44 46  0  0  0  0  0  0  0  0999 V2000
   43.0000   32.3940   41.7290 C   0  0  0  0  0  0  0  0  0  0  0  0
   43.4560   31.9470   40.8050 H   0  0  0  0  0  0  0  0  0  0  0  0
   42.0310   32.8430   41.3970 H   0  0  0  0  0  0  0  0  0  0  0  0
   43.6420   34.8100   41.9180 C   0  0  0  0  0  0  0  0  0  0  0  0
   43.8800   33.4800   42.2450 C   0  0  0  0  0  0  0  0  0  0  0  0
   44.9490   33.1860   43.0570 C   0  0  0  0  0  0  0  0  0  0  0  0
   45.7550   34.1860   43.5280 C   0  0  0  0  0  0  0  0  0  0  0  0
   45.5460   35.4960   43.2250 C   0  0  0  0  0  0  0  0  0  0  0  0
   44.4630   35.7510   42.4070 C   0  0  0  0  0  0  0  0  0  0  0  0
   45.1760   32.1650   43.3390 H   0  0  0  0  0  0  0  0  0  0  0  0
   46.5890   33.9220   44.1650 H   0  0  0  0  0  0  0  0  0  0  0  0
   46.1500   36.3220   43.5690 H   0  0  0  0  0  0  0  0  0  0  0  0
   44.2210   36.7720   42.1140 H   0  0  0  0  0  0  0  0  0  0  0  0
   40.2010   35.5960   40.5700 C   0  0  0  0  0  0  0  0  0  0  0  0
   41.2310   35.3680   41.4990 C   0  0  0  0  0  0  0  0  0  0  0  0
   42.5020   35.0650   41.0590 C   0  0  0  0  0  0  0  0  0  0  0  0
   42.6860   35.0030   39.7090 N   0  0  0  0  0  0  0  0  0  0  0  0
   41.6870   35.2240   38.8200 C   0  0  0  0  0  0  0  0  0  0  0  0
   40.4510   35.5190   39.2700 N   0  0  0  0  0  0  0  0  0  0  0  0
   39.2470   35.8250   41.0320 H   0  0  0  0  0  0  0  0  0  0  0  0
   41.1110   35.4110   42.5770 H   0  0  0  0  0  0  0  0  0  0  0  0
   41.9240   35.1540   37.7610 H   0  0  0  0  0  0  0  0  0  0  0  0
   42.7030   31.3600   42.6600 N   0  0  0  0  0  0  0  0  0  0  0  0
   43.2740   30.5060   42.5400 H   0  0  0  0  0  0  0  0  0  0  0  0
   41.0550   30.9260   42.6910 S   0  0  0  0  0  0  0  0  0  0  0  0
   40.1800   32.1170   42.3510 O   0  0  0  0  0  0  0  0  0  0  0  0
   39.8990   32.2530   41.4070 H   0  0  0  0  0  0  0  0  0  0  0  0
   40.6660   30.3580   44.0080 O   0  0  0  0  0  0  0  0  0  0  0  0
   41.2910   29.8820   44.6180 H   0  0  0  0  0  0  0  0  0  0  0  0
   40.8030   29.7600   41.4970 O   0  0  0  0  0  0  0  0  0  0  0  0
   40.0550   28.7460   42.0720 C   0  0  0  0  0  0  0  0  0  0  0  0
   39.5670   28.9910   43.0130 H   0  0  0  0  0  0  0  0  0  0  0  0
   39.2290   28.5380   41.3300 H   0  0  0  0  0  0  0  0  0  0  0  0
   40.8620   27.4730   42.1230 C   0  0  0  0  0  0  0  0  0  0  0  0
   41.9090   27.7590   41.8080 H   0  0  0  0  0  0  0  0  0  0  0  0
   40.5000   26.8440   41.2660 H   0  0  0  0  0  0  0  0  0  0  0  0
   40.8370   26.7650   43.4000 C   0  0  0  0  0  0  0  0  0  0  0  0
   40.6560   25.4030   43.5120 C   0  0  0  0  0  0  0  0  0  0  0  0
   40.5220   24.8080   42.6180 H   0  0  0  0  0  0  0  0  0  0  0  0
   40.6600   24.8780   44.8090 C   0  0  0  0  0  0  0  0  0  0  0  0
   40.5200   23.8120   44.9320 H   0  0  0  0  0  0  0  0  0  0  0  0
   40.8390   25.7050   45.9040 C   0  0  0  0  0  3  0  0  0  0  0  0
   41.0190   27.0840   45.7560 C   0  0  0  0  0  3  0  0  0  0  0  0
   41.0110   27.5660   44.4910 N   0  0  0  0  0  0  0  0  0  0  0  0
  1  5  1  0  0  0  0
  1 23  1  0  0  0  0
  2  1  1  0  0  0  0
  3  1  1  0  0  0  0
  4  5  2  0  0  0  0
  4  9  1  0  0  0  0
  5  6  1  0  0  0  0
  6 10  1  0  0  0  0
  6  7  2  0  0  0  0
  7 11  1  0  0  0  0
  8  7  1  0  0  0  0
  8 12  1  0  0  0  0
  9  8  2  0  0  0  0
 13  9  1  0  0  0  0
 14 20  1  0  0  0  0
 14 15  1  0  0  0  0
 15 21  1  0  0  0  0
 16 15  2  0  0  0  0
 16  4  1  0  0  0  0
 17 16  1  0  0  0  0
 18 19  1  0  0  0  0
 18 17  2  0  0  0  0
 19 14  2  0  0  0  0
 22 18  1  0  0  0  0
 23 25  1  0  0  0  0
 24 23  1  0  0  0  0
 25 28  1  0  0  0  0
 26 25  1  0  0  0  0
 27 26  1  0  0  0  0
 28 29  1  0  0  0  0
 30 31  1  0  0  0  0
 30 25  1  0  0  0  0
 31 34  1  0  0  0  0
 31 32  1  0  0  0  0
 33 31  1  0  0  0  0
 34 37  1  0  0  0  0
 35 34  1  0  0  0  0
 36 34  1  0  0  0  0
 37 38  2  0  0  0  0
 37 44  1  0  0  0  0
 38 40  1  0  0  0  0
 39 38  1  0  0  0  0
 40 41  1  0  0  0  0
 40 42  2  0  0  0  0
 43 42  1  0  0  0  0
 44 43  2  0  0  0  0
M  END
>  <minimizedAffinity>
-5.28073359

>  <minimizedRMSD>
1.9997257

$$$$
