
 OpenBabel03252507413D

 24 25  0  0  0  0  0  0  0  0999 V2000
   47.0240   34.8120   41.9500 C   0  0  0  0  0  0  0  0  0  0  0  0
   47.4150   35.8290   41.7180 H   0  0  0  0  0  0  0  0  0  0  0  0
   47.9040   34.1900   42.1360 H   0  0  0  0  0  0  0  0  0  0  0  0
   46.1810   34.9670   43.1460 C   0  0  0  0  0  0  0  0  0  0  0  0
   46.3240   33.9650   44.1230 C   0  0  0  0  0  0  0  0  0  0  0  0
   45.5650   34.0310   45.2870 C   0  0  0  0  0  0  0  0  0  0  0  0
   44.6960   35.0850   45.4380 N   0  0  0  0  0  0  0  0  0  0  0  0
   44.5960   36.0210   44.4700 C   0  0  0  0  0  0  0  0  0  0  0  0
   45.3110   35.9740   43.3550 N   0  0  0  0  0  0  0  0  0  0  0  0
   45.6480   33.2800   46.0600 H   0  0  0  0  0  0  0  0  0  0  0  0
   43.9350   36.8760   44.5200 H   0  0  0  0  0  0  0  0  0  0  0  0
   47.4730   32.6040   43.8860 S   0  0  0  0  0  0  0  0  0  0  0  0
   46.7320   31.4760   43.4950 H   0  0  0  0  0  0  0  0  0  0  0  0
   46.2720   34.2250   40.7850 C   0  0  0  0  0  0  0  0  0  0  0  0
   45.7350   35.0310   40.2350 H   0  0  0  0  0  0  0  0  0  0  0  0
   45.4940   33.5570   41.1870 H   0  0  0  0  0  0  0  0  0  0  0  0
   47.1340   33.4660   39.8750 C   0  0  0  0  0  0  0  0  0  0  0  0
   46.6040   33.1820   38.6140 C   0  0  0  0  0  0  0  0  0  0  0  0
   45.6310   33.4960   38.3290 H   0  0  0  0  0  0  0  0  0  0  0  0
   47.3170   32.4720   37.6610 C   0  0  0  0  0  0  0  0  0  0  0  0
   46.8890   32.2640   36.6970 H   0  0  0  0  0  0  0  0  0  0  0  0
   48.5850   32.0230   37.9370 C   0  0  0  0  0  0  0  0  0  0  0  0
   49.0910   32.3220   39.2070 C   0  0  0  0  0  0  0  0  0  0  0  0
   48.3810   33.0130   40.1180 N   0  0  0  0  0  0  0  0  0  0  0  0
  1  3  1  0  0  0  0
  1  4  1  0  0  0  0
  2  1  1  0  0  0  0
  4  9  2  0  0  0  0
  4  5  1  0  0  0  0
  5  6  2  0  0  0  0
  6  7  1  0  0  0  0
  6 10  1  0  0  0  0
  8 11  1  0  0  0  0
  8  7  2  0  0  0  0
  9  8  1  0  0  0  0
 12  5  1  0  0  0  0
 13 12  1  0  0  0  0
 14 16  1  0  0  0  0
 14  1  1  0  0  0  0
 15 14  1  0  0  0  0
 17 24  1  0  0  0  0
 17 14  1  0  0  0  0
 18 17  2  0  0  0  0
 19 18  1  0  0  0  0
 20 22  2  0  0  0  0
 20 18  1  0  0  0  0
 21 20  1  0  0  0  0
 22 23  1  0  0  0  0
 23 24  2  0  0  0  0
M  END
>  <minimizedAffinity>
-4.00677919

>  <minimizedRMSD>
2.98698306

$$$$
