
 OpenBabel03252505303D

 26 27  0  0  0  0  0  0  0  0999 V2000
   47.0080   32.0620   48.3000 O   0  0  0  0  0  0  0  0  0  0  0  0
   45.9700   32.3550   47.2280 P   0  0  1  0  0  0  0  0  0  0  0  0
   44.6870   33.2570   47.8620 O   0  0  0  0  0  0  0  0  0  0  0  0
   44.4680   32.8540   48.7560 H   0  0  0  0  0  0  0  0  0  0  0  0
   46.7330   33.1860   45.9750 O   0  0  0  0  0  0  0  0  0  0  0  0
   44.4790   35.6260   44.7210 C   0  0  0  0  0  0  0  0  0  0  0  0
   44.8560   35.8140   43.3730 C   0  0  0  0  0  0  0  0  0  0  0  0
   45.9490   35.0280   42.9340 C   0  0  0  0  0  0  0  0  0  0  0  0
   46.5380   34.1790   43.8190 N   0  0  0  0  0  0  0  0  0  0  0  0
   46.1280   34.0530   45.0820 C   0  0  0  0  0  0  0  0  0  0  0  0
   45.1090   34.7640   45.5420 N   0  0  0  0  0  0  0  0  0  0  0  0
   43.6470   36.1940   45.1290 H   0  0  0  0  0  0  0  0  0  0  0  0
   44.3250   36.5090   42.7580 H   0  0  0  0  0  0  0  0  0  0  0  0
   46.2670   35.1420   41.9120 H   0  0  0  0  0  0  0  0  0  0  0  0
   45.3470   30.8750   46.7250 O   0  0  0  0  0  0  0  0  0  0  0  0
   45.6060   29.9320   47.7020 C   0  0  0  0  0  0  0  0  0  0  0  0
   45.2270   30.3570   48.6730 H   0  0  0  0  0  0  0  0  0  0  0  0
   46.6780   29.7370   47.8460 H   0  0  0  0  0  0  0  0  0  0  0  0
   44.8650   28.6810   47.3870 C   0  0  0  0  0  0  0  0  0  0  0  0
   44.0960   28.4880   46.2580 C   0  0  0  0  0  0  0  0  0  0  0  0
   44.0280   29.3060   45.5560 H   0  0  0  0  0  0  0  0  0  0  0  0
   43.4240   27.3070   46.0080 C   0  0  0  0  0  0  0  0  0  0  0  0
   42.8250   27.1820   45.1100 H   0  0  0  0  0  0  0  0  0  0  0  0
   43.5460   26.2820   46.9510 C   0  0  0  0  0  0  0  0  0  0  0  0
   44.3260   26.4780   48.0940 C   0  0  0  0  0  0  0  0  0  0  0  0
   44.9570   27.6550   48.2830 N   0  0  0  0  0  0  0  0  0  0  0  0
  2  3  1  0  0  0  0
  2  1  2  1  0  0  0
  3  4  1  0  0  0  0
  5  2  1  0  0  0  0
  6 12  1  0  0  0  0
  6 11  1  0  0  0  0
  7  6  2  0  0  0  0
  8  7  1  0  0  0  0
  8  9  2  0  0  0  0
  9 10  1  0  0  0  0
 10 11  2  0  0  0  0
 10  5  1  0  0  0  0
 13  7  1  0  0  0  0
 14  8  1  0  0  0  0
 15  2  1  0  0  0  0
 15 16  1  0  0  0  0
 16 18  1  0  0  0  0
 16 17  1  0  0  0  0
 19 16  1  0  0  0  0
 19 26  1  0  0  0  0
 20 19  2  0  0  0  0
 21 20  1  0  0  0  0
 22 20  1  0  0  0  0
 22 24  2  0  0  0  0
 23 22  1  0  0  0  0
 24 25  1  0  0  0  0
 25 26  2  0  0  0  0
M  END
>  <minimizedAffinity>
-4.76870823

>  <minimizedRMSD>
0.530929148

$$$$
