
 OpenBabel03252506593D

 23 24  0  0  0  0  0  0  0  0999 V2000
   45.8010   32.0330   44.3800 C   0  0  0  0  0  0  0  0  0  0  0  0
   45.5400   31.2730   43.6000 H   0  0  0  0  0  0  0  0  0  0  0  0
   44.9160   32.3380   44.9480 H   0  0  0  0  0  0  0  0  0  0  0  0
   46.4200   33.1540   43.6680 C   0  0  0  0  0  0  0  0  0  0  0  0
   47.7940   33.2540   43.4960 C   0  0  0  0  0  0  0  0  0  0  0  0
   48.3080   34.3650   42.7900 C   0  0  0  0  0  0  0  0  0  0  0  0
   47.4130   35.2780   42.3170 N   0  0  0  0  0  0  0  0  0  0  0  0
   46.0920   35.1400   42.5060 C   0  0  0  0  0  0  0  0  0  0  0  0
   45.5980   34.1000   43.1690 N   0  0  0  0  0  0  0  0  0  0  0  0
   48.4600   32.4950   43.8960 H   0  0  0  0  0  0  0  0  0  0  0  0
   49.3710   34.4740   42.6370 H   0  0  0  0  0  0  0  0  0  0  0  0
   45.3770   35.8790   42.1240 H   0  0  0  0  0  0  0  0  0  0  0  0
   46.7870   31.5050   45.3800 C   0  0  0  0  0  0  0  0  0  0  0  0
   47.6470   32.2060   45.4230 H   0  0  0  0  0  0  0  0  0  0  0  0
   47.1950   30.5020   45.1150 H   0  0  0  0  0  0  0  0  0  0  0  0
   46.2590   31.4200   46.7570 C   0  0  0  0  0  0  0  0  0  0  0  0
   46.4550   32.4280   47.6710 C   0  0  0  0  0  0  0  0  0  0  0  0
   47.0120   33.3110   47.3790 H   0  0  0  0  0  0  0  0  0  0  0  0
   45.9420   32.3140   48.9620 C   0  0  0  0  0  0  0  0  0  0  0  0
   46.1060   33.1120   49.6620 H   0  0  0  0  0  0  0  0  0  0  0  0
   45.2400   31.1440   49.2440 C   0  0  0  0  0  3  0  0  0  0  0  0
   45.0650   30.1530   48.2940 C   0  0  0  0  0  3  0  0  0  0  0  0
   45.5730   30.2910   47.0550 N   0  0  0  0  0  0  0  0  0  0  0  0
  1  3  1  0  0  0  0
  1 13  1  0  0  0  0
  2  1  1  0  0  0  0
  4  1  1  0  0  0  0
  5  4  1  0  0  0  0
  5 10  1  0  0  0  0
  6  5  2  0  0  0  0
  7  8  2  0  0  0  0
  7  6  1  0  0  0  0
  8  9  1  0  0  0  0
  9  4  2  0  0  0  0
 11  6  1  0  0  0  0
 12  8  1  0  0  0  0
 13 14  1  0  0  0  0
 13 16  1  0  0  0  0
 15 13  1  0  0  0  0
 16 23  2  0  0  0  0
 16 17  1  0  0  0  0
 17 19  2  0  0  0  0
 18 17  1  0  0  0  0
 19 21  1  0  0  0  0
 19 20  1  0  0  0  0
 22 21  2  0  0  0  0
 23 22  1  0  0  0  0
M  END
>  <minimizedAffinity>
-3.88377118

>  <minimizedRMSD>
6.60659981

$$$$
