
 OpenBabel03252506593D

 23 24  0  0  0  0  0  0  0  0999 V2000
   38.9510   29.1320   42.8820 C   0  0  0  0  0  0  0  0  0  0  0  0
   39.4850   29.7170   43.6740 H   0  0  0  0  0  0  0  0  0  0  0  0
   39.6430   28.4860   42.3320 H   0  0  0  0  0  0  0  0  0  0  0  0
   38.3000   30.1180   42.0160 C   0  0  0  0  0  0  0  0  0  0  0  0
   38.9960   31.1720   41.4390 C   0  0  0  0  0  0  0  0  0  0  0  0
   38.2910   32.0730   40.6100 C   0  0  0  0  0  0  0  0  0  0  0  0
   36.9590   31.8500   40.4260 N   0  0  0  0  0  0  0  0  0  0  0  0
   36.3270   30.8170   41.0050 C   0  0  0  0  0  0  0  0  0  0  0  0
   36.9800   29.9640   41.7870 N   0  0  0  0  0  0  0  0  0  0  0  0
   40.0590   31.3010   41.6210 H   0  0  0  0  0  0  0  0  0  0  0  0
   38.8010   32.9040   40.1440 H   0  0  0  0  0  0  0  0  0  0  0  0
   35.2550   30.6430   40.8540 H   0  0  0  0  0  0  0  0  0  0  0  0
   37.8950   28.2330   43.4550 C   0  0  0  0  0  0  0  0  0  0  0  0
   36.9060   28.5880   43.0980 H   0  0  0  0  0  0  0  0  0  0  0  0
   37.8620   28.2390   44.5690 H   0  0  0  0  0  0  0  0  0  0  0  0
   38.0050   26.8250   43.0210 C   0  0  0  0  0  0  0  0  0  0  0  0
   36.9460   26.1590   42.4510 C   0  0  0  0  0  0  0  0  0  0  0  0
   36.0040   26.6740   42.3150 H   0  0  0  0  0  0  0  0  0  0  0  0
   37.0850   24.8310   42.0530 C   0  0  0  0  0  0  0  0  0  0  0  0
   36.2470   24.3260   41.6090 H   0  0  0  0  0  0  0  0  0  0  0  0
   38.3360   24.2520   42.2680 C   0  0  0  0  0  3  0  0  0  0  0  0
   39.3750   24.9580   42.8450 C   0  0  0  0  0  3  0  0  0  0  0  0
   39.2100   26.2410   43.2200 N   0  0  0  0  0  0  0  0  0  0  0  0
  1 13  1  0  0  0  0
  1  2  1  0  0  0  0
  3  1  1  0  0  0  0
  4  1  1  0  0  0  0
  5 10  1  0  0  0  0
  5  4  2  0  0  0  0
  6  5  1  0  0  0  0
  7  6  2  0  0  0  0
  7  8  1  0  0  0  0
  8  9  2  0  0  0  0
  9  4  1  0  0  0  0
 11  6  1  0  0  0  0
 12  8  1  0  0  0  0
 13 15  1  0  0  0  0
 14 13  1  0  0  0  0
 16 23  1  0  0  0  0
 16 13  1  0  0  0  0
 17 16  2  0  0  0  0
 18 17  1  0  0  0  0
 19 21  2  0  0  0  0
 19 17  1  0  0  0  0
 20 19  1  0  0  0  0
 21 22  1  0  0  0  0
 22 23  2  0  0  0  0
M  END
>  <minimizedAffinity>
-4.41359186

$$$$

 OpenBabel03252506593D

 23 24  0  0  0  0  0  0  0  0999 V2000
   37.1120   30.7060   39.3590 C   0  0  0  0  0  0  0  0  0  0  0  0
   37.7830   29.8230   39.2040 H   0  0  0  0  0  0  0  0  0  0  0  0
   36.4010   30.8130   38.5340 H   0  0  0  0  0  0  0  0  0  0  0  0
   37.9910   31.8700   39.4930 C   0  0  0  0  0  0  0  0  0  0  0  0
   37.5350   33.0900   39.9750 C   0  0  0  0  0  0  0  0  0  0  0  0
   38.4520   34.1600   40.0790 C   0  0  0  0  0  0  0  0  0  0  0  0
   39.7390   33.9260   39.6960 N   0  0  0  0  0  0  0  0  0  0  0  0
   40.1350   32.7300   39.2350 C   0  0  0  0  0  0  0  0  0  0  0  0
   39.2810   31.7160   39.1330 N   0  0  0  0  0  0  0  0  0  0  0  0
   36.4970   33.2190   40.2670 H   0  0  0  0  0  0  0  0  0  0  0  0
   38.1320   35.1220   40.4510 H   0  0  0  0  0  0  0  0  0  0  0  0
   41.1720   32.5470   38.9270 H   0  0  0  0  0  0  0  0  0  0  0  0
   36.2950   30.5830   40.6120 C   0  0  0  0  0  0  0  0  0  0  0  0
   35.2650   30.2840   40.3260 H   0  0  0  0  0  0  0  0  0  0  0  0
   36.2130   31.5350   41.1850 H   0  0  0  0  0  0  0  0  0  0  0  0
   36.7770   29.5430   41.5440 C   0  0  0  0  0  0  0  0  0  0  0  0
   36.2320   28.2810   41.5660 C   0  0  0  0  0  0  0  0  0  0  0  0
   35.4260   28.0370   40.8850 H   0  0  0  0  0  0  0  0  0  0  0  0
   36.7110   27.3250   42.4580 C   0  0  0  0  0  0  0  0  0  0  0  0
   36.2730   26.3440   42.4610 H   0  0  0  0  0  0  0  0  0  0  0  0
   37.7500   27.7320   43.2960 C   0  0  0  0  0  3  0  0  0  0  0  0
   38.2700   29.0110   43.2420 C   0  0  0  0  0  3  0  0  0  0  0  0
   37.7850   29.9140   42.3690 N   0  0  0  0  0  0  0  0  0  0  0  0
  1  4  1  0  0  0  0
  1 13  1  0  0  0  0
  2  1  1  0  0  0  0
  3  1  1  0  0  0  0
  4  5  1  0  0  0  0
  5  6  2  0  0  0  0
  5 10  1  0  0  0  0
  6 11  1  0  0  0  0
  7  6  1  0  0  0  0
  8  7  2  0  0  0  0
  9  8  1  0  0  0  0
  9  4  2  0  0  0  0
 12  8  1  0  0  0  0
 13 15  1  0  0  0  0
 13 16  1  0  0  0  0
 14 13  1  0  0  0  0
 16 17  2  0  0  0  0
 16 23  1  0  0  0  0
 17 19  1  0  0  0  0
 18 17  1  0  0  0  0
 19 20  1  0  0  0  0
 19 21  2  0  0  0  0
 22 21  1  0  0  0  0
 23 22  2  0  0  0  0
M  END
>  <minimizedAffinity>
-4.33133221

$$$$

 OpenBabel03252506593D

 23 24  0  0  0  0  0  0  0  0999 V2000
   36.4540   28.2750   41.8150 C   0  0  0  0  0  0  0  0  0  0  0  0
   36.6830   27.5680   40.9780 H   0  0  0  0  0  0  0  0  0  0  0  0
   35.3800   28.3060   42.0260 H   0  0  0  0  0  0  0  0  0  0  0  0
   36.9800   29.5790   41.4050 C   0  0  0  0  0  0  0  0  0  0  0  0
   36.2080   30.5050   40.7150 C   0  0  0  0  0  0  0  0  0  0  0  0
   36.7910   31.7430   40.3630 C   0  0  0  0  0  0  0  0  0  0  0  0
   38.0880   31.9540   40.7270 N   0  0  0  0  0  0  0  0  0  0  0  0
   38.7960   31.0300   41.3940 C   0  0  0  0  0  0  0  0  0  0  0  0
   38.2580   29.8620   41.7290 N   0  0  0  0  0  0  0  0  0  0  0  0
   35.1780   30.2820   40.4500 H   0  0  0  0  0  0  0  0  0  0  0  0
   36.2200   32.4860   39.8270 H   0  0  0  0  0  0  0  0  0  0  0  0
   39.8390   31.2050   41.6840 H   0  0  0  0  0  0  0  0  0  0  0  0
   37.1270   27.8740   43.0950 C   0  0  0  0  0  0  0  0  0  0  0  0
   36.3410   27.6670   43.8510 H   0  0  0  0  0  0  0  0  0  0  0  0
   37.7860   28.6670   43.5180 H   0  0  0  0  0  0  0  0  0  0  0  0
   37.9290   26.6380   42.9900 C   0  0  0  0  0  0  0  0  0  0  0  0
   37.4750   25.5370   42.3020 C   0  0  0  0  0  0  0  0  0  0  0  0
   36.5040   25.5720   41.8240 H   0  0  0  0  0  0  0  0  0  0  0  0
   38.2570   24.3870   42.2240 C   0  0  0  0  0  0  0  0  0  0  0  0
   37.8860   23.5370   41.6820 H   0  0  0  0  0  0  0  0  0  0  0  0
   39.4910   24.4370   42.8720 C   0  0  0  0  0  3  0  0  0  0  0  0
   39.9100   25.5650   43.5520 C   0  0  0  0  0  3  0  0  0  0  0  0
   39.1320   26.6620   43.6120 N   0  0  0  0  0  0  0  0  0  0  0  0
  1  3  1  0  0  0  0
  1 13  1  0  0  0  0
  2  1  1  0  0  0  0
  4  9  1  0  0  0  0
  4  1  1  0  0  0  0
  5  4  2  0  0  0  0
  6  5  1  0  0  0  0
  6  7  2  0  0  0  0
  7  8  1  0  0  0  0
  8 12  1  0  0  0  0
  8  9  2  0  0  0  0
 10  5  1  0  0  0  0
 11  6  1  0  0  0  0
 13 15  1  0  0  0  0
 13 14  1  0  0  0  0
 16 13  1  0  0  0  0
 16 23  1  0  0  0  0
 17 16  2  0  0  0  0
 18 17  1  0  0  0  0
 19 17  1  0  0  0  0
 19 21  2  0  0  0  0
 20 19  1  0  0  0  0
 21 22  1  0  0  0  0
 22 23  2  0  0  0  0
M  END
>  <minimizedAffinity>
-4.31380081

$$$$

 OpenBabel03252506593D

 23 24  0  0  0  0  0  0  0  0999 V2000
   35.3720   29.2080   40.1910 C   0  0  0  0  0  0  0  0  0  0  0  0
   34.4950   29.1690   39.4960 H   0  0  0  0  0  0  0  0  0  0  0  0
   35.0500   29.3280   41.2300 H   0  0  0  0  0  0  0  0  0  0  0  0
   36.2060   30.3220   39.7340 C   0  0  0  0  0  0  0  0  0  0  0  0
   36.6090   30.4520   38.4110 C   0  0  0  0  0  0  0  0  0  0  0  0
   37.4070   31.5620   38.0530 C   0  0  0  0  0  0  0  0  0  0  0  0
   37.7360   32.4440   39.0390 N   0  0  0  0  0  0  0  0  0  0  0  0
   37.3240   32.2790   40.3050 C   0  0  0  0  0  0  0  0  0  0  0  0
   36.5730   31.2390   40.6530 N   0  0  0  0  0  0  0  0  0  0  0  0
   36.3160   29.7160   37.6670 H   0  0  0  0  0  0  0  0  0  0  0  0
   37.7370   31.6940   37.0340 H   0  0  0  0  0  0  0  0  0  0  0  0
   37.5920   32.9920   41.0940 H   0  0  0  0  0  0  0  0  0  0  0  0
   36.1920   27.9520   40.1420 C   0  0  0  0  0  0  0  0  0  0  0  0
   36.8610   28.0080   39.2590 H   0  0  0  0  0  0  0  0  0  0  0  0
   35.5810   27.0270   40.0320 H   0  0  0  0  0  0  0  0  0  0  0  0
   37.0740   27.7660   41.3130 C   0  0  0  0  0  0  0  0  0  0  0  0
   36.5930   27.8310   42.5990 C   0  0  0  0  0  0  0  0  0  0  0  0
   35.5410   28.0250   42.7650 H   0  0  0  0  0  0  0  0  0  0  0  0
   37.4540   27.6510   43.6800 C   0  0  0  0  0  0  0  0  0  0  0  0
   37.0610   27.7050   44.6780 H   0  0  0  0  0  0  0  0  0  0  0  0
   38.7910   27.4070   43.3670 C   0  0  0  0  0  3  0  0  0  0  0  0
   39.2330   27.3480   42.0590 C   0  0  0  0  0  3  0  0  0  0  0  0
   38.3780   27.5280   41.0340 N   0  0  0  0  0  0  0  0  0  0  0  0
  1  3  1  0  0  0  0
  2  1  1  0  0  0  0
  4  1  1  0  0  0  0
  4  9  1  0  0  0  0
  5  4  2  0  0  0  0
  6  5  1  0  0  0  0
  6  7  2  0  0  0  0
  7  8  1  0  0  0  0
  8  9  2  0  0  0  0
  8 12  1  0  0  0  0
 10  5  1  0  0  0  0
 11  6  1  0  0  0  0
 13  1  1  0  0  0  0
 13 16  1  0  0  0  0
 14 13  1  0  0  0  0
 15 13  1  0  0  0  0
 16 17  1  0  0  0  0
 17 18  1  0  0  0  0
 17 19  2  0  0  0  0
 19 20  1  0  0  0  0
 21 19  1  0  0  0  0
 22 21  2  0  0  0  0
 23 16  2  0  0  0  0
 23 22  1  0  0  0  0
M  END
>  <minimizedAffinity>
-4.2915659

$$$$

 OpenBabel03252506593D

 23 24  0  0  0  0  0  0  0  0999 V2000
   36.5360   28.3200   41.8730 C   0  0  0  0  0  0  0  0  0  0  0  0
   36.7810   27.6010   41.0500 H   0  0  0  0  0  0  0  0  0  0  0  0
   35.4550   28.3810   42.0360 H   0  0  0  0  0  0  0  0  0  0  0  0
   37.1140   29.6070   41.4780 C   0  0  0  0  0  0  0  0  0  0  0  0
   38.3940   29.9900   41.8570 C   0  0  0  0  0  0  0  0  0  0  0  0
   38.8780   31.2460   41.4270 C   0  0  0  0  0  0  0  0  0  0  0  0
   38.0500   32.0100   40.6580 N   0  0  0  0  0  0  0  0  0  0  0  0
   36.8200   31.5980   40.3160 C   0  0  0  0  0  0  0  0  0  0  0  0
   36.3540   30.4190   40.7160 N   0  0  0  0  0  0  0  0  0  0  0  0
   39.0100   29.3400   42.4720 H   0  0  0  0  0  0  0  0  0  0  0  0
   39.8680   31.5760   41.7030 H   0  0  0  0  0  0  0  0  0  0  0  0
   36.1580   32.2170   39.6980 H   0  0  0  0  0  0  0  0  0  0  0  0
   37.1410   27.9100   43.1830 C   0  0  0  0  0  0  0  0  0  0  0  0
   36.3190   27.6230   43.8710 H   0  0  0  0  0  0  0  0  0  0  0  0
   37.7150   28.7250   43.6820 H   0  0  0  0  0  0  0  0  0  0  0  0
   38.0280   26.7320   43.0920 C   0  0  0  0  0  0  0  0  0  0  0  0
   39.2720   26.7170   43.6780 C   0  0  0  0  0  0  0  0  0  0  0  0
   39.6170   27.5880   44.2200 H   0  0  0  0  0  0  0  0  0  0  0  0
   40.0830   25.5890   43.5720 C   0  0  0  0  0  0  0  0  0  0  0  0
   41.0520   25.5940   44.0360 H   0  0  0  0  0  0  0  0  0  0  0  0
   39.5540   24.5160   42.8540 C   0  0  0  0  0  3  0  0  0  0  0  0
   38.2970   24.5730   42.2810 C   0  0  0  0  0  3  0  0  0  0  0  0
   37.5370   25.6780   42.3990 N   0  0  0  0  0  0  0  0  0  0  0  0
  1  3  1  0  0  0  0
  1 13  1  0  0  0  0
  2  1  1  0  0  0  0
  4  5  1  0  0  0  0
  4  1  1  0  0  0  0
  5 10  1  0  0  0  0
  6 11  1  0  0  0  0
  6  5  2  0  0  0  0
  7  6  1  0  0  0  0
  8  7  2  0  0  0  0
  8  9  1  0  0  0  0
  9  4  2  0  0  0  0
 12  8  1  0  0  0  0
 13 15  1  0  0  0  0
 13 14  1  0  0  0  0
 16 13  1  0  0  0  0
 16 17  1  0  0  0  0
 17 18  1  0  0  0  0
 19 17  2  0  0  0  0
 19 20  1  0  0  0  0
 21 19  1  0  0  0  0
 22 23  1  0  0  0  0
 22 21  2  0  0  0  0
 23 16  2  0  0  0  0
M  END
>  <minimizedAffinity>
-4.25701714

$$$$

 OpenBabel03252506593D

 23 24  0  0  0  0  0  0  0  0999 V2000
   37.8790   28.3300   43.5700 C   0  0  0  0  0  0  0  0  0  0  0  0
   38.0030   28.3100   44.6830 H   0  0  0  0  0  0  0  0  0  0  0  0
   36.8830   28.6860   43.2880 H   0  0  0  0  0  0  0  0  0  0  0  0
   38.1350   26.9640   43.1060 C   0  0  0  0  0  0  0  0  0  0  0  0
   37.1630   26.2040   42.4700 C   0  0  0  0  0  0  0  0  0  0  0  0
   37.4960   24.8970   42.0470 C   0  0  0  0  0  0  0  0  0  0  0  0
   38.7640   24.4610   42.2920 N   0  0  0  0  0  0  0  0  0  0  0  0
   39.6710   25.2310   42.9100 C   0  0  0  0  0  0  0  0  0  0  0  0
   39.3690   26.4610   43.3130 N   0  0  0  0  0  0  0  0  0  0  0  0
   36.1670   26.6040   42.3010 H   0  0  0  0  0  0  0  0  0  0  0  0
   36.7640   24.2790   41.5480 H   0  0  0  0  0  0  0  0  0  0  0  0
   40.6900   24.8740   43.1060 H   0  0  0  0  0  0  0  0  0  0  0  0
   38.8620   29.2480   42.9060 C   0  0  0  0  0  0  0  0  0  0  0  0
   39.5550   28.6320   42.2960 H   0  0  0  0  0  0  0  0  0  0  0  0
   39.4860   29.8270   43.6250 H   0  0  0  0  0  0  0  0  0  0  0  0
   38.2460   30.2140   41.9730 C   0  0  0  0  0  0  0  0  0  0  0  0
   36.9300   30.1080   41.5870 C   0  0  0  0  0  0  0  0  0  0  0  0
   36.3260   29.2960   41.9720 H   0  0  0  0  0  0  0  0  0  0  0  0
   36.3820   31.0360   40.7050 C   0  0  0  0  0  0  0  0  0  0  0  0
   35.3520   30.9380   40.4140 H   0  0  0  0  0  0  0  0  0  0  0  0
   37.2370   32.0450   40.2620 C   0  0  0  0  0  3  0  0  0  0  0  0
   38.5540   32.1160   40.6760 C   0  0  0  0  0  3  0  0  0  0  0  0
   39.0570   31.2030   41.5290 N   0  0  0  0  0  0  0  0  0  0  0  0
  1  2  1  0  0  0  0
  3  1  1  0  0  0  0
  4  9  1  0  0  0  0
  4  1  1  0  0  0  0
  5  4  2  0  0  0  0
  6  7  2  0  0  0  0
  6  5  1  0  0  0  0
  7  8  1  0  0  0  0
  8 12  1  0  0  0  0
  8  9  2  0  0  0  0
 10  5  1  0  0  0  0
 11  6  1  0  0  0  0
 13  1  1  0  0  0  0
 13 15  1  0  0  0  0
 14 13  1  0  0  0  0
 16 13  1  0  0  0  0
 17 18  1  0  0  0  0
 17 16  1  0  0  0  0
 19 17  2  0  0  0  0
 20 19  1  0  0  0  0
 21 22  2  0  0  0  0
 21 19  1  0  0  0  0
 22 23  1  0  0  0  0
 23 16  2  0  0  0  0
M  END
>  <minimizedAffinity>
-4.23855686

$$$$

 OpenBabel03252506593D

 23 24  0  0  0  0  0  0  0  0999 V2000
   35.8230   30.3600   40.5160 C   0  0  0  0  0  0  0  0  0  0  0  0
   34.8520   30.9170   40.5270 H   0  0  0  0  0  0  0  0  0  0  0  0
   36.5190   30.7600   41.2600 H   0  0  0  0  0  0  0  0  0  0  0  0
   36.3420   30.4700   39.1510 C   0  0  0  0  0  0  0  0  0  0  0  0
   37.2210   31.4760   38.7720 C   0  0  0  0  0  0  0  0  0  0  0  0
   37.6800   31.5050   37.4360 C   0  0  0  0  0  0  0  0  0  0  0  0
   37.2260   30.5340   36.5930 N   0  0  0  0  0  0  0  0  0  0  0  0
   36.3760   29.5810   37.0030 C   0  0  0  0  0  0  0  0  0  0  0  0
   35.9380   29.5440   38.2570 N   0  0  0  0  0  0  0  0  0  0  0  0
   37.5500   32.2250   39.4870 H   0  0  0  0  0  0  0  0  0  0  0  0
   38.3650   32.2730   37.1070 H   0  0  0  0  0  0  0  0  0  0  0  0
   36.0140   28.8030   36.3210 H   0  0  0  0  0  0  0  0  0  0  0  0
   35.6450   28.9050   40.8380 C   0  0  0  0  0  0  0  0  0  0  0  0
   35.7360   28.3270   39.8960 H   0  0  0  0  0  0  0  0  0  0  0  0
   34.6480   28.6650   41.2750 H   0  0  0  0  0  0  0  0  0  0  0  0
   36.6720   28.3630   41.7510 C   0  0  0  0  0  0  0  0  0  0  0  0
   36.9310   27.0140   41.8300 C   0  0  0  0  0  0  0  0  0  0  0  0
   36.3700   26.3270   41.2100 H   0  0  0  0  0  0  0  0  0  0  0  0
   37.9070   26.5380   42.7020 C   0  0  0  0  0  0  0  0  0  0  0  0
   38.0970   25.4810   42.7500 H   0  0  0  0  0  0  0  0  0  0  0  0
   38.5770   27.4980   43.4600 C   0  0  0  0  0  3  0  0  0  0  0  0
   38.2860   28.8450   43.3500 C   0  0  0  0  0  3  0  0  0  0  0  0
   37.3360   29.2760   42.4980 N   0  0  0  0  0  0  0  0  0  0  0  0
  1  2  1  0  0  0  0
  1 13  1  0  0  0  0
  1  3  1  0  0  0  0
  4  1  1  0  0  0  0
  5  4  1  0  0  0  0
  5 10  1  0  0  0  0
  6  5  2  0  0  0  0
  7  8  2  0  0  0  0
  7  6  1  0  0  0  0
  8  9  1  0  0  0  0
  9  4  2  0  0  0  0
 11  6  1  0  0  0  0
 12  8  1  0  0  0  0
 13 15  1  0  0  0  0
 13 16  1  0  0  0  0
 14 13  1  0  0  0  0
 16 17  2  0  0  0  0
 16 23  1  0  0  0  0
 17 19  1  0  0  0  0
 18 17  1  0  0  0  0
 19 20  1  0  0  0  0
 19 21  2  0  0  0  0
 22 21  1  0  0  0  0
 23 22  2  0  0  0  0
M  END
>  <minimizedAffinity>
-4.20870256

$$$$

 OpenBabel03252506593D

 23 24  0  0  0  0  0  0  0  0999 V2000
   39.7840   30.3320   41.2730 C   0  0  0  0  0  0  0  0  0  0  0  0
   40.8330   30.7220   41.3240 H   0  0  0  0  0  0  0  0  0  0  0  0
   39.7300   29.4180   40.6740 H   0  0  0  0  0  0  0  0  0  0  0  0
   38.9720   31.4150   40.7140 C   0  0  0  0  0  0  0  0  0  0  0  0
   37.8510   31.1710   39.9310 C   0  0  0  0  0  0  0  0  0  0  0  0
   37.1180   32.2740   39.4380 C   0  0  0  0  0  0  0  0  0  0  0  0
   37.5620   33.5210   39.7640 N   0  0  0  0  0  0  0  0  0  0  0  0
   38.6510   33.7090   40.5250 C   0  0  0  0  0  0  0  0  0  0  0  0
   39.3480   32.6800   40.9940 N   0  0  0  0  0  0  0  0  0  0  0  0
   37.5440   30.1540   39.7030 H   0  0  0  0  0  0  0  0  0  0  0  0
   36.2420   32.1210   38.8260 H   0  0  0  0  0  0  0  0  0  0  0  0
   39.0040   34.7150   40.7840 H   0  0  0  0  0  0  0  0  0  0  0  0
   39.2420   29.9840   42.6290 C   0  0  0  0  0  0  0  0  0  0  0  0
   38.5620   30.8000   42.9500 H   0  0  0  0  0  0  0  0  0  0  0  0
   40.0300   29.8880   43.4120 H   0  0  0  0  0  0  0  0  0  0  0  0
   38.4370   28.7460   42.6530 C   0  0  0  0  0  0  0  0  0  0  0  0
   37.3560   28.6020   43.4910 C   0  0  0  0  0  0  0  0  0  0  0  0
   37.0850   29.4140   44.1540 H   0  0  0  0  0  0  0  0  0  0  0  0
   36.6190   27.4200   43.4880 C   0  0  0  0  0  0  0  0  0  0  0  0
   35.7770   27.3250   44.1500 H   0  0  0  0  0  0  0  0  0  0  0  0
   37.0450   26.4320   42.6010 C   0  0  0  0  0  3  0  0  0  0  0  0
   38.1370   26.6170   41.7750 C   0  0  0  0  0  3  0  0  0  0  0  0
   38.8310   27.7710   41.8000 N   0  0  0  0  0  0  0  0  0  0  0  0
  1  2  1  0  0  0  0
  1 13  1  0  0  0  0
  3  1  1  0  0  0  0
  4  9  1  0  0  0  0
  4  1  1  0  0  0  0
  5  4  2  0  0  0  0
  6  7  2  0  0  0  0
  6  5  1  0  0  0  0
  7  8  1  0  0  0  0
  8 12  1  0  0  0  0
  8  9  2  0  0  0  0
 10  5  1  0  0  0  0
 11  6  1  0  0  0  0
 13 16  1  0  0  0  0
 13 14  1  0  0  0  0
 13 15  1  0  0  0  0
 16 17  1  0  0  0  0
 17 18  1  0  0  0  0
 19 17  2  0  0  0  0
 19 20  1  0  0  0  0
 21 19  1  0  0  0  0
 22 23  1  0  0  0  0
 22 21  2  0  0  0  0
 23 16  2  0  0  0  0
M  END
>  <minimizedAffinity>
-4.17217398

$$$$

 OpenBabel03252506593D

 23 24  0  0  0  0  0  0  0  0999 V2000
   36.1950   30.5980   40.9560 C   0  0  0  0  0  0  0  0  0  0  0  0
   35.2870   31.1850   40.6640 H   0  0  0  0  0  0  0  0  0  0  0  0
   36.1250   30.2490   41.9920 H   0  0  0  0  0  0  0  0  0  0  0  0
   37.3420   31.4820   40.7410 C   0  0  0  0  0  0  0  0  0  0  0  0
   37.2520   32.6390   39.9790 C   0  0  0  0  0  0  0  0  0  0  0  0
   38.4070   33.4410   39.8280 C   0  0  0  0  0  0  0  0  0  0  0  0
   39.5480   33.0230   40.4470 N   0  0  0  0  0  0  0  0  0  0  0  0
   39.5880   31.8960   41.1740 C   0  0  0  0  0  0  0  0  0  0  0  0
   38.5090   31.1350   41.3220 N   0  0  0  0  0  0  0  0  0  0  0  0
   36.3150   32.9240   39.5090 H   0  0  0  0  0  0  0  0  0  0  0  0
   38.3720   34.3480   39.2430 H   0  0  0  0  0  0  0  0  0  0  0  0
   40.5090   31.5650   41.6680 H   0  0  0  0  0  0  0  0  0  0  0  0
   36.3740   29.3730   40.1070 C   0  0  0  0  0  0  0  0  0  0  0  0
   37.2690   29.5230   39.4670 H   0  0  0  0  0  0  0  0  0  0  0  0
   35.5150   29.1740   39.4270 H   0  0  0  0  0  0  0  0  0  0  0  0
   36.6270   28.1390   40.8790 C   0  0  0  0  0  0  0  0  0  0  0  0
   36.6120   28.1300   42.2540 C   0  0  0  0  0  0  0  0  0  0  0  0
   36.4120   29.0500   42.7910 H   0  0  0  0  0  0  0  0  0  0  0  0
   36.8550   26.9490   42.9510 C   0  0  0  0  0  0  0  0  0  0  0  0
   36.8390   26.9600   44.0250 H   0  0  0  0  0  0  0  0  0  0  0  0
   37.1030   25.8170   42.1740 C   0  0  0  0  0  3  0  0  0  0  0  0
   37.1080   25.8690   40.7930 C   0  0  0  0  0  3  0  0  0  0  0  0
   36.8710   27.0270   40.1470 N   0  0  0  0  0  0  0  0  0  0  0  0
  1  3  1  0  0  0  0
  2  1  1  0  0  0  0
  4  1  1  0  0  0  0
  4  9  1  0  0  0  0
  5  4  2  0  0  0  0
  6  5  1  0  0  0  0
  6  7  2  0  0  0  0
  7  8  1  0  0  0  0
  8  9  2  0  0  0  0
  8 12  1  0  0  0  0
 10  5  1  0  0  0  0
 11  6  1  0  0  0  0
 13 16  1  0  0  0  0
 13  1  1  0  0  0  0
 14 13  1  0  0  0  0
 15 13  1  0  0  0  0
 16 17  1  0  0  0  0
 17 18  1  0  0  0  0
 17 19  2  0  0  0  0
 19 20  1  0  0  0  0
 21 19  1  0  0  0  0
 22 21  2  0  0  0  0
 23 22  1  0  0  0  0
 23 16  2  0  0  0  0
M  END
>  <minimizedAffinity>
-4.09592056

$$$$
