
 OpenBabel03252508433D

 30 32  0  0  0  0  0  0  0  0999 V2000
   47.6250   33.6020   43.4460 C   0  0  0  0  0  0  0  0  0  0  0  0
   46.8170   34.6030   42.9310 C   0  0  0  0  0  0  0  0  0  0  0  0
   47.3650   35.4350   41.9620 C   0  0  0  0  0  0  0  0  0  0  0  0
   48.6510   35.2550   41.5460 C   0  0  0  0  0  0  0  0  0  0  0  0
   49.4630   34.2730   42.0410 C   0  0  0  0  0  0  0  0  0  0  0  0
   48.8990   33.4400   43.0190 C   0  0  0  0  0  0  0  0  0  0  0  0
   46.7150   36.2210   41.5650 H   0  0  0  0  0  0  0  0  0  0  0  0
   49.0470   35.9170   40.7910 H   0  0  0  0  0  0  0  0  0  0  0  0
   50.4810   34.1390   41.7040 H   0  0  0  0  0  0  0  0  0  0  0  0
   49.4930   32.6370   43.4540 H   0  0  0  0  0  0  0  0  0  0  0  0
   45.9770   30.7580   45.3200 C   0  0  0  0  0  0  0  0  0  0  0  0
   46.5440   31.4900   44.2670 C   0  0  0  0  0  0  0  0  0  0  0  0
   47.0220   32.7660   44.4710 C   0  0  0  0  0  0  0  0  0  0  0  0
   46.8950   33.2130   45.7240 N   0  0  0  0  0  0  0  0  0  0  0  0
   46.3580   32.5400   46.7560 C   0  0  0  0  0  0  0  0  0  0  0  0
   45.8950   31.2990   46.5470 N   0  0  0  0  0  0  0  0  0  0  0  0
   45.6340   29.7770   45.0550 H   0  0  0  0  0  0  0  0  0  0  0  0
   46.6160   31.0660   43.2750 H   0  0  0  0  0  0  0  0  0  0  0  0
   46.2830   32.9550   47.7490 H   0  0  0  0  0  0  0  0  0  0  0  0
   45.4300   34.7930   43.3850 C   0  0  0  0  0  0  0  0  0  0  0  0
   45.2890   34.2640   44.3630 H   0  0  0  0  0  0  0  0  0  0  0  0
   45.3180   35.8920   43.5950 H   0  0  0  0  0  0  0  0  0  0  0  0
   44.3540   34.3690   42.5070 C   0  0  0  0  0  0  0  0  0  0  0  0
   43.9090   33.1510   41.9780 C   0  0  0  0  0  0  0  0  0  0  0  0
   44.5680   32.3590   42.3710 H   0  0  0  0  0  0  0  0  0  0  0  0
   42.8360   33.0140   41.1320 C   0  0  0  0  0  0  0  0  0  0  0  0
   42.6500   31.9920   40.8330 H   0  0  0  0  0  0  0  0  0  0  0  0
   42.1480   34.1390   40.7760 C   0  0  0  0  0  3  0  0  0  0  0  0
   42.5880   35.3330   41.2980 C   0  0  0  0  0  3  0  0  0  0  0  0
   43.6500   35.4540   42.1330 N   0  0  0  0  0  0  0  0  0  0  0  0
  1 13  1  0  0  0  0
  2 20  1  0  0  0  0
  2  1  2  0  0  0  0
  3  2  1  0  0  0  0
  4  3  2  0  0  0  0
  4  5  1  0  0  0  0
  5  6  2  0  0  0  0
  6  1  1  0  0  0  0
  6 10  1  0  0  0  0
  7  3  1  0  0  0  0
  8  4  1  0  0  0  0
  9  5  1  0  0  0  0
 11 16  1  0  0  0  0
 12 13  1  0  0  0  0
 12 11  2  0  0  0  0
 13 14  2  0  0  0  0
 14 15  1  0  0  0  0
 15 19  1  0  0  0  0
 16 15  2  0  0  0  0
 17 11  1  0  0  0  0
 18 12  1  0  0  0  0
 20 22  1  0  0  0  0
 20 21  1  0  0  0  0
 23 20  1  0  0  0  0
 24 25  1  0  0  0  0
 24 23  2  0  0  0  0
 26 24  1  0  0  0  0
 27 26  1  0  0  0  0
 28 26  2  0  0  0  0
 28 29  1  0  0  0  0
 29 30  2  0  0  0  0
 30 23  1  0  0  0  0
M  END
>  <minimizedAffinity>
-4.9382925

>  <minimizedRMSD>
4.64140844

$$$$
