
 OpenBabel03252505293D

 26 27  0  0  0  0  0  0  0  0999 V2000
   46.9210   32.2360   48.3530 O   0  0  0  0  0  0  0  0  0  0  0  0
   45.9070   32.4780   47.2470 P   0  0  1  0  0  0  0  0  0  0  0  0
   44.6000   33.3900   47.8160 O   0  0  0  0  0  0  0  0  0  0  0  0
   44.3640   33.0190   48.7200 H   0  0  0  0  0  0  0  0  0  0  0  0
   46.6920   33.2690   45.9820 O   0  0  0  0  0  0  0  0  0  0  0  0
   44.4630   35.6630   44.6020 C   0  0  0  0  0  0  0  0  0  0  0  0
   44.8580   35.7960   43.2520 C   0  0  0  0  0  0  0  0  0  0  0  0
   45.9560   34.9920   42.8600 C   0  0  0  0  0  0  0  0  0  0  0  0
   46.5290   34.1770   43.7860 N   0  0  0  0  0  0  0  0  0  0  0  0
   46.1020   34.1010   45.0470 C   0  0  0  0  0  0  0  0  0  0  0  0
   45.0790   34.8320   45.4640 N   0  0  0  0  0  0  0  0  0  0  0  0
   43.6270   36.2480   44.9750 H   0  0  0  0  0  0  0  0  0  0  0  0
   44.3380   36.4680   42.6030 H   0  0  0  0  0  0  0  0  0  0  0  0
   46.2880   35.0640   41.8390 H   0  0  0  0  0  0  0  0  0  0  0  0
   45.3100   30.9740   46.7850 O   0  0  0  0  0  0  0  0  0  0  0  0
   45.0320   30.2410   47.9240 C   0  0  0  0  0  0  0  0  0  0  0  0
   43.9110   30.1750   48.0030 H   0  0  0  0  0  0  0  0  0  0  0  0
   45.3800   30.7230   48.8480 H   0  0  0  0  0  0  0  0  0  0  0  0
   45.5980   28.8730   47.7790 C   0  0  0  0  0  0  0  0  0  0  0  0
   44.8790   27.7050   47.9310 C   0  0  0  0  0  0  0  0  0  0  0  0
   43.8300   27.7950   48.1730 H   0  0  0  0  0  0  0  0  0  0  0  0
   45.4500   26.4560   47.7870 C   0  0  0  0  0  0  0  0  0  0  0  0
   44.8580   25.5510   47.9120 H   0  0  0  0  0  0  0  0  0  0  0  0
   46.8110   26.3990   47.4740 C   0  0  0  0  0  3  0  0  0  0  0  0
   47.5390   27.5820   47.3200 C   0  0  0  0  0  3  0  0  0  0  0  0
   46.9260   28.7730   47.4740 N   0  0  0  0  0  0  0  0  0  0  0  0
  2  3  1  0  0  0  0
  2  1  2  1  0  0  0
  3  4  1  0  0  0  0
  5  2  1  0  0  0  0
  6 12  1  0  0  0  0
  6 11  1  0  0  0  0
  7  6  2  0  0  0  0
  8  7  1  0  0  0  0
  8  9  2  0  0  0  0
  9 10  1  0  0  0  0
 10 11  2  0  0  0  0
 10  5  1  0  0  0  0
 13  7  1  0  0  0  0
 14  8  1  0  0  0  0
 15  2  1  0  0  0  0
 15 16  1  0  0  0  0
 16 17  1  0  0  0  0
 16 18  1  0  0  0  0
 19 16  1  0  0  0  0
 19 20  1  0  0  0  0
 20 21  1  0  0  0  0
 22 23  1  0  0  0  0
 22 20  2  0  0  0  0
 24 22  1  0  0  0  0
 25 24  2  0  0  0  0
 25 26  1  0  0  0  0
 26 19  2  0  0  0  0
M  END
>  <minimizedAffinity>
-4.59552145

>  <minimizedRMSD>
1.33361912

$$$$
