
 OpenBabel03252505313D

 26 27  0  0  0  0  0  0  0  0999 V2000
   38.2840   31.0080   41.3640 O   0  0  0  0  0  0  0  0  0  0  0  0
   37.1000   30.0560   41.3200 P   0  0  1  0  0  0  0  0  0  0  0  0
   35.6400   30.9030   41.4480 O   0  0  0  0  0  0  0  0  0  0  0  0
   35.7730   31.5960   42.1630 H   0  0  0  0  0  0  0  0  0  0  0  0
   37.1760   29.1940   39.8720 O   0  0  0  0  0  0  0  0  0  0  0  0
   35.6170   29.1560   36.6820 C   0  0  0  0  0  0  0  0  0  0  0  0
   34.2460   28.9450   36.9470 C   0  0  0  0  0  0  0  0  0  0  0  0
   33.9050   28.8190   38.3160 C   0  0  0  0  0  0  0  0  0  0  0  0
   34.8960   28.9060   39.2440 N   0  0  0  0  0  0  0  0  0  0  0  0
   36.1750   29.1070   38.9210 C   0  0  0  0  0  0  0  0  0  0  0  0
   36.5450   29.2320   37.6550 N   0  0  0  0  0  0  0  0  0  0  0  0
   35.9540   29.2630   35.6550 H   0  0  0  0  0  0  0  0  0  0  0  0
   33.5440   28.8920   36.1420 H   0  0  0  0  0  0  0  0  0  0  0  0
   32.8700   28.6580   38.5600 H   0  0  0  0  0  0  0  0  0  0  0  0
   37.2210   29.0530   42.6650 O   0  0  0  0  0  0  0  0  0  0  0  0
   36.5580   27.8700   42.3950 C   0  0  0  0  0  0  0  0  0  0  0  0
   36.2150   27.9270   41.3240 H   0  0  0  0  0  0  0  0  0  0  0  0
   35.6540   27.7280   43.0030 H   0  0  0  0  0  0  0  0  0  0  0  0
   37.5020   26.7300   42.5520 C   0  0  0  0  0  0  0  0  0  0  0  0
   37.2800   25.4560   42.0730 C   0  0  0  0  0  0  0  0  0  0  0  0
   36.3530   25.2760   41.5490 H   0  0  0  0  0  0  0  0  0  0  0  0
   38.1870   24.4280   42.2440 C   0  0  0  0  0  0  0  0  0  0  0  0
   37.9850   23.4320   41.8560 H   0  0  0  0  0  0  0  0  0  0  0  0
   39.3690   24.7170   42.9320 C   0  0  0  0  0  3  0  0  0  0  0  0
   39.5940   26.0080   43.4160 C   0  0  0  0  0  3  0  0  0  0  0  0
   38.6690   26.9700   43.2190 N   0  0  0  0  0  0  0  0  0  0  0  0
  2  1  2  1  0  0  0
  2  3  1  0  0  0  0
  2 15  1  0  0  0  0
  3  4  1  0  0  0  0
  5  2  1  0  0  0  0
  6  7  2  0  0  0  0
  6 11  1  0  0  0  0
  7  8  1  0  0  0  0
  8 14  1  0  0  0  0
  8  9  2  0  0  0  0
 10  9  1  0  0  0  0
 10  5  1  0  0  0  0
 11 10  2  0  0  0  0
 12  6  1  0  0  0  0
 13  7  1  0  0  0  0
 16 19  1  0  0  0  0
 16 15  1  0  0  0  0
 16 18  1  0  0  0  0
 17 16  1  0  0  0  0
 19 26  1  0  0  0  0
 20 22  1  0  0  0  0
 20 19  2  0  0  0  0
 21 20  1  0  0  0  0
 22 24  2  0  0  0  0
 23 22  1  0  0  0  0
 24 25  1  0  0  0  0
 26 25  2  0  0  0  0
M  END
>  <minimizedAffinity>
-4.79989815

$$$$

 OpenBabel03252505313D

 26 27  0  0  0  0  0  0  0  0999 V2000
   34.0720   29.2860   39.5570 O   0  0  0  0  0  0  0  0  0  0  0  0
   35.4800   29.5570   40.0620 P   0  0  1  0  0  0  0  0  0  0  0  0
   35.4490   30.5520   41.4310 O   0  0  0  0  0  0  0  0  0  0  0  0
   34.7740   31.2730   41.2450 H   0  0  0  0  0  0  0  0  0  0  0  0
   36.2050   28.0740   40.4080 O   0  0  0  0  0  0  0  0  0  0  0  0
   38.3080   26.2360   42.6000 C   0  0  0  0  0  0  0  0  0  0  0  0
   38.6360   27.1400   43.6360 C   0  0  0  0  0  0  0  0  0  0  0  0
   38.0710   28.4320   43.5140 C   0  0  0  0  0  0  0  0  0  0  0  0
   37.2800   28.6980   42.4400 N   0  0  0  0  0  0  0  0  0  0  0  0
   37.0120   27.7930   41.4970 C   0  0  0  0  0  0  0  0  0  0  0  0
   37.5150   26.5700   41.5650 N   0  0  0  0  0  0  0  0  0  0  0  0
   38.7040   25.2250   42.6260 H   0  0  0  0  0  0  0  0  0  0  0  0
   39.2700   26.8300   44.4400 H   0  0  0  0  0  0  0  0  0  0  0  0
   38.2980   29.1500   44.2820 H   0  0  0  0  0  0  0  0  0  0  0  0
   36.2900   30.3930   38.8470 O   0  0  0  0  0  0  0  0  0  0  0  0
   37.6480   30.3280   39.0960 C   0  0  0  0  0  0  0  0  0  0  0  0
   38.1340   29.9560   38.1510 H   0  0  0  0  0  0  0  0  0  0  0  0
   37.9120   29.6080   39.8840 H   0  0  0  0  0  0  0  0  0  0  0  0
   38.1570   31.6890   39.4120 C   0  0  0  0  0  0  0  0  0  0  0  0
   37.3600   32.7930   39.6340 C   0  0  0  0  0  0  0  0  0  0  0  0
   36.2910   32.6550   39.5730 H   0  0  0  0  0  0  0  0  0  0  0  0
   37.8790   34.0400   39.9250 C   0  0  0  0  0  0  0  0  0  0  0  0
   37.2270   34.8920   40.0960 H   0  0  0  0  0  0  0  0  0  0  0  0
   39.2700   34.1610   39.9920 C   0  0  0  0  0  3  0  0  0  0  0  0
   40.0770   33.0430   39.7670 C   0  0  0  0  0  3  0  0  0  0  0  0
   39.5110   31.8510   39.4860 N   0  0  0  0  0  0  0  0  0  0  0  0
  2  1  2  6  0  0  0
  2  5  1  0  0  0  0
  2  3  1  0  0  0  0
  4  3  1  0  0  0  0
  5 10  1  0  0  0  0
  6 12  1  0  0  0  0
  6  7  1  0  0  0  0
  7 13  1  0  0  0  0
  8  7  2  0  0  0  0
  8 14  1  0  0  0  0
  9  8  1  0  0  0  0
 10 11  1  0  0  0  0
 10  9  2  0  0  0  0
 11  6  2  0  0  0  0
 15 16  1  0  0  0  0
 15  2  1  0  0  0  0
 16 19  1  0  0  0  0
 16 18  1  0  0  0  0
 17 16  1  0  0  0  0
 19 26  2  0  0  0  0
 19 20  1  0  0  0  0
 20 22  2  0  0  0  0
 21 20  1  0  0  0  0
 22 24  1  0  0  0  0
 22 23  1  0  0  0  0
 25 24  2  0  0  0  0
 26 25  1  0  0  0  0
M  END
>  <minimizedAffinity>
-4.77888823

$$$$

 OpenBabel03252505313D

 26 27  0  0  0  0  0  0  0  0999 V2000
   40.0010   31.3700   39.9370 O   0  0  0  0  0  0  0  0  0  0  0  0
   39.1770   32.0380   41.0250 P   0  0  1  0  0  0  0  0  0  0  0  0
   39.7870   33.5750   41.3860 O   0  0  0  0  0  0  0  0  0  0  0  0
   40.7880   33.4850   41.4190 H   0  0  0  0  0  0  0  0  0  0  0  0
   37.5800   32.1310   40.4900 O   0  0  0  0  0  0  0  0  0  0  0  0
   35.2980   29.4120   40.5370 C   0  0  0  0  0  0  0  0  0  0  0  0
   35.2400   28.9600   39.1990 C   0  0  0  0  0  0  0  0  0  0  0  0
   36.0530   29.6700   38.2840 C   0  0  0  0  0  0  0  0  0  0  0  0
   36.8050   30.7040   38.7480 N   0  0  0  0  0  0  0  0  0  0  0  0
   36.8110   31.0780   40.0280 C   0  0  0  0  0  0  0  0  0  0  0  0
   36.0690   30.4450   40.9250 N   0  0  0  0  0  0  0  0  0  0  0  0
   34.7020   28.9150   41.2970 H   0  0  0  0  0  0  0  0  0  0  0  0
   34.6140   28.1340   38.9380 H   0  0  0  0  0  0  0  0  0  0  0  0
   36.0370   29.3570   37.2550 H   0  0  0  0  0  0  0  0  0  0  0  0
   39.3300   31.0960   42.4110 O   0  0  0  0  0  0  0  0  0  0  0  0
   39.8070   29.8500   42.0480 C   0  0  0  0  0  0  0  0  0  0  0  0
   40.7180   29.6540   42.6800 H   0  0  0  0  0  0  0  0  0  0  0  0
   40.1390   29.8000   41.0010 H   0  0  0  0  0  0  0  0  0  0  0  0
   38.7720   28.8230   42.3380 C   0  0  0  0  0  0  0  0  0  0  0  0
   37.9570   28.8220   43.4520 C   0  0  0  0  0  0  0  0  0  0  0  0
   38.0840   29.6270   44.1610 H   0  0  0  0  0  0  0  0  0  0  0  0
   37.0080   27.8440   43.6800 C   0  0  0  0  0  0  0  0  0  0  0  0
   36.3790   27.8700   44.5660 H   0  0  0  0  0  0  0  0  0  0  0  0
   36.8880   26.8270   42.7290 C   0  0  0  0  0  3  0  0  0  0  0  0
   37.7130   26.8280   41.6010 C   0  0  0  0  0  3  0  0  0  0  0  0
   38.6220   27.8100   41.4350 N   0  0  0  0  0  0  0  0  0  0  0  0
  2  1  2  6  0  0  0
  2  3  1  0  0  0  0
  2 15  1  0  0  0  0
  3  4  1  0  0  0  0
  5  2  1  0  0  0  0
  6 11  1  0  0  0  0
  6 12  1  0  0  0  0
  7  6  2  0  0  0  0
  8  9  2  0  0  0  0
  8  7  1  0  0  0  0
  9 10  1  0  0  0  0
 10  5  1  0  0  0  0
 10 11  2  0  0  0  0
 13  7  1  0  0  0  0
 14  8  1  0  0  0  0
 16 19  1  0  0  0  0
 16 15  1  0  0  0  0
 16 17  1  0  0  0  0
 18 16  1  0  0  0  0
 19 20  1  0  0  0  0
 20 22  2  0  0  0  0
 20 21  1  0  0  0  0
 22 23  1  0  0  0  0
 24 22  1  0  0  0  0
 25 24  2  0  0  0  0
 26 25  1  0  0  0  0
 26 19  2  0  0  0  0
M  END
>  <minimizedAffinity>
-4.67674255

$$$$

 OpenBabel03252505313D

 26 27  0  0  0  0  0  0  0  0999 V2000
   37.5270   29.6130   42.6940 O   0  0  0  0  0  0  0  0  0  0  0  0
   36.8540   29.8050   41.3450 P   0  0  1  0  0  0  0  0  0  0  0  0
   35.5890   30.9240   41.4550 O   0  0  0  0  0  0  0  0  0  0  0  0
   35.0920   30.7100   42.3020 H   0  0  0  0  0  0  0  0  0  0  0  0
   38.0250   30.3220   40.2460 O   0  0  0  0  0  0  0  0  0  0  0  0
   38.1980   33.8640   40.0840 C   0  0  0  0  0  0  0  0  0  0  0  0
   39.5790   34.1610   40.0320 C   0  0  0  0  0  0  0  0  0  0  0  0
   40.4410   33.0390   40.0570 C   0  0  0  0  0  0  0  0  0  0  0  0
   39.8910   31.7960   40.1280 N   0  0  0  0  0  0  0  0  0  0  0  0
   38.5740   31.5900   40.1740 C   0  0  0  0  0  0  0  0  0  0  0  0
   37.7250   32.6060   40.1530 N   0  0  0  0  0  0  0  0  0  0  0  0
   37.4750   34.6750   40.0680 H   0  0  0  0  0  0  0  0  0  0  0  0
   39.9090   35.1770   39.9770 H   0  0  0  0  0  0  0  0  0  0  0  0
   41.5010   33.2220   40.0190 H   0  0  0  0  0  0  0  0  0  0  0  0
   36.1830   28.3250   40.9110 O   0  0  0  0  0  0  0  0  0  0  0  0
   37.0240   27.7080   40.0030 C   0  0  0  0  0  0  0  0  0  0  0  0
   37.9200   28.3790   39.8820 H   0  0  0  0  0  0  0  0  0  0  0  0
   36.5810   27.5970   39.0040 H   0  0  0  0  0  0  0  0  0  0  0  0
   37.4610   26.3950   40.5510 C   0  0  0  0  0  0  0  0  0  0  0  0
   36.9560   25.8160   41.6970 C   0  0  0  0  0  0  0  0  0  0  0  0
   36.1900   26.3580   42.2320 H   0  0  0  0  0  0  0  0  0  0  0  0
   37.3940   24.5930   42.1680 C   0  0  0  0  0  0  0  0  0  0  0  0
   36.9770   24.1600   43.0740 H   0  0  0  0  0  0  0  0  0  0  0  0
   38.3870   23.9370   41.4360 C   0  0  0  0  0  3  0  0  0  0  0  0
   38.8980   24.5240   40.2750 C   0  0  0  0  0  3  0  0  0  0  0  0
   38.4310   25.7210   39.8660 N   0  0  0  0  0  0  0  0  0  0  0  0
  2  3  1  0  0  0  0
  2  1  2  1  0  0  0
  3  4  1  0  0  0  0
  5  2  1  0  0  0  0
  6 11  1  0  0  0  0
  7  8  1  0  0  0  0
  7  6  2  0  0  0  0
  8  9  2  0  0  0  0
  9 10  1  0  0  0  0
 10  5  1  0  0  0  0
 11 10  2  0  0  0  0
 12  6  1  0  0  0  0
 13  7  1  0  0  0  0
 14  8  1  0  0  0  0
 15  2  1  0  0  0  0
 16 19  1  0  0  0  0
 16 15  1  0  0  0  0
 17 16  1  0  0  0  0
 18 16  1  0  0  0  0
 19 20  1  0  0  0  0
 20 22  2  0  0  0  0
 20 21  1  0  0  0  0
 22 23  1  0  0  0  0
 24 22  1  0  0  0  0
 25 24  2  0  0  0  0
 26 25  1  0  0  0  0
 26 19  2  0  0  0  0
M  END
>  <minimizedAffinity>
-4.64099407

$$$$

 OpenBabel03252505313D

 26 27  0  0  0  0  0  0  0  0999 V2000
   38.2220   31.1470   41.3350 O   0  0  0  0  0  0  0  0  0  0  0  0
   37.0330   30.2660   40.9900 P   0  0  1  0  0  0  0  0  0  0  0  0
   35.5770   31.0500   41.3510 O   0  0  0  0  0  0  0  0  0  0  0  0
   35.7040   31.4930   42.2440 H   0  0  0  0  0  0  0  0  0  0  0  0
   37.1240   29.8830   39.3500 O   0  0  0  0  0  0  0  0  0  0  0  0
   33.8800   28.7870   38.4130 C   0  0  0  0  0  0  0  0  0  0  0  0
   33.9000   28.7490   37.0010 C   0  0  0  0  0  0  0  0  0  0  0  0
   35.1250   29.1320   36.4020 C   0  0  0  0  0  0  0  0  0  0  0  0
   36.1580   29.4970   37.2080 N   0  0  0  0  0  0  0  0  0  0  0  0
   36.0670   29.5090   38.5390 C   0  0  0  0  0  0  0  0  0  0  0  0
   34.9440   29.1590   39.1480 N   0  0  0  0  0  0  0  0  0  0  0  0
   32.9740   28.5060   38.9430 H   0  0  0  0  0  0  0  0  0  0  0  0
   33.0300   28.4460   36.4580 H   0  0  0  0  0  0  0  0  0  0  0  0
   35.1810   29.1170   35.3270 H   0  0  0  0  0  0  0  0  0  0  0  0
   37.1280   28.9010   41.9690 O   0  0  0  0  0  0  0  0  0  0  0  0
   38.1070   28.0650   41.4670 C   0  0  0  0  0  0  0  0  0  0  0  0
   38.9240   28.0180   42.2400 H   0  0  0  0  0  0  0  0  0  0  0  0
   38.5730   28.4430   40.5460 H   0  0  0  0  0  0  0  0  0  0  0  0
   37.5370   26.7050   41.2660 C   0  0  0  0  0  0  0  0  0  0  0  0
   37.4310   25.7460   42.2520 C   0  0  0  0  0  0  0  0  0  0  0  0
   37.7890   26.0030   43.2370 H   0  0  0  0  0  0  0  0  0  0  0  0
   36.8940   24.4950   42.0180 C   0  0  0  0  0  0  0  0  0  0  0  0
   36.8220   23.7580   42.8140 H   0  0  0  0  0  0  0  0  0  0  0  0
   36.4470   24.2150   40.7230 C   0  0  0  0  0  3  0  0  0  0  0  0
   36.5540   25.1870   39.7250 C   0  0  0  0  0  3  0  0  0  0  0  0
   37.0890   26.3910   40.0150 N   0  0  0  0  0  0  0  0  0  0  0  0
  2  1  2  1  0  0  0
  2  3  1  0  0  0  0
  2 15  1  0  0  0  0
  3  4  1  0  0  0  0
  5  2  1  0  0  0  0
  6 12  1  0  0  0  0
  6 11  1  0  0  0  0
  7  6  2  0  0  0  0
  8  7  1  0  0  0  0
  8  9  2  0  0  0  0
  9 10  1  0  0  0  0
 10 11  2  0  0  0  0
 10  5  1  0  0  0  0
 13  7  1  0  0  0  0
 14  8  1  0  0  0  0
 16 15  1  0  0  0  0
 16 17  1  0  0  0  0
 18 16  1  0  0  0  0
 19 16  1  0  0  0  0
 19 20  1  0  0  0  0
 20 21  1  0  0  0  0
 22 20  2  0  0  0  0
 22 23  1  0  0  0  0
 24 22  1  0  0  0  0
 25 26  1  0  0  0  0
 25 24  2  0  0  0  0
 26 19  2  0  0  0  0
M  END
>  <minimizedAffinity>
-4.56276655

$$$$

 OpenBabel03252505313D

 26 27  0  0  0  0  0  0  0  0999 V2000
   35.7400   30.0560   38.8970 O   0  0  0  0  0  0  0  0  0  0  0  0
   36.5620   30.7630   39.9620 P   0  0  1  0  0  0  0  0  0  0  0  0
   35.6320   31.0590   41.3440 O   0  0  0  0  0  0  0  0  0  0  0  0
   34.7370   31.3840   41.0220 H   0  0  0  0  0  0  0  0  0  0  0  0
   37.8930   29.7930   40.3240 O   0  0  0  0  0  0  0  0  0  0  0  0
   39.4390   28.1190   43.0470 C   0  0  0  0  0  0  0  0  0  0  0  0
   38.4050   27.3690   43.6510 C   0  0  0  0  0  0  0  0  0  0  0  0
   37.1330   27.4890   43.0390 C   0  0  0  0  0  0  0  0  0  0  0  0
   37.0080   28.2950   41.9500 N   0  0  0  0  0  0  0  0  0  0  0  0
   38.0310   28.9760   41.4320 C   0  0  0  0  0  0  0  0  0  0  0  0
   39.2410   28.8970   41.9660 N   0  0  0  0  0  0  0  0  0  0  0  0
   40.4430   28.0760   43.4610 H   0  0  0  0  0  0  0  0  0  0  0  0
   38.6090   26.7640   44.5080 H   0  0  0  0  0  0  0  0  0  0  0  0
   36.3180   26.9340   43.4700 H   0  0  0  0  0  0  0  0  0  0  0  0
   37.0150   32.2540   39.3280 O   0  0  0  0  0  0  0  0  0  0  0  0
   37.9050   32.8530   40.2010 C   0  0  0  0  0  0  0  0  0  0  0  0
   37.9700   32.1870   41.1070 H   0  0  0  0  0  0  0  0  0  0  0  0
   37.5680   33.8350   40.5620 H   0  0  0  0  0  0  0  0  0  0  0  0
   39.2420   32.9420   39.5560 C   0  0  0  0  0  0  0  0  0  0  0  0
   40.3290   33.6020   40.0900 C   0  0  0  0  0  0  0  0  0  0  0  0
   40.1960   34.0880   41.0440 H   0  0  0  0  0  0  0  0  0  0  0  0
   41.5540   33.6580   39.4520 C   0  0  0  0  0  0  0  0  0  0  0  0
   42.3940   34.1860   39.8970 H   0  0  0  0  0  0  0  0  0  0  0  0
   41.6700   33.0120   38.2180 C   0  0  0  0  0  3  0  0  0  0  0  0
   40.5680   32.3420   37.6770 C   0  0  0  0  0  3  0  0  0  0  0  0
   39.3980   32.3230   38.3480 N   0  0  0  0  0  0  0  0  0  0  0  0
  2  1  2  6  0  0  0
  2  5  1  0  0  0  0
  2  3  1  0  0  0  0
  4  3  1  0  0  0  0
  5 10  1  0  0  0  0
  6 12  1  0  0  0  0
  6  7  1  0  0  0  0
  7 13  1  0  0  0  0
  8 14  1  0  0  0  0
  8  7  2  0  0  0  0
  9  8  1  0  0  0  0
 10  9  2  0  0  0  0
 10 11  1  0  0  0  0
 11  6  2  0  0  0  0
 15  2  1  0  0  0  0
 15 16  1  0  0  0  0
 16 18  1  0  0  0  0
 16 17  1  0  0  0  0
 19 20  1  0  0  0  0
 19 16  1  0  0  0  0
 20 21  1  0  0  0  0
 22 23  1  0  0  0  0
 22 20  2  0  0  0  0
 24 22  1  0  0  0  0
 25 24  2  0  0  0  0
 25 26  1  0  0  0  0
 26 19  2  0  0  0  0
M  END
>  <minimizedAffinity>
-4.55246973

$$$$

 OpenBabel03252505313D

 26 27  0  0  0  0  0  0  0  0999 V2000
   37.3610   28.3440   40.1330 O   0  0  0  0  0  0  0  0  0  0  0  0
   36.6550   28.8180   41.3920 P   0  0  1  0  0  0  0  0  0  0  0  0
   35.0680   29.2970   41.0510 O   0  0  0  0  0  0  0  0  0  0  0  0
   35.1070   29.8280   40.1980 H   0  0  0  0  0  0  0  0  0  0  0  0
   36.6800   27.5570   42.5120 O   0  0  0  0  0  0  0  0  0  0  0  0
   38.6160   24.5840   42.3870 C   0  0  0  0  0  0  0  0  0  0  0  0
   39.7810   24.8740   43.1320 C   0  0  0  0  0  0  0  0  0  0  0  0
   39.8410   26.1790   43.6800 C   0  0  0  0  0  0  0  0  0  0  0  0
   38.8030   27.0280   43.4520 N   0  0  0  0  0  0  0  0  0  0  0  0
   37.7300   26.6860   42.7370 C   0  0  0  0  0  0  0  0  0  0  0  0
   37.6250   25.4770   42.2040 N   0  0  0  0  0  0  0  0  0  0  0  0
   38.4990   23.6020   41.9370 H   0  0  0  0  0  0  0  0  0  0  0  0
   40.5420   24.1330   43.2520 H   0  0  0  0  0  0  0  0  0  0  0  0
   40.7130   26.4390   44.2540 H   0  0  0  0  0  0  0  0  0  0  0  0
   37.4840   30.1750   41.9440 O   0  0  0  0  0  0  0  0  0  0  0  0
   38.7470   30.1790   41.3820 C   0  0  0  0  0  0  0  0  0  0  0  0
   38.7060   29.5000   40.4850 H   0  0  0  0  0  0  0  0  0  0  0  0
   39.5210   29.7690   42.0470 H   0  0  0  0  0  0  0  0  0  0  0  0
   39.0860   31.5590   40.9430 C   0  0  0  0  0  0  0  0  0  0  0  0
   40.3680   32.0630   40.8580 C   0  0  0  0  0  0  0  0  0  0  0  0
   41.1800   31.4060   41.1320 H   0  0  0  0  0  0  0  0  0  0  0  0
   40.6330   33.3540   40.4450 C   0  0  0  0  0  0  0  0  0  0  0  0
   41.6540   33.7250   40.3870 H   0  0  0  0  0  0  0  0  0  0  0  0
   39.5440   34.1610   40.1030 C   0  0  0  0  0  3  0  0  0  0  0  0
   38.2470   33.6500   40.1880 C   0  0  0  0  0  3  0  0  0  0  0  0
   38.0500   32.3800   40.6000 N   0  0  0  0  0  0  0  0  0  0  0  0
  2  1  2  6  0  0  0
  2 15  1  0  0  0  0
  2  5  1  0  0  0  0
  3  2  1  0  0  0  0
  4  3  1  0  0  0  0
  5 10  1  0  0  0  0
  6  7  1  0  0  0  0
  7 13  1  0  0  0  0
  7  8  2  0  0  0  0
  8 14  1  0  0  0  0
  9  8  1  0  0  0  0
 10  9  2  0  0  0  0
 11  6  2  0  0  0  0
 11 10  1  0  0  0  0
 12  6  1  0  0  0  0
 16 15  1  0  0  0  0
 16 18  1  0  0  0  0
 17 16  1  0  0  0  0
 19 16  1  0  0  0  0
 20 19  1  0  0  0  0
 20 21  1  0  0  0  0
 22 20  2  0  0  0  0
 23 22  1  0  0  0  0
 24 25  2  0  0  0  0
 24 22  1  0  0  0  0
 25 26  1  0  0  0  0
 26 19  2  0  0  0  0
M  END
>  <minimizedAffinity>
-4.4993434

$$$$

 OpenBabel03252505313D

 26 27  0  0  0  0  0  0  0  0999 V2000
   35.5570   29.5200   37.3190 O   0  0  0  0  0  0  0  0  0  0  0  0
   36.9190   29.9610   37.8310 P   0  0  1  0  0  0  0  0  0  0  0  0
   38.0160   30.1350   36.5540 O   0  0  0  0  0  0  0  0  0  0  0  0
   37.8760   29.3460   35.9470 H   0  0  0  0  0  0  0  0  0  0  0  0
   36.7200   31.4150   38.6610 O   0  0  0  0  0  0  0  0  0  0  0  0
   39.9860   32.7500   39.0570 C   0  0  0  0  0  0  0  0  0  0  0  0
   39.8190   33.8920   39.8720 C   0  0  0  0  0  0  0  0  0  0  0  0
   38.4870   34.1600   40.2730 C   0  0  0  0  0  0  0  0  0  0  0  0
   37.5000   33.3240   39.8530 N   0  0  0  0  0  0  0  0  0  0  0  0
   37.7310   32.2600   39.0820 C   0  0  0  0  0  0  0  0  0  0  0  0
   38.9590   31.9650   38.6810 N   0  0  0  0  0  0  0  0  0  0  0  0
   40.9800   32.4790   38.7110 H   0  0  0  0  0  0  0  0  0  0  0  0
   40.6650   34.4850   40.1470 H   0  0  0  0  0  0  0  0  0  0  0  0
   38.3180   35.0220   40.8940 H   0  0  0  0  0  0  0  0  0  0  0  0
   37.4940   28.7330   38.8270 O   0  0  0  0  0  0  0  0  0  0  0  0
   36.4420   28.2490   39.5840 C   0  0  0  0  0  0  0  0  0  0  0  0
   36.1880   27.2320   39.1750 H   0  0  0  0  0  0  0  0  0  0  0  0
   35.5290   28.8550   39.4980 H   0  0  0  0  0  0  0  0  0  0  0  0
   36.8750   28.1190   41.0010 C   0  0  0  0  0  0  0  0  0  0  0  0
   36.9380   26.9290   41.6960 C   0  0  0  0  0  0  0  0  0  0  0  0
   36.6510   26.0300   41.1700 H   0  0  0  0  0  0  0  0  0  0  0  0
   37.3470   26.8570   43.0140 C   0  0  0  0  0  0  0  0  0  0  0  0
   37.3870   25.9050   43.5370 H   0  0  0  0  0  0  0  0  0  0  0  0
   37.7060   28.0510   43.6450 C   0  0  0  0  0  3  0  0  0  0  0  0
   37.6420   29.2570   42.9410 C   0  0  0  0  0  3  0  0  0  0  0  0
   37.2340   29.2630   41.6550 N   0  0  0  0  0  0  0  0  0  0  0  0
  2  1  2  6  0  0  0
  2  5  1  0  0  0  0
  2 15  1  0  0  0  0
  3  2  1  0  0  0  0
  4  3  1  0  0  0  0
  5 10  1  0  0  0  0
  6  7  1  0  0  0  0
  7 13  1  0  0  0  0
  7  8  2  0  0  0  0
  8 14  1  0  0  0  0
  9  8  1  0  0  0  0
 10  9  2  0  0  0  0
 11  6  2  0  0  0  0
 11 10  1  0  0  0  0
 12  6  1  0  0  0  0
 15 16  1  0  0  0  0
 16 19  1  0  0  0  0
 17 16  1  0  0  0  0
 18 16  1  0  0  0  0
 19 26  2  0  0  0  0
 19 20  1  0  0  0  0
 20 22  2  0  0  0  0
 21 20  1  0  0  0  0
 22 23  1  0  0  0  0
 22 24  1  0  0  0  0
 25 24  2  0  0  0  0
 26 25  1  0  0  0  0
M  END
>  <minimizedAffinity>
-4.44791698

$$$$

 OpenBabel03252505313D

 26 27  0  0  0  0  0  0  0  0999 V2000
   41.8700   33.9850   37.5120 O   0  0  0  0  0  0  0  0  0  0  0  0
   41.0920   32.7350   37.8850 P   0  0  1  0  0  0  0  0  0  0  0  0
   39.8760   32.4200   36.7510 O   0  0  0  0  0  0  0  0  0  0  0  0
   39.4460   33.3040   36.5410 H   0  0  0  0  0  0  0  0  0  0  0  0
   42.1810   31.4500   37.9770 O   0  0  0  0  0  0  0  0  0  0  0  0
   43.7740   30.0190   35.1450 C   0  0  0  0  0  0  0  0  0  0  0  0
   45.0980   30.5100   35.1830 C   0  0  0  0  0  0  0  0  0  0  0  0
   45.3940   31.3730   36.2660 C   0  0  0  0  0  0  0  0  0  0  0  0
   44.4080   31.6560   37.1600 N   0  0  0  0  0  0  0  0  0  0  0  0
   43.1760   31.1550   37.0620 C   0  0  0  0  0  0  0  0  0  0  0  0
   42.8490   30.3420   36.0680 N   0  0  0  0  0  0  0  0  0  0  0  0
   43.4730   29.3500   34.3430 H   0  0  0  0  0  0  0  0  0  0  0  0
   45.8000   30.2250   34.4280 H   0  0  0  0  0  0  0  0  0  0  0  0
   46.3920   31.7690   36.3300 H   0  0  0  0  0  0  0  0  0  0  0  0
   40.3420   33.0400   39.3600 O   0  0  0  0  0  0  0  0  0  0  0  0
   39.1240   32.3850   39.3790 C   0  0  0  0  0  0  0  0  0  0  0  0
   39.0830   31.7460   38.4530 H   0  0  0  0  0  0  0  0  0  0  0  0
   38.2630   33.0660   39.3230 H   0  0  0  0  0  0  0  0  0  0  0  0
   39.0510   31.5170   40.5840 C   0  0  0  0  0  0  0  0  0  0  0  0
   39.9650   31.5310   41.6180 C   0  0  0  0  0  0  0  0  0  0  0  0
   40.7900   32.2240   41.5430 H   0  0  0  0  0  0  0  0  0  0  0  0
   39.8560   30.7040   42.7190 C   0  0  0  0  0  0  0  0  0  0  0  0
   40.5900   30.7370   43.5200 H   0  0  0  0  0  0  0  0  0  0  0  0
   38.7680   29.8270   42.7640 C   0  0  0  0  0  3  0  0  0  0  0  0
   37.8430   29.8120   41.7160 C   0  0  0  0  0  3  0  0  0  0  0  0
   38.0040   30.6440   40.6660 N   0  0  0  0  0  0  0  0  0  0  0  0
  2  1  2  6  0  0  0
  2  5  1  0  0  0  0
  2 15  1  0  0  0  0
  3  2  1  0  0  0  0
  4  3  1  0  0  0  0
  6  7  2  0  0  0  0
  6 11  1  0  0  0  0
  7  8  1  0  0  0  0
  8 14  1  0  0  0  0
  8  9  2  0  0  0  0
 10  9  1  0  0  0  0
 10  5  1  0  0  0  0
 11 10  2  0  0  0  0
 12  6  1  0  0  0  0
 13  7  1  0  0  0  0
 15 16  1  0  0  0  0
 16 19  1  0  0  0  0
 17 16  1  0  0  0  0
 18 16  1  0  0  0  0
 19 26  2  0  0  0  0
 19 20  1  0  0  0  0
 20 22  2  0  0  0  0
 21 20  1  0  0  0  0
 22 24  1  0  0  0  0
 22 23  1  0  0  0  0
 25 24  2  0  0  0  0
 26 25  1  0  0  0  0
M  END
>  <minimizedAffinity>
-4.42718077

$$$$
