
 OpenBabel03252506593D

 23 24  0  0  0  0  0  0  0  0999 V2000
   46.4130   32.7100   44.9930 C   0  0  0  0  0  0  0  0  0  0  0  0
   47.3010   32.4600   44.3590 H   0  0  0  0  0  0  0  0  0  0  0  0
   45.6670   31.9080   44.9630 H   0  0  0  0  0  0  0  0  0  0  0  0
   45.8900   33.9790   44.4830 C   0  0  0  0  0  0  0  0  0  0  0  0
   46.2300   34.4700   43.2300 C   0  0  0  0  0  0  0  0  0  0  0  0
   45.6730   35.7010   42.8120 C   0  0  0  0  0  0  0  0  0  0  0  0
   44.8290   36.3340   43.6750 N   0  0  0  0  0  0  0  0  0  0  0  0
   44.5290   35.8220   44.8780 C   0  0  0  0  0  0  0  0  0  0  0  0
   45.0460   34.6660   45.2810 N   0  0  0  0  0  0  0  0  0  0  0  0
   46.9090   33.9210   42.5840 H   0  0  0  0  0  0  0  0  0  0  0  0
   45.9160   36.1120   41.8440 H   0  0  0  0  0  0  0  0  0  0  0  0
   43.8490   36.3370   45.5680 H   0  0  0  0  0  0  0  0  0  0  0  0
   46.7800   32.8940   46.4370 C   0  0  0  0  0  0  0  0  0  0  0  0
   46.4230   33.8930   46.7600 H   0  0  0  0  0  0  0  0  0  0  0  0
   47.8780   32.8620   46.6240 H   0  0  0  0  0  0  0  0  0  0  0  0
   46.1450   31.9180   47.3470 C   0  0  0  0  0  0  0  0  0  0  0  0
   45.7340   30.6820   46.9090 C   0  0  0  0  0  0  0  0  0  0  0  0
   45.8750   30.4100   45.8700 H   0  0  0  0  0  0  0  0  0  0  0  0
   45.1380   29.7870   47.7940 C   0  0  0  0  0  0  0  0  0  0  0  0
   44.8230   28.8240   47.4350 H   0  0  0  0  0  0  0  0  0  0  0  0
   44.9970   30.2250   49.1110 C   0  0  0  0  0  0  0  0  0  0  0  0
   45.4250   31.4780   49.5100 C   0  0  0  0  0  0  0  0  0  0  0  0
   45.9970   32.3220   48.6310 N   0  0  0  0  0  0  0  0  0  0  0  0
  1 13  1  0  0  0  0
  2  1  1  0  0  0  0
  3  1  1  0  0  0  0
  4  1  1  0  0  0  0
  4  9  1  0  0  0  0
  5  4  2  0  0  0  0
  6  5  1  0  0  0  0
  6  7  2  0  0  0  0
  7  8  1  0  0  0  0
  8  9  2  0  0  0  0
  8 12  1  0  0  0  0
 10  5  1  0  0  0  0
 11  6  1  0  0  0  0
 13 15  1  0  0  0  0
 13 14  1  0  0  0  0
 13 16  1  0  0  0  0
 16 23  1  0  0  0  0
 17 16  2  0  0  0  0
 17 19  1  0  0  0  0
 18 17  1  0  0  0  0
 19 21  2  0  0  0  0
 20 19  1  0  0  0  0
 21 22  1  0  0  0  0
 23 22  2  0  0  0  0
M  END
>  <minimizedAffinity>
-4.54211283

>  <minimizedRMSD>
6.72052526

$$$$
