
 OpenBabel03252508433D

 30 32  0  0  0  0  0  0  0  0999 V2000
   37.2500   31.0100   38.5500 C   0  0  0  0  0  0  0  0  0  0  0  0
   36.3680   30.2600   39.3100 C   0  0  0  0  0  0  0  0  0  0  0  0
   35.5940   29.3140   38.6490 C   0  0  0  0  0  0  0  0  0  0  0  0
   35.7140   29.1460   37.3010 C   0  0  0  0  0  0  0  0  0  0  0  0
   36.5780   29.8750   36.5340 C   0  0  0  0  0  0  0  0  0  0  0  0
   37.3530   30.8270   37.2130 C   0  0  0  0  0  0  0  0  0  0  0  0
   34.9010   28.7290   39.2630 H   0  0  0  0  0  0  0  0  0  0  0  0
   35.0990   28.4030   36.8160 H   0  0  0  0  0  0  0  0  0  0  0  0
   36.6660   29.7340   35.4660 H   0  0  0  0  0  0  0  0  0  0  0  0
   38.0630   31.4420   36.6590 H   0  0  0  0  0  0  0  0  0  0  0  0
   38.4130   34.1600   40.2920 C   0  0  0  0  0  0  0  0  0  0  0  0
   37.5900   33.2700   39.5880 C   0  0  0  0  0  0  0  0  0  0  0  0
   38.0270   32.0010   39.2750 C   0  0  0  0  0  0  0  0  0  0  0  0
   39.2640   31.7200   39.6960 N   0  0  0  0  0  0  0  0  0  0  0  0
   40.0790   32.5480   40.3720 C   0  0  0  0  0  0  0  0  0  0  0  0
   39.6440   33.7810   40.6710 N   0  0  0  0  0  0  0  0  0  0  0  0
   37.9790   35.1220   40.4840 H   0  0  0  0  0  0  0  0  0  0  0  0
   36.5970   33.5630   39.2780 H   0  0  0  0  0  0  0  0  0  0  0  0
   41.0720   32.2630   40.6860 H   0  0  0  0  0  0  0  0  0  0  0  0
   36.2420   30.4470   40.7650 C   0  0  0  0  0  0  0  0  0  0  0  0
   36.7580   31.3980   41.0580 H   0  0  0  0  0  0  0  0  0  0  0  0
   35.1460   30.6000   40.9660 H   0  0  0  0  0  0  0  0  0  0  0  0
   36.7400   29.4000   41.6390 C   0  0  0  0  0  0  0  0  0  0  0  0
   36.3280   28.1100   41.9990 C   0  0  0  0  0  0  0  0  0  0  0  0
   35.4030   27.8900   41.4410 H   0  0  0  0  0  0  0  0  0  0  0  0
   36.9920   27.3000   42.8880 C   0  0  0  0  0  0  0  0  0  0  0  0
   36.5160   26.3410   43.0350 H   0  0  0  0  0  0  0  0  0  0  0  0
   38.1340   27.7740   43.4640 C   0  0  0  0  0  3  0  0  0  0  0  0
   38.5360   29.0410   43.1060 C   0  0  0  0  0  3  0  0  0  0  0  0
   37.8720   29.8320   42.2280 N   0  0  0  0  0  0  0  0  0  0  0  0
  1 13  1  0  0  0  0
  1  2  1  0  0  0  0
  2 20  1  0  0  0  0
  3  7  1  0  0  0  0
  3  2  2  0  0  0  0
  4  3  1  0  0  0  0
  5  6  1  0  0  0  0
  5  4  2  0  0  0  0
  6  1  2  0  0  0  0
  8  4  1  0  0  0  0
  9  5  1  0  0  0  0
 10  6  1  0  0  0  0
 11 17  1  0  0  0  0
 11 16  1  0  0  0  0
 12 11  2  0  0  0  0
 13 12  1  0  0  0  0
 13 14  2  0  0  0  0
 14 15  1  0  0  0  0
 15 16  2  0  0  0  0
 15 19  1  0  0  0  0
 18 12  1  0  0  0  0
 20 22  1  0  0  0  0
 20 21  1  0  0  0  0
 20 23  1  0  0  0  0
 23 24  2  0  0  0  0
 23 30  1  0  0  0  0
 24 26  1  0  0  0  0
 25 24  1  0  0  0  0
 26 27  1  0  0  0  0
 26 28  2  0  0  0  0
 29 28  1  0  0  0  0
 30 29  2  0  0  0  0
M  END
>  <minimizedAffinity>
-5.80602551

$$$$

 OpenBabel03252508433D

 30 32  0  0  0  0  0  0  0  0999 V2000
   36.4820   29.9480   38.4980 C   0  0  0  0  0  0  0  0  0  0  0  0
   35.6920   29.7460   39.6170 C   0  0  0  0  0  0  0  0  0  0  0  0
   34.4490   29.1550   39.4270 C   0  0  0  0  0  0  0  0  0  0  0  0
   34.0410   28.7940   38.1770 C   0  0  0  0  0  0  0  0  0  0  0  0
   34.8060   28.9850   37.0610 C   0  0  0  0  0  0  0  0  0  0  0  0
   36.0580   29.5830   37.2650 C   0  0  0  0  0  0  0  0  0  0  0  0
   33.8360   29.0020   40.3220 H   0  0  0  0  0  0  0  0  0  0  0  0
   33.0700   28.3370   38.0620 H   0  0  0  0  0  0  0  0  0  0  0  0
   34.4730   28.6950   36.0740 H   0  0  0  0  0  0  0  0  0  0  0  0
   36.7170   29.7630   36.4160 H   0  0  0  0  0  0  0  0  0  0  0  0
   40.1600   30.6260   39.0700 C   0  0  0  0  0  0  0  0  0  0  0  0
   38.9690   29.9230   38.8390 C   0  0  0  0  0  0  0  0  0  0  0  0
   37.7660   30.5870   38.7350 C   0  0  0  0  0  0  0  0  0  0  0  0
   37.8500   31.9130   38.8720 N   0  0  0  0  0  0  0  0  0  0  0  0
   38.9730   32.6190   39.0940 C   0  0  0  0  0  0  0  0  0  0  0  0
   40.1380   31.9630   39.1930 N   0  0  0  0  0  0  0  0  0  0  0  0
   41.0400   30.0160   39.1350 H   0  0  0  0  0  0  0  0  0  0  0  0
   38.9730   28.8470   38.7370 H   0  0  0  0  0  0  0  0  0  0  0  0
   38.9780   33.6930   39.1960 H   0  0  0  0  0  0  0  0  0  0  0  0
   36.1380   30.1390   40.9640 C   0  0  0  0  0  0  0  0  0  0  0  0
   36.8450   31.0040   40.8790 H   0  0  0  0  0  0  0  0  0  0  0  0
   35.2240   30.5220   41.4950 H   0  0  0  0  0  0  0  0  0  0  0  0
   36.7810   29.1370   41.7960 C   0  0  0  0  0  0  0  0  0  0  0  0
   36.4870   27.8300   42.2040 C   0  0  0  0  0  0  0  0  0  0  0  0
   35.5290   27.5440   41.7370 H   0  0  0  0  0  0  0  0  0  0  0  0
   37.2810   27.0750   43.0320 C   0  0  0  0  0  0  0  0  0  0  0  0
   36.8820   26.0900   43.2320 H   0  0  0  0  0  0  0  0  0  0  0  0
   38.4400   27.6270   43.4930 C   0  0  0  0  0  3  0  0  0  0  0  0
   38.7260   28.9120   43.0900 C   0  0  0  0  0  3  0  0  0  0  0  0
   37.9330   29.6470   42.2720 N   0  0  0  0  0  0  0  0  0  0  0  0
  1 13  1  0  0  0  0
  1  2  1  0  0  0  0
  2 20  1  0  0  0  0
  3  2  2  0  0  0  0
  3  7  1  0  0  0  0
  4  3  1  0  0  0  0
  5  6  1  0  0  0  0
  5  4  2  0  0  0  0
  6  1  2  0  0  0  0
  8  4  1  0  0  0  0
  9  5  1  0  0  0  0
 10  6  1  0  0  0  0
 11 17  1  0  0  0  0
 11 16  1  0  0  0  0
 12 11  2  0  0  0  0
 13 12  1  0  0  0  0
 13 14  2  0  0  0  0
 14 15  1  0  0  0  0
 15 16  2  0  0  0  0
 15 19  1  0  0  0  0
 18 12  1  0  0  0  0
 20 22  1  0  0  0  0
 20 23  1  0  0  0  0
 21 20  1  0  0  0  0
 23 24  2  0  0  0  0
 23 30  1  0  0  0  0
 24 26  1  0  0  0  0
 25 24  1  0  0  0  0
 26 27  1  0  0  0  0
 26 28  2  0  0  0  0
 29 28  1  0  0  0  0
 30 29  2  0  0  0  0
M  END
>  <minimizedAffinity>
-5.33249474

$$$$

 OpenBabel03252508433D

 30 32  0  0  0  0  0  0  0  0999 V2000
   36.6650   28.3030   41.3630 C   0  0  0  0  0  0  0  0  0  0  0  0
   37.7840   29.1190   41.3380 C   0  0  0  0  0  0  0  0  0  0  0  0
   38.5230   29.2320   42.5100 C   0  0  0  0  0  0  0  0  0  0  0  0
   38.1440   28.5560   43.6310 C   0  0  0  0  0  0  0  0  0  0  0  0
   37.0440   27.7460   43.6760 C   0  0  0  0  0  0  0  0  0  0  0  0
   36.3060   27.6410   42.4880 C   0  0  0  0  0  0  0  0  0  0  0  0
   39.4050   29.8810   42.4740 H   0  0  0  0  0  0  0  0  0  0  0  0
   38.7390   28.6640   44.5250 H   0  0  0  0  0  0  0  0  0  0  0  0
   36.7520   27.2140   44.5710 H   0  0  0  0  0  0  0  0  0  0  0  0
   35.4180   27.0110   42.4570 H   0  0  0  0  0  0  0  0  0  0  0  0
   34.2090   28.9270   38.5540 C   0  0  0  0  0  0  0  0  0  0  0  0
   34.8840   29.0790   39.7740 C   0  0  0  0  0  0  0  0  0  0  0  0
   35.9090   28.2270   40.1250 C   0  0  0  0  0  0  0  0  0  0  0  0
   36.1800   27.2820   39.2200 N   0  0  0  0  0  0  0  0  0  0  0  0
   35.5550   27.1080   38.0420 C   0  0  0  0  0  0  0  0  0  0  0  0
   34.5590   27.9420   37.7110 N   0  0  0  0  0  0  0  0  0  0  0  0
   33.4280   29.6400   38.3780 H   0  0  0  0  0  0  0  0  0  0  0  0
   34.6130   29.8670   40.4610 H   0  0  0  0  0  0  0  0  0  0  0  0
   35.8200   26.3230   37.3510 H   0  0  0  0  0  0  0  0  0  0  0  0
   38.1880   29.8470   40.1240 C   0  0  0  0  0  0  0  0  0  0  0  0
   39.1750   29.4500   39.7700 H   0  0  0  0  0  0  0  0  0  0  0  0
   37.4320   29.5810   39.3350 H   0  0  0  0  0  0  0  0  0  0  0  0
   38.3060   31.2930   40.1950 C   0  0  0  0  0  0  0  0  0  0  0  0
   39.1640   32.2020   40.8280 C   0  0  0  0  0  0  0  0  0  0  0  0
   39.9170   31.6160   41.3800 H   0  0  0  0  0  0  0  0  0  0  0  0
   39.0510   33.5680   40.7420 C   0  0  0  0  0  0  0  0  0  0  0  0
   39.8080   34.0980   41.3030 H   0  0  0  0  0  0  0  0  0  0  0  0
   38.0380   34.0860   39.9900 C   0  0  0  0  0  3  0  0  0  0  0  0
   37.1980   33.1890   39.3690 C   0  0  0  0  0  3  0  0  0  0  0  0
   37.3190   31.8420   39.4610 N   0  0  0  0  0  0  0  0  0  0  0  0
  1  6  1  0  0  0  0
  2  1  2  0  0  0  0
  2  3  1  0  0  0  0
  3  4  2  0  0  0  0
  4  5  1  0  0  0  0
  4  8  1  0  0  0  0
  5  9  1  0  0  0  0
  6  5  2  0  0  0  0
  7  3  1  0  0  0  0
 10  6  1  0  0  0  0
 11 12  1  0  0  0  0
 12 13  2  0  0  0  0
 12 18  1  0  0  0  0
 13  1  1  0  0  0  0
 14 13  1  0  0  0  0
 15 14  2  0  0  0  0
 16 15  1  0  0  0  0
 16 11  2  0  0  0  0
 17 11  1  0  0  0  0
 19 15  1  0  0  0  0
 20 23  1  0  0  0  0
 20  2  1  0  0  0  0
 21 20  1  0  0  0  0
 22 20  1  0  0  0  0
 23 24  1  0  0  0  0
 24 25  1  0  0  0  0
 26 24  2  0  0  0  0
 26 27  1  0  0  0  0
 28 26  1  0  0  0  0
 29 30  1  0  0  0  0
 29 28  2  0  0  0  0
 30 23  2  0  0  0  0
M  END
>  <minimizedAffinity>
-5.21397638

$$$$

 OpenBabel03252508433D

 30 32  0  0  0  0  0  0  0  0999 V2000
   36.3490   30.1140   38.7450 C   0  0  0  0  0  0  0  0  0  0  0  0
   36.2910   30.1770   40.1280 C   0  0  0  0  0  0  0  0  0  0  0  0
   36.7870   31.3220   40.7400 C   0  0  0  0  0  0  0  0  0  0  0  0
   37.3080   32.3340   39.9890 C   0  0  0  0  0  0  0  0  0  0  0  0
   37.3750   32.2910   38.6250 C   0  0  0  0  0  0  0  0  0  0  0  0
   36.8710   31.1300   38.0190 C   0  0  0  0  0  0  0  0  0  0  0  0
   36.7340   31.3570   41.8330 H   0  0  0  0  0  0  0  0  0  0  0  0
   37.6850   33.2100   40.4940 H   0  0  0  0  0  0  0  0  0  0  0  0
   37.7890   33.0990   38.0390 H   0  0  0  0  0  0  0  0  0  0  0  0
   36.8940   31.0320   36.9340 H   0  0  0  0  0  0  0  0  0  0  0  0
   34.1140   27.4400   37.2740 C   0  0  0  0  0  0  0  0  0  0  0  0
   34.5140   28.6520   37.8540 C   0  0  0  0  0  0  0  0  0  0  0  0
   35.8390   28.8930   38.1450 C   0  0  0  0  0  0  0  0  0  0  0  0
   36.6670   27.8940   37.8280 N   0  0  0  0  0  0  0  0  0  0  0  0
   36.3200   26.7200   37.2710 C   0  0  0  0  0  0  0  0  0  0  0  0
   35.0270   26.4960   36.9930 N   0  0  0  0  0  0  0  0  0  0  0  0
   33.0620   27.3520   37.0890 H   0  0  0  0  0  0  0  0  0  0  0  0
   33.7890   29.4200   38.0850 H   0  0  0  0  0  0  0  0  0  0  0  0
   37.0370   25.9490   37.0370 H   0  0  0  0  0  0  0  0  0  0  0  0
   35.7280   29.0810   40.9330 C   0  0  0  0  0  0  0  0  0  0  0  0
   34.9220   29.4890   41.5960 H   0  0  0  0  0  0  0  0  0  0  0  0
   35.2250   28.3860   40.2050 H   0  0  0  0  0  0  0  0  0  0  0  0
   36.6280   28.3120   41.7740 C   0  0  0  0  0  0  0  0  0  0  0  0
   37.2720   28.5100   43.0020 C   0  0  0  0  0  0  0  0  0  0  0  0
   36.9740   29.5040   43.3750 H   0  0  0  0  0  0  0  0  0  0  0  0
   38.1110   27.6000   43.5980 C   0  0  0  0  0  0  0  0  0  0  0  0
   38.5120   27.9380   44.5430 H   0  0  0  0  0  0  0  0  0  0  0  0
   38.3360   26.4160   42.9590 C   0  0  0  0  0  3  0  0  0  0  0  0
   37.7010   26.2240   41.7530 C   0  0  0  0  0  3  0  0  0  0  0  0
   36.8750   27.1320   41.1740 N   0  0  0  0  0  0  0  0  0  0  0  0
  1  2  1  0  0  0  0
  2  3  2  0  0  0  0
  2 20  1  0  0  0  0
  3  7  1  0  0  0  0
  4  8  1  0  0  0  0
  4  3  1  0  0  0  0
  5  4  2  0  0  0  0
  6  5  1  0  0  0  0
  6  1  2  0  0  0  0
  9  5  1  0  0  0  0
 10  6  1  0  0  0  0
 11 12  1  0  0  0  0
 12 18  1  0  0  0  0
 12 13  2  0  0  0  0
 13  1  1  0  0  0  0
 14 13  1  0  0  0  0
 15 14  2  0  0  0  0
 16 15  1  0  0  0  0
 16 11  2  0  0  0  0
 17 11  1  0  0  0  0
 19 15  1  0  0  0  0
 20 21  1  0  0  0  0
 20 23  1  0  0  0  0
 22 20  1  0  0  0  0
 23 24  1  0  0  0  0
 24 25  1  0  0  0  0
 24 26  2  0  0  0  0
 26 27  1  0  0  0  0
 28 26  1  0  0  0  0
 29 28  2  0  0  0  0
 30 29  1  0  0  0  0
 30 23  2  0  0  0  0
M  END
>  <minimizedAffinity>
-5.19876194

$$$$

 OpenBabel03252508433D

 30 32  0  0  0  0  0  0  0  0999 V2000
   36.9230   26.6980   40.6520 C   0  0  0  0  0  0  0  0  0  0  0  0
   37.3440   26.2900   41.9060 C   0  0  0  0  0  0  0  0  0  0  0  0
   37.3270   24.9270   42.1780 C   0  0  0  0  0  0  0  0  0  0  0  0
   36.9070   24.0410   41.2300 C   0  0  0  0  0  0  0  0  0  0  0  0
   36.4880   24.4230   39.9870 C   0  0  0  0  0  0  0  0  0  0  0  0
   36.5100   25.8010   39.7260 C   0  0  0  0  0  0  0  0  0  0  0  0
   37.6630   24.6200   43.1740 H   0  0  0  0  0  0  0  0  0  0  0  0
   36.9060   22.9880   41.4720 H   0  0  0  0  0  0  0  0  0  0  0  0
   36.1580   23.7120   39.2430 H   0  0  0  0  0  0  0  0  0  0  0  0
   36.1880   26.1730   38.7530 H   0  0  0  0  0  0  0  0  0  0  0  0
   36.0720   30.3830   40.5760 C   0  0  0  0  0  0  0  0  0  0  0  0
   35.9740   29.0130   40.8550 C   0  0  0  0  0  0  0  0  0  0  0  0
   36.9370   28.1310   40.4140 C   0  0  0  0  0  0  0  0  0  0  0  0
   37.9310   28.6950   39.7220 N   0  0  0  0  0  0  0  0  0  0  0  0
   38.0570   30.0030   39.4360 C   0  0  0  0  0  0  0  0  0  0  0  0
   37.1140   30.8520   39.8700 N   0  0  0  0  0  0  0  0  0  0  0  0
   35.2720   30.9820   40.9630 H   0  0  0  0  0  0  0  0  0  0  0  0
   35.1410   28.6230   41.4220 H   0  0  0  0  0  0  0  0  0  0  0  0
   38.8860   30.4000   38.8710 H   0  0  0  0  0  0  0  0  0  0  0  0
   37.7950   27.2510   42.9260 C   0  0  0  0  0  0  0  0  0  0  0  0
   37.3560   28.2570   42.7000 H   0  0  0  0  0  0  0  0  0  0  0  0
   37.3410   26.9120   43.8970 H   0  0  0  0  0  0  0  0  0  0  0  0
   39.2230   27.4370   43.1130 C   0  0  0  0  0  0  0  0  0  0  0  0
   40.2860   26.6540   43.5810 C   0  0  0  0  0  0  0  0  0  0  0  0
   39.8780   25.6640   43.8440 H   0  0  0  0  0  0  0  0  0  0  0  0
   41.5880   27.0830   43.6740 C   0  0  0  0  0  0  0  0  0  0  0  0
   42.2620   26.3310   44.0600 H   0  0  0  0  0  0  0  0  0  0  0  0
   41.8760   28.3570   43.2830 C   0  0  0  0  0  3  0  0  0  0  0  0
   40.8290   29.1230   42.8220 C   0  0  0  0  0  3  0  0  0  0  0  0
   39.5480   28.6890   42.7370 N   0  0  0  0  0  0  0  0  0  0  0  0
  1  2  1  0  0  0  0
  2  3  2  0  0  0  0
  2 20  1  0  0  0  0
  3  7  1  0  0  0  0
  4  8  1  0  0  0  0
  4  3  1  0  0  0  0
  5  4  2  0  0  0  0
  6  5  1  0  0  0  0
  6  1  2  0  0  0  0
  9  5  1  0  0  0  0
 10  6  1  0  0  0  0
 11 12  1  0  0  0  0
 11 17  1  0  0  0  0
 12 18  1  0  0  0  0
 13  1  1  0  0  0  0
 13 12  2  0  0  0  0
 14 13  1  0  0  0  0
 15 14  2  0  0  0  0
 15 16  1  0  0  0  0
 16 11  2  0  0  0  0
 19 15  1  0  0  0  0
 20 23  1  0  0  0  0
 20 22  1  0  0  0  0
 21 20  1  0  0  0  0
 23 24  1  0  0  0  0
 24 26  2  0  0  0  0
 24 25  1  0  0  0  0
 26 27  1  0  0  0  0
 28 26  1  0  0  0  0
 29 28  2  0  0  0  0
 30 29  1  0  0  0  0
 30 23  2  0  0  0  0
M  END
>  <minimizedAffinity>
-5.09200144

$$$$

 OpenBabel03252508433D

 30 32  0  0  0  0  0  0  0  0999 V2000
   36.5550   27.1830   40.0280 C   0  0  0  0  0  0  0  0  0  0  0  0
   35.6450   28.0350   39.4250 C   0  0  0  0  0  0  0  0  0  0  0  0
   35.0970   27.6360   38.2120 C   0  0  0  0  0  0  0  0  0  0  0  0
   35.4550   26.4440   37.6530 C   0  0  0  0  0  0  0  0  0  0  0  0
   36.3500   25.5900   38.2320 C   0  0  0  0  0  0  0  0  0  0  0  0
   36.8970   26.0050   39.4570 C   0  0  0  0  0  0  0  0  0  0  0  0
   34.3800   28.3200   37.7470 H   0  0  0  0  0  0  0  0  0  0  0  0
   35.0120   26.1620   36.7100 H   0  0  0  0  0  0  0  0  0  0  0  0
   36.6270   24.6470   37.7820 H   0  0  0  0  0  0  0  0  0  0  0  0
   37.6170   25.3690   39.9710 H   0  0  0  0  0  0  0  0  0  0  0  0
   37.1330   28.0050   43.6750 C   0  0  0  0  0  0  0  0  0  0  0  0
   36.5090   27.5270   42.5140 C   0  0  0  0  0  0  0  0  0  0  0  0
   37.1200   27.6450   41.2840 C   0  0  0  0  0  0  0  0  0  0  0  0
   38.3180   28.2370   41.3140 N   0  0  0  0  0  0  0  0  0  0  0  0
   38.9450   28.7070   42.4070 C   0  0  0  0  0  0  0  0  0  0  0  0
   38.3410   28.5870   43.5980 N   0  0  0  0  0  0  0  0  0  0  0  0
   36.5740   27.8660   44.5790 H   0  0  0  0  0  0  0  0  0  0  0  0
   35.5380   27.0570   42.5620 H   0  0  0  0  0  0  0  0  0  0  0  0
   39.9150   29.1770   42.3670 H   0  0  0  0  0  0  0  0  0  0  0  0
   35.2630   29.3210   40.0320 C   0  0  0  0  0  0  0  0  0  0  0  0
   34.2560   29.6240   39.6440 H   0  0  0  0  0  0  0  0  0  0  0  0
   35.1380   29.1210   41.1320 H   0  0  0  0  0  0  0  0  0  0  0  0
   36.1520   30.4560   39.8580 C   0  0  0  0  0  0  0  0  0  0  0  0
   36.7000   31.4410   40.6900 C   0  0  0  0  0  0  0  0  0  0  0  0
   36.3430   31.2440   41.7150 H   0  0  0  0  0  0  0  0  0  0  0  0
   37.5330   32.4460   40.2630 C   0  0  0  0  0  0  0  0  0  0  0  0
   37.8500   33.1080   41.0560 H   0  0  0  0  0  0  0  0  0  0  0  0
   37.8560   32.4970   38.9380 C   0  0  0  0  0  3  0  0  0  0  0  0
   37.3160   31.5270   38.1240 C   0  0  0  0  0  3  0  0  0  0  0  0
   36.4940   30.5400   38.5580 N   0  0  0  0  0  0  0  0  0  0  0  0
  1 13  1  0  0  0  0
  2  1  2  0  0  0  0
  2 20  1  0  0  0  0
  3  2  1  0  0  0  0
  4  3  2  0  0  0  0
  4  5  1  0  0  0  0
  5  6  2  0  0  0  0
  6 10  1  0  0  0  0
  6  1  1  0  0  0  0
  7  3  1  0  0  0  0
  8  4  1  0  0  0  0
  9  5  1  0  0  0  0
 11 17  1  0  0  0  0
 12 18  1  0  0  0  0
 12 11  2  0  0  0  0
 13 14  2  0  0  0  0
 13 12  1  0  0  0  0
 14 15  1  0  0  0  0
 15 16  2  0  0  0  0
 16 11  1  0  0  0  0
 19 15  1  0  0  0  0
 20 22  1  0  0  0  0
 21 20  1  0  0  0  0
 23 20  1  0  0  0  0
 23 24  1  0  0  0  0
 24 25  1  0  0  0  0
 26 24  2  0  0  0  0
 26 27  1  0  0  0  0
 28 26  1  0  0  0  0
 29 30  1  0  0  0  0
 29 28  2  0  0  0  0
 30 23  2  0  0  0  0
M  END
>  <minimizedAffinity>
-5.08559227

$$$$

 OpenBabel03252508433D

 30 32  0  0  0  0  0  0  0  0999 V2000
   36.8300   28.3850   39.7510 C   0  0  0  0  0  0  0  0  0  0  0  0
   36.3950   29.6740   39.4910 C   0  0  0  0  0  0  0  0  0  0  0  0
   36.0000   29.9690   38.1910 C   0  0  0  0  0  0  0  0  0  0  0  0
   36.0470   29.0100   37.2230 C   0  0  0  0  0  0  0  0  0  0  0  0
   36.4730   27.7330   37.4600 C   0  0  0  0  0  0  0  0  0  0  0  0
   36.8690   27.4480   38.7760 C   0  0  0  0  0  0  0  0  0  0  0  0
   35.6590   30.9920   38.0010 H   0  0  0  0  0  0  0  0  0  0  0  0
   35.7340   29.2690   36.2230 H   0  0  0  0  0  0  0  0  0  0  0  0
   36.5060   26.9800   36.6850 H   0  0  0  0  0  0  0  0  0  0  0  0
   37.2190   26.4480   39.0310 H   0  0  0  0  0  0  0  0  0  0  0  0
   36.9060   27.5780   43.4460 C   0  0  0  0  0  0  0  0  0  0  0  0
   36.4050   27.8150   42.1580 C   0  0  0  0  0  0  0  0  0  0  0  0
   37.2520   28.1230   41.1170 C   0  0  0  0  0  0  0  0  0  0  0  0
   38.5460   28.1690   41.4490 N   0  0  0  0  0  0  0  0  0  0  0  0
   39.0610   27.9470   42.6710 C   0  0  0  0  0  0  0  0  0  0  0  0
   38.2270   27.6490   43.6780 N   0  0  0  0  0  0  0  0  0  0  0  0
   36.1630   27.3470   44.1850 H   0  0  0  0  0  0  0  0  0  0  0  0
   35.3440   27.7610   41.9590 H   0  0  0  0  0  0  0  0  0  0  0  0
   40.1180   27.9990   42.8780 H   0  0  0  0  0  0  0  0  0  0  0  0
   36.3470   30.7050   40.5400 C   0  0  0  0  0  0  0  0  0  0  0  0
   35.3000   31.0980   40.6210 H   0  0  0  0  0  0  0  0  0  0  0  0
   36.5680   30.1760   41.5080 H   0  0  0  0  0  0  0  0  0  0  0  0
   37.2280   31.8530   40.4190 C   0  0  0  0  0  0  0  0  0  0  0  0
   37.1650   33.1080   39.8000 C   0  0  0  0  0  0  0  0  0  0  0  0
   36.1780   33.1890   39.3150 H   0  0  0  0  0  0  0  0  0  0  0  0
   38.1730   34.0410   39.8250 C   0  0  0  0  0  0  0  0  0  0  0  0
   37.9340   34.9480   39.2870 H   0  0  0  0  0  0  0  0  0  0  0  0
   39.3190   33.7340   40.4970 C   0  0  0  0  0  3  0  0  0  0  0  0
   39.3770   32.5000   41.1050 C   0  0  0  0  0  3  0  0  0  0  0  0
   38.3750   31.5870   41.0730 N   0  0  0  0  0  0  0  0  0  0  0  0
  1 13  1  0  0  0  0
  2  1  1  0  0  0  0
  2 20  1  0  0  0  0
  3  2  2  0  0  0  0
  4  5  2  0  0  0  0
  4  3  1  0  0  0  0
  5  6  1  0  0  0  0
  6 10  1  0  0  0  0
  6  1  2  0  0  0  0
  7  3  1  0  0  0  0
  8  4  1  0  0  0  0
  9  5  1  0  0  0  0
 11 16  1  0  0  0  0
 11 17  1  0  0  0  0
 12 11  2  0  0  0  0
 13 14  2  0  0  0  0
 13 12  1  0  0  0  0
 14 15  1  0  0  0  0
 15 19  1  0  0  0  0
 15 16  2  0  0  0  0
 18 12  1  0  0  0  0
 20 21  1  0  0  0  0
 20 22  1  0  0  0  0
 23 20  1  0  0  0  0
 23 30  1  0  0  0  0
 24 26  1  0  0  0  0
 24 23  2  0  0  0  0
 25 24  1  0  0  0  0
 26 28  2  0  0  0  0
 27 26  1  0  0  0  0
 28 29  1  0  0  0  0
 30 29  2  0  0  0  0
M  END
>  <minimizedAffinity>
-5.04516602

$$$$

 OpenBabel03252508433D

 30 32  0  0  0  0  0  0  0  0999 V2000
   36.5640   26.9690   40.0280 C   0  0  0  0  0  0  0  0  0  0  0  0
   36.4700   27.7590   41.1610 C   0  0  0  0  0  0  0  0  0  0  0  0
   35.8240   28.9840   41.0390 C   0  0  0  0  0  0  0  0  0  0  0  0
   35.3080   29.3730   39.8380 C   0  0  0  0  0  0  0  0  0  0  0  0
   35.3900   28.6080   38.7090 C   0  0  0  0  0  0  0  0  0  0  0  0
   36.0450   27.3750   38.8460 C   0  0  0  0  0  0  0  0  0  0  0  0
   35.7580   29.5970   41.9440 H   0  0  0  0  0  0  0  0  0  0  0  0
   34.8120   30.3300   39.7760 H   0  0  0  0  0  0  0  0  0  0  0  0
   34.9770   28.9260   37.7620 H   0  0  0  0  0  0  0  0  0  0  0  0
   36.1440   26.7170   37.9830 H   0  0  0  0  0  0  0  0  0  0  0  0
   37.4420   23.3620   40.7570 C   0  0  0  0  0  0  0  0  0  0  0  0
   36.6840   24.5350   40.6290 C   0  0  0  0  0  0  0  0  0  0  0  0
   37.2640   25.7060   40.1920 C   0  0  0  0  0  0  0  0  0  0  0  0
   38.5670   25.6100   39.9140 N   0  0  0  0  0  0  0  0  0  0  0  0
   39.3240   24.5040   40.0250 C   0  0  0  0  0  0  0  0  0  0  0  0
   38.7500   23.3700   40.4520 N   0  0  0  0  0  0  0  0  0  0  0  0
   36.8960   22.5070   41.1060 H   0  0  0  0  0  0  0  0  0  0  0  0
   35.6310   24.5410   40.8710 H   0  0  0  0  0  0  0  0  0  0  0  0
   40.3750   24.4890   39.7860 H   0  0  0  0  0  0  0  0  0  0  0  0
   37.0300   27.3330   42.4540 C   0  0  0  0  0  0  0  0  0  0  0  0
   36.4220   27.7810   43.2820 H   0  0  0  0  0  0  0  0  0  0  0  0
   36.8770   26.2200   42.5090 H   0  0  0  0  0  0  0  0  0  0  0  0
   38.4240   27.6320   42.7340 C   0  0  0  0  0  0  0  0  0  0  0  0
   39.2780   28.7240   42.5330 C   0  0  0  0  0  0  0  0  0  0  0  0
   38.6870   29.5230   42.0540 H   0  0  0  0  0  0  0  0  0  0  0  0
   40.6030   28.7520   42.8890 C   0  0  0  0  0  0  0  0  0  0  0  0
   41.0940   29.6850   42.6500 H   0  0  0  0  0  0  0  0  0  0  0  0
   41.1350   27.6440   43.4830 C   0  0  0  0  0  3  0  0  0  0  0  0
   40.2930   26.5740   43.6790 C   0  0  0  0  0  3  0  0  0  0  0  0
   38.9840   26.5580   43.3220 N   0  0  0  0  0  0  0  0  0  0  0  0
  1 13  1  0  0  0  0
  1  2  1  0  0  0  0
  2 20  1  0  0  0  0
  3  2  2  0  0  0  0
  3  7  1  0  0  0  0
  4  3  1  0  0  0  0
  5  6  1  0  0  0  0
  5  4  2  0  0  0  0
  6  1  2  0  0  0  0
  8  4  1  0  0  0  0
  9  5  1  0  0  0  0
 10  6  1  0  0  0  0
 11 17  1  0  0  0  0
 12 11  1  0  0  0  0
 12 18  1  0  0  0  0
 13 12  2  0  0  0  0
 14 15  2  0  0  0  0
 14 13  1  0  0  0  0
 15 16  1  0  0  0  0
 16 11  2  0  0  0  0
 19 15  1  0  0  0  0
 20 22  1  0  0  0  0
 20 23  1  0  0  0  0
 20 21  1  0  0  0  0
 23 30  1  0  0  0  0
 24 23  2  0  0  0  0
 24 26  1  0  0  0  0
 25 24  1  0  0  0  0
 26 28  2  0  0  0  0
 27 26  1  0  0  0  0
 28 29  1  0  0  0  0
 30 29  2  0  0  0  0
M  END
>  <minimizedAffinity>
-4.99443579

$$$$

 OpenBabel03252508433D

 30 32  0  0  0  0  0  0  0  0999 V2000
   38.1730   30.8120   41.2020 C   0  0  0  0  0  0  0  0  0  0  0  0
   37.0240   31.1340   40.4980 C   0  0  0  0  0  0  0  0  0  0  0  0
   36.9520   32.4020   39.9320 C   0  0  0  0  0  0  0  0  0  0  0  0
   37.9840   33.2800   40.0760 C   0  0  0  0  0  0  0  0  0  0  0  0
   39.1250   32.9820   40.7660 C   0  0  0  0  0  0  0  0  0  0  0  0
   39.1870   31.7000   41.3330 C   0  0  0  0  0  0  0  0  0  0  0  0
   36.0370   32.6410   39.3790 H   0  0  0  0  0  0  0  0  0  0  0  0
   37.8980   34.2570   39.6240 H   0  0  0  0  0  0  0  0  0  0  0  0
   39.9390   33.6860   40.8730 H   0  0  0  0  0  0  0  0  0  0  0  0
   40.0700   31.3980   41.8960 H   0  0  0  0  0  0  0  0  0  0  0  0
   38.6870   27.1180   41.8320 C   0  0  0  0  0  0  0  0  0  0  0  0
   38.7020   28.3590   41.1790 C   0  0  0  0  0  0  0  0  0  0  0  0
   38.2020   29.4860   41.7940 C   0  0  0  0  0  0  0  0  0  0  0  0
   37.7230   29.2810   43.0250 N   0  0  0  0  0  0  0  0  0  0  0  0
   37.6920   28.1070   43.6800 C   0  0  0  0  0  0  0  0  0  0  0  0
   38.1810   27.0160   43.0720 N   0  0  0  0  0  0  0  0  0  0  0  0
   39.0990   26.3050   41.2660 H   0  0  0  0  0  0  0  0  0  0  0  0
   39.1070   28.4540   40.1820 H   0  0  0  0  0  0  0  0  0  0  0  0
   37.2910   28.0030   44.6750 H   0  0  0  0  0  0  0  0  0  0  0  0
   35.9130   30.1820   40.3470 C   0  0  0  0  0  0  0  0  0  0  0  0
   36.0990   29.2930   41.0050 H   0  0  0  0  0  0  0  0  0  0  0  0
   35.0010   30.6990   40.7560 H   0  0  0  0  0  0  0  0  0  0  0  0
   35.6130   29.6770   39.0190 C   0  0  0  0  0  0  0  0  0  0  0  0
   36.2590   29.6710   37.7760 C   0  0  0  0  0  0  0  0  0  0  0  0
   37.2320   30.1740   37.9070 H   0  0  0  0  0  0  0  0  0  0  0  0
   35.7400   29.1190   36.6310 C   0  0  0  0  0  0  0  0  0  0  0  0
   36.3910   29.2160   35.7730 H   0  0  0  0  0  0  0  0  0  0  0  0
   34.5100   28.5340   36.6970 C   0  0  0  0  0  3  0  0  0  0  0  0
   33.8780   28.5420   37.9200 C   0  0  0  0  0  3  0  0  0  0  0  0
   34.4010   29.0900   39.0440 N   0  0  0  0  0  0  0  0  0  0  0  0
  1  6  1  0  0  0  0
  1 13  1  0  0  0  0
  2  1  2  0  0  0  0
  3  4  2  0  0  0  0
  3  2  1  0  0  0  0
  4  5  1  0  0  0  0
  5  9  1  0  0  0  0
  5  6  2  0  0  0  0
  6 10  1  0  0  0  0
  7  3  1  0  0  0  0
  8  4  1  0  0  0  0
 11 16  1  0  0  0  0
 12 13  1  0  0  0  0
 12 11  2  0  0  0  0
 13 14  2  0  0  0  0
 14 15  1  0  0  0  0
 15 19  1  0  0  0  0
 16 15  2  0  0  0  0
 17 11  1  0  0  0  0
 18 12  1  0  0  0  0
 20  2  1  0  0  0  0
 20 22  1  0  0  0  0
 20 21  1  0  0  0  0
 23 30  1  0  0  0  0
 23 20  1  0  0  0  0
 24 25  1  0  0  0  0
 24 23  2  0  0  0  0
 26 28  2  0  0  0  0
 26 24  1  0  0  0  0
 27 26  1  0  0  0  0
 28 29  1  0  0  0  0
 29 30  2  0  0  0  0
M  END
>  <minimizedAffinity>
-4.92735863

$$$$
