
 OpenBabel03252502503D

 33 35  0  0  0  0  0  0  0  0999 V2000
   44.6050   36.2360   43.9640 C   0  0  0  0  0  0  0  0  0  0  0  0
   44.7960   35.4340   45.0880 C   0  0  0  0  0  0  0  0  0  0  0  0
   45.5000   34.2520   44.9310 C   0  0  0  0  0  0  0  0  0  0  0  0
   45.9600   33.9420   43.7010 N   0  0  0  0  0  0  0  0  0  0  0  0
   45.7620   34.7370   42.6210 C   0  0  0  0  0  0  0  0  0  0  0  0
   45.0840   35.8850   42.7530 N   0  0  0  0  0  0  0  0  0  0  0  0
   44.0480   37.1730   44.0870 H   0  0  0  0  0  0  0  0  0  0  0  0
   44.4140   35.7160   46.0550 H   0  0  0  0  0  0  0  0  0  0  0  0
   48.5190   35.6910   42.0110 Cl  0  0  0  0  0  0  0  0  0  0  0  0
   47.5420   34.7080   40.9430 C   0  0  0  0  0  0  0  0  0  0  0  0
   46.2950   34.3270   41.3190 C   0  0  0  0  0  0  0  0  0  0  0  0
   45.4990   33.5410   40.4770 C   0  0  0  0  0  0  0  0  0  0  0  0
   46.0490   33.1860   39.2660 C   0  0  0  0  0  0  0  0  0  0  0  0
   47.3030   33.5760   38.9020 C   0  0  0  0  0  0  0  0  0  0  0  0
   48.0670   34.3380   39.7240 C   0  0  0  0  0  0  0  0  0  0  0  0
   44.5060   33.2690   40.8360 H   0  0  0  0  0  0  0  0  0  0  0  0
   45.3760   32.5760   38.6620 H   0  0  0  0  0  0  0  0  0  0  0  0
   47.6050   33.2240   37.9220 H   0  0  0  0  0  0  0  0  0  0  0  0
   49.0580   34.6180   39.3800 H   0  0  0  0  0  0  0  0  0  0  0  0
   45.7120   33.3900   46.1180 C   0  0  0  0  0  0  0  0  0  0  0  0
   46.2870   33.9150   46.9130 H   0  0  0  0  0  0  0  0  0  0  0  0
   44.6970   33.1940   46.5310 H   0  0  0  0  0  0  0  0  0  0  0  0
   46.3240   32.0490   45.7800 C   0  0  0  0  0  0  0  0  0  0  0  0
   46.8890   32.2000   44.8160 H   0  0  0  0  0  0  0  0  0  0  0  0
   45.4840   31.3670   45.5200 H   0  0  0  0  0  0  0  0  0  0  0  0
   47.1880   31.5280   46.8430 C   0  0  0  0  0  0  0  0  0  0  0  0
   47.5030   32.2310   47.9880 C   0  0  0  0  0  0  0  0  0  0  0  0
   47.1060   33.2210   48.1360 H   0  0  0  0  0  0  0  0  0  0  0  0
   48.3420   31.5920   48.9080 C   0  0  0  0  0  0  0  0  0  0  0  0
   48.6150   32.1020   49.8170 H   0  0  0  0  0  0  0  0  0  0  0  0
   48.7830   30.3220   48.6010 C   0  0  0  0  0  0  0  0  0  0  0  0
   48.4670   29.6210   47.4560 C   0  0  0  0  0  0  0  0  0  0  0  0
   47.6570   30.2830   46.6050 N   0  0  0  0  0  0  0  0  0  0  0  0
  1  7  1  0  0  0  0
  1  2  1  0  0  0  0
  2  8  1  0  0  0  0
  3  2  2  0  0  0  0
  3 20  1  0  0  0  0
  4  3  1  0  0  0  0
  5  6  1  0  0  0  0
  5  4  2  0  0  0  0
  6  1  2  0  0  0  0
 10 11  1  0  0  0  0
 10  9  1  0  0  0  0
 11  5  1  0  0  0  0
 12 16  1  0  0  0  0
 12 11  2  0  0  0  0
 13 12  1  0  0  0  0
 14 13  2  0  0  0  0
 14 15  1  0  0  0  0
 15 10  2  0  0  0  0
 17 13  1  0  0  0  0
 18 14  1  0  0  0  0
 19 15  1  0  0  0  0
 20 22  1  0  0  0  0
 20 21  1  0  0  0  0
 23 20  1  0  0  0  0
 23 26  1  0  0  0  0
 24 23  1  0  0  0  0
 25 23  1  0  0  0  0
 26 27  1  0  0  0  0
 27 28  1  0  0  0  0
 27 29  2  0  0  0  0
 29 30  1  0  0  0  0
 31 29  1  0  0  0  0
 32 31  2  0  0  0  0
 33 26  2  0  0  0  0
 33 32  1  0  0  0  0
M  END
>  <minimizedAffinity>
-5.77454233

>  <minimizedRMSD>
0.71193397

$$$$
