
 OpenBabel03252508433D

 30 32  0  0  0  0  0  0  0  0999 V2000
   46.1610   32.1260   44.7990 C   0  0  0  0  0  0  0  0  0  0  0  0
   47.4180   31.9420   44.2490 C   0  0  0  0  0  0  0  0  0  0  0  0
   48.0890   30.7650   44.5600 C   0  0  0  0  0  0  0  0  0  0  0  0
   47.5130   29.8390   45.3770 C   0  0  0  0  0  0  0  0  0  0  0  0
   46.2740   30.0020   45.9300 C   0  0  0  0  0  0  0  0  0  0  0  0
   45.6070   31.1940   45.6090 C   0  0  0  0  0  0  0  0  0  0  0  0
   49.0820   30.6340   44.1170 H   0  0  0  0  0  0  0  0  0  0  0  0
   48.0590   28.9350   45.6000 H   0  0  0  0  0  0  0  0  0  0  0  0
   45.8250   29.2610   46.5770 H   0  0  0  0  0  0  0  0  0  0  0  0
   44.6140   31.3850   46.0170 H   0  0  0  0  0  0  0  0  0  0  0  0
   44.4260   34.9560   42.9840 C   0  0  0  0  0  0  0  0  0  0  0  0
   45.0530   33.7220   43.2100 C   0  0  0  0  0  0  0  0  0  0  0  0
   45.5010   33.3770   44.4670 C   0  0  0  0  0  0  0  0  0  0  0  0
   45.2830   34.3020   45.4070 N   0  0  0  0  0  0  0  0  0  0  0  0
   44.6860   35.4930   45.2260 C   0  0  0  0  0  0  0  0  0  0  0  0
   44.2550   35.8190   43.9990 N   0  0  0  0  0  0  0  0  0  0  0  0
   44.1160   35.1270   41.9720 H   0  0  0  0  0  0  0  0  0  0  0  0
   45.1960   33.0190   42.4020 H   0  0  0  0  0  0  0  0  0  0  0  0
   44.5390   36.2000   46.0270 H   0  0  0  0  0  0  0  0  0  0  0  0
   48.0360   32.9460   43.3670 C   0  0  0  0  0  0  0  0  0  0  0  0
   47.2400   33.6380   42.9860 H   0  0  0  0  0  0  0  0  0  0  0  0
   48.7110   33.5630   44.0220 H   0  0  0  0  0  0  0  0  0  0  0  0
   48.7900   32.4820   42.2170 C   0  0  0  0  0  0  0  0  0  0  0  0
   48.4850   31.8730   40.9930 C   0  0  0  0  0  0  0  0  0  0  0  0
   47.3890   31.7550   40.9470 H   0  0  0  0  0  0  0  0  0  0  0  0
   49.4130   31.5120   40.0490 C   0  0  0  0  0  0  0  0  0  0  0  0
   48.9810   31.0520   39.1720 H   0  0  0  0  0  0  0  0  0  0  0  0
   50.7300   31.7600   40.3120 C   0  0  0  0  0  3  0  0  0  0  0  0
   51.0270   32.3590   41.5150 C   0  0  0  0  0  3  0  0  0  0  0  0
   50.0990   32.7120   42.4390 N   0  0  0  0  0  0  0  0  0  0  0  0
  1  6  1  0  0  0  0
  2  3  1  0  0  0  0
  2  1  2  0  0  0  0
  3  4  2  0  0  0  0
  4  8  1  0  0  0  0
  4  5  1  0  0  0  0
  5  9  1  0  0  0  0
  6  5  2  0  0  0  0
  6 10  1  0  0  0  0
  7  3  1  0  0  0  0
 11 12  2  0  0  0  0
 11 16  1  0  0  0  0
 12 13  1  0  0  0  0
 13  1  1  0  0  0  0
 13 14  2  0  0  0  0
 15 14  1  0  0  0  0
 15 19  1  0  0  0  0
 16 15  2  0  0  0  0
 17 11  1  0  0  0  0
 18 12  1  0  0  0  0
 20 22  1  0  0  0  0
 20  2  1  0  0  0  0
 21 20  1  0  0  0  0
 23 30  1  0  0  0  0
 23 20  1  0  0  0  0
 24 23  2  0  0  0  0
 25 24  1  0  0  0  0
 26 28  2  0  0  0  0
 26 24  1  0  0  0  0
 27 26  1  0  0  0  0
 28 29  1  0  0  0  0
 29 30  2  0  0  0  0
M  END
>  <minimizedAffinity>
-3.94029379

>  <minimizedRMSD>
5.30315351

$$$$
