
 OpenBabel03252507413D

 24 25  0  0  0  0  0  0  0  0999 V2000
   38.9170   29.0240   42.9010 C   0  0  0  0  0  0  0  0  0  0  0  0
   39.6570   28.5200   42.2380 H   0  0  0  0  0  0  0  0  0  0  0  0
   39.5030   29.5070   43.6880 H   0  0  0  0  0  0  0  0  0  0  0  0
   38.2100   29.9950   42.0510 C   0  0  0  0  0  0  0  0  0  0  0  0
   38.9950   31.0480   41.5480 C   0  0  0  0  0  0  0  0  0  0  0  0
   38.4080   32.0120   40.7360 C   0  0  0  0  0  0  0  0  0  0  0  0
   37.0670   31.8960   40.4520 N   0  0  0  0  0  0  0  0  0  0  0  0
   36.3580   30.8670   40.9600 C   0  0  0  0  0  0  0  0  0  0  0  0
   36.9010   29.9380   41.7360 N   0  0  0  0  0  0  0  0  0  0  0  0
   38.9800   32.8360   40.3320 H   0  0  0  0  0  0  0  0  0  0  0  0
   35.3020   30.7110   40.7800 H   0  0  0  0  0  0  0  0  0  0  0  0
   40.7440   31.1610   41.9430 S   0  0  0  0  0  0  0  0  0  0  0  0
   40.8990   32.1340   42.9440 H   0  0  0  0  0  0  0  0  0  0  0  0
   37.9840   28.0350   43.5480 C   0  0  0  0  0  0  0  0  0  0  0  0
   36.9310   28.3800   43.4400 H   0  0  0  0  0  0  0  0  0  0  0  0
   38.1960   28.0290   44.6290 H   0  0  0  0  0  0  0  0  0  0  0  0
   38.1400   26.6770   43.0200 C   0  0  0  0  0  0  0  0  0  0  0  0
   37.0140   26.1170   42.4110 C   0  0  0  0  0  0  0  0  0  0  0  0
   36.0960   26.6450   42.3350 H   0  0  0  0  0  0  0  0  0  0  0  0
   37.0290   24.8420   41.8710 C   0  0  0  0  0  0  0  0  0  0  0  0
   36.1500   24.4310   41.4080 H   0  0  0  0  0  0  0  0  0  0  0  0
   38.1730   24.0820   41.9220 C   0  0  0  0  0  3  0  0  0  0  0  0
   39.2850   24.6670   42.5370 C   0  0  0  0  0  3  0  0  0  0  0  0
   39.2480   25.9090   43.0550 N   0  0  0  0  0  0  0  0  0  0  0  0
  1 14  1  0  0  0  0
  1  3  1  0  0  0  0
  2  1  1  0  0  0  0
  4  1  1  0  0  0  0
  5 12  1  0  0  0  0
  5  4  2  0  0  0  0
  6  5  1  0  0  0  0
  7  6  2  0  0  0  0
  7  8  1  0  0  0  0
  8  9  2  0  0  0  0
  9  4  1  0  0  0  0
 10  6  1  0  0  0  0
 11  8  1  0  0  0  0
 12 13  1  0  0  0  0
 14 16  1  0  0  0  0
 15 14  1  0  0  0  0
 17 24  1  0  0  0  0
 17 14  1  0  0  0  0
 18 17  2  0  0  0  0
 19 18  1  0  0  0  0
 20 22  2  0  0  0  0
 20 18  1  0  0  0  0
 21 20  1  0  0  0  0
 22 23  1  0  0  0  0
 23 24  2  0  0  0  0
M  END
>  <minimizedAffinity>
-4.55396223

$$$$

 OpenBabel03252507413D

 24 25  0  0  0  0  0  0  0  0999 V2000
   37.9600   29.0880   43.1440 C   0  0  0  0  0  0  0  0  0  0  0  0
   39.0610   28.9170   43.1290 H   0  0  0  0  0  0  0  0  0  0  0  0
   37.7410   29.5350   44.1180 H   0  0  0  0  0  0  0  0  0  0  0  0
   37.6800   30.0050   42.0280 C   0  0  0  0  0  0  0  0  0  0  0  0
   38.7590   30.8080   41.6160 C   0  0  0  0  0  0  0  0  0  0  0  0
   38.5830   31.7050   40.5680 C   0  0  0  0  0  0  0  0  0  0  0  0
   37.3480   31.7720   39.9680 N   0  0  0  0  0  0  0  0  0  0  0  0
   36.3440   30.9800   40.4020 C   0  0  0  0  0  0  0  0  0  0  0  0
   36.4930   30.1200   41.4000 N   0  0  0  0  0  0  0  0  0  0  0  0
   39.3900   32.3380   40.2240 H   0  0  0  0  0  0  0  0  0  0  0  0
   35.3480   30.9790   39.9790 H   0  0  0  0  0  0  0  0  0  0  0  0
   40.3580   30.6870   42.4260 S   0  0  0  0  0  0  0  0  0  0  0  0
   40.4800   31.7760   43.3060 H   0  0  0  0  0  0  0  0  0  0  0  0
   37.1940   27.7960   43.0370 C   0  0  0  0  0  0  0  0  0  0  0  0
   36.5160   27.8290   42.1540 H   0  0  0  0  0  0  0  0  0  0  0  0
   36.5420   27.7160   43.9220 H   0  0  0  0  0  0  0  0  0  0  0  0
   38.0670   26.6210   42.9740 C   0  0  0  0  0  0  0  0  0  0  0  0
   39.2810   26.7160   43.6590 C   0  0  0  0  0  0  0  0  0  0  0  0
   39.5570   27.5890   44.1940 H   0  0  0  0  0  0  0  0  0  0  0  0
   40.1960   25.6750   43.6790 C   0  0  0  0  0  0  0  0  0  0  0  0
   41.1240   25.7710   44.2120 H   0  0  0  0  0  0  0  0  0  0  0  0
   39.9260   24.5040   43.0140 C   0  0  0  0  0  3  0  0  0  0  0  0
   38.7030   24.4360   42.3370 C   0  0  0  0  0  3  0  0  0  0  0  0
   37.8290   25.4590   42.3310 N   0  0  0  0  0  0  0  0  0  0  0  0
  1  3  1  0  0  0  0
  2  1  1  0  0  0  0
  4  1  1  0  0  0  0
  5  4  1  0  0  0  0
  5 12  1  0  0  0  0
  6  5  2  0  0  0  0
  7  8  2  0  0  0  0
  7  6  1  0  0  0  0
  8  9  1  0  0  0  0
  9  4  2  0  0  0  0
 10  6  1  0  0  0  0
 11  8  1  0  0  0  0
 12 13  1  0  0  0  0
 14  1  1  0  0  0  0
 14 16  1  0  0  0  0
 15 14  1  0  0  0  0
 17 14  1  0  0  0  0
 17 18  1  0  0  0  0
 18 20  2  0  0  0  0
 18 19  1  0  0  0  0
 20 21  1  0  0  0  0
 22 20  1  0  0  0  0
 23 22  2  0  0  0  0
 24 23  1  0  0  0  0
 24 17  2  0  0  0  0
M  END
>  <minimizedAffinity>
-4.47729874

$$$$

 OpenBabel03252507413D

 24 25  0  0  0  0  0  0  0  0999 V2000
   36.8010   30.8970   39.6270 C   0  0  0  0  0  0  0  0  0  0  0  0
   36.0490   31.2220   38.8720 H   0  0  0  0  0  0  0  0  0  0  0  0
   37.2270   29.9660   39.2420 H   0  0  0  0  0  0  0  0  0  0  0  0
   37.7930   31.9810   39.6990 C   0  0  0  0  0  0  0  0  0  0  0  0
   39.1140   31.6190   39.3770 C   0  0  0  0  0  0  0  0  0  0  0  0
   40.1170   32.5810   39.4190 C   0  0  0  0  0  0  0  0  0  0  0  0
   39.7750   33.8630   39.7780 N   0  0  0  0  0  0  0  0  0  0  0  0
   38.4930   34.1600   40.0780 C   0  0  0  0  0  0  0  0  0  0  0  0
   37.5240   33.2560   40.0430 N   0  0  0  0  0  0  0  0  0  0  0  0
   41.1430   32.3390   39.1780 H   0  0  0  0  0  0  0  0  0  0  0  0
   38.1510   35.1450   40.3680 H   0  0  0  0  0  0  0  0  0  0  0  0
   39.5180   29.9310   38.9120 S   0  0  0  0  0  0  0  0  0  0  0  0
   40.1040   29.3050   40.0240 H   0  0  0  0  0  0  0  0  0  0  0  0
   36.1640   30.6070   40.9600 C   0  0  0  0  0  0  0  0  0  0  0  0
   35.0980   30.3220   40.8170 H   0  0  0  0  0  0  0  0  0  0  0  0
   36.1570   31.5430   41.5410 H   0  0  0  0  0  0  0  0  0  0  0  0
   36.8770   29.5760   41.7190 C   0  0  0  0  0  0  0  0  0  0  0  0
   36.3460   28.2850   41.6570 C   0  0  0  0  0  0  0  0  0  0  0  0
   35.4750   28.0630   41.0940 H   0  0  0  0  0  0  0  0  0  0  0  0
   36.9250   27.2200   42.3280 C   0  0  0  0  0  0  0  0  0  0  0  0
   36.4990   26.2350   42.2660 H   0  0  0  0  0  0  0  0  0  0  0  0
   38.0560   27.4110   43.0840 C   0  0  0  0  0  3  0  0  0  0  0  0
   38.5670   28.7130   43.1280 C   0  0  0  0  0  3  0  0  0  0  0  0
   37.9880   29.7330   42.4680 N   0  0  0  0  0  0  0  0  0  0  0  0
  1  4  1  0  0  0  0
  1 14  1  0  0  0  0
  2  1  1  0  0  0  0
  3  1  1  0  0  0  0
  4  9  1  0  0  0  0
  5  6  1  0  0  0  0
  5  4  2  0  0  0  0
  6  7  2  0  0  0  0
  7  8  1  0  0  0  0
  8 11  1  0  0  0  0
  9  8  2  0  0  0  0
 10  6  1  0  0  0  0
 12  5  1  0  0  0  0
 12 13  1  0  0  0  0
 14 16  1  0  0  0  0
 14 17  1  0  0  0  0
 15 14  1  0  0  0  0
 17 24  1  0  0  0  0
 18 17  2  0  0  0  0
 18 20  1  0  0  0  0
 19 18  1  0  0  0  0
 20 22  2  0  0  0  0
 21 20  1  0  0  0  0
 22 23  1  0  0  0  0
 24 23  2  0  0  0  0
M  END
>  <minimizedAffinity>
-4.43821669

$$$$

 OpenBabel03252507413D

 24 25  0  0  0  0  0  0  0  0999 V2000
   39.9890   30.4670   41.4920 C   0  0  0  0  0  0  0  0  0  0  0  0
   39.9500   29.6650   40.7190 H   0  0  0  0  0  0  0  0  0  0  0  0
   41.0500   30.6800   41.6470 H   0  0  0  0  0  0  0  0  0  0  0  0
   39.2630   31.6120   40.9220 C   0  0  0  0  0  0  0  0  0  0  0  0
   40.0450   32.7450   40.6340 C   0  0  0  0  0  0  0  0  0  0  0  0
   39.4410   33.8750   40.0920 C   0  0  0  0  0  0  0  0  0  0  0  0
   38.0870   33.8390   39.8570 N   0  0  0  0  0  0  0  0  0  0  0  0
   37.3810   32.7270   40.1500 C   0  0  0  0  0  0  0  0  0  0  0  0
   37.9400   31.6410   40.6670 N   0  0  0  0  0  0  0  0  0  0  0  0
   40.0100   34.7640   39.8590 H   0  0  0  0  0  0  0  0  0  0  0  0
   36.3150   32.6260   39.9920 H   0  0  0  0  0  0  0  0  0  0  0  0
   41.8120   32.7490   40.9570 S   0  0  0  0  0  0  0  0  0  0  0  0
   42.0330   33.4660   42.1450 H   0  0  0  0  0  0  0  0  0  0  0  0
   39.4050   30.0070   42.8020 C   0  0  0  0  0  0  0  0  0  0  0  0
   38.7820   30.8170   43.2450 H   0  0  0  0  0  0  0  0  0  0  0  0
   40.2390   29.8420   43.5030 H   0  0  0  0  0  0  0  0  0  0  0  0
   38.6300   28.7690   42.6760 C   0  0  0  0  0  0  0  0  0  0  0  0
   37.5420   28.6300   43.5410 C   0  0  0  0  0  0  0  0  0  0  0  0
   37.2900   29.3780   44.2510 H   0  0  0  0  0  0  0  0  0  0  0  0
   36.7290   27.5090   43.5240 C   0  0  0  0  0  0  0  0  0  0  0  0
   35.8970   27.4230   44.2000 H   0  0  0  0  0  0  0  0  0  0  0  0
   36.9760   26.4880   42.6390 C   0  0  0  0  0  3  0  0  0  0  0  0
   38.0720   26.6530   41.7840 C   0  0  0  0  0  3  0  0  0  0  0  0
   38.8490   27.7520   41.8180 N   0  0  0  0  0  0  0  0  0  0  0  0
  1  3  1  0  0  0  0
  1 14  1  0  0  0  0
  2  1  1  0  0  0  0
  4  1  1  0  0  0  0
  5  4  2  0  0  0  0
  5 12  1  0  0  0  0
  6  5  1  0  0  0  0
  7  6  2  0  0  0  0
  7  8  1  0  0  0  0
  8  9  2  0  0  0  0
  9  4  1  0  0  0  0
 10  6  1  0  0  0  0
 11  8  1  0  0  0  0
 12 13  1  0  0  0  0
 14 15  1  0  0  0  0
 14 16  1  0  0  0  0
 17 14  1  0  0  0  0
 17 18  1  0  0  0  0
 18 19  1  0  0  0  0
 20 18  2  0  0  0  0
 20 21  1  0  0  0  0
 22 20  1  0  0  0  0
 23 24  1  0  0  0  0
 23 22  2  0  0  0  0
 24 17  2  0  0  0  0
M  END
>  <minimizedAffinity>
-4.29980278

$$$$

 OpenBabel03252507413D

 24 25  0  0  0  0  0  0  0  0999 V2000
   37.0400   27.1690   42.2460 C   0  0  0  0  0  0  0  0  0  0  0  0
   37.1100   27.3510   41.1490 H   0  0  0  0  0  0  0  0  0  0  0  0
   36.0720   26.6880   42.4070 H   0  0  0  0  0  0  0  0  0  0  0  0
   38.1680   26.2850   42.5800 C   0  0  0  0  0  0  0  0  0  0  0  0
   38.1820   25.0420   41.9220 C   0  0  0  0  0  0  0  0  0  0  0  0
   39.2120   24.1430   42.1780 C   0  0  0  0  0  0  0  0  0  0  0  0
   40.1880   24.5090   43.0740 N   0  0  0  0  0  0  0  0  0  0  0  0
   40.1290   25.7140   43.6790 C   0  0  0  0  0  0  0  0  0  0  0  0
   39.1550   26.5840   43.4470 N   0  0  0  0  0  0  0  0  0  0  0  0
   39.2550   23.1780   41.6910 H   0  0  0  0  0  0  0  0  0  0  0  0
   40.8600   26.0690   44.3930 H   0  0  0  0  0  0  0  0  0  0  0  0
   36.8860   24.6030   40.7570 S   0  0  0  0  0  0  0  0  0  0  0  0
   35.9970   23.7330   41.4070 H   0  0  0  0  0  0  0  0  0  0  0  0
   37.0630   28.4560   43.0270 C   0  0  0  0  0  0  0  0  0  0  0  0
   37.7910   28.3770   43.8670 H   0  0  0  0  0  0  0  0  0  0  0  0
   36.0720   28.5870   43.4910 H   0  0  0  0  0  0  0  0  0  0  0  0
   37.3620   29.6230   42.1920 C   0  0  0  0  0  0  0  0  0  0  0  0
   38.6830   30.0760   42.2140 C   0  0  0  0  0  0  0  0  0  0  0  0
   39.4300   29.6030   42.8010 H   0  0  0  0  0  0  0  0  0  0  0  0
   39.0970   31.1680   41.4690 C   0  0  0  0  0  0  0  0  0  0  0  0
   40.1190   31.5000   41.5010 H   0  0  0  0  0  0  0  0  0  0  0  0
   38.2010   31.8450   40.6770 C   0  0  0  0  0  3  0  0  0  0  0  0
   36.8850   31.3700   40.6750 C   0  0  0  0  0  3  0  0  0  0  0  0
   36.5050   30.3060   41.4060 N   0  0  0  0  0  0  0  0  0  0  0  0
  1  3  1  0  0  0  0
  1  4  1  0  0  0  0
  1 14  1  0  0  0  0
  2  1  1  0  0  0  0
  4  9  1  0  0  0  0
  5  6  1  0  0  0  0
  5  4  2  0  0  0  0
  6  7  2  0  0  0  0
  7  8  1  0  0  0  0
  8 11  1  0  0  0  0
  9  8  2  0  0  0  0
 10  6  1  0  0  0  0
 12 13  1  0  0  0  0
 12  5  1  0  0  0  0
 14 16  1  0  0  0  0
 14 15  1  0  0  0  0
 17 18  1  0  0  0  0
 17 14  1  0  0  0  0
 18 19  1  0  0  0  0
 20 21  1  0  0  0  0
 20 18  2  0  0  0  0
 22 20  1  0  0  0  0
 23 22  2  0  0  0  0
 23 24  1  0  0  0  0
 24 17  2  0  0  0  0
M  END
>  <minimizedAffinity>
-4.2332263

$$$$

 OpenBabel03252507413D

 24 25  0  0  0  0  0  0  0  0999 V2000
   36.1490   27.8680   40.2510 C   0  0  0  0  0  0  0  0  0  0  0  0
   36.7990   27.7900   39.3490 H   0  0  0  0  0  0  0  0  0  0  0  0
   35.4460   27.0330   40.1840 H   0  0  0  0  0  0  0  0  0  0  0  0
   37.0500   27.7530   41.4080 C   0  0  0  0  0  0  0  0  0  0  0  0
   38.4070   27.5400   41.1030 C   0  0  0  0  0  0  0  0  0  0  0  0
   39.3300   27.4190   42.1360 C   0  0  0  0  0  0  0  0  0  0  0  0
   38.8750   27.5130   43.4300 N   0  0  0  0  0  0  0  0  0  0  0  0
   37.5630   27.7170   43.6700 C   0  0  0  0  0  0  0  0  0  0  0  0
   36.6680   27.8350   42.6980 N   0  0  0  0  0  0  0  0  0  0  0  0
   40.3800   27.2550   41.9390 H   0  0  0  0  0  0  0  0  0  0  0  0
   37.1340   27.8010   44.6600 H   0  0  0  0  0  0  0  0  0  0  0  0
   38.9590   27.4250   39.3970 S   0  0  0  0  0  0  0  0  0  0  0  0
   39.1520   26.0660   39.0970 H   0  0  0  0  0  0  0  0  0  0  0  0
   35.3580   29.1490   40.2590 C   0  0  0  0  0  0  0  0  0  0  0  0
   34.8720   29.2890   41.2520 H   0  0  0  0  0  0  0  0  0  0  0  0
   34.5400   29.0460   39.5280 H   0  0  0  0  0  0  0  0  0  0  0  0
   36.1690   30.3200   39.9120 C   0  0  0  0  0  0  0  0  0  0  0  0
   36.5640   30.4240   38.5760 C   0  0  0  0  0  0  0  0  0  0  0  0
   36.2940   29.6960   37.8520 H   0  0  0  0  0  0  0  0  0  0  0  0
   37.3320   31.4820   38.1180 C   0  0  0  0  0  0  0  0  0  0  0  0
   37.6250   31.5410   37.0850 H   0  0  0  0  0  0  0  0  0  0  0  0
   37.7310   32.4730   38.9820 C   0  0  0  0  0  3  0  0  0  0  0  0
   37.3210   32.3430   40.3130 C   0  0  0  0  0  3  0  0  0  0  0  0
   36.5740   31.3070   40.7370 N   0  0  0  0  0  0  0  0  0  0  0  0
  1 14  1  0  0  0  0
  1  4  1  0  0  0  0
  2  1  1  0  0  0  0
  3  1  1  0  0  0  0
  4  9  1  0  0  0  0
  5  4  2  0  0  0  0
  5  6  1  0  0  0  0
  6  7  2  0  0  0  0
  7  8  1  0  0  0  0
  8 11  1  0  0  0  0
  9  8  2  0  0  0  0
 10  6  1  0  0  0  0
 12  5  1  0  0  0  0
 13 12  1  0  0  0  0
 14 15  1  0  0  0  0
 16 14  1  0  0  0  0
 17 14  1  0  0  0  0
 17 24  1  0  0  0  0
 18 17  2  0  0  0  0
 19 18  1  0  0  0  0
 20 18  1  0  0  0  0
 20 22  2  0  0  0  0
 21 20  1  0  0  0  0
 22 23  1  0  0  0  0
 23 24  2  0  0  0  0
M  END
>  <minimizedAffinity>
-4.22780275

$$$$

 OpenBabel03252507413D

 24 25  0  0  0  0  0  0  0  0999 V2000
   39.7400   30.4000   40.9050 C   0  0  0  0  0  0  0  0  0  0  0  0
   39.3090   29.6570   40.1950 H   0  0  0  0  0  0  0  0  0  0  0  0
   40.8150   30.4100   40.7100 H   0  0  0  0  0  0  0  0  0  0  0  0
   39.0980   31.6840   40.5810 C   0  0  0  0  0  0  0  0  0  0  0  0
   37.9880   31.6080   39.7200 C   0  0  0  0  0  0  0  0  0  0  0  0
   37.3200   32.7740   39.3600 C   0  0  0  0  0  0  0  0  0  0  0  0
   37.7760   33.9680   39.8660 N   0  0  0  0  0  0  0  0  0  0  0  0
   38.8460   33.9870   40.6890 C   0  0  0  0  0  0  0  0  0  0  0  0
   39.4950   32.8860   41.0420 N   0  0  0  0  0  0  0  0  0  0  0  0
   36.4640   32.7540   38.7010 H   0  0  0  0  0  0  0  0  0  0  0  0
   39.2600   34.8870   41.1240 H   0  0  0  0  0  0  0  0  0  0  0  0
   37.4240   30.0260   39.0820 S   0  0  0  0  0  0  0  0  0  0  0  0
   37.8800   29.9070   37.7590 H   0  0  0  0  0  0  0  0  0  0  0  0
   39.5240   29.9920   42.3380 C   0  0  0  0  0  0  0  0  0  0  0  0
   39.0910   30.8410   42.9140 H   0  0  0  0  0  0  0  0  0  0  0  0
   40.5120   29.7910   42.7840 H   0  0  0  0  0  0  0  0  0  0  0  0
   38.6850   28.7970   42.4690 C   0  0  0  0  0  0  0  0  0  0  0  0
   37.6940   28.8420   43.4520 C   0  0  0  0  0  0  0  0  0  0  0  0
   37.5560   29.6930   44.0720 H   0  0  0  0  0  0  0  0  0  0  0  0
   36.8340   27.7800   43.6780 C   0  0  0  0  0  0  0  0  0  0  0  0
   36.0790   27.8370   44.4410 H   0  0  0  0  0  0  0  0  0  0  0  0
   36.9370   26.6350   42.9260 C   0  0  0  0  0  3  0  0  0  0  0  0
   37.9380   26.6170   41.9480 C   0  0  0  0  0  3  0  0  0  0  0  0
   38.7630   27.6610   41.7460 N   0  0  0  0  0  0  0  0  0  0  0  0
  1 14  1  0  0  0  0
  2  1  1  0  0  0  0
  3  1  1  0  0  0  0
  4  1  1  0  0  0  0
  4  9  1  0  0  0  0
  5  4  2  0  0  0  0
  6  5  1  0  0  0  0
  6  7  2  0  0  0  0
  7  8  1  0  0  0  0
  8  9  2  0  0  0  0
  8 11  1  0  0  0  0
 10  6  1  0  0  0  0
 12  5  1  0  0  0  0
 13 12  1  0  0  0  0
 14 17  1  0  0  0  0
 14 16  1  0  0  0  0
 14 15  1  0  0  0  0
 17 18  1  0  0  0  0
 18 20  2  0  0  0  0
 18 19  1  0  0  0  0
 20 21  1  0  0  0  0
 22 20  1  0  0  0  0
 23 22  2  0  0  0  0
 24 23  1  0  0  0  0
 24 17  2  0  0  0  0
M  END
>  <minimizedAffinity>
-4.218925

$$$$

 OpenBabel03252507413D

 24 25  0  0  0  0  0  0  0  0999 V2000
   38.5680   27.7920   43.3000 C   0  0  0  0  0  0  0  0  0  0  0  0
   38.8840   27.6460   44.3580 H   0  0  0  0  0  0  0  0  0  0  0  0
   39.4040   28.2930   42.8050 H   0  0  0  0  0  0  0  0  0  0  0  0
   38.3230   26.4440   42.7630 C   0  0  0  0  0  0  0  0  0  0  0  0
   39.3870   25.5340   42.8960 C   0  0  0  0  0  0  0  0  0  0  0  0
   39.2430   24.2370   42.4160 C   0  0  0  0  0  0  0  0  0  0  0  0
   38.0520   23.8910   41.8230 N   0  0  0  0  0  0  0  0  0  0  0  0
   37.0610   24.8010   41.7200 C   0  0  0  0  0  0  0  0  0  0  0  0
   37.1800   26.0420   42.1720 N   0  0  0  0  0  0  0  0  0  0  0  0
   40.0400   23.5110   42.5000 H   0  0  0  0  0  0  0  0  0  0  0  0
   36.0990   24.6000   41.2680 H   0  0  0  0  0  0  0  0  0  0  0  0
   40.9280   26.0280   43.6780 S   0  0  0  0  0  0  0  0  0  0  0  0
   41.8680   26.2740   42.6640 H   0  0  0  0  0  0  0  0  0  0  0  0
   37.3580   28.6830   43.1980 C   0  0  0  0  0  0  0  0  0  0  0  0
   37.1620   29.1690   44.1800 H   0  0  0  0  0  0  0  0  0  0  0  0
   36.4850   28.0450   42.9910 H   0  0  0  0  0  0  0  0  0  0  0  0
   37.4810   29.6890   42.1390 C   0  0  0  0  0  0  0  0  0  0  0  0
   36.3500   29.8920   41.3450 C   0  0  0  0  0  0  0  0  0  0  0  0
   35.4510   29.3490   41.4980 H   0  0  0  0  0  0  0  0  0  0  0  0
   36.3340   30.8140   40.3120 C   0  0  0  0  0  0  0  0  0  0  0  0
   35.4520   30.9530   39.7130 H   0  0  0  0  0  0  0  0  0  0  0  0
   37.4510   31.5660   40.0370 C   0  0  0  0  0  3  0  0  0  0  0  0
   38.5690   31.3420   40.8470 C   0  0  0  0  0  3  0  0  0  0  0  0
   38.5620   30.4410   41.8470 N   0  0  0  0  0  0  0  0  0  0  0  0
  1  2  1  0  0  0  0
  3  1  1  0  0  0  0
  4  5  1  0  0  0  0
  4  1  1  0  0  0  0
  5 12  1  0  0  0  0
  6 10  1  0  0  0  0
  6  5  2  0  0  0  0
  7  6  1  0  0  0  0
  8  7  2  0  0  0  0
  8  9  1  0  0  0  0
  9  4  2  0  0  0  0
 11  8  1  0  0  0  0
 13 12  1  0  0  0  0
 14  1  1  0  0  0  0
 14 15  1  0  0  0  0
 16 14  1  0  0  0  0
 17 14  1  0  0  0  0
 18 19  1  0  0  0  0
 18 17  2  0  0  0  0
 20 18  1  0  0  0  0
 21 20  1  0  0  0  0
 22 20  2  0  0  0  0
 22 23  1  0  0  0  0
 23 24  2  0  0  0  0
 24 17  1  0  0  0  0
M  END
>  <minimizedAffinity>
-4.19945049

$$$$

 OpenBabel03252507413D

 24 25  0  0  0  0  0  0  0  0999 V2000
   38.8140   29.8520   42.6900 C   0  0  0  0  0  0  0  0  0  0  0  0
   37.7270   29.8830   42.4460 H   0  0  0  0  0  0  0  0  0  0  0  0
   38.9280   30.4260   43.6130 H   0  0  0  0  0  0  0  0  0  0  0  0
   39.1460   28.4300   42.8660 C   0  0  0  0  0  0  0  0  0  0  0  0
   38.1410   27.5200   42.4920 C   0  0  0  0  0  0  0  0  0  0  0  0
   38.3690   26.1550   42.6260 C   0  0  0  0  0  0  0  0  0  0  0  0
   39.5830   25.7430   43.1240 N   0  0  0  0  0  0  0  0  0  0  0  0
   40.5150   26.6570   43.4690 C   0  0  0  0  0  0  0  0  0  0  0  0
   40.3150   27.9620   43.3480 N   0  0  0  0  0  0  0  0  0  0  0  0
   37.6200   25.4260   42.3500 H   0  0  0  0  0  0  0  0  0  0  0  0
   41.4900   26.4070   43.8660 H   0  0  0  0  0  0  0  0  0  0  0  0
   36.5690   28.1000   41.8450 S   0  0  0  0  0  0  0  0  0  0  0  0
   35.6200   28.0190   42.8770 H   0  0  0  0  0  0  0  0  0  0  0  0
   39.6440   30.5110   41.6200 C   0  0  0  0  0  0  0  0  0  0  0  0
   39.9710   29.7530   40.8730 H   0  0  0  0  0  0  0  0  0  0  0  0
   40.5630   30.8930   42.0940 H   0  0  0  0  0  0  0  0  0  0  0  0
   38.9470   31.6190   40.9610 C   0  0  0  0  0  0  0  0  0  0  0  0
   37.8290   31.2780   40.1970 C   0  0  0  0  0  0  0  0  0  0  0  0
   37.5020   30.2740   40.0970 H   0  0  0  0  0  0  0  0  0  0  0  0
   37.0810   32.2310   39.5240 C   0  0  0  0  0  0  0  0  0  0  0  0
   36.2240   31.9450   38.9400 H   0  0  0  0  0  0  0  0  0  0  0  0
   37.4280   33.5580   39.5930 C   0  0  0  0  0  3  0  0  0  0  0  0
   38.5510   33.8710   40.3650 C   0  0  0  0  0  3  0  0  0  0  0  0
   39.2630   32.9290   41.0120 N   0  0  0  0  0  0  0  0  0  0  0  0
  1  4  1  0  0  0  0
  1  3  1  0  0  0  0
  2  1  1  0  0  0  0
  4  9  1  0  0  0  0
  5  6  1  0  0  0  0
  5  4  2  0  0  0  0
  6  7  2  0  0  0  0
  7  8  1  0  0  0  0
  8 11  1  0  0  0  0
  9  8  2  0  0  0  0
 10  6  1  0  0  0  0
 12  5  1  0  0  0  0
 12 13  1  0  0  0  0
 14 16  1  0  0  0  0
 14  1  1  0  0  0  0
 15 14  1  0  0  0  0
 17 24  1  0  0  0  0
 17 14  1  0  0  0  0
 18 17  2  0  0  0  0
 19 18  1  0  0  0  0
 20 22  2  0  0  0  0
 20 18  1  0  0  0  0
 21 20  1  0  0  0  0
 22 23  1  0  0  0  0
 23 24  2  0  0  0  0
M  END
>  <minimizedAffinity>
-4.0904417

$$$$
