
 OpenBabel03252506593D

 23 24  0  0  0  0  0  0  0  0999 V2000
   45.7740   32.4630   44.2770 C   0  0  0  0  0  0  0  0  0  0  0  0
   45.6970   32.0370   43.2440 H   0  0  0  0  0  0  0  0  0  0  0  0
   45.1060   31.9420   44.9710 H   0  0  0  0  0  0  0  0  0  0  0  0
   45.4550   33.8870   44.1570 C   0  0  0  0  0  0  0  0  0  0  0  0
   45.6750   34.5990   42.9860 C   0  0  0  0  0  0  0  0  0  0  0  0
   45.3310   35.9700   42.9530 C   0  0  0  0  0  0  0  0  0  0  0  0
   44.7990   36.5120   44.0850 N   0  0  0  0  0  0  0  0  0  0  0  0
   44.6040   35.7850   45.1950 C   0  0  0  0  0  0  0  0  0  0  0  0
   44.9240   34.4960   45.2370 N   0  0  0  0  0  0  0  0  0  0  0  0
   46.1020   34.1140   42.1120 H   0  0  0  0  0  0  0  0  0  0  0  0
   45.4880   36.5540   42.0580 H   0  0  0  0  0  0  0  0  0  0  0  0
   44.1760   36.2270   46.1040 H   0  0  0  0  0  0  0  0  0  0  0  0
   47.1590   32.3330   44.8410 C   0  0  0  0  0  0  0  0  0  0  0  0
   47.5960   33.3500   44.9240 H   0  0  0  0  0  0  0  0  0  0  0  0
   47.8450   31.7330   44.2010 H   0  0  0  0  0  0  0  0  0  0  0  0
   47.2010   31.7580   46.2020 C   0  0  0  0  0  0  0  0  0  0  0  0
   47.0440   32.5400   47.3230 C   0  0  0  0  0  0  0  0  0  0  0  0
   46.8860   33.6060   47.2120 H   0  0  0  0  0  0  0  0  0  0  0  0
   47.0900   31.9630   48.5910 C   0  0  0  0  0  0  0  0  0  0  0  0
   46.9660   32.5890   49.4550 H   0  0  0  0  0  0  0  0  0  0  0  0
   47.2990   30.5850   48.6330 C   0  0  0  0  0  3  0  0  0  0  0  0
   47.4510   29.8370   47.4800 C   0  0  0  0  0  3  0  0  0  0  0  0
   47.4020   30.4210   46.2680 N   0  0  0  0  0  0  0  0  0  0  0  0
  1 13  1  0  0  0  0
  1  3  1  0  0  0  0
  2  1  1  0  0  0  0
  4  1  1  0  0  0  0
  4  9  1  0  0  0  0
  5  4  2  0  0  0  0
  6  5  1  0  0  0  0
  6  7  2  0  0  0  0
  7  8  1  0  0  0  0
  8  9  2  0  0  0  0
  8 12  1  0  0  0  0
 10  5  1  0  0  0  0
 11  6  1  0  0  0  0
 13 14  1  0  0  0  0
 13 16  1  0  0  0  0
 15 13  1  0  0  0  0
 16 23  2  0  0  0  0
 16 17  1  0  0  0  0
 17 19  2  0  0  0  0
 18 17  1  0  0  0  0
 19 21  1  0  0  0  0
 19 20  1  0  0  0  0
 22 21  2  0  0  0  0
 23 22  1  0  0  0  0
M  END
>  <minimizedAffinity>
-3.84406543

>  <minimizedRMSD>
5.74027967

$$$$
