
 OpenBabel03252507313D

 48 51  0  0  1  0  0  0  0  0999 V2000
   46.9560   32.7540   45.5310 C   0  0  0  0  0  0  0  0  0  0  0  0
   45.8700   33.4260   46.0710 C   0  0  0  0  0  0  0  0  0  0  0  0
   45.1890   34.3930   45.2930 C   0  0  0  0  0  0  0  0  0  0  0  0
   45.6740   34.6070   44.0060 N   0  0  0  0  0  0  0  0  0  0  0  0
   46.7300   33.9250   43.5490 C   0  0  0  0  0  0  0  0  0  0  0  0
   47.3600   33.0150   44.2930 N   0  0  0  0  0  0  0  0  0  0  0  0
   45.3610   33.4510   47.0130 H   0  0  0  0  0  0  0  0  0  0  0  0
   44.3510   34.9950   45.5320 H   0  0  0  0  0  0  0  0  0  0  0  0
   47.6030   31.7590   46.3610 C   0  0  2  0  0  0  0  0  0  0  0  0
   47.3570   30.3180   45.8170 C   0  0  0  0  0  0  0  0  0  0  0  0
   48.1630   29.3450   46.6040 C   0  0  0  0  0  0  0  0  0  0  0  0
   48.1720   29.5410   48.0820 C   0  0  0  0  0  0  0  0  0  0  0  0
   48.1670   30.9160   48.5100 C   0  0  0  0  0  0  0  0  0  0  0  0
   47.1660   31.8070   47.7420 C   0  0  2  0  0  0  0  0  0  0  0  0
   48.7020   31.8640   46.2510 H   0  0  0  0  0  0  0  0  0  0  0  0
   47.7190   30.3730   44.7700 H   0  0  0  0  0  0  0  0  0  0  0  0
   46.2800   30.1020   45.7630 H   0  0  0  0  0  0  0  0  0  0  0  0
   47.6910   28.3330   46.4330 H   0  0  0  0  0  0  0  0  0  0  0  0
   49.1420   29.2620   46.1000 H   0  0  0  0  0  0  0  0  0  0  0  0
   47.8110   28.7220   48.7120 H   0  0  0  0  0  0  0  0  0  0  0  0
   49.2880   29.2880   48.2900 H   0  0  0  0  0  0  0  0  0  0  0  0
   49.1120   31.5020   48.4900 H   0  0  0  0  0  0  0  0  0  0  0  0
   47.8240   30.9840   49.5810 H   0  0  0  0  0  0  0  0  0  0  0  0
   47.2590   32.7460   48.2890 H   0  0  0  0  0  0  0  0  0  0  0  0
   45.8300   31.2190   47.8630 N   0  0  0  0  0  0  0  0  0  0  0  0
   45.1510   30.6730   48.9640 C   0  0  0  0  0  0  0  0  0  0  0  0
   44.6050   31.3920   49.8770 O   0  0  0  0  0  0  0  0  0  0  0  0
   45.1030   29.2460   48.9920 N   0  0  0  0  0  0  0  0  0  0  0  0
   45.1860   31.0770   46.9970 H   0  0  0  0  0  0  0  0  0  0  0  0
   44.7760   28.5870   48.2440 H   0  0  0  0  0  0  0  0  0  0  0  0
   45.3970   28.6410   49.7910 H   0  0  0  0  0  0  0  0  0  0  0  0
   47.2060   34.2110   42.1890 C   0  0  0  0  0  0  0  0  0  0  0  0
   48.2520   35.0830   41.9750 C   0  0  0  0  0  0  0  0  0  0  0  0
   48.7580   35.4070   40.7390 C   0  0  0  0  0  0  0  0  0  0  0  0
   48.1230   34.7750   39.6790 C   0  0  0  0  0  0  0  0  0  0  0  0
   47.0790   33.9020   39.8700 C   0  0  0  0  0  0  0  0  0  0  0  0
   46.6210   33.6220   41.1360 N   0  0  0  0  0  0  0  0  0  0  0  0
   48.6910   35.5330   42.8550 H   0  0  0  0  0  0  0  0  0  0  0  0
   49.5740   36.0860   40.5670 H   0  0  0  0  0  0  0  0  0  0  0  0
   48.4660   34.9810   38.6850 H   0  0  0  0  0  0  0  0  0  0  0  0
   46.3780   33.2120   38.7910 C   0  0  0  0  0  0  0  0  0  0  0  0
   46.7600   33.3240   37.4700 C   0  0  0  0  0  0  0  0  0  0  0  0
   47.5930   33.9260   37.1850 H   0  0  0  0  0  0  0  0  0  0  0  0
   46.1370   32.6970   36.4120 C   0  0  0  0  0  0  0  0  0  0  0  0
   46.4630   32.8060   35.3870 H   0  0  0  0  0  0  0  0  0  0  0  0
   45.0460   31.8910   36.6660 C   0  0  0  0  0  0  0  0  0  0  0  0
   44.6710   31.7850   37.9890 C   0  0  0  0  0  0  0  0  0  0  0  0
   45.3110   32.4170   38.9890 N   0  0  0  0  0  0  0  0  0  0  0  0
  1  2  1  0  0  0  0
  1  9  1  0  0  0  0
  2  7  1  0  0  0  0
  3  8  1  0  0  0  0
  3  2  2  0  0  0  0
  4  3  1  0  0  0  0
  5  4  2  0  0  0  0
  5  6  1  0  0  0  0
  6  1  2  0  0  0  0
  9 15  1  6  0  0  0
  9 14  1  0  0  0  0
 10  9  1  0  0  0  0
 10 11  1  0  0  0  0
 11 12  1  0  0  0  0
 12 21  1  0  0  0  0
 12 13  1  0  0  0  0
 12 20  1  0  0  0  0
 13 23  1  0  0  0  0
 14 25  1  0  0  0  0
 14 24  1  1  0  0  0
 14 13  1  0  0  0  0
 16 10  1  0  0  0  0
 17 10  1  0  0  0  0
 18 11  1  0  0  0  0
 19 11  1  0  0  0  0
 22 13  1  0  0  0  0
 25 26  1  0  0  0  0
 26 28  1  0  0  0  0
 26 27  2  0  0  0  0
 28 31  1  0  0  0  0
 29 25  1  0  0  0  0
 30 28  1  0  0  0  0
 32  5  1  0  0  0  0
 33 32  1  0  0  0  0
 33 38  1  0  0  0  0
 34 33  2  0  0  0  0
 35 36  2  0  0  0  0
 35 34  1  0  0  0  0
 36 37  1  0  0  0  0
 37 32  2  0  0  0  0
 39 34  1  0  0  0  0
 40 35  1  0  0  0  0
 41 48  1  0  0  0  0
 41 36  1  0  0  0  0
 42 41  2  0  0  0  0
 43 42  1  0  0  0  0
 44 46  2  0  0  0  0
 44 42  1  0  0  0  0
 45 44  1  0  0  0  0
 46 47  1  0  0  0  0
 47 48  2  0  0  0  0
M  END
>  <minimizedAffinity>
-6.4285264

>  <minimizedRMSD>
0.295123219

$$$$
