
 OpenBabel03252509233D

 26 28  0  0  1  0  0  0  0  0999 V2000
   46.5170   35.0290   41.9470 C   0  0  1  0  0  0  0  0  0  0  0  0
   48.0450   35.3090   41.9270 C   0  0  0  0  0  0  0  0  0  0  0  0
   47.3540   34.0420   41.3700 C   0  0  2  0  0  0  0  0  0  0  0  0
   45.9460   35.7640   41.3540 H   0  0  0  0  0  0  0  0  0  0  0  0
   48.6180   35.2320   42.8410 H   0  0  0  0  0  0  0  0  0  0  0  0
   48.4130   35.9970   41.1450 H   0  0  0  0  0  0  0  0  0  0  0  0
   47.6630   33.1310   41.9210 H   0  0  0  0  0  0  0  0  0  0  0  0
   44.6550   35.4230   45.1770 C   0  0  0  0  0  0  0  0  0  0  0  0
   45.1170   35.7230   43.8570 C   0  0  0  0  0  0  0  0  0  0  0  0
   46.0420   34.8450   43.3670 C   0  0  0  0  0  0  0  0  0  0  0  0
   46.4950   33.7500   44.1060 N   0  0  0  0  0  0  0  0  0  0  0  0
   46.0210   33.5320   45.3330 C   0  0  0  0  0  0  0  0  0  0  0  0
   45.0970   34.3660   45.8770 N   0  0  0  0  0  0  0  0  0  0  0  0
   43.9200   36.0800   45.6210 H   0  0  0  0  0  0  0  0  0  0  0  0
   46.4770   32.6470   45.7550 H   0  0  0  0  0  0  0  0  0  0  0  0
   44.6730   36.8590   43.1410 N   0  0  0  0  0  0  0  0  0  0  0  0
   44.6550   37.7650   43.6950 H   0  0  0  0  0  0  0  0  0  0  0  0
   44.3830   36.8480   42.1580 H   0  0  0  0  0  0  0  0  0  0  0  0
   47.3390   33.9040   39.8780 C   0  0  0  0  0  0  0  0  0  0  0  0
   48.3430   34.5500   39.1870 C   0  0  0  0  0  0  0  0  0  0  0  0
   49.0940   35.1220   39.6800 H   0  0  0  0  0  0  0  0  0  0  0  0
   48.2940   34.3970   37.8090 C   0  0  0  0  0  0  0  0  0  0  0  0
   49.0930   34.9110   37.2570 H   0  0  0  0  0  0  0  0  0  0  0  0
   47.3080   33.6490   37.1900 C   0  0  0  0  0  3  0  0  0  0  0  0
   46.3180   33.0170   37.9410 C   0  0  0  0  0  3  0  0  0  0  0  0
   46.3770   33.1750   39.2850 N   0  0  0  0  0  0  0  0  0  0  0  0
  1  4  1  6  0  0  0
  1 10  1  0  0  0  0
  2  1  1  0  0  0  0
  2  5  1  0  0  0  0
  3  7  1  1  0  0  0
  3  2  1  0  0  0  0
  3  1  1  0  0  0  0
  6  2  1  0  0  0  0
  8 14  1  0  0  0  0
  8 13  1  0  0  0  0
  9  8  2  0  0  0  0
 10  9  1  0  0  0  0
 10 11  2  0  0  0  0
 11 12  1  0  0  0  0
 12 15  1  0  0  0  0
 12 13  2  0  0  0  0
 16 17  1  0  0  0  0
 16  9  1  0  0  0  0
 18 16  1  0  0  0  0
 19  3  1  0  0  0  0
 20 21  1  0  0  0  0
 20 19  2  0  0  0  0
 22 20  1  0  0  0  0
 23 22  1  0  0  0  0
 24 22  2  0  0  0  0
 24 25  1  0  0  0  0
 25 26  2  0  0  0  0
 26 19  1  0  0  0  0
M  END
>  <minimizedAffinity>
-5.39839602

>  <minimizedRMSD>
0.213842317

$$$$
