
 OpenBabel03242516043D

 35 38  0  0  0  0  0  0  0  0999 V2000
   45.2510   33.0110   41.1600 Cl  0  0  0  0  0  0  0  0  0  0  0  0
   46.6640   34.0280   41.0510 C   0  0  0  0  0  0  0  0  0  0  0  0
   47.0430   34.8620   42.0590 C   0  0  0  0  0  0  0  0  0  0  0  0
   48.1700   35.6080   41.8510 C   0  0  0  0  0  0  0  0  0  0  0  0
   48.8920   35.5410   40.7080 C   0  0  0  0  0  0  0  0  0  0  0  0
   48.5140   34.7060   39.6950 C   0  0  0  0  0  0  0  0  0  0  0  0
   47.3710   33.9340   39.8810 C   0  0  0  0  0  0  0  0  0  0  0  0
   48.5000   36.2810   42.6300 H   0  0  0  0  0  0  0  0  0  0  0  0
   49.7810   36.1620   40.6020 H   0  0  0  0  0  0  0  0  0  0  0  0
   49.1010   34.6740   38.8100 H   0  0  0  0  0  0  0  0  0  0  0  0
   44.4730   35.8530   44.6640 C   0  0  0  0  0  0  0  0  0  0  0  0
   45.2390   35.8550   43.4830 C   0  0  0  0  0  0  0  0  0  0  0  0
   46.2350   34.8940   43.2580 C   0  0  0  0  0  0  0  0  0  0  0  0
   46.3880   33.9810   44.2590 N   0  0  0  0  0  0  0  0  0  0  0  0
   45.6520   33.9990   45.3680 C   0  0  0  0  0  0  0  0  0  0  0  0
   44.7130   34.9090   45.5790 N   0  0  0  0  0  0  0  0  0  0  0  0
   43.7080   36.6010   44.8240 H   0  0  0  0  0  0  0  0  0  0  0  0
   45.0770   36.6040   42.7170 H   0  0  0  0  0  0  0  0  0  0  0  0
   45.9210   33.1970   46.0450 H   0  0  0  0  0  0  0  0  0  0  0  0
   46.9530   33.0230   38.7840 C   0  0  0  0  0  0  0  0  0  0  0  0
   47.2850   31.6660   38.7550 C   0  0  0  0  0  0  0  0  0  0  0  0
   46.5210   31.0760   37.2160 S   0  0  0  0  0  0  0  0  0  0  0  0
   45.8440   32.8250   36.8380 C   0  0  0  0  0  0  0  0  0  0  0  0
   46.2420   33.3560   37.7370 N   0  0  0  0  0  0  0  0  0  0  0  0
   45.0710   33.1830   35.6940 N   0  0  0  0  0  0  0  0  0  0  0  0
   45.4690   33.9900   35.1580 H   0  0  0  0  0  0  0  0  0  0  0  0
   44.2330   32.5710   35.5910 H   0  0  0  0  0  0  0  0  0  0  0  0
   48.0490   30.8600   39.6870 C   0  0  0  0  0  0  0  0  0  0  0  0
   49.4310   30.8800   39.4570 C   0  0  0  0  0  0  0  0  0  0  0  0
   49.8840   31.4530   38.6430 H   0  0  0  0  0  0  0  0  0  0  0  0
   50.2270   30.1220   40.3220 C   0  0  0  0  0  0  0  0  0  0  0  0
   51.3020   30.1290   40.1540 H   0  0  0  0  0  0  0  0  0  0  0  0
   49.7290   29.3760   41.3670 C   0  0  0  0  0  0  0  0  0  0  0  0
   48.3460   29.4120   41.5260 C   0  0  0  0  0  0  0  0  0  0  0  0
   47.5680   30.1230   40.7180 N   0  0  0  0  0  0  0  0  0  0  0  0
  2  1  1  0  0  0  0
  2  3  1  0  0  0  0
  3 13  1  0  0  0  0
  4  3  2  0  0  0  0
  4  8  1  0  0  0  0
  5  4  1  0  0  0  0
  6  7  1  0  0  0  0
  6  5  2  0  0  0  0
  7  2  2  0  0  0  0
  9  5  1  0  0  0  0
 10  6  1  0  0  0  0
 11 17  1  0  0  0  0
 11 16  1  0  0  0  0
 12 11  2  0  0  0  0
 13 12  1  0  0  0  0
 13 14  2  0  0  0  0
 14 15  1  0  0  0  0
 15 16  2  0  0  0  0
 15 19  1  0  0  0  0
 18 12  1  0  0  0  0
 20  7  1  0  0  0  0
 21 20  2  0  0  0  0
 21 28  1  0  0  0  0
 22 21  1  0  0  0  0
 23 22  1  0  0  0  0
 23 24  2  0  0  0  0
 24 20  1  0  0  0  0
 25 23  1  0  0  0  0
 26 25  1  0  0  0  0
 27 25  1  0  0  0  0
 28 35  1  0  0  0  0
 29 28  2  0  0  0  0
 29 31  1  0  0  0  0
 30 29  1  0  0  0  0
 31 33  2  0  0  0  0
 32 31  1  0  0  0  0
 33 34  1  0  0  0  0
 35 34  2  0  0  0  0
M  END
>  <minimizedAffinity>
-6.01181841

>  <minimizedRMSD>
0.654744208

$$$$
