
 OpenBabel03252509223D

 26 28  0  0  1  0  0  0  0  0999 V2000
   47.1890   34.0880   41.6940 C   0  0  1  0  0  0  0  0  0  0  0  0
   48.3090   35.1600   41.6040 C   0  0  0  0  0  0  0  0  0  0  0  0
   48.2500   34.0010   42.6290 C   0  0  2  0  0  0  0  0  0  0  0  0
   47.1280   33.4650   40.7840 H   0  0  0  0  0  0  0  0  0  0  0  0
   48.1180   36.1680   41.9450 H   0  0  0  0  0  0  0  0  0  0  0  0
   49.0690   35.0180   40.8150 H   0  0  0  0  0  0  0  0  0  0  0  0
   48.1570   34.3780   43.6680 H   0  0  0  0  0  0  0  0  0  0  0  0
   43.6300   35.2660   41.7510 C   0  0  0  0  0  0  0  0  0  0  0  0
   44.8470   34.7190   41.2360 C   0  0  0  0  0  0  0  0  0  0  0  0
   45.8910   34.7290   42.1180 C   0  0  0  0  0  0  0  0  0  0  0  0
   45.7680   35.2370   43.4130 N   0  0  0  0  0  0  0  0  0  0  0  0
   44.6010   35.7330   43.8260 C   0  0  0  0  0  0  0  0  0  0  0  0
   43.5240   35.7500   42.9990 N   0  0  0  0  0  0  0  0  0  0  0  0
   42.7660   35.2850   41.1020 H   0  0  0  0  0  0  0  0  0  0  0  0
   44.6860   36.0790   44.8470 H   0  0  0  0  0  0  0  0  0  0  0  0
   44.9610   34.2450   39.9090 N   0  0  0  0  0  0  0  0  0  0  0  0
   44.5460   34.8780   39.1640 H   0  0  0  0  0  0  0  0  0  0  0  0
   45.4050   33.3590   39.6450 H   0  0  0  0  0  0  0  0  0  0  0  0
   49.2550   32.9060   42.4410 C   0  0  0  0  0  0  0  0  0  0  0  0
   48.8920   31.6500   42.8800 C   0  0  0  0  0  0  0  0  0  0  0  0
   47.9460   31.4580   43.3300 H   0  0  0  0  0  0  0  0  0  0  0  0
   49.8500   30.6650   42.6870 C   0  0  0  0  0  0  0  0  0  0  0  0
   49.5620   29.6640   43.0360 H   0  0  0  0  0  0  0  0  0  0  0  0
   51.0720   30.9390   42.0990 C   0  0  0  0  0  3  0  0  0  0  0  0
   51.3850   32.2290   41.6740 C   0  0  0  0  0  3  0  0  0  0  0  0
   50.4410   33.1810   41.8670 N   0  0  0  0  0  0  0  0  0  0  0  0
  1  4  1  6  0  0  0
  1 10  1  0  0  0  0
  1  3  1  0  0  0  0
  2  1  1  0  0  0  0
  2  5  1  0  0  0  0
  2  3  1  0  0  0  0
  3  7  1  1  0  0  0
  6  2  1  0  0  0  0
  8 13  1  0  0  0  0
  9  8  2  0  0  0  0
  9 10  1  0  0  0  0
 10 11  2  0  0  0  0
 11 12  1  0  0  0  0
 12 15  1  0  0  0  0
 13 12  2  0  0  0  0
 14  8  1  0  0  0  0
 16  9  1  0  0  0  0
 17 16  1  0  0  0  0
 18 16  1  0  0  0  0
 19  3  1  0  0  0  0
 19 20  1  0  0  0  0
 20 21  1  0  0  0  0
 22 20  2  0  0  0  0
 22 23  1  0  0  0  0
 24 22  1  0  0  0  0
 25 26  1  0  0  0  0
 25 24  2  0  0  0  0
 26 19  2  0  0  0  0
M  END
>  <minimizedAffinity>
-4.1692009

>  <minimizedRMSD>
3.77065778

$$$$
