
 OpenBabel03242518033D

 36 38  0  0  0  0  0  0  0  0999 V2000
   33.4500   29.0370   36.4010 C   0  0  0  0  0  0  0  0  0  0  0  0
   33.7270   29.9620   35.8130 H   0  0  0  0  0  0  0  0  0  0  0  0
   33.5500   28.2270   35.6800 H   0  0  0  0  0  0  0  0  0  0  0  0
   33.7550   29.1400   38.8680 C   0  0  0  0  0  0  0  0  0  0  0  0
   34.3150   29.0030   37.5710 C   0  0  0  0  0  0  0  0  0  0  0  0
   35.7000   28.8470   37.4820 C   0  0  0  0  0  0  0  0  0  0  0  0
   36.4270   28.8370   38.6350 N   0  0  0  0  0  0  0  0  0  0  0  0
   35.8630   28.9690   39.8370 C   0  0  0  0  0  0  0  0  0  0  0  0
   34.5400   29.1190   39.9580 N   0  0  0  0  0  0  0  0  0  0  0  0
   32.7070   29.2620   39.0130 H   0  0  0  0  0  0  0  0  0  0  0  0
   36.1550   28.7410   36.5170 H   0  0  0  0  0  0  0  0  0  0  0  0
   36.6750   28.9530   41.0580 C   0  0  0  0  0  0  0  0  0  0  0  0
   36.4520   27.9540   42.0020 C   0  0  0  0  0  0  0  0  0  0  0  0
   35.6990   27.1770   41.8790 H   0  0  0  0  0  0  0  0  0  0  0  0
   37.2390   27.9800   43.1310 C   0  0  0  0  0  0  0  0  0  0  0  0
   37.1200   27.2220   43.9210 H   0  0  0  0  0  0  0  0  0  0  0  0
   38.2130   28.9460   43.3370 C   0  0  0  0  0  3  0  0  0  0  0  0
   38.3940   29.9120   42.3740 C   0  0  0  0  0  3  0  0  0  0  0  0
   37.6270   29.8750   41.2890 N   0  0  0  0  0  0  0  0  0  0  0  0
   32.0290   29.2910   36.8800 C   0  0  0  0  0  0  0  0  0  0  0  0
   31.3790   28.3900   36.6650 H   0  0  0  0  0  0  0  0  0  0  0  0
   31.9650   29.3650   37.9960 H   0  0  0  0  0  0  0  0  0  0  0  0
   30.3130   31.0420   36.8090 C   0  0  0  0  0  0  0  0  0  0  0  0
   31.3600   30.3980   36.1740 C   0  0  0  0  0  0  0  0  0  0  0  0
   31.8090   30.7300   34.9260 C   0  0  0  0  0  0  0  0  0  0  0  0
   31.1810   31.7620   34.2690 C   0  0  0  0  0  0  0  0  0  0  0  0
   30.1450   32.4590   34.8040 C   0  0  0  0  0  0  0  0  0  0  0  0
   29.7420   32.0640   36.0780 C   0  0  0  0  0  0  0  0  0  0  0  0
   32.5990   30.2710   34.4000 H   0  0  0  0  0  0  0  0  0  0  0  0
   31.4920   32.0770   33.2700 H   0  0  0  0  0  0  0  0  0  0  0  0
   29.6510   33.2690   34.2910 H   0  0  0  0  0  0  0  0  0  0  0  0
   28.9080   32.6110   36.5300 H   0  0  0  0  0  0  0  0  0  0  0  0
   29.7120   30.6510   38.3910 S   0  0  0  0  0  0  0  0  0  0  0  0
   28.9250   29.3580   38.4160 O   0  0  0  0  0  0  0  0  0  0  0  0
   28.6990   31.7110   38.7990 O   0  0  0  0  0  0  0  0  0  0  0  0
   30.6650   30.7030   39.3750 H   0  0  0  0  0  0  0  0  0  0  0  0
  1 20  1  0  0  0  0
  1  5  1  0  0  0  0
  2  1  1  0  0  0  0
  3  1  1  0  0  0  0
  4 10  1  0  0  0  0
  4  9  1  0  0  0  0
  5  4  2  0  0  0  0
  6  5  1  0  0  0  0
  6  7  2  0  0  0  0
  7  8  1  0  0  0  0
  8  9  2  0  0  0  0
  8 12  1  0  0  0  0
 11  6  1  0  0  0  0
 12 19  2  0  0  0  0
 12 13  1  0  0  0  0
 13 15  2  0  0  0  0
 14 13  1  0  0  0  0
 15 17  1  0  0  0  0
 15 16  1  0  0  0  0
 18 17  2  0  0  0  0
 19 18  1  0  0  0  0
 20 22  1  0  0  0  0
 21 20  1  0  0  0  0
 23 33  1  0  0  0  0
 24 23  1  0  0  0  0
 24 20  1  0  0  0  0
 25 24  2  0  0  0  0
 26 27  2  0  0  0  0
 26 25  1  0  0  0  0
 27 28  1  0  0  0  0
 28 32  1  0  0  0  0
 28 23  2  0  0  0  0
 29 25  1  0  0  0  0
 30 26  1  0  0  0  0
 31 27  1  0  0  0  0
 33 34  2  0  0  0  0
 33 35  2  0  0  0  0
 33 36  1  0  0  0  0
M  END
>  <minimizedAffinity>
-5.77654457

$$$$

 OpenBabel03242518033D

 36 38  0  0  0  0  0  0  0  0999 V2000
   36.7640   27.9740   42.9830 C   0  0  0  0  0  0  0  0  0  0  0  0
   36.2530   28.3250   43.9290 H   0  0  0  0  0  0  0  0  0  0  0  0
   35.9640   27.5110   42.4080 H   0  0  0  0  0  0  0  0  0  0  0  0
   38.6840   29.5530   42.8980 C   0  0  0  0  0  0  0  0  0  0  0  0
   37.4230   29.1350   42.4020 C   0  0  0  0  0  0  0  0  0  0  0  0
   36.8610   29.8800   41.3620 C   0  0  0  0  0  0  0  0  0  0  0  0
   37.5500   30.9570   40.8910 N   0  0  0  0  0  0  0  0  0  0  0  0
   38.7360   31.3190   41.3850 C   0  0  0  0  0  0  0  0  0  0  0  0
   39.3020   30.6270   42.3790 N   0  0  0  0  0  0  0  0  0  0  0  0
   39.1730   29.0330   43.6890 H   0  0  0  0  0  0  0  0  0  0  0  0
   35.9080   29.5900   40.9650 H   0  0  0  0  0  0  0  0  0  0  0  0
   39.4510   32.4840   40.8520 C   0  0  0  0  0  0  0  0  0  0  0  0
   38.7400   33.6570   40.6100 C   0  0  0  0  0  0  0  0  0  0  0  0
   37.6720   33.7540   40.7970 H   0  0  0  0  0  0  0  0  0  0  0  0
   39.4540   34.7230   40.1110 C   0  0  0  0  0  0  0  0  0  0  0  0
   38.9590   35.6830   39.8950 H   0  0  0  0  0  0  0  0  0  0  0  0
   40.8150   34.6520   39.8560 C   0  0  0  0  0  3  0  0  0  0  0  0
   41.4710   33.4700   40.1120 C   0  0  0  0  0  3  0  0  0  0  0  0
   40.7690   32.4490   40.5930 N   0  0  0  0  0  0  0  0  0  0  0  0
   37.8450   27.0150   43.4570 C   0  0  0  0  0  0  0  0  0  0  0  0
   38.8590   27.5130   43.4020 H   0  0  0  0  0  0  0  0  0  0  0  0
   37.7570   26.7840   44.5510 H   0  0  0  0  0  0  0  0  0  0  0  0
   39.2570   25.3470   42.3440 C   0  0  0  0  0  0  0  0  0  0  0  0
   37.9830   25.8180   42.6090 C   0  0  0  0  0  0  0  0  0  0  0  0
   36.8440   25.2360   42.1260 C   0  0  0  0  0  0  0  0  0  0  0  0
   36.9770   24.1200   41.3340 C   0  0  0  0  0  0  0  0  0  0  0  0
   38.1810   23.5780   41.0140 C   0  0  0  0  0  0  0  0  0  0  0  0
   39.2960   24.2250   41.5410 C   0  0  0  0  0  0  0  0  0  0  0  0
   35.8550   25.5560   42.2980 H   0  0  0  0  0  0  0  0  0  0  0  0
   36.1060   23.6090   40.9170 H   0  0  0  0  0  0  0  0  0  0  0  0
   38.2870   22.7030   40.3920 H   0  0  0  0  0  0  0  0  0  0  0  0
   40.2780   23.8060   41.2960 H   0  0  0  0  0  0  0  0  0  0  0  0
   40.7280   26.0570   42.9350 S   0  0  0  0  0  0  0  0  0  0  0  0
   41.2210   27.1930   42.0650 O   0  0  0  0  0  0  0  0  0  0  0  0
   41.8350   25.0160   42.8500 O   0  0  0  0  0  0  0  0  0  0  0  0
   40.6870   26.3930   44.2630 H   0  0  0  0  0  0  0  0  0  0  0  0
  1 20  1  0  0  0  0
  1  2  1  0  0  0  0
  3  1  1  0  0  0  0
  4 10  1  0  0  0  0
  5  4  1  0  0  0  0
  5  1  1  0  0  0  0
  6  5  2  0  0  0  0
  7  6  1  0  0  0  0
  7  8  2  0  0  0  0
  8  9  1  0  0  0  0
  9  4  2  0  0  0  0
 11  6  1  0  0  0  0
 12  8  1  0  0  0  0
 13 14  1  0  0  0  0
 13 12  1  0  0  0  0
 15 13  2  0  0  0  0
 16 15  1  0  0  0  0
 17 15  1  0  0  0  0
 17 18  2  0  0  0  0
 18 19  1  0  0  0  0
 19 12  2  0  0  0  0
 20 22  1  0  0  0  0
 21 20  1  0  0  0  0
 23 24  1  0  0  0  0
 23 33  1  0  0  0  0
 24 20  1  0  0  0  0
 25 29  1  0  0  0  0
 25 24  2  0  0  0  0
 26 25  1  0  0  0  0
 27 26  2  0  0  0  0
 27 28  1  0  0  0  0
 28 23  2  0  0  0  0
 30 26  1  0  0  0  0
 31 27  1  0  0  0  0
 32 28  1  0  0  0  0
 33 36  1  0  0  0  0
 34 33  2  0  0  0  0
 35 33  2  0  0  0  0
M  END
>  <minimizedAffinity>
-5.66842461

$$$$

 OpenBabel03242518033D

 36 38  0  0  0  0  0  0  0  0999 V2000
   38.2530   27.2140   43.2710 C   0  0  0  0  0  0  0  0  0  0  0  0
   39.0420   26.4920   42.9040 H   0  0  0  0  0  0  0  0  0  0  0  0
   38.2990   27.1250   44.3550 H   0  0  0  0  0  0  0  0  0  0  0  0
   39.9020   28.8280   42.3430 C   0  0  0  0  0  0  0  0  0  0  0  0
   38.5640   28.5120   42.6910 C   0  0  0  0  0  0  0  0  0  0  0  0
   37.5920   29.4890   42.4610 C   0  0  0  0  0  0  0  0  0  0  0  0
   37.9840   30.6780   41.9210 N   0  0  0  0  0  0  0  0  0  0  0  0
   39.2540   30.9370   41.6080 C   0  0  0  0  0  0  0  0  0  0  0  0
   40.2090   30.0240   41.8140 N   0  0  0  0  0  0  0  0  0  0  0  0
   40.6960   28.1320   42.4900 H   0  0  0  0  0  0  0  0  0  0  0  0
   36.5710   29.2820   42.7140 H   0  0  0  0  0  0  0  0  0  0  0  0
   39.6400   32.2280   41.0280 C   0  0  0  0  0  0  0  0  0  0  0  0
   38.6430   33.1450   40.7050 C   0  0  0  0  0  0  0  0  0  0  0  0
   37.5840   32.9520   40.8620 H   0  0  0  0  0  0  0  0  0  0  0  0
   39.0530   34.3420   40.1630 C   0  0  0  0  0  0  0  0  0  0  0  0
   38.3220   35.1170   39.8830 H   0  0  0  0  0  0  0  0  0  0  0  0
   40.3910   34.6390   39.9430 C   0  0  0  0  0  3  0  0  0  0  0  0
   41.3360   33.6990   40.2790 C   0  0  0  0  0  3  0  0  0  0  0  0
   40.9260   32.5480   40.8000 N   0  0  0  0  0  0  0  0  0  0  0  0
   36.9560   26.7240   42.6470 C   0  0  0  0  0  0  0  0  0  0  0  0
   36.2910   26.2650   43.4400 H   0  0  0  0  0  0  0  0  0  0  0  0
   36.3220   27.5670   42.2690 H   0  0  0  0  0  0  0  0  0  0  0  0
   36.9150   25.9210   40.3300 C   0  0  0  0  0  0  0  0  0  0  0  0
   37.1480   25.6420   41.6660 C   0  0  0  0  0  0  0  0  0  0  0  0
   37.5460   24.4180   42.1260 C   0  0  0  0  0  0  0  0  0  0  0  0
   37.7230   23.4100   41.2070 C   0  0  0  0  0  0  0  0  0  0  0  0
   37.5220   23.5800   39.8740 C   0  0  0  0  0  0  0  0  0  0  0  0
   37.1170   24.8520   39.4790 C   0  0  0  0  0  0  0  0  0  0  0  0
   37.7340   24.1560   43.1290 H   0  0  0  0  0  0  0  0  0  0  0  0
   38.0400   22.4100   41.5100 H   0  0  0  0  0  0  0  0  0  0  0  0
   37.6600   22.7900   39.1520 H   0  0  0  0  0  0  0  0  0  0  0  0
   36.9480   25.0130   38.4090 H   0  0  0  0  0  0  0  0  0  0  0  0
   36.4090   27.4590   39.7040 S   0  0  0  0  0  0  0  0  0  0  0  0
   35.5150   27.3320   38.4890 O   0  0  0  0  0  0  0  0  0  0  0  0
   37.6340   28.1990   39.1880 O   0  0  0  0  0  0  0  0  0  0  0  0
   35.8870   28.3000   40.6530 H   0  0  0  0  0  0  0  0  0  0  0  0
  1  3  1  0  0  0  0
  2  1  1  0  0  0  0
  4 10  1  0  0  0  0
  4  5  1  0  0  0  0
  5  1  1  0  0  0  0
  6  5  2  0  0  0  0
  6 11  1  0  0  0  0
  7  6  1  0  0  0  0
  8  9  1  0  0  0  0
  8  7  2  0  0  0  0
  9  4  2  0  0  0  0
 12  8  1  0  0  0  0
 13 14  1  0  0  0  0
 13 12  2  0  0  0  0
 15 13  1  0  0  0  0
 16 15  1  0  0  0  0
 17 15  2  0  0  0  0
 17 18  1  0  0  0  0
 18 19  2  0  0  0  0
 19 12  1  0  0  0  0
 20  1  1  0  0  0  0
 20 21  1  0  0  0  0
 22 20  1  0  0  0  0
 23 24  1  0  0  0  0
 24 25  2  0  0  0  0
 24 20  1  0  0  0  0
 25 29  1  0  0  0  0
 26 30  1  0  0  0  0
 26 25  1  0  0  0  0
 27 26  2  0  0  0  0
 28 27  1  0  0  0  0
 28 23  2  0  0  0  0
 31 27  1  0  0  0  0
 32 28  1  0  0  0  0
 33 23  1  0  0  0  0
 33 36  1  0  0  0  0
 34 33  2  0  0  0  0
 35 33  2  0  0  0  0
M  END
>  <minimizedAffinity>
-5.32418251

$$$$

 OpenBabel03242518033D

 36 38  0  0  0  0  0  0  0  0999 V2000
   35.8500   29.4070   40.0690 C   0  0  0  0  0  0  0  0  0  0  0  0
   35.5780   29.6920   41.1290 H   0  0  0  0  0  0  0  0  0  0  0  0
   34.9200   29.5310   39.5170 H   0  0  0  0  0  0  0  0  0  0  0  0
   37.3630   31.3340   40.5040 C   0  0  0  0  0  0  0  0  0  0  0  0
   36.9760   30.2440   39.6820 C   0  0  0  0  0  0  0  0  0  0  0  0
   37.7090   30.0310   38.5110 C   0  0  0  0  0  0  0  0  0  0  0  0
   38.7410   30.8750   38.2300 N   0  0  0  0  0  0  0  0  0  0  0  0
   39.0740   31.8890   39.0300 C   0  0  0  0  0  0  0  0  0  0  0  0
   38.3950   32.1210   40.1580 N   0  0  0  0  0  0  0  0  0  0  0  0
   36.8510   31.5560   41.4120 H   0  0  0  0  0  0  0  0  0  0  0  0
   37.4420   29.2160   37.8670 H   0  0  0  0  0  0  0  0  0  0  0  0
   40.1920   32.7780   38.6970 C   0  0  0  0  0  0  0  0  0  0  0  0
   40.9960   32.4670   37.6030 C   0  0  0  0  0  0  0  0  0  0  0  0
   40.8360   31.5900   36.9780 H   0  0  0  0  0  0  0  0  0  0  0  0
   42.0330   33.3300   37.3290 C   0  0  0  0  0  0  0  0  0  0  0  0
   42.7110   33.1490   36.4800 H   0  0  0  0  0  0  0  0  0  0  0  0
   42.2800   34.4610   38.0940 C   0  0  0  0  0  3  0  0  0  0  0  0
   41.4570   34.7240   39.1640 C   0  0  0  0  0  3  0  0  0  0  0  0
   40.4610   33.8810   39.4160 N   0  0  0  0  0  0  0  0  0  0  0  0
   36.3480   27.9730   40.1670 C   0  0  0  0  0  0  0  0  0  0  0  0
   35.4710   27.2620   40.2470 H   0  0  0  0  0  0  0  0  0  0  0  0
   36.8410   27.6300   39.2210 H   0  0  0  0  0  0  0  0  0  0  0  0
   38.4140   27.1850   41.2260 C   0  0  0  0  0  0  0  0  0  0  0  0
   37.1420   27.7080   41.3790 C   0  0  0  0  0  0  0  0  0  0  0  0
   36.5800   27.9920   42.5920 C   0  0  0  0  0  0  0  0  0  0  0  0
   37.3240   27.7420   43.7220 C   0  0  0  0  0  0  0  0  0  0  0  0
   38.5820   27.2300   43.6810 C   0  0  0  0  0  0  0  0  0  0  0  0
   39.0880   26.9650   42.4110 C   0  0  0  0  0  0  0  0  0  0  0  0
   35.6190   28.3900   42.7610 H   0  0  0  0  0  0  0  0  0  0  0  0
   36.9330   27.9480   44.7200 H   0  0  0  0  0  0  0  0  0  0  0  0
   39.1670   27.0330   44.5660 H   0  0  0  0  0  0  0  0  0  0  0  0
   40.1010   26.5510   42.3530 H   0  0  0  0  0  0  0  0  0  0  0  0
   39.1640   26.8080   39.7060 S   0  0  0  0  0  0  0  0  0  0  0  0
   38.7570   25.4520   39.1710 O   0  0  0  0  0  0  0  0  0  0  0  0
   40.6650   26.6870   39.9240 O   0  0  0  0  0  0  0  0  0  0  0  0
   39.0420   27.7990   38.7670 H   0  0  0  0  0  0  0  0  0  0  0  0
  1 20  1  0  0  0  0
  1  2  1  0  0  0  0
  3  1  1  0  0  0  0
  4 10  1  0  0  0  0
  5  1  1  0  0  0  0
  5  4  2  0  0  0  0
  6  5  1  0  0  0  0
  7  6  2  0  0  0  0
  7  8  1  0  0  0  0
  8  9  2  0  0  0  0
  9  4  1  0  0  0  0
 11  6  1  0  0  0  0
 12  8  1  0  0  0  0
 12 19  1  0  0  0  0
 13 12  2  0  0  0  0
 14 13  1  0  0  0  0
 15 13  1  0  0  0  0
 15 17  2  0  0  0  0
 16 15  1  0  0  0  0
 17 18  1  0  0  0  0
 18 19  2  0  0  0  0
 20 21  1  0  0  0  0
 20 24  1  0  0  0  0
 22 20  1  0  0  0  0
 23 24  2  0  0  0  0
 23 28  1  0  0  0  0
 24 25  1  0  0  0  0
 25 29  1  0  0  0  0
 25 26  2  0  0  0  0
 26 30  1  0  0  0  0
 27 26  1  0  0  0  0
 27 31  1  0  0  0  0
 28 27  2  0  0  0  0
 32 28  1  0  0  0  0
 33 35  2  0  0  0  0
 33 23  1  0  0  0  0
 34 33  2  0  0  0  0
 36 33  1  0  0  0  0
M  END
>  <minimizedAffinity>
-5.21654558

$$$$

 OpenBabel03242518033D

 36 38  0  0  0  0  0  0  0  0999 V2000
   35.8250   28.7190   41.0790 C   0  0  0  0  0  0  0  0  0  0  0  0
   35.7220   28.1430   40.1110 H   0  0  0  0  0  0  0  0  0  0  0  0
   34.9580   28.4110   41.6610 H   0  0  0  0  0  0  0  0  0  0  0  0
   37.9080   27.3600   41.0490 C   0  0  0  0  0  0  0  0  0  0  0  0
   37.1400   28.4080   41.6190 C   0  0  0  0  0  0  0  0  0  0  0  0
   37.6950   29.0970   42.7000 C   0  0  0  0  0  0  0  0  0  0  0  0
   38.9300   28.7260   43.1400 N   0  0  0  0  0  0  0  0  0  0  0  0
   39.6220   27.7340   42.5760 C   0  0  0  0  0  0  0  0  0  0  0  0
   39.1210   27.0540   41.5400 N   0  0  0  0  0  0  0  0  0  0  0  0
   37.5490   26.7920   40.2220 H   0  0  0  0  0  0  0  0  0  0  0  0
   37.1390   29.8940   43.1540 H   0  0  0  0  0  0  0  0  0  0  0  0
   40.9500   27.3610   43.0760 C   0  0  0  0  0  0  0  0  0  0  0  0
   41.8460   28.3690   43.4200 C   0  0  0  0  0  0  0  0  0  0  0  0
   41.6110   29.4290   43.3360 H   0  0  0  0  0  0  0  0  0  0  0  0
   43.0800   27.9710   43.8830 C   0  0  0  0  0  0  0  0  0  0  0  0
   43.8410   28.7120   44.1750 H   0  0  0  0  0  0  0  0  0  0  0  0
   43.4310   26.6350   44.0090 C   0  0  0  0  0  3  0  0  0  0  0  0
   42.5090   25.6770   43.6560 C   0  0  0  0  0  3  0  0  0  0  0  0
   41.3220   26.0760   43.2100 N   0  0  0  0  0  0  0  0  0  0  0  0
   35.8260   30.1820   40.6630 C   0  0  0  0  0  0  0  0  0  0  0  0
   34.7650   30.5730   40.6110 H   0  0  0  0  0  0  0  0  0  0  0  0
   36.2820   30.8440   41.4440 H   0  0  0  0  0  0  0  0  0  0  0  0
   37.2730   31.4330   39.1290 C   0  0  0  0  0  0  0  0  0  0  0  0
   36.3620   30.4080   39.3090 C   0  0  0  0  0  0  0  0  0  0  0  0
   35.9300   29.5920   38.3010 C   0  0  0  0  0  0  0  0  0  0  0  0
   36.4310   29.8070   37.0390 C   0  0  0  0  0  0  0  0  0  0  0  0
   37.3300   30.7860   36.7560 C   0  0  0  0  0  0  0  0  0  0  0  0
   37.7230   31.5770   37.8320 C   0  0  0  0  0  0  0  0  0  0  0  0
   35.2390   28.8010   38.3870 H   0  0  0  0  0  0  0  0  0  0  0  0
   36.1260   29.1900   36.1900 H   0  0  0  0  0  0  0  0  0  0  0  0
   37.7240   30.9560   35.7660 H   0  0  0  0  0  0  0  0  0  0  0  0
   38.4470   32.3740   37.6280 H   0  0  0  0  0  0  0  0  0  0  0  0
   37.8470   32.4920   40.3810 S   0  0  0  0  0  0  0  0  0  0  0  0
   38.2030   33.8700   39.8660 O   0  0  0  0  0  0  0  0  0  0  0  0
   39.1630   31.9430   40.9130 O   0  0  0  0  0  0  0  0  0  0  0  0
   37.0350   32.5380   41.4840 H   0  0  0  0  0  0  0  0  0  0  0  0
  1  5  1  0  0  0  0
  1  3  1  0  0  0  0
  2  1  1  0  0  0  0
  4  9  2  0  0  0  0
  4  5  1  0  0  0  0
  5  6  2  0  0  0  0
  6  7  1  0  0  0  0
  6 11  1  0  0  0  0
  8 12  1  0  0  0  0
  8  7  2  0  0  0  0
  9  8  1  0  0  0  0
 10  4  1  0  0  0  0
 12 19  2  0  0  0  0
 12 13  1  0  0  0  0
 13 15  2  0  0  0  0
 14 13  1  0  0  0  0
 15 17  1  0  0  0  0
 15 16  1  0  0  0  0
 18 17  2  0  0  0  0
 19 18  1  0  0  0  0
 20  1  1  0  0  0  0
 20 22  1  0  0  0  0
 21 20  1  0  0  0  0
 23 24  1  0  0  0  0
 23 33  1  0  0  0  0
 24 20  1  0  0  0  0
 25 29  1  0  0  0  0
 25 24  2  0  0  0  0
 26 25  1  0  0  0  0
 27 26  2  0  0  0  0
 27 28  1  0  0  0  0
 28 23  2  0  0  0  0
 30 26  1  0  0  0  0
 31 27  1  0  0  0  0
 32 28  1  0  0  0  0
 33 35  2  0  0  0  0
 33 36  1  0  0  0  0
 34 33  2  0  0  0  0
M  END
>  <minimizedAffinity>
-5.21451569

$$$$

 OpenBabel03242518033D

 36 38  0  0  0  0  0  0  0  0999 V2000
   35.8140   29.4190   38.8590 C   0  0  0  0  0  0  0  0  0  0  0  0
   35.3210   29.6180   39.8580 H   0  0  0  0  0  0  0  0  0  0  0  0
   35.0100   29.5560   38.1380 H   0  0  0  0  0  0  0  0  0  0  0  0
   38.0450   29.9820   37.9160 C   0  0  0  0  0  0  0  0  0  0  0  0
   36.9580   30.3130   38.7650 C   0  0  0  0  0  0  0  0  0  0  0  0
   37.0490   31.5030   39.4910 C   0  0  0  0  0  0  0  0  0  0  0  0
   38.1660   32.2700   39.3420 N   0  0  0  0  0  0  0  0  0  0  0  0
   39.1680   31.9230   38.5320 C   0  0  0  0  0  0  0  0  0  0  0  0
   39.1130   30.7920   37.8230 N   0  0  0  0  0  0  0  0  0  0  0  0
   38.0460   29.0910   37.3320 H   0  0  0  0  0  0  0  0  0  0  0  0
   36.2440   31.7820   40.1430 H   0  0  0  0  0  0  0  0  0  0  0  0
   40.3560   32.7730   38.3960 C   0  0  0  0  0  0  0  0  0  0  0  0
   41.2780   32.4840   37.3940 C   0  0  0  0  0  0  0  0  0  0  0  0
   41.1620   31.6530   36.7000 H   0  0  0  0  0  0  0  0  0  0  0  0
   42.3770   33.3090   37.3050 C   0  0  0  0  0  0  0  0  0  0  0  0
   43.1490   33.1420   36.5370 H   0  0  0  0  0  0  0  0  0  0  0  0
   42.5730   34.3810   38.1630 C   0  0  0  0  0  3  0  0  0  0  0  0
   41.6330   34.6240   39.1370 C   0  0  0  0  0  3  0  0  0  0  0  0
   40.5770   33.8190   39.2110 N   0  0  0  0  0  0  0  0  0  0  0  0
   36.3410   27.9960   38.9620 C   0  0  0  0  0  0  0  0  0  0  0  0
   35.5680   27.2660   38.5770 H   0  0  0  0  0  0  0  0  0  0  0  0
   37.2030   27.8120   38.2700 H   0  0  0  0  0  0  0  0  0  0  0  0
   37.2160   26.3430   40.5480 C   0  0  0  0  0  0  0  0  0  0  0  0
   36.5920   27.5620   40.3470 C   0  0  0  0  0  0  0  0  0  0  0  0
   36.1930   28.3850   41.3630 C   0  0  0  0  0  0  0  0  0  0  0  0
   36.4270   27.9750   42.6550 C   0  0  0  0  0  0  0  0  0  0  0  0
   37.0330   26.7970   42.9600 C   0  0  0  0  0  0  0  0  0  0  0  0
   37.4110   26.0110   41.8740 C   0  0  0  0  0  0  0  0  0  0  0  0
   35.7150   29.3190   41.2630 H   0  0  0  0  0  0  0  0  0  0  0  0
   36.1330   28.5870   43.5100 H   0  0  0  0  0  0  0  0  0  0  0  0
   37.2170   26.4750   43.9720 H   0  0  0  0  0  0  0  0  0  0  0  0
   37.9010   25.0570   42.0950 H   0  0  0  0  0  0  0  0  0  0  0  0
   37.7360   25.2670   39.2880 S   0  0  0  0  0  0  0  0  0  0  0  0
   36.6120   24.4100   38.7470 O   0  0  0  0  0  0  0  0  0  0  0  0
   38.7150   24.2650   39.8810 O   0  0  0  0  0  0  0  0  0  0  0  0
   38.4510   25.8830   38.2930 H   0  0  0  0  0  0  0  0  0  0  0  0
  1 20  1  0  0  0  0
  1  2  1  0  0  0  0
  3  1  1  0  0  0  0
  4  5  1  0  0  0  0
  5  1  1  0  0  0  0
  5  6  2  0  0  0  0
  6 11  1  0  0  0  0
  7  6  1  0  0  0  0
  8  7  2  0  0  0  0
  9  4  2  0  0  0  0
  9  8  1  0  0  0  0
 10  4  1  0  0  0  0
 12  8  1  0  0  0  0
 12 19  1  0  0  0  0
 13 12  2  0  0  0  0
 14 13  1  0  0  0  0
 15 13  1  0  0  0  0
 15 17  2  0  0  0  0
 16 15  1  0  0  0  0
 17 18  1  0  0  0  0
 18 19  2  0  0  0  0
 20 24  1  0  0  0  0
 21 20  1  0  0  0  0
 22 20  1  0  0  0  0
 23 28  1  0  0  0  0
 24 23  2  0  0  0  0
 24 25  1  0  0  0  0
 25 26  2  0  0  0  0
 26 27  1  0  0  0  0
 26 30  1  0  0  0  0
 27 31  1  0  0  0  0
 28 32  1  0  0  0  0
 28 27  2  0  0  0  0
 29 25  1  0  0  0  0
 33 35  2  0  0  0  0
 33 23  1  0  0  0  0
 34 33  2  0  0  0  0
 36 33  1  0  0  0  0
M  END
>  <minimizedAffinity>
-5.1186347

$$$$

 OpenBabel03242518033D

 36 38  0  0  0  0  0  0  0  0999 V2000
   36.6220   27.3210   42.7300 C   0  0  0  0  0  0  0  0  0  0  0  0
   35.6310   27.3750   43.2730 H   0  0  0  0  0  0  0  0  0  0  0  0
   36.9500   26.2940   42.8840 H   0  0  0  0  0  0  0  0  0  0  0  0
   36.8420   26.9560   40.2790 C   0  0  0  0  0  0  0  0  0  0  0  0
   36.3790   27.7490   41.3610 C   0  0  0  0  0  0  0  0  0  0  0  0
   35.7040   28.9310   41.0470 C   0  0  0  0  0  0  0  0  0  0  0  0
   35.5320   29.2510   39.7340 N   0  0  0  0  0  0  0  0  0  0  0  0
   35.9840   28.4780   38.7450 C   0  0  0  0  0  0  0  0  0  0  0  0
   36.6330   27.3400   39.0090 N   0  0  0  0  0  0  0  0  0  0  0  0
   37.3650   26.0410   40.4420 H   0  0  0  0  0  0  0  0  0  0  0  0
   35.3410   29.5540   41.8420 H   0  0  0  0  0  0  0  0  0  0  0  0
   35.7820   28.8530   37.3410 C   0  0  0  0  0  0  0  0  0  0  0  0
   36.7480   29.6280   36.7050 C   0  0  0  0  0  0  0  0  0  0  0  0
   37.6540   29.9720   37.2010 H   0  0  0  0  0  0  0  0  0  0  0  0
   36.5150   29.9550   35.3890 C   0  0  0  0  0  0  0  0  0  0  0  0
   37.2350   30.5650   34.8210 H   0  0  0  0  0  0  0  0  0  0  0  0
   35.3780   29.5410   34.7110 C   0  0  0  0  0  3  0  0  0  0  0  0
   34.4530   28.7770   35.3840 C   0  0  0  0  0  3  0  0  0  0  0  0
   34.6920   28.4700   36.6540 N   0  0  0  0  0  0  0  0  0  0  0  0
   37.4910   28.3740   43.4000 C   0  0  0  0  0  0  0  0  0  0  0  0
   37.3950   29.3610   42.8550 H   0  0  0  0  0  0  0  0  0  0  0  0
   37.1230   28.6370   44.4260 H   0  0  0  0  0  0  0  0  0  0  0  0
   39.7660   28.9670   42.7060 C   0  0  0  0  0  0  0  0  0  0  0  0
   38.9310   28.0690   43.3470 C   0  0  0  0  0  0  0  0  0  0  0  0
   39.3670   26.9130   43.9320 C   0  0  0  0  0  0  0  0  0  0  0  0
   40.7110   26.6310   43.8790 C   0  0  0  0  0  0  0  0  0  0  0  0
   41.6160   27.4460   43.2750 C   0  0  0  0  0  0  0  0  0  0  0  0
   41.0990   28.6050   42.7000 C   0  0  0  0  0  0  0  0  0  0  0  0
   38.7720   26.1990   44.4300 H   0  0  0  0  0  0  0  0  0  0  0  0
   41.1230   25.7250   44.3280 H   0  0  0  0  0  0  0  0  0  0  0  0
   42.6710   27.2270   43.2320 H   0  0  0  0  0  0  0  0  0  0  0  0
   41.8090   29.2770   42.2060 H   0  0  0  0  0  0  0  0  0  0  0  0
   39.2540   30.4440   41.9490 S   0  0  0  0  0  0  0  0  0  0  0  0
   38.9270   30.2670   40.4810 O   0  0  0  0  0  0  0  0  0  0  0  0
   40.4220   31.4200   41.9540 O   0  0  0  0  0  0  0  0  0  0  0  0
   38.2650   31.1030   42.6310 H   0  0  0  0  0  0  0  0  0  0  0  0
  1  3  1  0  0  0  0
  1  2  1  0  0  0  0
  1 20  1  0  0  0  0
  4 10  1  0  0  0  0
  4  5  1  0  0  0  0
  5  1  1  0  0  0  0
  6  5  2  0  0  0  0
  6 11  1  0  0  0  0
  7  6  1  0  0  0  0
  8  9  1  0  0  0  0
  8  7  2  0  0  0  0
  9  4  2  0  0  0  0
 12  8  1  0  0  0  0
 13 14  1  0  0  0  0
 13 12  1  0  0  0  0
 15 13  2  0  0  0  0
 16 15  1  0  0  0  0
 17 18  2  0  0  0  0
 17 15  1  0  0  0  0
 18 19  1  0  0  0  0
 19 12  2  0  0  0  0
 20 22  1  0  0  0  0
 21 20  1  0  0  0  0
 23 24  1  0  0  0  0
 24 20  1  0  0  0  0
 24 25  2  0  0  0  0
 25 29  1  0  0  0  0
 26 25  1  0  0  0  0
 26 30  1  0  0  0  0
 27 26  2  0  0  0  0
 28 23  2  0  0  0  0
 28 27  1  0  0  0  0
 31 27  1  0  0  0  0
 32 28  1  0  0  0  0
 33 35  2  0  0  0  0
 33 36  1  0  0  0  0
 33 23  1  0  0  0  0
 34 33  2  0  0  0  0
M  END
>  <minimizedAffinity>
-5.11508179

$$$$

 OpenBabel03242518033D

 36 38  0  0  0  0  0  0  0  0999 V2000
   37.0570   32.2310   39.5860 C   0  0  0  0  0  0  0  0  0  0  0  0
   36.4050   33.1490   39.6920 H   0  0  0  0  0  0  0  0  0  0  0  0
   36.7960   31.8350   38.6060 H   0  0  0  0  0  0  0  0  0  0  0  0
   39.5020   31.7910   39.4600 C   0  0  0  0  0  0  0  0  0  0  0  0
   38.4320   32.6620   39.7920 C   0  0  0  0  0  0  0  0  0  0  0  0
   38.7610   33.9130   40.3200 C   0  0  0  0  0  0  0  0  0  0  0  0
   40.0780   34.2210   40.4830 N   0  0  0  0  0  0  0  0  0  0  0  0
   41.0570   33.3740   40.1580 C   0  0  0  0  0  0  0  0  0  0  0  0
   40.7770   32.1690   39.6510 N   0  0  0  0  0  0  0  0  0  0  0  0
   39.3270   30.8220   39.0530 H   0  0  0  0  0  0  0  0  0  0  0  0
   37.9750   34.5940   40.5820 H   0  0  0  0  0  0  0  0  0  0  0  0
   42.4650   33.7390   40.3480 C   0  0  0  0  0  0  0  0  0  0  0  0
   42.8370   34.4020   41.5150 C   0  0  0  0  0  0  0  0  0  0  0  0
   42.1300   34.6650   42.3000 H   0  0  0  0  0  0  0  0  0  0  0  0
   44.1680   34.7240   41.6480 C   0  0  0  0  0  0  0  0  0  0  0  0
   44.5370   35.2480   42.5440 H   0  0  0  0  0  0  0  0  0  0  0  0
   45.1090   34.4110   40.6780 C   0  0  0  0  0  3  0  0  0  0  0  0
   44.6910   33.7560   39.5430 C   0  0  0  0  0  3  0  0  0  0  0  0
   43.4020   33.4520   39.4280 N   0  0  0  0  0  0  0  0  0  0  0  0
   36.6670   31.3410   40.7560 C   0  0  0  0  0  0  0  0  0  0  0  0
   37.4760   31.3630   41.5480 H   0  0  0  0  0  0  0  0  0  0  0  0
   35.7820   31.7390   41.3160 H   0  0  0  0  0  0  0  0  0  0  0  0
   37.2260   28.9900   41.1710 C   0  0  0  0  0  0  0  0  0  0  0  0
   36.5500   29.9170   40.3980 C   0  0  0  0  0  0  0  0  0  0  0  0
   35.7800   29.5860   39.3180 C   0  0  0  0  0  0  0  0  0  0  0  0
   35.6740   28.2560   38.9850 C   0  0  0  0  0  0  0  0  0  0  0  0
   36.2960   27.2670   39.6790 C   0  0  0  0  0  0  0  0  0  0  0  0
   37.0640   27.6790   40.7660 C   0  0  0  0  0  0  0  0  0  0  0  0
   35.2480   30.2520   38.6990 H   0  0  0  0  0  0  0  0  0  0  0  0
   35.0740   27.9260   38.1340 H   0  0  0  0  0  0  0  0  0  0  0  0
   36.2140   26.2240   39.4200 H   0  0  0  0  0  0  0  0  0  0  0  0
   37.5760   26.9000   41.3400 H   0  0  0  0  0  0  0  0  0  0  0  0
   38.2140   29.3670   42.5480 S   0  0  0  0  0  0  0  0  0  0  0  0
   39.5720   28.7000   42.4960 O   0  0  0  0  0  0  0  0  0  0  0  0
   37.5590   28.7790   43.7900 O   0  0  0  0  0  0  0  0  0  0  0  0
   38.3000   30.7080   42.8190 H   0  0  0  0  0  0  0  0  0  0  0  0
  1  2  1  0  0  0  0
  1  5  1  0  0  0  0
  1 20  1  0  0  0  0
  3  1  1  0  0  0  0
  4  9  2  0  0  0  0
  4  5  1  0  0  0  0
  5  6  2  0  0  0  0
  6  7  1  0  0  0  0
  6 11  1  0  0  0  0
  8 12  1  0  0  0  0
  8  7  2  0  0  0  0
  9  8  1  0  0  0  0
 10  4  1  0  0  0  0
 12 13  1  0  0  0  0
 13 15  2  0  0  0  0
 13 14  1  0  0  0  0
 15 16  1  0  0  0  0
 17 15  1  0  0  0  0
 18 17  2  0  0  0  0
 19 18  1  0  0  0  0
 19 12  2  0  0  0  0
 20 22  1  0  0  0  0
 20 21  1  0  0  0  0
 23 33  1  0  0  0  0
 24 20  1  0  0  0  0
 24 23  2  0  0  0  0
 25 24  1  0  0  0  0
 26 25  2  0  0  0  0
 26 27  1  0  0  0  0
 27 28  2  0  0  0  0
 28 23  1  0  0  0  0
 28 32  1  0  0  0  0
 29 25  1  0  0  0  0
 30 26  1  0  0  0  0
 31 27  1  0  0  0  0
 33 36  1  0  0  0  0
 33 35  2  0  0  0  0
 34 33  2  0  0  0  0
M  END
>  <minimizedAffinity>
-5.08691359

$$$$

 OpenBabel03242518033D

 36 38  0  0  0  0  0  0  0  0999 V2000
   35.4440   27.8750   38.7280 C   0  0  0  0  0  0  0  0  0  0  0  0
   34.9290   27.6940   39.7180 H   0  0  0  0  0  0  0  0  0  0  0  0
   34.6250   27.9530   38.0160 H   0  0  0  0  0  0  0  0  0  0  0  0
   36.0180   29.9730   39.9360 C   0  0  0  0  0  0  0  0  0  0  0  0
   36.2960   29.0430   38.9010 C   0  0  0  0  0  0  0  0  0  0  0  0
   37.3930   29.3070   38.0770 C   0  0  0  0  0  0  0  0  0  0  0  0
   38.1250   30.4310   38.3130 N   0  0  0  0  0  0  0  0  0  0  0  0
   37.8310   31.2820   39.2980 C   0  0  0  0  0  0  0  0  0  0  0  0
   36.7890   31.0600   40.1050 N   0  0  0  0  0  0  0  0  0  0  0  0
   35.1990   29.8370   40.6030 H   0  0  0  0  0  0  0  0  0  0  0  0
   37.6290   28.6230   37.2850 H   0  0  0  0  0  0  0  0  0  0  0  0
   38.6420   32.4840   39.5230 C   0  0  0  0  0  0  0  0  0  0  0  0
   38.0340   33.6140   40.0630 C   0  0  0  0  0  0  0  0  0  0  0  0
   36.9790   33.6520   40.3290 H   0  0  0  0  0  0  0  0  0  0  0  0
   38.8340   34.7170   40.2570 C   0  0  0  0  0  0  0  0  0  0  0  0
   38.4230   35.6470   40.6800 H   0  0  0  0  0  0  0  0  0  0  0  0
   40.1840   34.7220   39.9360 C   0  0  0  0  0  3  0  0  0  0  0  0
   40.7370   33.5800   39.4050 C   0  0  0  0  0  3  0  0  0  0  0  0
   39.9520   32.5230   39.2230 N   0  0  0  0  0  0  0  0  0  0  0  0
   36.3460   26.6660   38.5320 C   0  0  0  0  0  0  0  0  0  0  0  0
   35.8470   25.9160   37.8480 H   0  0  0  0  0  0  0  0  0  0  0  0
   37.2770   26.9200   37.9620 H   0  0  0  0  0  0  0  0  0  0  0  0
   36.2250   24.5810   39.8170 C   0  0  0  0  0  0  0  0  0  0  0  0
   36.5980   25.9140   39.7730 C   0  0  0  0  0  0  0  0  0  0  0  0
   37.1850   26.5710   40.8170 C   0  0  0  0  0  0  0  0  0  0  0  0
   37.4170   25.8660   41.9750 C   0  0  0  0  0  0  0  0  0  0  0  0
   37.0900   24.5550   42.1210 C   0  0  0  0  0  0  0  0  0  0  0  0
   36.4950   23.9510   41.0160 C   0  0  0  0  0  0  0  0  0  0  0  0
   37.4850   27.5810   40.8340 H   0  0  0  0  0  0  0  0  0  0  0  0
   37.8840   26.3330   42.8450 H   0  0  0  0  0  0  0  0  0  0  0  0
   37.2720   24.0000   43.0280 H   0  0  0  0  0  0  0  0  0  0  0  0
   36.2220   22.8950   41.1100 H   0  0  0  0  0  0  0  0  0  0  0  0
   35.4760   23.7090   38.5160 S   0  0  0  0  0  0  0  0  0  0  0  0
   34.6980   22.5010   38.9910 O   0  0  0  0  0  0  0  0  0  0  0  0
   36.5690   23.1250   37.6330 O   0  0  0  0  0  0  0  0  0  0  0  0
   34.7480   24.5000   37.6650 H   0  0  0  0  0  0  0  0  0  0  0  0
  1  5  1  0  0  0  0
  1  2  1  0  0  0  0
  3  1  1  0  0  0  0
  4  9  1  0  0  0  0
  4 10  1  0  0  0  0
  5  4  2  0  0  0  0
  6  7  2  0  0  0  0
  6  5  1  0  0  0  0
  7  8  1  0  0  0  0
  8 12  1  0  0  0  0
  8  9  2  0  0  0  0
 11  6  1  0  0  0  0
 12 13  1  0  0  0  0
 13 15  2  0  0  0  0
 13 14  1  0  0  0  0
 15 16  1  0  0  0  0
 17 15  1  0  0  0  0
 18 17  2  0  0  0  0
 19 18  1  0  0  0  0
 19 12  2  0  0  0  0
 20  1  1  0  0  0  0
 20 24  1  0  0  0  0
 21 20  1  0  0  0  0
 22 20  1  0  0  0  0
 23 28  1  0  0  0  0
 24 23  2  0  0  0  0
 24 25  1  0  0  0  0
 25 29  1  0  0  0  0
 25 26  2  0  0  0  0
 26 27  1  0  0  0  0
 26 30  1  0  0  0  0
 27 31  1  0  0  0  0
 28 32  1  0  0  0  0
 28 27  2  0  0  0  0
 33 34  2  0  0  0  0
 33 23  1  0  0  0  0
 35 33  2  0  0  0  0
 36 33  1  0  0  0  0
M  END
>  <minimizedAffinity>
-5.07588053

$$$$
