
 OpenBabel03252509223D

 26 28  0  0  1  0  0  0  0  0999 V2000
   46.5180   35.0270   41.9460 C   0  0  1  0  0  0  0  0  0  0  0  0
   48.0450   35.3100   41.9260 C   0  0  0  0  0  0  0  0  0  0  0  0
   47.3560   34.0410   41.3700 C   0  0  2  0  0  0  0  0  0  0  0  0
   45.9460   35.7610   41.3520 H   0  0  0  0  0  0  0  0  0  0  0  0
   48.6180   35.2350   42.8410 H   0  0  0  0  0  0  0  0  0  0  0  0
   48.4120   35.9980   41.1440 H   0  0  0  0  0  0  0  0  0  0  0  0
   47.6670   33.1310   41.9230 H   0  0  0  0  0  0  0  0  0  0  0  0
   44.6550   35.4230   45.1760 C   0  0  0  0  0  0  0  0  0  0  0  0
   45.1170   35.7230   43.8550 C   0  0  0  0  0  0  0  0  0  0  0  0
   46.0430   34.8440   43.3660 C   0  0  0  0  0  0  0  0  0  0  0  0
   46.4960   33.7500   44.1050 N   0  0  0  0  0  0  0  0  0  0  0  0
   46.0210   33.5320   45.3330 C   0  0  0  0  0  0  0  0  0  0  0  0
   45.0970   34.3670   45.8760 N   0  0  0  0  0  0  0  0  0  0  0  0
   43.9200   36.0800   45.6180 H   0  0  0  0  0  0  0  0  0  0  0  0
   46.4780   32.6480   45.7560 H   0  0  0  0  0  0  0  0  0  0  0  0
   44.6730   36.8570   43.1380 N   0  0  0  0  0  0  0  0  0  0  0  0
   44.6540   37.7640   43.6910 H   0  0  0  0  0  0  0  0  0  0  0  0
   44.3830   36.8460   42.1550 H   0  0  0  0  0  0  0  0  0  0  0  0
   47.3430   33.9010   39.8780 C   0  0  0  0  0  0  0  0  0  0  0  0
   48.3420   34.5540   39.1880 C   0  0  0  0  0  0  0  0  0  0  0  0
   49.0900   35.1310   39.6810 H   0  0  0  0  0  0  0  0  0  0  0  0
   48.2950   34.3990   37.8100 C   0  0  0  0  0  0  0  0  0  0  0  0
   49.0900   34.9190   37.2570 H   0  0  0  0  0  0  0  0  0  0  0  0
   47.3130   33.6440   37.1910 C   0  0  0  0  0  3  0  0  0  0  0  0
   46.3280   33.0060   37.9410 C   0  0  0  0  0  3  0  0  0  0  0  0
   46.3850   33.1660   39.2860 N   0  0  0  0  0  0  0  0  0  0  0  0
  1  4  1  6  0  0  0
  1 10  1  0  0  0  0
  2  1  1  0  0  0  0
  2  5  1  0  0  0  0
  3  7  1  1  0  0  0
  3  2  1  0  0  0  0
  3  1  1  0  0  0  0
  6  2  1  0  0  0  0
  8 14  1  0  0  0  0
  8 13  1  0  0  0  0
  9  8  2  0  0  0  0
 10  9  1  0  0  0  0
 10 11  2  0  0  0  0
 11 12  1  0  0  0  0
 12 15  1  0  0  0  0
 12 13  2  0  0  0  0
 16 17  1  0  0  0  0
 16  9  1  0  0  0  0
 18 16  1  0  0  0  0
 19  3  1  0  0  0  0
 20 21  1  0  0  0  0
 20 19  2  0  0  0  0
 22 20  1  0  0  0  0
 23 22  1  0  0  0  0
 24 22  2  0  0  0  0
 24 25  1  0  0  0  0
 25 26  2  0  0  0  0
 26 19  1  0  0  0  0
M  END
>  <minimizedAffinity>
-5.39553022

>  <minimizedRMSD>
0.495619923

$$$$
