
 OpenBabel03252506073D

 42 46  0  0  0  0  0  0  0  0999 V2000
   36.7280   26.2070   38.6300 Cl  0  0  0  0  0  0  0  0  0  0  0  0
   35.3900   27.1810   38.1410 C   0  0  0  0  0  0  0  0  0  0  0  0
   35.1570   28.3970   38.7350 C   0  0  0  0  0  0  0  0  0  0  0  0
   34.0630   29.0980   38.2730 C   0  0  0  0  0  0  0  0  0  0  0  0
   33.2150   28.6650   37.2810 C   0  0  0  0  0  0  0  0  0  0  0  0
   33.4740   27.4510   36.7100 C   0  0  0  0  0  0  0  0  0  0  0  0
   32.3740   26.9260   35.4470 Cl  0  0  0  0  0  0  0  0  0  0  0  0
   34.5500   26.7140   37.1330 C   0  0  0  0  0  0  0  0  0  0  0  0
   33.8900   30.0690   38.7600 H   0  0  0  0  0  0  0  0  0  0  0  0
   34.7120   25.7550   36.6440 H   0  0  0  0  0  0  0  0  0  0  0  0
   32.1010   29.5600   36.9290 C   0  0  0  0  0  0  0  0  0  0  0  0
   31.0660   29.8490   37.7770 C   0  0  0  0  0  0  0  0  0  0  0  0
   30.0250   30.6850   37.4490 C   0  0  0  0  0  0  0  0  0  0  0  0
   29.9940   31.2800   36.2070 C   0  0  0  0  0  0  0  0  0  0  0  0
   28.9700   32.0900   35.9110 N   0  0  0  0  0  0  0  0  0  0  0  0
   28.8600   32.7170   34.7130 C   0  0  0  0  0  0  0  0  0  0  0  0
   29.8690   32.4740   33.8030 C   0  0  0  0  0  0  0  0  0  0  0  0
   30.9190   31.6450   34.0980 C   0  0  0  0  0  0  0  0  0  0  0  0
   31.0040   31.0200   35.3310 C   0  0  0  0  0  0  0  0  0  0  0  0
   32.0490   30.1760   35.6700 C   0  0  0  0  0  0  0  0  0  0  0  0
   31.1070   29.3720   38.7490 H   0  0  0  0  0  0  0  0  0  0  0  0
   29.2440   30.8610   38.1790 H   0  0  0  0  0  0  0  0  0  0  0  0
   27.9930   33.3440   34.5880 H   0  0  0  0  0  0  0  0  0  0  0  0
   29.7660   32.9850   32.8420 H   0  0  0  0  0  0  0  0  0  0  0  0
   31.6940   31.4760   33.3590 H   0  0  0  0  0  0  0  0  0  0  0  0
   32.8380   29.9990   34.9320 H   0  0  0  0  0  0  0  0  0  0  0  0
   36.9290   28.6570   41.9160 C   0  0  0  0  0  0  0  0  0  0  0  0
   37.6120   29.8700   41.8150 C   0  0  0  0  0  0  0  0  0  0  0  0
   37.4540   30.6090   40.6230 C   0  0  0  0  0  0  0  0  0  0  0  0
   36.6610   30.1050   39.6610 N   0  0  0  0  0  0  0  0  0  0  0  0
   36.0080   28.9190   39.7890 C   0  0  0  0  0  0  0  0  0  0  0  0
   36.1470   28.1990   40.9210 N   0  0  0  0  0  0  0  0  0  0  0  0
   37.0600   28.1000   42.8390 H   0  0  0  0  0  0  0  0  0  0  0  0
   38.2300   30.2350   42.5970 H   0  0  0  0  0  0  0  0  0  0  0  0
   38.1550   31.8820   40.4840 C   0  0  0  0  0  0  0  0  0  0  0  0
   37.4190   32.9660   40.0520 C   0  0  0  0  0  0  0  0  0  0  0  0
   36.3640   32.8950   39.8210 H   0  0  0  0  0  0  0  0  0  0  0  0
   38.1210   34.1710   39.9300 C   0  0  0  0  0  0  0  0  0  0  0  0
   37.6220   35.0670   39.5980 H   0  0  0  0  0  0  0  0  0  0  0  0
   39.4770   34.1640   40.2500 C   0  0  0  0  0  3  0  0  0  0  0  0
   40.1760   33.0530   40.6800 C   0  0  0  0  0  3  0  0  0  0  0  0
   39.4660   31.9030   40.7880 N   0  0  0  0  0  0  0  0  0  0  0  0
  2  1  1  0  0  0  0
  2  3  1  0  0  0  0
  3 31  1  0  0  0  0
  4  3  2  0  0  0  0
  4  9  1  0  0  0  0
  5  4  1  0  0  0  0
  6  8  1  0  0  0  0
  6  5  2  0  0  0  0
  7  6  1  0  0  0  0
  8  2  2  0  0  0  0
 10  8  1  0  0  0  0
 11  5  1  0  0  0  0
 11 12  1  0  0  0  0
 12 21  1  0  0  0  0
 13 12  2  0  0  0  0
 13 22  1  0  0  0  0
 14 13  1  0  0  0  0
 15 14  1  0  0  0  0
 16 15  2  0  0  0  0
 17 18  2  0  0  0  0
 17 16  1  0  0  0  0
 18 19  1  0  0  0  0
 19 20  1  0  0  0  0
 19 14  2  0  0  0  0
 20 11  2  0  0  0  0
 23 16  1  0  0  0  0
 24 17  1  0  0  0  0
 25 18  1  0  0  0  0
 26 20  1  0  0  0  0
 27 33  1  0  0  0  0
 28 27  1  0  0  0  0
 28 34  1  0  0  0  0
 29 28  2  0  0  0  0
 30 31  2  0  0  0  0
 30 29  1  0  0  0  0
 31 32  1  0  0  0  0
 32 27  2  0  0  0  0
 35 29  1  0  0  0  0
 35 42  1  0  0  0  0
 36 35  2  0  0  0  0
 37 36  1  0  0  0  0
 38 36  1  0  0  0  0
 38 40  2  0  0  0  0
 39 38  1  0  0  0  0
 40 41  1  0  0  0  0
 41 42  2  0  0  0  0
M  END
>  <minimizedAffinity>
-7.29229403

$$$$

 OpenBabel03252506073D

 42 46  0  0  0  0  0  0  0  0999 V2000
   39.4220   30.2080   42.9140 Cl  0  0  0  0  0  0  0  0  0  0  0  0
   39.0040   28.6730   42.2450 C   0  0  0  0  0  0  0  0  0  0  0  0
   38.3560   28.5910   41.0370 C   0  0  0  0  0  0  0  0  0  0  0  0
   38.0660   27.3200   40.5890 C   0  0  0  0  0  0  0  0  0  0  0  0
   38.3780   26.1610   41.2600 C   0  0  0  0  0  0  0  0  0  0  0  0
   39.0240   26.2770   42.4590 C   0  0  0  0  0  0  0  0  0  0  0  0
   39.4090   24.7800   43.2920 Cl  0  0  0  0  0  0  0  0  0  0  0  0
   39.3350   27.5190   42.9490 C   0  0  0  0  0  0  0  0  0  0  0  0
   37.5460   27.2720   39.6210 H   0  0  0  0  0  0  0  0  0  0  0  0
   39.8500   27.5540   43.9080 H   0  0  0  0  0  0  0  0  0  0  0  0
   37.9830   24.8990   40.6150 C   0  0  0  0  0  0  0  0  0  0  0  0
   38.8790   23.9570   40.1860 C   0  0  0  0  0  0  0  0  0  0  0  0
   38.5110   22.7760   39.5840 C   0  0  0  0  0  0  0  0  0  0  0  0
   37.1770   22.4980   39.3890 C   0  0  0  0  0  0  0  0  0  0  0  0
   36.8430   21.3430   38.8000 N   0  0  0  0  0  0  0  0  0  0  0  0
   35.5550   20.9880   38.5700 C   0  0  0  0  0  0  0  0  0  0  0  0
   34.5920   21.8900   38.9760 C   0  0  0  0  0  0  0  0  0  0  0  0
   34.9250   23.0740   39.5780 C   0  0  0  0  0  0  0  0  0  0  0  0
   36.2510   23.4080   39.8010 C   0  0  0  0  0  0  0  0  0  0  0  0
   36.6300   24.5950   40.4070 C   0  0  0  0  0  0  0  0  0  0  0  0
   39.9230   24.1930   40.3470 H   0  0  0  0  0  0  0  0  0  0  0  0
   39.2840   22.0830   39.2720 H   0  0  0  0  0  0  0  0  0  0  0  0
   35.4070   20.0350   38.0900 H   0  0  0  0  0  0  0  0  0  0  0  0
   33.5580   21.5910   38.7830 H   0  0  0  0  0  0  0  0  0  0  0  0
   34.1430   23.7600   39.8850 H   0  0  0  0  0  0  0  0  0  0  0  0
   35.8490   25.2940   40.7210 H   0  0  0  0  0  0  0  0  0  0  0  0
   36.5310   30.7970   38.7700 C   0  0  0  0  0  0  0  0  0  0  0  0
   37.2660   31.9830   38.8020 C   0  0  0  0  0  0  0  0  0  0  0  0
   38.4130   32.0170   39.6230 C   0  0  0  0  0  0  0  0  0  0  0  0
   38.7290   30.9130   40.3230 N   0  0  0  0  0  0  0  0  0  0  0  0
   37.9930   29.7710   40.2720 C   0  0  0  0  0  0  0  0  0  0  0  0
   36.8930   29.7190   39.4920 N   0  0  0  0  0  0  0  0  0  0  0  0
   35.6520   30.7850   38.1340 H   0  0  0  0  0  0  0  0  0  0  0  0
   36.9850   32.8350   38.2350 H   0  0  0  0  0  0  0  0  0  0  0  0
   39.2040   33.2430   39.6800 C   0  0  0  0  0  0  0  0  0  0  0  0
   38.6210   34.3460   40.2680 C   0  0  0  0  0  0  0  0  0  0  0  0
   37.6190   34.3230   40.6770 H   0  0  0  0  0  0  0  0  0  0  0  0
   39.4060   35.5040   40.3060 C   0  0  0  0  0  0  0  0  0  0  0  0
   39.0270   36.4120   40.7480 H   0  0  0  0  0  0  0  0  0  0  0  0
   40.6840   35.4370   39.7550 C   0  0  0  0  0  3  0  0  0  0  0  0
   41.2290   34.3080   39.1750 C   0  0  0  0  0  3  0  0  0  0  0  0
   40.4430   33.2040   39.1550 N   0  0  0  0  0  0  0  0  0  0  0  0
  2  1  1  0  0  0  0
  2  8  1  0  0  0  0
  3  2  2  0  0  0  0
  4  3  1  0  0  0  0
  4  5  2  0  0  0  0
  5  6  1  0  0  0  0
  6  8  2  0  0  0  0
  6  7  1  0  0  0  0
  8 10  1  0  0  0  0
  9  4  1  0  0  0  0
 11  5  1  0  0  0  0
 12 21  1  0  0  0  0
 12 11  2  0  0  0  0
 13 12  1  0  0  0  0
 14 13  2  0  0  0  0
 14 19  1  0  0  0  0
 15 14  1  0  0  0  0
 16 15  2  0  0  0  0
 16 17  1  0  0  0  0
 17 18  2  0  0  0  0
 18 19  1  0  0  0  0
 18 25  1  0  0  0  0
 19 20  2  0  0  0  0
 20 11  1  0  0  0  0
 20 26  1  0  0  0  0
 22 13  1  0  0  0  0
 23 16  1  0  0  0  0
 24 17  1  0  0  0  0
 27 28  2  0  0  0  0
 27 32  1  0  0  0  0
 28 29  1  0  0  0  0
 29 35  1  0  0  0  0
 29 30  2  0  0  0  0
 31 30  1  0  0  0  0
 31  3  1  0  0  0  0
 32 31  2  0  0  0  0
 33 27  1  0  0  0  0
 34 28  1  0  0  0  0
 35 36  1  0  0  0  0
 36 38  2  0  0  0  0
 36 37  1  0  0  0  0
 38 39  1  0  0  0  0
 40 38  1  0  0  0  0
 41 40  2  0  0  0  0
 42 41  1  0  0  0  0
 42 35  2  0  0  0  0
M  END
>  <minimizedAffinity>
-7.14453363

$$$$

 OpenBabel03252506073D

 42 46  0  0  0  0  0  0  0  0999 V2000
   38.3860   34.7490   39.9260 Cl  0  0  0  0  0  0  0  0  0  0  0  0
   38.2950   33.0260   39.9270 C   0  0  0  0  0  0  0  0  0  0  0  0
   39.3990   32.2690   39.6190 C   0  0  0  0  0  0  0  0  0  0  0  0
   39.2230   30.9020   39.6470 C   0  0  0  0  0  0  0  0  0  0  0  0
   38.0430   30.2680   39.9550 C   0  0  0  0  0  0  0  0  0  0  0  0
   36.9630   31.0490   40.2570 C   0  0  0  0  0  0  0  0  0  0  0  0
   35.4700   30.2110   40.6470 Cl  0  0  0  0  0  0  0  0  0  0  0  0
   37.0850   32.4150   40.2440 C   0  0  0  0  0  0  0  0  0  0  0  0
   40.1170   30.3100   39.3980 H   0  0  0  0  0  0  0  0  0  0  0  0
   36.1940   32.9900   40.4920 H   0  0  0  0  0  0  0  0  0  0  0  0
   38.0580   28.7970   39.9300 C   0  0  0  0  0  0  0  0  0  0  0  0
   38.4120   28.0630   38.8310 C   0  0  0  0  0  0  0  0  0  0  0  0
   38.4270   26.6880   38.8060 C   0  0  0  0  0  0  0  0  0  0  0  0
   38.0720   25.9830   39.9340 C   0  0  0  0  0  0  0  0  0  0  0  0
   38.0940   24.6440   39.8860 N   0  0  0  0  0  0  0  0  0  0  0  0
   37.7600   23.8720   40.9490 C   0  0  0  0  0  0  0  0  0  0  0  0
   37.3900   24.5420   42.0980 C   0  0  0  0  0  0  0  0  0  0  0  0
   37.3640   25.9110   42.1550 C   0  0  0  0  0  0  0  0  0  0  0  0
   37.7120   26.6730   41.0520 C   0  0  0  0  0  0  0  0  0  0  0  0
   37.7000   28.0580   41.0680 C   0  0  0  0  0  0  0  0  0  0  0  0
   38.6890   28.6340   37.9530 H   0  0  0  0  0  0  0  0  0  0  0  0
   38.7210   26.1830   37.8930 H   0  0  0  0  0  0  0  0  0  0  0  0
   37.8150   22.8070   40.7940 H   0  0  0  0  0  0  0  0  0  0  0  0
   37.1230   23.9060   42.9460 H   0  0  0  0  0  0  0  0  0  0  0  0
   37.0690   26.4050   43.0730 H   0  0  0  0  0  0  0  0  0  0  0  0
   37.4040   28.5680   41.9900 H   0  0  0  0  0  0  0  0  0  0  0  0
   42.2540   33.4090   37.6500 C   0  0  0  0  0  0  0  0  0  0  0  0
   43.0980   33.9890   38.5970 C   0  0  0  0  0  0  0  0  0  0  0  0
   42.6680   33.9840   39.9420 C   0  0  0  0  0  0  0  0  0  0  0  0
   41.4800   33.4260   40.2290 N   0  0  0  0  0  0  0  0  0  0  0  0
   40.6780   32.8670   39.2830 C   0  0  0  0  0  0  0  0  0  0  0  0
   41.0720   32.8620   37.9920 N   0  0  0  0  0  0  0  0  0  0  0  0
   42.5980   33.4200   36.6200 H   0  0  0  0  0  0  0  0  0  0  0  0
   44.0300   34.4220   38.3320 H   0  0  0  0  0  0  0  0  0  0  0  0
   43.5270   34.5840   40.9590 C   0  0  0  0  0  0  0  0  0  0  0  0
   44.8870   34.4040   40.8250 C   0  0  0  0  0  0  0  0  0  0  0  0
   45.3210   33.8460   40.0050 H   0  0  0  0  0  0  0  0  0  0  0  0
   45.6820   34.9920   41.8160 C   0  0  0  0  0  0  0  0  0  0  0  0
   46.7560   34.9000   41.7880 H   0  0  0  0  0  0  0  0  0  0  0  0
   45.0340   35.6930   42.8320 C   0  0  0  0  0  3  0  0  0  0  0  0
   43.6660   35.8480   42.9280 C   0  0  0  0  0  3  0  0  0  0  0  0
   42.9260   35.2670   41.9510 N   0  0  0  0  0  0  0  0  0  0  0  0
  1  2  1  0  0  0  0
  2  8  1  0  0  0  0
  3  4  1  0  0  0  0
  3  2  2  0  0  0  0
  4  5  2  0  0  0  0
  5  6  1  0  0  0  0
  6  7  1  0  0  0  0
  8  6  2  0  0  0  0
  8 10  1  0  0  0  0
  9  4  1  0  0  0  0
 11  5  1  0  0  0  0
 11 20  1  0  0  0  0
 12 11  2  0  0  0  0
 13 12  1  0  0  0  0
 13 14  2  0  0  0  0
 14 19  1  0  0  0  0
 15 14  1  0  0  0  0
 15 16  2  0  0  0  0
 16 17  1  0  0  0  0
 17 18  2  0  0  0  0
 17 24  1  0  0  0  0
 18 25  1  0  0  0  0
 19 20  2  0  0  0  0
 19 18  1  0  0  0  0
 20 26  1  0  0  0  0
 21 12  1  0  0  0  0
 22 13  1  0  0  0  0
 23 16  1  0  0  0  0
 27 32  2  0  0  0  0
 27 28  1  0  0  0  0
 28 29  2  0  0  0  0
 29 30  1  0  0  0  0
 29 35  1  0  0  0  0
 31  3  1  0  0  0  0
 31 30  2  0  0  0  0
 32 31  1  0  0  0  0
 33 27  1  0  0  0  0
 34 28  1  0  0  0  0
 35 42  1  0  0  0  0
 36 35  2  0  0  0  0
 36 38  1  0  0  0  0
 37 36  1  0  0  0  0
 38 40  2  0  0  0  0
 39 38  1  0  0  0  0
 40 41  1  0  0  0  0
 42 41  2  0  0  0  0
M  END
>  <minimizedAffinity>
-7.10532808

$$$$

 OpenBabel03252506073D

 42 46  0  0  0  0  0  0  0  0999 V2000
   36.9530   34.1960   39.1790 Cl  0  0  0  0  0  0  0  0  0  0  0  0
   37.3710   32.7140   39.9590 C   0  0  0  0  0  0  0  0  0  0  0  0
   38.5970   32.5640   40.5600 C   0  0  0  0  0  0  0  0  0  0  0  0
   38.8350   31.3430   41.1550 C   0  0  0  0  0  0  0  0  0  0  0  0
   37.9440   30.2960   41.1820 C   0  0  0  0  0  0  0  0  0  0  0  0
   36.7330   30.4770   40.5750 C   0  0  0  0  0  0  0  0  0  0  0  0
   35.6170   29.1230   40.6260 Cl  0  0  0  0  0  0  0  0  0  0  0  0
   36.4470   31.6740   39.9690 C   0  0  0  0  0  0  0  0  0  0  0  0
   39.8210   31.2390   41.6310 H   0  0  0  0  0  0  0  0  0  0  0  0
   35.4680   31.7650   39.5000 H   0  0  0  0  0  0  0  0  0  0  0  0
   38.3860   29.0710   41.8680 C   0  0  0  0  0  0  0  0  0  0  0  0
   37.9890   28.7280   43.1320 C   0  0  0  0  0  0  0  0  0  0  0  0
   38.4000   27.5830   43.7740 C   0  0  0  0  0  0  0  0  0  0  0  0
   39.2590   26.7160   43.1360 C   0  0  0  0  0  0  0  0  0  0  0  0
   39.6460   25.6080   43.7810 N   0  0  0  0  0  0  0  0  0  0  0  0
   40.4890   24.7010   43.2290 C   0  0  0  0  0  0  0  0  0  0  0  0
   40.9340   24.9790   41.9520 C   0  0  0  0  0  0  0  0  0  0  0  0
   40.5430   26.1110   41.2860 C   0  0  0  0  0  0  0  0  0  0  0  0
   39.6800   27.0190   41.8770 C   0  0  0  0  0  0  0  0  0  0  0  0
   39.2610   28.1740   41.2380 C   0  0  0  0  0  0  0  0  0  0  0  0
   37.3130   29.4210   43.6170 H   0  0  0  0  0  0  0  0  0  0  0  0
   38.0380   27.3850   44.7760 H   0  0  0  0  0  0  0  0  0  0  0  0
   40.7300   23.8480   43.8420 H   0  0  0  0  0  0  0  0  0  0  0  0
   41.6130   24.2390   41.5210 H   0  0  0  0  0  0  0  0  0  0  0  0
   40.9130   26.2980   40.2840 H   0  0  0  0  0  0  0  0  0  0  0  0
   39.6260   28.3740   40.2260 H   0  0  0  0  0  0  0  0  0  0  0  0
   40.1180   35.8490   41.0360 C   0  0  0  0  0  0  0  0  0  0  0  0
   41.4350   35.6670   40.6110 C   0  0  0  0  0  0  0  0  0  0  0  0
   41.8000   34.3830   40.1520 C   0  0  0  0  0  0  0  0  0  0  0  0
   40.8650   33.4170   40.1510 N   0  0  0  0  0  0  0  0  0  0  0  0
   39.5880   33.6240   40.5720 C   0  0  0  0  0  0  0  0  0  0  0  0
   39.2200   34.8450   41.0130 N   0  0  0  0  0  0  0  0  0  0  0  0
   39.8510   36.8410   41.3860 H   0  0  0  0  0  0  0  0  0  0  0  0
   42.1450   36.4550   40.6270 H   0  0  0  0  0  0  0  0  0  0  0  0
   43.1700   34.1590   39.7010 C   0  0  0  0  0  0  0  0  0  0  0  0
   43.3580   33.8830   38.3630 C   0  0  0  0  0  0  0  0  0  0  0  0
   42.5370   33.8320   37.6600 H   0  0  0  0  0  0  0  0  0  0  0  0
   44.6840   33.6730   37.9630 C   0  0  0  0  0  0  0  0  0  0  0  0
   44.9200   33.4510   36.9350 H   0  0  0  0  0  0  0  0  0  0  0  0
   45.6740   33.7600   38.9390 C   0  0  0  0  0  3  0  0  0  0  0  0
   45.4400   34.0390   40.2710 C   0  0  0  0  0  3  0  0  0  0  0  0
   44.1460   34.2380   40.6240 N   0  0  0  0  0  0  0  0  0  0  0  0
  1  2  1  0  0  0  0
  2  8  2  0  0  0  0
  2  3  1  0  0  0  0
  3 31  1  0  0  0  0
  3  4  2  0  0  0  0
  4  5  1  0  0  0  0
  4  9  1  0  0  0  0
  5 11  1  0  0  0  0
  6  7  1  0  0  0  0
  6  5  2  0  0  0  0
  8  6  1  0  0  0  0
 10  8  1  0  0  0  0
 11 12  1  0  0  0  0
 12 21  1  0  0  0  0
 12 13  2  0  0  0  0
 13 22  1  0  0  0  0
 14 13  1  0  0  0  0
 14 15  1  0  0  0  0
 16 15  2  0  0  0  0
 16 23  1  0  0  0  0
 17 16  1  0  0  0  0
 18 19  1  0  0  0  0
 18 17  2  0  0  0  0
 19 14  2  0  0  0  0
 20 11  2  0  0  0  0
 20 19  1  0  0  0  0
 24 17  1  0  0  0  0
 25 18  1  0  0  0  0
 26 20  1  0  0  0  0
 27 33  1  0  0  0  0
 28 34  1  0  0  0  0
 28 27  2  0  0  0  0
 29 28  1  0  0  0  0
 30 29  2  0  0  0  0
 30 31  1  0  0  0  0
 31 32  2  0  0  0  0
 32 27  1  0  0  0  0
 35 29  1  0  0  0  0
 35 42  1  0  0  0  0
 36 35  2  0  0  0  0
 37 36  1  0  0  0  0
 38 36  1  0  0  0  0
 38 40  2  0  0  0  0
 39 38  1  0  0  0  0
 40 41  1  0  0  0  0
 41 42  2  0  0  0  0
M  END
>  <minimizedAffinity>
-7.07588387

$$$$

 OpenBabel03252506073D

 42 46  0  0  0  0  0  0  0  0999 V2000
   38.9670   35.0400   39.9550 Cl  0  0  0  0  0  0  0  0  0  0  0  0
   38.8930   33.3400   40.2400 C   0  0  0  0  0  0  0  0  0  0  0  0
   40.0400   32.5840   40.2560 C   0  0  0  0  0  0  0  0  0  0  0  0
   39.8740   31.2360   40.4910 C   0  0  0  0  0  0  0  0  0  0  0  0
   38.6650   30.6190   40.7050 C   0  0  0  0  0  0  0  0  0  0  0  0
   37.5420   31.3990   40.6830 C   0  0  0  0  0  0  0  0  0  0  0  0
   36.0130   30.5830   40.9600 Cl  0  0  0  0  0  0  0  0  0  0  0  0
   37.6530   32.7460   40.4530 C   0  0  0  0  0  0  0  0  0  0  0  0
   40.8020   30.6450   40.5000 H   0  0  0  0  0  0  0  0  0  0  0  0
   36.7280   33.3210   40.4460 H   0  0  0  0  0  0  0  0  0  0  0  0
   38.6970   29.1670   40.9390 C   0  0  0  0  0  0  0  0  0  0  0  0
   38.2050   28.2470   40.0530 C   0  0  0  0  0  0  0  0  0  0  0  0
   38.2350   26.8890   40.2700 C   0  0  0  0  0  0  0  0  0  0  0  0
   38.7840   26.3980   41.4340 C   0  0  0  0  0  0  0  0  0  0  0  0
   38.8010   25.0720   41.6230 N   0  0  0  0  0  0  0  0  0  0  0  0
   39.3220   24.5030   42.7380 C   0  0  0  0  0  0  0  0  0  0  0  0
   39.8390   25.3690   43.6810 C   0  0  0  0  0  0  0  0  0  0  0  0
   39.8240   26.7260   43.4950 C   0  0  0  0  0  0  0  0  0  0  0  0
   39.2860   27.2770   42.3440 C   0  0  0  0  0  0  0  0  0  0  0  0
   39.2510   28.6440   42.1170 C   0  0  0  0  0  0  0  0  0  0  0  0
   37.7770   28.6520   39.1440 H   0  0  0  0  0  0  0  0  0  0  0  0
   37.8230   26.2280   39.5170 H   0  0  0  0  0  0  0  0  0  0  0  0
   39.2810   23.4270   42.7800 H   0  0  0  0  0  0  0  0  0  0  0  0
   40.2540   24.8950   44.5740 H   0  0  0  0  0  0  0  0  0  0  0  0
   40.2380   27.3770   44.2560 H   0  0  0  0  0  0  0  0  0  0  0  0
   39.6670   29.3110   42.8780 H   0  0  0  0  0  0  0  0  0  0  0  0
   42.9440   33.9780   38.5380 C   0  0  0  0  0  0  0  0  0  0  0  0
   43.8340   34.2660   39.5740 C   0  0  0  0  0  0  0  0  0  0  0  0
   43.4180   33.9710   40.8900 C   0  0  0  0  0  0  0  0  0  0  0  0
   42.1980   33.4350   41.0680 N   0  0  0  0  0  0  0  0  0  0  0  0
   41.3530   33.1650   40.0370 C   0  0  0  0  0  0  0  0  0  0  0  0
   41.7330   33.4400   38.7720 N   0  0  0  0  0  0  0  0  0  0  0  0
   43.2780   34.2100   37.5310 H   0  0  0  0  0  0  0  0  0  0  0  0
   44.7900   34.6910   39.3940 H   0  0  0  0  0  0  0  0  0  0  0  0
   44.3240   34.2610   41.9980 C   0  0  0  0  0  0  0  0  0  0  0  0
   45.0620   35.4230   41.9240 C   0  0  0  0  0  0  0  0  0  0  0  0
   44.9850   36.1070   41.0890 H   0  0  0  0  0  0  0  0  0  0  0  0
   45.9200   35.6710   43.0020 C   0  0  0  0  0  0  0  0  0  0  0  0
   46.5330   36.5580   43.0260 H   0  0  0  0  0  0  0  0  0  0  0  0
   45.9490   34.7340   44.0330 C   0  0  0  0  0  3  0  0  0  0  0  0
   45.1920   33.5800   44.0650 C   0  0  0  0  0  3  0  0  0  0  0  0
   44.3710   33.3710   43.0070 N   0  0  0  0  0  0  0  0  0  0  0  0
  1  2  1  0  0  0  0
  2  3  2  0  0  0  0
  2  8  1  0  0  0  0
  3  4  1  0  0  0  0
  4  9  1  0  0  0  0
  4  5  2  0  0  0  0
  5 11  1  0  0  0  0
  6  5  1  0  0  0  0
  6  7  1  0  0  0  0
  8  6  2  0  0  0  0
 10  8  1  0  0  0  0
 11 20  1  0  0  0  0
 12 13  1  0  0  0  0
 12 11  2  0  0  0  0
 13 14  2  0  0  0  0
 14 15  1  0  0  0  0
 14 19  1  0  0  0  0
 15 16  2  0  0  0  0
 16 23  1  0  0  0  0
 16 17  1  0  0  0  0
 17 24  1  0  0  0  0
 18 17  2  0  0  0  0
 18 25  1  0  0  0  0
 19 18  1  0  0  0  0
 20 19  2  0  0  0  0
 20 26  1  0  0  0  0
 21 12  1  0  0  0  0
 22 13  1  0  0  0  0
 27 32  2  0  0  0  0
 27 28  1  0  0  0  0
 28 29  2  0  0  0  0
 29 30  1  0  0  0  0
 29 35  1  0  0  0  0
 31  3  1  0  0  0  0
 31 30  2  0  0  0  0
 32 31  1  0  0  0  0
 33 27  1  0  0  0  0
 34 28  1  0  0  0  0
 35 42  1  0  0  0  0
 36 35  2  0  0  0  0
 36 38  1  0  0  0  0
 37 36  1  0  0  0  0
 38 39  1  0  0  0  0
 38 40  2  0  0  0  0
 40 41  1  0  0  0  0
 42 41  2  0  0  0  0
M  END
>  <minimizedAffinity>
-7.07434177

$$$$

 OpenBabel03252506073D

 42 46  0  0  0  0  0  0  0  0999 V2000
   38.3170   30.3660   37.1910 Cl  0  0  0  0  0  0  0  0  0  0  0  0
   39.3400   31.3220   38.1990 C   0  0  0  0  0  0  0  0  0  0  0  0
   39.2290   31.2600   39.5660 C   0  0  0  0  0  0  0  0  0  0  0  0
   40.0910   32.0630   40.2820 C   0  0  0  0  0  0  0  0  0  0  0  0
   41.0300   32.8990   39.7250 C   0  0  0  0  0  0  0  0  0  0  0  0
   41.1150   32.9380   38.3620 C   0  0  0  0  0  0  0  0  0  0  0  0
   42.3230   34.0150   37.6810 Cl  0  0  0  0  0  0  0  0  0  0  0  0
   40.2800   32.1580   37.6040 C   0  0  0  0  0  0  0  0  0  0  0  0
   39.9880   32.0010   41.3750 H   0  0  0  0  0  0  0  0  0  0  0  0
   40.3910   32.2280   36.5230 H   0  0  0  0  0  0  0  0  0  0  0  0
   41.8570   33.6770   40.6610 C   0  0  0  0  0  0  0  0  0  0  0  0
   41.6880   35.0160   40.8860 C   0  0  0  0  0  0  0  0  0  0  0  0
   42.4610   35.7440   41.7600 C   0  0  0  0  0  0  0  0  0  0  0  0
   43.4670   35.1190   42.4620 C   0  0  0  0  0  0  0  0  0  0  0  0
   44.2070   35.8490   43.3080 N   0  0  0  0  0  0  0  0  0  0  0  0
   45.2160   35.3150   44.0390 C   0  0  0  0  0  0  0  0  0  0  0  0
   45.4480   33.9650   43.8650 C   0  0  0  0  0  0  0  0  0  0  0  0
   44.6970   33.2130   43.0020 C   0  0  0  0  0  0  0  0  0  0  0  0
   43.6710   33.7870   42.2700 C   0  0  0  0  0  0  0  0  0  0  0  0
   42.8880   33.0610   41.3860 C   0  0  0  0  0  0  0  0  0  0  0  0
   40.8930   35.4900   40.3250 H   0  0  0  0  0  0  0  0  0  0  0  0
   42.2620   36.8020   41.8810 H   0  0  0  0  0  0  0  0  0  0  0  0
   45.7420   35.9990   44.6850 H   0  0  0  0  0  0  0  0  0  0  0  0
   46.2660   33.5500   44.4600 H   0  0  0  0  0  0  0  0  0  0  0  0
   44.9070   32.1550   42.8900 H   0  0  0  0  0  0  0  0  0  0  0  0
   43.0900   31.9920   41.2660 H   0  0  0  0  0  0  0  0  0  0  0  0
   36.1010   30.1100   41.0580 C   0  0  0  0  0  0  0  0  0  0  0  0
   36.3920   28.8090   41.4730 C   0  0  0  0  0  0  0  0  0  0  0  0
   37.6950   28.3250   41.2300 C   0  0  0  0  0  0  0  0  0  0  0  0
   38.5740   29.1370   40.6180 N   0  0  0  0  0  0  0  0  0  0  0  0
   38.2610   30.4010   40.2250 C   0  0  0  0  0  0  0  0  0  0  0  0
   37.0200   30.8820   40.4480 N   0  0  0  0  0  0  0  0  0  0  0  0
   35.0950   30.4690   41.2510 H   0  0  0  0  0  0  0  0  0  0  0  0
   35.6710   28.1970   41.9540 H   0  0  0  0  0  0  0  0  0  0  0  0
   38.0330   26.9680   41.6510 C   0  0  0  0  0  0  0  0  0  0  0  0
   36.9960   26.0680   41.7760 C   0  0  0  0  0  0  0  0  0  0  0  0
   35.9670   26.3360   41.5740 H   0  0  0  0  0  0  0  0  0  0  0  0
   37.3540   24.7760   42.1810 C   0  0  0  0  0  0  0  0  0  0  0  0
   36.6060   24.0100   42.3040 H   0  0  0  0  0  0  0  0  0  0  0  0
   38.7040   24.5240   42.4170 C   0  0  0  0  0  3  0  0  0  0  0  0
   39.7120   25.4580   42.2790 C   0  0  0  0  0  3  0  0  0  0  0  0
   39.3310   26.6980   41.8850 N   0  0  0  0  0  0  0  0  0  0  0  0
  1  2  1  0  0  0  0
  2  3  1  0  0  0  0
  3 31  1  0  0  0  0
  3  4  2  0  0  0  0
  4  9  1  0  0  0  0
  5  4  1  0  0  0  0
  5 11  1  0  0  0  0
  6  5  2  0  0  0  0
  7  6  1  0  0  0  0
  8  2  2  0  0  0  0
  8  6  1  0  0  0  0
 10  8  1  0  0  0  0
 11 12  2  0  0  0  0
 11 20  1  0  0  0  0
 12 13  1  0  0  0  0
 13 22  1  0  0  0  0
 13 14  2  0  0  0  0
 14 15  1  0  0  0  0
 15 16  2  0  0  0  0
 16 23  1  0  0  0  0
 17 16  1  0  0  0  0
 17 24  1  0  0  0  0
 18 17  2  0  0  0  0
 19 14  1  0  0  0  0
 19 18  1  0  0  0  0
 20 19  2  0  0  0  0
 21 12  1  0  0  0  0
 25 18  1  0  0  0  0
 26 20  1  0  0  0  0
 27 33  1  0  0  0  0
 27 28  1  0  0  0  0
 28 34  1  0  0  0  0
 29 28  2  0  0  0  0
 29 35  1  0  0  0  0
 30 29  1  0  0  0  0
 31 32  1  0  0  0  0
 31 30  2  0  0  0  0
 32 27  2  0  0  0  0
 35 36  2  0  0  0  0
 35 42  1  0  0  0  0
 36 38  1  0  0  0  0
 37 36  1  0  0  0  0
 38 39  1  0  0  0  0
 38 40  2  0  0  0  0
 41 40  1  0  0  0  0
 42 41  2  0  0  0  0
M  END
>  <minimizedAffinity>
-7.06088352

$$$$

 OpenBabel03252506073D

 42 46  0  0  0  0  0  0  0  0999 V2000
   37.2560   34.2330   39.3180 Cl  0  0  0  0  0  0  0  0  0  0  0  0
   37.5840   32.5880   39.7230 C   0  0  0  0  0  0  0  0  0  0  0  0
   38.8730   32.1180   39.7450 C   0  0  0  0  0  0  0  0  0  0  0  0
   39.0300   30.7900   40.0810 C   0  0  0  0  0  0  0  0  0  0  0  0
   38.0010   29.9310   40.3870 C   0  0  0  0  0  0  0  0  0  0  0  0
   36.7280   30.4300   40.3560 C   0  0  0  0  0  0  0  0  0  0  0  0
   35.4360   29.3090   40.7510 Cl  0  0  0  0  0  0  0  0  0  0  0  0
   36.5190   31.7450   40.0280 C   0  0  0  0  0  0  0  0  0  0  0  0
   40.0690   30.4300   40.0930 H   0  0  0  0  0  0  0  0  0  0  0  0
   35.4860   32.0900   40.0190 H   0  0  0  0  0  0  0  0  0  0  0  0
   38.3730   28.5470   40.7200 C   0  0  0  0  0  0  0  0  0  0  0  0
   38.2520   27.5010   39.8460 C   0  0  0  0  0  0  0  0  0  0  0  0
   38.6000   26.2060   40.1560 C   0  0  0  0  0  0  0  0  0  0  0  0
   39.1010   25.9170   41.4060 C   0  0  0  0  0  0  0  0  0  0  0  0
   39.4330   24.6500   41.6850 N   0  0  0  0  0  0  0  0  0  0  0  0
   39.9330   24.2760   42.8880 C   0  0  0  0  0  0  0  0  0  0  0  0
   40.0840   25.2800   43.8240 C   0  0  0  0  0  0  0  0  0  0  0  0
   39.7460   26.5780   43.5470 C   0  0  0  0  0  0  0  0  0  0  0  0
   39.2390   26.9290   42.3070 C   0  0  0  0  0  0  0  0  0  0  0  0
   38.8850   28.2290   41.9860 C   0  0  0  0  0  0  0  0  0  0  0  0
   37.8570   27.7470   38.8690 H   0  0  0  0  0  0  0  0  0  0  0  0
   38.4730   25.4350   39.4060 H   0  0  0  0  0  0  0  0  0  0  0  0
   40.1640   23.2290   42.9970 H   0  0  0  0  0  0  0  0  0  0  0  0
   40.4870   24.9620   44.7900 H   0  0  0  0  0  0  0  0  0  0  0  0
   39.8770   27.3400   44.3060 H   0  0  0  0  0  0  0  0  0  0  0  0
   39.0140   29.0080   42.7440 H   0  0  0  0  0  0  0  0  0  0  0  0
   41.0260   35.0620   39.5640 C   0  0  0  0  0  0  0  0  0  0  0  0
   42.1450   34.6100   38.8640 C   0  0  0  0  0  0  0  0  0  0  0  0
   42.1520   33.2610   38.4480 C   0  0  0  0  0  0  0  0  0  0  0  0
   41.0880   32.4950   38.7490 N   0  0  0  0  0  0  0  0  0  0  0  0
   40.0110   32.9650   39.4330 C   0  0  0  0  0  0  0  0  0  0  0  0
   39.9860   34.2520   39.8390 N   0  0  0  0  0  0  0  0  0  0  0  0
   41.0340   36.1010   39.8770 H   0  0  0  0  0  0  0  0  0  0  0  0
   42.9670   35.2440   38.6460 H   0  0  0  0  0  0  0  0  0  0  0  0
   43.3080   32.7550   37.7140 C   0  0  0  0  0  0  0  0  0  0  0  0
   44.4590   33.5140   37.7450 C   0  0  0  0  0  0  0  0  0  0  0  0
   44.5230   34.4490   38.2870 H   0  0  0  0  0  0  0  0  0  0  0  0
   45.5490   33.0000   37.0320 C   0  0  0  0  0  0  0  0  0  0  0  0
   46.4870   33.5300   37.0030 H   0  0  0  0  0  0  0  0  0  0  0  0
   45.3720   31.7890   36.3660 C   0  0  0  0  0  3  0  0  0  0  0  0
   44.1990   31.0610   36.3620 C   0  0  0  0  0  3  0  0  0  0  0  0
   43.1640   31.5860   37.0630 N   0  0  0  0  0  0  0  0  0  0  0  0
  1  2  1  0  0  0  0
  2  3  2  0  0  0  0
  2  8  1  0  0  0  0
  3  4  1  0  0  0  0
  4  9  1  0  0  0  0
  4  5  2  0  0  0  0
  5 11  1  0  0  0  0
  6  5  1  0  0  0  0
  6  7  1  0  0  0  0
  8  6  2  0  0  0  0
 10  8  1  0  0  0  0
 11 20  1  0  0  0  0
 12 13  1  0  0  0  0
 12 11  2  0  0  0  0
 13 14  2  0  0  0  0
 14 15  1  0  0  0  0
 14 19  1  0  0  0  0
 15 16  2  0  0  0  0
 16 23  1  0  0  0  0
 16 17  1  0  0  0  0
 17 24  1  0  0  0  0
 18 17  2  0  0  0  0
 18 25  1  0  0  0  0
 19 18  1  0  0  0  0
 20 19  2  0  0  0  0
 20 26  1  0  0  0  0
 21 12  1  0  0  0  0
 22 13  1  0  0  0  0
 27 32  1  0  0  0  0
 27 33  1  0  0  0  0
 28 27  2  0  0  0  0
 29 30  2  0  0  0  0
 29 28  1  0  0  0  0
 30 31  1  0  0  0  0
 31  3  1  0  0  0  0
 31 32  2  0  0  0  0
 34 28  1  0  0  0  0
 35 36  1  0  0  0  0
 35 29  1  0  0  0  0
 36 37  1  0  0  0  0
 38 36  2  0  0  0  0
 39 38  1  0  0  0  0
 40 38  1  0  0  0  0
 41 40  2  0  0  0  0
 41 42  1  0  0  0  0
 42 35  2  0  0  0  0
M  END
>  <minimizedAffinity>
-6.73152494

$$$$

 OpenBabel03252506073D

 42 45  0  0  0  0  0  0  0  0999 V2000
   36.6960   30.2080   39.4200 Cl  0  0  0  0  0  0  0  0  0  0  0  0
   38.1700   30.7980   40.0960 C   0  0  0  0  0  0  0  0  0  0  0  0
   38.7680   30.1440   41.1450 C   0  0  0  0  0  0  0  0  0  0  0  0
   39.9410   30.6950   41.6130 C   0  0  0  0  0  0  0  0  0  0  0  0
   40.5330   31.8280   41.1070 C   0  0  0  0  0  0  0  0  0  0  0  0
   39.9130   32.4560   40.0630 C   0  0  0  0  0  3  0  0  0  0  0  0
   40.6930   33.9000   39.4390 Cl  0  0  0  0  0 15  0  0  0  0  0  0
   38.7430   31.9470   39.5600 C   0  0  0  0  0  0  0  0  0  0  0  0
   40.4070   30.1600   42.4540 H   0  0  0  0  0  0  0  0  0  0  0  0
   38.2910   32.4860   38.7280 H   0  0  0  0  0  0  0  0  0  0  0  0
   41.7870   32.2590   41.7450 C   0  0  0  0  0  0  0  0  0  0  0  0
   42.4510   31.5170   42.6850 C   0  0  0  0  0  0  0  0  0  0  0  0
   43.6240   31.9170   43.2810 C   0  0  0  0  0  0  0  0  0  0  0  0
   44.1850   33.1260   42.9360 C   0  0  0  0  0  0  0  0  0  0  0  0
   45.3270   33.4950   43.5300 N   0  0  0  0  0  0  0  0  0  0  0  0
   45.9480   34.6670   43.2500 C   0  0  0  0  0  0  0  0  0  0  0  0
   45.3370   35.4720   42.3100 C   0  0  0  0  0  0  0  0  0  0  0  0
   44.1680   35.1020   41.6980 C   0  0  0  0  0  0  0  0  0  0  0  0
   43.5580   33.8980   42.0050 C   0  0  0  0  0  0  0  0  0  0  0  0
   42.3770   33.4860   41.4090 C   0  0  0  0  0  0  0  0  0  0  0  0
   41.9950   30.5690   42.9440 H   0  0  0  0  0  0  0  0  0  0  0  0
   44.0860   31.2700   44.0170 H   0  0  0  0  0  0  0  0  0  0  0  0
   46.8610   34.8570   43.7900 H   0  0  0  0  0  0  0  0  0  0  0  0
   45.8490   36.4140   42.0950 H   0  0  0  0  0  0  0  0  0  0  0  0
   43.7150   35.7590   40.9640 H   0  0  0  0  0  0  0  0  0  0  0  0
   41.9110   34.1410   40.6660 H   0  0  0  0  0  0  0  0  0  0  0  0
   36.9980   27.9530   43.4680 C   0  0  0  0  0  0  0  0  0  0  0  0
   37.1110   26.6910   42.8830 C   0  0  0  0  0  0  0  0  0  0  0  0
   37.8140   26.6000   41.6620 C   0  0  0  0  0  0  0  0  0  0  0  0
   38.3290   27.7260   41.1380 N   0  0  0  0  0  0  0  0  0  0  0  0
   38.2010   28.9430   41.7320 C   0  0  0  0  0  0  0  0  0  0  0  0
   37.5340   29.0500   42.8990 N   0  0  0  0  0  0  0  0  0  0  0  0
   36.4550   28.0080   44.4070 H   0  0  0  0  0  0  0  0  0  0  0  0
   36.6910   25.8240   43.3280 H   0  0  0  0  0  0  0  0  0  0  0  0
   37.9510   25.2950   41.0230 C   0  0  0  0  0  0  0  0  0  0  0  0
   36.8740   24.4360   41.1000 C   0  0  0  0  0  0  0  0  0  0  0  0
   35.9560   24.7010   41.6090 H   0  0  0  0  0  0  0  0  0  0  0  0
   37.0380   23.1940   40.4770 C   0  0  0  0  0  0  0  0  0  0  0  0
   36.2460   22.4630   40.4900 H   0  0  0  0  0  0  0  0  0  0  0  0
   38.2550   22.9430   39.8450 C   0  0  0  0  0  3  0  0  0  0  0  0
   39.3080   23.8340   39.7920 C   0  0  0  0  0  3  0  0  0  0  0  0
   39.1170   25.0280   40.4050 N   0  0  0  0  0  0  0  0  0  0  0  0
  1  2  1  0  0  0  0
  2  3  1  0  0  0  0
  3  4  2  0  0  0  0
  3 31  1  0  0  0  0
  4  9  1  0  0  0  0
  5  4  1  0  0  0  0
  5 11  1  0  0  0  0
  6  5  2  0  0  0  0
  8  6  1  0  0  0  0
  8  2  2  0  0  0  0
 10  8  1  0  0  0  0
 11 12  1  0  0  0  0
 12 21  1  0  0  0  0
 12 13  2  0  0  0  0
 13 22  1  0  0  0  0
 14 13  1  0  0  0  0
 14 15  1  0  0  0  0
 16 15  2  0  0  0  0
 16 23  1  0  0  0  0
 17 16  1  0  0  0  0
 18 19  1  0  0  0  0
 18 17  2  0  0  0  0
 19 14  2  0  0  0  0
 20 11  2  0  0  0  0
 20 19  1  0  0  0  0
 24 17  1  0  0  0  0
 25 18  1  0  0  0  0
 26 20  1  0  0  0  0
 27 33  1  0  0  0  0
 28 34  1  0  0  0  0
 28 27  2  0  0  0  0
 29 28  1  0  0  0  0
 30 29  2  0  0  0  0
 30 31  1  0  0  0  0
 31 32  2  0  0  0  0
 32 27  1  0  0  0  0
 35 36  1  0  0  0  0
 35 29  1  0  0  0  0
 36 37  1  0  0  0  0
 38 39  1  0  0  0  0
 38 36  2  0  0  0  0
 40 38  1  0  0  0  0
 41 40  2  0  0  0  0
 41 42  1  0  0  0  0
 42 35  2  0  0  0  0
M  END
>  <minimizedAffinity>
-6.66850853

$$$$

 OpenBabel03252506073D

 42 46  0  0  0  0  0  0  0  0999 V2000
   38.0080   25.4550   40.9230 Cl  0  0  0  0  0  0  0  0  0  0  0  0
   36.9620   26.2650   39.8150 C   0  0  0  0  0  0  0  0  0  0  0  0
   36.7960   27.6260   39.8790 C   0  0  0  0  0  0  0  0  0  0  0  0
   35.9390   28.1770   38.9510 C   0  0  0  0  0  0  0  0  0  0  0  0
   35.2590   27.4660   37.9900 C   0  0  0  0  0  0  0  0  0  0  0  0
   35.4460   26.1130   37.9520 C   0  0  0  0  0  0  0  0  0  0  0  0
   34.5660   25.2320   36.7150 Cl  0  0  0  0  0  0  0  0  0  0  0  0
   36.2890   25.5150   38.8540 C   0  0  0  0  0  0  0  0  0  0  0  0
   35.8170   29.2680   39.0160 H   0  0  0  0  0  0  0  0  0  0  0  0
   36.4020   24.4350   38.7800 H   0  0  0  0  0  0  0  0  0  0  0  0
   34.3900   28.2380   37.0890 C   0  0  0  0  0  0  0  0  0  0  0  0
   34.6970   28.4980   35.7810 C   0  0  0  0  0  0  0  0  0  0  0  0
   33.8850   29.2200   34.9370 C   0  0  0  0  0  0  0  0  0  0  0  0
   32.6900   29.7200   35.4050 C   0  0  0  0  0  0  0  0  0  0  0  0
   31.9160   30.4200   34.5660 N   0  0  0  0  0  0  0  0  0  0  0  0
   30.7260   30.9480   34.9420 C   0  0  0  0  0  0  0  0  0  0  0  0
   30.3460   30.7270   36.2510 C   0  0  0  0  0  0  0  0  0  0  0  0
   31.1330   30.0140   37.1160 C   0  0  0  0  0  0  0  0  0  0  0  0
   32.3440   29.4850   36.7020 C   0  0  0  0  0  0  0  0  0  0  0  0
   33.1690   28.7580   37.5440 C   0  0  0  0  0  0  0  0  0  0  0  0
   35.6390   28.0970   35.4300 H   0  0  0  0  0  0  0  0  0  0  0  0
   34.2020   29.3810   33.9140 H   0  0  0  0  0  0  0  0  0  0  0  0
   30.1900   31.4910   34.1810 H   0  0  0  0  0  0  0  0  0  0  0  0
   29.3850   31.1600   36.5400 H   0  0  0  0  0  0  0  0  0  0  0  0
   30.8050   29.8600   38.1380 H   0  0  0  0  0  0  0  0  0  0  0  0
   32.8470   28.5950   38.5780 H   0  0  0  0  0  0  0  0  0  0  0  0
   38.1450   28.7470   43.0820 C   0  0  0  0  0  0  0  0  0  0  0  0
   38.7630   29.9600   42.7730 C   0  0  0  0  0  0  0  0  0  0  0  0
   38.7100   30.3950   41.4310 C   0  0  0  0  0  0  0  0  0  0  0  0
   38.0720   29.6210   40.5350 N   0  0  0  0  0  0  0  0  0  0  0  0
   37.4790   28.4430   40.8660 C   0  0  0  0  0  0  0  0  0  0  0  0
   37.5190   28.0110   42.1440 N   0  0  0  0  0  0  0  0  0  0  0  0
   38.1940   28.4250   44.1170 H   0  0  0  0  0  0  0  0  0  0  0  0
   39.2580   30.5430   43.5090 H   0  0  0  0  0  0  0  0  0  0  0  0
   39.3470   31.6590   41.0740 C   0  0  0  0  0  0  0  0  0  0  0  0
   38.5210   32.7040   40.7150 C   0  0  0  0  0  0  0  0  0  0  0  0
   37.4430   32.6110   40.6940 H   0  0  0  0  0  0  0  0  0  0  0  0
   39.1630   33.9020   40.3780 C   0  0  0  0  0  0  0  0  0  0  0  0
   38.5930   34.7690   40.0860 H   0  0  0  0  0  0  0  0  0  0  0  0
   40.5560   33.9260   40.4350 C   0  0  0  0  0  3  0  0  0  0  0  0
   41.3440   32.8530   40.8010 C   0  0  0  0  0  3  0  0  0  0  0  0
   40.6910   31.7100   41.1210 N   0  0  0  0  0  0  0  0  0  0  0  0
  2  3  1  0  0  0  0
  2  1  1  0  0  0  0
  3 31  1  0  0  0  0
  4  9  1  0  0  0  0
  4  3  2  0  0  0  0
  5  4  1  0  0  0  0
  6  5  2  0  0  0  0
  6  8  1  0  0  0  0
  7  6  1  0  0  0  0
  8  2  2  0  0  0  0
 10  8  1  0  0  0  0
 11 20  1  0  0  0  0
 11  5  1  0  0  0  0
 12 11  2  0  0  0  0
 13 14  2  0  0  0  0
 13 12  1  0  0  0  0
 14 19  1  0  0  0  0
 15 16  2  0  0  0  0
 15 14  1  0  0  0  0
 16 17  1  0  0  0  0
 17 24  1  0  0  0  0
 17 18  2  0  0  0  0
 18 25  1  0  0  0  0
 19 18  1  0  0  0  0
 19 20  2  0  0  0  0
 20 26  1  0  0  0  0
 21 12  1  0  0  0  0
 22 13  1  0  0  0  0
 23 16  1  0  0  0  0
 27 33  1  0  0  0  0
 28 27  1  0  0  0  0
 28 34  1  0  0  0  0
 29 28  2  0  0  0  0
 30 31  2  0  0  0  0
 30 29  1  0  0  0  0
 31 32  1  0  0  0  0
 32 27  2  0  0  0  0
 35 42  1  0  0  0  0
 35 29  1  0  0  0  0
 36 35  2  0  0  0  0
 37 36  1  0  0  0  0
 38 40  2  0  0  0  0
 38 36  1  0  0  0  0
 39 38  1  0  0  0  0
 40 41  1  0  0  0  0
 41 42  2  0  0  0  0
M  END
>  <minimizedAffinity>
-6.5629878

$$$$
