
 OpenBabel03252509233D

 26 28  0  0  1  0  0  0  0  0999 V2000
   46.9560   34.7390   41.9380 C   0  0  1  0  0  0  0  0  0  0  0  0
   48.3020   35.5110   41.9970 C   0  0  0  0  0  0  0  0  0  0  0  0
   48.1360   34.0160   41.6320 C   0  0  2  0  0  0  0  0  0  0  0  0
   46.2730   35.1410   41.1690 H   0  0  0  0  0  0  0  0  0  0  0  0
   48.7330   35.7700   42.9550 H   0  0  0  0  0  0  0  0  0  0  0  0
   48.5420   36.1570   41.1330 H   0  0  0  0  0  0  0  0  0  0  0  0
   48.6350   33.3560   42.3710 H   0  0  0  0  0  0  0  0  0  0  0  0
   44.7750   35.2160   44.9500 C   0  0  0  0  0  0  0  0  0  0  0  0
   45.3350   35.4560   43.6550 C   0  0  0  0  0  0  0  0  0  0  0  0
   46.3650   34.6210   43.3200 C   0  0  0  0  0  0  0  0  0  0  0  0
   46.8250   33.6240   44.1810 N   0  0  0  0  0  0  0  0  0  0  0  0
   46.2550   33.4580   45.3760 C   0  0  0  0  0  0  0  0  0  0  0  0
   45.2260   34.2520   45.7670 N   0  0  0  0  0  0  0  0  0  0  0  0
   43.9550   35.8430   45.2720 H   0  0  0  0  0  0  0  0  0  0  0  0
   46.7340   32.6460   45.9050 H   0  0  0  0  0  0  0  0  0  0  0  0
   44.8780   36.4970   42.8140 N   0  0  0  0  0  0  0  0  0  0  0  0
   44.7410   37.4360   43.2900 H   0  0  0  0  0  0  0  0  0  0  0  0
   44.6830   36.3910   41.8140 H   0  0  0  0  0  0  0  0  0  0  0  0
   48.3800   33.6590   40.1970 C   0  0  0  0  0  0  0  0  0  0  0  0
   48.9240   32.4150   39.9550 C   0  0  0  0  0  0  0  0  0  0  0  0
   49.1620   31.7360   40.7400 H   0  0  0  0  0  0  0  0  0  0  0  0
   49.1360   32.1220   38.6150 C   0  0  0  0  0  0  0  0  0  0  0  0
   49.5690   31.1320   38.4200 H   0  0  0  0  0  0  0  0  0  0  0  0
   48.8190   33.0210   37.6120 C   0  0  0  0  0  3  0  0  0  0  0  0
   48.2710   34.2650   37.9170 C   0  0  0  0  0  3  0  0  0  0  0  0
   48.0700   34.5390   39.2290 N   0  0  0  0  0  0  0  0  0  0  0  0
  1  4  1  6  0  0  0
  1  2  1  0  0  0  0
  1 10  1  0  0  0  0
  2  5  1  0  0  0  0
  3  1  1  0  0  0  0
  3  2  1  0  0  0  0
  3  7  1  1  0  0  0
  6  2  1  0  0  0  0
  8 14  1  0  0  0  0
  8 13  1  0  0  0  0
  9  8  2  0  0  0  0
 10  9  1  0  0  0  0
 10 11  2  0  0  0  0
 11 12  1  0  0  0  0
 12 13  2  0  0  0  0
 12 15  1  0  0  0  0
 16 17  1  0  0  0  0
 16  9  1  0  0  0  0
 18 16  1  0  0  0  0
 19  3  1  0  0  0  0
 20 19  1  0  0  0  0
 20 21  1  0  0  0  0
 22 20  2  0  0  0  0
 23 22  1  0  0  0  0
 24 25  2  0  0  0  0
 24 22  1  0  0  0  0
 25 26  1  0  0  0  0
 26 19  2  0  0  0  0
M  END
>  <minimizedAffinity>
-4.9308629

>  <minimizedRMSD>
0.890100598

$$$$
