
 OpenBabel03252509233D

 26 28  0  0  1  0  0  0  0  0999 V2000
   46.5170   35.0280   41.9470 C   0  0  1  0  0  0  0  0  0  0  0  0
   48.0440   35.3100   41.9270 C   0  0  0  0  0  0  0  0  0  0  0  0
   47.3540   34.0410   41.3690 C   0  0  2  0  0  0  0  0  0  0  0  0
   45.9450   35.7630   41.3530 H   0  0  0  0  0  0  0  0  0  0  0  0
   48.6180   35.2330   42.8410 H   0  0  0  0  0  0  0  0  0  0  0  0
   48.4120   35.9980   41.1440 H   0  0  0  0  0  0  0  0  0  0  0  0
   47.6640   33.1300   41.9210 H   0  0  0  0  0  0  0  0  0  0  0  0
   44.6550   35.4230   45.1770 C   0  0  0  0  0  0  0  0  0  0  0  0
   45.1170   35.7230   43.8560 C   0  0  0  0  0  0  0  0  0  0  0  0
   46.0420   34.8440   43.3660 C   0  0  0  0  0  0  0  0  0  0  0  0
   46.4960   33.7500   44.1050 N   0  0  0  0  0  0  0  0  0  0  0  0
   46.0210   33.5320   45.3330 C   0  0  0  0  0  0  0  0  0  0  0  0
   45.0980   34.3660   45.8770 N   0  0  0  0  0  0  0  0  0  0  0  0
   43.9210   36.0800   45.6200 H   0  0  0  0  0  0  0  0  0  0  0  0
   46.4780   32.6470   45.7550 H   0  0  0  0  0  0  0  0  0  0  0  0
   44.6730   36.8580   43.1400 N   0  0  0  0  0  0  0  0  0  0  0  0
   44.6540   37.7640   43.6940 H   0  0  0  0  0  0  0  0  0  0  0  0
   44.3830   36.8470   42.1570 H   0  0  0  0  0  0  0  0  0  0  0  0
   47.3400   33.9030   39.8770 C   0  0  0  0  0  0  0  0  0  0  0  0
   48.3430   34.5510   39.1860 C   0  0  0  0  0  0  0  0  0  0  0  0
   49.0930   35.1230   39.6800 H   0  0  0  0  0  0  0  0  0  0  0  0
   48.2950   34.3970   37.8090 C   0  0  0  0  0  0  0  0  0  0  0  0
   49.0930   34.9130   37.2570 H   0  0  0  0  0  0  0  0  0  0  0  0
   47.3090   33.6490   37.1910 C   0  0  0  0  0  3  0  0  0  0  0  0
   46.3200   33.0150   37.9400 C   0  0  0  0  0  3  0  0  0  0  0  0
   46.3780   33.1730   39.2850 N   0  0  0  0  0  0  0  0  0  0  0  0
  1  4  1  6  0  0  0
  1 10  1  0  0  0  0
  2  1  1  0  0  0  0
  2  5  1  0  0  0  0
  3  7  1  1  0  0  0
  3  2  1  0  0  0  0
  3  1  1  0  0  0  0
  6  2  1  0  0  0  0
  8 14  1  0  0  0  0
  8 13  1  0  0  0  0
  9  8  2  0  0  0  0
 10  9  1  0  0  0  0
 10 11  2  0  0  0  0
 11 12  1  0  0  0  0
 12 15  1  0  0  0  0
 12 13  2  0  0  0  0
 16 17  1  0  0  0  0
 16  9  1  0  0  0  0
 18 16  1  0  0  0  0
 19  3  1  0  0  0  0
 20 21  1  0  0  0  0
 20 19  2  0  0  0  0
 22 20  1  0  0  0  0
 23 22  1  0  0  0  0
 24 22  2  0  0  0  0
 24 25  1  0  0  0  0
 25 26  2  0  0  0  0
 26 19  1  0  0  0  0
M  END
>  <minimizedAffinity>
-5.39847469

>  <minimizedRMSD>
0.355362207

$$$$
