
 OpenBabel03242516073D

 35 38  0  0  0  0  0  0  0  0999 V2000
   40.6690   30.6350   38.6350 Cl  0  0  0  0  0  0  0  0  0  0  0  0
   39.4090   31.7580   39.0770 C   0  0  0  0  0  0  0  0  0  0  0  0
   39.6770   32.9800   39.6160 C   0  0  0  0  0  0  0  0  0  0  0  0
   38.6010   33.7690   39.9200 C   0  0  0  0  0  0  0  0  0  0  0  0
   37.3230   33.3790   39.7050 C   0  0  0  0  0  0  0  0  0  0  0  0
   37.0520   32.1540   39.1640 C   0  0  0  0  0  0  0  0  0  0  0  0
   38.1280   31.3310   38.8450 C   0  0  0  0  0  0  0  0  0  0  0  0
   38.7770   34.7450   40.3500 H   0  0  0  0  0  0  0  0  0  0  0  0
   36.5090   34.0530   39.9680 H   0  0  0  0  0  0  0  0  0  0  0  0
   36.0390   31.8750   39.0070 H   0  0  0  0  0  0  0  0  0  0  0  0
   43.2330   34.1610   39.0400 C   0  0  0  0  0  0  0  0  0  0  0  0
   41.8910   33.8140   38.7970 C   0  0  0  0  0  0  0  0  0  0  0  0
   41.0600   33.3460   39.8250 C   0  0  0  0  0  0  0  0  0  0  0  0
   41.6560   33.2600   41.0490 N   0  0  0  0  0  0  0  0  0  0  0  0
   42.9280   33.5930   41.2560 C   0  0  0  0  0  0  0  0  0  0  0  0
   43.7100   34.0340   40.2820 N   0  0  0  0  0  0  0  0  0  0  0  0
   43.8620   34.5210   38.2370 H   0  0  0  0  0  0  0  0  0  0  0  0
   41.4660   33.9010   37.8030 H   0  0  0  0  0  0  0  0  0  0  0  0
   43.2180   33.4570   42.2900 H   0  0  0  0  0  0  0  0  0  0  0  0
   37.8420   29.9970   38.2570 C   0  0  0  0  0  0  0  0  0  0  0  0
   37.6630   28.8470   39.0320 C   0  0  0  0  0  0  0  0  0  0  0  0
   37.3500   27.5510   37.7980 S   0  0  0  0  0  0  0  0  0  0  0  0
   37.5160   28.8160   36.3720 C   0  0  0  0  0  0  0  0  0  0  0  0
   37.7220   29.7290   36.9820 N   0  0  0  0  0  0  0  0  0  0  0  0
   37.3850   28.5170   34.9830 N   0  0  0  0  0  0  0  0  0  0  0  0
   38.2060   28.8290   34.4110 H   0  0  0  0  0  0  0  0  0  0  0  0
   36.4840   28.0360   34.7770 H   0  0  0  0  0  0  0  0  0  0  0  0
   37.7050   28.6610   40.4680 C   0  0  0  0  0  0  0  0  0  0  0  0
   36.5230   28.1370   41.0080 C   0  0  0  0  0  0  0  0  0  0  0  0
   35.6510   27.8950   40.3940 H   0  0  0  0  0  0  0  0  0  0  0  0
   36.4960   27.9320   42.3920 C   0  0  0  0  0  0  0  0  0  0  0  0
   35.5840   27.5260   42.8240 H   0  0  0  0  0  0  0  0  0  0  0  0
   37.5530   28.2120   43.2290 C   0  0  0  0  0  3  0  0  0  0  0  0
   38.6890   28.7290   42.6110 C   0  0  0  0  0  3  0  0  0  0  0  0
   38.7400   28.9330   41.3000 N   0  0  0  0  0  0  0  0  0  0  0  0
  1  2  1  0  0  0  0
  2  3  1  0  0  0  0
  3 13  1  0  0  0  0
  3  4  2  0  0  0  0
  4  8  1  0  0  0  0
  5  4  1  0  0  0  0
  5  9  1  0  0  0  0
  6  5  2  0  0  0  0
  7  2  2  0  0  0  0
  7  6  1  0  0  0  0
 10  6  1  0  0  0  0
 11 16  1  0  0  0  0
 12 11  2  0  0  0  0
 12 13  1  0  0  0  0
 13 14  2  0  0  0  0
 14 15  1  0  0  0  0
 15 19  1  0  0  0  0
 16 15  2  0  0  0  0
 17 11  1  0  0  0  0
 18 12  1  0  0  0  0
 20  7  1  0  0  0  0
 20 21  2  0  0  0  0
 21 28  1  0  0  0  0
 22 21  1  0  0  0  0
 23 24  2  0  0  0  0
 23 22  1  0  0  0  0
 24 20  1  0  0  0  0
 25 23  1  0  0  0  0
 26 25  1  0  0  0  0
 27 25  1  0  0  0  0
 28 29  2  0  0  0  0
 28 35  1  0  0  0  0
 29 31  1  0  0  0  0
 30 29  1  0  0  0  0
 31 32  1  0  0  0  0
 31 33  2  0  0  0  0
 34 33  1  0  0  0  0
 35 34  2  0  0  0  0
M  END
>  <minimizedAffinity>
-6.11445522

$$$$

 OpenBabel03242516073D

 35 38  0  0  0  0  0  0  0  0999 V2000
   38.5100   28.3660   39.4600 Cl  0  0  0  0  0  0  0  0  0  0  0  0
   37.9720   28.0880   41.0970 C   0  0  0  0  0  0  0  0  0  0  0  0
   37.5790   26.8600   41.5370 C   0  0  0  0  0  0  0  0  0  0  0  0
   37.1790   26.7720   42.8420 C   0  0  0  0  0  0  0  0  0  0  0  0
   37.1640   27.8380   43.6770 C   0  0  0  0  0  0  0  0  0  0  0  0
   37.5580   29.0710   43.2370 C   0  0  0  0  0  0  0  0  0  0  0  0
   37.9710   29.1870   41.9130 C   0  0  0  0  0  0  0  0  0  0  0  0
   36.8600   25.8130   43.2260 H   0  0  0  0  0  0  0  0  0  0  0  0
   36.8340   27.7030   44.7060 H   0  0  0  0  0  0  0  0  0  0  0  0
   37.5360   29.8880   43.9150 H   0  0  0  0  0  0  0  0  0  0  0  0
   36.6120   24.3450   38.8690 C   0  0  0  0  0  0  0  0  0  0  0  0
   36.5390   25.4280   39.7660 C   0  0  0  0  0  0  0  0  0  0  0  0
   37.6150   25.7570   40.6030 C   0  0  0  0  0  0  0  0  0  0  0  0
   38.7090   24.9540   40.4710 N   0  0  0  0  0  0  0  0  0  0  0  0
   38.7560   23.9350   39.6160 C   0  0  0  0  0  0  0  0  0  0  0  0
   37.7380   23.6260   38.8280 N   0  0  0  0  0  0  0  0  0  0  0  0
   35.7740   24.1040   38.2300 H   0  0  0  0  0  0  0  0  0  0  0  0
   35.6430   26.0360   39.8310 H   0  0  0  0  0  0  0  0  0  0  0  0
   39.7060   23.4160   39.6570 H   0  0  0  0  0  0  0  0  0  0  0  0
   38.4000   30.5240   41.4280 C   0  0  0  0  0  0  0  0  0  0  0  0
   39.7200   30.9760   41.5140 C   0  0  0  0  0  0  0  0  0  0  0  0
   39.6470   32.6370   40.7810 S   0  0  0  0  0  0  0  0  0  0  0  0
   37.7700   32.4530   40.4600 C   0  0  0  0  0  0  0  0  0  0  0  0
   37.6300   31.4250   40.8740 N   0  0  0  0  0  0  0  0  0  0  0  0
   36.9340   33.4390   39.8560 N   0  0  0  0  0  0  0  0  0  0  0  0
   36.0940   33.6840   40.4330 H   0  0  0  0  0  0  0  0  0  0  0  0
   37.3090   33.7470   38.9340 H   0  0  0  0  0  0  0  0  0  0  0  0
   40.9060   30.3340   42.0450 C   0  0  0  0  0  0  0  0  0  0  0  0
   41.6300   31.1290   42.9420 C   0  0  0  0  0  0  0  0  0  0  0  0
   41.3230   32.1440   43.2120 H   0  0  0  0  0  0  0  0  0  0  0  0
   42.7870   30.5680   43.4930 C   0  0  0  0  0  0  0  0  0  0  0  0
   43.3590   31.1750   44.1910 H   0  0  0  0  0  0  0  0  0  0  0  0
   43.2370   29.2990   43.2020 C   0  0  0  0  0  3  0  0  0  0  0  0
   42.4590   28.5770   42.3020 C   0  0  0  0  0  3  0  0  0  0  0  0
   41.3570   29.0870   41.7650 N   0  0  0  0  0  0  0  0  0  0  0  0
  1  2  1  0  0  0  0
  2  3  2  0  0  0  0
  2  7  1  0  0  0  0
  3  4  1  0  0  0  0
  4  8  1  0  0  0  0
  4  5  2  0  0  0  0
  5  9  1  0  0  0  0
  6  5  1  0  0  0  0
  6 10  1  0  0  0  0
  7  6  2  0  0  0  0
 11 12  1  0  0  0  0
 12 18  1  0  0  0  0
 12 13  2  0  0  0  0
 13  3  1  0  0  0  0
 14 13  1  0  0  0  0
 15 19  1  0  0  0  0
 15 14  2  0  0  0  0
 16 11  2  0  0  0  0
 16 15  1  0  0  0  0
 17 11  1  0  0  0  0
 20 21  2  0  0  0  0
 20  7  1  0  0  0  0
 21 28  1  0  0  0  0
 22 21  1  0  0  0  0
 23 22  1  0  0  0  0
 23 24  2  0  0  0  0
 24 20  1  0  0  0  0
 25 26  1  0  0  0  0
 25 23  1  0  0  0  0
 27 25  1  0  0  0  0
 28 29  1  0  0  0  0
 29 30  1  0  0  0  0
 29 31  2  0  0  0  0
 31 32  1  0  0  0  0
 33 31  1  0  0  0  0
 34 33  2  0  0  0  0
 35 28  2  0  0  0  0
 35 34  1  0  0  0  0
M  END
>  <minimizedAffinity>
-5.9949789

$$$$

 OpenBabel03242516073D

 35 38  0  0  0  0  0  0  0  0999 V2000
   40.6070   30.3900   38.2140 Cl  0  0  0  0  0  0  0  0  0  0  0  0
   39.3480   31.4290   38.8320 C   0  0  0  0  0  0  0  0  0  0  0  0
   39.5940   32.7020   39.2480 C   0  0  0  0  0  0  0  0  0  0  0  0
   38.5230   33.4160   39.7130 C   0  0  0  0  0  0  0  0  0  0  0  0
   37.2700   32.9050   39.7670 C   0  0  0  0  0  0  0  0  0  0  0  0
   37.0220   31.6280   39.3500 C   0  0  0  0  0  0  0  0  0  0  0  0
   38.0940   30.8800   38.8720 C   0  0  0  0  0  0  0  0  0  0  0  0
   38.6800   34.4310   40.0510 H   0  0  0  0  0  0  0  0  0  0  0  0
   36.4580   33.5240   40.1470 H   0  0  0  0  0  0  0  0  0  0  0  0
   36.0290   31.2540   39.4040 H   0  0  0  0  0  0  0  0  0  0  0  0
   43.1440   33.6890   40.1430 C   0  0  0  0  0  0  0  0  0  0  0  0
   41.8300   33.1980   40.2610 C   0  0  0  0  0  0  0  0  0  0  0  0
   40.9500   33.1980   39.1690 C   0  0  0  0  0  0  0  0  0  0  0  0
   41.4700   33.7020   38.0130 N   0  0  0  0  0  0  0  0  0  0  0  0
   42.7170   34.1610   37.9250 C   0  0  0  0  0  0  0  0  0  0  0  0
   43.5440   34.1610   38.9590 N   0  0  0  0  0  0  0  0  0  0  0  0
   43.8100   33.6830   40.9950 H   0  0  0  0  0  0  0  0  0  0  0  0
   41.4640   32.8070   41.2040 H   0  0  0  0  0  0  0  0  0  0  0  0
   42.9460   34.5200   36.9300 H   0  0  0  0  0  0  0  0  0  0  0  0
   37.8330   29.4900   38.4180 C   0  0  0  0  0  0  0  0  0  0  0  0
   37.7130   28.4120   39.2990 C   0  0  0  0  0  0  0  0  0  0  0  0
   37.4050   26.9980   38.1990 S   0  0  0  0  0  0  0  0  0  0  0  0
   37.4900   28.1310   36.6590 C   0  0  0  0  0  0  0  0  0  0  0  0
   37.6850   29.1020   37.1770 N   0  0  0  0  0  0  0  0  0  0  0  0
   37.3280   27.7020   35.3080 N   0  0  0  0  0  0  0  0  0  0  0  0
   38.1220   27.9830   34.6850 H   0  0  0  0  0  0  0  0  0  0  0  0
   36.4370   27.1790   35.1770 H   0  0  0  0  0  0  0  0  0  0  0  0
   37.8020   28.3590   40.7450 C   0  0  0  0  0  0  0  0  0  0  0  0
   36.6460   27.8740   41.3690 C   0  0  0  0  0  0  0  0  0  0  0  0
   35.7590   27.5650   40.8080 H   0  0  0  0  0  0  0  0  0  0  0  0
   36.6660   27.7970   42.7660 C   0  0  0  0  0  0  0  0  0  0  0  0
   35.7740   27.4210   43.2630 H   0  0  0  0  0  0  0  0  0  0  0  0
   37.7440   28.1670   43.5390 C   0  0  0  0  0  3  0  0  0  0  0  0
   38.8520   28.6380   42.8400 C   0  0  0  0  0  3  0  0  0  0  0  0
   38.8580   28.7210   41.5140 N   0  0  0  0  0  0  0  0  0  0  0  0
  1  2  1  0  0  0  0
  2  7  2  0  0  0  0
  2  3  1  0  0  0  0
  3  4  2  0  0  0  0
  4  5  1  0  0  0  0
  4  8  1  0  0  0  0
  5  9  1  0  0  0  0
  6 10  1  0  0  0  0
  6  5  2  0  0  0  0
  7  6  1  0  0  0  0
 11 12  1  0  0  0  0
 11 17  1  0  0  0  0
 12 18  1  0  0  0  0
 13  3  1  0  0  0  0
 13 12  2  0  0  0  0
 14 13  1  0  0  0  0
 15 14  2  0  0  0  0
 15 16  1  0  0  0  0
 16 11  2  0  0  0  0
 19 15  1  0  0  0  0
 20  7  1  0  0  0  0
 20 21  2  0  0  0  0
 21 28  1  0  0  0  0
 22 21  1  0  0  0  0
 23 24  2  0  0  0  0
 23 22  1  0  0  0  0
 24 20  1  0  0  0  0
 25 23  1  0  0  0  0
 26 25  1  0  0  0  0
 27 25  1  0  0  0  0
 28 29  2  0  0  0  0
 28 35  1  0  0  0  0
 29 31  1  0  0  0  0
 30 29  1  0  0  0  0
 31 32  1  0  0  0  0
 31 33  2  0  0  0  0
 34 33  1  0  0  0  0
 35 34  2  0  0  0  0
M  END
>  <minimizedAffinity>
-5.94772816

$$$$

 OpenBabel03242516073D

 35 38  0  0  0  0  0  0  0  0999 V2000
   38.4460   27.2960   39.5160 Cl  0  0  0  0  0  0  0  0  0  0  0  0
   37.7400   27.2780   41.1110 C   0  0  0  0  0  0  0  0  0  0  0  0
   37.3240   26.1290   41.7120 C   0  0  0  0  0  0  0  0  0  0  0  0
   36.7860   26.2470   42.9640 C   0  0  0  0  0  0  0  0  0  0  0  0
   36.6610   27.4370   43.5980 C   0  0  0  0  0  0  0  0  0  0  0  0
   37.0770   28.5910   42.9970 C   0  0  0  0  0  0  0  0  0  0  0  0
   37.6290   28.4990   41.7230 C   0  0  0  0  0  0  0  0  0  0  0  0
   36.4460   25.3550   43.4710 H   0  0  0  0  0  0  0  0  0  0  0  0
   36.2240   27.4650   44.5950 H   0  0  0  0  0  0  0  0  0  0  0  0
   36.9660   29.5100   43.5190 H   0  0  0  0  0  0  0  0  0  0  0  0
   36.6420   23.0870   39.5530 C   0  0  0  0  0  0  0  0  0  0  0  0
   36.4500   24.2990   40.2430 C   0  0  0  0  0  0  0  0  0  0  0  0
   37.4810   24.8850   40.9900 C   0  0  0  0  0  0  0  0  0  0  0  0
   38.6570   24.1940   40.9860 N   0  0  0  0  0  0  0  0  0  0  0  0
   38.8160   23.0480   40.3260 C   0  0  0  0  0  0  0  0  0  0  0  0
   37.8390   22.4970   39.6220 N   0  0  0  0  0  0  0  0  0  0  0  0
   35.8370   22.6470   38.9810 H   0  0  0  0  0  0  0  0  0  0  0  0
   35.4940   24.8100   40.2130 H   0  0  0  0  0  0  0  0  0  0  0  0
   39.8160   22.6500   40.4430 H   0  0  0  0  0  0  0  0  0  0  0  0
   38.0830   29.7490   41.0620 C   0  0  0  0  0  0  0  0  0  0  0  0
   37.4520   30.2870   39.9360 C   0  0  0  0  0  0  0  0  0  0  0  0
   38.4220   31.7820   39.5820 S   0  0  0  0  0  0  0  0  0  0  0  0
   39.5740   31.4330   41.0700 C   0  0  0  0  0  0  0  0  0  0  0  0
   39.0970   30.4900   41.4320 N   0  0  0  0  0  0  0  0  0  0  0  0
   40.6780   32.2430   41.4680 N   0  0  0  0  0  0  0  0  0  0  0  0
   41.5760   31.7110   41.5530 H   0  0  0  0  0  0  0  0  0  0  0  0
   40.3940   33.2360   41.6080 H   0  0  0  0  0  0  0  0  0  0  0  0
   36.3050   29.8200   39.1840 C   0  0  0  0  0  0  0  0  0  0  0  0
   35.1650   29.5940   39.9660 C   0  0  0  0  0  0  0  0  0  0  0  0
   35.1510   29.7570   41.0480 H   0  0  0  0  0  0  0  0  0  0  0  0
   34.0210   29.1420   39.3000 C   0  0  0  0  0  0  0  0  0  0  0  0
   33.1290   28.9630   39.8970 H   0  0  0  0  0  0  0  0  0  0  0  0
   33.9630   28.9150   37.9430 C   0  0  0  0  0  3  0  0  0  0  0  0
   35.1380   29.1650   37.2410 C   0  0  0  0  0  3  0  0  0  0  0  0
   36.2380   29.5940   37.8490 N   0  0  0  0  0  0  0  0  0  0  0  0
  1  2  1  0  0  0  0
  2  3  2  0  0  0  0
  2  7  1  0  0  0  0
  3  4  1  0  0  0  0
  4  8  1  0  0  0  0
  4  5  2  0  0  0  0
  5  9  1  0  0  0  0
  6 10  1  0  0  0  0
  6  5  1  0  0  0  0
  7  6  2  0  0  0  0
 11 16  2  0  0  0  0
 11 12  1  0  0  0  0
 12 13  2  0  0  0  0
 13  3  1  0  0  0  0
 14 13  1  0  0  0  0
 15 19  1  0  0  0  0
 15 14  2  0  0  0  0
 16 15  1  0  0  0  0
 17 11  1  0  0  0  0
 18 12  1  0  0  0  0
 20 24  1  0  0  0  0
 20  7  1  0  0  0  0
 21 20  2  0  0  0  0
 22 21  1  0  0  0  0
 22 23  1  0  0  0  0
 23 24  2  0  0  0  0
 23 25  1  0  0  0  0
 25 26  1  0  0  0  0
 25 27  1  0  0  0  0
 28 21  1  0  0  0  0
 28 29  1  0  0  0  0
 29 30  1  0  0  0  0
 31 32  1  0  0  0  0
 31 29  2  0  0  0  0
 33 31  1  0  0  0  0
 34 35  1  0  0  0  0
 34 33  2  0  0  0  0
 35 28  2  0  0  0  0
M  END
>  <minimizedAffinity>
-5.8776288

$$$$

 OpenBabel03242516073D

 35 38  0  0  0  0  0  0  0  0999 V2000
   39.8590   26.9300   40.5720 Cl  0  0  0  0  0  0  0  0  0  0  0  0
   38.6470   27.3030   41.7700 C   0  0  0  0  0  0  0  0  0  0  0  0
   37.5500   26.5200   41.9660 C   0  0  0  0  0  0  0  0  0  0  0  0
   36.6720   26.9190   42.9360 C   0  0  0  0  0  0  0  0  0  0  0  0
   36.8610   28.0350   43.6790 C   0  0  0  0  0  0  0  0  0  0  0  0
   37.9600   28.8230   43.4840 C   0  0  0  0  0  0  0  0  0  0  0  0
   38.8700   28.4380   42.5040 C   0  0  0  0  0  0  0  0  0  0  0  0
   35.7900   26.3210   43.1190 H   0  0  0  0  0  0  0  0  0  0  0  0
   36.1250   28.3010   44.4370 H   0  0  0  0  0  0  0  0  0  0  0  0
   38.0820   29.6920   44.0820 H   0  0  0  0  0  0  0  0  0  0  0  0
   37.7420   22.9590   40.6770 C   0  0  0  0  0  0  0  0  0  0  0  0
   37.9110   24.0850   41.5040 C   0  0  0  0  0  0  0  0  0  0  0  0
   37.3980   25.3390   41.1440 C   0  0  0  0  0  0  0  0  0  0  0  0
   36.7370   25.3670   39.9520 N   0  0  0  0  0  0  0  0  0  0  0  0
   36.5890   24.2890   39.1850 C   0  0  0  0  0  0  0  0  0  0  0  0
   37.0760   23.1060   39.5280 N   0  0  0  0  0  0  0  0  0  0  0  0
   38.1440   21.9980   40.9680 H   0  0  0  0  0  0  0  0  0  0  0  0
   38.4460   24.0090   42.4440 H   0  0  0  0  0  0  0  0  0  0  0  0
   36.0380   24.5090   38.2790 H   0  0  0  0  0  0  0  0  0  0  0  0
   40.0680   29.2880   42.2850 C   0  0  0  0  0  0  0  0  0  0  0  0
   40.1030   30.3270   41.3490 C   0  0  0  0  0  0  0  0  0  0  0  0
   41.7830   30.9960   41.5230 S   0  0  0  0  0  0  0  0  0  0  0  0
   42.1920   29.7180   42.8870 C   0  0  0  0  0  0  0  0  0  0  0  0
   41.2100   29.1850   42.9150 N   0  0  0  0  0  0  0  0  0  0  0  0
   43.4390   29.6090   43.5710 N   0  0  0  0  0  0  0  0  0  0  0  0
   43.8530   28.6470   43.5320 H   0  0  0  0  0  0  0  0  0  0  0  0
   43.7230   30.5170   43.9960 H   0  0  0  0  0  0  0  0  0  0  0  0
   39.0880   30.8060   40.4330 C   0  0  0  0  0  0  0  0  0  0  0  0
   38.5110   32.0260   40.8110 C   0  0  0  0  0  0  0  0  0  0  0  0
   38.8040   32.5610   41.7180 H   0  0  0  0  0  0  0  0  0  0  0  0
   37.5220   32.5450   39.9680 C   0  0  0  0  0  0  0  0  0  0  0  0
   37.0660   33.4920   40.2490 H   0  0  0  0  0  0  0  0  0  0  0  0
   37.1000   31.9300   38.8100 C   0  0  0  0  0  3  0  0  0  0  0  0
   37.7250   30.7230   38.5090 C   0  0  0  0  0  3  0  0  0  0  0  0
   38.6660   30.2080   39.2920 N   0  0  0  0  0  0  0  0  0  0  0  0
  1  2  1  0  0  0  0
  2  3  2  0  0  0  0
  2  7  1  0  0  0  0
  3  4  1  0  0  0  0
  4  8  1  0  0  0  0
  4  5  2  0  0  0  0
  5  9  1  0  0  0  0
  6  5  1  0  0  0  0
  6 10  1  0  0  0  0
  7  6  2  0  0  0  0
 11 17  1  0  0  0  0
 11 12  1  0  0  0  0
 12 18  1  0  0  0  0
 13 12  2  0  0  0  0
 13  3  1  0  0  0  0
 14 13  1  0  0  0  0
 15 16  1  0  0  0  0
 15 14  2  0  0  0  0
 16 11  2  0  0  0  0
 19 15  1  0  0  0  0
 20  7  1  0  0  0  0
 20 24  1  0  0  0  0
 21 22  1  0  0  0  0
 21 20  2  0  0  0  0
 22 23  1  0  0  0  0
 23 24  2  0  0  0  0
 23 25  1  0  0  0  0
 25 27  1  0  0  0  0
 26 25  1  0  0  0  0
 28 29  1  0  0  0  0
 28 21  1  0  0  0  0
 29 30  1  0  0  0  0
 31 32  1  0  0  0  0
 31 29  2  0  0  0  0
 33 31  1  0  0  0  0
 34 33  2  0  0  0  0
 34 35  1  0  0  0  0
 35 28  2  0  0  0  0
M  END
>  <minimizedAffinity>
-5.82826853

$$$$

 OpenBabel03242516073D

 35 38  0  0  0  0  0  0  0  0999 V2000
   38.3250   28.9590   38.0850 Cl  0  0  0  0  0  0  0  0  0  0  0  0
   36.7070   29.0050   38.7370 C   0  0  0  0  0  0  0  0  0  0  0  0
   35.6000   28.9590   37.9450 C   0  0  0  0  0  0  0  0  0  0  0  0
   34.3870   29.0030   38.5780 C   0  0  0  0  0  0  0  0  0  0  0  0
   34.2660   29.0880   39.9230 C   0  0  0  0  0  0  0  0  0  0  0  0
   35.3750   29.1350   40.7200 C   0  0  0  0  0  0  0  0  0  0  0  0
   36.6220   29.0910   40.1020 C   0  0  0  0  0  0  0  0  0  0  0  0
   33.4870   28.9680   37.9800 H   0  0  0  0  0  0  0  0  0  0  0  0
   33.2720   29.1200   40.3670 H   0  0  0  0  0  0  0  0  0  0  0  0
   35.2490   29.2010   41.7720 H   0  0  0  0  0  0  0  0  0  0  0  0
   35.7740   27.6380   34.3960 C   0  0  0  0  0  0  0  0  0  0  0  0
   35.5810   27.6860   35.7890 C   0  0  0  0  0  0  0  0  0  0  0  0
   35.7870   28.8680   36.5140 C   0  0  0  0  0  0  0  0  0  0  0  0
   36.1800   29.9390   35.7660 N   0  0  0  0  0  0  0  0  0  0  0  0
   36.3560   29.8700   34.4480 C   0  0  0  0  0  0  0  0  0  0  0  0
   36.1620   28.7510   33.7670 N   0  0  0  0  0  0  0  0  0  0  0  0
   35.6110   26.7190   33.8500 H   0  0  0  0  0  0  0  0  0  0  0  0
   35.2680   26.8050   36.3380 H   0  0  0  0  0  0  0  0  0  0  0  0
   36.6690   30.8200   34.0320 H   0  0  0  0  0  0  0  0  0  0  0  0
   37.8330   29.1410   40.9600 C   0  0  0  0  0  0  0  0  0  0  0  0
   38.4640   27.9950   41.4520 C   0  0  0  0  0  0  0  0  0  0  0  0
   39.8550   28.6590   42.4160 S   0  0  0  0  0  0  0  0  0  0  0  0
   39.3460   30.4520   41.9850 C   0  0  0  0  0  0  0  0  0  0  0  0
   38.4500   30.2250   41.3560 N   0  0  0  0  0  0  0  0  0  0  0  0
   40.0220   31.6300   42.4200 N   0  0  0  0  0  0  0  0  0  0  0  0
   39.3940   32.3180   42.9010 H   0  0  0  0  0  0  0  0  0  0  0  0
   41.0360   31.6010   42.1800 H   0  0  0  0  0  0  0  0  0  0  0  0
   38.1430   26.5920   41.2790 C   0  0  0  0  0  0  0  0  0  0  0  0
   37.2750   26.0830   42.2530 C   0  0  0  0  0  0  0  0  0  0  0  0
   36.8790   26.6950   43.0680 H   0  0  0  0  0  0  0  0  0  0  0  0
   36.9240   24.7330   42.1440 C   0  0  0  0  0  0  0  0  0  0  0  0
   36.2500   24.3250   42.8940 H   0  0  0  0  0  0  0  0  0  0  0  0
   37.3810   23.9000   41.1470 C   0  0  0  0  0  3  0  0  0  0  0  0
   38.2390   24.4860   40.2210 C   0  0  0  0  0  3  0  0  0  0  0  0
   38.5880   25.7650   40.3020 N   0  0  0  0  0  0  0  0  0  0  0  0
  1  2  1  0  0  0  0
  2  7  1  0  0  0  0
  3  4  1  0  0  0  0
  3  2  2  0  0  0  0
  4  5  2  0  0  0  0
  5  9  1  0  0  0  0
  5  6  1  0  0  0  0
  6 10  1  0  0  0  0
  7  6  2  0  0  0  0
  7 20  1  0  0  0  0
  8  4  1  0  0  0  0
 11 12  1  0  0  0  0
 12 18  1  0  0  0  0
 12 13  2  0  0  0  0
 13  3  1  0  0  0  0
 14 13  1  0  0  0  0
 15 14  2  0  0  0  0
 16 11  2  0  0  0  0
 16 15  1  0  0  0  0
 17 11  1  0  0  0  0
 19 15  1  0  0  0  0
 20 24  1  0  0  0  0
 20 21  2  0  0  0  0
 21 22  1  0  0  0  0
 23 22  1  0  0  0  0
 23 25  1  0  0  0  0
 24 23  2  0  0  0  0
 25 26  1  0  0  0  0
 27 25  1  0  0  0  0
 28 21  1  0  0  0  0
 28 29  1  0  0  0  0
 29 30  1  0  0  0  0
 31 29  2  0  0  0  0
 31 32  1  0  0  0  0
 33 31  1  0  0  0  0
 34 35  1  0  0  0  0
 34 33  2  0  0  0  0
 35 28  2  0  0  0  0
M  END
>  <minimizedAffinity>
-5.71145916

$$$$

 OpenBabel03242516073D

 35 38  0  0  0  0  0  0  0  0999 V2000
   37.0200   27.1510   38.6380 Cl  0  0  0  0  0  0  0  0  0  0  0  0
   36.9170   26.0040   39.9500 C   0  0  0  0  0  0  0  0  0  0  0  0
   36.6320   24.6880   39.7470 C   0  0  0  0  0  0  0  0  0  0  0  0
   36.5790   23.8910   40.8570 C   0  0  0  0  0  0  0  0  0  0  0  0
   36.7960   24.3620   42.1080 C   0  0  0  0  0  0  0  0  0  0  0  0
   37.0820   25.6820   42.3140 C   0  0  0  0  0  0  0  0  0  0  0  0
   37.1420   26.5150   41.2010 C   0  0  0  0  0  0  0  0  0  0  0  0
   36.3550   22.8400   40.7340 H   0  0  0  0  0  0  0  0  0  0  0  0
   36.7390   23.6760   42.9520 H   0  0  0  0  0  0  0  0  0  0  0  0
   37.2470   26.0220   43.3060 H   0  0  0  0  0  0  0  0  0  0  0  0
   34.9630   23.7500   36.4740 C   0  0  0  0  0  0  0  0  0  0  0  0
   35.1390   24.1940   37.7980 C   0  0  0  0  0  0  0  0  0  0  0  0
   36.4090   24.2390   38.3900 C   0  0  0  0  0  0  0  0  0  0  0  0
   37.4310   23.8250   37.5880 N   0  0  0  0  0  0  0  0  0  0  0  0
   37.2410   23.4090   36.3370 C   0  0  0  0  0  0  0  0  0  0  0  0
   36.0390   23.3670   35.7820 N   0  0  0  0  0  0  0  0  0  0  0  0
   33.9770   23.7220   36.0310 H   0  0  0  0  0  0  0  0  0  0  0  0
   34.2910   24.5130   38.3950 H   0  0  0  0  0  0  0  0  0  0  0  0
   38.1700   23.1220   35.8620 H   0  0  0  0  0  0  0  0  0  0  0  0
   37.4530   27.9520   41.4160 C   0  0  0  0  0  0  0  0  0  0  0  0
   38.7230   28.4090   41.7790 C   0  0  0  0  0  0  0  0  0  0  0  0
   38.5060   30.2100   41.8960 S   0  0  0  0  0  0  0  0  0  0  0  0
   36.6610   30.0570   41.4170 C   0  0  0  0  0  0  0  0  0  0  0  0
   36.6110   28.9460   41.2980 N   0  0  0  0  0  0  0  0  0  0  0  0
   35.7460   31.1440   41.2900 N   0  0  0  0  0  0  0  0  0  0  0  0
   34.8780   31.0270   41.8650 H   0  0  0  0  0  0  0  0  0  0  0  0
   36.1070   31.8740   40.6390 H   0  0  0  0  0  0  0  0  0  0  0  0
   39.9540   27.6840   42.0200 C   0  0  0  0  0  0  0  0  0  0  0  0
   40.2190   27.4490   43.3760 C   0  0  0  0  0  0  0  0  0  0  0  0
   39.5520   27.7860   44.1740 H   0  0  0  0  0  0  0  0  0  0  0  0
   41.3940   26.7520   43.6790 C   0  0  0  0  0  0  0  0  0  0  0  0
   41.6110   26.5630   44.7280 H   0  0  0  0  0  0  0  0  0  0  0  0
   42.2810   26.2960   42.7290 C   0  0  0  0  0  3  0  0  0  0  0  0
   41.9430   26.5720   41.4080 C   0  0  0  0  0  3  0  0  0  0  0  0
   40.8340   27.2310   41.0940 N   0  0  0  0  0  0  0  0  0  0  0  0
  1  2  1  0  0  0  0
  2  7  1  0  0  0  0
  3  2  2  0  0  0  0
  3  4  1  0  0  0  0
  4  5  2  0  0  0  0
  5  6  1  0  0  0  0
  5  9  1  0  0  0  0
  6 10  1  0  0  0  0
  7 20  1  0  0  0  0
  7  6  2  0  0  0  0
  8  4  1  0  0  0  0
 11 12  1  0  0  0  0
 12 13  2  0  0  0  0
 12 18  1  0  0  0  0
 13  3  1  0  0  0  0
 14 13  1  0  0  0  0
 15 14  2  0  0  0  0
 16 15  1  0  0  0  0
 16 11  2  0  0  0  0
 17 11  1  0  0  0  0
 19 15  1  0  0  0  0
 20 21  2  0  0  0  0
 21 22  1  0  0  0  0
 21 28  1  0  0  0  0
 23 22  1  0  0  0  0
 24 20  1  0  0  0  0
 24 23  2  0  0  0  0
 25 23  1  0  0  0  0
 25 26  1  0  0  0  0
 27 25  1  0  0  0  0
 28 29  1  0  0  0  0
 29 31  2  0  0  0  0
 29 30  1  0  0  0  0
 31 32  1  0  0  0  0
 33 31  1  0  0  0  0
 34 33  2  0  0  0  0
 35 34  1  0  0  0  0
 35 28  2  0  0  0  0
M  END
>  <minimizedAffinity>
-5.65961456

$$$$

 OpenBabel03242516073D

 35 38  0  0  0  0  0  0  0  0999 V2000
   39.8190   27.1880   40.0860 Cl  0  0  0  0  0  0  0  0  0  0  0  0
   38.7230   27.4190   41.4250 C   0  0  0  0  0  0  0  0  0  0  0  0
   39.1140   27.2730   42.7210 C   0  0  0  0  0  0  0  0  0  0  0  0
   38.1610   27.4810   43.6800 C   0  0  0  0  0  0  0  0  0  0  0  0
   36.8830   27.8160   43.3810 C   0  0  0  0  0  0  0  0  0  0  0  0
   36.4890   27.9620   42.0810 C   0  0  0  0  0  0  0  0  0  0  0  0
   37.4400   27.7570   41.0860 C   0  0  0  0  0  0  0  0  0  0  0  0
   38.4360   27.3750   44.7200 H   0  0  0  0  0  0  0  0  0  0  0  0
   36.1700   27.9680   44.1900 H   0  0  0  0  0  0  0  0  0  0  0  0
   35.4800   28.2250   41.8780 H   0  0  0  0  0  0  0  0  0  0  0  0
   42.2880   25.2790   43.2930 C   0  0  0  0  0  0  0  0  0  0  0  0
   40.9390   25.5870   43.0350 C   0  0  0  0  0  0  0  0  0  0  0  0
   40.4910   26.9150   42.9830 C   0  0  0  0  0  0  0  0  0  0  0  0
   41.4560   27.8540   43.1970 N   0  0  0  0  0  0  0  0  0  0  0  0
   42.7260   27.5400   43.4390 C   0  0  0  0  0  0  0  0  0  0  0  0
   43.1460   26.2840   43.4890 N   0  0  0  0  0  0  0  0  0  0  0  0
   42.6180   24.2500   43.3310 H   0  0  0  0  0  0  0  0  0  0  0  0
   40.2100   24.8010   42.8720 H   0  0  0  0  0  0  0  0  0  0  0  0
   43.3410   28.4190   43.5830 H   0  0  0  0  0  0  0  0  0  0  0  0
   37.0190   27.9130   39.6700 C   0  0  0  0  0  0  0  0  0  0  0  0
   37.1740   29.1070   38.9580 C   0  0  0  0  0  0  0  0  0  0  0  0
   36.4970   28.7120   37.3190 S   0  0  0  0  0  0  0  0  0  0  0  0
   36.0940   26.9260   37.8740 C   0  0  0  0  0  0  0  0  0  0  0  0
   36.4670   26.9900   38.9250 N   0  0  0  0  0  0  0  0  0  0  0  0
   35.4910   25.9230   37.0580 N   0  0  0  0  0  0  0  0  0  0  0  0
   34.6360   25.4960   37.4870 H   0  0  0  0  0  0  0  0  0  0  0  0
   36.0140   25.7880   36.1670 H   0  0  0  0  0  0  0  0  0  0  0  0
   37.7290   30.3830   39.3640 C   0  0  0  0  0  0  0  0  0  0  0  0
   36.7800   31.4080   39.4700 C   0  0  0  0  0  0  0  0  0  0  0  0
   35.7180   31.2510   39.2620 H   0  0  0  0  0  0  0  0  0  0  0  0
   37.2500   32.6670   39.8580 C   0  0  0  0  0  0  0  0  0  0  0  0
   36.5230   33.4720   39.9440 H   0  0  0  0  0  0  0  0  0  0  0  0
   38.5710   32.9400   40.1350 C   0  0  0  0  0  3  0  0  0  0  0  0
   39.4480   31.8660   40.0060 C   0  0  0  0  0  3  0  0  0  0  0  0
   39.0270   30.6610   39.6390 N   0  0  0  0  0  0  0  0  0  0  0  0
  1  2  1  0  0  0  0
  2  3  1  0  0  0  0
  3 13  1  0  0  0  0
  3  4  2  0  0  0  0
  4  8  1  0  0  0  0
  5  4  1  0  0  0  0
  5  9  1  0  0  0  0
  6  5  2  0  0  0  0
  7  2  2  0  0  0  0
  7  6  1  0  0  0  0
 10  6  1  0  0  0  0
 11 17  1  0  0  0  0
 11 16  1  0  0  0  0
 12 11  2  0  0  0  0
 13 12  1  0  0  0  0
 13 14  2  0  0  0  0
 14 15  1  0  0  0  0
 15 16  2  0  0  0  0
 15 19  1  0  0  0  0
 18 12  1  0  0  0  0
 20  7  1  0  0  0  0
 21 28  1  0  0  0  0
 21 20  2  0  0  0  0
 22 23  1  0  0  0  0
 22 21  1  0  0  0  0
 23 24  2  0  0  0  0
 24 20  1  0  0  0  0
 25 26  1  0  0  0  0
 25 23  1  0  0  0  0
 27 25  1  0  0  0  0
 28 29  2  0  0  0  0
 28 35  1  0  0  0  0
 29 31  1  0  0  0  0
 30 29  1  0  0  0  0
 31 32  1  0  0  0  0
 31 33  2  0  0  0  0
 34 33  1  0  0  0  0
 35 34  2  0  0  0  0
M  END
>  <minimizedAffinity>
-5.60656929

$$$$

 OpenBabel03242516073D

 35 38  0  0  0  0  0  0  0  0999 V2000
   38.2080   28.2640   39.4230 Cl  0  0  0  0  0  0  0  0  0  0  0  0
   37.7370   28.1380   41.0990 C   0  0  0  0  0  0  0  0  0  0  0  0
   37.6840   29.2200   41.9250 C   0  0  0  0  0  0  0  0  0  0  0  0
   37.3000   28.9900   43.2180 C   0  0  0  0  0  0  0  0  0  0  0  0
   36.9830   27.7570   43.6790 C   0  0  0  0  0  0  0  0  0  0  0  0
   37.0360   26.6710   42.8520 C   0  0  0  0  0  0  0  0  0  0  0  0
   37.4230   26.8770   41.5310 C   0  0  0  0  0  0  0  0  0  0  0  0
   37.2470   29.8260   43.9010 H   0  0  0  0  0  0  0  0  0  0  0  0
   36.6840   27.6390   44.7200 H   0  0  0  0  0  0  0  0  0  0  0  0
   36.7810   25.7160   43.2420 H   0  0  0  0  0  0  0  0  0  0  0  0
   39.6180   32.3310   40.9450 C   0  0  0  0  0  0  0  0  0  0  0  0
   39.3170   31.0680   41.4890 C   0  0  0  0  0  0  0  0  0  0  0  0
   38.0340   30.5130   41.3800 C   0  0  0  0  0  0  0  0  0  0  0  0
   37.1290   31.2860   40.7140 N   0  0  0  0  0  0  0  0  0  0  0  0
   37.4360   32.4790   40.2070 C   0  0  0  0  0  0  0  0  0  0  0  0
   38.6490   33.0000   40.3140 N   0  0  0  0  0  0  0  0  0  0  0  0
   40.6120   32.7460   41.0380 H   0  0  0  0  0  0  0  0  0  0  0  0
   40.0740   30.4930   42.0100 H   0  0  0  0  0  0  0  0  0  0  0  0
   36.5880   32.9400   39.7170 H   0  0  0  0  0  0  0  0  0  0  0  0
   37.4830   25.7010   40.6260 C   0  0  0  0  0  0  0  0  0  0  0  0
   38.6420   24.9410   40.4420 C   0  0  0  0  0  0  0  0  0  0  0  0
   38.1280   23.6670   39.2530 S   0  0  0  0  0  0  0  0  0  0  0  0
   36.3570   24.3880   39.1880 C   0  0  0  0  0  0  0  0  0  0  0  0
   36.4950   25.2340   39.9050 N   0  0  0  0  0  0  0  0  0  0  0  0
   35.2840   23.8760   38.4000 N   0  0  0  0  0  0  0  0  0  0  0  0
   34.8400   24.5960   37.7820 H   0  0  0  0  0  0  0  0  0  0  0  0
   35.1270   22.8610   38.5800 H   0  0  0  0  0  0  0  0  0  0  0  0
   39.9630   25.0790   41.0220 C   0  0  0  0  0  0  0  0  0  0  0  0
   40.9520   25.4510   40.1020 C   0  0  0  0  0  0  0  0  0  0  0  0
   40.7390   25.6190   39.0430 H   0  0  0  0  0  0  0  0  0  0  0  0
   42.2520   25.6010   40.5980 C   0  0  0  0  0  0  0  0  0  0  0  0
   43.0290   25.8900   39.8940 H   0  0  0  0  0  0  0  0  0  0  0  0
   42.5970   25.4070   41.9170 C   0  0  0  0  0  3  0  0  0  0  0  0
   41.5540   25.0400   42.7630 C   0  0  0  0  0  3  0  0  0  0  0  0
   40.3120   24.8900   42.3180 N   0  0  0  0  0  0  0  0  0  0  0  0
  1  2  1  0  0  0  0
  2  7  2  0  0  0  0
  2  3  1  0  0  0  0
  3  4  2  0  0  0  0
  4  5  1  0  0  0  0
  4  8  1  0  0  0  0
  5  9  1  0  0  0  0
  6 10  1  0  0  0  0
  6  5  2  0  0  0  0
  7  6  1  0  0  0  0
 11 17  1  0  0  0  0
 11 12  1  0  0  0  0
 12 18  1  0  0  0  0
 13 12  2  0  0  0  0
 13  3  1  0  0  0  0
 14 13  1  0  0  0  0
 15 16  1  0  0  0  0
 15 14  2  0  0  0  0
 16 11  2  0  0  0  0
 19 15  1  0  0  0  0
 20  7  1  0  0  0  0
 21 20  2  0  0  0  0
 21 28  1  0  0  0  0
 22 21  1  0  0  0  0
 23 22  1  0  0  0  0
 23 24  2  0  0  0  0
 24 20  1  0  0  0  0
 25 27  1  0  0  0  0
 25 23  1  0  0  0  0
 26 25  1  0  0  0  0
 28 35  1  0  0  0  0
 29 31  1  0  0  0  0
 29 28  2  0  0  0  0
 30 29  1  0  0  0  0
 31 33  2  0  0  0  0
 32 31  1  0  0  0  0
 33 34  1  0  0  0  0
 35 34  2  0  0  0  0
M  END
>  <minimizedAffinity>
-5.59665775

$$$$
