
 OpenBabel03242522243D

 27 29  0  0  0  0  0  0  0  0999 V2000
   39.5240   33.9900   40.1050 C   0  0  0  0  0  0  0  0  0  0  0  0
   38.8810   32.9770   40.8440 C   0  0  0  0  0  0  0  0  0  0  0  0
   39.2330   31.6430   40.6900 C   0  0  0  0  0  0  0  0  0  0  0  0
   40.2210   31.3820   39.7970 N   0  0  0  0  0  0  0  0  0  0  0  0
   40.8260   32.3540   39.0990 C   0  0  0  0  0  0  0  0  0  0  0  0
   40.4880   33.6300   39.2470 N   0  0  0  0  0  0  0  0  0  0  0  0
   39.2080   35.0270   40.2630 H   0  0  0  0  0  0  0  0  0  0  0  0
   38.1030   33.2510   41.5380 H   0  0  0  0  0  0  0  0  0  0  0  0
   36.7550   30.7170   39.4120 Cl  0  0  0  0  0  0  0  0  0  0  0  0
   37.3940   30.0750   40.9270 C   0  0  0  0  0  0  0  0  0  0  0  0
   38.5740   30.5800   41.4520 C   0  0  0  0  0  0  0  0  0  0  0  0
   39.0280   30.0510   42.6290 C   0  0  0  0  0  0  0  0  0  0  0  0
   38.3370   29.0440   43.2800 C   0  0  0  0  0  0  0  0  0  0  0  0
   37.1600   28.5750   42.7110 C   0  0  0  0  0  0  0  0  0  0  0  0
   36.2670   27.3020   43.5160 Cl  0  0  0  0  0  0  0  0  0  0  0  0
   36.6560   29.0710   41.5290 C   0  0  0  0  0  0  0  0  0  0  0  0
   39.9460   30.4480   43.0300 H   0  0  0  0  0  0  0  0  0  0  0  0
   38.7220   28.6590   44.1920 H   0  0  0  0  0  0  0  0  0  0  0  0
   35.7390   28.7130   41.0760 H   0  0  0  0  0  0  0  0  0  0  0  0
   41.8820   31.9290   38.1630 C   0  0  0  0  0  0  0  0  0  0  0  0
   41.6080   30.8810   37.3010 C   0  0  0  0  0  0  0  0  0  0  0  0
   40.6710   30.3460   37.2600 H   0  0  0  0  0  0  0  0  0  0  0  0
   42.6030   30.4860   36.4250 C   0  0  0  0  0  0  0  0  0  0  0  0
   42.5250   29.6830   35.6990 H   0  0  0  0  0  0  0  0  0  0  0  0
   43.7950   31.1800   36.4890 C   0  0  0  0  0  3  0  0  0  0  0  0
   44.0800   32.2310   37.3500 C   0  0  0  0  0  3  0  0  0  0  0  0
   43.0610   32.5720   38.1860 N   0  0  0  0  0  0  0  0  0  0  0  0
  1  7  1  0  0  0  0
  1  2  1  0  0  0  0
  2  8  1  0  0  0  0
  3  2  2  0  0  0  0
  3 11  1  0  0  0  0
  4  3  1  0  0  0  0
  5  6  1  0  0  0  0
  5  4  2  0  0  0  0
  6  1  2  0  0  0  0
  9 10  1  0  0  0  0
 10 11  2  0  0  0  0
 10 16  1  0  0  0  0
 11 12  1  0  0  0  0
 12 17  1  0  0  0  0
 12 13  2  0  0  0  0
 13 18  1  0  0  0  0
 14 13  1  0  0  0  0
 14 15  1  0  0  0  0
 16 14  2  0  0  0  0
 19 16  1  0  0  0  0
 20 27  1  0  0  0  0
 20  5  1  0  0  0  0
 21 20  2  0  0  0  0
 22 21  1  0  0  0  0
 23 25  2  0  0  0  0
 23 21  1  0  0  0  0
 24 23  1  0  0  0  0
 25 26  1  0  0  0  0
 26 27  2  0  0  0  0
M  END
>  <minimizedAffinity>
-5.41853619

$$$$

 OpenBabel03242522243D

 27 29  0  0  0  0  0  0  0  0999 V2000
   37.2190   32.6150   40.0580 C   0  0  0  0  0  0  0  0  0  0  0  0
   36.9450   31.2940   40.4640 C   0  0  0  0  0  0  0  0  0  0  0  0
   37.8270   30.2590   40.1830 C   0  0  0  0  0  0  0  0  0  0  0  0
   38.9520   30.5970   39.5030 N   0  0  0  0  0  0  0  0  0  0  0  0
   39.2020   31.8580   39.1210 C   0  0  0  0  0  0  0  0  0  0  0  0
   38.3580   32.8470   39.3910 N   0  0  0  0  0  0  0  0  0  0  0  0
   36.4910   33.3940   40.3040 H   0  0  0  0  0  0  0  0  0  0  0  0
   36.0340   31.0910   41.0020 H   0  0  0  0  0  0  0  0  0  0  0  0
   38.7060   29.7230   42.9350 Cl  0  0  0  0  0  0  0  0  0  0  0  0
   37.9340   28.5310   41.8860 C   0  0  0  0  0  0  0  0  0  0  0  0
   37.5560   28.8810   40.5990 C   0  0  0  0  0  0  0  0  0  0  0  0
   36.9610   27.9220   39.8240 C   0  0  0  0  0  0  0  0  0  0  0  0
   36.7430   26.6430   40.3030 C   0  0  0  0  0  0  0  0  0  0  0  0
   37.1430   26.3450   41.6000 C   0  0  0  0  0  0  0  0  0  0  0  0
   36.8780   24.7330   42.2290 Cl  0  0  0  0  0  0  0  0  0  0  0  0
   37.7450   27.2700   42.4230 C   0  0  0  0  0  0  0  0  0  0  0  0
   36.6690   28.2030   38.8260 H   0  0  0  0  0  0  0  0  0  0  0  0
   36.2790   25.9260   39.6710 H   0  0  0  0  0  0  0  0  0  0  0  0
   38.0600   27.0490   43.4360 H   0  0  0  0  0  0  0  0  0  0  0  0
   40.4610   32.0830   38.3890 C   0  0  0  0  0  0  0  0  0  0  0  0
   41.0290   31.0120   37.7210 C   0  0  0  0  0  0  0  0  0  0  0  0
   40.6180   30.0140   37.6930 H   0  0  0  0  0  0  0  0  0  0  0  0
   42.2120   31.2300   37.0350 C   0  0  0  0  0  0  0  0  0  0  0  0
   42.7630   30.4840   36.4720 H   0  0  0  0  0  0  0  0  0  0  0  0
   42.7250   32.5110   37.0790 C   0  0  0  0  0  3  0  0  0  0  0  0
   42.1630   33.5910   37.7460 C   0  0  0  0  0  3  0  0  0  0  0  0
   41.0020   33.3130   38.4010 N   0  0  0  0  0  0  0  0  0  0  0  0
  1  7  1  0  0  0  0
  1  2  1  0  0  0  0
  2  8  1  0  0  0  0
  3  2  2  0  0  0  0
  3 11  1  0  0  0  0
  4  3  1  0  0  0  0
  5  6  1  0  0  0  0
  5  4  2  0  0  0  0
  6  1  2  0  0  0  0
 10 16  1  0  0  0  0
 10  9  1  0  0  0  0
 11 10  2  0  0  0  0
 12 13  2  0  0  0  0
 12 11  1  0  0  0  0
 13 14  1  0  0  0  0
 14 15  1  0  0  0  0
 14 16  2  0  0  0  0
 16 19  1  0  0  0  0
 17 12  1  0  0  0  0
 18 13  1  0  0  0  0
 20 27  1  0  0  0  0
 20  5  1  0  0  0  0
 21 20  2  0  0  0  0
 22 21  1  0  0  0  0
 23 25  2  0  0  0  0
 23 21  1  0  0  0  0
 24 23  1  0  0  0  0
 25 26  1  0  0  0  0
 26 27  2  0  0  0  0
M  END
>  <minimizedAffinity>
-5.19525814

$$$$

 OpenBabel03242522243D

 27 29  0  0  0  0  0  0  0  0999 V2000
   36.9680   30.2340   41.7400 C   0  0  0  0  0  0  0  0  0  0  0  0
   36.1760   30.2330   40.5740 C   0  0  0  0  0  0  0  0  0  0  0  0
   35.9470   29.0620   39.8640 C   0  0  0  0  0  0  0  0  0  0  0  0
   36.5260   27.9380   40.3570 N   0  0  0  0  0  0  0  0  0  0  0  0
   37.2780   27.9510   41.4680 C   0  0  0  0  0  0  0  0  0  0  0  0
   37.4960   29.0720   42.1460 N   0  0  0  0  0  0  0  0  0  0  0  0
   37.1180   31.1850   42.2630 H   0  0  0  0  0  0  0  0  0  0  0  0
   35.7440   31.1590   40.2350 H   0  0  0  0  0  0  0  0  0  0  0  0
   37.5570   29.2640   37.4140 Cl  0  0  0  0  0  0  0  0  0  0  0  0
   35.7960   29.1340   37.4410 C   0  0  0  0  0  0  0  0  0  0  0  0
   35.1260   29.0450   38.6520 C   0  0  0  0  0  0  0  0  0  0  0  0
   33.7610   28.9470   38.6210 C   0  0  0  0  0  0  0  0  0  0  0  0
   33.0670   28.9370   37.4240 C   0  0  0  0  0  0  0  0  0  0  0  0
   33.7870   29.0300   36.2400 C   0  0  0  0  0  0  0  0  0  0  0  0
   32.9320   29.0200   34.7140 Cl  0  0  0  0  0  0  0  0  0  0  0  0
   35.1610   29.1310   36.2120 C   0  0  0  0  0  0  0  0  0  0  0  0
   33.2480   28.8760   39.5660 H   0  0  0  0  0  0  0  0  0  0  0  0
   32.0070   28.8590   37.4420 H   0  0  0  0  0  0  0  0  0  0  0  0
   35.7340   29.2040   35.2950 H   0  0  0  0  0  0  0  0  0  0  0  0
   37.8460   26.6590   41.8900 C   0  0  0  0  0  0  0  0  0  0  0  0
   37.1310   25.5080   41.6100 C   0  0  0  0  0  0  0  0  0  0  0  0
   36.1790   25.4820   41.0990 H   0  0  0  0  0  0  0  0  0  0  0  0
   37.6680   24.2970   42.0100 C   0  0  0  0  0  0  0  0  0  0  0  0
   37.2170   23.3230   41.8550 H   0  0  0  0  0  0  0  0  0  0  0  0
   38.8850   24.3460   42.6600 C   0  0  0  0  0  3  0  0  0  0  0  0
   39.6100   25.4950   42.9470 C   0  0  0  0  0  3  0  0  0  0  0  0
   39.0280   26.6530   42.5290 N   0  0  0  0  0  0  0  0  0  0  0  0
  1  6  1  0  0  0  0
  1  7  1  0  0  0  0
  2  1  2  0  0  0  0
  3  4  2  0  0  0  0
  3  2  1  0  0  0  0
  4  5  1  0  0  0  0
  5 20  1  0  0  0  0
  5  6  2  0  0  0  0
  8  2  1  0  0  0  0
  9 10  1  0  0  0  0
 10 11  1  0  0  0  0
 11  3  1  0  0  0  0
 12 11  2  0  0  0  0
 12 17  1  0  0  0  0
 13 18  1  0  0  0  0
 13 12  1  0  0  0  0
 14 13  2  0  0  0  0
 15 14  1  0  0  0  0
 16 14  1  0  0  0  0
 16 10  2  0  0  0  0
 19 16  1  0  0  0  0
 20 27  1  0  0  0  0
 21 20  2  0  0  0  0
 21 23  1  0  0  0  0
 22 21  1  0  0  0  0
 23 25  2  0  0  0  0
 24 23  1  0  0  0  0
 25 26  1  0  0  0  0
 27 26  2  0  0  0  0
M  END
>  <minimizedAffinity>
-5.14986992

$$$$

 OpenBabel03242522243D

 27 29  0  0  0  0  0  0  0  0999 V2000
   37.3250   32.5040   40.1960 C   0  0  0  0  0  0  0  0  0  0  0  0
   37.0080   31.1760   40.5450 C   0  0  0  0  0  0  0  0  0  0  0  0
   37.9650   30.3290   41.0860 C   0  0  0  0  0  0  0  0  0  0  0  0
   39.2050   30.8530   41.2540 N   0  0  0  0  0  0  0  0  0  0  0  0
   39.4960   32.1180   40.9180 C   0  0  0  0  0  0  0  0  0  0  0  0
   38.5790   32.9280   40.4010 N   0  0  0  0  0  0  0  0  0  0  0  0
   36.5330   33.1310   39.7720 H   0  0  0  0  0  0  0  0  0  0  0  0
   36.0030   30.8200   40.3870 H   0  0  0  0  0  0  0  0  0  0  0  0
   38.4810   28.4370   38.8970 Cl  0  0  0  0  0  0  0  0  0  0  0  0
   37.8620   27.9770   40.4850 C   0  0  0  0  0  0  0  0  0  0  0  0
   37.6500   28.9470   41.4540 C   0  0  0  0  0  0  0  0  0  0  0  0
   37.1690   28.5400   42.6700 C   0  0  0  0  0  0  0  0  0  0  0  0
   36.9000   27.2080   42.9290 C   0  0  0  0  0  0  0  0  0  0  0  0
   37.1290   26.2790   41.9220 C   0  0  0  0  0  0  0  0  0  0  0  0
   36.7970   24.5880   42.2260 Cl  0  0  0  0  0  0  0  0  0  0  0  0
   37.6130   26.6310   40.6810 C   0  0  0  0  0  0  0  0  0  0  0  0
   37.0080   29.2990   43.4170 H   0  0  0  0  0  0  0  0  0  0  0  0
   36.5270   26.9330   43.8850 H   0  0  0  0  0  0  0  0  0  0  0  0
   37.7950   25.9150   39.8890 H   0  0  0  0  0  0  0  0  0  0  0  0
   40.8820   32.5570   41.1530 C   0  0  0  0  0  0  0  0  0  0  0  0
   41.3190   33.7080   40.5210 C   0  0  0  0  0  0  0  0  0  0  0  0
   40.7180   34.3160   39.8620 H   0  0  0  0  0  0  0  0  0  0  0  0
   42.6230   34.1160   40.7460 C   0  0  0  0  0  0  0  0  0  0  0  0
   43.0940   34.9940   40.3170 H   0  0  0  0  0  0  0  0  0  0  0  0
   43.3790   33.3280   41.5900 C   0  0  0  0  0  3  0  0  0  0  0  0
   42.9510   32.1730   42.2290 C   0  0  0  0  0  3  0  0  0  0  0  0
   41.6610   31.8250   41.9670 N   0  0  0  0  0  0  0  0  0  0  0  0
  1  6  2  0  0  0  0
  1  2  1  0  0  0  0
  2  3  2  0  0  0  0
  3  4  1  0  0  0  0
  3 11  1  0  0  0  0
  5 20  1  0  0  0  0
  5  4  2  0  0  0  0
  6  5  1  0  0  0  0
  7  1  1  0  0  0  0
  8  2  1  0  0  0  0
  9 10  1  0  0  0  0
 10 16  2  0  0  0  0
 10 11  1  0  0  0  0
 11 12  2  0  0  0  0
 12 13  1  0  0  0  0
 12 17  1  0  0  0  0
 13 18  1  0  0  0  0
 14 15  1  0  0  0  0
 14 13  2  0  0  0  0
 16 14  1  0  0  0  0
 19 16  1  0  0  0  0
 20 27  1  0  0  0  0
 21 23  1  0  0  0  0
 21 20  2  0  0  0  0
 22 21  1  0  0  0  0
 23 25  2  0  0  0  0
 24 23  1  0  0  0  0
 25 26  1  0  0  0  0
 27 26  2  0  0  0  0
M  END
>  <minimizedAffinity>
-5.14860678

$$$$

 OpenBabel03242522243D

 27 29  0  0  0  0  0  0  0  0999 V2000
   36.5850   27.4060   43.6760 C   0  0  0  0  0  0  0  0  0  0  0  0
   37.0460   28.6640   43.2430 C   0  0  0  0  0  0  0  0  0  0  0  0
   37.7580   28.7990   42.0590 C   0  0  0  0  0  0  0  0  0  0  0  0
   37.9760   27.6600   41.3560 N   0  0  0  0  0  0  0  0  0  0  0  0
   37.5320   26.4660   41.7770 C   0  0  0  0  0  0  0  0  0  0  0  0
   36.8510   26.3380   42.9110 N   0  0  0  0  0  0  0  0  0  0  0  0
   36.0290   27.3540   44.6180 H   0  0  0  0  0  0  0  0  0  0  0  0
   36.8400   29.5320   43.8470 H   0  0  0  0  0  0  0  0  0  0  0  0
   35.7600   30.2390   40.4550 Cl  0  0  0  0  0  0  0  0  0  0  0  0
   37.3700   30.8590   40.8310 C   0  0  0  0  0  0  0  0  0  0  0  0
   38.2430   30.1010   41.5960 C   0  0  0  0  0  0  0  0  0  0  0  0
   39.4800   30.6250   41.8600 C   0  0  0  0  0  0  0  0  0  0  0  0
   39.8530   31.8680   41.3810 C   0  0  0  0  0  0  0  0  0  0  0  0
   38.9400   32.5850   40.6180 C   0  0  0  0  0  0  0  0  0  0  0  0
   39.3880   34.1600   40.0010 Cl  0  0  0  0  0  0  0  0  0  0  0  0
   37.6820   32.1070   40.3220 C   0  0  0  0  0  0  0  0  0  0  0  0
   40.1530   30.0310   42.4570 H   0  0  0  0  0  0  0  0  0  0  0  0
   40.8220   32.2400   41.6080 H   0  0  0  0  0  0  0  0  0  0  0  0
   36.9620   32.6570   39.7280 H   0  0  0  0  0  0  0  0  0  0  0  0
   37.8400   25.3110   40.9170 C   0  0  0  0  0  0  0  0  0  0  0  0
   37.5840   24.0430   41.4090 C   0  0  0  0  0  0  0  0  0  0  0  0
   37.1710   23.8310   42.3840 H   0  0  0  0  0  0  0  0  0  0  0  0
   37.8750   22.9610   40.5960 C   0  0  0  0  0  0  0  0  0  0  0  0
   37.7260   21.9180   40.8540 H   0  0  0  0  0  0  0  0  0  0  0  0
   38.4020   23.2470   39.3530 C   0  0  0  0  0  3  0  0  0  0  0  0
   38.6630   24.5140   38.8500 C   0  0  0  0  0  3  0  0  0  0  0  0
   38.3550   25.5350   39.6960 N   0  0  0  0  0  0  0  0  0  0  0  0
  1  7  1  0  0  0  0
  2  1  1  0  0  0  0
  2  8  1  0  0  0  0
  3  2  2  0  0  0  0
  4  5  2  0  0  0  0
  4  3  1  0  0  0  0
  5  6  1  0  0  0  0
  6  1  2  0  0  0  0
  9 10  1  0  0  0  0
 10 11  1  0  0  0  0
 11 12  2  0  0  0  0
 11  3  1  0  0  0  0
 12 17  1  0  0  0  0
 13 18  1  0  0  0  0
 13 12  1  0  0  0  0
 14 13  2  0  0  0  0
 15 14  1  0  0  0  0
 16 14  1  0  0  0  0
 16 10  2  0  0  0  0
 19 16  1  0  0  0  0
 20 21  1  0  0  0  0
 20  5  1  0  0  0  0
 21 22  1  0  0  0  0
 23 24  1  0  0  0  0
 23 21  2  0  0  0  0
 25 23  1  0  0  0  0
 26 25  2  0  0  0  0
 26 27  1  0  0  0  0
 27 20  2  0  0  0  0
M  END
>  <minimizedAffinity>
-5.13006258

$$$$

 OpenBabel03242522243D

 27 29  0  0  0  0  0  0  0  0999 V2000
   39.3820   26.8350   43.6530 C   0  0  0  0  0  0  0  0  0  0  0  0
   39.0370   28.0810   43.0920 C   0  0  0  0  0  0  0  0  0  0  0  0
   38.3320   28.1590   41.8980 C   0  0  0  0  0  0  0  0  0  0  0  0
   38.0020   26.9790   41.3170 N   0  0  0  0  0  0  0  0  0  0  0  0
   38.3350   25.7990   41.8610 C   0  0  0  0  0  0  0  0  0  0  0  0
   39.0090   25.7250   43.0030 N   0  0  0  0  0  0  0  0  0  0  0  0
   39.9390   26.8280   44.5960 H   0  0  0  0  0  0  0  0  0  0  0  0
   39.3290   28.9830   43.6030 H   0  0  0  0  0  0  0  0  0  0  0  0
   40.4510   29.2420   40.1750 Cl  0  0  0  0  0  0  0  0  0  0  0  0
   38.9030   30.0390   40.4710 C   0  0  0  0  0  0  0  0  0  0  0  0
   37.9670   29.4460   41.3030 C   0  0  0  0  0  0  0  0  0  0  0  0
   36.7820   30.1030   41.5020 C   0  0  0  0  0  0  0  0  0  0  0  0
   36.5230   31.3190   40.8950 C   0  0  0  0  0  0  0  0  0  0  0  0
   37.4970   31.8690   40.0710 C   0  0  0  0  0  0  0  0  0  0  0  0
   37.1920   33.4060   39.2930 Cl  0  0  0  0  0  0  0  0  0  0  0  0
   38.7060   31.2520   39.8360 C   0  0  0  0  0  0  0  0  0  0  0  0
   36.0590   29.6360   42.1490 H   0  0  0  0  0  0  0  0  0  0  0  0
   35.5910   31.7980   41.0740 H   0  0  0  0  0  0  0  0  0  0  0  0
   39.4720   31.6710   39.1950 H   0  0  0  0  0  0  0  0  0  0  0  0
   37.9130   24.5950   41.1240 C   0  0  0  0  0  0  0  0  0  0  0  0
   36.6190   24.5480   40.6350 C   0  0  0  0  0  0  0  0  0  0  0  0
   35.8870   25.3320   40.7520 H   0  0  0  0  0  0  0  0  0  0  0  0
   36.2280   23.4140   39.9440 C   0  0  0  0  0  0  0  0  0  0  0  0
   35.2490   23.2450   39.5090 H   0  0  0  0  0  0  0  0  0  0  0  0
   37.1750   22.4200   39.8020 C   0  0  0  0  0  3  0  0  0  0  0  0
   38.4750   22.4570   40.2880 C   0  0  0  0  0  3  0  0  0  0  0  0
   38.7980   23.5970   40.9580 N   0  0  0  0  0  0  0  0  0  0  0  0
  1  7  1  0  0  0  0
  2  8  1  0  0  0  0
  2  1  1  0  0  0  0
  3  2  2  0  0  0  0
  4  5  2  0  0  0  0
  4  3  1  0  0  0  0
  5  6  1  0  0  0  0
  6  1  2  0  0  0  0
  9 10  1  0  0  0  0
 10 11  1  0  0  0  0
 11 12  2  0  0  0  0
 11  3  1  0  0  0  0
 12 17  1  0  0  0  0
 13 18  1  0  0  0  0
 13 12  1  0  0  0  0
 14 13  2  0  0  0  0
 15 14  1  0  0  0  0
 16 14  1  0  0  0  0
 16 10  2  0  0  0  0
 19 16  1  0  0  0  0
 20  5  1  0  0  0  0
 21 22  1  0  0  0  0
 21 20  2  0  0  0  0
 23 21  1  0  0  0  0
 24 23  1  0  0  0  0
 25 23  2  0  0  0  0
 25 26  1  0  0  0  0
 26 27  2  0  0  0  0
 27 20  1  0  0  0  0
M  END
>  <minimizedAffinity>
-5.12500906

$$$$

 OpenBabel03242522243D

 27 29  0  0  0  0  0  0  0  0999 V2000
   38.2090   31.7550   39.1020 C   0  0  0  0  0  0  0  0  0  0  0  0
   37.3090   31.2300   38.1540 C   0  0  0  0  0  0  0  0  0  0  0  0
   36.7540   29.9670   38.3140 C   0  0  0  0  0  0  0  0  0  0  0  0
   37.1280   29.2830   39.4250 N   0  0  0  0  0  0  0  0  0  0  0  0
   37.9860   29.7930   40.3210 C   0  0  0  0  0  0  0  0  0  0  0  0
   38.5160   31.0020   40.1670 N   0  0  0  0  0  0  0  0  0  0  0  0
   38.6180   32.7560   38.9290 H   0  0  0  0  0  0  0  0  0  0  0  0
   37.0510   31.8240   37.2930 H   0  0  0  0  0  0  0  0  0  0  0  0
   34.1700   29.2520   39.5170 Cl  0  0  0  0  0  0  0  0  0  0  0  0
   34.5670   29.0400   37.8090 C   0  0  0  0  0  0  0  0  0  0  0  0
   35.8170   29.4080   37.3370 C   0  0  0  0  0  0  0  0  0  0  0  0
   36.0770   29.2240   36.0060 C   0  0  0  0  0  0  0  0  0  0  0  0
   35.1270   28.6890   35.1540 C   0  0  0  0  0  0  0  0  0  0  0  0
   33.8910   28.3360   35.6800 C   0  0  0  0  0  0  0  0  0  0  0  0
   32.6730   27.6570   34.6230 Cl  0  0  0  0  0  0  0  0  0  0  0  0
   33.5750   28.5000   37.0110 C   0  0  0  0  0  0  0  0  0  0  0  0
   37.0510   29.5140   35.6460 H   0  0  0  0  0  0  0  0  0  0  0  0
   35.3670   28.5610   34.1270 H   0  0  0  0  0  0  0  0  0  0  0  0
   32.6140   28.2280   37.4320 H   0  0  0  0  0  0  0  0  0  0  0  0
   38.3060   28.9420   41.4800 C   0  0  0  0  0  0  0  0  0  0  0  0
   37.4460   28.9650   42.5640 C   0  0  0  0  0  0  0  0  0  0  0  0
   36.5500   29.5640   42.6280 H   0  0  0  0  0  0  0  0  0  0  0  0
   37.7520   28.1640   43.6510 C   0  0  0  0  0  0  0  0  0  0  0  0
   37.1690   28.0850   44.5630 H   0  0  0  0  0  0  0  0  0  0  0  0
   38.9010   27.4050   43.5550 C   0  0  0  0  0  3  0  0  0  0  0  0
   39.7700   27.3750   42.4730 C   0  0  0  0  0  3  0  0  0  0  0  0
   39.4140   28.1840   41.4370 N   0  0  0  0  0  0  0  0  0  0  0  0
  1  6  1  0  0  0  0
  2  3  1  0  0  0  0
  2  1  2  0  0  0  0
  3  4  2  0  0  0  0
  4  5  1  0  0  0  0
  5 20  1  0  0  0  0
  6  5  2  0  0  0  0
  7  1  1  0  0  0  0
  8  2  1  0  0  0  0
 10  9  1  0  0  0  0
 11 10  1  0  0  0  0
 11  3  1  0  0  0  0
 12 11  2  0  0  0  0
 13 14  2  0  0  0  0
 13 12  1  0  0  0  0
 14 16  1  0  0  0  0
 15 14  1  0  0  0  0
 16 19  1  0  0  0  0
 16 10  2  0  0  0  0
 17 12  1  0  0  0  0
 18 13  1  0  0  0  0
 20 21  1  0  0  0  0
 21 22  1  0  0  0  0
 21 23  2  0  0  0  0
 23 24  1  0  0  0  0
 25 23  1  0  0  0  0
 26 25  2  0  0  0  0
 27 20  2  0  0  0  0
 27 26  1  0  0  0  0
M  END
>  <minimizedAffinity>
-4.9901948

$$$$

 OpenBabel03242522243D

 27 29  0  0  0  0  0  0  0  0999 V2000
   37.2260   32.6000   40.0390 C   0  0  0  0  0  0  0  0  0  0  0  0
   36.9940   31.3180   40.5750 C   0  0  0  0  0  0  0  0  0  0  0  0
   37.8990   30.2830   40.3780 C   0  0  0  0  0  0  0  0  0  0  0  0
   39.0030   30.5820   39.6490 N   0  0  0  0  0  0  0  0  0  0  0  0
   39.2140   31.8070   39.1430 C   0  0  0  0  0  0  0  0  0  0  0  0
   38.3470   32.7960   39.3320 N   0  0  0  0  0  0  0  0  0  0  0  0
   36.4810   33.3810   40.2230 H   0  0  0  0  0  0  0  0  0  0  0  0
   36.0970   31.1450   41.1460 H   0  0  0  0  0  0  0  0  0  0  0  0
   36.6990   28.4510   38.4200 Cl  0  0  0  0  0  0  0  0  0  0  0  0
   37.1080   28.0070   40.0800 C   0  0  0  0  0  0  0  0  0  0  0  0
   37.6710   28.9460   40.9300 C   0  0  0  0  0  0  0  0  0  0  0  0
   37.9710   28.5540   42.2070 C   0  0  0  0  0  0  0  0  0  0  0  0
   37.7200   27.2650   42.6410 C   0  0  0  0  0  0  0  0  0  0  0  0
   37.1540   26.3640   41.7490 C   0  0  0  0  0  0  0  0  0  0  0  0
   36.8280   24.7270   42.2750 Cl  0  0  0  0  0  0  0  0  0  0  0  0
   36.8330   26.7030   40.4530 C   0  0  0  0  0  0  0  0  0  0  0  0
   38.4100   29.2890   42.8610 H   0  0  0  0  0  0  0  0  0  0  0  0
   37.9670   26.9990   43.6400 H   0  0  0  0  0  0  0  0  0  0  0  0
   36.3900   26.0090   39.7480 H   0  0  0  0  0  0  0  0  0  0  0  0
   40.4540   31.9920   38.3690 C   0  0  0  0  0  0  0  0  0  0  0  0
   40.9990   30.8900   37.7340 C   0  0  0  0  0  0  0  0  0  0  0  0
   40.5820   29.8940   37.7600 H   0  0  0  0  0  0  0  0  0  0  0  0
   42.1640   31.0700   37.0090 C   0  0  0  0  0  0  0  0  0  0  0  0
   42.6960   30.2970   36.4650 H   0  0  0  0  0  0  0  0  0  0  0  0
   42.6850   32.3480   36.9850 C   0  0  0  0  0  3  0  0  0  0  0  0
   42.1470   33.4590   37.6190 C   0  0  0  0  0  3  0  0  0  0  0  0
   41.0020   33.2180   38.3150 N   0  0  0  0  0  0  0  0  0  0  0  0
  1  7  1  0  0  0  0
  1  2  1  0  0  0  0
  2  8  1  0  0  0  0
  3  2  2  0  0  0  0
  3 11  1  0  0  0  0
  4  3  1  0  0  0  0
  5  6  1  0  0  0  0
  5  4  2  0  0  0  0
  6  1  2  0  0  0  0
  9 10  1  0  0  0  0
 10 16  2  0  0  0  0
 10 11  1  0  0  0  0
 11 12  2  0  0  0  0
 12 13  1  0  0  0  0
 12 17  1  0  0  0  0
 13 18  1  0  0  0  0
 14 15  1  0  0  0  0
 14 13  2  0  0  0  0
 16 14  1  0  0  0  0
 19 16  1  0  0  0  0
 20  5  1  0  0  0  0
 21 22  1  0  0  0  0
 21 20  2  0  0  0  0
 23 21  1  0  0  0  0
 24 23  1  0  0  0  0
 25 23  2  0  0  0  0
 25 26  1  0  0  0  0
 26 27  2  0  0  0  0
 27 20  1  0  0  0  0
M  END
>  <minimizedAffinity>
-4.95982409

$$$$

 OpenBabel03242522243D

 27 29  0  0  0  0  0  0  0  0999 V2000
   35.7130   29.4260   40.9430 C   0  0  0  0  0  0  0  0  0  0  0  0
   36.6130   30.4090   40.4850 C   0  0  0  0  0  0  0  0  0  0  0  0
   37.9850   30.2010   40.5260 C   0  0  0  0  0  0  0  0  0  0  0  0
   38.3970   29.0100   41.0270 N   0  0  0  0  0  0  0  0  0  0  0  0
   37.5320   28.0810   41.4610 C   0  0  0  0  0  0  0  0  0  0  0  0
   36.2190   28.2810   41.4210 N   0  0  0  0  0  0  0  0  0  0  0  0
   34.6400   29.6400   40.8890 H   0  0  0  0  0  0  0  0  0  0  0  0
   36.2210   31.3350   40.0980 H   0  0  0  0  0  0  0  0  0  0  0  0
   38.6570   29.8700   37.6850 Cl  0  0  0  0  0  0  0  0  0  0  0  0
   39.3100   31.1430   38.7220 C   0  0  0  0  0  0  0  0  0  0  0  0
   38.9310   31.2140   40.0530 C   0  0  0  0  0  0  0  0  0  0  0  0
   39.4640   32.2180   40.8160 C   0  0  0  0  0  0  0  0  0  0  0  0
   40.3530   33.1330   40.2820 C   0  0  0  0  0  0  0  0  0  0  0  0
   40.7000   33.0150   38.9420 C   0  0  0  0  0  0  0  0  0  0  0  0
   41.8230   34.1610   38.2430 Cl  0  0  0  0  0  0  0  0  0  0  0  0
   40.1940   32.0260   38.1280 C   0  0  0  0  0  0  0  0  0  0  0  0
   39.1640   32.2670   41.8500 H   0  0  0  0  0  0  0  0  0  0  0  0
   40.7460   33.8980   40.9070 H   0  0  0  0  0  0  0  0  0  0  0  0
   40.4570   31.9240   37.0820 H   0  0  0  0  0  0  0  0  0  0  0  0
   38.1160   26.8330   41.9810 C   0  0  0  0  0  0  0  0  0  0  0  0
   37.4780   25.6400   41.6870 C   0  0  0  0  0  0  0  0  0  0  0  0
   36.5770   25.5520   41.0990 H   0  0  0  0  0  0  0  0  0  0  0  0
   38.0310   24.4700   42.1790 C   0  0  0  0  0  0  0  0  0  0  0  0
   37.6380   23.4710   42.0260 H   0  0  0  0  0  0  0  0  0  0  0  0
   39.1840   24.6000   42.9270 C   0  0  0  0  0  3  0  0  0  0  0  0
   39.8310   25.7900   43.2280 C   0  0  0  0  0  3  0  0  0  0  0  0
   39.2380   26.9040   42.7170 N   0  0  0  0  0  0  0  0  0  0  0  0
  1  6  1  0  0  0  0
  2  3  1  0  0  0  0
  2  1  2  0  0  0  0
  3  4  2  0  0  0  0
  4  5  1  0  0  0  0
  5 20  1  0  0  0  0
  6  5  2  0  0  0  0
  7  1  1  0  0  0  0
  8  2  1  0  0  0  0
  9 10  1  0  0  0  0
 10 11  1  0  0  0  0
 11  3  1  0  0  0  0
 11 12  2  0  0  0  0
 12 17  1  0  0  0  0
 13 12  1  0  0  0  0
 13 18  1  0  0  0  0
 14 13  2  0  0  0  0
 15 14  1  0  0  0  0
 16 10  2  0  0  0  0
 16 14  1  0  0  0  0
 19 16  1  0  0  0  0
 20 27  1  0  0  0  0
 21 20  2  0  0  0  0
 21 23  1  0  0  0  0
 22 21  1  0  0  0  0
 23 25  2  0  0  0  0
 24 23  1  0  0  0  0
 25 26  1  0  0  0  0
 27 26  2  0  0  0  0
M  END
>  <minimizedAffinity>
-4.91461849

$$$$
