
 OpenBabel03242516393D

 19 20  0  0  0  0  0  0  0  0999 V2000
   37.8580   33.1750   39.9370 C   0  0  0  0  0  0  0  0  0  0  0  0
   37.3630   31.9830   40.4990 C   0  0  0  0  0  0  0  0  0  0  0  0
   38.2580   31.1680   41.2090 C   0  0  0  0  0  0  0  0  0  0  0  0
   39.5450   31.5770   41.3120 N   0  0  0  0  0  0  0  0  0  0  0  0
   39.9890   32.7180   40.7640 C   0  0  0  0  0  0  0  0  0  0  0  0
   39.1560   33.5120   40.0820 N   0  0  0  0  0  0  0  0  0  0  0  0
   36.9550   34.0130   39.2100 N   0  0  0  0  0  0  0  0  0  0  0  0
   36.3230   31.7320   40.3710 H   0  0  0  0  0  0  0  0  0  0  0  0
   41.0170   33.0420   40.8470 H   0  0  0  0  0  0  0  0  0  0  0  0
   36.7030   33.4750   38.3430 H   0  0  0  0  0  0  0  0  0  0  0  0
   36.6270   34.9760   39.5150 H   0  0  0  0  0  0  0  0  0  0  0  0
   37.7580   29.9280   41.7990 C   0  0  0  0  0  0  0  0  0  0  0  0
   38.3390   29.4760   42.9660 C   0  0  0  0  0  0  0  0  0  0  0  0
   39.1440   29.9800   43.4760 H   0  0  0  0  0  0  0  0  0  0  0  0
   37.8170   28.2880   43.4770 C   0  0  0  0  0  0  0  0  0  0  0  0
   38.2390   27.8920   44.3910 H   0  0  0  0  0  0  0  0  0  0  0  0
   36.7860   27.6700   42.7990 C   0  0  0  0  0  3  0  0  0  0  0  0
   36.2260   28.1390   41.6410 C   0  0  0  0  0  3  0  0  0  0  0  0
   36.7680   29.3030   41.1780 N   0  0  0  0  0  0  0  0  0  0  0  0
  1  6  2  0  0  0  0
  1  2  1  0  0  0  0
  2  3  2  0  0  0  0
  3  4  1  0  0  0  0
  3 12  1  0  0  0  0
  5  9  1  0  0  0  0
  5  4  2  0  0  0  0
  6  5  1  0  0  0  0
  7 11  1  0  0  0  0
  7  1  1  0  0  0  0
  8  2  1  0  0  0  0
 10  7  1  0  0  0  0
 12 13  1  0  0  0  0
 13 14  1  0  0  0  0
 13 15  2  0  0  0  0
 15 16  1  0  0  0  0
 17 15  1  0  0  0  0
 18 17  2  0  0  0  0
 19 18  1  0  0  0  0
 19 12  2  0  0  0  0
M  END
>  <minimizedAffinity>
-4.74201298

$$$$

 OpenBabel03242516393D

 19 20  0  0  0  0  0  0  0  0999 V2000
   37.1550   32.2920   39.5530 C   0  0  0  0  0  0  0  0  0  0  0  0
   37.1360   31.3580   40.6060 C   0  0  0  0  0  0  0  0  0  0  0  0
   37.2320   29.9970   40.2810 C   0  0  0  0  0  0  0  0  0  0  0  0
   37.3370   29.6610   38.9730 N   0  0  0  0  0  0  0  0  0  0  0  0
   37.3520   30.5740   37.9900 C   0  0  0  0  0  0  0  0  0  0  0  0
   37.2610   31.8780   38.2740 N   0  0  0  0  0  0  0  0  0  0  0  0
   37.0580   33.6830   39.8730 N   0  0  0  0  0  0  0  0  0  0  0  0
   37.0500   31.7100   41.6210 H   0  0  0  0  0  0  0  0  0  0  0  0
   37.4360   30.3040   36.9470 H   0  0  0  0  0  0  0  0  0  0  0  0
   36.0840   33.8220   40.2430 H   0  0  0  0  0  0  0  0  0  0  0  0
   37.8320   34.4000   39.7490 H   0  0  0  0  0  0  0  0  0  0  0  0
   37.2140   29.0160   41.3640 C   0  0  0  0  0  0  0  0  0  0  0  0
   36.9350   27.7010   41.0540 C   0  0  0  0  0  0  0  0  0  0  0  0
   36.7260   27.3450   40.0580 H   0  0  0  0  0  0  0  0  0  0  0  0
   36.9330   26.8160   42.1310 C   0  0  0  0  0  0  0  0  0  0  0  0
   36.7190   25.7730   41.9410 H   0  0  0  0  0  0  0  0  0  0  0  0
   37.2050   27.3050   43.3930 C   0  0  0  0  0  3  0  0  0  0  0  0
   37.4800   28.6160   43.6760 C   0  0  0  0  0  3  0  0  0  0  0  0
   37.4700   29.4460   42.5910 N   0  0  0  0  0  0  0  0  0  0  0  0
  1  7  1  0  0  0  0
  1  2  1  0  0  0  0
  2  8  1  0  0  0  0
  3  2  2  0  0  0  0
  3 12  1  0  0  0  0
  4  3  1  0  0  0  0
  5  6  1  0  0  0  0
  5  4  2  0  0  0  0
  6  1  2  0  0  0  0
  7 10  1  0  0  0  0
  9  5  1  0  0  0  0
 11  7  1  0  0  0  0
 12 19  1  0  0  0  0
 13 12  2  0  0  0  0
 13 15  1  0  0  0  0
 14 13  1  0  0  0  0
 15 17  2  0  0  0  0
 16 15  1  0  0  0  0
 17 18  1  0  0  0  0
 19 18  2  0  0  0  0
M  END
>  <minimizedAffinity>
-4.6359148

$$$$

 OpenBabel03242516393D

 19 20  0  0  0  0  0  0  0  0999 V2000
   35.8490   29.6810   40.7040 C   0  0  0  0  0  0  0  0  0  0  0  0
   36.5720   28.6710   41.3660 C   0  0  0  0  0  0  0  0  0  0  0  0
   36.7250   27.4360   40.7180 C   0  0  0  0  0  0  0  0  0  0  0  0
   36.1670   27.2880   39.4920 N   0  0  0  0  0  0  0  0  0  0  0  0
   35.4810   28.2690   38.8850 C   0  0  0  0  0  0  0  0  0  0  0  0
   35.3220   29.4550   39.4830 N   0  0  0  0  0  0  0  0  0  0  0  0
   35.6870   30.9440   41.3550 N   0  0  0  0  0  0  0  0  0  0  0  0
   36.9850   28.8720   42.3410 H   0  0  0  0  0  0  0  0  0  0  0  0
   35.0370   28.1490   37.9080 H   0  0  0  0  0  0  0  0  0  0  0  0
   35.0610   30.7610   42.1790 H   0  0  0  0  0  0  0  0  0  0  0  0
   36.1250   31.8600   41.0430 H   0  0  0  0  0  0  0  0  0  0  0  0
   37.4740   26.3790   41.3940 C   0  0  0  0  0  0  0  0  0  0  0  0
   37.0340   25.0780   41.2640 C   0  0  0  0  0  0  0  0  0  0  0  0
   36.1680   24.7850   40.6940 H   0  0  0  0  0  0  0  0  0  0  0  0
   37.7920   24.1170   41.9330 C   0  0  0  0  0  0  0  0  0  0  0  0
   37.4890   23.0810   41.8620 H   0  0  0  0  0  0  0  0  0  0  0  0
   38.8960   24.5260   42.6540 C   0  0  0  0  0  3  0  0  0  0  0  0
   39.3130   25.8250   42.7670 C   0  0  0  0  0  3  0  0  0  0  0  0
   38.5400   26.7310   42.0970 N   0  0  0  0  0  0  0  0  0  0  0  0
  1  7  1  0  0  0  0
  1  2  1  0  0  0  0
  2  8  1  0  0  0  0
  3  2  2  0  0  0  0
  3 12  1  0  0  0  0
  4  3  1  0  0  0  0
  5  6  1  0  0  0  0
  5  4  2  0  0  0  0
  6  1  2  0  0  0  0
  7 10  1  0  0  0  0
  9  5  1  0  0  0  0
 11  7  1  0  0  0  0
 12 19  1  0  0  0  0
 13 12  2  0  0  0  0
 13 15  1  0  0  0  0
 14 13  1  0  0  0  0
 15 17  2  0  0  0  0
 16 15  1  0  0  0  0
 17 18  1  0  0  0  0
 19 18  2  0  0  0  0
M  END
>  <minimizedAffinity>
-4.42769623

$$$$

 OpenBabel03242516393D

 19 20  0  0  0  0  0  0  0  0999 V2000
   39.5440   33.0370   40.7350 C   0  0  0  0  0  0  0  0  0  0  0  0
   39.2510   31.8080   41.3560 C   0  0  0  0  0  0  0  0  0  0  0  0
   37.9900   31.2380   41.1260 C   0  0  0  0  0  0  0  0  0  0  0  0
   37.1290   31.9030   40.3180 N   0  0  0  0  0  0  0  0  0  0  0  0
   37.4360   33.0740   39.7400 C   0  0  0  0  0  0  0  0  0  0  0  0
   38.6320   33.6390   39.9450 N   0  0  0  0  0  0  0  0  0  0  0  0
   40.8270   33.6280   40.9630 N   0  0  0  0  0  0  0  0  0  0  0  0
   39.9940   31.3440   41.9830 H   0  0  0  0  0  0  0  0  0  0  0  0
   36.7480   33.6040   39.0970 H   0  0  0  0  0  0  0  0  0  0  0  0
   40.8330   33.9110   41.9750 H   0  0  0  0  0  0  0  0  0  0  0  0
   41.5920   33.7410   40.2350 H   0  0  0  0  0  0  0  0  0  0  0  0
   37.6720   29.9620   41.7630 C   0  0  0  0  0  0  0  0  0  0  0  0
   38.4150   29.5720   42.8580 C   0  0  0  0  0  0  0  0  0  0  0  0
   39.2220   30.1500   43.2790 H   0  0  0  0  0  0  0  0  0  0  0  0
   38.0620   28.3460   43.4180 C   0  0  0  0  0  0  0  0  0  0  0  0
   38.6150   27.9950   44.2800 H   0  0  0  0  0  0  0  0  0  0  0  0
   37.0240   27.6320   42.8550 C   0  0  0  0  0  3  0  0  0  0  0  0
   36.3000   28.0400   41.7670 C   0  0  0  0  0  3  0  0  0  0  0  0
   36.6820   29.2460   41.2500 N   0  0  0  0  0  0  0  0  0  0  0  0
  1  7  1  0  0  0  0
  1  2  1  0  0  0  0
  2  8  1  0  0  0  0
  3  2  2  0  0  0  0
  3 12  1  0  0  0  0
  4  3  1  0  0  0  0
  5  6  1  0  0  0  0
  5  4  2  0  0  0  0
  6  1  2  0  0  0  0
  7 10  1  0  0  0  0
  9  5  1  0  0  0  0
 11  7  1  0  0  0  0
 12 13  1  0  0  0  0
 13 14  1  0  0  0  0
 13 15  2  0  0  0  0
 15 16  1  0  0  0  0
 17 15  1  0  0  0  0
 18 17  2  0  0  0  0
 19 12  2  0  0  0  0
 19 18  1  0  0  0  0
M  END
>  <minimizedAffinity>
-4.4205761

$$$$

 OpenBabel03242516393D

 19 20  0  0  0  0  0  0  0  0999 V2000
   36.9100   30.1640   41.4000 C   0  0  0  0  0  0  0  0  0  0  0  0
   36.8520   28.7570   41.4150 C   0  0  0  0  0  0  0  0  0  0  0  0
   38.0590   28.0480   41.4930 C   0  0  0  0  0  0  0  0  0  0  0  0
   39.2120   28.7590   41.5490 N   0  0  0  0  0  0  0  0  0  0  0  0
   39.2370   30.1000   41.5310 C   0  0  0  0  0  0  0  0  0  0  0  0
   38.0990   30.7990   41.4580 N   0  0  0  0  0  0  0  0  0  0  0  0
   35.6840   30.8970   41.3210 N   0  0  0  0  0  0  0  0  0  0  0  0
   35.8910   28.2690   41.3680 H   0  0  0  0  0  0  0  0  0  0  0  0
   40.1570   30.6650   41.5760 H   0  0  0  0  0  0  0  0  0  0  0  0
   35.3000   30.7050   40.3620 H   0  0  0  0  0  0  0  0  0  0  0  0
   35.2770   31.5020   42.0930 H   0  0  0  0  0  0  0  0  0  0  0  0
   38.0140   26.5880   41.5100 C   0  0  0  0  0  0  0  0  0  0  0  0
   36.9830   25.9720   42.1890 C   0  0  0  0  0  0  0  0  0  0  0  0
   36.2020   26.4990   42.7130 H   0  0  0  0  0  0  0  0  0  0  0  0
   36.9970   24.5780   42.1690 C   0  0  0  0  0  0  0  0  0  0  0  0
   36.2100   24.0470   42.6870 H   0  0  0  0  0  0  0  0  0  0  0  0
   38.0110   23.9330   41.4890 C   0  0  0  0  0  3  0  0  0  0  0  0
   39.0240   24.5680   40.8220 C   0  0  0  0  0  3  0  0  0  0  0  0
   38.9700   25.9320   40.8690 N   0  0  0  0  0  0  0  0  0  0  0  0
  1  2  2  0  0  0  0
  1  6  1  0  0  0  0
  2  3  1  0  0  0  0
  3 12  1  0  0  0  0
  3  4  2  0  0  0  0
  5  4  1  0  0  0  0
  5  9  1  0  0  0  0
  6  5  2  0  0  0  0
  7  1  1  0  0  0  0
  7 11  1  0  0  0  0
  8  2  1  0  0  0  0
 10  7  1  0  0  0  0
 12 13  1  0  0  0  0
 13 14  1  0  0  0  0
 15 13  2  0  0  0  0
 15 16  1  0  0  0  0
 17 15  1  0  0  0  0
 18 19  1  0  0  0  0
 18 17  2  0  0  0  0
 19 12  2  0  0  0  0
M  END
>  <minimizedAffinity>
-4.40717888

$$$$

 OpenBabel03242516393D

 19 20  0  0  0  0  0  0  0  0999 V2000
   37.4630   31.0500   38.0030 C   0  0  0  0  0  0  0  0  0  0  0  0
   37.4220   30.0900   39.0320 C   0  0  0  0  0  0  0  0  0  0  0  0
   37.2630   30.5430   40.3500 C   0  0  0  0  0  0  0  0  0  0  0  0
   37.1580   31.8780   40.5560 N   0  0  0  0  0  0  0  0  0  0  0  0
   37.2010   32.7710   39.5550 C   0  0  0  0  0  0  0  0  0  0  0  0
   37.3530   32.3640   38.2890 N   0  0  0  0  0  0  0  0  0  0  0  0
   37.6250   30.5990   36.6550 N   0  0  0  0  0  0  0  0  0  0  0  0
   37.5130   29.0450   38.7820 H   0  0  0  0  0  0  0  0  0  0  0  0
   37.1170   33.8350   39.7210 H   0  0  0  0  0  0  0  0  0  0  0  0
   38.6000   30.2100   36.6010 H   0  0  0  0  0  0  0  0  0  0  0  0
   36.8900   30.6620   35.8920 H   0  0  0  0  0  0  0  0  0  0  0  0
   37.2180   29.5580   41.4280 C   0  0  0  0  0  0  0  0  0  0  0  0
   36.3340   28.5040   41.3180 C   0  0  0  0  0  0  0  0  0  0  0  0
   35.6680   28.3580   40.4830 H   0  0  0  0  0  0  0  0  0  0  0  0
   36.3390   27.6000   42.3790 C   0  0  0  0  0  0  0  0  0  0  0  0
   35.6640   26.7560   42.3400 H   0  0  0  0  0  0  0  0  0  0  0  0
   37.2050   27.8170   43.4320 C   0  0  0  0  0  3  0  0  0  0  0  0
   38.0740   28.8710   43.5190 C   0  0  0  0  0  3  0  0  0  0  0  0
   38.0340   29.7310   42.4580 N   0  0  0  0  0  0  0  0  0  0  0  0
  1  6  2  0  0  0  0
  1  2  1  0  0  0  0
  2  3  2  0  0  0  0
  3  4  1  0  0  0  0
  3 12  1  0  0  0  0
  5  9  1  0  0  0  0
  5  4  2  0  0  0  0
  6  5  1  0  0  0  0
  7  1  1  0  0  0  0
  8  2  1  0  0  0  0
 10  7  1  0  0  0  0
 11  7  1  0  0  0  0
 12 19  1  0  0  0  0
 13 12  2  0  0  0  0
 13 15  1  0  0  0  0
 14 13  1  0  0  0  0
 15 17  2  0  0  0  0
 16 15  1  0  0  0  0
 17 18  1  0  0  0  0
 19 18  2  0  0  0  0
M  END
>  <minimizedAffinity>
-4.30678082

$$$$

 OpenBabel03242516393D

 19 20  0  0  0  0  0  0  0  0999 V2000
   39.9510   32.3400   38.3170 C   0  0  0  0  0  0  0  0  0  0  0  0
   39.2440   31.3800   39.0670 C   0  0  0  0  0  0  0  0  0  0  0  0
   39.3260   31.4460   40.4660 C   0  0  0  0  0  0  0  0  0  0  0  0
   40.0790   32.4300   41.0130 N   0  0  0  0  0  0  0  0  0  0  0  0
   40.7440   33.3310   40.2730 C   0  0  0  0  0  0  0  0  0  0  0  0
   40.6820   33.2880   38.9370 N   0  0  0  0  0  0  0  0  0  0  0  0
   39.8750   32.2810   36.8900 N   0  0  0  0  0  0  0  0  0  0  0  0
   38.6660   30.6300   38.5520 H   0  0  0  0  0  0  0  0  0  0  0  0
   41.3450   34.1140   40.7110 H   0  0  0  0  0  0  0  0  0  0  0  0
   40.3820   31.4030   36.6140 H   0  0  0  0  0  0  0  0  0  0  0  0
   39.3970   32.9970   36.2680 H   0  0  0  0  0  0  0  0  0  0  0  0
   38.5960   30.4580   41.2570 C   0  0  0  0  0  0  0  0  0  0  0  0
   39.0870   30.1220   42.5020 C   0  0  0  0  0  0  0  0  0  0  0  0
   39.9800   30.5430   42.9340 H   0  0  0  0  0  0  0  0  0  0  0  0
   38.3460   29.1730   43.2050 C   0  0  0  0  0  0  0  0  0  0  0  0
   38.6890   28.8760   44.1870 H   0  0  0  0  0  0  0  0  0  0  0  0
   37.2070   28.6550   42.6220 C   0  0  0  0  0  3  0  0  0  0  0  0
   36.7400   29.0040   41.3840 C   0  0  0  0  0  3  0  0  0  0  0  0
   37.4980   29.9350   40.7310 N   0  0  0  0  0  0  0  0  0  0  0  0
  1  6  2  0  0  0  0
  1  2  1  0  0  0  0
  2  3  2  0  0  0  0
  3  4  1  0  0  0  0
  3 12  1  0  0  0  0
  5  9  1  0  0  0  0
  5  4  2  0  0  0  0
  6  5  1  0  0  0  0
  7  1  1  0  0  0  0
  8  2  1  0  0  0  0
 10  7  1  0  0  0  0
 11  7  1  0  0  0  0
 12 13  1  0  0  0  0
 13 14  1  0  0  0  0
 13 15  2  0  0  0  0
 15 16  1  0  0  0  0
 17 15  1  0  0  0  0
 18 17  2  0  0  0  0
 19 12  2  0  0  0  0
 19 18  1  0  0  0  0
M  END
>  <minimizedAffinity>
-4.20492315

$$$$

 OpenBabel03242516393D

 19 20  0  0  0  0  0  0  0  0999 V2000
   38.6570   24.7780   42.3030 C   0  0  0  0  0  0  0  0  0  0  0  0
   37.8740   25.8060   41.7440 C   0  0  0  0  0  0  0  0  0  0  0  0
   38.0760   27.1150   42.2070 C   0  0  0  0  0  0  0  0  0  0  0  0
   39.0150   27.3120   43.1640 N   0  0  0  0  0  0  0  0  0  0  0  0
   39.7460   26.3130   43.6790 C   0  0  0  0  0  0  0  0  0  0  0  0
   39.5710   25.0560   43.2550 N   0  0  0  0  0  0  0  0  0  0  0  0
   38.4590   23.4400   41.8380 N   0  0  0  0  0  0  0  0  0  0  0  0
   37.1490   25.5620   40.9840 H   0  0  0  0  0  0  0  0  0  0  0  0
   40.4930   26.4730   44.4430 H   0  0  0  0  0  0  0  0  0  0  0  0
   37.5020   23.1620   42.1720 H   0  0  0  0  0  0  0  0  0  0  0  0
   39.1580   22.8730   41.2740 H   0  0  0  0  0  0  0  0  0  0  0  0
   37.2710   28.1910   41.6350 C   0  0  0  0  0  0  0  0  0  0  0  0
   36.1980   27.8550   40.8360 C   0  0  0  0  0  0  0  0  0  0  0  0
   35.9110   26.8430   40.6020 H   0  0  0  0  0  0  0  0  0  0  0  0
   35.4710   28.9280   40.3220 C   0  0  0  0  0  0  0  0  0  0  0  0
   34.6200   28.7170   39.6890 H   0  0  0  0  0  0  0  0  0  0  0  0
   35.8660   30.2120   40.6410 C   0  0  0  0  0  3  0  0  0  0  0  0
   36.9360   30.5210   41.4370 C   0  0  0  0  0  3  0  0  0  0  0  0
   37.6180   29.4390   41.9180 N   0  0  0  0  0  0  0  0  0  0  0  0
  1  6  1  0  0  0  0
  2  3  1  0  0  0  0
  2  1  2  0  0  0  0
  3  4  2  0  0  0  0
  4  5  1  0  0  0  0
  5  9  1  0  0  0  0
  6  5  2  0  0  0  0
  7 10  1  0  0  0  0
  7  1  1  0  0  0  0
  8  2  1  0  0  0  0
 11  7  1  0  0  0  0
 12 19  1  0  0  0  0
 12  3  1  0  0  0  0
 13 12  2  0  0  0  0
 14 13  1  0  0  0  0
 15 17  2  0  0  0  0
 15 13  1  0  0  0  0
 16 15  1  0  0  0  0
 17 18  1  0  0  0  0
 18 19  2  0  0  0  0
M  END
>  <minimizedAffinity>
-4.17662764

$$$$

 OpenBabel03242516393D

 19 20  0  0  0  0  0  0  0  0999 V2000
   37.4320   31.0900   38.0220 C   0  0  0  0  0  0  0  0  0  0  0  0
   37.4250   30.0070   38.9210 C   0  0  0  0  0  0  0  0  0  0  0  0
   37.3090   30.2870   40.2910 C   0  0  0  0  0  0  0  0  0  0  0  0
   37.2080   31.5850   40.6680 N   0  0  0  0  0  0  0  0  0  0  0  0
   37.2190   32.5970   39.7880 C   0  0  0  0  0  0  0  0  0  0  0  0
   37.3290   32.3560   38.4770 N   0  0  0  0  0  0  0  0  0  0  0  0
   37.5510   30.8150   36.6230 N   0  0  0  0  0  0  0  0  0  0  0  0
   37.5080   29.0030   38.5370 H   0  0  0  0  0  0  0  0  0  0  0  0
   37.1390   33.6320   40.0910 H   0  0  0  0  0  0  0  0  0  0  0  0
   38.5230   30.4410   36.4890 H   0  0  0  0  0  0  0  0  0  0  0  0
   36.7900   30.9700   35.8980 H   0  0  0  0  0  0  0  0  0  0  0  0
   37.2990   29.1720   41.2350 C   0  0  0  0  0  0  0  0  0  0  0  0
   37.5440   29.4380   42.5670 C   0  0  0  0  0  0  0  0  0  0  0  0
   37.7450   30.4210   42.9610 H   0  0  0  0  0  0  0  0  0  0  0  0
   37.5220   28.3320   43.4150 C   0  0  0  0  0  0  0  0  0  0  0  0
   37.7080   28.4880   44.4690 H   0  0  0  0  0  0  0  0  0  0  0  0
   37.2620   27.0880   42.8780 C   0  0  0  0  0  3  0  0  0  0  0  0
   37.0210   26.8490   41.5510 C   0  0  0  0  0  3  0  0  0  0  0  0
   37.0540   27.9610   40.7580 N   0  0  0  0  0  0  0  0  0  0  0  0
  1  6  2  0  0  0  0
  1  2  1  0  0  0  0
  2  3  2  0  0  0  0
  3  4  1  0  0  0  0
  3 12  1  0  0  0  0
  5  9  1  0  0  0  0
  5  4  2  0  0  0  0
  6  5  1  0  0  0  0
  7  1  1  0  0  0  0
  8  2  1  0  0  0  0
 10  7  1  0  0  0  0
 11  7  1  0  0  0  0
 12 13  1  0  0  0  0
 13 14  1  0  0  0  0
 13 15  2  0  0  0  0
 15 16  1  0  0  0  0
 17 15  1  0  0  0  0
 18 17  2  0  0  0  0
 19 12  2  0  0  0  0
 19 18  1  0  0  0  0
M  END
>  <minimizedAffinity>
-4.1268754

$$$$
