
 OpenBabel03252507583D

 26 28  0  0  1  0  0  0  0  0999 V2000
   39.0070   29.8870   42.7080 C   0  0  1  0  0  0  0  0  0  0  0  0
   40.2320   30.7400   42.6570 C   0  0  0  0  0  0  0  0  0  0  0  0
   39.5150   30.4010   41.3930 C   0  0  2  0  0  0  0  0  0  0  0  0
   38.1290   30.2730   43.2260 H   0  0  0  0  0  0  0  0  0  0  0  0
   41.1990   30.2480   42.9150 H   0  0  0  0  0  0  0  0  0  0  0  0
   40.1410   31.7480   43.1210 H   0  0  0  0  0  0  0  0  0  0  0  0
   40.0500   29.7370   40.7050 H   0  0  0  0  0  0  0  0  0  0  0  0
   38.2410   26.3020   42.5460 C   0  0  0  0  0  0  0  0  0  0  0  0
   39.3900   25.6830   43.1030 C   0  0  0  0  0  0  0  0  0  0  0  0
   40.4230   26.5380   43.5270 C   0  0  0  0  0  0  0  0  0  0  0  0
   40.2760   27.8690   43.3860 N   0  0  0  0  0  0  0  0  0  0  0  0
   39.1430   28.3990   42.8410 C   0  0  0  0  0  0  0  0  0  0  0  0
   38.1200   27.6470   42.4170 N   0  0  0  0  0  0  0  0  0  0  0  0
   39.4660   24.6110   43.1980 H   0  0  0  0  0  0  0  0  0  0  0  0
   41.3150   26.1480   43.9550 H   0  0  0  0  0  0  0  0  0  0  0  0
   37.2180   25.3810   42.1350 C   0  0  0  0  0  0  0  0  0  0  0  0
   37.3760   24.1250   42.0370 O   0  0  0  0  0  0  0  0  0  0  0  0
   36.2570   25.8470   41.9050 H   0  0  0  0  0  0  0  0  0  0  0  0
   38.7710   31.5410   40.7470 C   0  0  0  0  0  0  0  0  0  0  0  0
   37.7290   31.1990   39.8940 C   0  0  0  0  0  0  0  0  0  0  0  0
   37.4620   30.1700   39.7000 H   0  0  0  0  0  0  0  0  0  0  0  0
   37.0750   32.2800   39.3250 C   0  0  0  0  0  0  0  0  0  0  0  0
   36.2490   32.0170   38.6480 H   0  0  0  0  0  0  0  0  0  0  0  0
   37.4280   33.5960   39.5820 C   0  0  0  0  0  3  0  0  0  0  0  0
   38.4860   33.8650   40.4500 C   0  0  0  0  0  3  0  0  0  0  0  0
   39.1330   32.8100   41.0130 N   0  0  0  0  0  0  0  0  0  0  0  0
  1 12  1  0  0  0  0
  1  4  1  1  0  0  0
  2  1  1  0  0  0  0
  2  5  1  0  0  0  0
  2  6  1  0  0  0  0
  3  7  1  6  0  0  0
  3  2  1  0  0  0  0
  3  1  1  0  0  0  0
  8  9  1  0  0  0  0
  9 14  1  0  0  0  0
  9 10  2  0  0  0  0
 10 15  1  0  0  0  0
 11 10  1  0  0  0  0
 12 11  2  0  0  0  0
 13  8  2  0  0  0  0
 13 12  1  0  0  0  0
 16  8  1  0  0  0  0
 17 16  2  0  0  0  0
 18 16  1  0  0  0  0
 19 26  1  0  0  0  0
 19  3  1  0  0  0  0
 20 19  2  0  0  0  0
 21 20  1  0  0  0  0
 22 24  2  0  0  0  0
 22 20  1  0  0  0  0
 23 22  1  0  0  0  0
 24 25  1  0  0  0  0
 25 26  2  0  0  0  0
M  END
>  <minimizedAffinity>
-4.7380991

$$$$

 OpenBabel03252507583D

 26 28  0  0  1  0  0  0  0  0999 V2000
   38.1830   29.7720   42.3340 C   0  0  1  0  0  0  0  0  0  0  0  0
   39.4990   30.4090   42.6400 C   0  0  0  0  0  0  0  0  0  0  0  0
   38.9950   30.3910   41.2360 C   0  0  2  0  0  0  0  0  0  0  0  0
   37.2840   30.2140   42.7630 H   0  0  0  0  0  0  0  0  0  0  0  0
   40.3240   29.7310   42.9600 H   0  0  0  0  0  0  0  0  0  0  0  0
   39.4590   31.3350   43.2570 H   0  0  0  0  0  0  0  0  0  0  0  0
   39.5560   29.7610   40.5360 H   0  0  0  0  0  0  0  0  0  0  0  0
   38.9060   26.2020   42.7780 C   0  0  0  0  0  0  0  0  0  0  0  0
   37.9240   25.5550   41.9840 C   0  0  0  0  0  0  0  0  0  0  0  0
   37.0160   26.3860   41.3030 C   0  0  0  0  0  0  0  0  0  0  0  0
   37.1200   27.7220   41.4360 N   0  0  0  0  0  0  0  0  0  0  0  0
   38.0890   28.2800   42.2170 C   0  0  0  0  0  0  0  0  0  0  0  0
   38.9870   27.5510   42.8920 N   0  0  0  0  0  0  0  0  0  0  0  0
   37.8770   24.4800   41.9060 H   0  0  0  0  0  0  0  0  0  0  0  0
   36.2520   25.9740   40.6890 H   0  0  0  0  0  0  0  0  0  0  0  0
   39.8070   25.3040   43.4450 C   0  0  0  0  0  0  0  0  0  0  0  0
   39.9340   24.0720   43.1670 O   0  0  0  0  0  0  0  0  0  0  0  0
   40.4010   25.7670   44.2370 H   0  0  0  0  0  0  0  0  0  0  0  0
   38.5480   31.7230   40.6930 C   0  0  0  0  0  0  0  0  0  0  0  0
   37.5150   31.7000   39.7630 C   0  0  0  0  0  0  0  0  0  0  0  0
   37.0540   30.7770   39.4420 H   0  0  0  0  0  0  0  0  0  0  0  0
   37.1390   32.9480   39.2930 C   0  0  0  0  0  0  0  0  0  0  0  0
   36.3220   32.9390   38.5570 H   0  0  0  0  0  0  0  0  0  0  0  0
   37.7400   34.1260   39.7130 C   0  0  0  0  0  3  0  0  0  0  0  0
   38.7710   34.0730   40.6510 C   0  0  0  0  0  3  0  0  0  0  0  0
   39.1470   32.8520   41.1160 N   0  0  0  0  0  0  0  0  0  0  0  0
  1  2  1  0  0  0  0
  1  4  1  1  0  0  0
  2  5  1  0  0  0  0
  2  6  1  0  0  0  0
  3  7  1  6  0  0  0
  3  1  1  0  0  0  0
  3  2  1  0  0  0  0
  8 13  1  0  0  0  0
  8 16  1  0  0  0  0
  9  8  2  0  0  0  0
 10 11  2  0  0  0  0
 10  9  1  0  0  0  0
 11 12  1  0  0  0  0
 12  1  1  0  0  0  0
 12 13  2  0  0  0  0
 14  9  1  0  0  0  0
 15 10  1  0  0  0  0
 16 18  1  0  0  0  0
 17 16  2  0  0  0  0
 19 26  1  0  0  0  0
 19  3  1  0  0  0  0
 20 19  2  0  0  0  0
 21 20  1  0  0  0  0
 22 24  2  0  0  0  0
 22 20  1  0  0  0  0
 23 22  1  0  0  0  0
 24 25  1  0  0  0  0
 25 26  2  0  0  0  0
M  END
>  <minimizedAffinity>
-4.73252249

$$$$

 OpenBabel03252507583D

 26 28  0  0  1  0  0  0  0  0999 V2000
   39.1740   28.9750   41.4780 C   0  0  1  0  0  0  0  0  0  0  0  0
   39.6680   28.8850   42.8850 C   0  0  0  0  0  0  0  0  0  0  0  0
   38.3630   28.2610   42.5180 C   0  0  2  0  0  0  0  0  0  0  0  0
   39.7500   28.4820   40.6950 H   0  0  0  0  0  0  0  0  0  0  0  0
   39.7040   29.8340   43.4680 H   0  0  0  0  0  0  0  0  0  0  0  0
   40.5810   28.2660   43.0400 H   0  0  0  0  0  0  0  0  0  0  0  0
   37.4720   28.7310   42.9490 H   0  0  0  0  0  0  0  0  0  0  0  0
   38.6260   32.5170   40.6900 C   0  0  0  0  0  0  0  0  0  0  0  0
   37.3170   32.5440   40.1420 C   0  0  0  0  0  0  0  0  0  0  0  0
   36.6440   31.3130   40.0540 C   0  0  0  0  0  0  0  0  0  0  0  0
   37.2600   30.1950   40.4830 N   0  0  0  0  0  0  0  0  0  0  0  0
   38.5220   30.2380   41.0000 C   0  0  0  0  0  0  0  0  0  0  0  0
   39.2210   31.3750   41.1140 N   0  0  0  0  0  0  0  0  0  0  0  0
   36.8610   33.4650   39.8100 H   0  0  0  0  0  0  0  0  0  0  0  0
   35.6610   31.2540   39.6550 H   0  0  0  0  0  0  0  0  0  0  0  0
   39.2610   33.8030   40.7580 C   0  0  0  0  0  0  0  0  0  0  0  0
   40.2440   34.1610   40.0390 O   0  0  0  0  0  0  0  0  0  0  0  0
   38.8270   34.4820   41.4960 H   0  0  0  0  0  0  0  0  0  0  0  0
   38.3520   26.7540   42.4910 C   0  0  0  0  0  0  0  0  0  0  0  0
   37.1800   26.1490   42.0540 C   0  0  0  0  0  0  0  0  0  0  0  0
   36.3180   26.7240   41.7480 H   0  0  0  0  0  0  0  0  0  0  0  0
   37.2180   24.7640   42.0460 C   0  0  0  0  0  0  0  0  0  0  0  0
   36.2950   24.2770   41.7010 H   0  0  0  0  0  0  0  0  0  0  0  0
   38.3320   24.0370   42.4410 C   0  0  0  0  0  3  0  0  0  0  0  0
   39.4750   24.7130   42.8680 C   0  0  0  0  0  3  0  0  0  0  0  0
   39.4460   26.0710   42.8800 N   0  0  0  0  0  0  0  0  0  0  0  0
  1  4  1  6  0  0  0
  1  3  1  0  0  0  0
  1  2  1  0  0  0  0
  2  6  1  0  0  0  0
  2  5  1  0  0  0  0
  3  2  1  0  0  0  0
  3  7  1  1  0  0  0
  8 16  1  0  0  0  0
  8 13  1  0  0  0  0
  9  8  2  0  0  0  0
 10  9  1  0  0  0  0
 10 11  2  0  0  0  0
 11 12  1  0  0  0  0
 12 13  2  0  0  0  0
 12  1  1  0  0  0  0
 14  9  1  0  0  0  0
 15 10  1  0  0  0  0
 16 18  1  0  0  0  0
 17 16  2  0  0  0  0
 19  3  1  0  0  0  0
 19 26  1  0  0  0  0
 20 19  2  0  0  0  0
 21 20  1  0  0  0  0
 22 20  1  0  0  0  0
 22 24  2  0  0  0  0
 23 22  1  0  0  0  0
 24 25  1  0  0  0  0
 25 26  2  0  0  0  0
M  END
>  <minimizedAffinity>
-4.55545616

$$$$

 OpenBabel03252507583D

 26 28  0  0  1  0  0  0  0  0999 V2000
   36.5680   30.7440   39.6120 C   0  0  1  0  0  0  0  0  0  0  0  0
   37.1940   31.4110   38.4320 C   0  0  0  0  0  0  0  0  0  0  0  0
   36.9260   29.9440   38.3950 C   0  0  2  0  0  0  0  0  0  0  0  0
   35.5520   31.0280   39.8880 H   0  0  0  0  0  0  0  0  0  0  0  0
   38.2300   31.8000   38.5650 H   0  0  0  0  0  0  0  0  0  0  0  0
   36.5470   32.1310   37.8810 H   0  0  0  0  0  0  0  0  0  0  0  0
   37.8120   29.2970   38.3950 H   0  0  0  0  0  0  0  0  0  0  0  0
   37.7080   29.1450   42.7120 C   0  0  0  0  0  0  0  0  0  0  0  0
   38.9450   29.7830   42.9880 C   0  0  0  0  0  0  0  0  0  0  0  0
   39.3630   30.7680   42.0760 C   0  0  0  0  0  0  0  0  0  0  0  0
   38.5900   31.0500   41.0110 N   0  0  0  0  0  0  0  0  0  0  0  0
   37.4100   30.3970   40.8040 C   0  0  0  0  0  0  0  0  0  0  0  0
   36.9490   29.4500   41.6300 N   0  0  0  0  0  0  0  0  0  0  0  0
   39.5340   29.5260   43.8560 H   0  0  0  0  0  0  0  0  0  0  0  0
   40.2790   31.2900   42.2170 H   0  0  0  0  0  0  0  0  0  0  0  0
   37.3300   28.1520   43.6790 C   0  0  0  0  0  0  0  0  0  0  0  0
   36.3180   27.3920   43.5740 O   0  0  0  0  0  0  0  0  0  0  0  0
   37.9940   28.0890   44.5440 H   0  0  0  0  0  0  0  0  0  0  0  0
   35.8100   29.5130   37.4800 C   0  0  0  0  0  0  0  0  0  0  0  0
   36.0630   29.5820   36.1150 C   0  0  0  0  0  0  0  0  0  0  0  0
   37.0100   29.9260   35.7250 H   0  0  0  0  0  0  0  0  0  0  0  0
   35.0070   29.1760   35.3150 C   0  0  0  0  0  0  0  0  0  0  0  0
   35.1990   29.2270   34.2340 H   0  0  0  0  0  0  0  0  0  0  0  0
   33.7960   28.7360   35.8290 C   0  0  0  0  0  3  0  0  0  0  0  0
   33.6130   28.6930   37.2110 C   0  0  0  0  0  3  0  0  0  0  0  0
   34.6430   29.0900   38.0030 N   0  0  0  0  0  0  0  0  0  0  0  0
  1  4  1  1  0  0  0
  1 12  1  0  0  0  0
  2  5  1  0  0  0  0
  2  1  1  0  0  0  0
  3  7  1  1  0  0  0
  3  2  1  0  0  0  0
  3  1  1  0  0  0  0
  6  2  1  0  0  0  0
  8  9  1  0  0  0  0
  8 16  1  0  0  0  0
  9 14  1  0  0  0  0
 10 15  1  0  0  0  0
 10  9  2  0  0  0  0
 11 10  1  0  0  0  0
 12 11  2  0  0  0  0
 12 13  1  0  0  0  0
 13  8  2  0  0  0  0
 16 18  1  0  0  0  0
 17 16  2  0  0  0  0
 19 26  1  0  0  0  0
 19  3  1  0  0  0  0
 20 19  2  0  0  0  0
 21 20  1  0  0  0  0
 22 24  2  0  0  0  0
 22 20  1  0  0  0  0
 23 22  1  0  0  0  0
 24 25  1  0  0  0  0
 25 26  2  0  0  0  0
M  END
>  <minimizedAffinity>
-4.46546936

$$$$

 OpenBabel03252507583D

 26 28  0  0  1  0  0  0  0  0999 V2000
   37.2820   27.8740   40.2010 C   0  0  1  0  0  0  0  0  0  0  0  0
   35.9230   28.4940   40.1970 C   0  0  0  0  0  0  0  0  0  0  0  0
   36.9280   28.9220   41.2140 C   0  0  2  0  0  0  0  0  0  0  0  0
   37.9280   28.0400   39.3390 H   0  0  0  0  0  0  0  0  0  0  0  0
   35.0690   27.8360   40.4800 H   0  0  0  0  0  0  0  0  0  0  0  0
   35.6830   29.1330   39.3180 H   0  0  0  0  0  0  0  0  0  0  0  0
   36.7070   28.6420   42.2500 H   0  0  0  0  0  0  0  0  0  0  0  0
   38.7400   25.1110   42.1260 C   0  0  0  0  0  0  0  0  0  0  0  0
   37.8410   24.0350   41.9100 C   0  0  0  0  0  0  0  0  0  0  0  0
   36.7290   24.2970   41.0900 C   0  0  0  0  0  0  0  0  0  0  0  0
   36.5750   25.5260   40.5640 N   0  0  0  0  0  0  0  0  0  0  0  0
   37.4790   26.5180   40.8120 C   0  0  0  0  0  0  0  0  0  0  0  0
   38.5590   26.3400   41.5810 N   0  0  0  0  0  0  0  0  0  0  0  0
   38.0030   23.0640   42.3530 H   0  0  0  0  0  0  0  0  0  0  0  0
   36.0120   23.5400   40.8830 H   0  0  0  0  0  0  0  0  0  0  0  0
   39.8580   24.7840   42.9660 C   0  0  0  0  0  0  0  0  0  0  0  0
   40.4930   25.6200   43.6800 O   0  0  0  0  0  0  0  0  0  0  0  0
   40.1380   23.7270   42.9540 H   0  0  0  0  0  0  0  0  0  0  0  0
   37.4920   30.3060   41.0230 C   0  0  0  0  0  0  0  0  0  0  0  0
   36.7150   31.1990   40.2950 C   0  0  0  0  0  0  0  0  0  0  0  0
   35.7550   30.9200   39.8850 H   0  0  0  0  0  0  0  0  0  0  0  0
   37.2740   32.4580   40.1470 C   0  0  0  0  0  0  0  0  0  0  0  0
   36.6650   33.1700   39.5720 H   0  0  0  0  0  0  0  0  0  0  0  0
   38.5080   32.8030   40.6780 C   0  0  0  0  0  3  0  0  0  0  0  0
   39.2330   31.8540   41.3990 C   0  0  0  0  0  3  0  0  0  0  0  0
   38.6920   30.6170   41.5490 N   0  0  0  0  0  0  0  0  0  0  0  0
  1  4  1  6  0  0  0
  1 12  1  0  0  0  0
  1  3  1  0  0  0  0
  2  1  1  0  0  0  0
  2  5  1  0  0  0  0
  2  3  1  0  0  0  0
  3  7  1  1  0  0  0
  6  2  1  0  0  0  0
  8 16  1  0  0  0  0
  9  8  1  0  0  0  0
  9 14  1  0  0  0  0
 10  9  2  0  0  0  0
 11 12  2  0  0  0  0
 11 10  1  0  0  0  0
 12 13  1  0  0  0  0
 13  8  2  0  0  0  0
 15 10  1  0  0  0  0
 16 17  2  0  0  0  0
 18 16  1  0  0  0  0
 19  3  1  0  0  0  0
 19 26  1  0  0  0  0
 20 19  2  0  0  0  0
 21 20  1  0  0  0  0
 22 20  1  0  0  0  0
 22 24  2  0  0  0  0
 23 22  1  0  0  0  0
 24 25  1  0  0  0  0
 25 26  2  0  0  0  0
M  END
>  <minimizedAffinity>
-4.39777422

$$$$

 OpenBabel03252507583D

 26 28  0  0  1  0  0  0  0  0999 V2000
   38.5040   28.9770   41.4420 C   0  0  1  0  0  0  0  0  0  0  0  0
   37.8450   28.8050   42.7710 C   0  0  0  0  0  0  0  0  0  0  0  0
   37.1270   28.3890   41.5310 C   0  0  2  0  0  0  0  0  0  0  0  0
   39.4090   28.4060   41.2350 H   0  0  0  0  0  0  0  0  0  0  0  0
   37.5570   29.7340   43.3140 H   0  0  0  0  0  0  0  0  0  0  0  0
   38.3090   28.0530   43.4490 H   0  0  0  0  0  0  0  0  0  0  0  0
   36.2490   28.9880   41.2650 H   0  0  0  0  0  0  0  0  0  0  0  0
   38.1280   31.6220   38.9260 C   0  0  0  0  0  0  0  0  0  0  0  0
   38.5630   32.7940   39.5980 C   0  0  0  0  0  0  0  0  0  0  0  0
   38.9820   32.6380   40.9310 C   0  0  0  0  0  0  0  0  0  0  0  0
   38.9490   31.4150   41.4920 N   0  0  0  0  0  0  0  0  0  0  0  0
   38.5180   30.3280   40.7890 C   0  0  0  0  0  0  0  0  0  0  0  0
   38.1060   30.4020   39.5170 N   0  0  0  0  0  0  0  0  0  0  0  0
   38.5730   33.7560   39.1090 H   0  0  0  0  0  0  0  0  0  0  0  0
   39.3210   33.4700   41.4990 H   0  0  0  0  0  0  0  0  0  0  0  0
   37.7170   31.8420   37.5670 C   0  0  0  0  0  0  0  0  0  0  0  0
   37.3810   30.9220   36.7590 O   0  0  0  0  0  0  0  0  0  0  0  0
   37.7100   32.8910   37.2620 H   0  0  0  0  0  0  0  0  0  0  0  0
   36.9820   26.9020   41.3350 C   0  0  0  0  0  0  0  0  0  0  0  0
   37.1280   26.1090   42.4660 C   0  0  0  0  0  0  0  0  0  0  0  0
   37.3360   26.5320   43.4390 H   0  0  0  0  0  0  0  0  0  0  0  0
   36.9850   24.7500   42.2370 C   0  0  0  0  0  0  0  0  0  0  0  0
   37.1000   24.1160   43.1280 H   0  0  0  0  0  0  0  0  0  0  0  0
   36.7190   24.2210   40.9830 C   0  0  0  0  0  3  0  0  0  0  0  0
   36.5840   25.0780   39.8910 C   0  0  0  0  0  3  0  0  0  0  0  0
   36.7230   26.4120   40.1080 N   0  0  0  0  0  0  0  0  0  0  0  0
  1  4  1  6  0  0  0
  1  3  1  0  0  0  0
  1  2  1  0  0  0  0
  2  5  1  0  0  0  0
  2  6  1  0  0  0  0
  3  7  1  6  0  0  0
  3  2  1  0  0  0  0
  8 13  2  0  0  0  0
  8  9  1  0  0  0  0
  9 10  2  0  0  0  0
 10 11  1  0  0  0  0
 10 15  1  0  0  0  0
 12  1  1  0  0  0  0
 12 11  2  0  0  0  0
 13 12  1  0  0  0  0
 14  9  1  0  0  0  0
 16  8  1  0  0  0  0
 17 16  2  0  0  0  0
 18 16  1  0  0  0  0
 19  3  1  0  0  0  0
 19 20  1  0  0  0  0
 20 21  1  0  0  0  0
 22 20  2  0  0  0  0
 22 23  1  0  0  0  0
 24 22  1  0  0  0  0
 25 26  1  0  0  0  0
 25 24  2  0  0  0  0
 26 19  2  0  0  0  0
M  END
>  <minimizedAffinity>
-4.39365053

$$$$

 OpenBabel03252507583D

 26 28  0  0  1  0  0  0  0  0999 V2000
   37.1850   28.5100   40.3490 C   0  0  1  0  0  0  0  0  0  0  0  0
   35.8760   29.1800   40.6080 C   0  0  0  0  0  0  0  0  0  0  0  0
   37.0940   29.6270   41.3450 C   0  0  2  0  0  0  0  0  0  0  0  0
   37.6250   28.6010   39.3560 H   0  0  0  0  0  0  0  0  0  0  0  0
   35.0910   28.5730   41.1160 H   0  0  0  0  0  0  0  0  0  0  0  0
   35.4600   29.7760   39.7640 H   0  0  0  0  0  0  0  0  0  0  0  0
   37.1040   29.4160   42.4210 H   0  0  0  0  0  0  0  0  0  0  0  0
   37.1260   24.9120   41.0700 C   0  0  0  0  0  0  0  0  0  0  0  0
   38.0110   24.7720   42.1700 C   0  0  0  0  0  0  0  0  0  0  0  0
   38.6210   25.9480   42.6430 C   0  0  0  0  0  0  0  0  0  0  0  0
   38.3430   27.1200   42.0430 N   0  0  0  0  0  0  0  0  0  0  0  0
   37.4810   27.1850   40.9870 C   0  0  0  0  0  0  0  0  0  0  0  0
   36.8650   26.1080   40.4850 N   0  0  0  0  0  0  0  0  0  0  0  0
   38.2060   23.8110   42.6210 H   0  0  0  0  0  0  0  0  0  0  0  0
   39.2960   25.9210   43.4640 H   0  0  0  0  0  0  0  0  0  0  0  0
   36.5310   23.6800   40.6330 C   0  0  0  0  0  0  0  0  0  0  0  0
   35.4090   23.5900   40.0460 O   0  0  0  0  0  0  0  0  0  0  0  0
   37.1280   22.7900   40.8450 H   0  0  0  0  0  0  0  0  0  0  0  0
   37.6330   30.9750   40.9440 C   0  0  0  0  0  0  0  0  0  0  0  0
   36.8170   31.7570   40.1360 C   0  0  0  0  0  0  0  0  0  0  0  0
   35.8450   31.4200   39.8080 H   0  0  0  0  0  0  0  0  0  0  0  0
   37.3560   32.9870   39.7940 C   0  0  0  0  0  0  0  0  0  0  0  0
   36.7160   33.6110   39.1540 H   0  0  0  0  0  0  0  0  0  0  0  0
   38.6070   33.4070   40.2210 C   0  0  0  0  0  3  0  0  0  0  0  0
   39.3720   32.5700   41.0330 C   0  0  0  0  0  3  0  0  0  0  0  0
   38.8510   31.3610   41.3720 N   0  0  0  0  0  0  0  0  0  0  0  0
  1  4  1  6  0  0  0
  1  2  1  0  0  0  0
  1 12  1  0  0  0  0
  1  3  1  0  0  0  0
  2  5  1  0  0  0  0
  2  3  1  0  0  0  0
  3  7  1  1  0  0  0
  6  2  1  0  0  0  0
  8  9  1  0  0  0  0
  9 14  1  0  0  0  0
  9 10  2  0  0  0  0
 10 15  1  0  0  0  0
 11 10  1  0  0  0  0
 12 11  2  0  0  0  0
 13 12  1  0  0  0  0
 13  8  2  0  0  0  0
 16 18  1  0  0  0  0
 16  8  1  0  0  0  0
 17 16  2  0  0  0  0
 19  3  1  0  0  0  0
 19 26  1  0  0  0  0
 20 19  2  0  0  0  0
 21 20  1  0  0  0  0
 22 20  1  0  0  0  0
 22 24  2  0  0  0  0
 23 22  1  0  0  0  0
 24 25  1  0  0  0  0
 25 26  2  0  0  0  0
M  END
>  <minimizedAffinity>
-4.36068678

$$$$

 OpenBabel03252507583D

 26 28  0  0  1  0  0  0  0  0999 V2000
   36.3420   29.4710   39.4920 C   0  0  1  0  0  0  0  0  0  0  0  0
   35.8000   30.2660   40.6350 C   0  0  0  0  0  0  0  0  0  0  0  0
   35.8010   28.7760   40.7070 C   0  0  2  0  0  0  0  0  0  0  0  0
   37.4010   29.5650   39.2540 H   0  0  0  0  0  0  0  0  0  0  0  0
   34.8550   30.8280   40.4520 H   0  0  0  0  0  0  0  0  0  0  0  0
   36.5430   30.8720   41.2000 H   0  0  0  0  0  0  0  0  0  0  0  0
   34.8160   28.2960   40.6810 H   0  0  0  0  0  0  0  0  0  0  0  0
   35.3410   29.1060   35.9810 C   0  0  0  0  0  0  0  0  0  0  0  0
   33.9440   28.8670   36.0490 C   0  0  0  0  0  0  0  0  0  0  0  0
   33.3720   28.8340   37.3330 C   0  0  0  0  0  0  0  0  0  0  0  0
   34.1580   29.0250   38.4090 N   0  0  0  0  0  0  0  0  0  0  0  0
   35.4970   29.2510   38.2730 C   0  0  0  0  0  0  0  0  0  0  0  0
   36.1090   29.2960   37.0830 N   0  0  0  0  0  0  0  0  0  0  0  0
   33.3510   28.7180   35.1590 H   0  0  0  0  0  0  0  0  0  0  0  0
   32.3310   28.6600   37.4630 H   0  0  0  0  0  0  0  0  0  0  0  0
   35.8690   29.1330   34.6450 C   0  0  0  0  0  0  0  0  0  0  0  0
   35.8660   30.1530   33.8890 O   0  0  0  0  0  0  0  0  0  0  0  0
   36.2910   28.1840   34.3070 H   0  0  0  0  0  0  0  0  0  0  0  0
   36.7880   28.1760   41.6740 C   0  0  0  0  0  0  0  0  0  0  0  0
   37.3170   29.0310   42.6330 C   0  0  0  0  0  0  0  0  0  0  0  0
   37.0390   30.0740   42.6860 H   0  0  0  0  0  0  0  0  0  0  0  0
   38.2190   28.4350   43.4990 C   0  0  0  0  0  0  0  0  0  0  0  0
   38.6420   29.1050   44.2610 H   0  0  0  0  0  0  0  0  0  0  0  0
   38.5690   27.0950   43.4190 C   0  0  0  0  0  3  0  0  0  0  0  0
   37.9970   26.2950   42.4300 C   0  0  0  0  0  3  0  0  0  0  0  0
   37.1120   26.8720   41.5760 N   0  0  0  0  0  0  0  0  0  0  0  0
  1  4  1  6  0  0  0
  1  2  1  0  0  0  0
  1  3  1  0  0  0  0
  2  3  1  0  0  0  0
  2  6  1  0  0  0  0
  3  7  1  6  0  0  0
  3 19  1  0  0  0  0
  5  2  1  0  0  0  0
  8  9  2  0  0  0  0
  8 13  1  0  0  0  0
  9 10  1  0  0  0  0
 10 15  1  0  0  0  0
 10 11  2  0  0  0  0
 12 11  1  0  0  0  0
 12  1  1  0  0  0  0
 13 12  2  0  0  0  0
 14  9  1  0  0  0  0
 16  8  1  0  0  0  0
 17 16  2  0  0  0  0
 18 16  1  0  0  0  0
 19 20  1  0  0  0  0
 20 21  1  0  0  0  0
 20 22  2  0  0  0  0
 22 23  1  0  0  0  0
 24 22  1  0  0  0  0
 25 24  2  0  0  0  0
 26 19  2  0  0  0  0
 26 25  1  0  0  0  0
M  END
>  <minimizedAffinity>
-4.34997511

$$$$

 OpenBabel03252507583D

 26 28  0  0  1  0  0  0  0  0999 V2000
   40.2400   30.4820   41.4210 C   0  0  1  0  0  0  0  0  0  0  0  0
   39.7790   30.9680   42.7570 C   0  0  0  0  0  0  0  0  0  0  0  0
   38.7790   30.4840   41.7600 C   0  0  2  0  0  0  0  0  0  0  0  0
   40.8650   29.5900   41.3840 H   0  0  0  0  0  0  0  0  0  0  0  0
   39.8980   32.0570   42.9640 H   0  0  0  0  0  0  0  0  0  0  0  0
   40.0740   30.3430   43.6290 H   0  0  0  0  0  0  0  0  0  0  0  0
   38.1120   31.2480   41.3440 H   0  0  0  0  0  0  0  0  0  0  0  0
   41.3820   31.8870   38.2290 C   0  0  0  0  0  0  0  0  0  0  0  0
   41.2420   33.2880   38.4050 C   0  0  0  0  0  0  0  0  0  0  0  0
   40.7430   33.7210   39.6470 C   0  0  0  0  0  0  0  0  0  0  0  0
   40.4300   32.8070   40.5850 N   0  0  0  0  0  0  0  0  0  0  0  0
   40.5890   31.4730   40.3500 C   0  0  0  0  0  0  0  0  0  0  0  0
   41.0590   30.9890   39.1940 N   0  0  0  0  0  0  0  0  0  0  0  0
   41.5050   33.9860   37.6250 H   0  0  0  0  0  0  0  0  0  0  0  0
   40.6100   34.7550   39.8520 H   0  0  0  0  0  0  0  0  0  0  0  0
   41.8990   31.5040   36.9450 C   0  0  0  0  0  0  0  0  0  0  0  0
   43.1250   31.5500   36.6190 O   0  0  0  0  0  0  0  0  0  0  0  0
   41.1420   31.1560   36.2390 H   0  0  0  0  0  0  0  0  0  0  0  0
   38.1290   29.1650   42.0860 C   0  0  0  0  0  0  0  0  0  0  0  0
   37.8990   28.8990   43.4300 C   0  0  0  0  0  0  0  0  0  0  0  0
   38.1700   29.6000   44.2070 H   0  0  0  0  0  0  0  0  0  0  0  0
   37.2990   27.6750   43.6790 C   0  0  0  0  0  0  0  0  0  0  0  0
   37.1140   27.4580   44.7410 H   0  0  0  0  0  0  0  0  0  0  0  0
   36.9560   26.7840   42.6730 C   0  0  0  0  0  3  0  0  0  0  0  0
   37.2170   27.1180   41.3440 C   0  0  0  0  0  3  0  0  0  0  0  0
   37.8050   28.3170   41.0910 N   0  0  0  0  0  0  0  0  0  0  0  0
  1  4  1  6  0  0  0
  1  3  1  0  0  0  0
  1  2  1  0  0  0  0
  2  5  1  0  0  0  0
  2  6  1  0  0  0  0
  3  7  1  6  0  0  0
  3 19  1  0  0  0  0
  3  2  1  0  0  0  0
  8  9  2  0  0  0  0
  8 13  1  0  0  0  0
  9 10  1  0  0  0  0
 10 15  1  0  0  0  0
 10 11  2  0  0  0  0
 12 11  1  0  0  0  0
 12  1  1  0  0  0  0
 13 12  2  0  0  0  0
 14  9  1  0  0  0  0
 16  8  1  0  0  0  0
 17 16  2  0  0  0  0
 18 16  1  0  0  0  0
 19 20  1  0  0  0  0
 20 22  2  0  0  0  0
 20 21  1  0  0  0  0
 22 23  1  0  0  0  0
 24 22  1  0  0  0  0
 25 24  2  0  0  0  0
 26 25  1  0  0  0  0
 26 19  2  0  0  0  0
M  END
>  <minimizedAffinity>
-4.34304142

$$$$
