
 OpenBabel03252508143D

 36 39  0  0  1  0  0  0  0  0999 V2000
   46.1780   30.8760   46.8800 C   0  0  0  0  0  0  0  0  0  0  0  0
   47.1820   30.4450   46.8660 H   0  0  0  0  0  0  0  0  0  0  0  0
   45.3840   30.1140   46.7560 H   0  0  0  0  0  0  0  0  0  0  0  0
   45.9680   31.5160   48.2320 C   0  0  1  0  0  0  0  0  0  0  0  0
   45.7200   30.5950   49.3740 C   0  0  0  0  0  0  0  0  0  0  0  0
   46.9760   31.3160   49.2960 C   0  0  1  0  0  0  0  0  0  0  0  0
   45.4170   32.4750   48.2340 H   0  0  0  0  0  0  0  0  0  0  0  0
   44.9630   30.9210   50.1400 H   0  0  0  0  0  0  0  0  0  0  0  0
   45.6320   29.4950   49.2110 H   0  0  0  0  0  0  0  0  0  0  0  0
   47.0980   32.1890   50.0080 H   0  0  0  0  0  0  0  0  0  0  0  0
   48.2720   30.7120   48.9220 C   0  0  0  0  0  0  0  0  0  0  0  0
   49.2190   30.4460   50.1240 C   0  0  0  0  0  0  0  0  0  0  0  0
   49.5280   31.5790   49.2070 C   0  0  0  0  0  0  0  0  0  0  0  0
   48.3240   29.9980   48.0860 H   0  0  0  0  0  0  0  0  0  0  0  0
   48.8460   30.6930   51.1340 H   0  0  0  0  0  0  0  0  0  0  0  0
   49.7980   29.5120   50.0310 H   0  0  0  0  0  0  0  0  0  0  0  0
   49.3260   32.6230   49.5260 H   0  0  0  0  0  0  0  0  0  0  0  0
   50.3350   31.4170   48.4700 H   0  0  0  0  0  0  0  0  0  0  0  0
   45.6980   33.0830   46.2020 C   0  0  0  0  0  2  0  0  0  0  0  0
   46.0160   31.9220   45.7850 C   0  0  0  0  0  2  0  0  0  0  0  0
   44.5320   36.1560   44.5440 C   0  0  0  0  0  0  0  0  0  0  0  0
   45.1720   36.1270   43.3110 C   0  0  0  0  0  0  0  0  0  0  0  0
   46.0020   35.0420   43.0820 C   0  0  0  0  0  0  0  0  0  0  0  0
   46.1190   34.1300   44.0460 N   0  0  0  0  0  0  0  0  0  0  0  0
   45.5080   34.1580   45.2200 C   0  0  0  0  0  0  0  0  0  0  0  0
   44.7160   35.1880   45.4480 N   0  0  0  0  0  0  0  0  0  0  0  0
   43.8710   37.0080   44.7450 H   0  0  0  0  0  0  0  0  0  0  0  0
   45.0760   36.8620   42.5410 H   0  0  0  0  0  0  0  0  0  0  0  0
   46.7660   34.8320   41.8450 C   0  0  0  0  0  0  0  0  0  0  0  0
   46.3160   34.0590   40.8000 C   0  0  0  0  0  0  0  0  0  0  0  0
   45.3710   33.5760   40.8650 H   0  0  0  0  0  0  0  0  0  0  0  0
   47.0150   33.8520   39.6400 C   0  0  0  0  0  0  0  0  0  0  0  0
   46.6350   33.2390   38.8380 H   0  0  0  0  0  0  0  0  0  0  0  0
   48.2500   34.4430   39.4820 C   0  0  0  0  0  3  0  0  0  0  0  0
   48.6800   35.2160   40.5440 C   0  0  0  0  0  3  0  0  0  0  0  0
   47.9800   35.3970   41.6540 N   0  0  0  0  0  0  0  0  0  0  0  0
  1  4  1  0  0  0  0
  2  1  1  0  0  0  0
  3  1  1  0  0  0  0
  4  7  1  1  0  0  0
  4  6  1  0  0  0  0
  4  5  1  0  0  0  0
  5  8  1  0  0  0  0
  6  5  1  0  0  0  0
  6 10  1  1  0  0  0
  9  5  1  0  0  0  0
 11 13  1  0  0  0  0
 11  6  1  0  0  0  0
 11 12  1  0  0  0  0
 12 15  1  0  0  0  0
 13 17  1  0  0  0  0
 13 12  1  0  0  0  0
 14 11  1  0  0  0  0
 16 12  1  0  0  0  0
 18 13  1  0  0  0  0
 20 19  1  0  0  0  0
 20  1  1  0  0  0  0
 21 27  1  0  0  0  0
 21 26  1  0  0  0  0
 22 21  2  0  0  0  0
 23 22  1  0  0  0  0
 23 24  2  0  0  0  0
 24 25  1  0  0  0  0
 25 26  2  0  0  0  0
 25 19  1  0  0  0  0
 28 22  1  0  0  0  0
 29 23  1  0  0  0  0
 30 31  1  0  0  0  0
 30 29  2  0  0  0  0
 32 30  1  0  0  0  0
 33 32  1  0  0  0  0
 34 32  2  0  0  0  0
 34 35  1  0  0  0  0
 35 36  2  0  0  0  0
 36 29  1  0  0  0  0
M  END
>  <minimizedAffinity>
-5.87956476

>  <minimizedRMSD>
0.583682537

$$$$
