
 OpenBabel03242522123D

 19 20  0  0  0  0  0  0  0  0999 V2000
   37.1920   32.2430   39.9510 C   0  0  0  0  0  0  0  0  0  0  0  0
   36.9340   31.0880   40.7030 C   0  0  0  0  0  0  0  0  0  0  0  0
   37.9070   30.1110   40.8370 C   0  0  0  0  0  0  0  0  0  0  0  0
   39.0810   30.3400   40.2150 N   0  0  0  0  0  0  0  0  0  0  0  0
   39.3400   31.4420   39.4930 C   0  0  0  0  0  0  0  0  0  0  0  0
   38.3930   32.3920   39.3630 N   0  0  0  0  0  0  0  0  0  0  0  0
   36.4770   33.0410   39.8080 H   0  0  0  0  0  0  0  0  0  0  0  0
   40.2670   31.6410   38.9930 H   0  0  0  0  0  0  0  0  0  0  0  0
   37.5950   28.9490   41.6140 C   0  0  0  0  0  0  0  0  0  0  0  0
   37.3830   27.7600   40.9500 C   0  0  0  0  0  0  0  0  0  0  0  0
   37.4490   27.6990   39.8730 H   0  0  0  0  0  0  0  0  0  0  0  0
   37.0760   26.6000   41.6680 C   0  0  0  0  0  0  0  0  0  0  0  0
   36.9150   25.6840   41.1360 H   0  0  0  0  0  0  0  0  0  0  0  0
   37.0110   26.7640   43.0370 C   0  0  0  0  0  3  0  0  0  0  0  0
   37.2270   27.9640   43.6780 C   0  0  0  0  0  3  0  0  0  0  0  0
   37.5240   29.0740   42.9440 N   0  0  0  0  0  0  0  0  0  0  0  0
   35.6210   31.0210   41.2920 N   0  0  0  0  0  0  0  0  0  0  0  0
   35.1810   31.4450   42.1390 H   0  0  0  0  0  0  0  0  0  0  0  0
   35.0970   30.3790   40.6320 H   0  0  0  0  0  0  0  0  0  0  0  0
  1  2  1  0  0  0  0
  2  3  2  0  0  0  0
  2 17  1  0  0  0  0
  3  9  1  0  0  0  0
  4  3  1  0  0  0  0
  5  4  2  0  0  0  0
  6  5  1  0  0  0  0
  6  1  2  0  0  0  0
  7  1  1  0  0  0  0
  8  5  1  0  0  0  0
  9 16  1  0  0  0  0
 10  9  2  0  0  0  0
 10 12  1  0  0  0  0
 11 10  1  0  0  0  0
 12 14  2  0  0  0  0
 13 12  1  0  0  0  0
 14 15  1  0  0  0  0
 16 15  2  0  0  0  0
 17 18  1  0  0  0  0
 19 17  1  0  0  0  0
M  END
>  <minimizedAffinity>
-4.64183378

$$$$

 OpenBabel03242522123D

 19 20  0  0  0  0  0  0  0  0999 V2000
   37.4780   32.6250   40.1030 C   0  0  0  0  0  0  0  0  0  0  0  0
   37.2110   31.4050   40.7410 C   0  0  0  0  0  0  0  0  0  0  0  0
   38.2430   30.5310   41.0380 C   0  0  0  0  0  0  0  0  0  0  0  0
   39.4840   30.9220   40.6830 N   0  0  0  0  0  0  0  0  0  0  0  0
   39.7530   32.0880   40.0720 C   0  0  0  0  0  0  0  0  0  0  0  0
   38.7470   32.9370   39.7840 N   0  0  0  0  0  0  0  0  0  0  0  0
   36.7180   33.3490   39.8440 H   0  0  0  0  0  0  0  0  0  0  0  0
   40.7330   32.4150   39.7840 H   0  0  0  0  0  0  0  0  0  0  0  0
   37.9190   29.2980   41.6890 C   0  0  0  0  0  0  0  0  0  0  0  0
   38.3080   29.1340   43.0020 C   0  0  0  0  0  0  0  0  0  0  0  0
   38.8430   29.9120   43.5300 H   0  0  0  0  0  0  0  0  0  0  0  0
   38.0130   27.9480   43.6800 C   0  0  0  0  0  0  0  0  0  0  0  0
   38.3220   27.8370   44.6990 H   0  0  0  0  0  0  0  0  0  0  0  0
   37.3290   27.0090   42.9350 C   0  0  0  0  0  3  0  0  0  0  0  0
   36.9500   27.1950   41.6230 C   0  0  0  0  0  3  0  0  0  0  0  0
   37.2560   28.3670   40.9950 N   0  0  0  0  0  0  0  0  0  0  0  0
   35.8220   31.1620   41.0410 N   0  0  0  0  0  0  0  0  0  0  0  0
   35.1730   31.4840   41.7930 H   0  0  0  0  0  0  0  0  0  0  0  0
   35.5210   30.5090   40.2630 H   0  0  0  0  0  0  0  0  0  0  0  0
  1  2  1  0  0  0  0
  2  3  2  0  0  0  0
  2 17  1  0  0  0  0
  3  9  1  0  0  0  0
  4  3  1  0  0  0  0
  5  4  2  0  0  0  0
  6  5  1  0  0  0  0
  6  1  2  0  0  0  0
  7  1  1  0  0  0  0
  8  5  1  0  0  0  0
  9 10  1  0  0  0  0
 10 11  1  0  0  0  0
 10 12  2  0  0  0  0
 12 13  1  0  0  0  0
 14 12  1  0  0  0  0
 15 14  2  0  0  0  0
 16 15  1  0  0  0  0
 16  9  2  0  0  0  0
 17 18  1  0  0  0  0
 19 17  1  0  0  0  0
M  END
>  <minimizedAffinity>
-4.53135538

$$$$

 OpenBabel03242522123D

 19 20  0  0  0  0  0  0  0  0999 V2000
   37.0230   26.9730   42.8450 C   0  0  0  0  0  0  0  0  0  0  0  0
   37.2620   28.3220   42.5460 C   0  0  0  0  0  0  0  0  0  0  0  0
   37.4900   28.7170   41.2380 C   0  0  0  0  0  0  0  0  0  0  0  0
   37.4660   27.7470   40.3030 N   0  0  0  0  0  0  0  0  0  0  0  0
   37.2390   26.4510   40.5770 C   0  0  0  0  0  0  0  0  0  0  0  0
   37.0170   26.0680   41.8500 N   0  0  0  0  0  0  0  0  0  0  0  0
   36.8390   26.6010   43.8440 H   0  0  0  0  0  0  0  0  0  0  0  0
   37.2160   25.6670   39.8460 H   0  0  0  0  0  0  0  0  0  0  0  0
   37.7280   30.1060   40.9840 C   0  0  0  0  0  0  0  0  0  0  0  0
   36.7870   30.8050   40.2570 C   0  0  0  0  0  0  0  0  0  0  0  0
   35.8930   30.3230   39.8860 H   0  0  0  0  0  0  0  0  0  0  0  0
   36.9770   32.1620   39.9840 C   0  0  0  0  0  0  0  0  0  0  0  0
   36.2360   32.6900   39.4180 H   0  0  0  0  0  0  0  0  0  0  0  0
   38.1420   32.6990   40.4920 C   0  0  0  0  0  3  0  0  0  0  0  0
   39.0680   31.9800   41.2160 C   0  0  0  0  0  3  0  0  0  0  0  0
   38.8490   30.6570   41.4620 N   0  0  0  0  0  0  0  0  0  0  0  0
   37.2480   29.2130   43.6790 N   0  0  0  0  0  0  0  0  0  0  0  0
   36.4910   29.6640   44.2400 H   0  0  0  0  0  0  0  0  0  0  0  0
   38.2780   29.3570   43.8800 H   0  0  0  0  0  0  0  0  0  0  0  0
  1  7  1  0  0  0  0
  2  1  1  0  0  0  0
  2 17  1  0  0  0  0
  3  2  2  0  0  0  0
  4  5  2  0  0  0  0
  4  3  1  0  0  0  0
  5  6  1  0  0  0  0
  6  1  2  0  0  0  0
  8  5  1  0  0  0  0
  9  3  1  0  0  0  0
  9 16  1  0  0  0  0
 10  9  2  0  0  0  0
 11 10  1  0  0  0  0
 12 10  1  0  0  0  0
 12 14  2  0  0  0  0
 13 12  1  0  0  0  0
 14 15  1  0  0  0  0
 15 16  2  0  0  0  0
 17 19  1  0  0  0  0
 17 18  1  0  0  0  0
M  END
>  <minimizedAffinity>
-4.13851357

$$$$

 OpenBabel03242522123D

 19 20  0  0  0  0  0  0  0  0999 V2000
   35.7290   28.8040   40.2600 C   0  0  0  0  0  0  0  0  0  0  0  0
   36.3030   30.0730   40.4210 C   0  0  0  0  0  0  0  0  0  0  0  0
   37.4330   30.4250   39.7010 C   0  0  0  0  0  0  0  0  0  0  0  0
   37.9260   29.4930   38.8620 N   0  0  0  0  0  0  0  0  0  0  0  0
   37.3860   28.2740   38.6990 C   0  0  0  0  0  0  0  0  0  0  0  0
   36.2870   27.9330   39.4000 N   0  0  0  0  0  0  0  0  0  0  0  0
   34.8490   28.4690   40.7920 H   0  0  0  0  0  0  0  0  0  0  0  0
   37.7650   27.5210   38.0360 H   0  0  0  0  0  0  0  0  0  0  0  0
   37.9800   31.7330   39.9000 C   0  0  0  0  0  0  0  0  0  0  0  0
   39.2670   31.8320   40.3860 C   0  0  0  0  0  0  0  0  0  0  0  0
   39.8510   30.9500   40.6130 H   0  0  0  0  0  0  0  0  0  0  0  0
   39.8440   33.0880   40.5970 C   0  0  0  0  0  0  0  0  0  0  0  0
   40.8440   33.1470   40.9750 H   0  0  0  0  0  0  0  0  0  0  0  0
   39.0330   34.1590   40.2830 C   0  0  0  0  0  3  0  0  0  0  0  0
   37.7490   34.0350   39.7980 C   0  0  0  0  0  3  0  0  0  0  0  0
   37.2200   32.7930   39.6060 N   0  0  0  0  0  0  0  0  0  0  0  0
   35.6330   30.9330   41.3640 N   0  0  0  0  0  0  0  0  0  0  0  0
   34.7770   31.5300   41.3230 H   0  0  0  0  0  0  0  0  0  0  0  0
   36.2370   30.8510   42.2310 H   0  0  0  0  0  0  0  0  0  0  0  0
  1  2  1  0  0  0  0
  1  7  1  0  0  0  0
  2 17  1  0  0  0  0
  3  9  1  0  0  0  0
  3  2  2  0  0  0  0
  4  3  1  0  0  0  0
  5  4  2  0  0  0  0
  5  6  1  0  0  0  0
  6  1  2  0  0  0  0
  8  5  1  0  0  0  0
  9 10  1  0  0  0  0
 10 12  2  0  0  0  0
 10 11  1  0  0  0  0
 12 13  1  0  0  0  0
 14 12  1  0  0  0  0
 15 14  2  0  0  0  0
 16 15  1  0  0  0  0
 16  9  2  0  0  0  0
 17 19  1  0  0  0  0
 18 17  1  0  0  0  0
M  END
>  <minimizedAffinity>
-3.98872495

$$$$

 OpenBabel03242522123D

 19 20  0  0  0  0  0  0  0  0999 V2000
   36.5310   30.5760   41.1220 C   0  0  0  0  0  0  0  0  0  0  0  0
   36.9510   29.3500   41.6600 C   0  0  0  0  0  0  0  0  0  0  0  0
   37.3260   28.3120   40.8220 C   0  0  0  0  0  0  0  0  0  0  0  0
   37.2610   28.5540   39.4980 N   0  0  0  0  0  0  0  0  0  0  0  0
   36.8610   29.7230   38.9710 C   0  0  0  0  0  0  0  0  0  0  0  0
   36.4970   30.7320   39.7870 N   0  0  0  0  0  0  0  0  0  0  0  0
   36.2270   31.4230   41.7200 H   0  0  0  0  0  0  0  0  0  0  0  0
   36.8040   29.9330   37.9210 H   0  0  0  0  0  0  0  0  0  0  0  0
   37.7470   27.0810   41.4200 C   0  0  0  0  0  0  0  0  0  0  0  0
   36.9580   25.9660   41.2360 C   0  0  0  0  0  0  0  0  0  0  0  0
   36.0450   26.0130   40.6580 H   0  0  0  0  0  0  0  0  0  0  0  0
   37.3290   24.7420   41.8010 C   0  0  0  0  0  0  0  0  0  0  0  0
   36.7040   23.8850   41.6480 H   0  0  0  0  0  0  0  0  0  0  0  0
   38.5050   24.7680   42.5210 C   0  0  0  0  0  3  0  0  0  0  0  0
   39.2780   25.8960   42.6910 C   0  0  0  0  0  3  0  0  0  0  0  0
   38.8840   27.0720   42.1250 N   0  0  0  0  0  0  0  0  0  0  0  0
   36.9540   29.2820   43.1000 N   0  0  0  0  0  0  0  0  0  0  0  0
   37.6060   29.6190   43.8430 H   0  0  0  0  0  0  0  0  0  0  0  0
   36.0580   28.7580   43.3140 H   0  0  0  0  0  0  0  0  0  0  0  0
  1  2  1  0  0  0  0
  1  7  1  0  0  0  0
  2 17  1  0  0  0  0
  3  9  1  0  0  0  0
  3  2  2  0  0  0  0
  4  3  1  0  0  0  0
  5  4  2  0  0  0  0
  5  6  1  0  0  0  0
  6  1  2  0  0  0  0
  8  5  1  0  0  0  0
  9 16  1  0  0  0  0
 10  9  2  0  0  0  0
 10 12  1  0  0  0  0
 11 10  1  0  0  0  0
 12 14  2  0  0  0  0
 13 12  1  0  0  0  0
 14 15  1  0  0  0  0
 16 15  2  0  0  0  0
 17 19  1  0  0  0  0
 17 18  1  0  0  0  0
M  END
>  <minimizedAffinity>
-3.96498156

$$$$

 OpenBabel03242522123D

 19 20  0  0  0  0  0  0  0  0999 V2000
   42.2520   33.3960   37.3160 C   0  0  0  0  0  0  0  0  0  0  0  0
   41.0430   32.9160   37.8410 C   0  0  0  0  0  0  0  0  0  0  0  0
   40.7970   32.9830   39.2020 C   0  0  0  0  0  0  0  0  0  0  0  0
   41.7680   33.5250   39.9630 N   0  0  0  0  0  0  0  0  0  0  0  0
   42.9300   33.9890   39.4730 C   0  0  0  0  0  0  0  0  0  0  0  0
   43.1680   33.9230   38.1480 N   0  0  0  0  0  0  0  0  0  0  0  0
   42.5040   33.3720   36.2650 H   0  0  0  0  0  0  0  0  0  0  0  0
   43.7120   34.4240   40.0630 H   0  0  0  0  0  0  0  0  0  0  0  0
   39.5480   32.4800   39.6890 C   0  0  0  0  0  0  0  0  0  0  0  0
   39.5600   31.3150   40.4280 C   0  0  0  0  0  0  0  0  0  0  0  0
   40.4830   30.7930   40.6370 H   0  0  0  0  0  0  0  0  0  0  0  0
   38.3650   30.7860   40.9230 C   0  0  0  0  0  0  0  0  0  0  0  0
   38.3920   29.8810   41.4960 H   0  0  0  0  0  0  0  0  0  0  0  0
   37.2340   31.5130   40.6120 C   0  0  0  0  0  3  0  0  0  0  0  0
   37.2470   32.6750   39.8710 C   0  0  0  0  0  3  0  0  0  0  0  0
   38.4330   33.1610   39.4040 N   0  0  0  0  0  0  0  0  0  0  0  0
   40.1270   32.3710   36.8700 N   0  0  0  0  0  0  0  0  0  0  0  0
   39.4520   32.7890   36.1930 H   0  0  0  0  0  0  0  0  0  0  0  0
   40.2710   31.3260   36.9690 H   0  0  0  0  0  0  0  0  0  0  0  0
  1  2  2  0  0  0  0
  1  6  1  0  0  0  0
  2  3  1  0  0  0  0
  3  9  1  0  0  0  0
  3  4  2  0  0  0  0
  5  4  1  0  0  0  0
  5  8  1  0  0  0  0
  6  5  2  0  0  0  0
  7  1  1  0  0  0  0
  9 10  1  0  0  0  0
 10 11  1  0  0  0  0
 10 12  2  0  0  0  0
 12 13  1  0  0  0  0
 14 12  1  0  0  0  0
 15 14  2  0  0  0  0
 16  9  2  0  0  0  0
 16 15  1  0  0  0  0
 17 19  1  0  0  0  0
 17  2  1  0  0  0  0
 18 17  1  0  0  0  0
M  END
>  <minimizedAffinity>
-3.94431543

$$$$

 OpenBabel03242522123D

 19 20  0  0  0  0  0  0  0  0999 V2000
   36.3220   30.8160   40.9870 C   0  0  0  0  0  0  0  0  0  0  0  0
   37.3080   31.6070   40.3790 C   0  0  0  0  0  0  0  0  0  0  0  0
   38.5210   31.0490   40.0100 C   0  0  0  0  0  0  0  0  0  0  0  0
   38.6830   29.7360   40.2670 N   0  0  0  0  0  0  0  0  0  0  0  0
   37.7460   28.9680   40.8480 C   0  0  0  0  0  0  0  0  0  0  0  0
   36.5670   29.5120   41.2060 N   0  0  0  0  0  0  0  0  0  0  0  0
   35.3570   31.1900   41.2980 H   0  0  0  0  0  0  0  0  0  0  0  0
   37.8580   27.9220   41.0590 H   0  0  0  0  0  0  0  0  0  0  0  0
   39.4950   31.8980   39.3920 C   0  0  0  0  0  0  0  0  0  0  0  0
   39.9250   31.5770   38.1220 C   0  0  0  0  0  0  0  0  0  0  0  0
   39.5420   30.7100   37.6010 H   0  0  0  0  0  0  0  0  0  0  0  0
   40.8750   32.3770   37.4790 C   0  0  0  0  0  0  0  0  0  0  0  0
   41.1980   32.1130   36.4930 H   0  0  0  0  0  0  0  0  0  0  0  0
   41.3120   33.4620   38.2120 C   0  0  0  0  0  3  0  0  0  0  0  0
   40.8670   33.7620   39.4810 C   0  0  0  0  0  3  0  0  0  0  0  0
   39.9390   32.9580   40.0760 N   0  0  0  0  0  0  0  0  0  0  0  0
   36.9510   32.9900   40.1860 N   0  0  0  0  0  0  0  0  0  0  0  0
   36.3720   33.5010   39.4830 H   0  0  0  0  0  0  0  0  0  0  0  0
   37.4430   33.4760   40.9890 H   0  0  0  0  0  0  0  0  0  0  0  0
  1  6  1  0  0  0  0
  1  7  1  0  0  0  0
  2  1  2  0  0  0  0
  3  4  2  0  0  0  0
  3  2  1  0  0  0  0
  4  5  1  0  0  0  0
  5  8  1  0  0  0  0
  5  6  2  0  0  0  0
  9  3  1  0  0  0  0
  9 16  1  0  0  0  0
 10  9  2  0  0  0  0
 11 10  1  0  0  0  0
 12 10  1  0  0  0  0
 12 14  2  0  0  0  0
 13 12  1  0  0  0  0
 14 15  1  0  0  0  0
 15 16  2  0  0  0  0
 17  2  1  0  0  0  0
 17 19  1  0  0  0  0
 18 17  1  0  0  0  0
M  END
>  <minimizedAffinity>
-3.90248919

$$$$

 OpenBabel03242522123D

 19 20  0  0  0  0  0  0  0  0999 V2000
   37.3370   31.0290   38.0990 C   0  0  0  0  0  0  0  0  0  0  0  0
   37.4020   30.0880   39.1360 C   0  0  0  0  0  0  0  0  0  0  0  0
   37.4010   30.5030   40.4570 C   0  0  0  0  0  0  0  0  0  0  0  0
   37.3350   31.8320   40.6710 N   0  0  0  0  0  0  0  0  0  0  0  0
   37.2720   32.7440   39.6860 C   0  0  0  0  0  0  0  0  0  0  0  0
   37.2730   32.3380   38.4010 N   0  0  0  0  0  0  0  0  0  0  0  0
   37.3330   30.7700   37.0490 H   0  0  0  0  0  0  0  0  0  0  0  0
   37.2180   33.8040   39.8380 H   0  0  0  0  0  0  0  0  0  0  0  0
   37.4690   29.5030   41.4800 C   0  0  0  0  0  0  0  0  0  0  0  0
   38.5950   29.4610   42.2750 C   0  0  0  0  0  0  0  0  0  0  0  0
   39.4070   30.1620   42.1350 H   0  0  0  0  0  0  0  0  0  0  0  0
   38.7060   28.5020   43.2860 C   0  0  0  0  0  0  0  0  0  0  0  0
   39.5870   28.4840   43.8950 H   0  0  0  0  0  0  0  0  0  0  0  0
   37.6280   27.6490   43.3970 C   0  0  0  0  0  3  0  0  0  0  0  0
   36.5120   27.7100   42.5900 C   0  0  0  0  0  3  0  0  0  0  0  0
   36.4400   28.6590   41.6140 N   0  0  0  0  0  0  0  0  0  0  0  0
   37.4670   28.7120   38.7110 N   0  0  0  0  0  0  0  0  0  0  0  0
   36.7600   28.0190   38.3780 H   0  0  0  0  0  0  0  0  0  0  0  0
   38.4970   28.4830   38.8050 H   0  0  0  0  0  0  0  0  0  0  0  0
  1  6  2  0  0  0  0
  1  2  1  0  0  0  0
  2  3  2  0  0  0  0
  3  4  1  0  0  0  0
  3  9  1  0  0  0  0
  5  8  1  0  0  0  0
  5  4  2  0  0  0  0
  6  5  1  0  0  0  0
  7  1  1  0  0  0  0
  9 16  2  0  0  0  0
  9 10  1  0  0  0  0
 10 12  2  0  0  0  0
 11 10  1  0  0  0  0
 12 14  1  0  0  0  0
 12 13  1  0  0  0  0
 15 14  2  0  0  0  0
 16 15  1  0  0  0  0
 17 19  1  0  0  0  0
 17  2  1  0  0  0  0
 18 17  1  0  0  0  0
M  END
>  <minimizedAffinity>
-3.88043785

$$$$

 OpenBabel03242522123D

 19 20  0  0  0  0  0  0  0  0999 V2000
   39.4250   31.5700   39.3300 C   0  0  0  0  0  0  0  0  0  0  0  0
   39.0870   30.4370   40.0850 C   0  0  0  0  0  0  0  0  0  0  0  0
   37.8830   30.3880   40.7680 C   0  0  0  0  0  0  0  0  0  0  0  0
   37.0840   31.4670   40.6590 N   0  0  0  0  0  0  0  0  0  0  0  0
   37.3960   32.5570   39.9390 C   0  0  0  0  0  0  0  0  0  0  0  0
   38.5680   32.6050   39.2750 N   0  0  0  0  0  0  0  0  0  0  0  0
   40.3480   31.6700   38.7750 H   0  0  0  0  0  0  0  0  0  0  0  0
   36.7720   33.4250   39.8410 H   0  0  0  0  0  0  0  0  0  0  0  0
   37.5840   29.2100   41.5250 C   0  0  0  0  0  0  0  0  0  0  0  0
   37.6750   29.2790   42.8990 C   0  0  0  0  0  0  0  0  0  0  0  0
   37.9640   30.1950   43.3970 H   0  0  0  0  0  0  0  0  0  0  0  0
   37.3930   28.1540   43.6800 C   0  0  0  0  0  0  0  0  0  0  0  0
   37.4680   28.2260   44.7460 H   0  0  0  0  0  0  0  0  0  0  0  0
   37.0330   27.0290   42.9670 C   0  0  0  0  0  3  0  0  0  0  0  0
   36.9480   26.9830   41.5930 C   0  0  0  0  0  3  0  0  0  0  0  0
   37.2320   28.1010   40.8640 N   0  0  0  0  0  0  0  0  0  0  0  0
   40.0700   29.3830   40.0810 N   0  0  0  0  0  0  0  0  0  0  0  0
   40.3230   28.6270   39.4060 H   0  0  0  0  0  0  0  0  0  0  0  0
   40.5660   29.5170   41.0080 H   0  0  0  0  0  0  0  0  0  0  0  0
  1  2  1  0  0  0  0
  2  3  2  0  0  0  0
  3  9  1  0  0  0  0
  4  3  1  0  0  0  0
  5  4  2  0  0  0  0
  6  1  2  0  0  0  0
  6  5  1  0  0  0  0
  7  1  1  0  0  0  0
  8  5  1  0  0  0  0
  9 10  1  0  0  0  0
 10 11  1  0  0  0  0
 10 12  2  0  0  0  0
 12 13  1  0  0  0  0
 14 12  1  0  0  0  0
 15 14  2  0  0  0  0
 16  9  2  0  0  0  0
 16 15  1  0  0  0  0
 17  2  1  0  0  0  0
 17 19  1  0  0  0  0
 18 17  1  0  0  0  0
M  END
>  <minimizedAffinity>
-3.84570026

$$$$
