
 OpenBabel03252503303D

 36 38  0  0  1  0  0  0  0  0999 V2000
   45.3380   34.7650   42.5960 C   0  0  0  0  0  0  0  0  0  0  0  0
   46.5730   35.1490   42.0140 C   0  0  0  0  0  0  0  0  0  0  0  0
   47.7310   34.6310   42.6130 C   0  0  0  0  0  0  0  0  0  0  0  0
   47.5980   33.8200   43.6780 N   0  0  0  0  0  0  0  0  0  0  0  0
   46.3930   33.4810   44.2010 C   0  0  0  0  0  0  0  0  0  0  0  0
   45.2670   33.9580   43.6520 N   0  0  0  0  0  0  0  0  0  0  0  0
   43.7980   34.5600   40.8480 C   0  0  0  0  0  0  0  0  0  0  0  0
   44.5970   33.6850   40.3960 O   0  0  0  0  0  0  0  0  0  0  0  0
   44.1140   35.2530   42.0410 N   0  0  0  0  0  0  0  0  0  0  0  0
   42.6220   34.7630   40.0830 N   0  0  0  0  0  0  0  0  0  0  0  0
   42.4870   34.2750   38.7140 C   0  0  0  0  0  0  0  0  0  0  0  0
   41.6530   35.3590   38.0810 C   0  0  0  0  0  0  0  0  0  0  0  0
   41.1540   36.2440   39.1810 C   0  0  0  0  0  0  0  0  0  0  0  0
   41.3690   35.4430   40.4260 C   0  0  1  0  0  0  0  0  0  0  0  0
   46.6060   35.8000   41.1630 H   0  0  0  0  0  0  0  0  0  0  0  0
   46.3190   32.8250   45.0590 H   0  0  0  0  0  0  0  0  0  0  0  0
   43.4810   35.9880   42.3720 H   0  0  0  0  0  0  0  0  0  0  0  0
   41.8990   33.3200   38.6870 H   0  0  0  0  0  0  0  0  0  0  0  0
   43.4490   34.1060   38.2270 H   0  0  0  0  0  0  0  0  0  0  0  0
   42.3770   35.9730   37.4690 H   0  0  0  0  0  0  0  0  0  0  0  0
   40.8660   34.9800   37.4200 H   0  0  0  0  0  0  0  0  0  0  0  0
   41.7170   37.1840   39.2760 H   0  0  0  0  0  0  0  0  0  0  0  0
   40.0760   36.4870   39.0420 H   0  0  0  0  0  0  0  0  0  0  0  0
   41.5110   36.0360   41.3390 H   0  0  0  0  0  0  0  0  0  0  0  0
   40.3700   34.3450   40.5790 C   0  0  0  0  0  0  0  0  0  0  0  0
   39.1540   34.4160   39.9220 C   0  0  0  0  0  0  0  0  0  0  0  0
   38.9860   35.2930   39.3140 H   0  0  0  0  0  0  0  0  0  0  0  0
   38.1510   33.4640   39.9870 C   0  0  0  0  0  0  0  0  0  0  0  0
   37.2310   33.6140   39.4330 H   0  0  0  0  0  0  0  0  0  0  0  0
   38.4200   32.3510   40.7900 C   0  0  0  0  0  0  0  0  0  0  0  0
   39.6330   32.2780   41.4450 C   0  0  0  0  0  0  0  0  0  0  0  0
   40.5660   33.2370   41.3420 N   0  0  0  0  0  0  0  0  0  0  0  0
   48.9870   35.0470   41.9880 C   0  0  0  0  0  0  0  0  0  0  0  0
   49.5310   33.9770   41.2930 F   0  0  0  0  0  0  0  0  0  0  0  0
   49.8830   35.3210   43.0270 F   0  0  0  0  0  0  0  0  0  0  0  0
   48.8590   36.0980   41.1230 F   0  0  0  0  0  0  0  0  0  0  0  0
  1  6  1  0  0  0  0
  2  1  2  0  0  0  0
  2  3  1  0  0  0  0
  3  4  2  0  0  0  0
  4  5  1  0  0  0  0
  5 16  1  0  0  0  0
  6  5  2  0  0  0  0
  7  9  1  0  0  0  0
  8  7  2  0  0  0  0
  9 17  1  0  0  0  0
  9  1  1  0  0  0  0
 10 14  1  0  0  0  0
 10  7  1  0  0  0  0
 11 10  1  0  0  0  0
 12 11  1  0  0  0  0
 12 13  1  0  0  0  0
 13 22  1  0  0  0  0
 13 14  1  0  0  0  0
 14 25  1  0  0  0  0
 14 24  1  1  0  0  0
 15  2  1  0  0  0  0
 18 11  1  0  0  0  0
 19 11  1  0  0  0  0
 20 12  1  0  0  0  0
 21 12  1  0  0  0  0
 23 13  1  0  0  0  0
 25 32  1  0  0  0  0
 26 28  1  0  0  0  0
 26 25  2  0  0  0  0
 27 26  1  0  0  0  0
 28 30  2  0  0  0  0
 29 28  1  0  0  0  0
 30 31  1  0  0  0  0
 32 31  2  0  0  0  0
 33  3  1  0  0  0  0
 33 35  1  0  0  0  0
 34 33  1  0  0  0  0
 36 33  1  0  0  0  0
M  END
>  <minimizedAffinity>
-7.38226175

>  <minimizedRMSD>
1.3587395

$$$$
