
 OpenBabel03242520113D

 28 30  0  0  0  0  0  0  0  0999 V2000
   39.0720   31.6480   39.1190 C   0  0  0  0  0  0  0  0  0  0  0  0
   38.1410   32.6360   39.0970 C   0  0  0  0  0  0  0  0  0  0  0  0
   37.0130   32.5120   39.8840 C   0  0  0  0  0  0  0  0  0  0  0  0
   36.8380   31.3850   40.6850 C   0  0  0  0  0  0  0  0  0  0  0  0
   37.8130   30.4030   40.6740 C   0  0  0  0  0  0  0  0  0  0  0  0
   38.8760   30.5680   39.9040 N   0  0  0  0  0  0  0  0  0  0  0  0
   38.3010   33.5110   38.4590 H   0  0  0  0  0  0  0  0  0  0  0  0
   36.2850   33.3330   39.8380 H   0  0  0  0  0  0  0  0  0  0  0  0
   35.9320   31.3490   41.2770 H   0  0  0  0  0  0  0  0  0  0  0  0
   41.9380   32.8990   37.2200 C   0  0  0  0  0  0  0  0  0  0  0  0
   42.6020   31.7060   36.8530 C   0  0  0  0  0  0  0  0  0  0  0  0
   42.0560   30.4840   37.2640 C   0  0  0  0  0  0  0  0  0  0  0  0
   40.9150   30.5350   37.9930 N   0  0  0  0  0  0  0  0  0  0  0  0
   40.3060   31.6750   38.3260 C   0  0  0  0  0  0  0  0  0  0  0  0
   40.8230   32.8570   37.9360 N   0  0  0  0  0  0  0  0  0  0  0  0
   42.5000   34.1310   36.7970 N   0  0  0  0  0  0  0  0  0  0  0  0
   43.5120   31.7100   36.2690 H   0  0  0  0  0  0  0  0  0  0  0  0
   42.5290   29.5560   37.0060 H   0  0  0  0  0  0  0  0  0  0  0  0
   43.3340   34.3690   37.3820 H   0  0  0  0  0  0  0  0  0  0  0  0
   41.8490   34.3880   36.0050 H   0  0  0  0  0  0  0  0  0  0  0  0
   37.6230   29.2270   41.5160 C   0  0  0  0  0  0  0  0  0  0  0  0
   37.8850   29.3070   42.8730 C   0  0  0  0  0  0  0  0  0  0  0  0
   38.2320   30.2740   43.2530 H   0  0  0  0  0  0  0  0  0  0  0  0
   37.6990   28.1900   43.6480 C   0  0  0  0  0  0  0  0  0  0  0  0
   37.9080   28.2710   44.6920 H   0  0  0  0  0  0  0  0  0  0  0  0
   37.2580   27.0460   43.0200 C   0  0  0  0  0  3  0  0  0  0  0  0
   36.9970   26.9790   41.6510 C   0  0  0  0  0  3  0  0  0  0  0  0
   37.1870   28.0960   40.9030 N   0  0  0  0  0  0  0  0  0  0  0  0
  1  6  1  0  0  0  0
  2  1  2  0  0  0  0
  2  3  1  0  0  0  0
  3  4  2  0  0  0  0
  4  9  1  0  0  0  0
  5  4  1  0  0  0  0
  5 21  1  0  0  0  0
  6  5  2  0  0  0  0
  7  2  1  0  0  0  0
  8  3  1  0  0  0  0
 10 15  1  0  0  0  0
 11 10  2  0  0  0  0
 11 12  1  0  0  0  0
 12 13  2  0  0  0  0
 13 14  1  0  0  0  0
 14  1  1  0  0  0  0
 15 14  2  0  0  0  0
 16 10  1  0  0  0  0
 16 19  1  0  0  0  0
 17 11  1  0  0  0  0
 18 12  1  0  0  0  0
 20 16  1  0  0  0  0
 21 22  1  0  0  0  0
 22 23  1  0  0  0  0
 22 24  2  0  0  0  0
 24 25  1  0  0  0  0
 26 24  1  0  0  0  0
 27 26  2  0  0  0  0
 28 21  2  0  0  0  0
 28 27  1  0  0  0  0
M  END
>  <minimizedAffinity>
-5.89940262

$$$$

 OpenBabel03242520113D

 28 30  0  0  0  0  0  0  0  0999 V2000
   39.2730   32.3510   39.8310 C   0  0  0  0  0  0  0  0  0  0  0  0
   38.1120   32.8110   39.2970 C   0  0  0  0  0  0  0  0  0  0  0  0
   36.9300   32.1670   39.6070 C   0  0  0  0  0  0  0  0  0  0  0  0
   36.9350   31.0610   40.4550 C   0  0  0  0  0  0  0  0  0  0  0  0
   38.1420   30.6280   40.9740 C   0  0  0  0  0  0  0  0  0  0  0  0
   39.2470   31.2780   40.6490 N   0  0  0  0  0  0  0  0  0  0  0  0
   38.1340   33.6810   38.6340 H   0  0  0  0  0  0  0  0  0  0  0  0
   36.0150   32.5710   39.1540 H   0  0  0  0  0  0  0  0  0  0  0  0
   35.9760   30.6020   40.6560 H   0  0  0  0  0  0  0  0  0  0  0  0
   42.1170   33.8160   38.0590 C   0  0  0  0  0  0  0  0  0  0  0  0
   43.0250   34.0810   39.1100 C   0  0  0  0  0  0  0  0  0  0  0  0
   42.6470   33.7530   40.4180 C   0  0  0  0  0  0  0  0  0  0  0  0
   41.4230   33.1970   40.5820 N   0  0  0  0  0  0  0  0  0  0  0  0
   40.5840   32.9560   39.5720 C   0  0  0  0  0  0  0  0  0  0  0  0
   40.9370   33.2680   38.3100 N   0  0  0  0  0  0  0  0  0  0  0  0
   42.5120   34.1520   36.7380 N   0  0  0  0  0  0  0  0  0  0  0  0
   43.9950   34.5260   38.9350 H   0  0  0  0  0  0  0  0  0  0  0  0
   43.3070   33.9370   41.2430 H   0  0  0  0  0  0  0  0  0  0  0  0
   42.4420   35.1860   36.5900 H   0  0  0  0  0  0  0  0  0  0  0  0
   42.7470   33.1980   36.3490 H   0  0  0  0  0  0  0  0  0  0  0  0
   38.1390   29.4700   41.8620 C   0  0  0  0  0  0  0  0  0  0  0  0
   36.9500   28.8090   42.1210 C   0  0  0  0  0  0  0  0  0  0  0  0
   36.0500   29.2020   41.6340 H   0  0  0  0  0  0  0  0  0  0  0  0
   36.9680   27.7220   42.9570 C   0  0  0  0  0  0  0  0  0  0  0  0
   36.0410   27.2260   43.1460 H   0  0  0  0  0  0  0  0  0  0  0  0
   38.1810   27.3510   43.4930 C   0  0  0  0  0  3  0  0  0  0  0  0
   39.3730   28.0250   43.2230 C   0  0  0  0  0  3  0  0  0  0  0  0
   39.3330   29.0990   42.3930 N   0  0  0  0  0  0  0  0  0  0  0  0
  1  6  1  0  0  0  0
  2  3  1  0  0  0  0
  2  1  2  0  0  0  0
  3  4  2  0  0  0  0
  4  9  1  0  0  0  0
  4  5  1  0  0  0  0
  5 21  1  0  0  0  0
  6  5  2  0  0  0  0
  7  2  1  0  0  0  0
  8  3  1  0  0  0  0
 10 15  2  0  0  0  0
 10 11  1  0  0  0  0
 11 12  2  0  0  0  0
 12 13  1  0  0  0  0
 12 18  1  0  0  0  0
 14  1  1  0  0  0  0
 14 13  2  0  0  0  0
 15 14  1  0  0  0  0
 16 10  1  0  0  0  0
 17 11  1  0  0  0  0
 19 16  1  0  0  0  0
 20 16  1  0  0  0  0
 21 22  2  0  0  0  0
 21 28  1  0  0  0  0
 22 24  1  0  0  0  0
 23 22  1  0  0  0  0
 24 25  1  0  0  0  0
 24 26  2  0  0  0  0
 27 26  1  0  0  0  0
 28 27  2  0  0  0  0
M  END
>  <minimizedAffinity>
-5.83862114

$$$$

 OpenBabel03242520113D

 28 30  0  0  0  0  0  0  0  0999 V2000
   37.5010   28.3350   41.6270 C   0  0  0  0  0  0  0  0  0  0  0  0
   36.1970   28.1680   41.2890 C   0  0  0  0  0  0  0  0  0  0  0  0
   35.5130   29.2210   40.7130 C   0  0  0  0  0  0  0  0  0  0  0  0
   36.1580   30.4360   40.4870 C   0  0  0  0  0  0  0  0  0  0  0  0
   37.4880   30.5600   40.8500 C   0  0  0  0  0  0  0  0  0  0  0  0
   38.1000   29.5230   41.3970 N   0  0  0  0  0  0  0  0  0  0  0  0
   35.7120   27.2050   41.4760 H   0  0  0  0  0  0  0  0  0  0  0  0
   34.4610   29.0440   40.4550 H   0  0  0  0  0  0  0  0  0  0  0  0
   35.5660   31.2210   40.0340 H   0  0  0  0  0  0  0  0  0  0  0  0
   38.8090   25.0340   42.5050 C   0  0  0  0  0  0  0  0  0  0  0  0
   39.8630   25.3520   43.3940 C   0  0  0  0  0  0  0  0  0  0  0  0
   40.1110   26.7000   43.6800 C   0  0  0  0  0  0  0  0  0  0  0  0
   39.3120   27.6130   43.0770 N   0  0  0  0  0  0  0  0  0  0  0  0
   38.3230   27.2870   42.2420 C   0  0  0  0  0  0  0  0  0  0  0  0
   38.0760   25.9930   41.9600 N   0  0  0  0  0  0  0  0  0  0  0  0
   38.5670   23.6640   42.2240 N   0  0  0  0  0  0  0  0  0  0  0  0
   40.4770   24.5910   43.8540 H   0  0  0  0  0  0  0  0  0  0  0  0
   40.9010   26.9840   44.3490 H   0  0  0  0  0  0  0  0  0  0  0  0
   39.2890   23.2970   41.5620 H   0  0  0  0  0  0  0  0  0  0  0  0
   37.7030   23.4890   42.8070 H   0  0  0  0  0  0  0  0  0  0  0  0
   38.1560   31.8350   40.6090 C   0  0  0  0  0  0  0  0  0  0  0  0
   37.4330   32.9020   40.1050 C   0  0  0  0  0  0  0  0  0  0  0  0
   36.3690   32.7290   39.9070 H   0  0  0  0  0  0  0  0  0  0  0  0
   38.0790   34.0920   39.8870 C   0  0  0  0  0  0  0  0  0  0  0  0
   37.5040   34.9040   39.4970 H   0  0  0  0  0  0  0  0  0  0  0  0
   39.4220   34.1520   40.1860 C   0  0  0  0  0  3  0  0  0  0  0  0
   40.1400   33.0680   40.6940 C   0  0  0  0  0  3  0  0  0  0  0  0
   39.4810   31.8990   40.9030 N   0  0  0  0  0  0  0  0  0  0  0  0
  1 14  1  0  0  0  0
  2  7  1  0  0  0  0
  2  1  2  0  0  0  0
  3  2  1  0  0  0  0
  4  3  2  0  0  0  0
  4  5  1  0  0  0  0
  5  6  2  0  0  0  0
  6  1  1  0  0  0  0
  8  3  1  0  0  0  0
  9  4  1  0  0  0  0
 10 11  1  0  0  0  0
 11 12  2  0  0  0  0
 11 17  1  0  0  0  0
 12 18  1  0  0  0  0
 13 12  1  0  0  0  0
 14 13  2  0  0  0  0
 15 14  1  0  0  0  0
 15 10  2  0  0  0  0
 16 10  1  0  0  0  0
 16 20  1  0  0  0  0
 19 16  1  0  0  0  0
 21  5  1  0  0  0  0
 21 28  1  0  0  0  0
 22 21  2  0  0  0  0
 23 22  1  0  0  0  0
 24 22  1  0  0  0  0
 24 26  2  0  0  0  0
 25 24  1  0  0  0  0
 26 27  1  0  0  0  0
 27 28  2  0  0  0  0
M  END
>  <minimizedAffinity>
-5.76705456

$$$$

 OpenBabel03242520113D

 28 30  0  0  0  0  0  0  0  0999 V2000
   37.7920   30.0960   40.5970 C   0  0  0  0  0  0  0  0  0  0  0  0
   36.4360   30.1130   40.5240 C   0  0  0  0  0  0  0  0  0  0  0  0
   35.7240   29.0320   41.0060 C   0  0  0  0  0  0  0  0  0  0  0  0
   36.3950   27.9420   41.5580 C   0  0  0  0  0  0  0  0  0  0  0  0
   37.7780   27.9690   41.6100 C   0  0  0  0  0  0  0  0  0  0  0  0
   38.4140   29.0270   41.1360 N   0  0  0  0  0  0  0  0  0  0  0  0
   35.9320   30.9810   40.0850 H   0  0  0  0  0  0  0  0  0  0  0  0
   34.6310   29.0860   40.9280 H   0  0  0  0  0  0  0  0  0  0  0  0
   35.7790   27.1270   41.9170 H   0  0  0  0  0  0  0  0  0  0  0  0
   39.7340   32.2410   38.3590 C   0  0  0  0  0  0  0  0  0  0  0  0
   40.2350   33.2250   39.2420 C   0  0  0  0  0  0  0  0  0  0  0  0
   39.8980   33.1390   40.5980 C   0  0  0  0  0  0  0  0  0  0  0  0
   39.1060   32.1050   40.9700 N   0  0  0  0  0  0  0  0  0  0  0  0
   38.6460   31.1880   40.1170 C   0  0  0  0  0  0  0  0  0  0  0  0
   38.9650   31.2610   38.8090 N   0  0  0  0  0  0  0  0  0  0  0  0
   40.0840   32.3380   36.9870 N   0  0  0  0  0  0  0  0  0  0  0  0
   40.8660   34.0350   38.9030 H   0  0  0  0  0  0  0  0  0  0  0  0
   40.2580   33.8660   41.3010 H   0  0  0  0  0  0  0  0  0  0  0  0
   39.5270   33.0930   36.5230 H   0  0  0  0  0  0  0  0  0  0  0  0
   40.8140   31.5780   36.9110 H   0  0  0  0  0  0  0  0  0  0  0  0
   38.4720   26.8240   42.1900 C   0  0  0  0  0  0  0  0  0  0  0  0
   39.4520   27.0300   43.1460 C   0  0  0  0  0  0  0  0  0  0  0  0
   39.6610   28.0690   43.4230 H   0  0  0  0  0  0  0  0  0  0  0  0
   40.0930   25.9410   43.6790 C   0  0  0  0  0  0  0  0  0  0  0  0
   40.8470   26.1200   44.4140 H   0  0  0  0  0  0  0  0  0  0  0  0
   39.7170   24.6960   43.2250 C   0  0  0  0  0  3  0  0  0  0  0  0
   38.7260   24.5020   42.2610 C   0  0  0  0  0  3  0  0  0  0  0  0
   38.1050   25.5940   41.7460 N   0  0  0  0  0  0  0  0  0  0  0  0
  1  6  1  0  0  0  0
  2  1  2  0  0  0  0
  2  3  1  0  0  0  0
  3  4  2  0  0  0  0
  4  5  1  0  0  0  0
  4  9  1  0  0  0  0
  5 21  1  0  0  0  0
  6  5  2  0  0  0  0
  7  2  1  0  0  0  0
  8  3  1  0  0  0  0
 10 15  2  0  0  0  0
 10 11  1  0  0  0  0
 11 12  2  0  0  0  0
 12 13  1  0  0  0  0
 12 18  1  0  0  0  0
 14  1  1  0  0  0  0
 14 13  2  0  0  0  0
 15 14  1  0  0  0  0
 16 10  1  0  0  0  0
 17 11  1  0  0  0  0
 19 16  1  0  0  0  0
 20 16  1  0  0  0  0
 21 22  1  0  0  0  0
 22 23  1  0  0  0  0
 22 24  2  0  0  0  0
 24 25  1  0  0  0  0
 26 24  1  0  0  0  0
 27 26  2  0  0  0  0
 28 21  2  0  0  0  0
 28 27  1  0  0  0  0
M  END
>  <minimizedAffinity>
-5.6884203

$$$$

 OpenBabel03242520113D

 28 30  0  0  0  0  0  0  0  0999 V2000
   38.0700   29.3690   41.7080 C   0  0  0  0  0  0  0  0  0  0  0  0
   38.0630   29.3050   43.0640 C   0  0  0  0  0  0  0  0  0  0  0  0
   37.6650   28.1340   43.6790 C   0  0  0  0  0  0  0  0  0  0  0  0
   37.2760   27.0370   42.9120 C   0  0  0  0  0  0  0  0  0  0  0  0
   37.2990   27.1490   41.5330 C   0  0  0  0  0  0  0  0  0  0  0  0
   37.6890   28.2910   40.9910 N   0  0  0  0  0  0  0  0  0  0  0  0
   38.3730   30.1800   43.6450 H   0  0  0  0  0  0  0  0  0  0  0  0
   37.6740   28.1250   44.7770 H   0  0  0  0  0  0  0  0  0  0  0  0
   36.9750   26.1500   43.4550 H   0  0  0  0  0  0  0  0  0  0  0  0
   37.9360   32.6350   40.0660 C   0  0  0  0  0  0  0  0  0  0  0  0
   39.2430   32.7650   39.5430 C   0  0  0  0  0  0  0  0  0  0  0  0
   40.1560   31.7260   39.7620 C   0  0  0  0  0  0  0  0  0  0  0  0
   39.7140   30.6580   40.4680 N   0  0  0  0  0  0  0  0  0  0  0  0
   38.4740   30.5590   40.9510 C   0  0  0  0  0  0  0  0  0  0  0  0
   37.5870   31.5520   40.7460 N   0  0  0  0  0  0  0  0  0  0  0  0
   37.0190   33.6940   39.8370 N   0  0  0  0  0  0  0  0  0  0  0  0
   39.5550   33.6360   38.9830 H   0  0  0  0  0  0  0  0  0  0  0  0
   41.1580   31.7850   39.3810 H   0  0  0  0  0  0  0  0  0  0  0  0
   37.2330   34.5010   40.4670 H   0  0  0  0  0  0  0  0  0  0  0  0
   36.4140   33.2750   39.0790 H   0  0  0  0  0  0  0  0  0  0  0  0
   36.8910   25.9960   40.7370 C   0  0  0  0  0  0  0  0  0  0  0  0
   36.8820   24.7360   41.3120 C   0  0  0  0  0  0  0  0  0  0  0  0
   37.1900   24.6690   42.3610 H   0  0  0  0  0  0  0  0  0  0  0  0
   36.4940   23.6650   40.5470 C   0  0  0  0  0  0  0  0  0  0  0  0
   36.4950   22.7010   41.0080 H   0  0  0  0  0  0  0  0  0  0  0  0
   36.1350   23.9120   39.2410 C   0  0  0  0  0  3  0  0  0  0  0  0
   36.1490   25.1870   38.6730 C   0  0  0  0  0  3  0  0  0  0  0  0
   36.5350   26.2330   39.4480 N   0  0  0  0  0  0  0  0  0  0  0  0
  1  2  1  0  0  0  0
  2  7  1  0  0  0  0
  2  3  2  0  0  0  0
  3  8  1  0  0  0  0
  4  9  1  0  0  0  0
  4  3  1  0  0  0  0
  5  4  2  0  0  0  0
  6  5  1  0  0  0  0
  6  1  2  0  0  0  0
 10 15  1  0  0  0  0
 11 12  1  0  0  0  0
 11 10  2  0  0  0  0
 12 13  2  0  0  0  0
 13 14  1  0  0  0  0
 14  1  1  0  0  0  0
 15 14  2  0  0  0  0
 16 10  1  0  0  0  0
 16 19  1  0  0  0  0
 17 11  1  0  0  0  0
 18 12  1  0  0  0  0
 20 16  1  0  0  0  0
 21 22  1  0  0  0  0
 21  5  1  0  0  0  0
 22 23  1  0  0  0  0
 24 25  1  0  0  0  0
 24 22  2  0  0  0  0
 26 24  1  0  0  0  0
 27 26  2  0  0  0  0
 27 28  1  0  0  0  0
 28 21  2  0  0  0  0
M  END
>  <minimizedAffinity>
-5.67394829

$$$$

 OpenBabel03242520113D

 28 30  0  0  0  0  0  0  0  0999 V2000
   39.2710   32.5330   40.1460 C   0  0  0  0  0  0  0  0  0  0  0  0
   38.2070   33.0650   39.4920 C   0  0  0  0  0  0  0  0  0  0  0  0
   36.9750   32.4500   39.6020 C   0  0  0  0  0  0  0  0  0  0  0  0
   36.8340   31.2990   40.3750 C   0  0  0  0  0  0  0  0  0  0  0  0
   37.9460   30.7930   41.0230 C   0  0  0  0  0  0  0  0  0  0  0  0
   39.1040   31.4180   40.8880 N   0  0  0  0  0  0  0  0  0  0  0  0
   38.3440   33.9700   38.8900 H   0  0  0  0  0  0  0  0  0  0  0  0
   36.1420   32.9120   39.0560 H   0  0  0  0  0  0  0  0  0  0  0  0
   35.8430   30.8650   40.4190 H   0  0  0  0  0  0  0  0  0  0  0  0
   42.5010   33.8680   41.2260 C   0  0  0  0  0  0  0  0  0  0  0  0
   43.1340   34.1600   39.9960 C   0  0  0  0  0  0  0  0  0  0  0  0
   42.4420   33.8930   38.8080 C   0  0  0  0  0  0  0  0  0  0  0  0
   41.1990   33.3680   38.9270 N   0  0  0  0  0  0  0  0  0  0  0  0
   40.6220   33.1030   40.1010 C   0  0  0  0  0  0  0  0  0  0  0  0
   41.2790   33.3560   41.2500 N   0  0  0  0  0  0  0  0  0  0  0  0
   43.2120   34.1440   42.4230 N   0  0  0  0  0  0  0  0  0  0  0  0
   44.1300   34.5800   39.9470 H   0  0  0  0  0  0  0  0  0  0  0  0
   42.8870   34.1010   37.8540 H   0  0  0  0  0  0  0  0  0  0  0  0
   43.9470   33.4170   42.5840 H   0  0  0  0  0  0  0  0  0  0  0  0
   42.7270   35.0250   42.7470 H   0  0  0  0  0  0  0  0  0  0  0  0
   37.7900   29.5880   41.8310 C   0  0  0  0  0  0  0  0  0  0  0  0
   38.8180   29.1850   42.6670 C   0  0  0  0  0  0  0  0  0  0  0  0
   39.7190   29.8090   42.6770 H   0  0  0  0  0  0  0  0  0  0  0  0
   38.6510   28.0500   43.4190 C   0  0  0  0  0  0  0  0  0  0  0  0
   39.4560   27.7550   44.0560 H   0  0  0  0  0  0  0  0  0  0  0  0
   37.4580   27.3740   43.2940 C   0  0  0  0  0  3  0  0  0  0  0  0
   36.4290   27.7900   42.4470 C   0  0  0  0  0  3  0  0  0  0  0  0
   36.6150   28.9160   41.7130 N   0  0  0  0  0  0  0  0  0  0  0  0
  1  6  1  0  0  0  0
  2  3  1  0  0  0  0
  2  1  2  0  0  0  0
  3  4  2  0  0  0  0
  4  9  1  0  0  0  0
  4  5  1  0  0  0  0
  5 21  1  0  0  0  0
  6  5  2  0  0  0  0
  7  2  1  0  0  0  0
  8  3  1  0  0  0  0
 10 15  1  0  0  0  0
 10 16  1  0  0  0  0
 11 10  2  0  0  0  0
 12 13  2  0  0  0  0
 12 11  1  0  0  0  0
 13 14  1  0  0  0  0
 14  1  1  0  0  0  0
 14 15  2  0  0  0  0
 16 19  1  0  0  0  0
 16 20  1  0  0  0  0
 17 11  1  0  0  0  0
 18 12  1  0  0  0  0
 21 22  1  0  0  0  0
 22 23  1  0  0  0  0
 22 24  2  0  0  0  0
 24 25  1  0  0  0  0
 26 24  1  0  0  0  0
 27 26  2  0  0  0  0
 28 21  2  0  0  0  0
 28 27  1  0  0  0  0
M  END
>  <minimizedAffinity>
-5.34178162

$$$$

 OpenBabel03242520113D

 28 30  0  0  0  0  0  0  0  0999 V2000
   37.4870   30.2810   38.7550 C   0  0  0  0  0  0  0  0  0  0  0  0
   36.5980   30.2720   37.7280 C   0  0  0  0  0  0  0  0  0  0  0  0
   35.7650   29.1810   37.5710 C   0  0  0  0  0  0  0  0  0  0  0  0
   35.8430   28.1080   38.4560 C   0  0  0  0  0  0  0  0  0  0  0  0
   36.7650   28.1610   39.4870 C   0  0  0  0  0  0  0  0  0  0  0  0
   37.5390   29.2280   39.5960 N   0  0  0  0  0  0  0  0  0  0  0  0
   36.5570   31.1280   37.0460 H   0  0  0  0  0  0  0  0  0  0  0  0
   35.0620   29.2140   36.7290 H   0  0  0  0  0  0  0  0  0  0  0  0
   35.1630   27.2840   38.2780 H   0  0  0  0  0  0  0  0  0  0  0  0
   38.9990   33.2450   40.2750 C   0  0  0  0  0  0  0  0  0  0  0  0
   40.1580   33.4310   39.4880 C   0  0  0  0  0  0  0  0  0  0  0  0
   40.4070   32.5330   38.4420 C   0  0  0  0  0  0  0  0  0  0  0  0
   39.5050   31.5390   38.2590 N   0  0  0  0  0  0  0  0  0  0  0  0
   38.4170   31.3850   39.0160 C   0  0  0  0  0  0  0  0  0  0  0  0
   38.1680   32.2430   40.0250 N   0  0  0  0  0  0  0  0  0  0  0  0
   38.7580   34.1610   41.3320 N   0  0  0  0  0  0  0  0  0  0  0  0
   40.8530   34.2400   39.6680 H   0  0  0  0  0  0  0  0  0  0  0  0
   41.2750   32.6400   37.8210 H   0  0  0  0  0  0  0  0  0  0  0  0
   39.3880   33.9560   42.1410 H   0  0  0  0  0  0  0  0  0  0  0  0
   37.9900   34.7540   40.9110 H   0  0  0  0  0  0  0  0  0  0  0  0
   36.8390   27.0330   40.4100 C   0  0  0  0  0  0  0  0  0  0  0  0
   36.9960   27.2680   41.7660 C   0  0  0  0  0  0  0  0  0  0  0  0
   37.0590   28.3150   42.0830 H   0  0  0  0  0  0  0  0  0  0  0  0
   37.0630   26.1940   42.6170 C   0  0  0  0  0  0  0  0  0  0  0  0
   37.1850   26.3950   43.6590 H   0  0  0  0  0  0  0  0  0  0  0  0
   36.9690   24.9360   42.0640 C   0  0  0  0  0  3  0  0  0  0  0  0
   36.8100   24.7140   40.6950 C   0  0  0  0  0  3  0  0  0  0  0  0
   36.7460   25.7900   39.8710 N   0  0  0  0  0  0  0  0  0  0  0  0
  1 14  1  0  0  0  0
  1  6  1  0  0  0  0
  2  1  2  0  0  0  0
  3  2  1  0  0  0  0
  3  4  2  0  0  0  0
  4  5  1  0  0  0  0
  5  6  2  0  0  0  0
  5 21  1  0  0  0  0
  7  2  1  0  0  0  0
  8  3  1  0  0  0  0
  9  4  1  0  0  0  0
 10 16  1  0  0  0  0
 11 17  1  0  0  0  0
 11 10  2  0  0  0  0
 12 11  1  0  0  0  0
 13 12  2  0  0  0  0
 13 14  1  0  0  0  0
 14 15  2  0  0  0  0
 15 10  1  0  0  0  0
 16 19  1  0  0  0  0
 18 12  1  0  0  0  0
 20 16  1  0  0  0  0
 21 22  1  0  0  0  0
 22 23  1  0  0  0  0
 22 24  2  0  0  0  0
 24 25  1  0  0  0  0
 26 24  1  0  0  0  0
 27 26  2  0  0  0  0
 28 21  2  0  0  0  0
 28 27  1  0  0  0  0
M  END
>  <minimizedAffinity>
-5.31491613

$$$$

 OpenBabel03242520113D

 28 30  0  0  0  0  0  0  0  0999 V2000
   37.6780   29.1910   41.3520 C   0  0  0  0  0  0  0  0  0  0  0  0
   37.6010   29.3960   42.6920 C   0  0  0  0  0  0  0  0  0  0  0  0
   37.7140   28.3140   43.5440 C   0  0  0  0  0  0  0  0  0  0  0  0
   37.9030   27.0330   43.0280 C   0  0  0  0  0  0  0  0  0  0  0  0
   37.9740   26.8730   41.6550 C   0  0  0  0  0  0  0  0  0  0  0  0
   37.8620   27.9400   40.8820 N   0  0  0  0  0  0  0  0  0  0  0  0
   37.4510   30.4110   43.0730 H   0  0  0  0  0  0  0  0  0  0  0  0
   37.6460   28.5230   44.6200 H   0  0  0  0  0  0  0  0  0  0  0  0
   37.9830   26.2290   43.7490 H   0  0  0  0  0  0  0  0  0  0  0  0
   37.6110   30.9340   38.1370 C   0  0  0  0  0  0  0  0  0  0  0  0
   37.3710   32.2730   38.5230 C   0  0  0  0  0  0  0  0  0  0  0  0
   37.2330   32.5600   39.8870 C   0  0  0  0  0  0  0  0  0  0  0  0
   37.3430   31.5200   40.7480 N   0  0  0  0  0  0  0  0  0  0  0  0
   37.5720   30.2640   40.3580 C   0  0  0  0  0  0  0  0  0  0  0  0
   37.7060   29.9760   39.0480 N   0  0  0  0  0  0  0  0  0  0  0  0
   37.7490   30.6550   36.7520 N   0  0  0  0  0  0  0  0  0  0  0  0
   37.2900   33.0740   37.8020 H   0  0  0  0  0  0  0  0  0  0  0  0
   37.0500   33.5630   40.2210 H   0  0  0  0  0  0  0  0  0  0  0  0
   36.8130   30.6630   36.2850 H   0  0  0  0  0  0  0  0  0  0  0  0
   38.7960   30.5300   36.6760 H   0  0  0  0  0  0  0  0  0  0  0  0
   38.1730   25.5290   41.1240 C   0  0  0  0  0  0  0  0  0  0  0  0
   37.2790   24.5240   41.4530 C   0  0  0  0  0  0  0  0  0  0  0  0
   36.4490   24.7970   42.1130 H   0  0  0  0  0  0  0  0  0  0  0  0
   37.4830   23.2670   40.9420 C   0  0  0  0  0  0  0  0  0  0  0  0
   36.7840   22.5040   41.2080 H   0  0  0  0  0  0  0  0  0  0  0  0
   38.5760   23.0810   40.1250 C   0  0  0  0  0  3  0  0  0  0  0  0
   39.4690   24.1040   39.8000 C   0  0  0  0  0  3  0  0  0  0  0  0
   39.2490   25.3400   40.3160 N   0  0  0  0  0  0  0  0  0  0  0  0
  1  2  1  0  0  0  0
  2  7  1  0  0  0  0
  2  3  2  0  0  0  0
  3  8  1  0  0  0  0
  4  3  1  0  0  0  0
  4  9  1  0  0  0  0
  5  4  2  0  0  0  0
  6  1  2  0  0  0  0
  6  5  1  0  0  0  0
 10 11  2  0  0  0  0
 10 15  1  0  0  0  0
 11 12  1  0  0  0  0
 12 18  1  0  0  0  0
 12 13  2  0  0  0  0
 14 13  1  0  0  0  0
 14  1  1  0  0  0  0
 15 14  2  0  0  0  0
 16 10  1  0  0  0  0
 17 11  1  0  0  0  0
 19 16  1  0  0  0  0
 20 16  1  0  0  0  0
 21 22  1  0  0  0  0
 21  5  1  0  0  0  0
 22 23  1  0  0  0  0
 24 25  1  0  0  0  0
 24 22  2  0  0  0  0
 26 24  1  0  0  0  0
 27 26  2  0  0  0  0
 27 28  1  0  0  0  0
 28 21  2  0  0  0  0
M  END
>  <minimizedAffinity>
-5.26325083

$$$$

 OpenBabel03242520113D

 28 30  0  0  0  0  0  0  0  0999 V2000
   36.7350   30.2920   38.5910 C   0  0  0  0  0  0  0  0  0  0  0  0
   36.9630   31.6200   38.7570 C   0  0  0  0  0  0  0  0  0  0  0  0
   37.5420   32.0600   39.9310 C   0  0  0  0  0  0  0  0  0  0  0  0
   37.8830   31.1490   40.9290 C   0  0  0  0  0  0  0  0  0  0  0  0
   37.6300   29.8050   40.7160 C   0  0  0  0  0  0  0  0  0  0  0  0
   37.0760   29.4320   39.5740 N   0  0  0  0  0  0  0  0  0  0  0  0
   36.6870   32.3160   37.9580 H   0  0  0  0  0  0  0  0  0  0  0  0
   37.7090   33.1410   40.0240 H   0  0  0  0  0  0  0  0  0  0  0  0
   38.3310   31.5580   41.8250 H   0  0  0  0  0  0  0  0  0  0  0  0
   36.2640   29.2350   35.1210 C   0  0  0  0  0  0  0  0  0  0  0  0
   34.9840   28.6340   35.1590 C   0  0  0  0  0  0  0  0  0  0  0  0
   34.2990   28.5980   36.3800 C   0  0  0  0  0  0  0  0  0  0  0  0
   34.9200   29.1510   37.4490 N   0  0  0  0  0  0  0  0  0  0  0  0
   36.1280   29.7140   37.3870 C   0  0  0  0  0  0  0  0  0  0  0  0
   36.7970   29.7530   36.2180 N   0  0  0  0  0  0  0  0  0  0  0  0
   36.9480   29.2650   33.8780 N   0  0  0  0  0  0  0  0  0  0  0  0
   34.5240   28.2040   34.2800 H   0  0  0  0  0  0  0  0  0  0  0  0
   33.3260   28.1520   36.4500 H   0  0  0  0  0  0  0  0  0  0  0  0
   37.3420   28.3220   33.6580 H   0  0  0  0  0  0  0  0  0  0  0  0
   36.8150   30.2760   33.6000 H   0  0  0  0  0  0  0  0  0  0  0  0
   37.9910   28.8570   41.7650 C   0  0  0  0  0  0  0  0  0  0  0  0
   36.9940   28.1810   42.4480 C   0  0  0  0  0  0  0  0  0  0  0  0
   35.9600   28.3990   42.1590 H   0  0  0  0  0  0  0  0  0  0  0  0
   37.3530   27.2930   43.4310 C   0  0  0  0  0  0  0  0  0  0  0  0
   36.5700   26.7820   43.9470 H   0  0  0  0  0  0  0  0  0  0  0  0
   38.6980   27.1290   43.6800 C   0  0  0  0  0  3  0  0  0  0  0  0
   39.6930   27.8160   42.9830 C   0  0  0  0  0  3  0  0  0  0  0  0
   39.3150   28.6900   42.0150 N   0  0  0  0  0  0  0  0  0  0  0  0
  1  2  2  0  0  0  0
  1  6  1  0  0  0  0
  2  3  1  0  0  0  0
  3  8  1  0  0  0  0
  3  4  2  0  0  0  0
  4  9  1  0  0  0  0
  5  4  1  0  0  0  0
  5 21  1  0  0  0  0
  6  5  2  0  0  0  0
  7  2  1  0  0  0  0
 10 11  2  0  0  0  0
 10 15  1  0  0  0  0
 11 12  1  0  0  0  0
 12 18  1  0  0  0  0
 12 13  2  0  0  0  0
 14 13  1  0  0  0  0
 14  1  1  0  0  0  0
 15 14  2  0  0  0  0
 16 10  1  0  0  0  0
 17 11  1  0  0  0  0
 19 16  1  0  0  0  0
 20 16  1  0  0  0  0
 21 28  2  0  0  0  0
 21 22  1  0  0  0  0
 22 24  2  0  0  0  0
 23 22  1  0  0  0  0
 24 26  1  0  0  0  0
 24 25  1  0  0  0  0
 27 26  2  0  0  0  0
 28 27  1  0  0  0  0
M  END
>  <minimizedAffinity>
-5.23557901

$$$$
