
 OpenBabel03252506033D

 27 29  0  0  0  0  0  0  0  0999 V2000
   37.2760   33.2660   39.5540 Cl  0  0  0  0  0  0  0  0  0  0  0  0
   37.8300   31.7570   40.2040 C   0  0  0  0  0  0  0  0  0  0  0  0
   39.1730   31.4500   40.2100 C   0  0  0  0  0  0  0  0  0  0  0  0
   39.5130   30.2330   40.7460 C   0  0  0  0  0  0  0  0  0  0  0  0
   38.6370   29.3110   41.2690 C   0  0  0  0  0  0  0  0  0  0  0  0
   37.3050   29.6450   41.2480 C   0  0  0  0  0  0  0  0  0  0  0  0
   36.1630   28.4840   41.9040 Cl  0  0  0  0  0  0  0  0  0  0  0  0
   36.9000   30.8450   40.7270 C   0  0  0  0  0  0  0  0  0  0  0  0
   40.5820   30.0150   40.7390 H   0  0  0  0  0  0  0  0  0  0  0  0
   35.8390   31.0780   40.7260 H   0  0  0  0  0  0  0  0  0  0  0  0
   41.4370   33.0770   37.8500 C   0  0  0  0  0  0  0  0  0  0  0  0
   42.0640   34.0570   38.6380 C   0  0  0  0  0  0  0  0  0  0  0  0
   41.7060   34.1610   39.9940 C   0  0  0  0  0  0  0  0  0  0  0  0
   40.7670   33.2980   40.4570 N   0  0  0  0  0  0  0  0  0  0  0  0
   40.1760   32.3610   39.6790 C   0  0  0  0  0  0  0  0  0  0  0  0
   40.5100   32.2460   38.3690 N   0  0  0  0  0  0  0  0  0  0  0  0
   41.7370   33.0200   36.8030 H   0  0  0  0  0  0  0  0  0  0  0  0
   42.8100   34.7420   38.2670 H   0  0  0  0  0  0  0  0  0  0  0  0
   42.1220   34.8740   40.6880 H   0  0  0  0  0  0  0  0  0  0  0  0
   39.0470   28.0290   41.8270 C   0  0  0  0  0  0  0  0  0  0  0  0
   39.3710   27.8290   43.1520 C   0  0  0  0  0  0  0  0  0  0  0  0
   39.3240   28.6610   43.8420 H   0  0  0  0  0  0  0  0  0  0  0  0
   39.7590   26.6150   43.6790 C   0  0  0  0  0  0  0  0  0  0  0  0
   40.0030   26.5220   44.7410 H   0  0  0  0  0  0  0  0  0  0  0  0
   39.8360   25.5260   42.8550 C   0  0  0  0  0  3  0  0  0  0  0  0
   39.5080   25.7500   41.5370 C   0  0  0  0  0  3  0  0  0  0  0  0
   39.1330   26.9420   41.0480 N   0  0  0  0  0  0  0  0  0  0  0  0
  1  2  1  0  0  0  0
  2  3  2  0  0  0  0
  2  8  1  0  0  0  0
  3  4  1  0  0  0  0
  4  5  2  0  0  0  0
  5 20  1  0  0  0  0
  6  5  1  0  0  0  0
  6  7  1  0  0  0  0
  8  6  2  0  0  0  0
  9  4  1  0  0  0  0
 10  8  1  0  0  0  0
 11 16  2  0  0  0  0
 11 12  1  0  0  0  0
 12 13  2  0  0  0  0
 13 14  1  0  0  0  0
 13 19  1  0  0  0  0
 15  3  1  0  0  0  0
 15 14  2  0  0  0  0
 16 15  1  0  0  0  0
 17 11  1  0  0  0  0
 18 12  1  0  0  0  0
 20 21  1  0  0  0  0
 21 23  2  0  0  0  0
 21 22  1  0  0  0  0
 23 24  1  0  0  0  0
 25 23  1  0  0  0  0
 26 25  2  0  0  0  0
 27 26  1  0  0  0  0
 27 20  2  0  0  0  0
M  END
>  <minimizedAffinity>
-5.07973003

$$$$

 OpenBabel03252506033D

 27 29  0  0  0  0  0  0  0  0999 V2000
   36.2100   27.7550   43.0370 Cl  0  0  0  0  0  0  0  0  0  0  0  0
   37.2350   28.7400   42.0430 C   0  0  0  0  0  0  0  0  0  0  0  0
   38.4940   28.3050   41.6910 C   0  0  0  0  0  0  0  0  0  0  0  0
   39.2290   29.1540   40.9020 C   0  0  0  0  0  0  0  0  0  0  0  0
   38.8180   30.3830   40.4420 C   0  0  0  0  0  0  0  0  0  0  0  0
   37.5600   30.7890   40.8110 C   0  0  0  0  0  0  0  0  0  0  0  0
   37.0100   32.3570   40.2430 Cl  0  0  0  0  0  0  0  0  0  0  0  0
   36.7750   29.9880   41.5970 C   0  0  0  0  0  0  0  0  0  0  0  0
   40.2210   28.7850   40.6370 H   0  0  0  0  0  0  0  0  0  0  0  0
   35.7840   30.3400   41.8710 H   0  0  0  0  0  0  0  0  0  0  0  0
   40.2810   25.8140   43.6780 C   0  0  0  0  0  0  0  0  0  0  0  0
   40.0260   24.6160   42.9880 C   0  0  0  0  0  0  0  0  0  0  0  0
   39.2320   24.6640   41.8280 C   0  0  0  0  0  0  0  0  0  0  0  0
   38.7590   25.8780   41.4480 N   0  0  0  0  0  0  0  0  0  0  0  0
   39.0180   27.0190   42.1290 C   0  0  0  0  0  0  0  0  0  0  0  0
   39.7830   26.9920   43.2490 N   0  0  0  0  0  0  0  0  0  0  0  0
   40.9020   25.7450   44.5730 H   0  0  0  0  0  0  0  0  0  0  0  0
   40.4040   23.6530   43.2920 H   0  0  0  0  0  0  0  0  0  0  0  0
   38.9730   23.8100   41.2230 H   0  0  0  0  0  0  0  0  0  0  0  0
   39.6370   31.2500   39.6060 C   0  0  0  0  0  0  0  0  0  0  0  0
   39.6730   31.1910   38.2290 C   0  0  0  0  0  0  0  0  0  0  0  0
   39.0620   30.4630   37.7130 H   0  0  0  0  0  0  0  0  0  0  0  0
   40.4480   32.0130   37.4380 C   0  0  0  0  0  0  0  0  0  0  0  0
   40.4310   31.9140   36.3500 H   0  0  0  0  0  0  0  0  0  0  0  0
   41.2420   32.9540   38.0350 C   0  0  0  0  0  3  0  0  0  0  0  0
   41.1890   32.9950   39.4100 C   0  0  0  0  0  3  0  0  0  0  0  0
   40.4250   32.1830   40.1580 N   0  0  0  0  0  0  0  0  0  0  0  0
  2  1  1  0  0  0  0
  3  2  1  0  0  0  0
  3 15  1  0  0  0  0
  4  3  2  0  0  0  0
  5  6  2  0  0  0  0
  5  4  1  0  0  0  0
  6  8  1  0  0  0  0
  7  6  1  0  0  0  0
  8 10  1  0  0  0  0
  8  2  2  0  0  0  0
  9  4  1  0  0  0  0
 11 17  1  0  0  0  0
 12 18  1  0  0  0  0
 12 11  2  0  0  0  0
 13 12  1  0  0  0  0
 14 13  2  0  0  0  0
 14 15  1  0  0  0  0
 15 16  2  0  0  0  0
 16 11  1  0  0  0  0
 19 13  1  0  0  0  0
 20 27  1  0  0  0  0
 20  5  1  0  0  0  0
 21 20  2  0  0  0  0
 22 21  1  0  0  0  0
 23 25  2  0  0  0  0
 23 21  1  0  0  0  0
 24 23  1  0  0  0  0
 25 26  1  0  0  0  0
 26 27  2  0  0  0  0
M  END
>  <minimizedAffinity>
-4.98679399

$$$$

 OpenBabel03252506033D

 27 29  0  0  0  0  0  0  0  0999 V2000
   40.1560   30.9930   42.9110 Cl  0  0  0  0  0  0  0  0  0  0  0  0
   39.6000   29.4390   42.3780 C   0  0  0  0  0  0  0  0  0  0  0  0
   38.8270   29.3250   41.2430 C   0  0  0  0  0  0  0  0  0  0  0  0
   38.4370   28.0530   40.9020 C   0  0  0  0  0  0  0  0  0  0  0  0
   38.7510   26.9040   41.5890 C   0  0  0  0  0  0  0  0  0  0  0  0
   39.5220   27.0500   42.7150 C   0  0  0  0  0  0  0  0  0  0  0  0
   39.9330   25.6000   43.6150 Cl  0  0  0  0  0  0  0  0  0  0  0  0
   39.9440   28.2930   43.1100 C   0  0  0  0  0  0  0  0  0  0  0  0
   37.8260   27.9910   40.0000 H   0  0  0  0  0  0  0  0  0  0  0  0
   40.5530   28.3720   44.0060 H   0  0  0  0  0  0  0  0  0  0  0  0
   36.9420   32.2340   40.0930 C   0  0  0  0  0  0  0  0  0  0  0  0
   37.6830   32.6720   38.9810 C   0  0  0  0  0  0  0  0  0  0  0  0
   38.8420   31.9600   38.6220 C   0  0  0  0  0  0  0  0  0  0  0  0
   39.1720   30.8860   39.3830 N   0  0  0  0  0  0  0  0  0  0  0  0
   38.4430   30.4830   40.4500 C   0  0  0  0  0  0  0  0  0  0  0  0
   37.3210   31.1570   40.8100 N   0  0  0  0  0  0  0  0  0  0  0  0
   36.0480   32.8060   40.3450 H   0  0  0  0  0  0  0  0  0  0  0  0
   37.4170   33.5260   38.3780 H   0  0  0  0  0  0  0  0  0  0  0  0
   39.4830   32.2060   37.7910 H   0  0  0  0  0  0  0  0  0  0  0  0
   38.3120   25.5750   41.1860 C   0  0  0  0  0  0  0  0  0  0  0  0
   37.0500   25.0710   41.4220 C   0  0  0  0  0  0  0  0  0  0  0  0
   36.3210   25.6830   41.9350 H   0  0  0  0  0  0  0  0  0  0  0  0
   36.6360   23.8110   41.0400 C   0  0  0  0  0  0  0  0  0  0  0  0
   35.6200   23.4710   41.2560 H   0  0  0  0  0  0  0  0  0  0  0  0
   37.5150   22.9920   40.3860 C   0  0  0  0  0  3  0  0  0  0  0  0
   38.7680   23.5170   40.1620 C   0  0  0  0  0  3  0  0  0  0  0  0
   39.1470   24.7460   40.5440 N   0  0  0  0  0  0  0  0  0  0  0  0
  2  1  1  0  0  0  0
  2  8  1  0  0  0  0
  3  2  2  0  0  0  0
  4  3  1  0  0  0  0
  4  5  2  0  0  0  0
  5  6  1  0  0  0  0
  6  8  2  0  0  0  0
  6  7  1  0  0  0  0
  8 10  1  0  0  0  0
  9  4  1  0  0  0  0
 11 17  1  0  0  0  0
 11 16  1  0  0  0  0
 12 11  2  0  0  0  0
 13 12  1  0  0  0  0
 13 14  2  0  0  0  0
 14 15  1  0  0  0  0
 15 16  2  0  0  0  0
 15  3  1  0  0  0  0
 18 12  1  0  0  0  0
 19 13  1  0  0  0  0
 20 21  1  0  0  0  0
 20  5  1  0  0  0  0
 21 22  1  0  0  0  0
 23 24  1  0  0  0  0
 23 21  2  0  0  0  0
 25 23  1  0  0  0  0
 26 25  2  0  0  0  0
 26 27  1  0  0  0  0
 27 20  2  0  0  0  0
M  END
>  <minimizedAffinity>
-4.97801161

$$$$

 OpenBabel03252506033D

 27 29  0  0  0  0  0  0  0  0999 V2000
   37.7020   32.1140   36.3590 Cl  0  0  0  0  0  0  0  0  0  0  0  0
   37.7610   31.1420   37.7940 C   0  0  0  0  0  0  0  0  0  0  0  0
   38.9360   31.0100   38.5010 C   0  0  0  0  0  0  0  0  0  0  0  0
   38.8820   30.2210   39.6220 C   0  0  0  0  0  0  0  0  0  0  0  0
   37.7690   29.5620   40.0900 C   0  0  0  0  0  0  0  0  0  0  0  0
   36.6130   29.7120   39.3630 C   0  0  0  0  0  0  0  0  0  0  0  0
   35.1780   28.8780   39.9340 Cl  0  0  0  0  0  0  0  0  0  0  0  0
   36.6000   30.4870   38.2340 C   0  0  0  0  0  0  0  0  0  0  0  0
   39.8250   30.1330   40.1630 H   0  0  0  0  0  0  0  0  0  0  0  0
   35.6690   30.5840   37.6820 H   0  0  0  0  0  0  0  0  0  0  0  0
   42.1680   31.5600   36.8910 C   0  0  0  0  0  0  0  0  0  0  0  0
   42.4960   32.8710   37.2790 C   0  0  0  0  0  0  0  0  0  0  0  0
   41.5970   33.5730   38.1020 C   0  0  0  0  0  0  0  0  0  0  0  0
   40.4600   32.9310   38.4700 N   0  0  0  0  0  0  0  0  0  0  0  0
   40.1660   31.6680   38.0850 C   0  0  0  0  0  0  0  0  0  0  0  0
   41.0220   30.9750   37.2920 N   0  0  0  0  0  0  0  0  0  0  0  0
   42.8860   31.0410   36.2540 H   0  0  0  0  0  0  0  0  0  0  0  0
   43.4010   33.3770   36.9850 H   0  0  0  0  0  0  0  0  0  0  0  0
   41.7470   34.5800   38.4580 H   0  0  0  0  0  0  0  0  0  0  0  0
   37.7620   28.7330   41.2880 C   0  0  0  0  0  0  0  0  0  0  0  0
   37.4370   29.1920   42.5460 C   0  0  0  0  0  0  0  0  0  0  0  0
   37.1640   30.2310   42.6780 H   0  0  0  0  0  0  0  0  0  0  0  0
   37.4300   28.4060   43.6800 C   0  0  0  0  0  0  0  0  0  0  0  0
   37.1620   28.8320   44.6500 H   0  0  0  0  0  0  0  0  0  0  0  0
   37.7650   27.0840   43.5740 C   0  0  0  0  0  3  0  0  0  0  0  0
   38.0860   26.6480   42.3080 C   0  0  0  0  0  3  0  0  0  0  0  0
   38.0850   27.4340   41.2200 N   0  0  0  0  0  0  0  0  0  0  0  0
  1  2  1  0  0  0  0
  2  8  2  0  0  0  0
  2  3  1  0  0  0  0
  3  4  2  0  0  0  0
  4  5  1  0  0  0  0
  4  9  1  0  0  0  0
  5 20  1  0  0  0  0
  6  7  1  0  0  0  0
  6  5  2  0  0  0  0
  8  6  1  0  0  0  0
 10  8  1  0  0  0  0
 11 12  2  0  0  0  0
 11 16  1  0  0  0  0
 12 13  1  0  0  0  0
 13 19  1  0  0  0  0
 13 14  2  0  0  0  0
 15 14  1  0  0  0  0
 15  3  1  0  0  0  0
 16 15  2  0  0  0  0
 17 11  1  0  0  0  0
 18 12  1  0  0  0  0
 20 21  1  0  0  0  0
 21 22  1  0  0  0  0
 21 23  2  0  0  0  0
 23 24  1  0  0  0  0
 25 23  1  0  0  0  0
 26 25  2  0  0  0  0
 27 20  2  0  0  0  0
 27 26  1  0  0  0  0
M  END
>  <minimizedAffinity>
-4.96201754

$$$$

 OpenBabel03252506033D

 27 29  0  0  0  0  0  0  0  0999 V2000
   39.9550   34.1610   39.7730 Cl  0  0  0  0  0  0  0  0  0  0  0  0
   39.4060   32.6390   40.3960 C   0  0  0  0  0  0  0  0  0  0  0  0
   40.3030   31.7300   40.9120 C   0  0  0  0  0  0  0  0  0  0  0  0
   39.7720   30.5550   41.3820 C   0  0  0  0  0  0  0  0  0  0  0  0
   38.4390   30.2170   41.3790 C   0  0  0  0  0  0  0  0  0  0  0  0
   37.5690   31.1420   40.8570 C   0  0  0  0  0  0  0  0  0  0  0  0
   35.8620   30.7350   40.8350 Cl  0  0  0  0  0  0  0  0  0  0  0  0
   38.0360   32.3360   40.3720 C   0  0  0  0  0  0  0  0  0  0  0  0
   40.5040   29.8540   41.7850 H   0  0  0  0  0  0  0  0  0  0  0  0
   37.3200   33.0460   39.9660 H   0  0  0  0  0  0  0  0  0  0  0  0
   43.5880   32.6640   42.2080 C   0  0  0  0  0  0  0  0  0  0  0  0
   44.4250   32.5130   41.0880 C   0  0  0  0  0  0  0  0  0  0  0  0
   43.8540   32.0850   39.8750 C   0  0  0  0  0  0  0  0  0  0  0  0
   42.5190   31.8440   39.8670 N   0  0  0  0  0  0  0  0  0  0  0  0
   41.7330   31.9970   40.9590 C   0  0  0  0  0  0  0  0  0  0  0  0
   42.2660   32.4100   42.1370 N   0  0  0  0  0  0  0  0  0  0  0  0
   44.0600   32.9980   43.1330 H   0  0  0  0  0  0  0  0  0  0  0  0
   45.4860   32.7060   41.0980 H   0  0  0  0  0  0  0  0  0  0  0  0
   44.4000   31.9360   38.9570 H   0  0  0  0  0  0  0  0  0  0  0  0
   37.9230   28.9530   41.8890 C   0  0  0  0  0  0  0  0  0  0  0  0
   37.5470   28.7420   43.1980 C   0  0  0  0  0  0  0  0  0  0  0  0
   37.6300   29.5500   43.9120 H   0  0  0  0  0  0  0  0  0  0  0  0
   37.0580   27.5450   43.6800 C   0  0  0  0  0  0  0  0  0  0  0  0
   36.7770   27.4420   44.7310 H   0  0  0  0  0  0  0  0  0  0  0  0
   36.9300   26.4860   42.8230 C   0  0  0  0  0  3  0  0  0  0  0  0
   37.3110   26.7210   41.5210 C   0  0  0  0  0  3  0  0  0  0  0  0
   37.7840   27.8960   41.0770 N   0  0  0  0  0  0  0  0  0  0  0  0
  1  2  1  0  0  0  0
  2  3  1  0  0  0  0
  3 15  1  0  0  0  0
  3  4  2  0  0  0  0
  4  9  1  0  0  0  0
  5  4  1  0  0  0  0
  5 20  1  0  0  0  0
  6  5  2  0  0  0  0
  7  6  1  0  0  0  0
  8  2  2  0  0  0  0
  8  6  1  0  0  0  0
 10  8  1  0  0  0  0
 11 17  1  0  0  0  0
 12 18  1  0  0  0  0
 12 11  2  0  0  0  0
 13 12  1  0  0  0  0
 14 13  2  0  0  0  0
 14 15  1  0  0  0  0
 15 16  2  0  0  0  0
 16 11  1  0  0  0  0
 19 13  1  0  0  0  0
 20 21  1  0  0  0  0
 21 23  2  0  0  0  0
 21 22  1  0  0  0  0
 23 24  1  0  0  0  0
 25 23  1  0  0  0  0
 26 25  2  0  0  0  0
 27 26  1  0  0  0  0
 27 20  2  0  0  0  0
M  END
>  <minimizedAffinity>
-4.91652536

$$$$

 OpenBabel03252506033D

 27 29  0  0  0  0  0  0  0  0999 V2000
   36.1990   28.1600   42.1150 Cl  0  0  0  0  0  0  0  0  0  0  0  0
   37.3410   29.2930   41.4660 C   0  0  0  0  0  0  0  0  0  0  0  0
   38.6830   28.9850   41.4250 C   0  0  0  0  0  0  0  0  0  0  0  0
   39.5080   29.9450   40.8930 C   0  0  0  0  0  0  0  0  0  0  0  0
   39.1100   31.1680   40.4060 C   0  0  0  0  0  0  0  0  0  0  0  0
   37.7660   31.4460   40.4620 C   0  0  0  0  0  0  0  0  0  0  0  0
   37.2300   33.0020   39.8510 Cl  0  0  0  0  0  0  0  0  0  0  0  0
   36.8900   30.5290   40.9810 C   0  0  0  0  0  0  0  0  0  0  0  0
   40.5650   29.6770   40.8730 H   0  0  0  0  0  0  0  0  0  0  0  0
   35.8330   30.7810   41.0090 H   0  0  0  0  0  0  0  0  0  0  0  0
   39.7020   25.4780   41.4900 C   0  0  0  0  0  0  0  0  0  0  0  0
   40.1680   25.3080   42.8050 C   0  0  0  0  0  0  0  0  0  0  0  0
   40.1330   26.4100   43.6790 C   0  0  0  0  0  0  0  0  0  0  0  0
   39.6460   27.5770   43.1880 N   0  0  0  0  0  0  0  0  0  0  0  0
   39.2010   27.7170   41.9170 C   0  0  0  0  0  0  0  0  0  0  0  0
   39.2270   26.6650   41.0610 N   0  0  0  0  0  0  0  0  0  0  0  0
   39.7410   24.6050   40.8370 H   0  0  0  0  0  0  0  0  0  0  0  0
   40.5550   24.3790   43.1920 H   0  0  0  0  0  0  0  0  0  0  0  0
   40.4640   26.3930   44.7050 H   0  0  0  0  0  0  0  0  0  0  0  0
   40.0250   32.1560   39.8510 C   0  0  0  0  0  0  0  0  0  0  0  0
   40.6620   33.1260   40.5940 C   0  0  0  0  0  0  0  0  0  0  0  0
   40.4900   33.1770   41.6610 H   0  0  0  0  0  0  0  0  0  0  0  0
   41.5290   34.0610   40.0670 C   0  0  0  0  0  0  0  0  0  0  0  0
   42.0030   34.8050   40.7120 H   0  0  0  0  0  0  0  0  0  0  0  0
   41.7870   34.0450   38.7230 C   0  0  0  0  0  3  0  0  0  0  0  0
   41.1400   33.0680   38.0020 C   0  0  0  0  0  3  0  0  0  0  0  0
   40.3000   32.1690   38.5390 N   0  0  0  0  0  0  0  0  0  0  0  0
  2  1  1  0  0  0  0
  3  2  1  0  0  0  0
  3 15  1  0  0  0  0
  4  3  2  0  0  0  0
  5  6  2  0  0  0  0
  5  4  1  0  0  0  0
  6  8  1  0  0  0  0
  7  6  1  0  0  0  0
  8 10  1  0  0  0  0
  8  2  2  0  0  0  0
  9  4  1  0  0  0  0
 11 12  1  0  0  0  0
 12 18  1  0  0  0  0
 12 13  2  0  0  0  0
 13 19  1  0  0  0  0
 14 13  1  0  0  0  0
 15 14  2  0  0  0  0
 16 11  2  0  0  0  0
 16 15  1  0  0  0  0
 17 11  1  0  0  0  0
 20  5  1  0  0  0  0
 20 21  1  0  0  0  0
 21 22  1  0  0  0  0
 23 21  2  0  0  0  0
 23 24  1  0  0  0  0
 25 23  1  0  0  0  0
 26 27  1  0  0  0  0
 26 25  2  0  0  0  0
 27 20  2  0  0  0  0
M  END
>  <minimizedAffinity>
-4.86184692

$$$$

 OpenBabel03252506033D

 27 29  0  0  0  0  0  0  0  0999 V2000
   39.9410   25.5430   43.5600 Cl  0  0  0  0  0  0  0  0  0  0  0  0
   39.4700   26.9330   42.6370 C   0  0  0  0  0  0  0  0  0  0  0  0
   38.6760   26.7940   41.5200 C   0  0  0  0  0  0  0  0  0  0  0  0
   38.3560   27.9520   40.8560 C   0  0  0  0  0  0  0  0  0  0  0  0
   38.7570   29.2190   41.2090 C   0  0  0  0  0  0  0  0  0  0  0  0
   39.5490   29.3260   42.3260 C   0  0  0  0  0  0  0  0  0  0  0  0
   40.0800   30.9310   42.7980 Cl  0  0  0  0  0  0  0  0  0  0  0  0
   39.9030   28.2080   43.0340 C   0  0  0  0  0  0  0  0  0  0  0  0
   37.7270   27.8130   39.9760 H   0  0  0  0  0  0  0  0  0  0  0  0
   40.5300   28.3280   43.9130 H   0  0  0  0  0  0  0  0  0  0  0  0
   38.6590   23.4910   39.9610 C   0  0  0  0  0  0  0  0  0  0  0  0
   37.3490   23.0380   40.1920 C   0  0  0  0  0  0  0  0  0  0  0  0
   36.4610   23.8760   40.8910 C   0  0  0  0  0  0  0  0  0  0  0  0
   36.9350   25.0790   41.3010 N   0  0  0  0  0  0  0  0  0  0  0  0
   38.2020   25.4950   41.0660 C   0  0  0  0  0  0  0  0  0  0  0  0
   39.0720   24.6990   40.3920 N   0  0  0  0  0  0  0  0  0  0  0  0
   39.3230   22.8180   39.4150 H   0  0  0  0  0  0  0  0  0  0  0  0
   36.9750   22.0810   39.8650 H   0  0  0  0  0  0  0  0  0  0  0  0
   35.4370   23.6310   41.1240 H   0  0  0  0  0  0  0  0  0  0  0  0
   38.3920   30.4200   40.4710 C   0  0  0  0  0  0  0  0  0  0  0  0
   37.2840   31.1930   40.7470 C   0  0  0  0  0  0  0  0  0  0  0  0
   36.6300   30.9110   41.5610 H   0  0  0  0  0  0  0  0  0  0  0  0
   36.9390   32.3300   40.0470 C   0  0  0  0  0  0  0  0  0  0  0  0
   36.0460   32.9000   40.3170 H   0  0  0  0  0  0  0  0  0  0  0  0
   37.7300   32.7360   39.0070 C   0  0  0  0  0  3  0  0  0  0  0  0
   38.8290   31.9490   38.7500 C   0  0  0  0  0  3  0  0  0  0  0  0
   39.1440   30.8460   39.4470 N   0  0  0  0  0  0  0  0  0  0  0  0
  2  8  1  0  0  0  0
  2  1  1  0  0  0  0
  3  2  2  0  0  0  0
  4  5  2  0  0  0  0
  4  3  1  0  0  0  0
  5  6  1  0  0  0  0
  6  7  1  0  0  0  0
  6  8  2  0  0  0  0
  8 10  1  0  0  0  0
  9  4  1  0  0  0  0
 11 12  2  0  0  0  0
 11 16  1  0  0  0  0
 12 13  1  0  0  0  0
 13 19  1  0  0  0  0
 13 14  2  0  0  0  0
 15 14  1  0  0  0  0
 15  3  1  0  0  0  0
 16 15  2  0  0  0  0
 17 11  1  0  0  0  0
 18 12  1  0  0  0  0
 20 21  1  0  0  0  0
 20  5  1  0  0  0  0
 21 22  1  0  0  0  0
 23 24  1  0  0  0  0
 23 21  2  0  0  0  0
 25 23  1  0  0  0  0
 26 25  2  0  0  0  0
 26 27  1  0  0  0  0
 27 20  2  0  0  0  0
M  END
>  <minimizedAffinity>
-4.83344507

$$$$

 OpenBabel03252506033D

 27 29  0  0  0  0  0  0  0  0999 V2000
   37.6430   32.2670   36.1670 Cl  0  0  0  0  0  0  0  0  0  0  0  0
   37.5890   31.1280   37.4750 C   0  0  0  0  0  0  0  0  0  0  0  0
   38.5260   31.1800   38.4840 C   0  0  0  0  0  0  0  0  0  0  0  0
   38.4000   30.2380   39.4750 C   0  0  0  0  0  0  0  0  0  0  0  0
   37.4320   29.2630   39.5400 C   0  0  0  0  0  0  0  0  0  0  0  0
   36.5140   29.2370   38.5190 C   0  0  0  0  0  0  0  0  0  0  0  0
   35.2690   28.0000   38.5740 Cl  0  0  0  0  0  0  0  0  0  0  0  0
   36.5840   30.1500   37.5010 C   0  0  0  0  0  0  0  0  0  0  0  0
   39.1540   30.3010   40.2610 H   0  0  0  0  0  0  0  0  0  0  0  0
   35.8410   30.1020   36.7090 H   0  0  0  0  0  0  0  0  0  0  0  0
   41.5980   32.9470   37.6020 C   0  0  0  0  0  0  0  0  0  0  0  0
   41.6130   34.0250   38.5040 C   0  0  0  0  0  0  0  0  0  0  0  0
   40.5570   34.1470   39.4250 C   0  0  0  0  0  0  0  0  0  0  0  0
   39.5820   33.2040   39.3800 N   0  0  0  0  0  0  0  0  0  0  0  0
   39.5890   32.1740   38.5020 C   0  0  0  0  0  0  0  0  0  0  0  0
   40.6000   32.0410   37.6080 N   0  0  0  0  0  0  0  0  0  0  0  0
   42.4320   32.8800   36.9020 H   0  0  0  0  0  0  0  0  0  0  0  0
   42.3900   34.7730   38.5370 H   0  0  0  0  0  0  0  0  0  0  0  0
   40.4670   34.9320   40.1590 H   0  0  0  0  0  0  0  0  0  0  0  0
   37.3400   28.2830   40.6140 C   0  0  0  0  0  0  0  0  0  0  0  0
   37.9270   27.0360   40.5770 C   0  0  0  0  0  0  0  0  0  0  0  0
   38.4980   26.7430   39.7070 H   0  0  0  0  0  0  0  0  0  0  0  0
   37.8390   26.1090   41.5950 C   0  0  0  0  0  0  0  0  0  0  0  0
   38.3290   25.1360   41.5040 H   0  0  0  0  0  0  0  0  0  0  0  0
   37.1300   26.4240   42.7220 C   0  0  0  0  0  3  0  0  0  0  0  0
   36.5530   27.6730   42.7350 C   0  0  0  0  0  3  0  0  0  0  0  0
   36.6530   28.5580   41.7310 N   0  0  0  0  0  0  0  0  0  0  0  0
  1  2  1  0  0  0  0
  2  8  2  0  0  0  0
  2  3  1  0  0  0  0
  3 15  1  0  0  0  0
  3  4  2  0  0  0  0
  4  5  1  0  0  0  0
  4  9  1  0  0  0  0
  5 20  1  0  0  0  0
  6  7  1  0  0  0  0
  6  5  2  0  0  0  0
  8  6  1  0  0  0  0
 10  8  1  0  0  0  0
 11 16  2  0  0  0  0
 11 12  1  0  0  0  0
 12 18  1  0  0  0  0
 12 13  2  0  0  0  0
 13 19  1  0  0  0  0
 14 13  1  0  0  0  0
 15 14  2  0  0  0  0
 16 15  1  0  0  0  0
 17 11  1  0  0  0  0
 20 27  1  0  0  0  0
 21 20  2  0  0  0  0
 21 23  1  0  0  0  0
 22 21  1  0  0  0  0
 23 25  2  0  0  0  0
 24 23  1  0  0  0  0
 25 26  1  0  0  0  0
 27 26  2  0  0  0  0
M  END
>  <minimizedAffinity>
-4.8245368

$$$$

 OpenBabel03252506033D

 27 29  0  0  0  0  0  0  0  0999 V2000
   35.6500   28.3950   39.9950 Cl  0  0  0  0  0  0  0  0  0  0  0  0
   37.0030   29.3760   39.5300 C   0  0  0  0  0  0  0  0  0  0  0  0
   38.1760   29.3340   40.2510 C   0  0  0  0  0  0  0  0  0  0  0  0
   39.1900   30.1450   39.8050 C   0  0  0  0  0  0  0  0  0  0  0  0
   39.1310   30.9810   38.7150 C   0  0  0  0  0  0  0  0  0  0  0  0
   37.9490   31.0010   38.0170 C   0  0  0  0  0  0  0  0  0  0  0  0
   37.8430   32.0640   36.6240 Cl  0  0  0  0  0  0  0  0  0  0  0  0
   36.8980   30.2150   38.4110 C   0  0  0  0  0  0  0  0  0  0  0  0
   40.1070   30.0930   40.3940 H   0  0  0  0  0  0  0  0  0  0  0  0
   35.9770   30.2550   37.8360 H   0  0  0  0  0  0  0  0  0  0  0  0
   37.8860   28.1080   43.6800 C   0  0  0  0  0  0  0  0  0  0  0  0
   38.6110   26.9040   43.6470 C   0  0  0  0  0  0  0  0  0  0  0  0
   39.2060   26.5090   42.4350 C   0  0  0  0  0  0  0  0  0  0  0  0
   39.0370   27.3260   41.3650 N   0  0  0  0  0  0  0  0  0  0  0  0
   38.3350   28.4810   41.4200 C   0  0  0  0  0  0  0  0  0  0  0  0
   37.7550   28.8780   42.5810 N   0  0  0  0  0  0  0  0  0  0  0  0
   37.4380   28.3870   44.6350 H   0  0  0  0  0  0  0  0  0  0  0  0
   38.7430   26.2570   44.5000 H   0  0  0  0  0  0  0  0  0  0  0  0
   39.7820   25.6080   42.2970 H   0  0  0  0  0  0  0  0  0  0  0  0
   40.2360   31.8250   38.2810 C   0  0  0  0  0  0  0  0  0  0  0  0
   40.4820   33.0910   38.7680 C   0  0  0  0  0  0  0  0  0  0  0  0
   39.8290   33.5060   39.5220 H   0  0  0  0  0  0  0  0  0  0  0  0
   41.5290   33.8890   38.3550 C   0  0  0  0  0  0  0  0  0  0  0  0
   41.6700   34.8850   38.7810 H   0  0  0  0  0  0  0  0  0  0  0  0
   42.3900   33.4160   37.4020 C   0  0  0  0  0  3  0  0  0  0  0  0
   42.1240   32.1510   36.9310 C   0  0  0  0  0  3  0  0  0  0  0  0
   41.0980   31.3930   37.3490 N   0  0  0  0  0  0  0  0  0  0  0  0
  2  1  1  0  0  0  0
  2  3  1  0  0  0  0
  3 15  1  0  0  0  0
  4  3  2  0  0  0  0
  4  9  1  0  0  0  0
  5  4  1  0  0  0  0
  6  8  1  0  0  0  0
  6  5  2  0  0  0  0
  7  6  1  0  0  0  0
  8  2  2  0  0  0  0
 10  8  1  0  0  0  0
 11 17  1  0  0  0  0
 12 11  1  0  0  0  0
 12 18  1  0  0  0  0
 13 12  2  0  0  0  0
 14 15  2  0  0  0  0
 14 13  1  0  0  0  0
 15 16  1  0  0  0  0
 16 11  2  0  0  0  0
 19 13  1  0  0  0  0
 20  5  1  0  0  0  0
 20 21  1  0  0  0  0
 21 22  1  0  0  0  0
 23 21  2  0  0  0  0
 23 24  1  0  0  0  0
 25 23  1  0  0  0  0
 26 27  1  0  0  0  0
 26 25  2  0  0  0  0
 27 20  2  0  0  0  0
M  END
>  <minimizedAffinity>
-4.66095448

$$$$
