
 OpenBabel03242518373D

 34 37  0  0  1  0  0  0  0  0999 V2000
   37.2330   29.0860   39.4390 C   0  0  0  0  0  0  0  0  0  0  0  0
   35.9110   28.8520   39.8150 C   0  0  0  0  0  0  0  0  0  0  0  0
   35.8640   28.6140   41.1800 C   0  0  0  0  0  0  0  0  0  0  0  0
   37.1740   28.7180   41.5700 C   0  0  0  0  0  0  0  0  0  0  0  0
   37.9400   28.9870   40.5580 O   0  0  0  0  0  0  0  0  0  0  0  0
   35.1380   28.8770   39.0670 H   0  0  0  0  0  0  0  0  0  0  0  0
   34.9700   28.4060   41.7260 H   0  0  0  0  0  0  0  0  0  0  0  0
   37.6530   28.5500   42.9520 C   0  0  2  0  0  0  0  0  0  0  0  0
   39.0720   28.2230   43.2030 C   0  0  0  0  0  0  0  0  0  0  0  0
   38.0990   27.1250   43.3040 C   0  0  2  0  0  0  0  0  0  0  0  0
   37.0110   29.0620   43.7040 H   0  0  0  0  0  0  0  0  0  0  0  0
   39.5080   28.6650   44.1270 H   0  0  0  0  0  0  0  0  0  0  0  0
   39.7410   28.3520   42.3360 H   0  0  0  0  0  0  0  0  0  0  0  0
   37.7610   26.8880   44.3610 H   0  0  0  0  0  0  0  0  0  0  0  0
   37.9670   26.0370   42.3410 C   0  0  0  0  0  0  0  0  0  0  0  0
   36.9220   25.1540   42.1790 C   0  0  0  0  0  0  0  0  0  0  0  0
   36.0850   25.2770   42.8230 H   0  0  0  0  0  0  0  0  0  0  0  0
   36.8920   24.1450   41.2410 C   0  0  0  0  0  0  0  0  0  0  0  0
   36.0400   23.4840   41.1670 H   0  0  0  0  0  0  0  0  0  0  0  0
   37.9580   23.9770   40.3930 C   0  0  0  0  0  3  0  0  0  0  0  0
   38.9910   24.8540   40.5570 C   0  0  0  0  0  3  0  0  0  0  0  0
   38.9990   25.8230   41.4710 N   0  0  0  0  0  0  0  0  0  0  0  0
   37.8070   29.3720   38.1910 O   0  0  0  0  0  0  0  0  0  0  0  0
   37.6780   30.6630   37.6430 C   0  0  0  0  0  0  0  0  0  0  0  0
   37.1450   30.7250   36.4990 O   0  0  0  0  0  0  0  0  0  0  0  0
   38.1590   31.7410   38.4330 C   0  0  0  0  0  0  0  0  0  0  0  0
   37.1890   32.5520   38.9570 C   0  0  0  0  0  0  0  0  0  0  0  0
   37.5950   33.6310   39.7430 C   0  0  0  0  0  0  0  0  0  0  0  0
   38.9110   33.8150   39.9430 N   0  0  0  0  0  0  0  0  0  0  0  0
   39.8340   33.0080   39.4210 C   0  0  0  0  0  0  0  0  0  0  0  0
   39.4370   31.9680   38.6630 N   0  0  0  0  0  0  0  0  0  0  0  0
   36.0980   32.4870   38.8530 H   0  0  0  0  0  0  0  0  0  0  0  0
   36.8850   34.3190   40.1940 H   0  0  0  0  0  0  0  0  0  0  0  0
   40.9050   33.1110   39.5500 H   0  0  0  0  0  0  0  0  0  0  0  0
  1  2  2  0  0  0  0
  1  5  1  0  0  0  0
  2  3  1  0  0  0  0
  3  4  2  0  0  0  0
  3  7  1  0  0  0  0
  4  8  1  0  0  0  0
  5  4  1  0  0  0  0
  6  2  1  0  0  0  0
  8  9  1  0  0  0  0
  8 10  1  0  0  0  0
  8 11  1  1  0  0  0
  9 10  1  0  0  0  0
  9 12  1  0  0  0  0
 10 14  1  1  0  0  0
 13  9  1  0  0  0  0
 15 10  1  0  0  0  0
 16 15  1  0  0  0  0
 16 17  1  0  0  0  0
 18 16  2  0  0  0  0
 19 18  1  0  0  0  0
 20 21  2  0  0  0  0
 20 18  1  0  0  0  0
 21 22  1  0  0  0  0
 22 15  2  0  0  0  0
 23  1  1  0  0  0  0
 24 23  1  0  0  0  0
 24 26  1  0  0  0  0
 25 24  2  0  0  0  0
 26 31  2  0  0  0  0
 26 27  1  0  0  0  0
 27 28  2  0  0  0  0
 28 29  1  0  0  0  0
 28 33  1  0  0  0  0
 30 34  1  0  0  0  0
 30 29  2  0  0  0  0
 31 30  1  0  0  0  0
 32 27  1  0  0  0  0
M  END
>  <minimizedAffinity>
-5.55215788

$$$$

 OpenBabel03242518373D

 34 37  0  0  1  0  0  0  0  0999 V2000
   36.6880   28.7480   39.5500 C   0  0  0  0  0  0  0  0  0  0  0  0
   37.4720   27.6930   39.0860 C   0  0  0  0  0  0  0  0  0  0  0  0
   37.7200   26.8180   40.1340 C   0  0  0  0  0  0  0  0  0  0  0  0
   37.0680   27.3930   41.1930 C   0  0  0  0  0  0  0  0  0  0  0  0
   36.4860   28.4960   40.8370 O   0  0  0  0  0  0  0  0  0  0  0  0
   37.7740   27.6740   38.0530 H   0  0  0  0  0  0  0  0  0  0  0  0
   38.2980   25.9240   40.0500 H   0  0  0  0  0  0  0  0  0  0  0  0
   37.0270   26.8360   42.5550 C   0  0  2  0  0  0  0  0  0  0  0  0
   36.5630   27.6750   43.6790 C   0  0  0  0  0  0  0  0  0  0  0  0
   38.0140   27.4790   43.5380 C   0  0  2  0  0  0  0  0  0  0  0  0
   36.9740   25.7230   42.5720 H   0  0  0  0  0  0  0  0  0  0  0  0
   36.0060   27.1370   44.4790 H   0  0  0  0  0  0  0  0  0  0  0  0
   36.0550   28.6080   43.3860 H   0  0  0  0  0  0  0  0  0  0  0  0
   38.4490   26.6680   44.2010 H   0  0  0  0  0  0  0  0  0  0  0  0
   38.9540   28.5030   43.0950 C   0  0  0  0  0  0  0  0  0  0  0  0
   38.7400   29.8540   42.9290 C   0  0  0  0  0  0  0  0  0  0  0  0
   37.7700   30.2190   43.1670 H   0  0  0  0  0  0  0  0  0  0  0  0
   39.6940   30.7480   42.4930 C   0  0  0  0  0  0  0  0  0  0  0  0
   39.4600   31.7970   42.3830 H   0  0  0  0  0  0  0  0  0  0  0  0
   40.9550   30.2980   42.1910 C   0  0  0  0  0  3  0  0  0  0  0  0
   41.1630   28.9590   42.3570 C   0  0  0  0  0  3  0  0  0  0  0  0
   40.2260   28.1120   42.7810 N   0  0  0  0  0  0  0  0  0  0  0  0
   36.1710   29.8770   38.8970 O   0  0  0  0  0  0  0  0  0  0  0  0
   37.0050   30.6420   38.0590 C   0  0  0  0  0  0  0  0  0  0  0  0
   36.9060   30.4080   36.8210 O   0  0  0  0  0  0  0  0  0  0  0  0
   37.8590   31.5810   38.6960 C   0  0  0  0  0  0  0  0  0  0  0  0
   37.2360   32.4290   39.5710 C   0  0  0  0  0  0  0  0  0  0  0  0
   38.0180   33.3770   40.2300 C   0  0  0  0  0  0  0  0  0  0  0  0
   39.3370   33.4060   39.9730 N   0  0  0  0  0  0  0  0  0  0  0  0
   39.9180   32.5670   39.1160 C   0  0  0  0  0  0  0  0  0  0  0  0
   39.1580   31.6540   38.4820 N   0  0  0  0  0  0  0  0  0  0  0  0
   36.1740   32.4850   39.8470 H   0  0  0  0  0  0  0  0  0  0  0  0
   37.5970   34.0850   40.9390 H   0  0  0  0  0  0  0  0  0  0  0  0
   40.9740   32.5480   38.8720 H   0  0  0  0  0  0  0  0  0  0  0  0
  1  5  1  0  0  0  0
  2  1  2  0  0  0  0
  2  3  1  0  0  0  0
  3  4  2  0  0  0  0
  4  8  1  0  0  0  0
  5  4  1  0  0  0  0
  6  2  1  0  0  0  0
  7  3  1  0  0  0  0
  8 11  1  1  0  0  0
  8 10  1  0  0  0  0
  8  9  1  0  0  0  0
  9 12  1  0  0  0  0
 10  9  1  0  0  0  0
 10 14  1  1  0  0  0
 13  9  1  0  0  0  0
 15 10  1  0  0  0  0
 16 15  1  0  0  0  0
 16 17  1  0  0  0  0
 18 16  2  0  0  0  0
 19 18  1  0  0  0  0
 20 21  2  0  0  0  0
 20 18  1  0  0  0  0
 21 22  1  0  0  0  0
 22 15  2  0  0  0  0
 23  1  1  0  0  0  0
 24 26  1  0  0  0  0
 24 23  1  0  0  0  0
 25 24  2  0  0  0  0
 26 27  1  0  0  0  0
 27 32  1  0  0  0  0
 27 28  2  0  0  0  0
 28 33  1  0  0  0  0
 29 28  1  0  0  0  0
 30 29  2  0  0  0  0
 31 26  2  0  0  0  0
 31 30  1  0  0  0  0
 34 30  1  0  0  0  0
M  END
>  <minimizedAffinity>
-5.44223022

$$$$

 OpenBabel03242518373D

 34 37  0  0  1  0  0  0  0  0999 V2000
   39.4890   30.6790   42.1790 C   0  0  0  0  0  0  0  0  0  0  0  0
   40.5100   29.7350   42.0860 C   0  0  0  0  0  0  0  0  0  0  0  0
   40.0430   28.5160   42.5560 C   0  0  0  0  0  0  0  0  0  0  0  0
   38.7470   28.7840   42.9130 C   0  0  0  0  0  0  0  0  0  0  0  0
   38.4520   30.0280   42.6900 O   0  0  0  0  0  0  0  0  0  0  0  0
   41.4680   30.0300   41.6960 H   0  0  0  0  0  0  0  0  0  0  0  0
   40.6250   27.6220   42.5960 H   0  0  0  0  0  0  0  0  0  0  0  0
   37.8100   27.7970   43.4730 C   0  0  2  0  0  0  0  0  0  0  0  0
   37.7530   26.4340   42.9060 C   0  0  0  0  0  0  0  0  0  0  0  0
   36.6870   27.3700   42.5180 C   0  0  2  0  0  0  0  0  0  0  0  0
   37.5030   28.0280   44.5180 H   0  0  0  0  0  0  0  0  0  0  0  0
   37.5390   25.6210   43.6370 H   0  0  0  0  0  0  0  0  0  0  0  0
   38.5900   26.1710   42.2380 H   0  0  0  0  0  0  0  0  0  0  0  0
   35.7260   27.2640   43.1110 H   0  0  0  0  0  0  0  0  0  0  0  0
   36.5510   27.9790   41.1990 C   0  0  0  0  0  0  0  0  0  0  0  0
   37.2360   27.6820   40.0410 C   0  0  0  0  0  0  0  0  0  0  0  0
   37.9500   26.8960   40.0930 H   0  0  0  0  0  0  0  0  0  0  0  0
   37.0450   28.3240   38.8360 C   0  0  0  0  0  0  0  0  0  0  0  0
   37.6160   28.0430   37.9640 H   0  0  0  0  0  0  0  0  0  0  0  0
   36.1190   29.3330   38.7460 C   0  0  0  0  0  3  0  0  0  0  0  0
   35.4430   29.6230   39.8970 C   0  0  0  0  0  3  0  0  0  0  0  0
   35.6430   28.9900   41.0510 N   0  0  0  0  0  0  0  0  0  0  0  0
   39.4490   32.0400   41.8390 O   0  0  0  0  0  0  0  0  0  0  0  0
   38.8910   32.4360   40.6080 C   0  0  0  0  0  0  0  0  0  0  0  0
   37.6290   32.4760   40.5630 O   0  0  0  0  0  0  0  0  0  0  0  0
   39.8040   32.7420   39.5640 C   0  0  0  0  0  0  0  0  0  0  0  0
   39.7380   31.9140   38.4770 C   0  0  0  0  0  0  0  0  0  0  0  0
   40.6090   32.1600   37.4150 C   0  0  0  0  0  0  0  0  0  0  0  0
   41.4640   33.1920   37.5170 N   0  0  0  0  0  0  0  0  0  0  0  0
   41.5060   33.9820   38.5890 C   0  0  0  0  0  0  0  0  0  0  0  0
   40.6640   33.7410   39.6110 N   0  0  0  0  0  0  0  0  0  0  0  0
   39.0810   31.0520   38.2980 H   0  0  0  0  0  0  0  0  0  0  0  0
   40.6160   31.5480   36.5180 H   0  0  0  0  0  0  0  0  0  0  0  0
   42.1750   34.8250   38.7230 H   0  0  0  0  0  0  0  0  0  0  0  0
  1  5  1  0  0  0  0
  2  1  2  0  0  0  0
  2  3  1  0  0  0  0
  3  7  1  0  0  0  0
  3  4  2  0  0  0  0
  4  8  1  0  0  0  0
  5  4  1  0  0  0  0
  6  2  1  0  0  0  0
  8 11  1  1  0  0  0
  9  8  1  0  0  0  0
  9 12  1  0  0  0  0
 10  9  1  0  0  0  0
 10 14  1  1  0  0  0
 10  8  1  0  0  0  0
 13  9  1  0  0  0  0
 15 10  1  0  0  0  0
 16 17  1  0  0  0  0
 16 15  2  0  0  0  0
 18 16  1  0  0  0  0
 19 18  1  0  0  0  0
 20 18  2  0  0  0  0
 20 21  1  0  0  0  0
 21 22  2  0  0  0  0
 22 15  1  0  0  0  0
 23  1  1  0  0  0  0
 24 23  1  0  0  0  0
 25 24  2  0  0  0  0
 26 31  1  0  0  0  0
 26 24  1  0  0  0  0
 27 26  2  0  0  0  0
 28 29  2  0  0  0  0
 28 27  1  0  0  0  0
 29 30  1  0  0  0  0
 30 34  1  0  0  0  0
 30 31  2  0  0  0  0
 32 27  1  0  0  0  0
 33 28  1  0  0  0  0
M  END
>  <minimizedAffinity>
-5.38090134

$$$$

 OpenBabel03242518373D

 34 37  0  0  1  0  0  0  0  0999 V2000
   37.6350   28.5330   40.7500 C   0  0  0  0  0  0  0  0  0  0  0  0
   36.4870   28.2020   41.4690 C   0  0  0  0  0  0  0  0  0  0  0  0
   36.8590   27.6090   42.6670 C   0  0  0  0  0  0  0  0  0  0  0  0
   38.2280   27.6110   42.6160 C   0  0  0  0  0  0  0  0  0  0  0  0
   38.6500   28.1430   41.5100 O   0  0  0  0  0  0  0  0  0  0  0  0
   35.5210   28.4210   41.0500 H   0  0  0  0  0  0  0  0  0  0  0  0
   36.1720   27.2590   43.4060 H   0  0  0  0  0  0  0  0  0  0  0  0
   39.1080   27.0850   43.6710 C   0  0  2  0  0  0  0  0  0  0  0  0
   40.5320   26.8230   43.3790 C   0  0  0  0  0  0  0  0  0  0  0  0
   39.6280   25.6630   43.4190 C   0  0  2  0  0  0  0  0  0  0  0  0
   38.7320   27.2930   44.6990 H   0  0  0  0  0  0  0  0  0  0  0  0
   41.2350   27.0080   44.2230 H   0  0  0  0  0  0  0  0  0  0  0  0
   40.9030   27.2600   42.4370 H   0  0  0  0  0  0  0  0  0  0  0  0
   39.6300   25.0960   44.4010 H   0  0  0  0  0  0  0  0  0  0  0  0
   39.1970   24.9020   42.2510 C   0  0  0  0  0  0  0  0  0  0  0  0
   38.1010   24.0770   42.1190 C   0  0  0  0  0  0  0  0  0  0  0  0
   37.4660   23.9840   42.9670 H   0  0  0  0  0  0  0  0  0  0  0  0
   37.7790   23.3870   40.9710 C   0  0  0  0  0  0  0  0  0  0  0  0
   36.9040   22.7540   40.9340 H   0  0  0  0  0  0  0  0  0  0  0  0
   38.5810   23.5030   39.8630 C   0  0  0  0  0  3  0  0  0  0  0  0
   39.6650   24.3220   39.9990 C   0  0  0  0  0  3  0  0  0  0  0  0
   39.9580   24.9810   41.1190 N   0  0  0  0  0  0  0  0  0  0  0  0
   37.8020   29.1430   39.4980 O   0  0  0  0  0  0  0  0  0  0  0  0
   37.2980   30.4410   39.2810 C   0  0  0  0  0  0  0  0  0  0  0  0
   36.1490   30.5050   38.7610 O   0  0  0  0  0  0  0  0  0  0  0  0
   38.1350   31.5210   39.6680 C   0  0  0  0  0  0  0  0  0  0  0  0
   37.4890   32.7110   39.8670 C   0  0  0  0  0  0  0  0  0  0  0  0
   38.2530   33.8130   40.2480 C   0  0  0  0  0  0  0  0  0  0  0  0
   39.5790   33.6480   40.4000 N   0  0  0  0  0  0  0  0  0  0  0  0
   40.1820   32.4770   40.2010 C   0  0  0  0  0  0  0  0  0  0  0  0
   39.4390   31.4160   39.8320 N   0  0  0  0  0  0  0  0  0  0  0  0
   36.4200   32.9460   39.7690 H   0  0  0  0  0  0  0  0  0  0  0  0
   37.8130   34.7910   40.4250 H   0  0  0  0  0  0  0  0  0  0  0  0
   41.2440   32.2900   40.3080 H   0  0  0  0  0  0  0  0  0  0  0  0
  1  2  2  0  0  0  0
  1  5  1  0  0  0  0
  2  3  1  0  0  0  0
  3  7  1  0  0  0  0
  4  3  2  0  0  0  0
  4  8  1  0  0  0  0
  5  4  1  0  0  0  0
  6  2  1  0  0  0  0
  8 11  1  1  0  0  0
  9 10  1  0  0  0  0
  9  8  1  0  0  0  0
  9 12  1  0  0  0  0
 10  8  1  0  0  0  0
 10 14  1  1  0  0  0
 13  9  1  0  0  0  0
 15 10  1  0  0  0  0
 16 15  1  0  0  0  0
 16 17  1  0  0  0  0
 18 16  2  0  0  0  0
 19 18  1  0  0  0  0
 20 21  2  0  0  0  0
 20 18  1  0  0  0  0
 21 22  1  0  0  0  0
 22 15  2  0  0  0  0
 23  1  1  0  0  0  0
 24 23  1  0  0  0  0
 24 26  1  0  0  0  0
 25 24  2  0  0  0  0
 26 31  2  0  0  0  0
 26 27  1  0  0  0  0
 27 28  2  0  0  0  0
 28 29  1  0  0  0  0
 28 33  1  0  0  0  0
 30 34  1  0  0  0  0
 30 29  2  0  0  0  0
 31 30  1  0  0  0  0
 32 27  1  0  0  0  0
M  END
>  <minimizedAffinity>
-5.34602737

$$$$

 OpenBabel03242518373D

 34 37  0  0  1  0  0  0  0  0999 V2000
   38.1040   29.0160   41.6160 C   0  0  0  0  0  0  0  0  0  0  0  0
   37.1220   28.8270   42.5880 C   0  0  0  0  0  0  0  0  0  0  0  0
   37.5680   27.8870   43.5050 C   0  0  0  0  0  0  0  0  0  0  0  0
   38.8120   27.5490   43.0400 C   0  0  0  0  0  0  0  0  0  0  0  0
   39.0980   28.2060   41.9580 O   0  0  0  0  0  0  0  0  0  0  0  0
   36.2030   29.3830   42.5250 H   0  0  0  0  0  0  0  0  0  0  0  0
   37.0080   27.5570   44.3520 H   0  0  0  0  0  0  0  0  0  0  0  0
   39.7100   26.5740   43.6790 C   0  0  2  0  0  0  0  0  0  0  0  0
   40.8380   26.0020   42.9150 C   0  0  0  0  0  0  0  0  0  0  0  0
   39.6440   25.1600   43.0870 C   0  0  2  0  0  0  0  0  0  0  0  0
   39.7080   26.6390   44.7920 H   0  0  0  0  0  0  0  0  0  0  0  0
   41.7570   25.7880   43.5070 H   0  0  0  0  0  0  0  0  0  0  0  0
   41.0730   26.5210   41.9720 H   0  0  0  0  0  0  0  0  0  0  0  0
   39.7130   24.4070   43.9320 H   0  0  0  0  0  0  0  0  0  0  0  0
   38.6950   24.8340   42.0270 C   0  0  0  0  0  0  0  0  0  0  0  0
   37.3890   24.4100   42.1430 C   0  0  0  0  0  0  0  0  0  0  0  0
   37.0000   24.3180   43.1290 H   0  0  0  0  0  0  0  0  0  0  0  0
   36.5680   24.1140   41.0770 C   0  0  0  0  0  0  0  0  0  0  0  0
   35.5520   23.7850   41.2370 H   0  0  0  0  0  0  0  0  0  0  0  0
   37.0490   24.2370   39.7970 C   0  0  0  0  0  3  0  0  0  0  0  0
   38.3430   24.6580   39.6880 C   0  0  0  0  0  3  0  0  0  0  0  0
   39.1200   24.9390   40.7320 N   0  0  0  0  0  0  0  0  0  0  0  0
   38.1440   29.8470   40.4870 O   0  0  0  0  0  0  0  0  0  0  0  0
   36.9880   30.5510   40.0970 C   0  0  0  0  0  0  0  0  0  0  0  0
   36.7660   31.6310   40.7150 O   0  0  0  0  0  0  0  0  0  0  0  0
   36.2070   29.9700   39.0630 C   0  0  0  0  0  0  0  0  0  0  0  0
   35.0500   29.3700   39.4790 C   0  0  0  0  0  0  0  0  0  0  0  0
   34.2370   28.7790   38.5120 C   0  0  0  0  0  0  0  0  0  0  0  0
   34.6320   28.8310   37.2280 N   0  0  0  0  0  0  0  0  0  0  0  0
   35.7650   29.4230   36.8510 C   0  0  0  0  0  0  0  0  0  0  0  0
   36.5460   29.9920   37.7890 N   0  0  0  0  0  0  0  0  0  0  0  0
   34.6430   29.2750   40.4950 H   0  0  0  0  0  0  0  0  0  0  0  0
   33.3040   28.2830   38.7630 H   0  0  0  0  0  0  0  0  0  0  0  0
   36.1300   29.4930   35.8330 H   0  0  0  0  0  0  0  0  0  0  0  0
  1  5  1  0  0  0  0
  1  2  2  0  0  0  0
  2  3  1  0  0  0  0
  3  7  1  0  0  0  0
  4  3  2  0  0  0  0
  4  8  1  0  0  0  0
  5  4  1  0  0  0  0
  6  2  1  0  0  0  0
  8 11  1  1  0  0  0
  9 10  1  0  0  0  0
  9 12  1  0  0  0  0
  9  8  1  0  0  0  0
 10  8  1  0  0  0  0
 10 14  1  1  0  0  0
 13  9  1  0  0  0  0
 15 16  1  0  0  0  0
 15 10  1  0  0  0  0
 16 17  1  0  0  0  0
 18 19  1  0  0  0  0
 18 16  2  0  0  0  0
 20 18  1  0  0  0  0
 21 20  2  0  0  0  0
 21 22  1  0  0  0  0
 22 15  2  0  0  0  0
 23  1  1  0  0  0  0
 24 23  1  0  0  0  0
 24 25  2  0  0  0  0
 26 27  1  0  0  0  0
 26 24  1  0  0  0  0
 27 32  1  0  0  0  0
 28 33  1  0  0  0  0
 28 27  2  0  0  0  0
 29 28  1  0  0  0  0
 30 29  2  0  0  0  0
 30 31  1  0  0  0  0
 31 26  2  0  0  0  0
 34 30  1  0  0  0  0
M  END
>  <minimizedAffinity>
-5.32332993

$$$$

 OpenBabel03242518373D

 34 37  0  0  1  0  0  0  0  0999 V2000
   39.8560   29.4900   41.4410 C   0  0  0  0  0  0  0  0  0  0  0  0
   40.4180   29.1350   40.2150 C   0  0  0  0  0  0  0  0  0  0  0  0
   40.1700   30.1430   39.2950 C   0  0  0  0  0  0  0  0  0  0  0  0
   39.4630   31.0700   40.0160 C   0  0  0  0  0  0  0  0  0  0  0  0
   39.2940   30.6750   41.2400 O   0  0  0  0  0  0  0  0  0  0  0  0
   40.9370   28.1970   40.1250 H   0  0  0  0  0  0  0  0  0  0  0  0
   40.4920   30.1230   38.2770 H   0  0  0  0  0  0  0  0  0  0  0  0
   38.9630   32.3450   39.4790 C   0  0  2  0  0  0  0  0  0  0  0  0
   37.9710   33.1270   40.2460 C   0  0  0  0  0  0  0  0  0  0  0  0
   37.4740   32.3410   39.1050 C   0  0  2  0  0  0  0  0  0  0  0  0
   39.6520   32.8100   38.7370 H   0  0  0  0  0  0  0  0  0  0  0  0
   38.0630   34.2330   40.1580 H   0  0  0  0  0  0  0  0  0  0  0  0
   37.8360   32.8110   41.2930 H   0  0  0  0  0  0  0  0  0  0  0  0
   37.3370   32.9320   38.1470 H   0  0  0  0  0  0  0  0  0  0  0  0
   36.6760   31.1240   39.2160 C   0  0  0  0  0  0  0  0  0  0  0  0
   36.0440   30.6080   40.3260 C   0  0  0  0  0  0  0  0  0  0  0  0
   36.1250   31.1670   41.2280 H   0  0  0  0  0  0  0  0  0  0  0  0
   35.3170   29.4380   40.3360 C   0  0  0  0  0  0  0  0  0  0  0  0
   34.8460   29.0870   41.2430 H   0  0  0  0  0  0  0  0  0  0  0  0
   35.1920   28.7090   39.1800 C   0  0  0  0  0  3  0  0  0  0  0  0
   35.8200   29.2240   38.0820 C   0  0  0  0  0  3  0  0  0  0  0  0
   36.5180   30.3580   38.0950 N   0  0  0  0  0  0  0  0  0  0  0  0
   39.8280   28.8250   42.6760 O   0  0  0  0  0  0  0  0  0  0  0  0
   38.6400   28.2010   43.1060 C   0  0  0  0  0  0  0  0  0  0  0  0
   37.8010   28.9520   43.6800 O   0  0  0  0  0  0  0  0  0  0  0  0
   38.5230   26.8100   42.8490 C   0  0  0  0  0  0  0  0  0  0  0  0
   37.3200   26.4170   42.3270 C   0  0  0  0  0  0  0  0  0  0  0  0
   37.1390   25.0620   42.0520 C   0  0  0  0  0  0  0  0  0  0  0  0
   38.1520   24.2170   42.3140 N   0  0  0  0  0  0  0  0  0  0  0  0
   39.3140   24.6280   42.8220 C   0  0  0  0  0  0  0  0  0  0  0  0
   39.4830   25.9370   43.0860 N   0  0  0  0  0  0  0  0  0  0  0  0
   36.4380   27.0230   42.0810 H   0  0  0  0  0  0  0  0  0  0  0  0
   36.2140   24.6720   41.6370 H   0  0  0  0  0  0  0  0  0  0  0  0
   40.1600   23.9910   43.0520 H   0  0  0  0  0  0  0  0  0  0  0  0
  1 23  1  0  0  0  0
  2  1  2  0  0  0  0
  3  4  2  0  0  0  0
  3  2  1  0  0  0  0
  4  5  1  0  0  0  0
  5  1  1  0  0  0  0
  6  2  1  0  0  0  0
  7  3  1  0  0  0  0
  8 11  1  6  0  0  0
  8  4  1  0  0  0  0
  8  9  1  0  0  0  0
  9 13  1  0  0  0  0
 10 14  1  6  0  0  0
 10 15  1  0  0  0  0
 10  8  1  0  0  0  0
 10  9  1  0  0  0  0
 12  9  1  0  0  0  0
 15 16  1  0  0  0  0
 16 18  2  0  0  0  0
 16 17  1  0  0  0  0
 18 19  1  0  0  0  0
 20 18  1  0  0  0  0
 21 22  1  0  0  0  0
 21 20  2  0  0  0  0
 22 15  2  0  0  0  0
 23 24  1  0  0  0  0
 24 25  2  0  0  0  0
 26 31  1  0  0  0  0
 26 24  1  0  0  0  0
 27 26  2  0  0  0  0
 28 29  2  0  0  0  0
 28 27  1  0  0  0  0
 29 30  1  0  0  0  0
 30 34  1  0  0  0  0
 30 31  2  0  0  0  0
 32 27  1  0  0  0  0
 33 28  1  0  0  0  0
M  END
>  <minimizedAffinity>
-5.32322836

$$$$

 OpenBabel03242518373D

 34 37  0  0  1  0  0  0  0  0999 V2000
   37.4540   29.3040   41.9600 C   0  0  0  0  0  0  0  0  0  0  0  0
   36.1820   29.5070   41.4270 C   0  0  0  0  0  0  0  0  0  0  0  0
   36.1800   30.6890   40.7000 C   0  0  0  0  0  0  0  0  0  0  0  0
   37.4650   31.1480   40.8300 C   0  0  0  0  0  0  0  0  0  0  0  0
   38.1750   30.3410   41.5560 O   0  0  0  0  0  0  0  0  0  0  0  0
   35.4070   28.7870   41.6210 H   0  0  0  0  0  0  0  0  0  0  0  0
   35.3300   31.0800   40.1870 H   0  0  0  0  0  0  0  0  0  0  0  0
   37.9760   32.3890   40.2270 C   0  0  2  0  0  0  0  0  0  0  0  0
   37.2200   33.0450   39.1410 C   0  0  0  0  0  0  0  0  0  0  0  0
   38.4020   32.2580   38.7580 C   0  0  2  0  0  0  0  0  0  0  0  0
   38.6780   32.9430   40.8920 H   0  0  0  0  0  0  0  0  0  0  0  0
   37.2680   34.1580   39.1290 H   0  0  0  0  0  0  0  0  0  0  0  0
   36.1880   32.6810   39.0040 H   0  0  0  0  0  0  0  0  0  0  0  0
   39.3440   32.8670   38.5960 H   0  0  0  0  0  0  0  0  0  0  0  0
   38.3590   30.9680   38.0780 C   0  0  0  0  0  0  0  0  0  0  0  0
   39.2930   29.9550   38.0950 C   0  0  0  0  0  0  0  0  0  0  0  0
   40.1590   30.1110   38.6920 H   0  0  0  0  0  0  0  0  0  0  0  0
   39.1690   28.7680   37.4060 C   0  0  0  0  0  0  0  0  0  0  0  0
   39.9400   28.0130   37.4620 H   0  0  0  0  0  0  0  0  0  0  0  0
   38.0530   28.5440   36.6390 C   0  0  0  0  0  3  0  0  0  0  0  0
   37.1300   29.5500   36.6250 C   0  0  0  0  0  3  0  0  0  0  0  0
   37.2700   30.6900   37.2990 N   0  0  0  0  0  0  0  0  0  0  0  0
   37.9710   28.2720   42.7590 O   0  0  0  0  0  0  0  0  0  0  0  0
   37.2250   27.0920   42.9440 C   0  0  0  0  0  0  0  0  0  0  0  0
   36.2030   27.1960   43.6800 O   0  0  0  0  0  0  0  0  0  0  0  0
   37.7040   25.9270   42.2880 C   0  0  0  0  0  0  0  0  0  0  0  0
   39.0570   25.8930   42.0830 C   0  0  0  0  0  0  0  0  0  0  0  0
   39.5930   24.7760   41.4420 C   0  0  0  0  0  0  0  0  0  0  0  0
   38.7540   23.7960   41.0620 N   0  0  0  0  0  0  0  0  0  0  0  0
   37.4400   23.8550   41.2760 C   0  0  0  0  0  0  0  0  0  0  0  0
   36.9290   24.9360   41.8940 N   0  0  0  0  0  0  0  0  0  0  0  0
   39.8190   26.6360   42.3520 H   0  0  0  0  0  0  0  0  0  0  0  0
   40.6560   24.6760   41.2430 H   0  0  0  0  0  0  0  0  0  0  0  0
   36.7220   23.0950   40.9900 H   0  0  0  0  0  0  0  0  0  0  0  0
  1 23  1  0  0  0  0
  2  6  1  0  0  0  0
  2  1  2  0  0  0  0
  3  4  2  0  0  0  0
  3  2  1  0  0  0  0
  4  5  1  0  0  0  0
  5  1  1  0  0  0  0
  7  3  1  0  0  0  0
  8  4  1  0  0  0  0
  8 11  1  1  0  0  0
  9  8  1  0  0  0  0
 10 14  1  6  0  0  0
 10  9  1  0  0  0  0
 10  8  1  0  0  0  0
 12  9  1  0  0  0  0
 13  9  1  0  0  0  0
 15 16  1  0  0  0  0
 15 10  1  0  0  0  0
 16 17  1  0  0  0  0
 18 19  1  0  0  0  0
 18 16  2  0  0  0  0
 20 18  1  0  0  0  0
 21 20  2  0  0  0  0
 21 22  1  0  0  0  0
 22 15  2  0  0  0  0
 23 24  1  0  0  0  0
 24 25  2  0  0  0  0
 26 24  1  0  0  0  0
 27 26  1  0  0  0  0
 27 32  1  0  0  0  0
 28 27  2  0  0  0  0
 29 30  2  0  0  0  0
 29 28  1  0  0  0  0
 30 31  1  0  0  0  0
 31 26  2  0  0  0  0
 33 28  1  0  0  0  0
 34 30  1  0  0  0  0
M  END
>  <minimizedAffinity>
-5.19977951

$$$$

 OpenBabel03242518373D

 34 37  0  0  1  0  0  0  0  0999 V2000
   36.6640   27.2770   38.7630 C   0  0  0  0  0  0  0  0  0  0  0  0
   37.9700   27.1370   38.2950 C   0  0  0  0  0  0  0  0  0  0  0  0
   38.6020   26.1310   39.0120 C   0  0  0  0  0  0  0  0  0  0  0  0
   37.6370   25.7060   39.8880 C   0  0  0  0  0  0  0  0  0  0  0  0
   36.5380   26.3770   39.7290 O   0  0  0  0  0  0  0  0  0  0  0  0
   38.3170   27.7710   37.4980 H   0  0  0  0  0  0  0  0  0  0  0  0
   39.6110   25.8200   38.8550 H   0  0  0  0  0  0  0  0  0  0  0  0
   37.8170   24.6320   40.8780 C   0  0  2  0  0  0  0  0  0  0  0  0
   36.8250   24.4530   41.9570 C   0  0  0  0  0  0  0  0  0  0  0  0
   38.0880   25.1200   42.3080 C   0  0  2  0  0  0  0  0  0  0  0  0
   38.4660   23.8040   40.5120 H   0  0  0  0  0  0  0  0  0  0  0  0
   36.6480   23.4000   42.2730 H   0  0  0  0  0  0  0  0  0  0  0  0
   35.8780   25.0000   41.8170 H   0  0  0  0  0  0  0  0  0  0  0  0
   38.8650   24.4430   42.7830 H   0  0  0  0  0  0  0  0  0  0  0  0
   38.2260   26.5420   42.6020 C   0  0  0  0  0  0  0  0  0  0  0  0
   37.2570   27.4340   43.0080 C   0  0  0  0  0  0  0  0  0  0  0  0
   36.2760   27.0480   43.1460 H   0  0  0  0  0  0  0  0  0  0  0  0
   37.4820   28.7710   43.2530 C   0  0  0  0  0  0  0  0  0  0  0  0
   36.6770   29.4190   43.5690 H   0  0  0  0  0  0  0  0  0  0  0  0
   38.7440   29.2860   43.0910 C   0  0  0  0  0  3  0  0  0  0  0  0
   39.7000   28.3990   42.6890 C   0  0  0  0  0  3  0  0  0  0  0  0
   39.4610   27.1090   42.4580 N   0  0  0  0  0  0  0  0  0  0  0  0
   35.6280   28.1410   38.3770 O   0  0  0  0  0  0  0  0  0  0  0  0
   35.2960   29.2410   39.1920 C   0  0  0  0  0  0  0  0  0  0  0  0
   34.2200   29.1350   39.8460 O   0  0  0  0  0  0  0  0  0  0  0  0
   36.2000   30.3360   39.1840 C   0  0  0  0  0  0  0  0  0  0  0  0
   36.4190   30.9140   40.4040 C   0  0  0  0  0  0  0  0  0  0  0  0
   37.2970   31.9960   40.4660 C   0  0  0  0  0  0  0  0  0  0  0  0
   37.8790   32.4110   39.3270 N   0  0  0  0  0  0  0  0  0  0  0  0
   37.6470   31.8280   38.1520 C   0  0  0  0  0  0  0  0  0  0  0  0
   36.7980   30.7840   38.0980 N   0  0  0  0  0  0  0  0  0  0  0  0
   35.9960   30.6520   41.3840 H   0  0  0  0  0  0  0  0  0  0  0  0
   37.5220   32.5080   41.3970 H   0  0  0  0  0  0  0  0  0  0  0  0
   38.0880   32.1220   37.2060 H   0  0  0  0  0  0  0  0  0  0  0  0
  1  5  1  0  0  0  0
  2  1  2  0  0  0  0
  2  3  1  0  0  0  0
  3  4  2  0  0  0  0
  4  8  1  0  0  0  0
  5  4  1  0  0  0  0
  6  2  1  0  0  0  0
  7  3  1  0  0  0  0
  8 11  1  6  0  0  0
  8  9  1  0  0  0  0
  8 10  1  0  0  0  0
  9 12  1  0  0  0  0
  9 10  1  0  0  0  0
 10 15  1  0  0  0  0
 10 14  1  1  0  0  0
 13  9  1  0  0  0  0
 15 16  1  0  0  0  0
 16 17  1  0  0  0  0
 16 18  2  0  0  0  0
 18 19  1  0  0  0  0
 20 18  1  0  0  0  0
 21 20  2  0  0  0  0
 22 15  2  0  0  0  0
 22 21  1  0  0  0  0
 23  1  1  0  0  0  0
 23 24  1  0  0  0  0
 24 25  2  0  0  0  0
 26 24  1  0  0  0  0
 26 27  1  0  0  0  0
 27 28  2  0  0  0  0
 27 32  1  0  0  0  0
 28 33  1  0  0  0  0
 29 28  1  0  0  0  0
 30 29  2  0  0  0  0
 31 30  1  0  0  0  0
 31 26  2  0  0  0  0
 34 30  1  0  0  0  0
M  END
>  <minimizedAffinity>
-5.15078831

$$$$

 OpenBabel03242518373D

 34 37  0  0  1  0  0  0  0  0999 V2000
   36.1870   28.2530   40.7090 C   0  0  0  0  0  0  0  0  0  0  0  0
   35.0780   29.0630   40.4700 C   0  0  0  0  0  0  0  0  0  0  0  0
   35.1580   29.5700   39.1810 C   0  0  0  0  0  0  0  0  0  0  0  0
   36.3240   29.0360   38.6970 C   0  0  0  0  0  0  0  0  0  0  0  0
   36.8970   28.2870   39.5890 O   0  0  0  0  0  0  0  0  0  0  0  0
   34.3450   29.1970   41.2460 H   0  0  0  0  0  0  0  0  0  0  0  0
   34.4350   30.2210   38.7430 H   0  0  0  0  0  0  0  0  0  0  0  0
   36.8580   29.2740   37.3470 C   0  0  2  0  0  0  0  0  0  0  0  0
   38.2980   29.0740   37.0800 C   0  0  0  0  0  0  0  0  0  0  0  0
   37.8290   30.4580   37.2440 C   0  0  2  0  0  0  0  0  0  0  0  0
   36.0830   29.2060   36.5500 H   0  0  0  0  0  0  0  0  0  0  0  0
   38.5470   28.6890   36.0650 H   0  0  0  0  0  0  0  0  0  0  0  0
   38.8470   28.5310   37.8670 H   0  0  0  0  0  0  0  0  0  0  0  0
   37.6310   31.0090   36.2720 H   0  0  0  0  0  0  0  0  0  0  0  0
   38.1100   31.3020   38.4010 C   0  0  0  0  0  0  0  0  0  0  0  0
   39.1270   31.1860   39.3230 C   0  0  0  0  0  0  0  0  0  0  0  0
   39.8190   30.3920   39.1780 H   0  0  0  0  0  0  0  0  0  0  0  0
   39.3050   32.0310   40.3970 C   0  0  0  0  0  0  0  0  0  0  0  0
   40.1250   31.8850   41.0850 H   0  0  0  0  0  0  0  0  0  0  0  0
   38.4290   33.0690   40.5950 C   0  0  0  0  0  3  0  0  0  0  0  0
   37.4230   33.1790   39.6790 C   0  0  0  0  0  3  0  0  0  0  0  0
   37.2690   32.3510   38.6470 N   0  0  0  0  0  0  0  0  0  0  0  0
   36.5720   27.5170   41.8410 O   0  0  0  0  0  0  0  0  0  0  0  0
   37.7480   27.8670   42.5340 C   0  0  0  0  0  0  0  0  0  0  0  0
   37.7230   28.9800   43.1320 O   0  0  0  0  0  0  0  0  0  0  0  0
   38.8190   26.9360   42.4810 C   0  0  0  0  0  0  0  0  0  0  0  0
   39.6210   26.9140   43.5890 C   0  0  0  0  0  0  0  0  0  0  0  0
   40.6930   26.0210   43.6010 C   0  0  0  0  0  0  0  0  0  0  0  0
   40.8800   25.2340   42.5270 N   0  0  0  0  0  0  0  0  0  0  0  0
   40.0820   25.2780   41.4610 C   0  0  0  0  0  0  0  0  0  0  0  0
   39.0490   26.1410   41.4540 N   0  0  0  0  0  0  0  0  0  0  0  0
   39.5530   27.5110   44.5090 H   0  0  0  0  0  0  0  0  0  0  0  0
   41.3740   25.9440   44.4440 H   0  0  0  0  0  0  0  0  0  0  0  0
   40.1870   24.6680   40.5710 H   0  0  0  0  0  0  0  0  0  0  0  0
  1 23  1  0  0  0  0
  2  1  2  0  0  0  0
  2  6  1  0  0  0  0
  3  2  1  0  0  0  0
  4  3  2  0  0  0  0
  4  5  1  0  0  0  0
  5  1  1  0  0  0  0
  7  3  1  0  0  0  0
  8 11  1  6  0  0  0
  8  4  1  0  0  0  0
  9 10  1  0  0  0  0
  9  8  1  0  0  0  0
  9 13  1  0  0  0  0
 10 14  1  6  0  0  0
 10  8  1  0  0  0  0
 10 15  1  0  0  0  0
 12  9  1  0  0  0  0
 15 22  2  0  0  0  0
 15 16  1  0  0  0  0
 16 18  2  0  0  0  0
 17 16  1  0  0  0  0
 18 20  1  0  0  0  0
 18 19  1  0  0  0  0
 21 20  2  0  0  0  0
 22 21  1  0  0  0  0
 23 24  1  0  0  0  0
 24 25  2  0  0  0  0
 26 24  1  0  0  0  0
 26 27  1  0  0  0  0
 27 28  2  0  0  0  0
 27 32  1  0  0  0  0
 28 33  1  0  0  0  0
 29 28  1  0  0  0  0
 30 29  2  0  0  0  0
 31 30  1  0  0  0  0
 31 26  2  0  0  0  0
 34 30  1  0  0  0  0
M  END
>  <minimizedAffinity>
-4.97856283

$$$$
