
 OpenBabel03252508143D

 36 39  0  0  1  0  0  0  0  0999 V2000
   47.0460   30.7320   46.8210 C   0  0  0  0  0  0  0  0  0  0  0  0
   48.0470   30.2970   46.8780 H   0  0  0  0  0  0  0  0  0  0  0  0
   46.2460   29.9650   46.8200 H   0  0  0  0  0  0  0  0  0  0  0  0
   46.8400   31.5830   48.0510 C   0  0  1  0  0  0  0  0  0  0  0  0
   46.2470   30.9070   49.2370 C   0  0  0  0  0  0  0  0  0  0  0  0
   47.6400   31.3120   49.2660 C   0  0  1  0  0  0  0  0  0  0  0  0
   46.5390   32.6310   47.8700 H   0  0  0  0  0  0  0  0  0  0  0  0
   45.5060   31.4970   49.8440 H   0  0  0  0  0  0  0  0  0  0  0  0
   45.9180   29.8430   49.1810 H   0  0  0  0  0  0  0  0  0  0  0  0
   47.8840   32.2250   49.8900 H   0  0  0  0  0  0  0  0  0  0  0  0
   48.7880   30.3870   49.1510 C   0  0  0  0  0  0  0  0  0  0  0  0
   49.6590   30.2950   50.4330 C   0  0  0  0  0  0  0  0  0  0  0  0
   50.1920   31.0400   49.2580 C   0  0  0  0  0  0  0  0  0  0  0  0
   48.6950   29.4700   48.5500 H   0  0  0  0  0  0  0  0  0  0  0  0
   49.3420   30.8850   51.3110 H   0  0  0  0  0  0  0  0  0  0  0  0
   50.0370   29.2790   50.6380 H   0  0  0  0  0  0  0  0  0  0  0  0
   50.2040   32.1500   49.2630 H   0  0  0  0  0  0  0  0  0  0  0  0
   50.9510   30.5230   48.6440 H   0  0  0  0  0  0  0  0  0  0  0  0
   46.3880   32.7410   45.7740 C   0  0  0  0  0  2  0  0  0  0  0  0
   46.8930   31.5880   45.5710 C   0  0  0  0  0  2  0  0  0  0  0  0
   45.2280   35.5100   43.6450 C   0  0  0  0  0  0  0  0  0  0  0  0
   45.8360   35.2610   42.4210 C   0  0  0  0  0  0  0  0  0  0  0  0
   46.6450   34.1370   42.3620 C   0  0  0  0  0  0  0  0  0  0  0  0
   46.7720   33.3990   43.4640 N   0  0  0  0  0  0  0  0  0  0  0  0
   46.1900   33.6370   44.6280 C   0  0  0  0  0  0  0  0  0  0  0  0
   45.4200   34.7050   44.6960 N   0  0  0  0  0  0  0  0  0  0  0  0
   44.5840   36.3950   43.7130 H   0  0  0  0  0  0  0  0  0  0  0  0
   45.7320   35.8570   41.5400 H   0  0  0  0  0  0  0  0  0  0  0  0
   47.3750   33.7060   41.1610 C   0  0  0  0  0  0  0  0  0  0  0  0
   48.4390   32.8350   41.1940 C   0  0  0  0  0  0  0  0  0  0  0  0
   48.7710   32.4390   42.1220 H   0  0  0  0  0  0  0  0  0  0  0  0
   49.1290   32.4230   40.0860 C   0  0  0  0  0  0  0  0  0  0  0  0
   49.9610   31.7390   40.1440 H   0  0  0  0  0  0  0  0  0  0  0  0
   48.7570   32.8940   38.8440 C   0  0  0  0  0  3  0  0  0  0  0  0
   47.6860   33.7680   38.8370 C   0  0  0  0  0  3  0  0  0  0  0  0
   47.0370   34.1480   39.9290 N   0  0  0  0  0  0  0  0  0  0  0  0
  1  2  1  0  0  0  0
  1  4  1  0  0  0  0
  3  1  1  0  0  0  0
  4  7  1  6  0  0  0
  4  5  1  0  0  0  0
  4  6  1  0  0  0  0
  5  6  1  0  0  0  0
  5  8  1  0  0  0  0
  6 10  1  1  0  0  0
  9  5  1  0  0  0  0
 11 13  1  0  0  0  0
 11  6  1  0  0  0  0
 11 12  1  0  0  0  0
 12 16  1  0  0  0  0
 12 15  1  0  0  0  0
 13 17  1  0  0  0  0
 13 12  1  0  0  0  0
 14 11  1  0  0  0  0
 18 13  1  0  0  0  0
 20 19  1  0  0  0  0
 20  1  1  0  0  0  0
 21 27  1  0  0  0  0
 21 26  1  0  0  0  0
 22 21  2  0  0  0  0
 23 22  1  0  0  0  0
 23 24  2  0  0  0  0
 24 25  1  0  0  0  0
 25 26  2  0  0  0  0
 25 19  1  0  0  0  0
 28 22  1  0  0  0  0
 29 30  1  0  0  0  0
 29 23  1  0  0  0  0
 30 31  1  0  0  0  0
 32 33  1  0  0  0  0
 32 30  2  0  0  0  0
 34 32  1  0  0  0  0
 35 34  2  0  0  0  0
 35 36  1  0  0  0  0
 36 29  2  0  0  0  0
M  END
>  <minimizedAffinity>
-4.74977207

>  <minimizedRMSD>
1.21481764

$$$$
