
 OpenBabel03252508143D

 36 39  0  0  1  0  0  0  0  0999 V2000
   47.0690   30.7140   46.8160 C   0  0  0  0  0  0  0  0  0  0  0  0
   48.0740   30.2870   46.8730 H   0  0  0  0  0  0  0  0  0  0  0  0
   46.2750   29.9420   46.8210 H   0  0  0  0  0  0  0  0  0  0  0  0
   46.8600   31.5720   48.0410 C   0  0  1  0  0  0  0  0  0  0  0  0
   46.2600   30.9030   49.2270 C   0  0  0  0  0  0  0  0  0  0  0  0
   47.6530   31.3040   49.2610 C   0  0  1  0  0  0  0  0  0  0  0  0
   46.5620   32.6200   47.8540 H   0  0  0  0  0  0  0  0  0  0  0  0
   45.5180   31.4970   49.8290 H   0  0  0  0  0  0  0  0  0  0  0  0
   45.9280   29.8390   49.1750 H   0  0  0  0  0  0  0  0  0  0  0  0
   47.8970   32.2200   49.8820 H   0  0  0  0  0  0  0  0  0  0  0  0
   48.8000   30.3760   49.1550 C   0  0  0  0  0  0  0  0  0  0  0  0
   49.6700   30.2940   50.4390 C   0  0  0  0  0  0  0  0  0  0  0  0
   50.2050   31.0270   49.2570 C   0  0  0  0  0  0  0  0  0  0  0  0
   48.7060   29.4530   48.5630 H   0  0  0  0  0  0  0  0  0  0  0  0
   49.3530   30.8930   51.3110 H   0  0  0  0  0  0  0  0  0  0  0  0
   50.0460   29.2800   50.6530 H   0  0  0  0  0  0  0  0  0  0  0  0
   50.2200   32.1370   49.2510 H   0  0  0  0  0  0  0  0  0  0  0  0
   50.9630   30.5030   48.6480 H   0  0  0  0  0  0  0  0  0  0  0  0
   46.4330   32.7270   45.7640 C   0  0  0  0  0  2  0  0  0  0  0  0
   46.9070   31.5620   45.5610 C   0  0  0  0  0  2  0  0  0  0  0  0
   45.2600   35.4820   43.6240 C   0  0  0  0  0  0  0  0  0  0  0  0
   45.8630   35.2270   42.3980 C   0  0  0  0  0  0  0  0  0  0  0  0
   46.6740   34.1050   42.3420 C   0  0  0  0  0  0  0  0  0  0  0  0
   46.8060   33.3730   43.4480 N   0  0  0  0  0  0  0  0  0  0  0  0
   46.2280   33.6170   44.6140 C   0  0  0  0  0  0  0  0  0  0  0  0
   45.4570   34.6840   44.6780 N   0  0  0  0  0  0  0  0  0  0  0  0
   44.6140   36.3670   43.6880 H   0  0  0  0  0  0  0  0  0  0  0  0
   45.7550   35.8180   41.5140 H   0  0  0  0  0  0  0  0  0  0  0  0
   47.4000   33.6680   41.1420 C   0  0  0  0  0  0  0  0  0  0  0  0
   48.1160   32.4960   41.0760 C   0  0  0  0  0  0  0  0  0  0  0  0
   48.1640   31.8540   41.9200 H   0  0  0  0  0  0  0  0  0  0  0  0
   48.7980   32.0740   39.9640 C   0  0  0  0  0  0  0  0  0  0  0  0
   49.3510   31.1490   39.9430 H   0  0  0  0  0  0  0  0  0  0  0  0
   48.7830   32.8520   38.8270 C   0  0  0  0  0  3  0  0  0  0  0  0
   48.0570   34.0240   38.9190 C   0  0  0  0  0  3  0  0  0  0  0  0
   47.4080   34.4060   40.0090 N   0  0  0  0  0  0  0  0  0  0  0  0
  1  3  1  0  0  0  0
  1  2  1  0  0  0  0
  1  4  1  0  0  0  0
  4  7  1  6  0  0  0
  4  5  1  0  0  0  0
  4  6  1  0  0  0  0
  5  6  1  0  0  0  0
  5  8  1  0  0  0  0
  6 10  1  1  0  0  0
  9  5  1  0  0  0  0
 11 13  1  0  0  0  0
 11  6  1  0  0  0  0
 11 12  1  0  0  0  0
 12 16  1  0  0  0  0
 12 15  1  0  0  0  0
 13 12  1  0  0  0  0
 14 11  1  0  0  0  0
 17 13  1  0  0  0  0
 18 13  1  0  0  0  0
 20 19  1  0  0  0  0
 20  1  1  0  0  0  0
 21 27  1  0  0  0  0
 21 26  1  0  0  0  0
 22 21  2  0  0  0  0
 23 22  1  0  0  0  0
 23 24  2  0  0  0  0
 24 25  1  0  0  0  0
 25 26  2  0  0  0  0
 25 19  1  0  0  0  0
 28 22  1  0  0  0  0
 29 23  1  0  0  0  0
 30 29  1  0  0  0  0
 30 31  1  0  0  0  0
 32 30  2  0  0  0  0
 33 32  1  0  0  0  0
 34 35  2  0  0  0  0
 34 32  1  0  0  0  0
 35 36  1  0  0  0  0
 36 29  2  0  0  0  0
M  END
>  <minimizedAffinity>
-4.76343441

>  <minimizedRMSD>
1.25441217

$$$$
