
 OpenBabel03252500093D

 30 31  0  0  0  0  0  0  0  0999 V2000
   45.0530   32.3640   39.6670 Cl  0  0  0  0  0 10  0  0  0  0  0  0
   46.3850   33.2150   38.9310 C   0  0  0  0  0  0  0  0  0  0  0  0
   47.2550   33.9330   39.7110 C   0  0  0  0  0  0  0  0  0  0  0  0
   48.3370   34.6330   39.1720 C   0  0  0  0  0  0  0  0  0  0  0  0
   48.4790   34.5590   37.8040 C   0  0  0  0  0  0  0  0  0  0  0  0
   47.6140   33.8450   37.0280 C   0  0  0  0  0  0  0  0  0  0  0  0
   46.5760   33.1760   37.5610 C   0  0  0  0  0  0  0  0  0  0  0  0
   49.0170   35.1960   39.8020 H   0  0  0  0  0  0  0  0  0  0  0  0
   49.3100   35.0930   37.3720 H   0  0  0  0  0  0  0  0  0  0  0  0
   47.7870   33.8320   35.9640 H   0  0  0  0  0  0  0  0  0  0  0  0
   47.5680   33.1810   43.3120 C   0  0  0  0  0  0  0  0  0  0  0  0
   46.6530   34.0780   43.8920 C   0  0  0  0  0  0  0  0  0  0  0  0
   45.9430   34.9260   43.0360 C   0  0  0  0  0  0  0  0  0  0  0  0
   46.1590   34.8550   41.6950 N   0  0  0  0  0  0  0  0  0  0  0  0
   47.0520   33.9760   41.1680 C   0  0  0  0  0  0  0  0  0  0  0  0
   47.7480   33.1470   41.9810 N   0  0  0  0  0  0  0  0  0  0  0  0
   48.1070   32.5320   43.9870 H   0  0  0  0  0  0  0  0  0  0  0  0
   46.4700   34.1450   44.9570 H   0  0  0  0  0  0  0  0  0  0  0  0
   44.9420   35.9240   43.5320 C   0  0  0  0  0  0  0  0  0  0  0  0
   45.2700   37.1870   43.1400 F   0  0  0  0  0  0  0  0  0  0  0  0
   43.6960   35.6020   42.9980 F   0  0  0  0  0  0  0  0  0  0  0  0
   44.9040   35.8100   44.8990 F   0  0  0  0  0  0  0  0  0  0  0  0
   45.6150   32.3950   36.7890 C   0  0  0  0  0  0  0  0  0  0  0  0
   44.4770   31.8300   37.3210 C   0  0  0  0  0  0  0  0  0  0  0  0
   44.2750   31.9650   38.3750 H   0  0  0  0  0  0  0  0  0  0  0  0
   43.5650   31.0910   36.6010 C   0  0  0  0  0  0  0  0  0  0  0  0
   42.6870   30.6790   37.1150 H   0  0  0  0  0  0  0  0  0  0  0  0
   43.7790   30.8870   35.2530 C   0  0  0  0  0  0  0  0  0  0  0  0
   44.9160   31.4520   34.7170 C   0  0  0  0  0  0  0  0  0  0  0  0
   45.7580   32.1540   35.4590 N   0  0  0  0  0  0  0  0  0  0  0  0
  2  3  1  0  0  0  0
  3 15  1  0  0  0  0
  4  3  2  0  0  0  0
  4  8  1  0  0  0  0
  5  4  1  0  0  0  0
  6  7  1  0  0  0  0
  6  5  2  0  0  0  0
  7  2  2  0  0  0  0
  9  5  1  0  0  0  0
 10  6  1  0  0  0  0
 11 12  1  0  0  0  0
 11 17  1  0  0  0  0
 12 18  1  0  0  0  0
 13 19  1  0  0  0  0
 13 12  2  0  0  0  0
 14 13  1  0  0  0  0
 15 14  2  0  0  0  0
 15 16  1  0  0  0  0
 16 11  2  0  0  0  0
 19 22  1  0  0  0  0
 20 19  1  0  0  0  0
 21 19  1  0  0  0  0
 23 24  1  0  0  0  0
 23  7  1  0  0  0  0
 24 25  1  0  0  0  0
 26 27  1  0  0  0  0
 26 24  2  0  0  0  0
 28 26  1  0  0  0  0
 29 28  2  0  0  0  0
 29 30  1  0  0  0  0
 30 23  2  0  0  0  0
M  END
>  <minimizedAffinity>
-5.6783371

>  <minimizedRMSD>
0.216194019

$$$$
