
 OpenBabel03242518353D

 34 37  0  0  1  0  0  0  0  0999 V2000
   47.4030   33.7170   39.7860 C   0  0  0  0  0  0  0  0  0  0  0  0
   48.3020   34.4160   38.9810 C   0  0  0  0  0  0  0  0  0  0  0  0
   47.9580   34.2280   37.6510 C   0  0  0  0  0  0  0  0  0  0  0  0
   46.8550   33.4160   37.7150 C   0  0  0  0  0  0  0  0  0  0  0  0
   46.5560   33.1360   38.9460 O   0  0  0  0  0  0  0  0  0  0  0  0
   49.0970   34.9750   39.4410 H   0  0  0  0  0  0  0  0  0  0  0  0
   48.4850   34.6530   36.8250 H   0  0  0  0  0  0  0  0  0  0  0  0
   46.1050   32.9280   36.5470 C   0  0  2  0  0  0  0  0  0  0  0  0
   45.3910   31.6360   36.6200 C   0  0  0  0  0  0  0  0  0  0  0  0
   46.6770   31.6560   35.9060 C   0  0  2  0  0  0  0  0  0  0  0  0
   45.8100   33.7400   35.8440 H   0  0  0  0  0  0  0  0  0  0  0  0
   44.4390   31.5830   36.0450 H   0  0  0  0  0  0  0  0  0  0  0  0
   45.2770   31.2220   37.6350 H   0  0  0  0  0  0  0  0  0  0  0  0
   46.5920   31.7460   34.7790 H   0  0  0  0  0  0  0  0  0  0  0  0
   47.9140   31.0580   36.4000 C   0  0  0  0  0  0  0  0  0  0  0  0
   48.0870   30.1840   37.4500 C   0  0  0  0  0  0  0  0  0  0  0  0
   47.2110   29.8800   37.9710 H   0  0  0  0  0  0  0  0  0  0  0  0
   49.3040   29.6780   37.8510 C   0  0  0  0  0  0  0  0  0  0  0  0
   49.3710   28.9950   38.6850 H   0  0  0  0  0  0  0  0  0  0  0  0
   50.4440   30.0490   37.1830 C   0  0  0  0  0  0  0  0  0  0  0  0
   50.2680   30.9150   36.1430 C   0  0  0  0  0  0  0  0  0  0  0  0
   49.0810   31.3920   35.7720 N   0  0  0  0  0  0  0  0  0  0  0  0
   47.3140   33.5860   41.1800 O   0  0  0  0  0  0  0  0  0  0  0  0
   47.3920   34.7320   41.9960 C   0  0  0  0  0  0  0  0  0  0  0  0
   48.2590   35.5870   41.6600 O   0  0  0  0  0  0  0  0  0  0  0  0
   46.4960   34.7930   43.0950 C   0  0  0  0  0  0  0  0  0  0  0  0
   45.6040   35.8300   43.0570 C   0  0  0  0  0  0  0  0  0  0  0  0
   44.6950   35.9480   44.1080 C   0  0  0  0  0  0  0  0  0  0  0  0
   44.7440   35.0410   45.0990 N   0  0  0  0  0  0  0  0  0  0  0  0
   45.6240   34.0400   45.1100 C   0  0  0  0  0  0  0  0  0  0  0  0
   46.4990   33.9310   44.0930 N   0  0  0  0  0  0  0  0  0  0  0  0
   45.4840   36.6170   42.2990 H   0  0  0  0  0  0  0  0  0  0  0  0
   43.9560   36.7430   44.1490 H   0  0  0  0  0  0  0  0  0  0  0  0
   45.7070   33.2840   45.8820 H   0  0  0  0  0  0  0  0  0  0  0  0
  1 23  1  0  0  0  0
  2  6  1  0  0  0  0
  2  1  2  0  0  0  0
  3  4  2  0  0  0  0
  3  2  1  0  0  0  0
  4  5  1  0  0  0  0
  5  1  1  0  0  0  0
  7  3  1  0  0  0  0
  8 11  1  6  0  0  0
  8  9  1  0  0  0  0
  8  4  1  0  0  0  0
  9 13  1  0  0  0  0
 10 14  1  6  0  0  0
 10 15  1  0  0  0  0
 10  8  1  0  0  0  0
 10  9  1  0  0  0  0
 12  9  1  0  0  0  0
 15 16  1  0  0  0  0
 16 18  2  0  0  0  0
 16 17  1  0  0  0  0
 18 19  1  0  0  0  0
 20 18  1  0  0  0  0
 21 20  2  0  0  0  0
 22 21  1  0  0  0  0
 22 15  2  0  0  0  0
 23 24  1  0  0  0  0
 24 26  1  0  0  0  0
 25 24  2  0  0  0  0
 26 31  1  0  0  0  0
 27 26  2  0  0  0  0
 27 28  1  0  0  0  0
 28 33  1  0  0  0  0
 28 29  2  0  0  0  0
 29 30  1  0  0  0  0
 30 34  1  0  0  0  0
 31 30  2  0  0  0  0
 32 27  1  0  0  0  0
M  END
>  <minimizedAffinity>
-4.62326765

>  <minimizedRMSD>
0.822873056

$$$$
