
 OpenBabel03252501263D

 34 37  0  0  0  0  0  0  0  0999 V2000
   37.9610   27.7400   39.8360 F   0  0  0  0  0  0  0  0  0  0  0  0
   37.7570   27.8210   41.1690 C   0  0  0  0  0  0  0  0  0  0  0  0
   37.6910   29.0500   41.7610 C   0  0  0  0  0  0  0  0  0  0  0  0
   37.4810   29.1360   43.1310 C   0  0  0  0  0  0  0  0  0  0  0  0
   37.3350   28.0280   43.9240 C   0  0  0  0  0  0  0  0  0  0  0  0
   37.4050   26.8130   43.3010 C   0  0  0  0  0  0  0  0  0  0  0  0
   37.6120   26.6740   41.9470 C   0  0  0  0  0  0  0  0  0  0  0  0
   37.4240   30.1030   43.6340 H   0  0  0  0  0  0  0  0  0  0  0  0
   37.1690   28.0770   45.0000 H   0  0  0  0  0  0  0  0  0  0  0  0
   37.2940   25.9220   43.9000 H   0  0  0  0  0  0  0  0  0  0  0  0
   37.6940   25.3980   41.2420 C   0  0  0  0  0  0  0  0  0  0  0  0
   36.5820   24.6650   40.8870 C   0  0  0  0  0  0  0  0  0  0  0  0
   35.5910   25.0220   41.1250 H   0  0  0  0  0  0  0  0  0  0  0  0
   36.5990   23.4580   40.2210 C   0  0  0  0  0  0  0  0  0  0  0  0
   35.6990   22.9210   39.9640 H   0  0  0  0  0  0  0  0  0  0  0  0
   37.8210   22.9250   39.8750 C   0  0  0  0  0  3  0  0  0  0  0  0
   38.9260   23.6580   40.2310 C   0  0  0  0  0  3  0  0  0  0  0  0
   38.8600   24.8340   40.8810 N   0  0  0  0  0  0  0  0  0  0  0  0
   38.8880   31.9000   40.0920 C   0  0  0  0  0  0  0  0  0  0  0  0
   37.5190   32.1450   40.0780 C   0  0  0  0  0  0  0  0  0  0  0  0
   36.8700   31.1240   40.6950 C   0  0  0  0  0  0  0  0  0  0  0  0
   37.8220   30.2650   41.0830 N   0  0  0  0  0  0  0  0  0  0  0  0
   39.0220   30.7410   40.7170 N   0  0  0  0  0  0  0  0  0  0  0  0
   37.0470   33.0060   39.6460 H   0  0  0  0  0  0  0  0  0  0  0  0
   35.7960   30.9790   40.8690 H   0  0  0  0  0  0  0  0  0  0  0  0
   41.1630   34.7230   39.6140 C   0  0  0  0  0  0  0  0  0  0  0  0
   41.8030   34.4040   38.3990 C   0  0  0  0  0  0  0  0  0  0  0  0
   41.4370   33.2050   37.7560 C   0  0  0  0  0  0  0  0  0  0  0  0
   40.4900   32.4610   38.3730 N   0  0  0  0  0  0  0  0  0  0  0  0
   39.8910   32.7760   39.5240 C   0  0  0  0  0  0  0  0  0  0  0  0
   40.2220   33.9150   40.1600 N   0  0  0  0  0  0  0  0  0  0  0  0
   41.4850   35.6550   40.0600 H   0  0  0  0  0  0  0  0  0  0  0  0
   42.5530   35.0620   37.9770 H   0  0  0  0  0  0  0  0  0  0  0  0
   41.8980   32.9260   36.8330 H   0  0  0  0  0  0  0  0  0  0  0  0
  1  2  1  0  0  0  0
  2  3  2  0  0  0  0
  2  7  1  0  0  0  0
  3  4  1  0  0  0  0
  4  8  1  0  0  0  0
  4  5  2  0  0  0  0
  5  9  1  0  0  0  0
  6 10  1  0  0  0  0
  6  5  1  0  0  0  0
  7  6  2  0  0  0  0
 11  7  1  0  0  0  0
 12 13  1  0  0  0  0
 12 11  1  0  0  0  0
 14 12  2  0  0  0  0
 15 14  1  0  0  0  0
 16 14  1  0  0  0  0
 16 17  2  0  0  0  0
 17 18  1  0  0  0  0
 18 11  2  0  0  0  0
 19 23  2  0  0  0  0
 20 19  1  0  0  0  0
 20 21  2  0  0  0  0
 21 25  1  0  0  0  0
 21 22  1  0  0  0  0
 22  3  1  0  0  0  0
 23 22  1  0  0  0  0
 24 20  1  0  0  0  0
 26 32  1  0  0  0  0
 26 31  1  0  0  0  0
 27 26  2  0  0  0  0
 28 29  2  0  0  0  0
 28 27  1  0  0  0  0
 29 30  1  0  0  0  0
 30 19  1  0  0  0  0
 30 31  2  0  0  0  0
 33 27  1  0  0  0  0
 34 28  1  0  0  0  0
M  END
>  <minimizedAffinity>
-6.03863001

$$$$

 OpenBabel03252501263D

 34 37  0  0  0  0  0  0  0  0999 V2000
   37.7870   26.5440   40.0610 F   0  0  0  0  0  0  0  0  0  0  0  0
   38.4050   26.4220   41.2570 C   0  0  0  0  0  0  0  0  0  0  0  0
   38.5380   27.5220   42.0550 C   0  0  0  0  0  0  0  0  0  0  0  0
   39.1720   27.3990   43.2840 C   0  0  0  0  0  0  0  0  0  0  0  0
   39.6760   26.2090   43.7370 C   0  0  0  0  0  0  0  0  0  0  0  0
   39.5260   25.1260   42.9150 C   0  0  0  0  0  0  0  0  0  0  0  0
   38.9060   25.1950   41.6870 C   0  0  0  0  0  0  0  0  0  0  0  0
   39.2940   28.2600   43.9450 H   0  0  0  0  0  0  0  0  0  0  0  0
   40.1760   26.0940   44.6980 H   0  0  0  0  0  0  0  0  0  0  0  0
   39.9130   24.1740   43.2450 H   0  0  0  0  0  0  0  0  0  0  0  0
   38.7250   24.0670   40.7800 C   0  0  0  0  0  0  0  0  0  0  0  0
   39.5020   23.8750   39.6570 C   0  0  0  0  0  0  0  0  0  0  0  0
   40.2890   24.5720   39.4100 H   0  0  0  0  0  0  0  0  0  0  0  0
   39.3780   22.8300   38.7670 C   0  0  0  0  0  0  0  0  0  0  0  0
   40.0120   22.7240   37.9000 H   0  0  0  0  0  0  0  0  0  0  0  0
   38.3990   21.8890   39.0030 C   0  0  0  0  0  3  0  0  0  0  0  0
   37.6280   22.0840   40.1210 C   0  0  0  0  0  3  0  0  0  0  0  0
   37.7860   23.1210   40.9630 N   0  0  0  0  0  0  0  0  0  0  0  0
   38.2490   30.9050   41.1500 C   0  0  0  0  0  0  0  0  0  0  0  0
   36.9100   30.5580   41.3000 C   0  0  0  0  0  0  0  0  0  0  0  0
   36.8170   29.2520   41.6580 C   0  0  0  0  0  0  0  0  0  0  0  0
   38.0750   28.8000   41.7280 N   0  0  0  0  0  0  0  0  0  0  0  0
   38.9210   29.7970   41.4230 N   0  0  0  0  0  0  0  0  0  0  0  0
   36.0780   31.2210   41.1540 H   0  0  0  0  0  0  0  0  0  0  0  0
   35.9260   28.6420   41.8600 H   0  0  0  0  0  0  0  0  0  0  0  0
   38.3150   34.3890   40.0410 C   0  0  0  0  0  0  0  0  0  0  0  0
   39.6910   34.6980   40.0720 C   0  0  0  0  0  0  0  0  0  0  0  0
   40.5850   33.6880   40.4800 C   0  0  0  0  0  0  0  0  0  0  0  0
   40.0320   32.4980   40.8090 N   0  0  0  0  0  0  0  0  0  0  0  0
   38.7270   32.2190   40.7750 C   0  0  0  0  0  0  0  0  0  0  0  0
   37.8500   33.1650   40.3900 N   0  0  0  0  0  0  0  0  0  0  0  0
   37.6790   35.2030   39.7200 H   0  0  0  0  0  0  0  0  0  0  0  0
   40.0450   35.6830   39.7900 H   0  0  0  0  0  0  0  0  0  0  0  0
   41.6350   33.8820   40.5180 H   0  0  0  0  0  0  0  0  0  0  0  0
  1  2  1  0  0  0  0
  2  7  2  0  0  0  0
  2  3  1  0  0  0  0
  3  4  2  0  0  0  0
  4  5  1  0  0  0  0
  4  8  1  0  0  0  0
  5  9  1  0  0  0  0
  6 10  1  0  0  0  0
  6  5  2  0  0  0  0
  7  6  1  0  0  0  0
 11 18  1  0  0  0  0
 11  7  1  0  0  0  0
 12 11  2  0  0  0  0
 13 12  1  0  0  0  0
 14 16  2  0  0  0  0
 14 12  1  0  0  0  0
 15 14  1  0  0  0  0
 16 17  1  0  0  0  0
 17 18  2  0  0  0  0
 19 20  1  0  0  0  0
 19 23  2  0  0  0  0
 20 21  2  0  0  0  0
 21 22  1  0  0  0  0
 21 25  1  0  0  0  0
 22  3  1  0  0  0  0
 23 22  1  0  0  0  0
 24 20  1  0  0  0  0
 26 27  2  0  0  0  0
 26 31  1  0  0  0  0
 27 28  1  0  0  0  0
 28 34  1  0  0  0  0
 28 29  2  0  0  0  0
 30 29  1  0  0  0  0
 30 19  1  0  0  0  0
 31 30  2  0  0  0  0
 32 26  1  0  0  0  0
 33 27  1  0  0  0  0
M  END
>  <minimizedAffinity>
-5.78480101

$$$$

 OpenBabel03252501263D

 34 37  0  0  0  0  0  0  0  0999 V2000
   39.3650   26.9740   40.7540 F   0  0  0  0  0  0  0  0  0  0  0  0
   38.5240   27.2330   41.7790 C   0  0  0  0  0  0  0  0  0  0  0  0
   38.6860   28.3800   42.5030 C   0  0  0  0  0  0  0  0  0  0  0  0
   37.8230   28.6480   43.5560 C   0  0  0  0  0  0  0  0  0  0  0  0
   36.8030   27.8030   43.9070 C   0  0  0  0  0  0  0  0  0  0  0  0
   36.6670   26.6640   43.1620 C   0  0  0  0  0  0  0  0  0  0  0  0
   37.4960   26.3510   42.1080 C   0  0  0  0  0  0  0  0  0  0  0  0
   37.9260   29.5550   44.1540 H   0  0  0  0  0  0  0  0  0  0  0  0
   36.1160   27.9970   44.7300 H   0  0  0  0  0  0  0  0  0  0  0  0
   35.8720   25.9780   43.4140 H   0  0  0  0  0  0  0  0  0  0  0  0
   37.3870   25.1480   41.2890 C   0  0  0  0  0  0  0  0  0  0  0  0
   36.5380   25.0520   40.2070 C   0  0  0  0  0  0  0  0  0  0  0  0
   35.9120   25.8860   39.9260 H   0  0  0  0  0  0  0  0  0  0  0  0
   36.3940   23.9440   39.3990 C   0  0  0  0  0  0  0  0  0  0  0  0
   35.7140   23.9180   38.5610 H   0  0  0  0  0  0  0  0  0  0  0  0
   37.1560   22.8320   39.6810 C   0  0  0  0  0  3  0  0  0  0  0  0
   38.0000   22.9320   40.7590 C   0  0  0  0  0  3  0  0  0  0  0  0
   38.1060   24.0360   41.5210 N   0  0  0  0  0  0  0  0  0  0  0  0
   40.5390   31.1580   41.4100 C   0  0  0  0  0  0  0  0  0  0  0  0
   41.4820   30.5080   42.1990 C   0  0  0  0  0  0  0  0  0  0  0  0
   40.9360   29.3800   42.7230 C   0  0  0  0  0  0  0  0  0  0  0  0
   39.6780   29.3350   42.2640 N   0  0  0  0  0  0  0  0  0  0  0  0
   39.4540   30.4020   41.4820 N   0  0  0  0  0  0  0  0  0  0  0  0
   42.4860   30.8450   42.3690 H   0  0  0  0  0  0  0  0  0  0  0  0
   41.3820   28.6280   43.3860 H   0  0  0  0  0  0  0  0  0  0  0  0
   40.0360   34.4780   39.9640 C   0  0  0  0  0  0  0  0  0  0  0  0
   41.2640   34.7230   39.3150 C   0  0  0  0  0  0  0  0  0  0  0  0
   42.2590   33.7280   39.3880 C   0  0  0  0  0  0  0  0  0  0  0  0
   41.9380   32.6120   40.0830 N   0  0  0  0  0  0  0  0  0  0  0  0
   40.7700   32.3940   40.6920 C   0  0  0  0  0  0  0  0  0  0  0  0
   39.8030   33.3280   40.6400 N   0  0  0  0  0  0  0  0  0  0  0  0
   39.3140   35.2780   39.8730 H   0  0  0  0  0  0  0  0  0  0  0  0
   41.4340   35.6500   38.7790 H   0  0  0  0  0  0  0  0  0  0  0  0
   43.2030   33.8740   38.9100 H   0  0  0  0  0  0  0  0  0  0  0  0
  1  2  1  0  0  0  0
  2  7  2  0  0  0  0
  2  3  1  0  0  0  0
  3  4  2  0  0  0  0
  4  5  1  0  0  0  0
  4  8  1  0  0  0  0
  5  9  1  0  0  0  0
  6 10  1  0  0  0  0
  6  5  2  0  0  0  0
  7  6  1  0  0  0  0
 11 18  1  0  0  0  0
 11  7  1  0  0  0  0
 12 11  2  0  0  0  0
 13 12  1  0  0  0  0
 14 16  2  0  0  0  0
 14 12  1  0  0  0  0
 15 14  1  0  0  0  0
 16 17  1  0  0  0  0
 17 18  2  0  0  0  0
 19 23  2  0  0  0  0
 19 20  1  0  0  0  0
 20 24  1  0  0  0  0
 20 21  2  0  0  0  0
 21 25  1  0  0  0  0
 22  3  1  0  0  0  0
 22 21  1  0  0  0  0
 23 22  1  0  0  0  0
 26 31  1  0  0  0  0
 27 28  1  0  0  0  0
 27 26  2  0  0  0  0
 28 29  2  0  0  0  0
 29 30  1  0  0  0  0
 30 19  1  0  0  0  0
 31 30  2  0  0  0  0
 32 26  1  0  0  0  0
 33 27  1  0  0  0  0
 34 28  1  0  0  0  0
M  END
>  <minimizedAffinity>
-5.76430035

$$$$

 OpenBabel03252501263D

 34 37  0  0  0  0  0  0  0  0999 V2000
   40.5340   30.6900   40.4750 F   0  0  0  0  0  0  0  0  0  0  0  0
   39.3720   31.3550   40.2910 C   0  0  0  0  0  0  0  0  0  0  0  0
   38.2140   30.8250   40.7830 C   0  0  0  0  0  0  0  0  0  0  0  0
   37.0190   31.5060   40.5950 C   0  0  0  0  0  0  0  0  0  0  0  0
   36.9490   32.7010   39.9300 C   0  0  0  0  0  0  0  0  0  0  0  0
   38.1260   33.2060   39.4500 C   0  0  0  0  0  0  0  0  0  0  0  0
   39.3370   32.5700   39.6090 C   0  0  0  0  0  0  0  0  0  0  0  0
   36.0770   31.1080   40.9770 H   0  0  0  0  0  0  0  0  0  0  0  0
   36.0210   33.2500   39.7740 H   0  0  0  0  0  0  0  0  0  0  0  0
   38.1030   34.1470   38.9210 H   0  0  0  0  0  0  0  0  0  0  0  0
   40.6150   33.0720   39.1130 C   0  0  0  0  0  0  0  0  0  0  0  0
   41.0580   32.8530   37.8270 C   0  0  0  0  0  0  0  0  0  0  0  0
   40.4580   32.2890   37.1290 H   0  0  0  0  0  0  0  0  0  0  0  0
   42.2530   33.3020   37.3050 C   0  0  0  0  0  0  0  0  0  0  0  0
   42.5560   33.1040   36.2880 H   0  0  0  0  0  0  0  0  0  0  0  0
   43.0850   34.0330   38.1240 C   0  0  0  0  0  3  0  0  0  0  0  0
   42.6390   34.2480   39.4050 C   0  0  0  0  0  3  0  0  0  0  0  0
   41.4640   33.7890   39.8700 N   0  0  0  0  0  0  0  0  0  0  0  0
   37.9970   27.4430   41.7130 C   0  0  0  0  0  0  0  0  0  0  0  0
   38.0070   28.0580   42.9610 C   0  0  0  0  0  0  0  0  0  0  0  0
   38.0890   29.4050   42.8030 C   0  0  0  0  0  0  0  0  0  0  0  0
   38.1290   29.6170   41.4810 N   0  0  0  0  0  0  0  0  0  0  0  0
   38.0730   28.4380   40.8420 N   0  0  0  0  0  0  0  0  0  0  0  0
   37.9580   27.5480   43.9040 H   0  0  0  0  0  0  0  0  0  0  0  0
   38.1200   30.1990   43.5600 H   0  0  0  0  0  0  0  0  0  0  0  0
   38.8240   23.8820   41.7040 C   0  0  0  0  0  0  0  0  0  0  0  0
   37.7120   23.3070   41.0540 C   0  0  0  0  0  0  0  0  0  0  0  0
   36.6810   24.1660   40.6260 C   0  0  0  0  0  0  0  0  0  0  0  0
   36.8580   25.4840   40.8800 N   0  0  0  0  0  0  0  0  0  0  0  0
   37.9170   26.0140   41.4950 C   0  0  0  0  0  0  0  0  0  0  0  0
   38.9150   25.2160   41.9160 N   0  0  0  0  0  0  0  0  0  0  0  0
   39.5810   23.1720   42.0080 H   0  0  0  0  0  0  0  0  0  0  0  0
   37.6550   22.2360   40.8930 H   0  0  0  0  0  0  0  0  0  0  0  0
   35.8210   23.7710   40.1300 H   0  0  0  0  0  0  0  0  0  0  0  0
  2  1  1  0  0  0  0
  2  3  1  0  0  0  0
  3 22  1  0  0  0  0
  4  3  2  0  0  0  0
  4  8  1  0  0  0  0
  5  4  1  0  0  0  0
  6  7  1  0  0  0  0
  6  5  2  0  0  0  0
  7  2  2  0  0  0  0
  9  5  1  0  0  0  0
 10  6  1  0  0  0  0
 11  7  1  0  0  0  0
 11 18  1  0  0  0  0
 12 11  2  0  0  0  0
 13 12  1  0  0  0  0
 14 12  1  0  0  0  0
 14 16  2  0  0  0  0
 15 14  1  0  0  0  0
 16 17  1  0  0  0  0
 17 18  2  0  0  0  0
 19 20  1  0  0  0  0
 20 24  1  0  0  0  0
 21 20  2  0  0  0  0
 21 25  1  0  0  0  0
 22 21  1  0  0  0  0
 23 22  1  0  0  0  0
 23 19  2  0  0  0  0
 26 31  1  0  0  0  0
 26 32  1  0  0  0  0
 27 26  2  0  0  0  0
 28 29  2  0  0  0  0
 28 27  1  0  0  0  0
 29 30  1  0  0  0  0
 30 19  1  0  0  0  0
 30 31  2  0  0  0  0
 33 27  1  0  0  0  0
 34 28  1  0  0  0  0
M  END
>  <minimizedAffinity>
-5.61232996

$$$$

 OpenBabel03252501263D

 34 37  0  0  0  0  0  0  0  0999 V2000
   39.2250   28.0810   41.0220 F   0  0  0  0  0  0  0  0  0  0  0  0
   38.0950   28.8160   40.9350 C   0  0  0  0  0  0  0  0  0  0  0  0
   38.1850   30.1780   40.9180 C   0  0  0  0  0  0  0  0  0  0  0  0
   37.0240   30.9360   40.8290 C   0  0  0  0  0  0  0  0  0  0  0  0
   35.7790   30.3700   40.7560 C   0  0  0  0  0  0  0  0  0  0  0  0
   35.7240   29.0040   40.7750 C   0  0  0  0  0  0  0  0  0  0  0  0
   36.8440   28.2070   40.8620 C   0  0  0  0  0  0  0  0  0  0  0  0
   37.0620   32.0270   40.8130 H   0  0  0  0  0  0  0  0  0  0  0  0
   34.8580   30.9490   40.6850 H   0  0  0  0  0  0  0  0  0  0  0  0
   34.7560   28.5290   40.7190 H   0  0  0  0  0  0  0  0  0  0  0  0
   36.8300   26.7480   40.8860 C   0  0  0  0  0  0  0  0  0  0  0  0
   37.0210   26.0150   42.0370 C   0  0  0  0  0  0  0  0  0  0  0  0
   37.1900   26.5110   42.9810 H   0  0  0  0  0  0  0  0  0  0  0  0
   37.0180   24.6390   42.1190 C   0  0  0  0  0  0  0  0  0  0  0  0
   37.1720   24.1090   43.0480 H   0  0  0  0  0  0  0  0  0  0  0  0
   36.8080   23.9200   40.9630 C   0  0  0  0  0  3  0  0  0  0  0  0
   36.6190   24.6540   39.8180 C   0  0  0  0  0  3  0  0  0  0  0  0
   36.6300   25.9990   39.7870 N   0  0  0  0  0  0  0  0  0  0  0  0
   41.0590   32.0700   40.2080 C   0  0  0  0  0  0  0  0  0  0  0  0
   41.1980   31.8880   41.5800 C   0  0  0  0  0  0  0  0  0  0  0  0
   40.1520   31.1590   42.0490 C   0  0  0  0  0  0  0  0  0  0  0  0
   39.3820   30.8960   40.9850 N   0  0  0  0  0  0  0  0  0  0  0  0
   39.9350   31.4460   39.8920 N   0  0  0  0  0  0  0  0  0  0  0  0
   42.0050   32.2660   42.1770 H   0  0  0  0  0  0  0  0  0  0  0  0
   39.9320   30.8260   43.0710 H   0  0  0  0  0  0  0  0  0  0  0  0
   42.4550   34.0000   37.4340 C   0  0  0  0  0  0  0  0  0  0  0  0
   43.7990   34.1750   37.8230 C   0  0  0  0  0  0  0  0  0  0  0  0
   44.2080   33.6190   39.0510 C   0  0  0  0  0  0  0  0  0  0  0  0
   43.2580   32.9580   39.7530 N   0  0  0  0  0  0  0  0  0  0  0  0
   41.9890   32.8000   39.3720 C   0  0  0  0  0  0  0  0  0  0  0  0
   41.5710   33.3210   38.2040 N   0  0  0  0  0  0  0  0  0  0  0  0
   42.2010   34.4490   36.4830 H   0  0  0  0  0  0  0  0  0  0  0  0
   44.4920   34.7220   37.1940 H   0  0  0  0  0  0  0  0  0  0  0  0
   45.2180   33.7290   39.3830 H   0  0  0  0  0  0  0  0  0  0  0  0
  2  1  1  0  0  0  0
  3  2  1  0  0  0  0
  3 22  1  0  0  0  0
  4  3  2  0  0  0  0
  5  6  2  0  0  0  0
  5  4  1  0  0  0  0
  6  7  1  0  0  0  0
  7 11  1  0  0  0  0
  7  2  2  0  0  0  0
  8  4  1  0  0  0  0
  9  5  1  0  0  0  0
 10  6  1  0  0  0  0
 11 12  1  0  0  0  0
 12 14  2  0  0  0  0
 12 13  1  0  0  0  0
 14 15  1  0  0  0  0
 16 14  1  0  0  0  0
 17 16  2  0  0  0  0
 18 17  1  0  0  0  0
 18 11  2  0  0  0  0
 19 20  1  0  0  0  0
 20 21  2  0  0  0  0
 20 24  1  0  0  0  0
 21 25  1  0  0  0  0
 22 21  1  0  0  0  0
 23 19  2  0  0  0  0
 23 22  1  0  0  0  0
 26 27  2  0  0  0  0
 26 31  1  0  0  0  0
 27 28  1  0  0  0  0
 28 34  1  0  0  0  0
 28 29  2  0  0  0  0
 30 29  1  0  0  0  0
 30 19  1  0  0  0  0
 31 30  2  0  0  0  0
 32 26  1  0  0  0  0
 33 27  1  0  0  0  0
M  END
>  <minimizedAffinity>
-5.60726643

$$$$

 OpenBabel03252501263D

 34 37  0  0  0  0  0  0  0  0999 V2000
   36.1720   26.6120   40.0460 F   0  0  0  0  0  0  0  0  0  0  0  0
   37.0440   25.7700   40.6430 C   0  0  0  0  0  0  0  0  0  0  0  0
   37.9270   26.2630   41.5600 C   0  0  0  0  0  0  0  0  0  0  0  0
   38.8240   25.3990   42.1740 C   0  0  0  0  0  0  0  0  0  0  0  0
   38.8630   24.0580   41.8970 C   0  0  0  0  0  0  0  0  0  0  0  0
   37.9650   23.5960   40.9750 C   0  0  0  0  0  0  0  0  0  0  0  0
   37.0560   24.4100   40.3370 C   0  0  0  0  0  0  0  0  0  0  0  0
   39.5430   25.7620   42.9120 H   0  0  0  0  0  0  0  0  0  0  0  0
   39.5590   23.3660   42.3690 H   0  0  0  0  0  0  0  0  0  0  0  0
   37.9720   22.5430   40.7350 H   0  0  0  0  0  0  0  0  0  0  0  0
   36.0820   23.9600   39.3480 C   0  0  0  0  0  0  0  0  0  0  0  0
   34.9440   23.2580   39.6810 C   0  0  0  0  0  0  0  0  0  0  0  0
   34.7330   23.0150   40.7120 H   0  0  0  0  0  0  0  0  0  0  0  0
   33.9910   22.8090   38.7910 C   0  0  0  0  0  0  0  0  0  0  0  0
   33.1140   22.2620   39.1030 H   0  0  0  0  0  0  0  0  0  0  0  0
   34.1770   23.0760   37.4530 C   0  0  0  0  0  3  0  0  0  0  0  0
   35.3120   23.7750   37.1250 C   0  0  0  0  0  3  0  0  0  0  0  0
   36.2150   24.1930   38.0300 N   0  0  0  0  0  0  0  0  0  0  0  0
   38.1480   29.7680   41.6430 C   0  0  0  0  0  0  0  0  0  0  0  0
   38.1090   29.4760   43.0030 C   0  0  0  0  0  0  0  0  0  0  0  0
   38.0210   28.1320   43.1750 C   0  0  0  0  0  0  0  0  0  0  0  0
   38.0070   27.6040   41.9450 N   0  0  0  0  0  0  0  0  0  0  0  0
   38.0830   28.5920   41.0390 N   0  0  0  0  0  0  0  0  0  0  0  0
   38.1430   30.2010   43.7930 H   0  0  0  0  0  0  0  0  0  0  0  0
   37.9710   27.5460   44.1020 H   0  0  0  0  0  0  0  0  0  0  0  0
   39.4100   33.0890   40.7790 C   0  0  0  0  0  0  0  0  0  0  0  0
   38.3640   33.6260   40.0010 C   0  0  0  0  0  0  0  0  0  0  0  0
   37.2260   32.8250   39.7830 C   0  0  0  0  0  0  0  0  0  0  0  0
   37.2430   31.5960   40.3500 N   0  0  0  0  0  0  0  0  0  0  0  0
   38.2410   31.1010   41.0850 C   0  0  0  0  0  0  0  0  0  0  0  0
   39.3400   31.8440   41.3090 N   0  0  0  0  0  0  0  0  0  0  0  0
   40.2560   33.7510   40.9120 H   0  0  0  0  0  0  0  0  0  0  0  0
   38.4380   34.6240   39.5850 H   0  0  0  0  0  0  0  0  0  0  0  0
   36.4110   33.1940   39.1990 H   0  0  0  0  0  0  0  0  0  0  0  0
  1  2  1  0  0  0  0
  2  3  1  0  0  0  0
  3 22  1  0  0  0  0
  3  4  2  0  0  0  0
  4  8  1  0  0  0  0
  5  4  1  0  0  0  0
  5  9  1  0  0  0  0
  6  5  2  0  0  0  0
  7  2  2  0  0  0  0
  7  6  1  0  0  0  0
 10  6  1  0  0  0  0
 11 12  1  0  0  0  0
 11  7  1  0  0  0  0
 12 13  1  0  0  0  0
 14 15  1  0  0  0  0
 14 12  2  0  0  0  0
 16 14  1  0  0  0  0
 17 16  2  0  0  0  0
 17 18  1  0  0  0  0
 18 11  2  0  0  0  0
 19 20  1  0  0  0  0
 20 21  2  0  0  0  0
 20 24  1  0  0  0  0
 21 25  1  0  0  0  0
 22 21  1  0  0  0  0
 23 19  2  0  0  0  0
 23 22  1  0  0  0  0
 26 32  1  0  0  0  0
 26 31  1  0  0  0  0
 27 26  2  0  0  0  0
 28 27  1  0  0  0  0
 28 29  2  0  0  0  0
 29 30  1  0  0  0  0
 30 31  2  0  0  0  0
 30 19  1  0  0  0  0
 33 27  1  0  0  0  0
 34 28  1  0  0  0  0
M  END
>  <minimizedAffinity>
-5.52771997

$$$$

 OpenBabel03252501263D

 34 37  0  0  0  0  0  0  0  0999 V2000
   39.2070   28.6170   39.9790 F   0  0  0  0  0  0  0  0  0  0  0  0
   38.0990   28.9540   39.2840 C   0  0  0  0  0  0  0  0  0  0  0  0
   38.1470   30.0120   38.4220 C   0  0  0  0  0  0  0  0  0  0  0  0
   37.0090   30.3600   37.7060 C   0  0  0  0  0  0  0  0  0  0  0  0
   35.8260   29.6810   37.8280 C   0  0  0  0  0  0  0  0  0  0  0  0
   35.8110   28.6260   38.6990 C   0  0  0  0  0  0  0  0  0  0  0  0
   36.9110   28.2410   39.4320 C   0  0  0  0  0  0  0  0  0  0  0  0
   37.0160   31.2010   37.0100 H   0  0  0  0  0  0  0  0  0  0  0  0
   34.9240   29.9390   37.2740 H   0  0  0  0  0  0  0  0  0  0  0  0
   34.8920   28.0710   38.8160 H   0  0  0  0  0  0  0  0  0  0  0  0
   36.9390   27.1240   40.3710 C   0  0  0  0  0  0  0  0  0  0  0  0
   36.9150   27.2940   41.7390 C   0  0  0  0  0  0  0  0  0  0  0  0
   36.8740   28.2840   42.1670 H   0  0  0  0  0  0  0  0  0  0  0  0
   36.9380   26.2780   42.6710 C   0  0  0  0  0  0  0  0  0  0  0  0
   36.9180   26.4630   43.7350 H   0  0  0  0  0  0  0  0  0  0  0  0
   36.9890   24.9800   42.2150 C   0  0  0  0  0  3  0  0  0  0  0  0
   37.0130   24.8150   40.8530 C   0  0  0  0  0  3  0  0  0  0  0  0
   36.9880   25.8380   39.9800 N   0  0  0  0  0  0  0  0  0  0  0  0
   41.3070   31.2310   37.4880 C   0  0  0  0  0  0  0  0  0  0  0  0
   40.7480   32.3680   38.0630 C   0  0  0  0  0  0  0  0  0  0  0  0
   39.4910   32.0860   38.4950 C   0  0  0  0  0  0  0  0  0  0  0  0
   39.2800   30.7980   38.1930 N   0  0  0  0  0  0  0  0  0  0  0  0
   40.3720   30.3000   37.5920 N   0  0  0  0  0  0  0  0  0  0  0  0
   41.2320   33.3210   38.1510 H   0  0  0  0  0  0  0  0  0  0  0  0
   38.7590   32.7340   38.9930 H   0  0  0  0  0  0  0  0  0  0  0  0
   44.8450   31.8890   36.8400 C   0  0  0  0  0  0  0  0  0  0  0  0
   45.1440   30.9840   35.8010 C   0  0  0  0  0  0  0  0  0  0  0  0
   44.1090   30.1500   35.3350 C   0  0  0  0  0  0  0  0  0  0  0  0
   42.9060   30.2990   35.9360 N   0  0  0  0  0  0  0  0  0  0  0  0
   42.6370   31.1610   36.9190 C   0  0  0  0  0  0  0  0  0  0  0  0
   43.6070   31.9690   37.3840 N   0  0  0  0  0  0  0  0  0  0  0  0
   45.6790   32.5020   37.1550 H   0  0  0  0  0  0  0  0  0  0  0  0
   46.1410   30.9340   35.3780 H   0  0  0  0  0  0  0  0  0  0  0  0
   44.2940   29.4500   34.5490 H   0  0  0  0  0  0  0  0  0  0  0  0
  2  7  1  0  0  0  0
  2  1  1  0  0  0  0
  3  2  2  0  0  0  0
  4  5  2  0  0  0  0
  4  3  1  0  0  0  0
  5  6  1  0  0  0  0
  6 10  1  0  0  0  0
  6  7  2  0  0  0  0
  7 11  1  0  0  0  0
  8  4  1  0  0  0  0
  9  5  1  0  0  0  0
 11 12  1  0  0  0  0
 12 13  1  0  0  0  0
 12 14  2  0  0  0  0
 14 15  1  0  0  0  0
 16 14  1  0  0  0  0
 17 16  2  0  0  0  0
 18 11  2  0  0  0  0
 18 17  1  0  0  0  0
 19 23  2  0  0  0  0
 19 20  1  0  0  0  0
 20 24  1  0  0  0  0
 20 21  2  0  0  0  0
 21 25  1  0  0  0  0
 22  3  1  0  0  0  0
 22 21  1  0  0  0  0
 23 22  1  0  0  0  0
 26 32  1  0  0  0  0
 26 31  1  0  0  0  0
 27 26  2  0  0  0  0
 28 27  1  0  0  0  0
 28 29  2  0  0  0  0
 29 30  1  0  0  0  0
 30 31  2  0  0  0  0
 30 19  1  0  0  0  0
 33 27  1  0  0  0  0
 34 28  1  0  0  0  0
M  END
>  <minimizedAffinity>
-5.50348473

$$$$

 OpenBabel03252501263D

 34 37  0  0  0  0  0  0  0  0999 V2000
   39.0320   27.4740   40.6330 F   0  0  0  0  0  0  0  0  0  0  0  0
   38.2820   27.6300   41.7460 C   0  0  0  0  0  0  0  0  0  0  0  0
   38.4090   28.7720   42.4830 C   0  0  0  0  0  0  0  0  0  0  0  0
   37.6390   28.9340   43.6270 C   0  0  0  0  0  0  0  0  0  0  0  0
   36.7480   27.9860   44.0550 C   0  0  0  0  0  0  0  0  0  0  0  0
   36.6430   26.8540   43.2940 C   0  0  0  0  0  0  0  0  0  0  0  0
   37.3830   26.6450   42.1520 C   0  0  0  0  0  0  0  0  0  0  0  0
   37.7180   29.8350   44.2380 H   0  0  0  0  0  0  0  0  0  0  0  0
   36.1350   28.0960   44.9490 H   0  0  0  0  0  0  0  0  0  0  0  0
   35.9480   26.0890   43.6060 H   0  0  0  0  0  0  0  0  0  0  0  0
   37.3040   25.4540   41.3130 C   0  0  0  0  0  0  0  0  0  0  0  0
   37.9860   24.2900   41.5970 C   0  0  0  0  0  0  0  0  0  0  0  0
   38.6160   24.2230   42.4720 H   0  0  0  0  0  0  0  0  0  0  0  0
   37.9490   23.1360   40.8430 C   0  0  0  0  0  0  0  0  0  0  0  0
   38.5030   22.2480   41.1080 H   0  0  0  0  0  0  0  0  0  0  0  0
   37.1700   23.1290   39.7070 C   0  0  0  0  0  3  0  0  0  0  0  0
   36.4920   24.2900   39.4280 C   0  0  0  0  0  3  0  0  0  0  0  0
   36.5600   25.3930   40.1950 N   0  0  0  0  0  0  0  0  0  0  0  0
   41.0850   31.0450   42.3450 C   0  0  0  0  0  0  0  0  0  0  0  0
   40.2510   31.5620   41.3580 C   0  0  0  0  0  0  0  0  0  0  0  0
   39.1340   30.7960   41.2610 C   0  0  0  0  0  0  0  0  0  0  0  0
   39.2750   29.8240   42.1730 N   0  0  0  0  0  0  0  0  0  0  0  0
   40.4440   29.9850   42.8120 N   0  0  0  0  0  0  0  0  0  0  0  0
   40.4590   32.4310   40.7640 H   0  0  0  0  0  0  0  0  0  0  0  0
   38.2660   30.9020   40.5970 H   0  0  0  0  0  0  0  0  0  0  0  0
   43.9870   33.2620   42.5250 C   0  0  0  0  0  0  0  0  0  0  0  0
   44.8060   32.6240   43.4800 C   0  0  0  0  0  0  0  0  0  0  0  0
   44.3380   31.4260   44.0540 C   0  0  0  0  0  0  0  0  0  0  0  0
   43.1290   30.9910   43.6290 N   0  0  0  0  0  0  0  0  0  0  0  0
   42.3650   31.6050   42.7230 C   0  0  0  0  0  0  0  0  0  0  0  0
   42.7860   32.7520   42.1590 N   0  0  0  0  0  0  0  0  0  0  0  0
   44.3990   34.1760   42.1200 H   0  0  0  0  0  0  0  0  0  0  0  0
   45.7640   33.0470   43.7600 H   0  0  0  0  0  0  0  0  0  0  0  0
   44.9280   30.9110   44.7810 H   0  0  0  0  0  0  0  0  0  0  0  0
  1  2  1  0  0  0  0
  2  7  2  0  0  0  0
  2  3  1  0  0  0  0
  3  4  2  0  0  0  0
  4  5  1  0  0  0  0
  4  8  1  0  0  0  0
  5  9  1  0  0  0  0
  6 10  1  0  0  0  0
  6  5  2  0  0  0  0
  7  6  1  0  0  0  0
 11 12  1  0  0  0  0
 11  7  1  0  0  0  0
 12 13  1  0  0  0  0
 14 15  1  0  0  0  0
 14 12  2  0  0  0  0
 16 14  1  0  0  0  0
 17 16  2  0  0  0  0
 17 18  1  0  0  0  0
 18 11  2  0  0  0  0
 19 30  1  0  0  0  0
 19 23  2  0  0  0  0
 20 19  1  0  0  0  0
 21 20  2  0  0  0  0
 21 22  1  0  0  0  0
 22  3  1  0  0  0  0
 22 23  1  0  0  0  0
 24 20  1  0  0  0  0
 25 21  1  0  0  0  0
 26 27  1  0  0  0  0
 27 33  1  0  0  0  0
 27 28  2  0  0  0  0
 28 34  1  0  0  0  0
 29 28  1  0  0  0  0
 30 29  2  0  0  0  0
 31 26  2  0  0  0  0
 31 30  1  0  0  0  0
 32 26  1  0  0  0  0
M  END
>  <minimizedAffinity>
-5.46906281

$$$$

 OpenBabel03252501263D

 34 37  0  0  0  0  0  0  0  0999 V2000
   35.5940   29.2190   39.4130 F   0  0  0  0  0  0  0  0  0  0  0  0
   35.7440   27.9120   39.1030 C   0  0  0  0  0  0  0  0  0  0  0  0
   35.1140   27.4110   38.0010 C   0  0  0  0  0  0  0  0  0  0  0  0
   35.2670   26.0690   37.6800 C   0  0  0  0  0  0  0  0  0  0  0  0
   36.0320   25.2150   38.4300 C   0  0  0  0  0  0  0  0  0  0  0  0
   36.6510   25.7490   39.5260 C   0  0  0  0  0  0  0  0  0  0  0  0
   36.5320   27.0720   39.8880 C   0  0  0  0  0  0  0  0  0  0  0  0
   34.7760   25.6370   36.8060 H   0  0  0  0  0  0  0  0  0  0  0  0
   36.1640   24.1600   38.1930 H   0  0  0  0  0  0  0  0  0  0  0  0
   37.2620   25.1000   40.1370 H   0  0  0  0  0  0  0  0  0  0  0  0
   37.1730   27.6810   41.0480 C   0  0  0  0  0  0  0  0  0  0  0  0
   36.6460   27.6110   42.3200 C   0  0  0  0  0  0  0  0  0  0  0  0
   35.7180   27.0890   42.5000 H   0  0  0  0  0  0  0  0  0  0  0  0
   37.2070   28.1660   43.4500 C   0  0  0  0  0  0  0  0  0  0  0  0
   36.7540   28.0830   44.4270 H   0  0  0  0  0  0  0  0  0  0  0  0
   38.3940   28.8510   43.3160 C   0  0  0  0  0  3  0  0  0  0  0  0
   38.9160   28.9190   42.0480 C   0  0  0  0  0  3  0  0  0  0  0  0
   38.3310   28.3610   40.9730 N   0  0  0  0  0  0  0  0  0  0  0  0
   32.6180   29.4460   36.5960 C   0  0  0  0  0  0  0  0  0  0  0  0
   33.3810   29.1530   35.4700 C   0  0  0  0  0  0  0  0  0  0  0  0
   34.4210   28.3540   35.8230 C   0  0  0  0  0  0  0  0  0  0  0  0
   34.3020   28.1580   37.1420 N   0  0  0  0  0  0  0  0  0  0  0  0
   33.2210   28.8150   37.5910 N   0  0  0  0  0  0  0  0  0  0  0  0
   33.1800   29.5040   34.4770 H   0  0  0  0  0  0  0  0  0  0  0  0
   35.2210   27.9290   35.2020 H   0  0  0  0  0  0  0  0  0  0  0  0
   29.9870   31.7450   35.5180 C   0  0  0  0  0  0  0  0  0  0  0  0
   29.1600   31.8260   36.6570 C   0  0  0  0  0  0  0  0  0  0  0  0
   29.5260   31.0780   37.7930 C   0  0  0  0  0  0  0  0  0  0  0  0
   30.6550   30.3400   37.6830 N   0  0  0  0  0  0  0  0  0  0  0  0
   31.4290   30.2730   36.5980 C   0  0  0  0  0  0  0  0  0  0  0  0
   31.1030   30.9770   35.4980 N   0  0  0  0  0  0  0  0  0  0  0  0
   29.6550   32.3420   34.6790 H   0  0  0  0  0  0  0  0  0  0  0  0
   28.2710   32.4470   36.6540 H   0  0  0  0  0  0  0  0  0  0  0  0
   28.9270   31.1120   38.6770 H   0  0  0  0  0  0  0  0  0  0  0  0
  2  1  1  0  0  0  0
  2  7  1  0  0  0  0
  3  2  2  0  0  0  0
  4  3  1  0  0  0  0
  4  5  2  0  0  0  0
  5  6  1  0  0  0  0
  6  7  2  0  0  0  0
  6 10  1  0  0  0  0
  7 11  1  0  0  0  0
  8  4  1  0  0  0  0
  9  5  1  0  0  0  0
 11 12  1  0  0  0  0
 12 13  1  0  0  0  0
 12 14  2  0  0  0  0
 14 15  1  0  0  0  0
 16 14  1  0  0  0  0
 17 16  2  0  0  0  0
 18 11  2  0  0  0  0
 18 17  1  0  0  0  0
 19 30  1  0  0  0  0
 19 23  2  0  0  0  0
 20 21  2  0  0  0  0
 20 19  1  0  0  0  0
 21 22  1  0  0  0  0
 22 23  1  0  0  0  0
 22  3  1  0  0  0  0
 24 20  1  0  0  0  0
 25 21  1  0  0  0  0
 26 27  1  0  0  0  0
 27 28  2  0  0  0  0
 28 34  1  0  0  0  0
 29 28  1  0  0  0  0
 30 29  2  0  0  0  0
 31 26  2  0  0  0  0
 31 30  1  0  0  0  0
 32 26  1  0  0  0  0
 33 27  1  0  0  0  0
M  END
>  <minimizedAffinity>
-5.42169333

$$$$
