
 OpenBabel03252501523D

 44 47  0  0  1  0  0  0  0  0999 V2000
   35.9970   27.8340   38.7180 C   0  0  0  0  0  0  0  0  0  0  0  0
   36.7190   27.1620   38.1770 H   0  0  0  0  0  0  0  0  0  0  0  0
   35.3750   27.1860   39.3820 H   0  0  0  0  0  0  0  0  0  0  0  0
   36.7580   28.8000   39.4340 N   0  0  0  0  0  0  0  0  0  0  0  0
   36.8670   30.0340   38.7340 C   0  0  0  0  0  0  0  0  0  0  0  0
   36.8480   31.1570   39.7480 C   0  0  0  0  0  0  0  0  0  0  0  0
   36.1560   30.5420   40.9180 C   0  0  0  0  0  0  0  0  0  0  0  0
   36.2550   29.0350   40.7520 C   0  0  2  0  0  0  0  0  0  0  0  0
   36.0950   30.2160   37.9590 H   0  0  0  0  0  0  0  0  0  0  0  0
   37.8710   30.0220   38.2170 H   0  0  0  0  0  0  0  0  0  0  0  0
   37.8670   31.5080   39.9150 H   0  0  0  0  0  0  0  0  0  0  0  0
   36.2740   32.0150   39.3130 H   0  0  0  0  0  0  0  0  0  0  0  0
   35.0990   30.8820   40.9070 H   0  0  0  0  0  0  0  0  0  0  0  0
   36.6200   30.8960   41.8620 H   0  0  0  0  0  0  0  0  0  0  0  0
   35.2480   28.6210   40.9300 H   0  0  0  0  0  0  0  0  0  0  0  0
   37.2020   28.5480   41.8120 C   0  0  0  0  0  0  0  0  0  0  0  0
   36.6460   27.8440   42.8680 C   0  0  0  0  0  0  0  0  0  0  0  0
   35.5890   27.6450   42.9440 H   0  0  0  0  0  0  0  0  0  0  0  0
   37.4620   27.3550   43.8960 C   0  0  0  0  0  0  0  0  0  0  0  0
   37.0750   26.7920   44.7550 H   0  0  0  0  0  0  0  0  0  0  0  0
   38.8340   27.6080   43.8050 C   0  0  0  0  0  3  0  0  0  0  0  0
   39.3600   28.3170   42.7310 C   0  0  0  0  0  3  0  0  0  0  0  0
   38.5330   28.7660   41.7680 N   0  0  0  0  0  0  0  0  0  0  0  0
   33.8360   28.5160   37.7530 C   0  0  0  0  0  3  0  0  0  0  0  0
   35.1710   28.4510   37.6160 C   0  0  0  0  0  3  0  0  0  0  0  0
   31.6490   29.5340   36.9500 C   0  0  0  0  0  0  0  0  0  0  0  0
   32.9780   29.1080   36.7100 C   0  0  0  0  0  0  0  0  0  0  0  0
   33.5280   29.2500   35.4200 C   0  0  0  0  0  0  0  0  0  0  0  0
   32.7380   29.7990   34.4490 N   0  0  0  0  0  0  0  0  0  0  0  0
   31.4960   30.1870   34.7090 C   0  0  0  0  0  0  0  0  0  0  0  0
   30.9720   30.0490   35.9490 N   0  0  0  0  0  0  0  0  0  0  0  0
   31.2900   29.3950   37.9680 H   0  0  0  0  0  0  0  0  0  0  0  0
   34.5250   28.9440   35.1950 H   0  0  0  0  0  0  0  0  0  0  0  0
   30.9720   32.8980   34.6000 F   0  0  0  0  0  0  0  0  0  0  0  0
   30.4390   32.1330   33.6240 C   0  0  0  0  0  0  0  0  0  0  0  0
   30.6830   30.7670   33.6530 C   0  0  0  0  0  0  0  0  0  0  0  0
   30.1710   29.9130   32.6860 C   0  0  0  0  0  0  0  0  0  0  0  0
   29.3910   30.4710   31.6730 C   0  0  0  0  0  0  0  0  0  0  0  0
   29.1330   31.8440   31.6280 C   0  0  0  0  0  0  0  0  0  0  0  0
   29.6610   32.6790   32.6120 C   0  0  0  0  0  0  0  0  0  0  0  0
   30.3790   28.8470   32.7340 H   0  0  0  0  0  0  0  0  0  0  0  0
   28.9970   29.7970   30.9260 H   0  0  0  0  0  0  0  0  0  0  0  0
   28.5270   32.2310   30.8270 H   0  0  0  0  0  0  0  0  0  0  0  0
   29.4590   33.7320   32.5700 H   0  0  0  0  0  0  0  0  0  0  0  0
  1  3  1  0  0  0  0
  1  4  1  0  0  0  0
  2  1  1  0  0  0  0
  4  8  1  0  0  0  0
  5  4  1  0  0  0  0
  5  6  1  0  0  0  0
  6 11  1  0  0  0  0
  6  7  1  0  0  0  0
  7 14  1  0  0  0  0
  8  7  1  0  0  0  0
  8 15  1  1  0  0  0
  8 16  1  0  0  0  0
  9  5  1  0  0  0  0
 10  5  1  0  0  0  0
 12  6  1  0  0  0  0
 13  7  1  0  0  0  0
 16 17  1  0  0  0  0
 17 18  1  0  0  0  0
 17 19  2  0  0  0  0
 19 20  1  0  0  0  0
 21 19  1  0  0  0  0
 22 21  2  0  0  0  0
 23 16  2  0  0  0  0
 23 22  1  0  0  0  0
 25 24  2  0  0  0  0
 25  1  1  0  0  0  0
 26 32  1  0  0  0  0
 27 26  1  0  0  0  0
 27 24  1  0  0  0  0
 28 27  2  0  0  0  0
 29 30  2  0  0  0  0
 29 28  1  0  0  0  0
 30 31  1  0  0  0  0
 31 26  2  0  0  0  0
 33 28  1  0  0  0  0
 35 36  1  0  0  0  0
 35 34  1  0  0  0  0
 36 30  1  0  0  0  0
 37 41  1  0  0  0  0
 37 36  2  0  0  0  0
 38 37  1  0  0  0  0
 39 38  2  0  0  0  0
 39 40  1  0  0  0  0
 40 35  2  0  0  0  0
 42 38  1  0  0  0  0
 43 39  1  0  0  0  0
 44 40  1  0  0  0  0
M  END
>  <minimizedAffinity>
-6.17372894

$$$$

 OpenBabel03252501523D

 44 47  0  0  1  0  0  0  0  0999 V2000
   36.6630   28.4880   39.1700 C   0  0  0  0  0  0  0  0  0  0  0  0
   37.6620   28.4780   38.6540 H   0  0  0  0  0  0  0  0  0  0  0  0
   36.3900   27.4270   39.3860 H   0  0  0  0  0  0  0  0  0  0  0  0
   36.7910   29.2800   40.3460 N   0  0  0  0  0  0  0  0  0  0  0  0
   36.3440   28.5990   41.5120 C   0  0  0  0  0  0  0  0  0  0  0  0
   37.2310   29.0100   42.6690 C   0  0  0  0  0  0  0  0  0  0  0  0
   38.4820   29.4560   41.9910 C   0  0  0  0  0  0  0  0  0  0  0  0
   38.1220   29.7630   40.5470 C   0  0  2  0  0  0  0  0  0  0  0  0
   36.3130   27.4930   41.4400 H   0  0  0  0  0  0  0  0  0  0  0  0
   35.2930   28.9570   41.7100 H   0  0  0  0  0  0  0  0  0  0  0  0
   36.7120   29.7550   43.2720 H   0  0  0  0  0  0  0  0  0  0  0  0
   37.3930   28.1150   43.3230 H   0  0  0  0  0  0  0  0  0  0  0  0
   39.2200   28.6290   42.0580 H   0  0  0  0  0  0  0  0  0  0  0  0
   38.9060   30.3360   42.5190 H   0  0  0  0  0  0  0  0  0  0  0  0
   38.8790   29.2730   39.9110 H   0  0  0  0  0  0  0  0  0  0  0  0
   38.2120   31.2540   40.3900 C   0  0  0  0  0  0  0  0  0  0  0  0
   37.1270   31.8850   39.8020 C   0  0  0  0  0  0  0  0  0  0  0  0
   36.2520   31.3500   39.4670 H   0  0  0  0  0  0  0  0  0  0  0  0
   37.1330   33.2730   39.6190 C   0  0  0  0  0  0  0  0  0  0  0  0
   36.3020   33.8230   39.1590 H   0  0  0  0  0  0  0  0  0  0  0  0
   38.2630   33.9750   40.0510 C   0  0  0  0  0  3  0  0  0  0  0  0
   39.3350   33.3120   40.6370 C   0  0  0  0  0  3  0  0  0  0  0  0
   39.2800   31.9750   40.7900 N   0  0  0  0  0  0  0  0  0  0  0  0
   34.5600   28.4990   37.8860 C   0  0  0  0  0  3  0  0  0  0  0  0
   35.7290   29.1040   38.1580 C   0  0  0  0  0  3  0  0  0  0  0  0
   32.2840   29.4280   37.2410 C   0  0  0  0  0  0  0  0  0  0  0  0
   33.6080   29.0540   36.9080 C   0  0  0  0  0  0  0  0  0  0  0  0
   34.0600   29.2140   35.5820 C   0  0  0  0  0  0  0  0  0  0  0  0
   33.1820   29.7300   34.6690 N   0  0  0  0  0  0  0  0  0  0  0  0
   31.9470   30.0690   35.0170 C   0  0  0  0  0  0  0  0  0  0  0  0
   31.5180   29.9140   36.2910 N   0  0  0  0  0  0  0  0  0  0  0  0
   32.0040   29.2770   38.2810 H   0  0  0  0  0  0  0  0  0  0  0  0
   35.0500   28.9460   35.2870 H   0  0  0  0  0  0  0  0  0  0  0  0
   31.3640   32.7680   34.9040 F   0  0  0  0  0  0  0  0  0  0  0  0
   30.7670   31.9750   33.9890 C   0  0  0  0  0  0  0  0  0  0  0  0
   31.0400   30.6150   34.0210 C   0  0  0  0  0  0  0  0  0  0  0  0
   30.4670   29.7330   33.1140 C   0  0  0  0  0  0  0  0  0  0  0  0
   29.5960   30.2580   32.1600 C   0  0  0  0  0  0  0  0  0  0  0  0
   29.3090   31.6250   32.1120 C   0  0  0  0  0  0  0  0  0  0  0  0
   29.8990   32.4880   33.0340 C   0  0  0  0  0  0  0  0  0  0  0  0
   30.6990   28.6720   33.1630 H   0  0  0  0  0  0  0  0  0  0  0  0
   29.1550   29.5630   31.4590 H   0  0  0  0  0  0  0  0  0  0  0  0
   28.6320   31.9860   31.3570 H   0  0  0  0  0  0  0  0  0  0  0  0
   29.6740   33.5360   32.9910 H   0  0  0  0  0  0  0  0  0  0  0  0
  1  3  1  0  0  0  0
  1  4  1  0  0  0  0
  2  1  1  0  0  0  0
  4  8  1  0  0  0  0
  4  5  1  0  0  0  0
  5 10  1  0  0  0  0
  5  6  1  0  0  0  0
  6 11  1  0  0  0  0
  6 12  1  0  0  0  0
  7 13  1  0  0  0  0
  7 14  1  0  0  0  0
  7  6  1  0  0  0  0
  8 15  1  6  0  0  0
  8  7  1  0  0  0  0
  9  5  1  0  0  0  0
 16  8  1  0  0  0  0
 16 23  1  0  0  0  0
 17 16  2  0  0  0  0
 18 17  1  0  0  0  0
 19 17  1  0  0  0  0
 19 21  2  0  0  0  0
 20 19  1  0  0  0  0
 21 22  1  0  0  0  0
 22 23  2  0  0  0  0
 24 25  2  0  0  0  0
 25  1  1  0  0  0  0
 26 32  1  0  0  0  0
 27 26  1  0  0  0  0
 27 24  1  0  0  0  0
 28 27  2  0  0  0  0
 29 30  2  0  0  0  0
 29 28  1  0  0  0  0
 30 31  1  0  0  0  0
 31 26  2  0  0  0  0
 33 28  1  0  0  0  0
 35 36  1  0  0  0  0
 35 34  1  0  0  0  0
 36 30  1  0  0  0  0
 37 41  1  0  0  0  0
 37 36  2  0  0  0  0
 38 37  1  0  0  0  0
 39 38  2  0  0  0  0
 39 40  1  0  0  0  0
 40 35  2  0  0  0  0
 42 38  1  0  0  0  0
 43 39  1  0  0  0  0
 44 40  1  0  0  0  0
M  END
>  <minimizedAffinity>
-6.15210104

$$$$

 OpenBabel03252501523D

 44 47  0  0  1  0  0  0  0  0999 V2000
   32.1820   28.3930   35.0590 C   0  0  0  0  0  0  0  0  0  0  0  0
   31.7970   27.3740   34.7800 H   0  0  0  0  0  0  0  0  0  0  0  0
   32.8810   28.7180   34.2510 H   0  0  0  0  0  0  0  0  0  0  0  0
   31.0600   29.2560   35.2050 N   0  0  0  0  0  0  0  0  0  0  0  0
   30.5570   29.2730   36.5360 C   0  0  0  0  0  0  0  0  0  0  0  0
   30.0720   30.6740   36.8410 C   0  0  0  0  0  0  0  0  0  0  0  0
   30.8440   31.5140   35.8800 C   0  0  0  0  0  0  0  0  0  0  0  0
   31.3280   30.5930   34.7730 C   0  0  2  0  0  0  0  0  0  0  0  0
   31.2660   28.9440   37.3230 H   0  0  0  0  0  0  0  0  0  0  0  0
   29.6770   28.5670   36.5560 H   0  0  0  0  0  0  0  0  0  0  0  0
   28.9850   30.7060   36.7510 H   0  0  0  0  0  0  0  0  0  0  0  0
   30.3180   30.9080   37.9080 H   0  0  0  0  0  0  0  0  0  0  0  0
   31.6940   31.9680   36.4300 H   0  0  0  0  0  0  0  0  0  0  0  0
   30.2040   32.3370   35.4970 H   0  0  0  0  0  0  0  0  0  0  0  0
   32.3980   30.8080   34.6140 H   0  0  0  0  0  0  0  0  0  0  0  0
   30.5470   30.9530   33.5410 C   0  0  0  0  0  0  0  0  0  0  0  0
   30.1340   32.2710   33.4280 C   0  0  0  0  0  0  0  0  0  0  0  0
   30.3520   33.0170   34.1760 H   0  0  0  0  0  0  0  0  0  0  0  0
   29.4020   32.6870   32.3090 C   0  0  0  0  0  0  0  0  0  0  0  0
   29.0510   33.7180   32.1690 H   0  0  0  0  0  0  0  0  0  0  0  0
   29.1150   31.7270   31.3340 C   0  0  0  0  0  3  0  0  0  0  0  0
   29.5440   30.4120   31.4770 C   0  0  0  0  0  3  0  0  0  0  0  0
   30.2450   30.0630   32.5720 N   0  0  0  0  0  0  0  0  0  0  0  0
   34.0980   28.7660   36.5640 C   0  0  0  0  0  3  0  0  0  0  0  0
   32.9110   28.1690   36.3620 C   0  0  0  0  0  3  0  0  0  0  0  0
   36.1280   27.9680   37.8700 C   0  0  0  0  0  0  0  0  0  0  0  0
   34.8540   28.5840   37.8160 C   0  0  0  0  0  0  0  0  0  0  0  0
   34.2620   29.0550   39.0060 C   0  0  0  0  0  0  0  0  0  0  0  0
   34.9590   28.8890   40.1700 N   0  0  0  0  0  0  0  0  0  0  0  0
   36.1520   28.3070   40.1830 C   0  0  0  0  0  0  0  0  0  0  0  0
   36.7150   27.8570   39.0390 N   0  0  0  0  0  0  0  0  0  0  0  0
   36.5230   27.6290   36.9140 H   0  0  0  0  0  0  0  0  0  0  0  0
   33.3050   29.5250   39.0120 H   0  0  0  0  0  0  0  0  0  0  0  0
   37.0030   30.4830   41.6580 F   0  0  0  0  0  0  0  0  0  0  0  0
   37.2790   29.2610   42.1590 C   0  0  0  0  0  0  0  0  0  0  0  0
   36.8650   28.1480   41.4400 C   0  0  0  0  0  0  0  0  0  0  0  0
   37.1100   26.8570   41.8870 C   0  0  0  0  0  0  0  0  0  0  0  0
   37.7950   26.7060   43.0930 C   0  0  0  0  0  0  0  0  0  0  0  0
   38.2200   27.8150   43.8300 C   0  0  0  0  0  0  0  0  0  0  0  0
   37.9600   29.1000   43.3580 C   0  0  0  0  0  0  0  0  0  0  0  0
   36.7730   26.0040   41.3030 H   0  0  0  0  0  0  0  0  0  0  0  0
   37.9800   25.6960   43.4320 H   0  0  0  0  0  0  0  0  0  0  0  0
   38.7440   27.6500   44.7560 H   0  0  0  0  0  0  0  0  0  0  0  0
   38.2900   29.9460   43.9300 H   0  0  0  0  0  0  0  0  0  0  0  0
  1  4  1  0  0  0  0
  1 25  1  0  0  0  0
  2  1  1  0  0  0  0
  3  1  1  0  0  0  0
  4  5  1  0  0  0  0
  5 10  1  0  0  0  0
  5  6  1  0  0  0  0
  5  9  1  0  0  0  0
  6 12  1  0  0  0  0
  7 13  1  0  0  0  0
  7  6  1  0  0  0  0
  8 15  1  6  0  0  0
  8  4  1  0  0  0  0
  8  7  1  0  0  0  0
 11  6  1  0  0  0  0
 14  7  1  0  0  0  0
 16  8  1  0  0  0  0
 17 16  1  0  0  0  0
 17 18  1  0  0  0  0
 19 17  2  0  0  0  0
 20 19  1  0  0  0  0
 21 22  2  0  0  0  0
 21 19  1  0  0  0  0
 22 23  1  0  0  0  0
 23 16  2  0  0  0  0
 24 27  1  0  0  0  0
 25 24  2  0  0  0  0
 26 31  1  0  0  0  0
 27 26  2  0  0  0  0
 27 28  1  0  0  0  0
 28 33  1  0  0  0  0
 28 29  2  0  0  0  0
 29 30  1  0  0  0  0
 30 36  1  0  0  0  0
 31 30  2  0  0  0  0
 32 26  1  0  0  0  0
 34 35  1  0  0  0  0
 35 40  1  0  0  0  0
 36 37  1  0  0  0  0
 36 35  2  0  0  0  0
 37 38  2  0  0  0  0
 38 42  1  0  0  0  0
 38 39  1  0  0  0  0
 39 43  1  0  0  0  0
 40 39  2  0  0  0  0
 40 44  1  0  0  0  0
 41 37  1  0  0  0  0
M  END
>  <minimizedAffinity>
-6.05187702

$$$$

 OpenBabel03252501523D

 44 47  0  0  1  0  0  0  0  0999 V2000
   31.4420   28.8140   36.2970 C   0  0  0  0  0  0  0  0  0  0  0  0
   30.9430   28.0200   36.9180 H   0  0  0  0  0  0  0  0  0  0  0  0
   31.8410   28.3170   35.3800 H   0  0  0  0  0  0  0  0  0  0  0  0
   30.4710   29.8140   36.0110 N   0  0  0  0  0  0  0  0  0  0  0  0
   29.8590   30.3310   37.1870 C   0  0  0  0  0  0  0  0  0  0  0  0
   29.5900   31.8050   36.9720 C   0  0  0  0  0  0  0  0  0  0  0  0
   30.5750   32.1770   35.9160 C   0  0  0  0  0  0  0  0  0  0  0  0
   30.9960   30.8890   35.2270 C   0  0  2  0  0  0  0  0  0  0  0  0
   30.4300   30.1880   38.1280 H   0  0  0  0  0  0  0  0  0  0  0  0
   28.8750   29.7910   37.3020 H   0  0  0  0  0  0  0  0  0  0  0  0
   28.5370   31.9460   36.7270 H   0  0  0  0  0  0  0  0  0  0  0  0
   29.7750   32.3410   37.9380 H   0  0  0  0  0  0  0  0  0  0  0  0
   31.4370   32.6720   36.4110 H   0  0  0  0  0  0  0  0  0  0  0  0
   30.1200   32.9040   35.2120 H   0  0  0  0  0  0  0  0  0  0  0  0
   32.0980   30.9010   35.1610 H   0  0  0  0  0  0  0  0  0  0  0  0
   30.4010   30.9250   33.8480 C   0  0  0  0  0  0  0  0  0  0  0  0
   30.0140   32.1650   33.3680 C   0  0  0  0  0  0  0  0  0  0  0  0
   30.1250   33.0730   33.9410 H   0  0  0  0  0  0  0  0  0  0  0  0
   29.4510   32.2830   32.0910 C   0  0  0  0  0  0  0  0  0  0  0  0
   29.1270   33.2400   31.6630 H   0  0  0  0  0  0  0  0  0  0  0  0
   29.3040   31.1110   31.3420 C   0  0  0  0  0  3  0  0  0  0  0  0
   29.7040   29.8820   31.8530 C   0  0  0  0  0  3  0  0  0  0  0  0
   30.2390   29.8220   33.0870 N   0  0  0  0  0  0  0  0  0  0  0  0
   33.5950   28.5210   37.4590 C   0  0  0  0  0  3  0  0  0  0  0  0
   32.5560   29.3260   37.1780 C   0  0  0  0  0  3  0  0  0  0  0  0
   36.0410   29.0980   37.8430 C   0  0  0  0  0  0  0  0  0  0  0  0
   34.7110   28.9670   38.3120 C   0  0  0  0  0  0  0  0  0  0  0  0
   34.4180   29.2740   39.6570 C   0  0  0  0  0  0  0  0  0  0  0  0
   35.4490   29.6880   40.4530 N   0  0  0  0  0  0  0  0  0  0  0  0
   36.6830   29.8000   39.9800 C   0  0  0  0  0  0  0  0  0  0  0  0
   36.9600   29.5040   38.6890 N   0  0  0  0  0  0  0  0  0  0  0  0
   36.1940   28.8450   36.7960 H   0  0  0  0  0  0  0  0  0  0  0  0
   33.4310   29.1900   40.0520 H   0  0  0  0  0  0  0  0  0  0  0  0
   37.5640   28.2590   42.0970 F   0  0  0  0  0  0  0  0  0  0  0  0
   38.1770   29.4460   41.9100 C   0  0  0  0  0  0  0  0  0  0  0  0
   37.7560   30.2440   40.8550 C   0  0  0  0  0  0  0  0  0  0  0  0
   38.3360   31.4780   40.5950 C   0  0  0  0  0  0  0  0  0  0  0  0
   39.3640   31.9020   41.4360 C   0  0  0  0  0  0  0  0  0  0  0  0
   39.8010   31.1140   42.5050 C   0  0  0  0  0  0  0  0  0  0  0  0
   39.2020   29.8780   42.7410 C   0  0  0  0  0  0  0  0  0  0  0  0
   37.9860   32.0810   39.7610 H   0  0  0  0  0  0  0  0  0  0  0  0
   39.8080   32.8650   41.2250 H   0  0  0  0  0  0  0  0  0  0  0  0
   40.5990   31.4820   43.1260 H   0  0  0  0  0  0  0  0  0  0  0  0
   39.5430   29.2780   43.5640 H   0  0  0  0  0  0  0  0  0  0  0  0
  1  2  1  0  0  0  0
  1 25  1  0  0  0  0
  3  1  1  0  0  0  0
  4  1  1  0  0  0  0
  4  5  1  0  0  0  0
  5 10  1  0  0  0  0
  5  9  1  0  0  0  0
  6  5  1  0  0  0  0
  6 12  1  0  0  0  0
  7 13  1  0  0  0  0
  7  6  1  0  0  0  0
  8 15  1  6  0  0  0
  8  7  1  0  0  0  0
  8  4  1  0  0  0  0
 11  6  1  0  0  0  0
 14  7  1  0  0  0  0
 16  8  1  0  0  0  0
 17 16  1  0  0  0  0
 17 18  1  0  0  0  0
 19 17  2  0  0  0  0
 20 19  1  0  0  0  0
 21 22  2  0  0  0  0
 21 19  1  0  0  0  0
 22 23  1  0  0  0  0
 23 16  2  0  0  0  0
 24 27  1  0  0  0  0
 25 24  2  0  0  0  0
 26 27  2  0  0  0  0
 26 31  1  0  0  0  0
 27 28  1  0  0  0  0
 28 33  1  0  0  0  0
 28 29  2  0  0  0  0
 30 29  1  0  0  0  0
 30 36  1  0  0  0  0
 31 30  2  0  0  0  0
 32 26  1  0  0  0  0
 35 34  1  0  0  0  0
 35 40  1  0  0  0  0
 36 35  2  0  0  0  0
 37 36  1  0  0  0  0
 37 38  2  0  0  0  0
 38 39  1  0  0  0  0
 39 40  2  0  0  0  0
 39 43  1  0  0  0  0
 40 44  1  0  0  0  0
 41 37  1  0  0  0  0
 42 38  1  0  0  0  0
M  END
>  <minimizedAffinity>
-5.98191547

$$$$

 OpenBabel03252501523D

 44 47  0  0  1  0  0  0  0  0999 V2000
   37.6550   25.4420   38.2880 C   0  0  0  0  0  0  0  0  0  0  0  0
   38.6600   25.9450   38.2460 H   0  0  0  0  0  0  0  0  0  0  0  0
   37.6280   24.6840   37.4680 H   0  0  0  0  0  0  0  0  0  0  0  0
   37.5120   24.8680   39.5820 N   0  0  0  0  0  0  0  0  0  0  0  0
   37.1810   23.4850   39.5310 C   0  0  0  0  0  0  0  0  0  0  0  0
   37.8670   22.7910   40.6880 C   0  0  0  0  0  0  0  0  0  0  0  0
   39.0060   23.7020   40.9990 C   0  0  0  0  0  0  0  0  0  0  0  0
   38.6670   25.0590   40.4050 C   0  0  2  0  0  0  0  0  0  0  0  0
   37.4300   22.9670   38.5820 H   0  0  0  0  0  0  0  0  0  0  0  0
   36.0630   23.4170   39.6720 H   0  0  0  0  0  0  0  0  0  0  0  0
   37.1440   22.6250   41.4870 H   0  0  0  0  0  0  0  0  0  0  0  0
   38.2080   21.7820   40.3410 H   0  0  0  0  0  0  0  0  0  0  0  0
   39.9210   23.2750   40.5390 H   0  0  0  0  0  0  0  0  0  0  0  0
   39.1650   23.7490   42.0970 H   0  0  0  0  0  0  0  0  0  0  0  0
   39.5580   25.4050   39.8540 H   0  0  0  0  0  0  0  0  0  0  0  0
   38.3910   25.9780   41.5600 C   0  0  0  0  0  0  0  0  0  0  0  0
   37.0710   26.3500   41.7600 C   0  0  0  0  0  0  0  0  0  0  0  0
   36.2660   26.0060   41.1290 H   0  0  0  0  0  0  0  0  0  0  0  0
   36.7310   27.2040   42.8160 C   0  0  0  0  0  0  0  0  0  0  0  0
   35.7030   27.5300   43.0200 H   0  0  0  0  0  0  0  0  0  0  0  0
   37.7680   27.6540   43.6400 C   0  0  0  0  0  3  0  0  0  0  0  0
   39.0820   27.2620   43.4120 C   0  0  0  0  0  3  0  0  0  0  0  0
   39.3570   26.4380   42.3830 N   0  0  0  0  0  0  0  0  0  0  0  0
   35.3830   26.2610   37.8020 C   0  0  0  0  0  3  0  0  0  0  0  0
   36.6710   26.5600   38.0400 C   0  0  0  0  0  3  0  0  0  0  0  0
   34.3270   28.5240   38.2810 C   0  0  0  0  0  0  0  0  0  0  0  0
   34.3770   27.3100   37.5540 C   0  0  0  0  0  0  0  0  0  0  0  0
   33.4300   27.0740   36.5360 C   0  0  0  0  0  0  0  0  0  0  0  0
   32.4960   28.0430   36.3010 N   0  0  0  0  0  0  0  0  0  0  0  0
   32.4780   29.1690   37.0030 C   0  0  0  0  0  0  0  0  0  0  0  0
   33.3890   29.3910   37.9780 N   0  0  0  0  0  0  0  0  0  0  0  0
   35.0890   28.6390   39.0510 H   0  0  0  0  0  0  0  0  0  0  0  0
   33.4310   26.1750   35.9630 H   0  0  0  0  0  0  0  0  0  0  0  0
   30.5940   29.8980   38.8880 F   0  0  0  0  0  0  0  0  0  0  0  0
   30.5370   30.5240   37.6940 C   0  0  0  0  0  0  0  0  0  0  0  0
   31.4700   30.1790   36.7260 C   0  0  0  0  0  0  0  0  0  0  0  0
   31.4790   30.7770   35.4730 C   0  0  0  0  0  0  0  0  0  0  0  0
   30.5100   31.7450   35.2090 C   0  0  0  0  0  0  0  0  0  0  0  0
   29.5620   32.1050   36.1700 C   0  0  0  0  0  0  0  0  0  0  0  0
   29.5770   31.4890   37.4210 C   0  0  0  0  0  0  0  0  0  0  0  0
   32.2220   30.4860   34.7350 H   0  0  0  0  0  0  0  0  0  0  0  0
   30.5260   32.2040   34.2300 H   0  0  0  0  0  0  0  0  0  0  0  0
   28.8340   32.8580   35.9220 H   0  0  0  0  0  0  0  0  0  0  0  0
   28.8450   31.7710   38.1530 H   0  0  0  0  0  0  0  0  0  0  0  0
  1  4  1  0  0  0  0
  2  1  1  0  0  0  0
  3  1  1  0  0  0  0
  4  8  1  0  0  0  0
  5  4  1  0  0  0  0
  5 10  1  0  0  0  0
  5  6  1  0  0  0  0
  6  7  1  0  0  0  0
  6 11  1  0  0  0  0
  7 14  1  0  0  0  0
  8 15  1  6  0  0  0
  8  7  1  0  0  0  0
  8 16  1  0  0  0  0
  9  5  1  0  0  0  0
 12  6  1  0  0  0  0
 13  7  1  0  0  0  0
 16 17  2  0  0  0  0
 16 23  1  0  0  0  0
 17 19  1  0  0  0  0
 18 17  1  0  0  0  0
 19 20  1  0  0  0  0
 19 21  2  0  0  0  0
 22 21  1  0  0  0  0
 23 22  2  0  0  0  0
 24 25  2  0  0  0  0
 25  1  1  0  0  0  0
 26 32  1  0  0  0  0
 27 24  1  0  0  0  0
 27 26  2  0  0  0  0
 28 27  1  0  0  0  0
 29 28  2  0  0  0  0
 29 30  1  0  0  0  0
 30 31  2  0  0  0  0
 31 26  1  0  0  0  0
 33 28  1  0  0  0  0
 35 34  1  0  0  0  0
 36 30  1  0  0  0  0
 36 35  2  0  0  0  0
 37 36  1  0  0  0  0
 38 37  2  0  0  0  0
 38 39  1  0  0  0  0
 39 40  2  0  0  0  0
 40 35  1  0  0  0  0
 40 44  1  0  0  0  0
 41 37  1  0  0  0  0
 42 38  1  0  0  0  0
 43 39  1  0  0  0  0
M  END
>  <minimizedAffinity>
-5.72278309

$$$$

 OpenBabel03252501523D

 44 47  0  0  1  0  0  0  0  0999 V2000
   32.6400   28.5360   34.6690 C   0  0  0  0  0  0  0  0  0  0  0  0
   32.7900   27.5880   34.0840 H   0  0  0  0  0  0  0  0  0  0  0  0
   33.1780   29.3510   34.1260 H   0  0  0  0  0  0  0  0  0  0  0  0
   31.2390   28.7660   34.7730 N   0  0  0  0  0  0  0  0  0  0  0  0
   30.5010   28.0870   33.7630 C   0  0  0  0  0  0  0  0  0  0  0  0
   29.1880   27.6330   34.3630 C   0  0  0  0  0  0  0  0  0  0  0  0
   29.4870   27.5720   35.8220 C   0  0  0  0  0  0  0  0  0  0  0  0
   30.7160   28.4320   36.0610 C   0  0  2  0  0  0  0  0  0  0  0  0
   31.0150   27.2250   33.2900 H   0  0  0  0  0  0  0  0  0  0  0  0
   30.2930   28.8440   32.9530 H   0  0  0  0  0  0  0  0  0  0  0  0
   28.3960   28.3170   34.0570 H   0  0  0  0  0  0  0  0  0  0  0  0
   28.9340   26.6290   33.9350 H   0  0  0  0  0  0  0  0  0  0  0  0
   29.6770   26.5110   36.0880 H   0  0  0  0  0  0  0  0  0  0  0  0
   28.6070   27.9180   36.4050 H   0  0  0  0  0  0  0  0  0  0  0  0
   31.4080   27.8450   36.6890 H   0  0  0  0  0  0  0  0  0  0  0  0
   30.2510   29.6470   36.8130 C   0  0  0  0  0  0  0  0  0  0  0  0
   30.5950   30.8790   36.2800 C   0  0  0  0  0  0  0  0  0  0  0  0
   31.1680   30.9820   35.3720 H   0  0  0  0  0  0  0  0  0  0  0  0
   30.1990   32.0590   36.9210 C   0  0  0  0  0  0  0  0  0  0  0  0
   30.4440   33.0610   36.5430 H   0  0  0  0  0  0  0  0  0  0  0  0
   29.4560   31.9350   38.0990 C   0  0  0  0  0  3  0  0  0  0  0  0
   29.1270   30.6830   38.6070 C   0  0  0  0  0  3  0  0  0  0  0  0
   29.5320   29.5780   37.9530 N   0  0  0  0  0  0  0  0  0  0  0  0
   34.2180   29.0850   36.4800 C   0  0  0  0  0  3  0  0  0  0  0  0
   33.2780   28.2490   36.0070 C   0  0  0  0  0  3  0  0  0  0  0  0
   34.2320   29.0740   39.0230 C   0  0  0  0  0  0  0  0  0  0  0  0
   34.8750   28.8560   37.7800 C   0  0  0  0  0  0  0  0  0  0  0  0
   36.2070   28.3950   37.7610 C   0  0  0  0  0  0  0  0  0  0  0  0
   36.8220   28.1800   38.9640 N   0  0  0  0  0  0  0  0  0  0  0  0
   36.1890   28.3950   40.1090 C   0  0  0  0  0  0  0  0  0  0  0  0
   34.9100   28.8380   40.1220 N   0  0  0  0  0  0  0  0  0  0  0  0
   33.2060   29.4290   38.9610 H   0  0  0  0  0  0  0  0  0  0  0  0
   36.7300   28.2160   36.8490 H   0  0  0  0  0  0  0  0  0  0  0  0
   37.0770   30.4740   41.6990 F   0  0  0  0  0  0  0  0  0  0  0  0
   37.3070   29.2210   42.1470 C   0  0  0  0  0  0  0  0  0  0  0  0
   36.8730   28.1560   41.3700 C   0  0  0  0  0  0  0  0  0  0  0  0
   37.0710   26.8390   41.7600 C   0  0  0  0  0  0  0  0  0  0  0  0
   37.7280   26.6110   42.9690 C   0  0  0  0  0  0  0  0  0  0  0  0
   38.1730   27.6700   43.7650 C   0  0  0  0  0  0  0  0  0  0  0  0
   37.9600   28.9840   43.3490 C   0  0  0  0  0  0  0  0  0  0  0  0
   36.7200   26.0240   41.1310 H   0  0  0  0  0  0  0  0  0  0  0  0
   37.8760   25.5810   43.2630 H   0  0  0  0  0  0  0  0  0  0  0  0
   38.6740   27.4470   44.6900 H   0  0  0  0  0  0  0  0  0  0  0  0
   38.3040   29.7920   43.9650 H   0  0  0  0  0  0  0  0  0  0  0  0
  1  4  1  0  0  0  0
  1 25  1  0  0  0  0
  2  1  1  0  0  0  0
  3  1  1  0  0  0  0
  4  8  1  0  0  0  0
  5  6  1  0  0  0  0
  5  4  1  0  0  0  0
  6  7  1  0  0  0  0
  7  8  1  0  0  0  0
  7 13  1  0  0  0  0
  7 14  1  0  0  0  0
  8 15  1  1  0  0  0
  8 16  1  0  0  0  0
  9  5  1  0  0  0  0
 10  5  1  0  0  0  0
 11  6  1  0  0  0  0
 12  6  1  0  0  0  0
 16 23  1  0  0  0  0
 17 16  2  0  0  0  0
 17 19  1  0  0  0  0
 18 17  1  0  0  0  0
 19 21  2  0  0  0  0
 20 19  1  0  0  0  0
 21 22  1  0  0  0  0
 23 22  2  0  0  0  0
 24 27  1  0  0  0  0
 25 24  2  0  0  0  0
 26 31  1  0  0  0  0
 27 26  2  0  0  0  0
 28 27  1  0  0  0  0
 28 29  2  0  0  0  0
 29 30  1  0  0  0  0
 30 31  2  0  0  0  0
 30 36  1  0  0  0  0
 32 26  1  0  0  0  0
 33 28  1  0  0  0  0
 34 35  1  0  0  0  0
 35 40  1  0  0  0  0
 36 37  1  0  0  0  0
 36 35  2  0  0  0  0
 37 38  2  0  0  0  0
 38 42  1  0  0  0  0
 38 39  1  0  0  0  0
 39 43  1  0  0  0  0
 40 39  2  0  0  0  0
 40 44  1  0  0  0  0
 41 37  1  0  0  0  0
M  END
>  <minimizedAffinity>
-5.69403887

$$$$

 OpenBabel03252501523D

 44 47  0  0  1  0  0  0  0  0999 V2000
   37.4250   26.3540   38.3030 C   0  0  0  0  0  0  0  0  0  0  0  0
   38.0560   27.2440   38.5730 H   0  0  0  0  0  0  0  0  0  0  0  0
   38.0780   25.6400   37.7450 H   0  0  0  0  0  0  0  0  0  0  0  0
   36.9060   25.8080   39.5100 N   0  0  0  0  0  0  0  0  0  0  0  0
   36.0810   24.6710   39.2830 C   0  0  0  0  0  0  0  0  0  0  0  0
   36.2930   23.6970   40.4220 C   0  0  0  0  0  0  0  0  0  0  0  0
   37.6430   24.0690   40.9360 C   0  0  0  0  0  0  0  0  0  0  0  0
   37.9280   25.4820   40.4560 C   0  0  2  0  0  0  0  0  0  0  0  0
   36.2340   24.1520   38.3140 H   0  0  0  0  0  0  0  0  0  0  0  0
   35.0140   25.0380   39.3070 H   0  0  0  0  0  0  0  0  0  0  0  0
   35.4640   23.7810   41.1260 H   0  0  0  0  0  0  0  0  0  0  0  0
   36.2640   22.6570   40.0060 H   0  0  0  0  0  0  0  0  0  0  0  0
   38.3770   23.3450   40.5240 H   0  0  0  0  0  0  0  0  0  0  0  0
   37.6630   23.9850   42.0430 H   0  0  0  0  0  0  0  0  0  0  0  0
   38.9480   25.4830   40.0340 H   0  0  0  0  0  0  0  0  0  0  0  0
   37.8770   26.3670   41.6690 C   0  0  0  0  0  0  0  0  0  0  0  0
   36.8220   27.2620   41.7430 C   0  0  0  0  0  0  0  0  0  0  0  0
   36.0640   27.3350   40.9790 H   0  0  0  0  0  0  0  0  0  0  0  0
   36.7030   28.1210   42.8420 C   0  0  0  0  0  0  0  0  0  0  0  0
   35.8890   28.8490   42.9520 H   0  0  0  0  0  0  0  0  0  0  0  0
   37.6810   28.0330   43.8380 C   0  0  0  0  0  3  0  0  0  0  0  0
   38.7270   27.1230   43.7330 C   0  0  0  0  0  3  0  0  0  0  0  0
   38.7970   26.3190   42.6560 N   0  0  0  0  0  0  0  0  0  0  0  0
   35.6400   27.9880   37.8360 C   0  0  0  0  0  3  0  0  0  0  0  0
   36.3440   26.9230   37.4150 C   0  0  0  0  0  3  0  0  0  0  0  0
   33.2900   28.9030   37.5180 C   0  0  0  0  0  0  0  0  0  0  0  0
   34.5740   28.5860   37.0120 C   0  0  0  0  0  0  0  0  0  0  0  0
   34.8700   28.8490   35.6590 C   0  0  0  0  0  0  0  0  0  0  0  0
   33.8850   29.4050   34.8900 N   0  0  0  0  0  0  0  0  0  0  0  0
   32.6920   29.6880   35.3980 C   0  0  0  0  0  0  0  0  0  0  0  0
   32.4130   29.4340   36.6970 N   0  0  0  0  0  0  0  0  0  0  0  0
   33.1320   28.6730   38.5700 H   0  0  0  0  0  0  0  0  0  0  0  0
   35.8230   28.6270   35.2360 H   0  0  0  0  0  0  0  0  0  0  0  0
   31.0870   28.1430   33.7630 F   0  0  0  0  0  0  0  0  0  0  0  0
   30.8770   29.4760   33.7420 C   0  0  0  0  0  0  0  0  0  0  0  0
   31.6680   30.2790   34.5510 C   0  0  0  0  0  0  0  0  0  0  0  0
   31.5140   31.6580   34.5860 C   0  0  0  0  0  0  0  0  0  0  0  0
   30.5320   32.2220   33.7730 C   0  0  0  0  0  0  0  0  0  0  0  0
   29.7260   31.4310   32.9500 C   0  0  0  0  0  0  0  0  0  0  0  0
   29.9020   30.0480   32.9360 C   0  0  0  0  0  0  0  0  0  0  0  0
   32.1480   32.2620   35.2300 H   0  0  0  0  0  0  0  0  0  0  0  0
   30.4210   33.2980   33.8080 H   0  0  0  0  0  0  0  0  0  0  0  0
   28.9800   31.9100   32.3410 H   0  0  0  0  0  0  0  0  0  0  0  0
   29.2790   29.4460   32.3010 H   0  0  0  0  0  0  0  0  0  0  0  0
  1  2  1  0  0  0  0
  1  4  1  0  0  0  0
  3  1  1  0  0  0  0
  4  8  1  0  0  0  0
  5 10  1  0  0  0  0
  5  4  1  0  0  0  0
  5  6  1  0  0  0  0
  6  7  1  0  0  0  0
  6 11  1  0  0  0  0
  7 14  1  0  0  0  0
  8 15  1  6  0  0  0
  8  7  1  0  0  0  0
  8 16  1  0  0  0  0
  9  5  1  0  0  0  0
 12  6  1  0  0  0  0
 13  7  1  0  0  0  0
 16 17  2  0  0  0  0
 16 23  1  0  0  0  0
 17 19  1  0  0  0  0
 18 17  1  0  0  0  0
 19 20  1  0  0  0  0
 19 21  2  0  0  0  0
 22 21  1  0  0  0  0
 23 22  2  0  0  0  0
 25 24  2  0  0  0  0
 25  1  1  0  0  0  0
 26 32  1  0  0  0  0
 27 26  1  0  0  0  0
 27 24  1  0  0  0  0
 28 27  2  0  0  0  0
 29 30  2  0  0  0  0
 29 28  1  0  0  0  0
 30 31  1  0  0  0  0
 31 26  2  0  0  0  0
 33 28  1  0  0  0  0
 35 34  1  0  0  0  0
 35 36  1  0  0  0  0
 36 37  2  0  0  0  0
 36 30  1  0  0  0  0
 37 41  1  0  0  0  0
 38 42  1  0  0  0  0
 38 37  1  0  0  0  0
 39 38  2  0  0  0  0
 40 39  1  0  0  0  0
 40 35  2  0  0  0  0
 43 39  1  0  0  0  0
 44 40  1  0  0  0  0
M  END
>  <minimizedAffinity>
-5.4694171

$$$$

 OpenBabel03252501523D

 44 47  0  0  1  0  0  0  0  0999 V2000
   36.6180   29.8580   38.7910 C   0  0  0  0  0  0  0  0  0  0  0  0
   36.8970   29.7100   37.7120 H   0  0  0  0  0  0  0  0  0  0  0  0
   35.6890   30.4760   38.8130 H   0  0  0  0  0  0  0  0  0  0  0  0
   36.4450   28.5710   39.3740 N   0  0  0  0  0  0  0  0  0  0  0  0
   35.6930   27.6940   38.5420 C   0  0  0  0  0  0  0  0  0  0  0  0
   36.2490   26.2960   38.7040 C   0  0  0  0  0  0  0  0  0  0  0  0
   37.6430   26.5400   39.1740 C   0  0  0  0  0  0  0  0  0  0  0  0
   37.6840   27.9530   39.7330 C   0  0  2  0  0  0  0  0  0  0  0  0
   35.6620   27.9620   37.4660 H   0  0  0  0  0  0  0  0  0  0  0  0
   34.6330   27.7160   38.9290 H   0  0  0  0  0  0  0  0  0  0  0  0
   35.6030   25.7270   39.3730 H   0  0  0  0  0  0  0  0  0  0  0  0
   36.2160   25.7870   37.7070 H   0  0  0  0  0  0  0  0  0  0  0  0
   38.3220   26.4290   38.3030 H   0  0  0  0  0  0  0  0  0  0  0  0
   37.9280   25.7780   39.9290 H   0  0  0  0  0  0  0  0  0  0  0  0
   38.5730   28.4470   39.3050 H   0  0  0  0  0  0  0  0  0  0  0  0
   37.8390   27.8230   41.2210 C   0  0  0  0  0  0  0  0  0  0  0  0
   36.6750   27.8310   41.9720 C   0  0  0  0  0  0  0  0  0  0  0  0
   35.6960   27.9250   41.5290 H   0  0  0  0  0  0  0  0  0  0  0  0
   36.7340   27.7140   43.3660 C   0  0  0  0  0  0  0  0  0  0  0  0
   35.8440   27.7150   44.0090 H   0  0  0  0  0  0  0  0  0  0  0  0
   38.0000   27.5910   43.9490 C   0  0  0  0  0  3  0  0  0  0  0  0
   39.1490   27.5860   43.1670 C   0  0  0  0  0  3  0  0  0  0  0  0
   39.0370   27.7010   41.8300 N   0  0  0  0  0  0  0  0  0  0  0  0
   38.7180   31.1240   38.5550 C   0  0  0  0  0  3  0  0  0  0  0  0
   37.7920   30.6030   39.3780 C   0  0  0  0  0  3  0  0  0  0  0  0
   40.3320   33.0890   38.5210 C   0  0  0  0  0  0  0  0  0  0  0  0
   39.8860   31.8630   39.0710 C   0  0  0  0  0  0  0  0  0  0  0  0
   40.5750   31.3040   40.1660 C   0  0  0  0  0  0  0  0  0  0  0  0
   41.6580   31.9840   40.6490 N   0  0  0  0  0  0  0  0  0  0  0  0
   42.0480   33.1310   40.1090 C   0  0  0  0  0  0  0  0  0  0  0  0
   41.3840   33.6630   39.0570 N   0  0  0  0  0  0  0  0  0  0  0  0
   39.7530   33.4610   37.6780 H   0  0  0  0  0  0  0  0  0  0  0  0
   40.2730   30.3830   40.6120 H   0  0  0  0  0  0  0  0  0  0  0  0
   44.5480   32.9110   38.9520 F   0  0  0  0  0  0  0  0  0  0  0  0
   44.4480   33.6980   40.0440 C   0  0  0  0  0  0  0  0  0  0  0  0
   43.2050   33.8280   40.6480 C   0  0  0  0  0  0  0  0  0  0  0  0
   43.0180   34.6180   41.7740 C   0  0  0  0  0  0  0  0  0  0  0  0
   44.1290   35.2850   42.2900 C   0  0  0  0  0  0  0  0  0  0  0  0
   45.3890   35.1670   41.6960 C   0  0  0  0  0  0  0  0  0  0  0  0
   45.5470   34.3670   40.5660 C   0  0  0  0  0  0  0  0  0  0  0  0
   42.0330   34.7010   42.2260 H   0  0  0  0  0  0  0  0  0  0  0  0
   43.9720   35.8980   43.1670 H   0  0  0  0  0  0  0  0  0  0  0  0
   46.2170   35.7010   42.1290 H   0  0  0  0  0  0  0  0  0  0  0  0
   46.5170   34.2810   40.1160 H   0  0  0  0  0  0  0  0  0  0  0  0
  1  3  1  0  0  0  0
  1  4  1  0  0  0  0
  1 25  1  0  0  0  0
  2  1  1  0  0  0  0
  4  8  1  0  0  0  0
  5  6  1  0  0  0  0
  5 10  1  0  0  0  0
  5  4  1  0  0  0  0
  6  7  1  0  0  0  0
  6 11  1  0  0  0  0
  7  8  1  0  0  0  0
  7 14  1  0  0  0  0
  8 15  1  6  0  0  0
  8 16  1  0  0  0  0
  9  5  1  0  0  0  0
 12  6  1  0  0  0  0
 13  7  1  0  0  0  0
 16 23  2  0  0  0  0
 16 17  1  0  0  0  0
 17 19  2  0  0  0  0
 18 17  1  0  0  0  0
 19 21  1  0  0  0  0
 19 20  1  0  0  0  0
 22 21  2  0  0  0  0
 23 22  1  0  0  0  0
 24 27  1  0  0  0  0
 24 25  2  0  0  0  0
 26 31  2  0  0  0  0
 26 27  1  0  0  0  0
 27 28  2  0  0  0  0
 28 33  1  0  0  0  0
 28 29  1  0  0  0  0
 30 36  1  0  0  0  0
 30 29  2  0  0  0  0
 31 30  1  0  0  0  0
 32 26  1  0  0  0  0
 34 35  1  0  0  0  0
 35 40  2  0  0  0  0
 35 36  1  0  0  0  0
 36 37  2  0  0  0  0
 37 41  1  0  0  0  0
 37 38  1  0  0  0  0
 38 42  1  0  0  0  0
 39 43  1  0  0  0  0
 39 38  2  0  0  0  0
 40 39  1  0  0  0  0
 44 40  1  0  0  0  0
M  END
>  <minimizedAffinity>
-5.45152998

$$$$

 OpenBabel03252501523D

 44 47  0  0  1  0  0  0  0  0999 V2000
   38.1570   29.2440   40.9380 C   0  0  0  0  0  0  0  0  0  0  0  0
   38.0610   30.2650   41.3990 H   0  0  0  0  0  0  0  0  0  0  0  0
   39.1200   29.2230   40.3720 H   0  0  0  0  0  0  0  0  0  0  0  0
   38.1080   28.2880   41.9900 N   0  0  0  0  0  0  0  0  0  0  0  0
   38.0780   28.8950   43.2770 C   0  0  0  0  0  0  0  0  0  0  0  0
   37.2010   28.0520   44.1780 C   0  0  0  0  0  0  0  0  0  0  0  0
   36.3220   27.3310   43.2130 C   0  0  0  0  0  0  0  0  0  0  0  0
   37.0140   27.3750   41.8610 C   0  0  2  0  0  0  0  0  0  0  0  0
   37.7360   29.9500   43.3020 H   0  0  0  0  0  0  0  0  0  0  0  0
   39.1360   28.8720   43.6670 H   0  0  0  0  0  0  0  0  0  0  0  0
   37.8320   27.4340   44.8170 H   0  0  0  0  0  0  0  0  0  0  0  0
   36.6260   28.7380   44.8510 H   0  0  0  0  0  0  0  0  0  0  0  0
   35.3440   27.8540   43.1850 H   0  0  0  0  0  0  0  0  0  0  0  0
   36.1450   26.2930   43.5640 H   0  0  0  0  0  0  0  0  0  0  0  0
   36.2580   27.6830   41.1180 H   0  0  0  0  0  0  0  0  0  0  0  0
   37.4780   25.9760   41.5680 C   0  0  0  0  0  0  0  0  0  0  0  0
   38.7130   25.6100   42.0780 C   0  0  0  0  0  0  0  0  0  0  0  0
   39.3270   26.2810   42.6580 H   0  0  0  0  0  0  0  0  0  0  0  0
   39.2160   24.3230   41.8500 C   0  0  0  0  0  0  0  0  0  0  0  0
   40.1870   23.9810   42.2290 H   0  0  0  0  0  0  0  0  0  0  0  0
   38.4260   23.4470   41.0990 C   0  0  0  0  0  3  0  0  0  0  0  0
   37.1910   23.8460   40.6020 C   0  0  0  0  0  3  0  0  0  0  0  0
   36.7520   25.0940   40.8500 N   0  0  0  0  0  0  0  0  0  0  0  0
   37.1490   29.3130   38.6900 C   0  0  0  0  0  3  0  0  0  0  0  0
   36.9700   29.1440   40.0110 C   0  0  0  0  0  3  0  0  0  0  0  0
   36.1870   29.3600   36.3380 C   0  0  0  0  0  0  0  0  0  0  0  0
   36.0280   29.2250   37.7380 C   0  0  0  0  0  0  0  0  0  0  0  0
   34.7420   28.9950   38.2690 C   0  0  0  0  0  0  0  0  0  0  0  0
   33.6980   28.9120   37.3910 N   0  0  0  0  0  0  0  0  0  0  0  0
   33.8840   29.0430   36.0840 C   0  0  0  0  0  0  0  0  0  0  0  0
   35.1200   29.2650   35.5790 N   0  0  0  0  0  0  0  0  0  0  0  0
   37.2060   29.5360   35.9990 H   0  0  0  0  0  0  0  0  0  0  0  0
   34.5760   28.8860   39.3170 H   0  0  0  0  0  0  0  0  0  0  0  0
   33.0270   26.6180   35.0730 F   0  0  0  0  0  0  0  0  0  0  0  0
   32.3430   27.7170   34.6880 C   0  0  0  0  0  0  0  0  0  0  0  0
   32.7510   28.9500   35.1780 C   0  0  0  0  0  0  0  0  0  0  0  0
   32.1000   30.1260   34.8300 C   0  0  0  0  0  0  0  0  0  0  0  0
   31.0130   30.0340   33.9610 C   0  0  0  0  0  0  0  0  0  0  0  0
   30.5880   28.8020   33.4570 C   0  0  0  0  0  0  0  0  0  0  0  0
   31.2590   27.6360   33.8240 C   0  0  0  0  0  0  0  0  0  0  0  0
   32.4420   31.0770   35.2300 H   0  0  0  0  0  0  0  0  0  0  0  0
   30.5140   30.9560   33.6970 H   0  0  0  0  0  0  0  0  0  0  0  0
   29.7440   28.7790   32.7900 H   0  0  0  0  0  0  0  0  0  0  0  0
   30.9270   26.6940   33.4320 H   0  0  0  0  0  0  0  0  0  0  0  0
  1  2  1  0  0  0  0
  1  4  1  0  0  0  0
  3  1  1  0  0  0  0
  4  5  1  0  0  0  0
  5  9  1  0  0  0  0
  5 10  1  0  0  0  0
  5  6  1  0  0  0  0
  6 11  1  0  0  0  0
  6 12  1  0  0  0  0
  7 14  1  0  0  0  0
  7  6  1  0  0  0  0
  8 15  1  6  0  0  0
  8  4  1  0  0  0  0
  8  7  1  0  0  0  0
 13  7  1  0  0  0  0
 16  8  1  0  0  0  0
 16 17  1  0  0  0  0
 17 18  1  0  0  0  0
 19 17  2  0  0  0  0
 19 20  1  0  0  0  0
 21 19  1  0  0  0  0
 22 23  1  0  0  0  0
 22 21  2  0  0  0  0
 23 16  2  0  0  0  0
 24 25  2  0  0  0  0
 25  1  1  0  0  0  0
 26 27  1  0  0  0  0
 27 28  2  0  0  0  0
 27 24  1  0  0  0  0
 28 33  1  0  0  0  0
 29 28  1  0  0  0  0
 30 29  2  0  0  0  0
 31 30  1  0  0  0  0
 31 26  2  0  0  0  0
 32 26  1  0  0  0  0
 35 34  1  0  0  0  0
 35 36  1  0  0  0  0
 36 30  1  0  0  0  0
 37 36  2  0  0  0  0
 37 41  1  0  0  0  0
 38 37  1  0  0  0  0
 39 40  1  0  0  0  0
 39 38  2  0  0  0  0
 40 35  2  0  0  0  0
 42 38  1  0  0  0  0
 43 39  1  0  0  0  0
 44 40  1  0  0  0  0
M  END
>  <minimizedAffinity>
-5.42936182

$$$$
