
 OpenBabel03252505333D

 29 31  0  0  0  0  0  0  0  0999 V2000
   46.5640   34.7560   42.1290 C   0  0  0  0  0  0  0  0  0  0  0  0
   47.8760   35.1840   42.0290 C   0  0  0  0  0  0  0  0  0  0  0  0
   48.6270   34.9970   40.8630 C   0  0  0  0  0  0  0  0  0  0  0  0
   48.0600   34.3700   39.7700 C   0  0  0  0  0  0  0  0  0  0  0  0
   46.7490   33.9500   39.8870 C   0  0  0  0  0  0  0  0  0  0  0  0
   46.0250   34.1390   41.0350 C   0  0  0  0  0  0  0  0  0  0  0  0
   48.3820   35.6810   42.8460 H   0  0  0  0  0  0  0  0  0  0  0  0
   49.6610   35.3390   40.7950 H   0  0  0  0  0  0  0  0  0  0  0  0
   48.5800   34.1930   38.8370 H   0  0  0  0  0  0  0  0  0  0  0  0
   46.3020   33.4620   39.0420 H   0  0  0  0  0  0  0  0  0  0  0  0
   44.4120   36.2360   44.8310 C   0  0  0  0  0  0  0  0  0  0  0  0
   45.0530   36.1050   43.5870 C   0  0  0  0  0  0  0  0  0  0  0  0
   45.8640   34.9860   43.3560 C   0  0  0  0  0  0  0  0  0  0  0  0
   46.0030   34.0630   44.3490 N   0  0  0  0  0  0  0  0  0  0  0  0
   45.3630   34.2320   45.5410 C   0  0  0  0  0  0  0  0  0  0  0  0
   44.5750   35.3080   45.7800 N   0  0  0  0  0  0  0  0  0  0  0  0
   45.5160   33.2710   46.5720 N   0  0  0  0  0  0  0  0  0  0  0  0
   43.8120   37.1240   44.9170 H   0  0  0  0  0  0  0  0  0  0  0  0
   44.9600   36.8250   42.7800 H   0  0  0  0  0  0  0  0  0  0  0  0
   44.7460   33.1340   47.2480 H   0  0  0  0  0  0  0  0  0  0  0  0
   46.3980   32.7030   46.6550 H   0  0  0  0  0  0  0  0  0  0  0  0
   44.6490   33.6590   41.0520 C   0  0  0  0  0  0  0  0  0  0  0  0
   44.0930   32.5020   41.5550 C   0  0  0  0  0  0  0  0  0  0  0  0
   44.8520   31.8690   42.0010 H   0  0  0  0  0  0  0  0  0  0  0  0
   42.7520   32.2780   41.4530 C   0  0  0  0  0  0  0  0  0  0  0  0
   42.4130   31.3440   41.8760 H   0  0  0  0  0  0  0  0  0  0  0  0
   41.9290   33.1940   40.8500 C   0  0  0  0  0  0  0  0  0  0  0  0
   42.4810   34.3430   40.3530 C   0  0  0  0  0  0  0  0  0  0  0  0
   43.8220   34.5650   40.4550 N   0  0  0  0  0  0  0  0  0  0  0  0
  1 13  1  0  0  0  0
  2  1  1  0  0  0  0
  2  7  1  0  0  0  0
  3  2  2  0  0  0  0
  4  5  2  0  0  0  0
  4  3  1  0  0  0  0
  5  6  1  0  0  0  0
  6 22  1  0  0  0  0
  6  1  2  0  0  0  0
  8  3  1  0  0  0  0
  9  4  1  0  0  0  0
 10  5  1  0  0  0  0
 11 18  1  0  0  0  0
 11 16  1  0  0  0  0
 12 11  2  0  0  0  0
 13 12  1  0  0  0  0
 13 14  2  0  0  0  0
 14 15  1  0  0  0  0
 15 16  2  0  0  0  0
 15 17  1  0  0  0  0
 17 21  1  0  0  0  0
 17 20  1  0  0  0  0
 19 12  1  0  0  0  0
 22 23  1  0  0  0  0
 23 24  1  0  0  0  0
 25 23  2  0  0  0  0
 25 26  1  0  0  0  0
 27 25  1  0  0  0  0
 28 29  1  0  0  0  0
 28 27  2  0  0  0  0
 29 22  2  0  0  0  0
M  END
>  <minimizedAffinity>
-6.16983604

>  <minimizedRMSD>
0.919454992

$$$$
