
 OpenBabel03242520573D

 40 42  0  0  0  0  0  0  0  0999 V2000
   48.5740   31.2170   48.6830 C   0  0  0  0  0  0  0  0  0  0  0  0
   47.5280   32.0100   48.7620 C   0  0  0  0  0  0  0  0  0  0  0  0
   51.1580   31.9830   51.1470 C   0  0  0  0  0  0  0  0  0  0  0  0
   51.2640   30.7450   51.8460 C   0  0  0  0  0  0  0  0  0  0  0  0
   50.4800   29.6850   51.4630 C   0  0  0  0  0  0  0  0  0  0  0  0
   49.6570   29.9160   50.4430 N   0  0  0  0  0  0  0  0  0  0  0  0
   49.5340   31.0590   49.7770 C   0  0  0  0  0  0  0  0  0  0  0  0
   50.2930   32.1090   50.1270 N   0  0  0  0  0  0  0  0  0  0  0  0
   51.7220   32.8850   51.3480 H   0  0  0  0  0  0  0  0  0  0  0  0
   52.2030   30.8760   52.9350 C   0  0  0  0  0  0  0  0  0  0  0  0
   51.9130   30.9320   54.2780 C   0  0  0  0  0  0  0  0  0  0  0  0
   50.8520   30.8140   54.5690 H   0  0  0  0  0  0  0  0  0  0  0  0
   52.7590   31.1320   55.3430 C   0  0  0  0  0  0  0  0  0  0  0  0
   52.4040   31.1540   56.3630 H   0  0  0  0  0  0  0  0  0  0  0  0
   54.0890   31.3030   55.0330 C   0  0  0  0  0  0  0  0  0  0  0  0
   54.4150   31.2540   53.7020 C   0  0  0  0  0  0  0  0  0  0  0  0
   53.5160   31.0550   52.7500 N   0  0  0  0  0  0  0  0  0  0  0  0
   50.5590   28.5020   52.0850 O   0  0  0  0  0  0  0  0  0  0  0  0
   51.5280   27.5500   51.6070 C   0  0  0  0  0  0  0  0  0  0  0  0
   52.0310   27.9860   50.3720 F   0  0  0  0  0  0  0  0  0  0  0  0
   52.5900   27.5870   52.5120 F   0  0  0  0  0  0  0  0  0  0  0  0
   51.0540   26.2520   51.5420 F   0  0  0  0  0  0  0  0  0  0  0  0
   46.5780   32.1410   47.6310 C   0  0  0  0  0  0  0  0  0  0  0  0
   46.3690   31.1260   47.3030 H   0  0  0  0  0  0  0  0  0  0  0  0
   45.6130   32.5170   48.0800 H   0  0  0  0  0  0  0  0  0  0  0  0
   46.5670   32.7780   45.3840 C   0  0  0  0  0  0  0  0  0  0  0  0
   45.8390   31.8800   44.8940 O   0  0  0  0  0  0  0  0  0  0  0  0
   47.0050   33.0680   46.6720 N   0  0  0  0  0  0  0  0  0  0  0  0
   47.5850   33.9050   46.8200 H   0  0  0  0  0  0  0  0  0  0  0  0
   44.8690   35.1410   44.4740 Cl  0  0  0  0  0  0  0  0  0  0  0  0
   46.2610   34.6080   43.5890 C   0  0  0  0  0  0  0  0  0  0  0  0
   46.8880   33.5340   44.1660 C   0  0  0  0  0  0  0  0  0  0  0  0
   48.0340   32.9780   43.5760 C   0  0  0  0  0  0  0  0  0  0  0  0
   48.5410   33.5200   42.3950 C   0  0  0  0  0  0  0  0  0  0  0  0
   47.8940   34.6030   41.8320 C   0  0  0  0  0  0  0  0  0  0  0  0
   48.4750   35.3280   40.3520 Cl  0  0  0  0  0  0  0  0  0  0  0  0
   46.7780   35.1260   42.4270 C   0  0  0  0  0  0  0  0  0  0  0  0
   48.6110   32.1380   43.9320 H   0  0  0  0  0  0  0  0  0  0  0  0
   49.4170   33.1320   41.9010 H   0  0  0  0  0  0  0  0  0  0  0  0
   46.2240   35.9780   42.0340 H   0  0  0  0  0  0  0  0  0  0  0  0
  1  2  2  0  0  0  0
  1  7  1  0  0  0  0
  3  9  1  0  0  0  0
  3  4  1  0  0  0  0
  4 10  1  0  0  0  0
  5  4  2  0  0  0  0
  5 18  1  0  0  0  0
  6  5  1  0  0  0  0
  7  8  1  0  0  0  0
  7  6  2  0  0  0  0
  8  3  2  0  0  0  0
 10 11  1  0  0  0  0
 11 12  1  0  0  0  0
 11 13  2  0  0  0  0
 13 14  1  0  0  0  0
 15 13  1  0  0  0  0
 16 15  2  0  0  0  0
 17 10  2  0  0  0  0
 17 16  1  0  0  0  0
 19 18  1  0  0  0  0
 19 21  1  0  0  0  0
 20 19  1  0  0  0  0
 22 19  1  0  0  0  0
 23 25  1  0  0  0  0
 23  2  1  0  0  0  0
 24 23  1  0  0  0  0
 26 28  1  0  0  0  0
 27 26  2  0  0  0  0
 28 29  1  0  0  0  0
 28 23  1  0  0  0  0
 31 32  1  0  0  0  0
 31 30  1  0  0  0  0
 32 26  1  0  0  0  0
 33 38  1  0  0  0  0
 33 32  2  0  0  0  0
 34 33  1  0  0  0  0
 35 34  2  0  0  0  0
 35 37  1  0  0  0  0
 36 35  1  0  0  0  0
 37 31  2  0  0  0  0
 39 34  1  0  0  0  0
 40 37  1  0  0  0  0
M  END
>  <minimizedAffinity>
-7.35450315

>  <minimizedRMSD>
0.495819122

$$$$
