
 OpenBabel03252501253D

 34 37  0  0  0  0  0  0  0  0999 V2000
   45.5730   32.3710   40.1200 F   0  0  0  0  0  0  0  0  0  0  0  0
   44.6340   33.3370   40.2230 C   0  0  0  0  0  0  0  0  0  0  0  0
   44.6060   34.1240   41.3390 C   0  0  0  0  0  0  0  0  0  0  0  0
   43.6420   35.1170   41.4480 C   0  0  0  0  0  0  0  0  0  0  0  0
   42.7060   35.3450   40.4740 C   0  0  0  0  0  0  0  0  0  0  0  0
   42.7620   34.5410   39.3690 C   0  0  0  0  0  0  0  0  0  0  0  0
   43.6970   33.5420   39.2130 C   0  0  0  0  0  0  0  0  0  0  0  0
   43.5930   35.7630   42.3270 H   0  0  0  0  0  0  0  0  0  0  0  0
   41.9430   36.1200   40.5420 H   0  0  0  0  0  0  0  0  0  0  0  0
   42.0370   34.6970   38.5840 H   0  0  0  0  0  0  0  0  0  0  0  0
   43.7920   32.6620   38.0530 C   0  0  0  0  0  0  0  0  0  0  0  0
   42.8280   31.7270   37.7400 C   0  0  0  0  0  0  0  0  0  0  0  0
   41.9510   31.6150   38.3600 H   0  0  0  0  0  0  0  0  0  0  0  0
   42.8640   30.8710   36.6590 C   0  0  0  0  0  0  0  0  0  0  0  0
   42.0830   30.1550   36.4570 H   0  0  0  0  0  0  0  0  0  0  0  0
   43.9470   30.9430   35.8110 C   0  0  0  0  0  0  0  0  0  0  0  0
   44.9040   31.8760   36.1260 C   0  0  0  0  0  0  0  0  0  0  0  0
   44.8260   32.6910   37.1930 N   0  0  0  0  0  0  0  0  0  0  0  0
   46.1470   33.4100   44.4150 C   0  0  0  0  0  0  0  0  0  0  0  0
   47.1710   34.0850   43.7590 C   0  0  0  0  0  0  0  0  0  0  0  0
   46.7530   34.4500   42.5200 C   0  0  0  0  0  0  0  0  0  0  0  0
   45.4930   34.0100   42.4130 N   0  0  0  0  0  0  0  0  0  0  0  0
   45.1430   33.3900   43.5510 N   0  0  0  0  0  0  0  0  0  0  0  0
   48.1430   34.2850   44.1680 H   0  0  0  0  0  0  0  0  0  0  0  0
   47.2890   34.9930   41.7310 H   0  0  0  0  0  0  0  0  0  0  0  0
   47.2760   31.5060   47.3250 C   0  0  0  0  0  0  0  0  0  0  0  0
   46.3550   31.8870   48.3220 C   0  0  0  0  0  0  0  0  0  0  0  0
   45.3460   32.8060   47.9710 C   0  0  0  0  0  0  0  0  0  0  0  0
   45.3560   33.2430   46.6910 N   0  0  0  0  0  0  0  0  0  0  0  0
   46.2350   32.8730   45.7570 C   0  0  0  0  0  0  0  0  0  0  0  0
   47.2090   31.9970   46.0640 N   0  0  0  0  0  0  0  0  0  0  0  0
   48.0260   30.7980   47.6540 H   0  0  0  0  0  0  0  0  0  0  0  0
   46.4240   31.4830   49.3250 H   0  0  0  0  0  0  0  0  0  0  0  0
   44.6280   33.1200   48.6970 H   0  0  0  0  0  0  0  0  0  0  0  0
  1  2  1  0  0  0  0
  2  3  1  0  0  0  0
  3  4  2  0  0  0  0
  3 22  1  0  0  0  0
  4  8  1  0  0  0  0
  5  9  1  0  0  0  0
  5  4  1  0  0  0  0
  6  5  2  0  0  0  0
  7  6  1  0  0  0  0
  7  2  2  0  0  0  0
 10  6  1  0  0  0  0
 11  7  1  0  0  0  0
 12 11  1  0  0  0  0
 12 13  1  0  0  0  0
 14 12  2  0  0  0  0
 15 14  1  0  0  0  0
 16 17  2  0  0  0  0
 16 14  1  0  0  0  0
 17 18  1  0  0  0  0
 18 11  2  0  0  0  0
 19 30  1  0  0  0  0
 20 24  1  0  0  0  0
 20 19  1  0  0  0  0
 21 20  2  0  0  0  0
 22 21  1  0  0  0  0
 22 23  1  0  0  0  0
 23 19  2  0  0  0  0
 25 21  1  0  0  0  0
 26 32  1  0  0  0  0
 26 27  1  0  0  0  0
 27 33  1  0  0  0  0
 28 27  2  0  0  0  0
 28 34  1  0  0  0  0
 29 28  1  0  0  0  0
 30 31  1  0  0  0  0
 30 29  2  0  0  0  0
 31 26  2  0  0  0  0
M  END
>  <minimizedAffinity>
-5.13210964

>  <minimizedRMSD>
0.675869584

$$$$
