
 OpenBabel03242511523D

 33 37  0  0  1  0  0  0  0  0999 V2000
   36.8570   30.8500   40.8110 C   0  0  1  0  0  0  0  0  0  0  0  0
   35.7130   30.3820   40.9630 O   0  0  0  0  0  0  0  0  0  0  0  0
   36.7780   29.4390   41.1880 C   0  0  2  0  0  0  0  0  0  0  0  0
   37.4520   29.1700   42.5360 C   0  0  0  0  0  0  0  0  0  0  0  0
   37.8320   28.4620   41.3470 C   0  0  1  0  0  0  0  0  0  0  0  0
   37.0010   31.4780   41.8030 H   0  0  0  0  0  0  0  0  0  0  0  0
   38.1460   29.9050   42.9730 H   0  0  0  0  0  0  0  0  0  0  0  0
   36.7250   28.7420   43.2530 H   0  0  0  0  0  0  0  0  0  0  0  0
   38.7730   28.7760   40.8100 H   0  0  0  0  0  0  0  0  0  0  0  0
   37.4090   27.0380   41.2460 C   0  0  0  0  0  0  0  0  0  0  0  0
   37.3330   26.1370   42.2900 C   0  0  0  0  0  0  0  0  0  0  0  0
   37.6160   26.5330   43.2750 H   0  0  0  0  0  0  0  0  0  0  0  0
   36.9400   24.8450   42.1440 C   0  0  0  0  0  0  0  0  0  0  0  0
   36.8970   24.1810   42.9920 H   0  0  0  0  0  0  0  0  0  0  0  0
   36.6030   24.4310   40.8760 C   0  0  0  0  0  3  0  0  0  0  0  0
   36.6680   25.3060   39.8140 C   0  0  0  0  0  3  0  0  0  0  0  0
   37.0640   26.5780   40.0100 N   0  0  0  0  0  0  0  0  0  0  0  0
   37.5030   31.9910   38.5890 C   0  0  1  0  0  0  0  0  0  0  0  0
   36.9370   32.0130   39.9060 C   0  0  2  0  0  0  0  0  0  0  0  0
   38.3230   32.4790   39.6820 C   0  0  0  0  0  0  0  0  0  0  0  0
   37.0830   32.7440   37.8570 H   0  0  0  0  0  0  0  0  0  0  0  0
   36.2320   32.8690   40.1330 H   0  0  0  0  0  0  0  0  0  0  0  0
   39.2110   31.8830   40.0230 H   0  0  0  0  0  0  0  0  0  0  0  0
   38.5830   33.5730   39.7320 H   0  0  0  0  0  0  0  0  0  0  0  0
   39.0420   30.2040   37.9680 C   0  0  0  0  0  0  0  0  0  0  0  0
   37.7480   30.7010   37.9320 C   0  0  0  0  0  0  0  0  0  0  0  0
   36.7190   29.9670   37.3350 C   0  0  0  0  0  0  0  0  0  0  0  0
   37.0760   28.7500   36.8060 N   0  0  0  0  0  0  0  0  0  0  0  0
   38.3330   28.2710   36.8460 C   0  0  0  0  0  0  0  0  0  0  0  0
   39.3170   29.0090   37.4330 N   0  0  0  0  0  0  0  0  0  0  0  0
   39.8740   30.7480   38.4240 H   0  0  0  0  0  0  0  0  0  0  0  0
   35.7250   30.3540   37.3080 H   0  0  0  0  0  0  0  0  0  0  0  0
   38.5290   27.3070   36.4080 H   0  0  0  0  0  0  0  0  0  0  0  0
  1  2  1  0  0  0  0
  1  3  1  0  0  0  0
  1  6  1  1  0  0  0
  3  2  1  6  0  0  0
  3  5  1  0  0  0  0
  3  4  1  0  0  0  0
  4  7  1  0  0  0  0
  4  8  1  0  0  0  0
  5  9  1  6  0  0  0
  5  4  1  0  0  0  0
 10  5  1  0  0  0  0
 10 11  1  0  0  0  0
 11 12  1  0  0  0  0
 13 11  2  0  0  0  0
 13 14  1  0  0  0  0
 15 13  1  0  0  0  0
 16 17  1  0  0  0  0
 16 15  2  0  0  0  0
 17 10  2  0  0  0  0
 18 21  1  6  0  0  0
 18 20  1  0  0  0  0
 18 19  1  0  0  0  0
 19 22  1  1  0  0  0
 19  1  1  0  0  0  0
 20 24  1  0  0  0  0
 20 19  1  0  0  0  0
 20 23  1  0  0  0  0
 25 31  1  0  0  0  0
 26 25  1  0  0  0  0
 26 18  1  0  0  0  0
 27 26  2  0  0  0  0
 28 29  2  0  0  0  0
 28 27  1  0  0  0  0
 29 30  1  0  0  0  0
 30 25  2  0  0  0  0
 32 27  1  0  0  0  0
 33 29  1  0  0  0  0
M  END
>  <minimizedAffinity>
-5.19196653

$$$$

 OpenBabel03242511523D

 33 37  0  0  1  0  0  0  0  0999 V2000
   36.6150   30.8290   38.9310 C   0  0  1  0  0  0  0  0  0  0  0  0
   36.5070   29.9250   38.0810 O   0  0  0  0  0  0  0  0  0  0  0  0
   36.3990   29.4770   39.4460 C   0  0  2  0  0  0  0  0  0  0  0  0
   35.0970   29.3720   40.2430 C   0  0  0  0  0  0  0  0  0  0  0  0
   36.3610   29.0010   40.8100 C   0  0  1  0  0  0  0  0  0  0  0  0
   35.5600   31.3590   38.8630 H   0  0  0  0  0  0  0  0  0  0  0  0
   34.5860   30.2770   40.6050 H   0  0  0  0  0  0  0  0  0  0  0  0
   34.4260   28.6160   39.7890 H   0  0  0  0  0  0  0  0  0  0  0  0
   36.8680   29.7210   41.5150 H   0  0  0  0  0  0  0  0  0  0  0  0
   36.6180   27.5460   40.9900 C   0  0  0  0  0  0  0  0  0  0  0  0
   36.9910   26.9260   42.1680 C   0  0  0  0  0  0  0  0  0  0  0  0
   37.1000   27.5910   43.0350 H   0  0  0  0  0  0  0  0  0  0  0  0
   37.2140   25.5920   42.2790 C   0  0  0  0  0  0  0  0  0  0  0  0
   37.5040   25.1560   43.2220 H   0  0  0  0  0  0  0  0  0  0  0  0
   37.0550   24.8310   41.1440 C   0  0  0  0  0  3  0  0  0  0  0  0
   36.6840   25.4190   39.9540 C   0  0  0  0  0  3  0  0  0  0  0  0
   36.4740   26.7480   39.8940 N   0  0  0  0  0  0  0  0  0  0  0  0
   38.5870   32.4840   39.1050 C   0  0  1  0  0  0  0  0  0  0  0  0
   37.3830   32.0090   38.4870 C   0  0  2  0  0  0  0  0  0  0  0  0
   37.3330   33.1290   39.4530 C   0  0  0  0  0  0  0  0  0  0  0  0
   39.3050   33.0390   38.4290 H   0  0  0  0  0  0  0  0  0  0  0  0
   37.1960   32.3540   37.4260 H   0  0  0  0  0  0  0  0  0  0  0  0
   36.9090   33.0040   40.4840 H   0  0  0  0  0  0  0  0  0  0  0  0
   37.1410   34.1830   39.1090 H   0  0  0  0  0  0  0  0  0  0  0  0
   39.1330   31.8400   41.3930 C   0  0  0  0  0  0  0  0  0  0  0  0
   39.3110   31.6110   40.0370 C   0  0  0  0  0  0  0  0  0  0  0  0
   40.1100   30.5550   39.5910 C   0  0  0  0  0  0  0  0  0  0  0  0
   40.6860   29.7810   40.5700 N   0  0  0  0  0  0  0  0  0  0  0  0
   40.5090   30.0060   41.8860 C   0  0  0  0  0  0  0  0  0  0  0  0
   39.7250   31.0450   42.2920 N   0  0  0  0  0  0  0  0  0  0  0  0
   38.5170   32.6560   41.7820 H   0  0  0  0  0  0  0  0  0  0  0  0
   40.2460   30.3830   38.5480 H   0  0  0  0  0  0  0  0  0  0  0  0
   40.9960   29.3520   42.5890 H   0  0  0  0  0  0  0  0  0  0  0  0
  1  6  1  1  0  0  0
  1  3  1  0  0  0  0
  2  1  1  0  0  0  0
  3  2  1  6  0  0  0
  3  4  1  0  0  0  0
  3  5  1  0  0  0  0
  4  7  1  0  0  0  0
  4  5  1  0  0  0  0
  5 10  1  0  0  0  0
  5  9  1  1  0  0  0
  8  4  1  0  0  0  0
 10 11  1  0  0  0  0
 11 13  2  0  0  0  0
 11 12  1  0  0  0  0
 13 14  1  0  0  0  0
 15 13  1  0  0  0  0
 16 15  2  0  0  0  0
 17 16  1  0  0  0  0
 17 10  2  0  0  0  0
 18 21  1  6  0  0  0
 18 20  1  0  0  0  0
 18 26  1  0  0  0  0
 19 22  1  6  0  0  0
 19  1  1  0  0  0  0
 19 18  1  0  0  0  0
 19 20  1  0  0  0  0
 20 23  1  0  0  0  0
 24 20  1  0  0  0  0
 25 31  1  0  0  0  0
 25 30  1  0  0  0  0
 26 25  2  0  0  0  0
 27 26  1  0  0  0  0
 27 28  2  0  0  0  0
 28 29  1  0  0  0  0
 29 30  2  0  0  0  0
 29 33  1  0  0  0  0
 32 27  1  0  0  0  0
M  END
>  <minimizedAffinity>
-5.07108593

$$$$

 OpenBabel03242511523D

 33 37  0  0  1  0  0  0  0  0999 V2000
   37.2550   31.0380   40.9610 C   0  0  1  0  0  0  0  0  0  0  0  0
   36.2380   30.4940   41.4330 O   0  0  0  0  0  0  0  0  0  0  0  0
   37.4290   29.6870   41.4930 C   0  0  2  0  0  0  0  0  0  0  0  0
   38.4190   29.6570   42.6590 C   0  0  0  0  0  0  0  0  0  0  0  0
   38.5980   28.8360   41.4970 C   0  0  1  0  0  0  0  0  0  0  0  0
   37.5460   31.8010   41.8160 H   0  0  0  0  0  0  0  0  0  0  0  0
   39.1040   30.5000   42.8360 H   0  0  0  0  0  0  0  0  0  0  0  0
   37.9310   29.2630   43.5720 H   0  0  0  0  0  0  0  0  0  0  0  0
   39.3480   29.1590   40.7180 H   0  0  0  0  0  0  0  0  0  0  0  0
   38.3320   27.3790   41.6520 C   0  0  0  0  0  0  0  0  0  0  0  0
   37.1590   26.8120   42.1110 C   0  0  0  0  0  0  0  0  0  0  0  0
   36.3670   27.5220   42.3800 H   0  0  0  0  0  0  0  0  0  0  0  0
   36.9670   25.4730   42.2340 C   0  0  0  0  0  0  0  0  0  0  0  0
   36.0320   25.0790   42.5980 H   0  0  0  0  0  0  0  0  0  0  0  0
   38.0120   24.6530   41.8750 C   0  0  0  0  0  3  0  0  0  0  0  0
   39.1950   25.1890   41.4120 C   0  0  0  0  0  3  0  0  0  0  0  0
   39.3370   26.5240   41.3080 N   0  0  0  0  0  0  0  0  0  0  0  0
   37.2970   31.9560   38.5500 C   0  0  1  0  0  0  0  0  0  0  0  0
   36.9890   32.0760   39.9460 C   0  0  2  0  0  0  0  0  0  0  0  0
   38.2240   32.6810   39.3990 C   0  0  0  0  0  0  0  0  0  0  0  0
   36.6400   32.5500   37.8460 H   0  0  0  0  0  0  0  0  0  0  0  0
   36.2200   32.8580   40.2220 H   0  0  0  0  0  0  0  0  0  0  0  0
   39.2390   32.2510   39.6120 H   0  0  0  0  0  0  0  0  0  0  0  0
   38.3220   33.7960   39.2840 H   0  0  0  0  0  0  0  0  0  0  0  0
   36.5410   29.8640   37.5480 C   0  0  0  0  0  0  0  0  0  0  0  0
   37.6060   30.6340   37.9910 C   0  0  0  0  0  0  0  0  0  0  0  0
   38.9200   30.1780   37.8560 C   0  0  0  0  0  0  0  0  0  0  0  0
   39.0720   28.9460   37.2650 N   0  0  0  0  0  0  0  0  0  0  0  0
   38.0350   28.2030   36.8350 C   0  0  0  0  0  0  0  0  0  0  0  0
   36.7640   28.6730   36.9820 N   0  0  0  0  0  0  0  0  0  0  0  0
   35.4990   30.1860   37.6370 H   0  0  0  0  0  0  0  0  0  0  0  0
   39.7370   30.7720   38.1990 H   0  0  0  0  0  0  0  0  0  0  0  0
   38.2400   27.2480   36.3820 H   0  0  0  0  0  0  0  0  0  0  0  0
  1  2  1  0  0  0  0
  1  3  1  0  0  0  0
  1  6  1  1  0  0  0
  3  2  1  1  0  0  0
  3  5  1  0  0  0  0
  3  4  1  0  0  0  0
  4  7  1  0  0  0  0
  4  8  1  0  0  0  0
  5  9  1  6  0  0  0
  5 10  1  0  0  0  0
  5  4  1  0  0  0  0
 10 11  1  0  0  0  0
 11 13  2  0  0  0  0
 11 12  1  0  0  0  0
 13 14  1  0  0  0  0
 15 13  1  0  0  0  0
 16 15  2  0  0  0  0
 17 16  1  0  0  0  0
 17 10  2  0  0  0  0
 18 21  1  6  0  0  0
 18 20  1  0  0  0  0
 18 19  1  0  0  0  0
 19 22  1  1  0  0  0
 19  1  1  0  0  0  0
 20 23  1  0  0  0  0
 20 19  1  0  0  0  0
 24 20  1  0  0  0  0
 25 31  1  0  0  0  0
 25 26  1  0  0  0  0
 26 18  1  0  0  0  0
 27 26  2  0  0  0  0
 27 32  1  0  0  0  0
 28 27  1  0  0  0  0
 29 30  1  0  0  0  0
 29 28  2  0  0  0  0
 30 25  2  0  0  0  0
 33 29  1  0  0  0  0
M  END
>  <minimizedAffinity>
-5.06783009

$$$$

 OpenBabel03242511523D

 33 37  0  0  1  0  0  0  0  0999 V2000
   36.7220   27.5300   42.0550 C   0  0  1  0  0  0  0  0  0  0  0  0
   36.6510   28.3690   42.9720 O   0  0  0  0  0  0  0  0  0  0  0  0
   36.8040   28.9350   41.6560 C   0  0  2  0  0  0  0  0  0  0  0  0
   35.6570   29.3300   40.7240 C   0  0  0  0  0  0  0  0  0  0  0  0
   37.0300   29.5160   40.3520 C   0  0  1  0  0  0  0  0  0  0  0  0
   35.5950   27.1900   41.9420 H   0  0  0  0  0  0  0  0  0  0  0  0
   35.0570   28.5620   40.2130 H   0  0  0  0  0  0  0  0  0  0  0  0
   35.0650   30.1550   41.1680 H   0  0  0  0  0  0  0  0  0  0  0  0
   37.5020   28.7750   39.6430 H   0  0  0  0  0  0  0  0  0  0  0  0
   37.5460   30.9120   40.3510 C   0  0  0  0  0  0  0  0  0  0  0  0
   36.9920   31.9830   39.6770 C   0  0  0  0  0  0  0  0  0  0  0  0
   36.0890   31.7570   39.0960 H   0  0  0  0  0  0  0  0  0  0  0  0
   37.5040   33.2410   39.7100 C   0  0  0  0  0  0  0  0  0  0  0  0
   37.0340   34.0430   39.1660 H   0  0  0  0  0  0  0  0  0  0  0  0
   38.6390   33.4370   40.4620 C   0  0  0  0  0  3  0  0  0  0  0  0
   39.2150   32.3890   41.1470 C   0  0  0  0  0  3  0  0  0  0  0  0
   38.6700   31.1600   41.0830 N   0  0  0  0  0  0  0  0  0  0  0  0
   38.5880   25.7820   42.4070 C   0  0  1  0  0  0  0  0  0  0  0  0
   37.2180   26.2010   42.4660 C   0  0  2  0  0  0  0  0  0  0  0  0
   37.7000   25.3860   41.3290 C   0  0  0  0  0  0  0  0  0  0  0  0
   38.8990   24.9980   43.1600 H   0  0  0  0  0  0  0  0  0  0  0  0
   36.5440   25.6110   43.1560 H   0  0  0  0  0  0  0  0  0  0  0  0
   37.8370   25.8210   40.3040 H   0  0  0  0  0  0  0  0  0  0  0  0
   37.4060   24.3040   41.2260 H   0  0  0  0  0  0  0  0  0  0  0  0
   40.0720   27.0430   40.9380 C   0  0  0  0  0  0  0  0  0  0  0  0
   39.6420   26.7890   42.2310 C   0  0  0  0  0  0  0  0  0  0  0  0
   40.1650   27.5080   43.3100 C   0  0  0  0  0  0  0  0  0  0  0  0
   41.1060   28.4600   43.0000 N   0  0  0  0  0  0  0  0  0  0  0  0
   41.5180   28.7050   41.7420 C   0  0  0  0  0  0  0  0  0  0  0  0
   40.9920   27.9870   40.7090 N   0  0  0  0  0  0  0  0  0  0  0  0
   39.6880   26.5020   40.0680 H   0  0  0  0  0  0  0  0  0  0  0  0
   39.8330   27.3090   44.3040 H   0  0  0  0  0  0  0  0  0  0  0  0
   42.2600   29.4690   41.5840 H   0  0  0  0  0  0  0  0  0  0  0  0
  1  6  1  6  0  0  0
  1 19  1  0  0  0  0
  1  2  1  0  0  0  0
  3  1  1  0  0  0  0
  3  2  1  1  0  0  0
  4  8  1  0  0  0  0
  4  3  1  0  0  0  0
  5  9  1  6  0  0  0
  5  4  1  0  0  0  0
  5  3  1  0  0  0  0
  7  4  1  0  0  0  0
 10  5  1  0  0  0  0
 10 17  1  0  0  0  0
 11 13  1  0  0  0  0
 11 10  2  0  0  0  0
 12 11  1  0  0  0  0
 13 15  2  0  0  0  0
 14 13  1  0  0  0  0
 15 16  1  0  0  0  0
 17 16  2  0  0  0  0
 18 19  1  0  0  0  0
 18 21  1  1  0  0  0
 19 22  1  1  0  0  0
 20 18  1  0  0  0  0
 20 19  1  0  0  0  0
 23 20  1  0  0  0  0
 24 20  1  0  0  0  0
 25 26  1  0  0  0  0
 26 18  1  0  0  0  0
 26 27  2  0  0  0  0
 27 32  1  0  0  0  0
 28 27  1  0  0  0  0
 29 28  2  0  0  0  0
 30 25  2  0  0  0  0
 30 29  1  0  0  0  0
 31 25  1  0  0  0  0
 33 29  1  0  0  0  0
M  END
>  <minimizedAffinity>
-5.03225088

$$$$

 OpenBabel03242511523D

 33 37  0  0  1  0  0  0  0  0999 V2000
   36.1980   27.6780   40.4380 C   0  0  1  0  0  0  0  0  0  0  0  0
   36.6480   26.5180   40.3650 O   0  0  0  0  0  0  0  0  0  0  0  0
   37.2440   27.3260   41.3980 C   0  0  2  0  0  0  0  0  0  0  0  0
   36.7470   27.4230   42.8430 C   0  0  0  0  0  0  0  0  0  0  0  0
   37.9020   28.1440   42.3920 C   0  0  1  0  0  0  0  0  0  0  0  0
   35.1530   27.5050   40.9660 H   0  0  0  0  0  0  0  0  0  0  0  0
   35.8250   27.9740   43.0840 H   0  0  0  0  0  0  0  0  0  0  0  0
   36.8420   26.4430   43.3510 H   0  0  0  0  0  0  0  0  0  0  0  0
   37.7950   29.2430   42.1610 H   0  0  0  0  0  0  0  0  0  0  0  0
   39.2280   27.6500   42.8540 C   0  0  0  0  0  0  0  0  0  0  0  0
   39.5180   26.3640   43.2670 C   0  0  0  0  0  0  0  0  0  0  0  0
   38.6750   25.6610   43.2420 H   0  0  0  0  0  0  0  0  0  0  0  0
   40.7490   25.9640   43.6800 C   0  0  0  0  0  0  0  0  0  0  0  0
   40.9240   24.9480   43.9920 H   0  0  0  0  0  0  0  0  0  0  0  0
   41.7490   26.9090   43.6800 C   0  0  0  0  0  3  0  0  0  0  0  0
   41.4920   28.2010   43.2730 C   0  0  0  0  0  3  0  0  0  0  0  0
   40.2540   28.5490   42.8720 N   0  0  0  0  0  0  0  0  0  0  0  0
   35.8640   29.5140   38.6560 C   0  0  1  0  0  0  0  0  0  0  0  0
   35.6240   28.2010   39.1830 C   0  0  2  0  0  0  0  0  0  0  0  0
   34.6400   29.2840   39.4030 C   0  0  0  0  0  0  0  0  0  0  0  0
   35.7930   29.6160   37.5320 H   0  0  0  0  0  0  0  0  0  0  0  0
   35.2480   27.4290   38.4470 H   0  0  0  0  0  0  0  0  0  0  0  0
   34.5020   29.7640   40.4080 H   0  0  0  0  0  0  0  0  0  0  0  0
   33.6540   29.2900   38.8610 H   0  0  0  0  0  0  0  0  0  0  0  0
   36.6720   31.2720   40.1410 C   0  0  0  0  0  0  0  0  0  0  0  0
   36.9750   30.3120   39.1880 C   0  0  0  0  0  0  0  0  0  0  0  0
   38.2990   30.0890   38.7970 C   0  0  0  0  0  0  0  0  0  0  0  0
   39.2480   30.8680   39.4140 N   0  0  0  0  0  0  0  0  0  0  0  0
   38.9490   31.7970   40.3400 C   0  0  0  0  0  0  0  0  0  0  0  0
   37.6490   31.9940   40.7010 N   0  0  0  0  0  0  0  0  0  0  0  0
   35.6500   31.4770   40.4730 H   0  0  0  0  0  0  0  0  0  0  0  0
   38.5280   29.3500   38.0620 H   0  0  0  0  0  0  0  0  0  0  0  0
   39.7530   32.3650   40.7760 H   0  0  0  0  0  0  0  0  0  0  0  0
  1  6  1  1  0  0  0
  1  3  1  0  0  0  0
  2  1  1  0  0  0  0
  3  2  1  6  0  0  0
  3  5  1  0  0  0  0
  3  4  1  0  0  0  0
  4  7  1  0  0  0  0
  4  8  1  0  0  0  0
  5  9  1  6  0  0  0
  5  4  1  0  0  0  0
  5 10  1  0  0  0  0
 10 17  2  0  0  0  0
 10 11  1  0  0  0  0
 11 13  2  0  0  0  0
 12 11  1  0  0  0  0
 13 14  1  0  0  0  0
 15 13  1  0  0  0  0
 16 15  2  0  0  0  0
 17 16  1  0  0  0  0
 18 21  1  6  0  0  0
 18 19  1  0  0  0  0
 18 26  1  0  0  0  0
 18 20  1  0  0  0  0
 19 22  1  6  0  0  0
 19 20  1  0  0  0  0
 19  1  1  0  0  0  0
 20 23  1  0  0  0  0
 24 20  1  0  0  0  0
 25 31  1  0  0  0  0
 25 30  1  0  0  0  0
 26 25  2  0  0  0  0
 27 26  1  0  0  0  0
 27 28  2  0  0  0  0
 28 29  1  0  0  0  0
 29 30  2  0  0  0  0
 29 33  1  0  0  0  0
 32 27  1  0  0  0  0
M  END
>  <minimizedAffinity>
-5.00764418

$$$$

 OpenBabel03242511523D

 33 37  0  0  1  0  0  0  0  0999 V2000
   39.1160   30.8660   40.5130 C   0  0  1  0  0  0  0  0  0  0  0  0
   39.3730   30.8680   39.2940 O   0  0  0  0  0  0  0  0  0  0  0  0
   37.9840   30.6510   39.6120 C   0  0  2  0  0  0  0  0  0  0  0  0
   36.9270   31.7480   39.7540 C   0  0  0  0  0  0  0  0  0  0  0  0
   36.6010   30.3610   39.9160 C   0  0  1  0  0  0  0  0  0  0  0  0
   39.1520   32.0190   40.7750 H   0  0  0  0  0  0  0  0  0  0  0  0
   36.9200   32.4120   40.6320 H   0  0  0  0  0  0  0  0  0  0  0  0
   36.7750   32.2660   38.7860 H   0  0  0  0  0  0  0  0  0  0  0  0
   36.4830   29.9530   40.9610 H   0  0  0  0  0  0  0  0  0  0  0  0
   35.8250   29.7180   38.8200 C   0  0  0  0  0  0  0  0  0  0  0  0
   34.6210   29.0540   38.9590 C   0  0  0  0  0  0  0  0  0  0  0  0
   34.2230   29.0120   39.9810 H   0  0  0  0  0  0  0  0  0  0  0  0
   33.9510   28.4840   37.9250 C   0  0  0  0  0  0  0  0  0  0  0  0
   33.0130   27.9760   38.0860 H   0  0  0  0  0  0  0  0  0  0  0  0
   34.5210   28.5830   36.6770 C   0  0  0  0  0  3  0  0  0  0  0  0
   35.7210   29.2390   36.5050 C   0  0  0  0  0  3  0  0  0  0  0  0
   36.3470   29.7890   37.5630 N   0  0  0  0  0  0  0  0  0  0  0  0
   40.1850   29.5510   42.4600 C   0  0  1  0  0  0  0  0  0  0  0  0
   40.2490   30.4990   41.3850 C   0  0  2  0  0  0  0  0  0  0  0  0
   40.0820   30.9640   42.7800 C   0  0  0  0  0  0  0  0  0  0  0  0
   41.1500   29.0160   42.7060 H   0  0  0  0  0  0  0  0  0  0  0  0
   41.2820   30.7290   40.9830 H   0  0  0  0  0  0  0  0  0  0  0  0
   39.1090   31.3820   43.1520 H   0  0  0  0  0  0  0  0  0  0  0  0
   40.9250   31.4680   43.3290 H   0  0  0  0  0  0  0  0  0  0  0  0
   39.1180   27.4500   41.8330 C   0  0  0  0  0  0  0  0  0  0  0  0
   39.0400   28.6360   42.5450 C   0  0  0  0  0  0  0  0  0  0  0  0
   37.9310   28.9130   43.3510 C   0  0  0  0  0  0  0  0  0  0  0  0
   36.9550   27.9460   43.3840 N   0  0  0  0  0  0  0  0  0  0  0  0
   37.0360   26.7940   42.6920 C   0  0  0  0  0  0  0  0  0  0  0  0
   38.1290   26.5520   41.9130 N   0  0  0  0  0  0  0  0  0  0  0  0
   39.9680   27.1970   41.1910 H   0  0  0  0  0  0  0  0  0  0  0  0
   37.8740   29.8270   43.8960 H   0  0  0  0  0  0  0  0  0  0  0  0
   36.2280   26.0880   42.7720 H   0  0  0  0  0  0  0  0  0  0  0  0
  1  6  1  1  0  0  0
  1 19  1  0  0  0  0
  2  1  1  0  0  0  0
  3  2  1  6  0  0  0
  3  4  1  0  0  0  0
  3  5  1  0  0  0  0
  3  1  1  0  0  0  0
  4  5  1  0  0  0  0
  4  7  1  0  0  0  0
  5  9  1  1  0  0  0
  8  4  1  0  0  0  0
 10 11  1  0  0  0  0
 10  5  1  0  0  0  0
 11 12  1  0  0  0  0
 13 14  1  0  0  0  0
 13 11  2  0  0  0  0
 15 13  1  0  0  0  0
 16 15  2  0  0  0  0
 16 17  1  0  0  0  0
 17 10  2  0  0  0  0
 18 26  1  0  0  0  0
 18 21  1  1  0  0  0
 18 20  1  0  0  0  0
 19 22  1  6  0  0  0
 19 18  1  0  0  0  0
 19 20  1  0  0  0  0
 20 23  1  0  0  0  0
 20 24  1  0  0  0  0
 25 30  2  0  0  0  0
 25 26  1  0  0  0  0
 26 27  2  0  0  0  0
 27 28  1  0  0  0  0
 27 32  1  0  0  0  0
 29 33  1  0  0  0  0
 29 28  2  0  0  0  0
 30 29  1  0  0  0  0
 31 25  1  0  0  0  0
M  END
>  <minimizedAffinity>
-4.9878068

$$$$

 OpenBabel03242511523D

 33 37  0  0  1  0  0  0  0  0999 V2000
   36.1720   30.6140   40.1270 C   0  0  1  0  0  0  0  0  0  0  0  0
   36.2860   31.2840   41.1710 O   0  0  0  0  0  0  0  0  0  0  0  0
   37.3240   31.5130   40.1990 C   0  0  2  0  0  0  0  0  0  0  0  0
   37.2860   32.5760   39.0980 C   0  0  0  0  0  0  0  0  0  0  0  0
   38.4110   31.7020   39.2650 C   0  0  1  0  0  0  0  0  0  0  0  0
   35.3060   31.1860   39.5600 H   0  0  0  0  0  0  0  0  0  0  0  0
   36.6310   32.4550   38.2220 H   0  0  0  0  0  0  0  0  0  0  0  0
   37.2760   33.5920   39.5420 H   0  0  0  0  0  0  0  0  0  0  0  0
   38.5170   30.8210   38.5680 H   0  0  0  0  0  0  0  0  0  0  0  0
   39.6510   32.2980   39.8340 C   0  0  0  0  0  0  0  0  0  0  0  0
   40.4620   31.7230   40.7930 C   0  0  0  0  0  0  0  0  0  0  0  0
   40.1410   30.7360   41.1510 H   0  0  0  0  0  0  0  0  0  0  0  0
   41.5860   32.3100   41.2800 C   0  0  0  0  0  0  0  0  0  0  0  0
   42.1870   31.8200   42.0280 H   0  0  0  0  0  0  0  0  0  0  0  0
   41.9170   33.5470   40.7770 C   0  0  0  0  0  3  0  0  0  0  0  0
   41.1270   34.1470   39.8190 C   0  0  0  0  0  3  0  0  0  0  0  0
   40.0220   33.5250   39.3680 N   0  0  0  0  0  0  0  0  0  0  0  0
   35.9830   28.1090   40.7140 C   0  0  1  0  0  0  0  0  0  0  0  0
   35.4200   29.3540   40.2770 C   0  0  2  0  0  0  0  0  0  0  0  0
   35.8100   28.3240   39.2880 C   0  0  0  0  0  0  0  0  0  0  0  0
   35.2730   27.4010   41.2380 H   0  0  0  0  0  0  0  0  0  0  0  0
   34.2960   29.4520   40.3660 H   0  0  0  0  0  0  0  0  0  0  0  0
   36.7110   28.4470   38.6300 H   0  0  0  0  0  0  0  0  0  0  0  0
   35.0330   27.7310   38.7310 H   0  0  0  0  0  0  0  0  0  0  0  0
   37.3410   28.2620   42.7340 C   0  0  0  0  0  0  0  0  0  0  0  0
   37.3020   28.1020   41.3580 C   0  0  0  0  0  0  0  0  0  0  0  0
   38.4780   27.8900   40.6310 C   0  0  0  0  0  0  0  0  0  0  0  0
   39.6390   27.8510   41.3650 N   0  0  0  0  0  0  0  0  0  0  0  0
   39.6710   28.0050   42.7020 C   0  0  0  0  0  0  0  0  0  0  0  0
   38.5090   28.2110   43.3840 N   0  0  0  0  0  0  0  0  0  0  0  0
   36.4430   28.4300   43.3380 H   0  0  0  0  0  0  0  0  0  0  0  0
   38.4440   27.7690   39.5720 H   0  0  0  0  0  0  0  0  0  0  0  0
   40.6240   27.9600   43.2010 H   0  0  0  0  0  0  0  0  0  0  0  0
  1  6  1  6  0  0  0
  1  3  1  0  0  0  0
  1 19  1  0  0  0  0
  1  2  1  0  0  0  0
  3  2  1  1  0  0  0
  4  5  1  0  0  0  0
  4  8  1  0  0  0  0
  4  3  1  0  0  0  0
  5  9  1  6  0  0  0
  5 10  1  0  0  0  0
  5  3  1  0  0  0  0
  7  4  1  0  0  0  0
 10 11  1  0  0  0  0
 11 12  1  0  0  0  0
 11 13  2  0  0  0  0
 13 14  1  0  0  0  0
 15 13  1  0  0  0  0
 16 15  2  0  0  0  0
 17 16  1  0  0  0  0
 17 10  2  0  0  0  0
 18 21  1  1  0  0  0
 18 26  1  0  0  0  0
 19 22  1  1  0  0  0
 19 18  1  0  0  0  0
 20 19  1  0  0  0  0
 20 18  1  0  0  0  0
 23 20  1  0  0  0  0
 24 20  1  0  0  0  0
 25 31  1  0  0  0  0
 25 30  1  0  0  0  0
 26 25  2  0  0  0  0
 27 26  1  0  0  0  0
 27 28  2  0  0  0  0
 28 29  1  0  0  0  0
 29 33  1  0  0  0  0
 29 30  2  0  0  0  0
 32 27  1  0  0  0  0
M  END
>  <minimizedAffinity>
-4.94166851

$$$$

 OpenBabel03242511523D

 33 37  0  0  1  0  0  0  0  0999 V2000
   37.7600   27.1560   42.9780 C   0  0  1  0  0  0  0  0  0  0  0  0
   36.5480   26.9470   43.1790 O   0  0  0  0  0  0  0  0  0  0  0  0
   37.1150   26.1840   42.0970 C   0  0  2  0  0  0  0  0  0  0  0  0
   37.7410   24.7930   42.2280 C   0  0  0  0  0  0  0  0  0  0  0  0
   37.6500   25.4640   40.9630 C   0  0  1  0  0  0  0  0  0  0  0  0
   38.2640   26.5580   43.8650 H   0  0  0  0  0  0  0  0  0  0  0  0
   38.7260   24.6630   42.7010 H   0  0  0  0  0  0  0  0  0  0  0  0
   36.9790   24.0540   42.5430 H   0  0  0  0  0  0  0  0  0  0  0  0
   38.5730   25.9660   40.5510 H   0  0  0  0  0  0  0  0  0  0  0  0
   36.6420   24.9470   39.9960 C   0  0  0  0  0  0  0  0  0  0  0  0
   36.2780   25.5450   38.8050 C   0  0  0  0  0  0  0  0  0  0  0  0
   36.7940   26.4860   38.5740 H   0  0  0  0  0  0  0  0  0  0  0  0
   35.3510   25.0310   37.9570 C   0  0  0  0  0  0  0  0  0  0  0  0
   35.1020   25.5370   37.0380 H   0  0  0  0  0  0  0  0  0  0  0  0
   34.7520   23.8480   38.3220 C   0  0  0  0  0  3  0  0  0  0  0  0
   35.0940   23.2270   39.5040 C   0  0  0  0  0  3  0  0  0  0  0  0
   36.0200   23.7760   40.3130 N   0  0  0  0  0  0  0  0  0  0  0  0
   38.3630   29.6340   42.5800 C   0  0  1  0  0  0  0  0  0  0  0  0
   38.2430   28.4790   43.4220 C   0  0  2  0  0  0  0  0  0  0  0  0
   39.5530   28.8430   42.8380 C   0  0  0  0  0  0  0  0  0  0  0  0
   38.2640   30.6350   43.0970 H   0  0  0  0  0  0  0  0  0  0  0  0
   38.2070   28.6740   44.5360 H   0  0  0  0  0  0  0  0  0  0  0  0
   40.0180   28.2470   42.0080 H   0  0  0  0  0  0  0  0  0  0  0  0
   40.3740   29.2730   43.4760 H   0  0  0  0  0  0  0  0  0  0  0  0
   36.3940   30.1360   41.2310 C   0  0  0  0  0  0  0  0  0  0  0  0
   37.6910   29.6470   41.2750 C   0  0  0  0  0  0  0  0  0  0  0  0
   38.3370   29.2340   40.1060 C   0  0  0  0  0  0  0  0  0  0  0  0
   37.6120   29.3510   38.9450 N   0  0  0  0  0  0  0  0  0  0  0  0
   36.3550   29.8290   38.9070 C   0  0  0  0  0  0  0  0  0  0  0  0
   35.7490   30.2220   40.0630 N   0  0  0  0  0  0  0  0  0  0  0  0
   35.8540   30.4680   42.1230 H   0  0  0  0  0  0  0  0  0  0  0  0
   39.3340   28.8570   40.1450 H   0  0  0  0  0  0  0  0  0  0  0  0
   35.8560   29.8880   37.9540 H   0  0  0  0  0  0  0  0  0  0  0  0
  1  2  1  0  0  0  0
  1 19  1  0  0  0  0
  1  6  1  1  0  0  0
  3  4  1  0  0  0  0
  3  1  1  0  0  0  0
  3  2  1  1  0  0  0
  4  8  1  0  0  0  0
  4  7  1  0  0  0  0
  5  9  1  6  0  0  0
  5  3  1  0  0  0  0
  5  4  1  0  0  0  0
 10 17  1  0  0  0  0
 10  5  1  0  0  0  0
 11 10  2  0  0  0  0
 12 11  1  0  0  0  0
 13 15  2  0  0  0  0
 13 11  1  0  0  0  0
 14 13  1  0  0  0  0
 15 16  1  0  0  0  0
 16 17  2  0  0  0  0
 18 20  1  0  0  0  0
 18 21  1  1  0  0  0
 18 19  1  0  0  0  0
 19 22  1  1  0  0  0
 20 19  1  0  0  0  0
 20 24  1  0  0  0  0
 23 20  1  0  0  0  0
 25 26  1  0  0  0  0
 25 31  1  0  0  0  0
 26 18  1  0  0  0  0
 27 32  1  0  0  0  0
 27 26  2  0  0  0  0
 28 27  1  0  0  0  0
 29 28  2  0  0  0  0
 29 30  1  0  0  0  0
 30 25  2  0  0  0  0
 33 29  1  0  0  0  0
M  END
>  <minimizedAffinity>
-4.93029833

$$$$

 OpenBabel03242511523D

 33 37  0  0  1  0  0  0  0  0999 V2000
   37.9150   24.6390   41.5010 C   0  0  1  0  0  0  0  0  0  0  0  0
   36.7140   24.6070   41.8310 O   0  0  0  0  0  0  0  0  0  0  0  0
   36.9750   25.2920   40.5910 C   0  0  2  0  0  0  0  0  0  0  0  0
   36.9790   24.6420   39.2060 C   0  0  0  0  0  0  0  0  0  0  0  0
   37.2270   26.0430   39.3820 C   0  0  1  0  0  0  0  0  0  0  0  0
   38.0920   23.5380   41.1060 H   0  0  0  0  0  0  0  0  0  0  0  0
   37.8030   23.9810   38.8970 H   0  0  0  0  0  0  0  0  0  0  0  0
   35.9680   24.2640   38.9530 H   0  0  0  0  0  0  0  0  0  0  0  0
   38.2920   26.4130   39.3380 H   0  0  0  0  0  0  0  0  0  0  0  0
   36.1440   26.9780   38.9700 C   0  0  0  0  0  0  0  0  0  0  0  0
   35.7960   28.1520   39.6100 C   0  0  0  0  0  0  0  0  0  0  0  0
   36.3870   28.3940   40.5020 H   0  0  0  0  0  0  0  0  0  0  0  0
   34.7970   28.9710   39.1910 C   0  0  0  0  0  0  0  0  0  0  0  0
   34.5640   29.8770   39.7260 H   0  0  0  0  0  0  0  0  0  0  0  0
   34.1050   28.5930   38.0640 C   0  0  0  0  0  3  0  0  0  0  0  0
   34.4290   27.4280   37.4020 C   0  0  0  0  0  3  0  0  0  0  0  0
   35.4280   26.6480   37.8570 N   0  0  0  0  0  0  0  0  0  0  0  0
   39.5850   25.6290   43.2010 C   0  0  1  0  0  0  0  0  0  0  0  0
   38.8700   24.5290   42.6220 C   0  0  2  0  0  0  0  0  0  0  0  0
   40.2680   24.8040   42.2210 C   0  0  0  0  0  0  0  0  0  0  0  0
   39.8710   25.5150   44.2900 H   0  0  0  0  0  0  0  0  0  0  0  0
   38.7860   23.5970   43.2580 H   0  0  0  0  0  0  0  0  0  0  0  0
   40.5220   25.2300   41.2140 H   0  0  0  0  0  0  0  0  0  0  0  0
   41.1090   24.1340   42.5530 H   0  0  0  0  0  0  0  0  0  0  0  0
   38.1160   27.5170   43.6790 C   0  0  0  0  0  0  0  0  0  0  0  0
   39.1510   27.0020   42.9140 C   0  0  0  0  0  0  0  0  0  0  0  0
   39.7820   27.7890   41.9460 C   0  0  0  0  0  0  0  0  0  0  0  0
   39.3140   29.0750   41.8170 N   0  0  0  0  0  0  0  0  0  0  0  0
   38.3100   29.5700   42.5640 C   0  0  0  0  0  0  0  0  0  0  0  0
   37.7120   28.7790   43.4990 N   0  0  0  0  0  0  0  0  0  0  0  0
   37.5970   26.9320   44.4450 H   0  0  0  0  0  0  0  0  0  0  0  0
   40.5770   27.3890   41.3580 H   0  0  0  0  0  0  0  0  0  0  0  0
   38.0030   30.5890   42.4010 H   0  0  0  0  0  0  0  0  0  0  0  0
  1  6  1  6  0  0  0
  1  2  1  0  0  0  0
  1 19  1  0  0  0  0
  3  1  1  0  0  0  0
  3  2  1  1  0  0  0
  4  5  1  0  0  0  0
  4  3  1  0  0  0  0
  5  9  1  6  0  0  0
  5  3  1  0  0  0  0
  7  4  1  0  0  0  0
  8  4  1  0  0  0  0
 10  5  1  0  0  0  0
 10 11  1  0  0  0  0
 11 12  1  0  0  0  0
 13 11  2  0  0  0  0
 13 14  1  0  0  0  0
 15 13  1  0  0  0  0
 16 17  1  0  0  0  0
 16 15  2  0  0  0  0
 17 10  2  0  0  0  0
 18 21  1  1  0  0  0
 19 18  1  0  0  0  0
 19 22  1  1  0  0  0
 20 24  1  0  0  0  0
 20 19  1  0  0  0  0
 20 18  1  0  0  0  0
 23 20  1  0  0  0  0
 25 31  1  0  0  0  0
 26 18  1  0  0  0  0
 26 25  2  0  0  0  0
 27 26  1  0  0  0  0
 28 27  2  0  0  0  0
 28 29  1  0  0  0  0
 29 30  2  0  0  0  0
 30 25  1  0  0  0  0
 32 27  1  0  0  0  0
 33 29  1  0  0  0  0
M  END
>  <minimizedAffinity>
-4.920506

$$$$
