
 OpenBabel03252509113D

 30 33  0  0  0  0  0  0  0  0999 V2000
   44.9140   31.0280   43.5750 C   0  0  0  0  0  0  0  0  0  0  0  0
   45.0600   31.7470   42.3960 C   0  0  0  0  0  0  0  0  0  0  0  0
   45.2840   31.1460   41.1740 C   0  0  0  0  0  0  0  0  0  0  0  0
   45.3770   29.7660   41.0660 C   0  0  0  0  0  0  0  0  0  0  0  0
   45.5800   28.8500   40.0960 N   0  0  0  0  0  0  0  0  0  0  0  0
   45.5640   27.6070   40.6380 C   0  0  0  0  0  0  0  0  0  0  0  0
   45.3490   27.7630   41.9580 N   0  0  0  0  0  0  0  0  0  0  0  0
   45.2280   29.0650   42.2590 C   0  0  0  0  0  0  0  0  0  0  0  0
   45.0040   29.6370   43.4950 C   0  0  0  0  0  0  0  0  0  0  0  0
   44.7400   31.5360   44.5040 H   0  0  0  0  0  0  0  0  0  0  0  0
   45.7170   29.1850   39.1030 H   0  0  0  0  0  0  0  0  0  0  0  0
   45.7160   26.7640   39.9720 H   0  0  0  0  0  0  0  0  0  0  0  0
   44.8980   29.0330   44.3800 H   0  0  0  0  0  0  0  0  0  0  0  0
   45.9580   35.2780   42.8760 C   0  0  0  0  0  0  0  0  0  0  0  0
   44.7820   35.9430   42.5130 C   0  0  0  0  0  0  0  0  0  0  0  0
   43.6850   35.1750   42.1050 C   0  0  0  0  0  0  0  0  0  0  0  0
   43.8370   33.8150   42.0860 N   0  0  0  0  0  0  0  0  0  0  0  0
   44.9760   33.2090   42.4390 C   0  0  0  0  0  0  0  0  0  0  0  0
   46.0520   33.9240   42.8390 N   0  0  0  0  0  0  0  0  0  0  0  0
   46.8320   35.8610   43.2000 H   0  0  0  0  0  0  0  0  0  0  0  0
   44.7400   37.0250   42.5550 H   0  0  0  0  0  0  0  0  0  0  0  0
   42.7620   35.6490   41.8180 H   0  0  0  0  0  0  0  0  0  0  0  0
   45.4380   31.8940   39.9280 C   0  0  0  0  0  0  0  0  0  0  0  0
   46.5400   32.5870   39.4600 C   0  0  0  0  0  0  0  0  0  0  0  0
   47.3840   32.5390   40.1540 H   0  0  0  0  0  0  0  0  0  0  0  0
   46.4490   33.2240   38.2390 C   0  0  0  0  0  0  0  0  0  0  0  0
   47.3660   33.7360   37.9680 H   0  0  0  0  0  0  0  0  0  0  0  0
   45.2890   33.1630   37.5130 C   0  0  0  0  0  3  0  0  0  0  0  0
   44.1930   32.4690   37.9860 C   0  0  0  0  0  3  0  0  0  0  0  0
   44.3000   31.8590   39.1730 N   0  0  0  0  0  0  0  0  0  0  0  0
  1 10  1  0  0  0  0
  2 18  1  0  0  0  0
  2  1  2  0  0  0  0
  3  2  1  0  0  0  0
  4  3  2  0  0  0  0
  4  8  1  0  0  0  0
  5  6  1  0  0  0  0
  5  4  1  0  0  0  0
  6  7  2  0  0  0  0
  7  8  1  0  0  0  0
  8  9  2  0  0  0  0
  9  1  1  0  0  0  0
  9 13  1  0  0  0  0
 11  5  1  0  0  0  0
 12  6  1  0  0  0  0
 14 20  1  0  0  0  0
 15 21  1  0  0  0  0
 15 14  2  0  0  0  0
 16 15  1  0  0  0  0
 17 16  2  0  0  0  0
 17 18  1  0  0  0  0
 18 19  2  0  0  0  0
 19 14  1  0  0  0  0
 22 16  1  0  0  0  0
 23  3  1  0  0  0  0
 24 23  1  0  0  0  0
 24 25  1  0  0  0  0
 26 24  2  0  0  0  0
 27 26  1  0  0  0  0
 28 29  2  0  0  0  0
 28 26  1  0  0  0  0
 29 30  1  0  0  0  0
 30 23  2  0  0  0  0
M  END
>  <minimizedAffinity>
-2.69439197

>  <minimizedRMSD>
6.39380836

$$$$
