
 OpenBabel03252507253D

 26 28  0  0  0  0  0  0  0  0999 V2000
   45.6820   33.9620   45.5250 C   0  0  0  0  0  0  0  0  0  0  0  0
   44.7250   34.9500   45.7670 C   0  0  0  0  0  0  0  0  0  0  0  0
   44.4740   35.8620   44.7200 C   0  0  0  0  0  0  0  0  0  0  0  0
   45.1660   35.7390   43.5410 N   0  0  0  0  0  0  0  0  0  0  0  0
   46.0740   34.7630   43.3790 C   0  0  0  0  0  0  0  0  0  0  0  0
   46.3440   33.8750   44.3460 N   0  0  0  0  0  0  0  0  0  0  0  0
   44.1920   35.0270   46.7040 H   0  0  0  0  0  0  0  0  0  0  0  0
   43.7380   36.6600   44.8400 H   0  0  0  0  0  0  0  0  0  0  0  0
   46.7880   34.6700   42.1040 C   0  0  0  0  0  0  0  0  0  0  0  0
   47.9820   35.3330   41.9160 C   0  0  0  0  0  0  0  0  0  0  0  0
   48.7240   35.3060   40.7530 C   0  0  0  0  0  0  0  0  0  0  0  0
   48.1670   34.5340   39.7400 C   0  0  0  0  0  0  0  0  0  0  0  0
   46.9680   33.8560   39.9040 C   0  0  0  0  0  0  0  0  0  0  0  0
   46.2960   33.9380   41.0900 N   0  0  0  0  0  0  0  0  0  0  0  0
   48.3590   35.9200   42.7510 H   0  0  0  0  0  0  0  0  0  0  0  0
   49.6550   35.8450   40.6620 H   0  0  0  0  0  0  0  0  0  0  0  0
   48.6920   34.4600   38.7910 H   0  0  0  0  0  0  0  0  0  0  0  0
   46.5850   33.2680   39.0720 H   0  0  0  0  0  0  0  0  0  0  0  0
   45.9630   33.0100   46.5800 C   0  0  0  0  0  0  0  0  0  0  0  0
   47.0570   32.1730   46.5040 C   0  0  0  0  0  0  0  0  0  0  0  0
   47.7280   32.2250   45.6330 H   0  0  0  0  0  0  0  0  0  0  0  0
   47.3740   31.2550   47.4640 C   0  0  0  0  0  0  0  0  0  0  0  0
   48.2170   30.5780   47.4540 H   0  0  0  0  0  0  0  0  0  0  0  0
   46.4940   31.2350   48.5390 C   0  0  0  0  0  3  0  0  0  0  0  0
   45.3710   32.0610   48.6640 C   0  0  0  0  0  3  0  0  0  0  0  0
   45.1600   32.9270   47.6520 N   0  0  0  0  0  0  0  0  0  0  0  0
  1  2  1  0  0  0  0
  1 19  1  0  0  0  0
  2  7  1  0  0  0  0
  3  8  1  0  0  0  0
  3  2  2  0  0  0  0
  4  3  1  0  0  0  0
  5  4  2  0  0  0  0
  5  6  1  0  0  0  0
  6  1  2  0  0  0  0
  9  5  1  0  0  0  0
 10  9  1  0  0  0  0
 10 15  1  0  0  0  0
 11 10  2  0  0  0  0
 12 13  2  0  0  0  0
 12 11  1  0  0  0  0
 13 14  1  0  0  0  0
 14  9  2  0  0  0  0
 16 11  1  0  0  0  0
 17 12  1  0  0  0  0
 18 13  1  0  0  0  0
 19 26  1  0  0  0  0
 20 19  2  0  0  0  0
 20 22  1  0  0  0  0
 21 20  1  0  0  0  0
 22 24  2  0  0  0  0
 23 22  1  0  0  0  0
 24 25  1  0  0  0  0
 26 25  2  0  0  0  0
M  END
>  <minimizedAffinity>
-6.19381046

>  <minimizedRMSD>
0.167365268

$$$$
