
 OpenBabel03242518053D

 19 20  0  0  0  0  0  0  0  0999 V2000
   45.1360   35.7210   43.7940 C   0  0  0  0  0  0  0  0  0  0  0  0
   46.0190   34.6560   43.5540 C   0  0  0  0  0  0  0  0  0  0  0  0
   46.2090   33.6950   44.5560 C   0  0  0  0  0  0  0  0  0  0  0  0
   45.5130   33.8680   45.7050 N   0  0  0  0  0  0  0  0  0  0  0  0
   44.6720   34.8820   45.9310 C   0  0  0  0  0  0  0  0  0  0  0  0
   44.4900   35.8020   44.9740 N   0  0  0  0  0  0  0  0  0  0  0  0
   44.9110   36.7210   42.8090 N   0  0  0  0  0  0  0  0  0  0  0  0
   46.8710   32.8860   44.3920 H   0  0  0  0  0  0  0  0  0  0  0  0
   44.1840   34.8840   46.9080 H   0  0  0  0  0  0  0  0  0  0  0  0
   44.3420   36.5880   41.9220 H   0  0  0  0  0  0  0  0  0  0  0  0
   45.3050   37.6800   42.9020 H   0  0  0  0  0  0  0  0  0  0  0  0
   46.7010   34.6000   42.2680 C   0  0  0  0  0  0  0  0  0  0  0  0
   46.2660   33.8620   41.2180 C   0  0  0  0  0  0  0  0  0  0  0  0
   45.3850   33.2750   41.2810 H   0  0  0  0  0  0  0  0  0  0  0  0
   46.9710   33.8640   40.0330 C   0  0  0  0  0  0  0  0  0  0  0  0
   46.6640   33.2920   39.1700 H   0  0  0  0  0  0  0  0  0  0  0  0
   48.1160   34.6110   39.9140 C   0  0  0  0  0  0  0  0  0  0  0  0
   48.5440   35.3570   40.9970 C   0  0  0  0  0  0  0  0  0  0  0  0
   47.8210   35.3230   42.1320 N   0  0  0  0  0  0  0  0  0  0  0  0
  1  6  1  0  0  0  0
  2  1  2  0  0  0  0
  2  3  1  0  0  0  0
  3  4  2  0  0  0  0
  4  5  1  0  0  0  0
  5  9  1  0  0  0  0
  6  5  2  0  0  0  0
  7 11  1  0  0  0  0
  7  1  1  0  0  0  0
  8  3  1  0  0  0  0
 10  7  1  0  0  0  0
 12  2  1  0  0  0  0
 13 14  1  0  0  0  0
 13 12  2  0  0  0  0
 15 13  1  0  0  0  0
 16 15  1  0  0  0  0
 17 15  2  0  0  0  0
 17 18  1  0  0  0  0
 18 19  2  0  0  0  0
 19 12  1  0  0  0  0
M  END
>  <minimizedAffinity>
-4.74972868

>  <minimizedRMSD>
1.34863794

$$$$
