
 OpenBabel03252507253D

 26 28  0  0  0  0  0  0  0  0999 V2000
   45.6820   33.9640   45.5250 C   0  0  0  0  0  0  0  0  0  0  0  0
   44.7240   34.9520   45.7660 C   0  0  0  0  0  0  0  0  0  0  0  0
   44.4730   35.8640   44.7180 C   0  0  0  0  0  0  0  0  0  0  0  0
   45.1660   35.7400   43.5400 N   0  0  0  0  0  0  0  0  0  0  0  0
   46.0730   34.7650   43.3780 C   0  0  0  0  0  0  0  0  0  0  0  0
   46.3440   33.8760   44.3460 N   0  0  0  0  0  0  0  0  0  0  0  0
   44.1910   35.0290   46.7030 H   0  0  0  0  0  0  0  0  0  0  0  0
   43.7370   36.6620   44.8380 H   0  0  0  0  0  0  0  0  0  0  0  0
   46.7880   34.6710   42.1030 C   0  0  0  0  0  0  0  0  0  0  0  0
   47.9820   35.3330   41.9160 C   0  0  0  0  0  0  0  0  0  0  0  0
   48.7240   35.3050   40.7530 C   0  0  0  0  0  0  0  0  0  0  0  0
   48.1670   34.5340   39.7400 C   0  0  0  0  0  0  0  0  0  0  0  0
   46.9670   33.8570   39.9030 C   0  0  0  0  0  0  0  0  0  0  0  0
   46.2950   33.9400   41.0890 N   0  0  0  0  0  0  0  0  0  0  0  0
   48.3590   35.9200   42.7510 H   0  0  0  0  0  0  0  0  0  0  0  0
   49.6550   35.8440   40.6620 H   0  0  0  0  0  0  0  0  0  0  0  0
   48.6920   34.4600   38.7910 H   0  0  0  0  0  0  0  0  0  0  0  0
   46.5840   33.2700   39.0710 H   0  0  0  0  0  0  0  0  0  0  0  0
   45.9620   33.0120   46.5800 C   0  0  0  0  0  0  0  0  0  0  0  0
   47.0570   32.1760   46.5050 C   0  0  0  0  0  0  0  0  0  0  0  0
   47.7290   32.2280   45.6340 H   0  0  0  0  0  0  0  0  0  0  0  0
   47.3740   31.2590   47.4660 C   0  0  0  0  0  0  0  0  0  0  0  0
   48.2170   30.5820   47.4560 H   0  0  0  0  0  0  0  0  0  0  0  0
   46.4930   31.2370   48.5400 C   0  0  0  0  0  3  0  0  0  0  0  0
   45.3700   32.0630   48.6630 C   0  0  0  0  0  3  0  0  0  0  0  0
   45.1590   32.9290   47.6510 N   0  0  0  0  0  0  0  0  0  0  0  0
  1  2  1  0  0  0  0
  1 19  1  0  0  0  0
  2  7  1  0  0  0  0
  3  8  1  0  0  0  0
  3  2  2  0  0  0  0
  4  3  1  0  0  0  0
  5  4  2  0  0  0  0
  5  6  1  0  0  0  0
  6  1  2  0  0  0  0
  9  5  1  0  0  0  0
 10  9  1  0  0  0  0
 10 15  1  0  0  0  0
 11 10  2  0  0  0  0
 12 13  2  0  0  0  0
 12 11  1  0  0  0  0
 13 14  1  0  0  0  0
 14  9  2  0  0  0  0
 16 11  1  0  0  0  0
 17 12  1  0  0  0  0
 18 13  1  0  0  0  0
 19 26  1  0  0  0  0
 20 19  2  0  0  0  0
 20 22  1  0  0  0  0
 21 20  1  0  0  0  0
 22 24  2  0  0  0  0
 23 22  1  0  0  0  0
 24 25  1  0  0  0  0
 26 25  2  0  0  0  0
M  END
>  <minimizedAffinity>
-6.1931181

>  <minimizedRMSD>
0.321640104

$$$$
