
 OpenBabel03252507193D

 43 46  0  0  1  0  0  0  0  0999 V2000
   47.0350   33.3660   42.9790 C   0  0  0  0  0  0  0  0  0  0  0  0
   48.1120   33.0470   43.5530 O   0  0  0  0  0  0  0  0  0  0  0  0
   46.6340   32.8810   41.6810 N   0  0  0  0  0  0  0  0  0  0  0  0
   45.3440   32.3880   41.2050 C   0  0  0  0  0  0  0  0  0  0  0  0
   44.9680   33.1310   39.9230 C   0  0  0  0  0  0  0  0  0  0  0  0
   45.9830   32.8350   38.8440 C   0  0  0  0  0  0  0  0  0  0  0  0
   47.1840   32.1600   39.4430 C   0  0  0  0  0  0  0  0  0  0  0  0
   47.6720   32.8790   40.6740 C   0  0  2  0  0  0  0  0  0  0  0  0
   45.3110   31.3100   41.0610 H   0  0  0  0  0  0  0  0  0  0  0  0
   44.5950   32.7610   41.9610 H   0  0  0  0  0  0  0  0  0  0  0  0
   44.9400   34.2190   40.1510 H   0  0  0  0  0  0  0  0  0  0  0  0
   43.9490   32.7590   39.6530 H   0  0  0  0  0  0  0  0  0  0  0  0
   46.2170   33.7000   38.2190 H   0  0  0  0  0  0  0  0  0  0  0  0
   45.5040   32.0780   38.1590 H   0  0  0  0  0  0  0  0  0  0  0  0
   47.9910   32.1320   38.6980 H   0  0  0  0  0  0  0  0  0  0  0  0
   46.8960   31.1170   39.7040 H   0  0  0  0  0  0  0  0  0  0  0  0
   47.8520   33.9360   40.3870 H   0  0  0  0  0  0  0  0  0  0  0  0
   45.7780   35.4680   43.0000 C   0  0  0  0  0  0  0  0  0  0  0  0
   46.1500   34.2760   43.6690 C   0  0  0  0  0  0  0  0  0  0  0  0
   45.6670   34.0230   44.9330 C   0  0  0  0  0  0  0  0  0  0  0  0
   44.8440   34.9350   45.4990 N   0  0  0  0  0  0  0  0  0  0  0  0
   44.4780   36.0810   44.8720 C   0  0  0  0  0  0  0  0  0  0  0  0
   44.9530   36.3260   43.6320 N   0  0  0  0  0  0  0  0  0  0  0  0
   46.1770   35.6330   42.0060 H   0  0  0  0  0  0  0  0  0  0  0  0
   43.8190   36.8050   45.3320 H   0  0  0  0  0  0  0  0  0  0  0  0
   46.0650   32.8000   45.5980 C   0  0  0  0  0  0  0  0  0  0  0  0
   45.5960   31.5990   45.1570 C   0  0  0  0  0  0  0  0  0  0  0  0
   45.9900   30.4450   45.8060 C   0  0  0  0  0  0  0  0  0  0  0  0
   46.8430   30.4460   46.8930 C   0  0  0  0  0  0  0  0  0  0  0  0
   47.2900   31.7000   47.3000 C   0  0  0  0  0  0  0  0  0  0  0  0
   46.8870   32.7990   46.6470 N   0  0  0  0  0  0  0  0  0  0  0  0
   44.9270   31.4360   44.3310 H   0  0  0  0  0  0  0  0  0  0  0  0
   45.6430   29.4590   45.4910 H   0  0  0  0  0  0  0  0  0  0  0  0
   47.1310   29.5220   47.3780 H   0  0  0  0  0  0  0  0  0  0  0  0
   47.9610   31.7570   48.1480 H   0  0  0  0  0  0  0  0  0  0  0  0
   48.9560   32.3090   41.1370 C   0  0  0  0  0  0  0  0  0  0  0  0
   50.1160   33.0220   41.3570 C   0  0  0  0  0  0  0  0  0  0  0  0
   50.0820   34.0980   41.1720 H   0  0  0  0  0  0  0  0  0  0  0  0
   51.2940   32.4530   41.7890 C   0  0  0  0  0  0  0  0  0  0  0  0
   52.1890   33.0400   41.9520 H   0  0  0  0  0  0  0  0  0  0  0  0
   51.3610   31.1010   42.0280 C   0  0  0  0  0  0  0  0  0  0  0  0
   50.2030   30.3960   41.8070 C   0  0  0  0  0  0  0  0  0  0  0  0
   49.0670   30.9720   41.3860 N   0  0  0  0  0  0  0  0  0  0  0  0
  1  2  2  0  0  0  0
  1 19  1  0  0  0  0
  3  1  1  0  0  0  0
  4  3  1  0  0  0  0
  4 10  1  0  0  0  0
  5 11  1  0  0  0  0
  5  4  1  0  0  0  0
  6  7  1  0  0  0  0
  6  5  1  0  0  0  0
  7 16  1  0  0  0  0
  7  8  1  0  0  0  0
  8 17  1  6  0  0  0
  8 36  1  0  0  0  0
  8  3  1  0  0  0  0
  9  4  1  0  0  0  0
 12  5  1  0  0  0  0
 13  6  1  0  0  0  0
 14  6  1  0  0  0  0
 15  7  1  0  0  0  0
 18 23  2  0  0  0  0
 18 19  1  0  0  0  0
 19 20  2  0  0  0  0
 20 21  1  0  0  0  0
 20 26  1  0  0  0  0
 22 25  1  0  0  0  0
 22 21  2  0  0  0  0
 23 22  1  0  0  0  0
 24 18  1  0  0  0  0
 26 31  1  0  0  0  0
 27 26  2  0  0  0  0
 27 28  1  0  0  0  0
 28 29  2  0  0  0  0
 29 30  1  0  0  0  0
 29 34  1  0  0  0  0
 30 35  1  0  0  0  0
 31 30  2  0  0  0  0
 32 27  1  0  0  0  0
 33 28  1  0  0  0  0
 36 37  2  0  0  0  0
 36 43  1  0  0  0  0
 37 39  1  0  0  0  0
 38 37  1  0  0  0  0
 39 40  1  0  0  0  0
 39 41  2  0  0  0  0
 42 41  1  0  0  0  0
 43 42  2  0  0  0  0
M  END
>  <minimizedAffinity>
-5.38073921

>  <minimizedRMSD>
0.719363213

$$$$
