
 OpenBabel03242513073D

 40 44  0  0  0  0  0  0  0  0999 V2000
   46.0020   33.1940   41.6860 C   0  0  0  0  0  0  0  0  0  0  0  0
   47.1730   33.8910   41.3630 C   0  0  0  0  0  0  0  0  0  0  0  0
   48.1530   33.9580   42.3410 C   0  0  0  0  0  0  0  0  0  0  0  0
   47.8980   33.3420   43.5320 N   0  0  0  0  0  0  0  0  0  0  0  0
   46.7840   32.6840   43.8250 C   0  0  0  0  0  0  0  0  0  0  0  0
   45.8160   32.6040   42.8930 N   0  0  0  0  0  0  0  0  0  0  0  0
   45.2040   33.1040   40.9750 H   0  0  0  0  0  0  0  0  0  0  0  0
   46.9240   30.7470   45.3230 C   0  0  0  0  0  0  0  0  0  0  0  0
   46.6150   32.0640   45.1230 C   0  0  0  0  0  0  0  0  0  0  0  0
   46.1180   32.8960   46.1500 C   0  0  0  0  0  0  0  0  0  0  0  0
   45.9260   32.3810   47.4270 C   0  0  0  0  0  0  0  0  0  0  0  0
   45.4840   32.8560   48.6180 N   0  0  0  0  0  0  0  0  0  0  0  0
   45.5350   31.8140   49.5170 C   0  0  0  0  0  0  0  0  0  0  0  0
   46.0030   30.7320   48.8650 N   0  0  0  0  0  0  0  0  0  0  0  0
   46.2510   31.0490   47.5840 C   0  0  0  0  0  0  0  0  0  0  0  0
   46.7380   30.2120   46.5980 C   0  0  0  0  0  0  0  0  0  0  0  0
   47.3020   30.1230   44.5330 H   0  0  0  0  0  0  0  0  0  0  0  0
   45.8770   33.9320   45.9850 H   0  0  0  0  0  0  0  0  0  0  0  0
   45.1830   33.8610   48.7130 H   0  0  0  0  0  0  0  0  0  0  0  0
   45.2150   32.0280   50.5160 H   0  0  0  0  0  0  0  0  0  0  0  0
   46.9690   29.1750   46.8000 H   0  0  0  0  0  0  0  0  0  0  0  0
   49.4110   34.6790   42.0630 C   0  0  0  0  0  0  0  0  0  0  0  0
   49.1810   35.7570   41.1950 F   0  0  0  0  0  0  0  0  0  0  0  0
   49.9190   35.2200   43.2180 F   0  0  0  0  0  0  0  0  0  0  0  0
   50.2900   33.7990   41.4800 F   0  0  0  0  0  0  0  0  0  0  0  0
   47.2900   34.4560   40.1370 O   0  0  0  0  0  0  0  0  0  0  0  0
   47.1010   33.7510   38.9740 C   0  0  0  0  0  0  0  0  0  0  0  0
   48.3890   33.6090   38.4710 C   0  0  0  0  0  0  0  0  0  0  0  0
   48.1210   32.6580   36.9080 S   0  0  0  0  0  0  0  0  0  0  0  0
   46.2760   32.6260   37.2260 C   0  0  0  0  0  0  0  0  0  0  0  0
   46.2510   33.1820   38.1780 N   0  0  0  0  0  0  0  0  0  0  0  0
   49.5210   33.8240   38.6080 H   0  0  0  0  0  0  0  0  0  0  0  0
   45.3810   31.9340   36.2310 C   0  0  0  0  0  0  0  0  0  0  0  0
   45.7180   31.8920   34.9020 C   0  0  0  0  0  0  0  0  0  0  0  0
   46.6240   32.3480   34.5320 H   0  0  0  0  0  0  0  0  0  0  0  0
   44.7820   31.2140   34.1170 C   0  0  0  0  0  0  0  0  0  0  0  0
   44.9810   31.1390   33.0460 H   0  0  0  0  0  0  0  0  0  0  0  0
   43.6430   30.6630   34.7030 C   0  0  0  0  0  0  0  0  0  0  0  0
   43.3880   30.7570   36.0610 C   0  0  0  0  0  0  0  0  0  0  0  0
   44.3110   31.4220   36.8140 N   0  0  0  0  0  0  0  0  0  0  0  0
  1  6  1  0  0  0  0
  2  1  2  0  0  0  0
  2  3  1  0  0  0  0
  3  4  2  0  0  0  0
  4  5  1  0  0  0  0
  5  9  1  0  0  0  0
  6  5  2  0  0  0  0
  7  1  1  0  0  0  0
  8 16  1  0  0  0  0
  9  8  2  0  0  0  0
  9 10  1  0  0  0  0
 10 11  2  0  0  0  0
 11 15  1  0  0  0  0
 11 12  1  0  0  0  0
 12 19  1  0  0  0  0
 12 13  1  0  0  0  0
 13 20  1  0  0  0  0
 14 13  2  0  0  0  0
 15 14  1  0  0  0  0
 16 21  1  0  0  0  0
 16 15  2  0  0  0  0
 17  8  1  0  0  0  0
 18 10  1  0  0  0  0
 22  3  1  0  0  0  0
 22 24  1  0  0  0  0
 23 22  1  0  0  0  0
 25 22  1  0  0  0  0
 26  2  1  0  0  0  0
 27 26  1  0  0  0  0
 28 32  1  0  0  0  0
 28 27  2  0  0  0  0
 29 30  1  0  0  0  0
 29 28  1  0  0  0  0
 30 31  2  0  0  0  0
 31 27  1  0  0  0  0
 33 40  1  0  0  0  0
 33 30  1  0  0  0  0
 34 33  2  0  0  0  0
 35 34  1  0  0  0  0
 36 38  2  0  0  0  0
 36 34  1  0  0  0  0
 37 36  1  0  0  0  0
 38 39  1  0  0  0  0
 39 40  2  0  0  0  0
M  END
>  <minimizedAffinity>
-6.55942774

>  <minimizedRMSD>
1.28618312

$$$$
