
 OpenBabel03252509163D

 24 26  0  0  0  0  0  0  0  0999 V2000
   47.3620   33.1000   43.6490 C   0  0  0  0  0  0  0  0  0  0  0  0
   47.3410   31.7260   44.0220 C   0  0  0  0  0  0  0  0  0  0  0  0
   48.3420   30.9300   43.5710 C   0  0  0  0  0  0  0  0  0  0  0  0
   49.3570   31.4880   42.7560 C   0  0  0  0  0  0  0  0  0  0  0  0
   48.8430   33.2590   42.6320 S   0  0  0  0  0  0  0  0  0  0  0  0
   46.5480   31.3370   44.6460 H   0  0  0  0  0  0  0  0  0  0  0  0
   48.4440   29.8990   43.7730 H   0  0  0  0  0  0  0  0  0  0  0  0
   44.7550   35.0390   45.4710 C   0  0  0  0  0  0  0  0  0  0  0  0
   44.4730   36.0280   44.4940 C   0  0  0  0  0  0  0  0  0  0  0  0
   45.1780   35.9860   43.2770 C   0  0  0  0  0  0  0  0  0  0  0  0
   46.1080   34.9780   43.1040 N   0  0  0  0  0  0  0  0  0  0  0  0
   46.3320   34.0640   44.0750 C   0  0  0  0  0  0  0  0  0  0  0  0
   45.6660   34.0800   45.2570 N   0  0  0  0  0  0  0  0  0  0  0  0
   44.2180   35.0800   46.3830 H   0  0  0  0  0  0  0  0  0  0  0  0
   43.7400   36.8060   44.6560 H   0  0  0  0  0  0  0  0  0  0  0  0
   45.0190   36.7010   42.4920 H   0  0  0  0  0  0  0  0  0  0  0  0
   50.5060   30.8970   42.1540 C   0  0  0  0  0  0  0  0  0  0  0  0
   51.4890   30.3030   42.9110 C   0  0  0  0  0  0  0  0  0  0  0  0
   51.3380   30.3130   43.9750 H   0  0  0  0  0  0  0  0  0  0  0  0
   52.5680   29.7540   42.2540 C   0  0  0  0  0  0  0  0  0  0  0  0
   53.3260   29.2920   42.8760 H   0  0  0  0  0  0  0  0  0  0  0  0
   52.6850   29.7850   40.8670 C   0  0  0  0  0  3  0  0  0  0  0  0
   51.6500   30.4020   40.1930 C   0  0  0  0  0  3  0  0  0  0  0  0
   50.5750   30.9520   40.8140 N   0  0  0  0  0  0  0  0  0  0  0  0
  1  2  2  0  0  0  0
  1 12  1  0  0  0  0
  2  6  1  0  0  0  0
  3  7  1  0  0  0  0
  3  2  1  0  0  0  0
  4  3  2  0  0  0  0
  5  4  1  0  0  0  0
  5  1  1  0  0  0  0
  8 14  1  0  0  0  0
  9 15  1  0  0  0  0
  9  8  2  0  0  0  0
 10  9  1  0  0  0  0
 11 10  2  0  0  0  0
 11 12  1  0  0  0  0
 12 13  2  0  0  0  0
 13  8  1  0  0  0  0
 16 10  1  0  0  0  0
 17  4  1  0  0  0  0
 17 18  1  0  0  0  0
 18 19  1  0  0  0  0
 20 21  1  0  0  0  0
 20 18  2  0  0  0  0
 22 20  1  0  0  0  0
 23 24  1  0  0  0  0
 23 22  2  0  0  0  0
 24 17  2  0  0  0  0
M  END
>  <minimizedAffinity>
-3.84246564

>  <minimizedRMSD>
6.3089509

$$$$
