
 OpenBabel03252508383D

 40 43  0  0  0  0  0  0  0  0999 V2000
   45.1490   33.9500   40.7010 C   0  0  0  0  0  0  0  0  0  0  0  0
   44.1060   33.6300   39.8840 C   0  0  0  0  0  0  0  0  0  0  0  0
   44.3970   33.1300   38.6450 C   0  0  0  0  0  0  0  0  0  0  0  0
   45.6740   32.9400   38.1910 C   0  0  0  0  0  0  0  0  0  0  0  0
   46.7130   33.2700   39.0350 C   0  0  0  0  0  0  0  0  0  0  0  0
   46.4690   33.7730   40.2850 C   0  0  0  0  0  0  0  0  0  0  0  0
   43.5640   32.8770   37.9980 H   0  0  0  0  0  0  0  0  0  0  0  0
   45.8130   32.5360   37.1880 H   0  0  0  0  0  0  0  0  0  0  0  0
   47.7260   33.1130   38.6630 H   0  0  0  0  0  0  0  0  0  0  0  0
   40.8230   35.2710   40.7940 C   0  0  0  0  0  0  0  0  0  0  0  0
   42.1180   35.0960   40.2750 C   0  0  0  0  0  0  0  0  0  0  0  0
   42.7710   33.8490   40.4050 C   0  0  0  0  0  0  0  0  0  0  0  0
   42.0610   32.8860   41.0490 N   0  0  0  0  0  0  0  0  0  0  0  0
   40.8290   33.0780   41.5340 C   0  0  0  0  0  0  0  0  0  0  0  0
   40.2180   34.2630   41.4050 N   0  0  0  0  0  0  0  0  0  0  0  0
   40.2210   36.5370   40.6330 N   0  0  0  0  0  0  0  0  0  0  0  0
   42.6330   35.9130   39.7670 H   0  0  0  0  0  0  0  0  0  0  0  0
   40.3380   32.2450   42.0360 H   0  0  0  0  0  0  0  0  0  0  0  0
   39.5590   36.8080   41.3980 H   0  0  0  0  0  0  0  0  0  0  0  0
   40.3770   37.2030   39.8440 H   0  0  0  0  0  0  0  0  0  0  0  0
   47.6220   34.0940   41.1060 C   0  0  0  0  0  0  0  0  0  0  0  0
   48.1280   35.3710   40.9490 C   0  0  0  0  0  0  0  0  0  0  0  0
   49.2320   35.8480   41.6570 C   0  0  0  0  0  0  0  0  0  0  0  0
   49.8440   35.0080   42.5500 C   0  0  0  0  0  0  0  0  0  0  0  0
   49.3570   33.7260   42.7250 C   0  0  0  0  0  0  0  0  0  0  0  0
   48.2560   33.2750   42.0090 C   0  0  0  0  0  0  0  0  0  0  0  0
   47.6920   36.0810   40.2610 H   0  0  0  0  0  0  0  0  0  0  0  0
   49.5990   36.8680   41.5010 H   0  0  0  0  0  0  0  0  0  0  0  0
   50.7040   35.3110   43.1320 H   0  0  0  0  0  0  0  0  0  0  0  0
   49.7620   32.9880   43.4010 H   0  0  0  0  0  0  0  0  0  0  0  0
   47.6890   31.9220   42.1490 C   0  0  0  0  0  0  0  0  0  0  0  0
   46.7670   31.6520   43.1630 C   0  0  0  0  0  0  0  0  0  0  0  0
   46.4690   32.4340   43.8450 H   0  0  0  0  0  0  0  0  0  0  0  0
   46.2250   30.3880   43.3080 C   0  0  0  0  0  0  0  0  0  0  0  0
   45.5110   30.1690   44.0880 H   0  0  0  0  0  0  0  0  0  0  0  0
   46.6080   29.3730   42.4260 C   0  0  0  0  0  3  0  0  0  0  0  0
   47.5220   29.6970   41.4460 C   0  0  0  0  0  3  0  0  0  0  0  0
   48.0520   30.9440   41.3080 N   0  0  0  0  0  0  0  0  0  0  0  0
   44.7530   34.9180   43.0960 N   0  0  0  0  0  0  0  0  0  0  0  0
   44.9240   34.4800   42.0180 C   0  0  0  0  0  0  0  0  0  0  0  0
  1 40  1  0  0  0  0
  2 12  1  0  0  0  0
  2  1  2  0  0  0  0
  3  2  1  0  0  0  0
  4  3  2  0  0  0  0
  4  5  1  0  0  0  0
  5  6  2  0  0  0  0
  6  1  1  0  0  0  0
  6 21  1  0  0  0  0
  7  3  1  0  0  0  0
  8  4  1  0  0  0  0
  9  5  1  0  0  0  0
 10 15  1  0  0  0  0
 11 12  1  0  0  0  0
 11 10  2  0  0  0  0
 12 13  2  0  0  0  0
 13 14  1  0  0  0  0
 14 18  1  0  0  0  0
 15 14  2  0  0  0  0
 16 10  1  0  0  0  0
 16 19  1  0  0  0  0
 17 11  1  0  0  0  0
 20 16  1  0  0  0  0
 21 26  1  0  0  0  0
 22 21  2  0  0  0  0
 22 23  1  0  0  0  0
 23 24  2  0  0  0  0
 24 25  1  0  0  0  0
 24 29  1  0  0  0  0
 25 30  1  0  0  0  0
 26 31  1  0  0  0  0
 26 25  2  0  0  0  0
 27 22  1  0  0  0  0
 28 23  1  0  0  0  0
 31 32  1  0  0  0  0
 32 34  2  0  0  0  0
 32 33  1  0  0  0  0
 34 35  1  0  0  0  0
 36 34  1  0  0  0  0
 37 36  2  0  0  0  0
 38 37  1  0  0  0  0
 38 31  2  0  0  0  0
 40 39  3  0  0  0  0
M  END
>  <minimizedAffinity>
-5.95685053

>  <minimizedRMSD>
0.0974214673

$$$$
