
 OpenBabel03242520173D

 24 26  0  0  0  0  0  0  0  0999 V2000
   36.9320   28.7180   42.1360 C   0  0  0  0  0  0  0  0  0  0  0  0
   37.6980   29.8840   41.8990 C   0  0  0  0  0  0  0  0  0  0  0  0
   37.2880   30.7610   40.8750 C   0  0  0  0  0  0  0  0  0  0  0  0
   36.1700   30.4300   40.1680 N   0  0  0  0  0  0  0  0  0  0  0  0
   35.4710   29.2960   40.4370 C   0  0  0  0  0  0  0  0  0  0  0  0
   35.8370   28.4530   41.3990 N   0  0  0  0  0  0  0  0  0  0  0  0
   38.5620   30.1020   42.4740 H   0  0  0  0  0  0  0  0  0  0  0  0
   34.5880   29.1090   39.8220 H   0  0  0  0  0  0  0  0  0  0  0  0
   37.3910   27.8090   43.2080 C   0  0  0  0  0  0  0  0  0  0  0  0
   38.0290   26.5090   42.6590 C   0  0  0  0  0  0  0  0  0  0  0  0
   38.7890   27.5170   43.4410 C   0  0  0  0  0  0  0  0  0  0  0  0
   36.6670   27.6670   44.0360 H   0  0  0  0  0  0  0  0  0  0  0  0
   38.1220   26.4030   41.5810 H   0  0  0  0  0  0  0  0  0  0  0  0
   37.6960   25.5710   43.1780 H   0  0  0  0  0  0  0  0  0  0  0  0
   39.1610   27.2420   44.4440 H   0  0  0  0  0  0  0  0  0  0  0  0
   39.5900   28.0490   42.8580 H   0  0  0  0  0  0  0  0  0  0  0  0
   38.0680   31.9660   40.6210 C   0  0  0  0  0  0  0  0  0  0  0  0
   37.4290   33.0700   40.0960 C   0  0  0  0  0  0  0  0  0  0  0  0
   36.3740   33.0810   39.8640 H   0  0  0  0  0  0  0  0  0  0  0  0
   38.2480   34.1580   39.8930 C   0  0  0  0  0  0  0  0  0  0  0  0
   37.8600   35.0810   39.4850 H   0  0  0  0  0  0  0  0  0  0  0  0
   39.5770   34.1240   40.1920 C   0  0  0  0  0  3  0  0  0  0  0  0
   40.1910   32.9930   40.7220 C   0  0  0  0  0  3  0  0  0  0  0  0
   39.3680   31.9200   40.9190 N   0  0  0  0  0  0  0  0  0  0  0  0
  1  9  1  0  0  0  0
  2  1  1  0  0  0  0
  2  7  1  0  0  0  0
  3  2  2  0  0  0  0
  4  5  2  0  0  0  0
  4  3  1  0  0  0  0
  5  6  1  0  0  0  0
  6  1  2  0  0  0  0
  8  5  1  0  0  0  0
  9 11  1  0  0  0  0
  9 12  1  0  0  0  0
 10 14  1  0  0  0  0
 10  9  1  0  0  0  0
 10 11  1  0  0  0  0
 11 15  1  0  0  0  0
 13 10  1  0  0  0  0
 16 11  1  0  0  0  0
 17  3  1  0  0  0  0
 17 24  1  0  0  0  0
 18 17  2  0  0  0  0
 19 18  1  0  0  0  0
 20 18  1  0  0  0  0
 20 22  2  0  0  0  0
 21 20  1  0  0  0  0
 22 23  1  0  0  0  0
 23 24  2  0  0  0  0
M  END
>  <minimizedAffinity>
-4.71560669

$$$$

 OpenBabel03242520173D

 24 26  0  0  0  0  0  0  0  0999 V2000
   37.1310   30.7550   40.7260 C   0  0  0  0  0  0  0  0  0  0  0  0
   37.9660   29.8030   41.3580 C   0  0  0  0  0  0  0  0  0  0  0  0
   37.4480   28.5160   41.6090 C   0  0  0  0  0  0  0  0  0  0  0  0
   36.1640   28.2650   41.2260 N   0  0  0  0  0  0  0  0  0  0  0  0
   35.4050   29.2170   40.6220 C   0  0  0  0  0  0  0  0  0  0  0  0
   35.8710   30.4380   40.3740 N   0  0  0  0  0  0  0  0  0  0  0  0
   38.9590   30.0420   41.6400 H   0  0  0  0  0  0  0  0  0  0  0  0
   34.3870   28.9300   40.3480 H   0  0  0  0  0  0  0  0  0  0  0  0
   37.6950   32.1010   40.4850 C   0  0  0  0  0  0  0  0  0  0  0  0
   38.3720   32.2260   39.0980 C   0  0  0  0  0  0  0  0  0  0  0  0
   37.1660   33.0020   39.4850 C   0  0  0  0  0  0  0  0  0  0  0  0
   38.2740   32.5180   41.3340 H   0  0  0  0  0  0  0  0  0  0  0  0
   38.3350   31.3670   38.4340 H   0  0  0  0  0  0  0  0  0  0  0  0
   39.3680   32.7450   39.1110 H   0  0  0  0  0  0  0  0  0  0  0  0
   37.2520   34.0980   39.5950 H   0  0  0  0  0  0  0  0  0  0  0  0
   36.2390   32.7360   38.9070 H   0  0  0  0  0  0  0  0  0  0  0  0
   38.2980   27.5270   42.2590 C   0  0  0  0  0  0  0  0  0  0  0  0
   39.2920   27.9650   43.1090 C   0  0  0  0  0  0  0  0  0  0  0  0
   39.4690   29.0100   43.3140 H   0  0  0  0  0  0  0  0  0  0  0  0
   40.0410   26.9580   43.6750 C   0  0  0  0  0  0  0  0  0  0  0  0
   40.8500   27.1780   44.3580 H   0  0  0  0  0  0  0  0  0  0  0  0
   39.8030   25.6440   43.4040 C   0  0  0  0  0  3  0  0  0  0  0  0
   38.7890   25.2350   42.5410 C   0  0  0  0  0  3  0  0  0  0  0  0
   38.0540   26.2430   41.9860 N   0  0  0  0  0  0  0  0  0  0  0  0
  1  2  1  0  0  0  0
  2  3  2  0  0  0  0
  2  7  1  0  0  0  0
  3 17  1  0  0  0  0
  4  3  1  0  0  0  0
  5  4  2  0  0  0  0
  6  5  1  0  0  0  0
  6  1  2  0  0  0  0
  8  5  1  0  0  0  0
  9  1  1  0  0  0  0
  9 12  1  0  0  0  0
 10 14  1  0  0  0  0
 10 11  1  0  0  0  0
 10  9  1  0  0  0  0
 11 15  1  0  0  0  0
 11  9  1  0  0  0  0
 13 10  1  0  0  0  0
 16 11  1  0  0  0  0
 17 18  1  0  0  0  0
 18 19  1  0  0  0  0
 18 20  2  0  0  0  0
 20 21  1  0  0  0  0
 22 20  1  0  0  0  0
 23 22  2  0  0  0  0
 24 17  2  0  0  0  0
 24 23  1  0  0  0  0
M  END
>  <minimizedAffinity>
-4.50228882

$$$$

 OpenBabel03242520173D

 24 26  0  0  0  0  0  0  0  0999 V2000
   37.2120   27.0340   41.6380 C   0  0  0  0  0  0  0  0  0  0  0  0
   37.3500   28.2720   40.9660 C   0  0  0  0  0  0  0  0  0  0  0  0
   37.6000   29.4290   41.7330 C   0  0  0  0  0  0  0  0  0  0  0  0
   37.6940   29.2840   43.0850 N   0  0  0  0  0  0  0  0  0  0  0  0
   37.5530   28.0700   43.6800 C   0  0  0  0  0  0  0  0  0  0  0  0
   37.3170   26.9650   42.9790 N   0  0  0  0  0  0  0  0  0  0  0  0
   37.2680   28.3380   39.9110 H   0  0  0  0  0  0  0  0  0  0  0  0
   37.6430   28.0460   44.7680 H   0  0  0  0  0  0  0  0  0  0  0  0
   36.9370   25.8380   40.8130 C   0  0  0  0  0  0  0  0  0  0  0  0
   38.1540   24.8850   40.7170 C   0  0  0  0  0  0  0  0  0  0  0  0
   36.8740   24.5040   41.3670 C   0  0  0  0  0  0  0  0  0  0  0  0
   36.4240   26.0480   39.8530 H   0  0  0  0  0  0  0  0  0  0  0  0
   39.0480   25.1430   41.2790 H   0  0  0  0  0  0  0  0  0  0  0  0
   38.3640   24.5000   39.6840 H   0  0  0  0  0  0  0  0  0  0  0  0
   36.2560   23.7160   40.9010 H   0  0  0  0  0  0  0  0  0  0  0  0
   36.9470   24.3410   42.4770 H   0  0  0  0  0  0  0  0  0  0  0  0
   37.7450   30.7090   41.0520 C   0  0  0  0  0  0  0  0  0  0  0  0
   36.7900   31.0790   40.1280 C   0  0  0  0  0  0  0  0  0  0  0  0
   35.9380   30.4600   39.8860 H   0  0  0  0  0  0  0  0  0  0  0  0
   37.0120   32.3030   39.5390 C   0  0  0  0  0  0  0  0  0  0  0  0
   36.3300   32.7000   38.7990 H   0  0  0  0  0  0  0  0  0  0  0  0
   38.0920   33.0700   39.8570 C   0  0  0  0  0  3  0  0  0  0  0  0
   39.0390   32.6660   40.7960 C   0  0  0  0  0  3  0  0  0  0  0  0
   38.8070   31.4500   41.3730 N   0  0  0  0  0  0  0  0  0  0  0  0
  1  6  1  0  0  0  0
  2  1  2  0  0  0  0
  2  3  1  0  0  0  0
  3  4  2  0  0  0  0
  4  5  1  0  0  0  0
  5  8  1  0  0  0  0
  6  5  2  0  0  0  0
  7  2  1  0  0  0  0
  9 11  1  0  0  0  0
  9  1  1  0  0  0  0
 10  9  1  0  0  0  0
 10 13  1  0  0  0  0
 10 11  1  0  0  0  0
 11 16  1  0  0  0  0
 12  9  1  0  0  0  0
 14 10  1  0  0  0  0
 15 11  1  0  0  0  0
 17 24  1  0  0  0  0
 17  3  1  0  0  0  0
 18 17  2  0  0  0  0
 19 18  1  0  0  0  0
 20 22  2  0  0  0  0
 20 18  1  0  0  0  0
 21 20  1  0  0  0  0
 22 23  1  0  0  0  0
 23 24  2  0  0  0  0
M  END
>  <minimizedAffinity>
-4.49598837

$$$$

 OpenBabel03242520173D

 24 26  0  0  0  0  0  0  0  0999 V2000
   36.5130   28.8520   41.4270 C   0  0  0  0  0  0  0  0  0  0  0  0
   36.0100   28.5920   40.1300 C   0  0  0  0  0  0  0  0  0  0  0  0
   35.9590   29.6530   39.2030 C   0  0  0  0  0  0  0  0  0  0  0  0
   36.4000   30.8750   39.6160 N   0  0  0  0  0  0  0  0  0  0  0  0
   36.8740   31.0710   40.8740 C   0  0  0  0  0  0  0  0  0  0  0  0
   36.9330   30.0860   41.7660 N   0  0  0  0  0  0  0  0  0  0  0  0
   35.6770   27.6240   39.8530 H   0  0  0  0  0  0  0  0  0  0  0  0
   37.2070   32.0820   41.1200 H   0  0  0  0  0  0  0  0  0  0  0  0
   36.5450   27.7250   42.3840 C   0  0  0  0  0  0  0  0  0  0  0  0
   37.9730   27.1660   42.6020 C   0  0  0  0  0  0  0  0  0  0  0  0
   37.1840   27.8170   43.6790 C   0  0  0  0  0  0  0  0  0  0  0  0
   35.7570   26.9620   42.2250 H   0  0  0  0  0  0  0  0  0  0  0  0
   38.7960   27.6580   42.0910 H   0  0  0  0  0  0  0  0  0  0  0  0
   38.0400   26.0450   42.5930 H   0  0  0  0  0  0  0  0  0  0  0  0
   36.8430   27.2050   44.5330 H   0  0  0  0  0  0  0  0  0  0  0  0
   37.6080   28.7930   44.0400 H   0  0  0  0  0  0  0  0  0  0  0  0
   35.4430   29.3970   37.8650 C   0  0  0  0  0  0  0  0  0  0  0  0
   34.1470   28.9410   37.7300 C   0  0  0  0  0  0  0  0  0  0  0  0
   33.4970   28.7660   38.5750 H   0  0  0  0  0  0  0  0  0  0  0  0
   33.7510   28.7300   36.4290 C   0  0  0  0  0  0  0  0  0  0  0  0
   32.7560   28.3730   36.1990 H   0  0  0  0  0  0  0  0  0  0  0  0
   34.5850   28.9570   35.3770 C   0  0  0  0  0  3  0  0  0  0  0  0
   35.8880   29.4170   35.5470 C   0  0  0  0  0  3  0  0  0  0  0  0
   36.2700   29.6240   36.8420 N   0  0  0  0  0  0  0  0  0  0  0  0
  1  6  1  0  0  0  0
  1  9  1  0  0  0  0
  2  1  2  0  0  0  0
  3  4  2  0  0  0  0
  3  2  1  0  0  0  0
  4  5  1  0  0  0  0
  5  8  1  0  0  0  0
  5  6  2  0  0  0  0
  7  2  1  0  0  0  0
  9 10  1  0  0  0  0
  9 11  1  0  0  0  0
 10 11  1  0  0  0  0
 11 16  1  0  0  0  0
 11 15  1  0  0  0  0
 12  9  1  0  0  0  0
 13 10  1  0  0  0  0
 14 10  1  0  0  0  0
 17  3  1  0  0  0  0
 18 17  1  0  0  0  0
 18 19  1  0  0  0  0
 20 18  2  0  0  0  0
 21 20  1  0  0  0  0
 22 23  2  0  0  0  0
 22 20  1  0  0  0  0
 23 24  1  0  0  0  0
 24 17  2  0  0  0  0
M  END
>  <minimizedAffinity>
-4.3887558

$$$$

 OpenBabel03242520173D

 24 26  0  0  0  0  0  0  0  0999 V2000
   37.9340   26.7150   42.4470 C   0  0  0  0  0  0  0  0  0  0  0  0
   37.6330   27.9590   41.8430 C   0  0  0  0  0  0  0  0  0  0  0  0
   38.5220   29.0350   42.0390 C   0  0  0  0  0  0  0  0  0  0  0  0
   39.6270   28.8100   42.8050 N   0  0  0  0  0  0  0  0  0  0  0  0
   39.8690   27.5950   43.3630 C   0  0  0  0  0  0  0  0  0  0  0  0
   39.0460   26.5640   43.1920 N   0  0  0  0  0  0  0  0  0  0  0  0
   36.7600   28.0880   41.2550 H   0  0  0  0  0  0  0  0  0  0  0  0
   40.7780   27.5040   43.9620 H   0  0  0  0  0  0  0  0  0  0  0  0
   36.9790   25.6060   42.2350 C   0  0  0  0  0  0  0  0  0  0  0  0
   37.1390   24.9340   40.8490 C   0  0  0  0  0  0  0  0  0  0  0  0
   37.3960   24.2250   42.1280 C   0  0  0  0  0  0  0  0  0  0  0  0
   35.9360   25.8310   42.5340 H   0  0  0  0  0  0  0  0  0  0  0  0
   37.9340   25.2910   40.2000 H   0  0  0  0  0  0  0  0  0  0  0  0
   36.1720   24.7360   40.3130 H   0  0  0  0  0  0  0  0  0  0  0  0
   36.7260   23.3970   42.4200 H   0  0  0  0  0  0  0  0  0  0  0  0
   38.4700   23.9370   42.2910 H   0  0  0  0  0  0  0  0  0  0  0  0
   38.2220   30.3200   41.4220 C   0  0  0  0  0  0  0  0  0  0  0  0
   37.0000   30.4890   40.8050 C   0  0  0  0  0  0  0  0  0  0  0  0
   36.2540   29.7090   40.7580 H   0  0  0  0  0  0  0  0  0  0  0  0
   36.8090   31.7350   40.2520 C   0  0  0  0  0  0  0  0  0  0  0  0
   35.8890   31.9860   39.7420 H   0  0  0  0  0  0  0  0  0  0  0  0
   37.7620   32.7070   40.3210 C   0  0  0  0  0  3  0  0  0  0  0  0
   38.9860   32.5030   40.9520 C   0  0  0  0  0  3  0  0  0  0  0  0
   39.1640   31.2630   41.4960 N   0  0  0  0  0  0  0  0  0  0  0  0
  1  6  1  0  0  0  0
  2  3  1  0  0  0  0
  2  1  2  0  0  0  0
  3  4  2  0  0  0  0
  4  5  1  0  0  0  0
  5  8  1  0  0  0  0
  6  5  2  0  0  0  0
  7  2  1  0  0  0  0
  9  1  1  0  0  0  0
  9 12  1  0  0  0  0
 10 11  1  0  0  0  0
 10  9  1  0  0  0  0
 11  9  1  0  0  0  0
 11 16  1  0  0  0  0
 11 15  1  0  0  0  0
 13 10  1  0  0  0  0
 14 10  1  0  0  0  0
 17 24  1  0  0  0  0
 17  3  1  0  0  0  0
 18 17  2  0  0  0  0
 19 18  1  0  0  0  0
 20 22  2  0  0  0  0
 20 18  1  0  0  0  0
 21 20  1  0  0  0  0
 22 23  1  0  0  0  0
 23 24  2  0  0  0  0
M  END
>  <minimizedAffinity>
-4.38673925

$$$$

 OpenBabel03242520173D

 24 26  0  0  0  0  0  0  0  0999 V2000
   35.8740   28.9420   40.2910 C   0  0  0  0  0  0  0  0  0  0  0  0
   36.5900   27.8180   40.7670 C   0  0  0  0  0  0  0  0  0  0  0  0
   37.5200   28.0050   41.8100 C   0  0  0  0  0  0  0  0  0  0  0  0
   37.6750   29.2680   42.3000 N   0  0  0  0  0  0  0  0  0  0  0  0
   36.9600   30.3130   41.8060 C   0  0  0  0  0  0  0  0  0  0  0  0
   36.0770   30.1620   40.8230 N   0  0  0  0  0  0  0  0  0  0  0  0
   36.4380   26.8530   40.3550 H   0  0  0  0  0  0  0  0  0  0  0  0
   37.1480   31.2900   42.2580 H   0  0  0  0  0  0  0  0  0  0  0  0
   34.9130   28.7200   39.1890 C   0  0  0  0  0  0  0  0  0  0  0  0
   35.4240   29.2630   37.8320 C   0  0  0  0  0  0  0  0  0  0  0  0
   35.1810   27.8200   38.0880 C   0  0  0  0  0  0  0  0  0  0  0  0
   33.8620   28.9720   39.4340 H   0  0  0  0  0  0  0  0  0  0  0  0
   36.4190   29.6990   37.8000 H   0  0  0  0  0  0  0  0  0  0  0  0
   34.6590   29.8360   37.2420 H   0  0  0  0  0  0  0  0  0  0  0  0
   34.3620   27.3140   37.5460 H   0  0  0  0  0  0  0  0  0  0  0  0
   36.1090   27.1850   38.0800 H   0  0  0  0  0  0  0  0  0  0  0  0
   38.2640   26.8550   42.3080 C   0  0  0  0  0  0  0  0  0  0  0  0
   39.2300   27.0590   43.2720 C   0  0  0  0  0  0  0  0  0  0  0  0
   39.4600   28.0350   43.6740 H   0  0  0  0  0  0  0  0  0  0  0  0
   39.8760   25.9140   43.6800 C   0  0  0  0  0  0  0  0  0  0  0  0
   40.6540   25.9480   44.4310 H   0  0  0  0  0  0  0  0  0  0  0  0
   39.5720   24.6920   43.1610 C   0  0  0  0  0  3  0  0  0  0  0  0
   38.5910   24.5210   42.1880 C   0  0  0  0  0  3  0  0  0  0  0  0
   37.9560   25.6630   41.7920 N   0  0  0  0  0  0  0  0  0  0  0  0
  1  2  2  0  0  0  0
  1  6  1  0  0  0  0
  2  3  1  0  0  0  0
  3  4  2  0  0  0  0
  3 17  1  0  0  0  0
  5  8  1  0  0  0  0
  5  4  1  0  0  0  0
  6  5  2  0  0  0  0
  7  2  1  0  0  0  0
  9 12  1  0  0  0  0
  9  1  1  0  0  0  0
 10 11  1  0  0  0  0
 10  9  1  0  0  0  0
 11  9  1  0  0  0  0
 13 10  1  0  0  0  0
 14 10  1  0  0  0  0
 15 11  1  0  0  0  0
 16 11  1  0  0  0  0
 17 18  1  0  0  0  0
 18 19  1  0  0  0  0
 18 20  2  0  0  0  0
 20 21  1  0  0  0  0
 22 20  1  0  0  0  0
 23 22  2  0  0  0  0
 24 23  1  0  0  0  0
 24 17  2  0  0  0  0
M  END
>  <minimizedAffinity>
-4.34035063

$$$$

 OpenBabel03242520173D

 24 26  0  0  0  0  0  0  0  0999 V2000
   37.5670   29.6150   42.2960 C   0  0  0  0  0  0  0  0  0  0  0  0
   38.6850   30.4350   42.0110 C   0  0  0  0  0  0  0  0  0  0  0  0
   38.5420   31.4570   41.0510 C   0  0  0  0  0  0  0  0  0  0  0  0
   37.3260   31.5950   40.4500 N   0  0  0  0  0  0  0  0  0  0  0  0
   36.2840   30.7790   40.7610 C   0  0  0  0  0  0  0  0  0  0  0  0
   36.3940   29.8090   41.6630 N   0  0  0  0  0  0  0  0  0  0  0  0
   39.6130   30.2910   42.5030 H   0  0  0  0  0  0  0  0  0  0  0  0
   35.3460   30.9610   40.2310 H   0  0  0  0  0  0  0  0  0  0  0  0
   37.7470   28.5430   43.2990 C   0  0  0  0  0  0  0  0  0  0  0  0
   37.6510   27.1260   42.6830 C   0  0  0  0  0  0  0  0  0  0  0  0
   38.8920   27.6590   43.3000 C   0  0  0  0  0  0  0  0  0  0  0  0
   37.1790   28.6900   44.2390 H   0  0  0  0  0  0  0  0  0  0  0  0
   37.5110   27.0460   41.6080 H   0  0  0  0  0  0  0  0  0  0  0  0
   37.0280   26.4020   43.2740 H   0  0  0  0  0  0  0  0  0  0  0  0
   39.2620   27.1980   44.2330 H   0  0  0  0  0  0  0  0  0  0  0  0
   39.7380   27.8170   42.5770 H   0  0  0  0  0  0  0  0  0  0  0  0
   39.6860   32.3080   40.7490 C   0  0  0  0  0  0  0  0  0  0  0  0
   39.4930   33.4200   39.9560 C   0  0  0  0  0  0  0  0  0  0  0  0
   38.5290   33.6890   39.5480 H   0  0  0  0  0  0  0  0  0  0  0  0
   40.6310   34.1600   39.7280 C   0  0  0  0  0  0  0  0  0  0  0  0
   40.6040   35.0550   39.1210 H   0  0  0  0  0  0  0  0  0  0  0  0
   41.8370   33.8060   40.2510 C   0  0  0  0  0  3  0  0  0  0  0  0
   41.9980   32.6750   41.0490 C   0  0  0  0  0  3  0  0  0  0  0  0
   40.8620   31.9500   41.2680 N   0  0  0  0  0  0  0  0  0  0  0  0
  1  9  1  0  0  0  0
  2  1  1  0  0  0  0
  2  7  1  0  0  0  0
  3  2  2  0  0  0  0
  4  5  2  0  0  0  0
  4  3  1  0  0  0  0
  5  6  1  0  0  0  0
  6  1  2  0  0  0  0
  8  5  1  0  0  0  0
  9 11  1  0  0  0  0
  9 12  1  0  0  0  0
 10 14  1  0  0  0  0
 10  9  1  0  0  0  0
 10 11  1  0  0  0  0
 11 15  1  0  0  0  0
 13 10  1  0  0  0  0
 16 11  1  0  0  0  0
 17  3  1  0  0  0  0
 17 24  1  0  0  0  0
 18 17  2  0  0  0  0
 19 18  1  0  0  0  0
 20 18  1  0  0  0  0
 20 22  2  0  0  0  0
 21 20  1  0  0  0  0
 22 23  1  0  0  0  0
 23 24  2  0  0  0  0
M  END
>  <minimizedAffinity>
-4.319417

$$$$

 OpenBabel03242520173D

 24 26  0  0  0  0  0  0  0  0999 V2000
   36.8950   30.4010   39.7880 C   0  0  0  0  0  0  0  0  0  0  0  0
   37.9440   29.8560   40.5660 C   0  0  0  0  0  0  0  0  0  0  0  0
   37.6530   28.7740   41.4220 C   0  0  0  0  0  0  0  0  0  0  0  0
   36.3700   28.3160   41.4490 N   0  0  0  0  0  0  0  0  0  0  0  0
   35.4000   28.8770   40.6800 C   0  0  0  0  0  0  0  0  0  0  0  0
   35.6490   29.8970   39.8640 N   0  0  0  0  0  0  0  0  0  0  0  0
   38.9280   30.2460   40.5140 H   0  0  0  0  0  0  0  0  0  0  0  0
   34.3990   28.4460   40.7640 H   0  0  0  0  0  0  0  0  0  0  0  0
   37.2240   31.5430   38.9070 C   0  0  0  0  0  0  0  0  0  0  0  0
   37.3240   32.8830   39.6770 C   0  0  0  0  0  0  0  0  0  0  0  0
   38.4800   32.2560   38.9880 C   0  0  0  0  0  0  0  0  0  0  0  0
   36.6430   31.5820   37.9640 H   0  0  0  0  0  0  0  0  0  0  0  0
   37.1950   32.8610   40.7560 H   0  0  0  0  0  0  0  0  0  0  0  0
   36.8090   33.7470   39.1780 H   0  0  0  0  0  0  0  0  0  0  0  0
   38.9120   32.7620   38.1070 H   0  0  0  0  0  0  0  0  0  0  0  0
   39.2950   31.9020   39.6770 H   0  0  0  0  0  0  0  0  0  0  0  0
   38.7250   28.2040   42.2290 C   0  0  0  0  0  0  0  0  0  0  0  0
   38.4710   27.0560   42.9510 C   0  0  0  0  0  0  0  0  0  0  0  0
   37.5110   26.5610   42.9450 H   0  0  0  0  0  0  0  0  0  0  0  0
   39.5430   26.5940   43.6800 C   0  0  0  0  0  0  0  0  0  0  0  0
   39.4640   25.7010   44.2850 H   0  0  0  0  0  0  0  0  0  0  0  0
   40.7460   27.2330   43.6740 C   0  0  0  0  0  3  0  0  0  0  0  0
   40.9700   28.3910   42.9340 C   0  0  0  0  0  3  0  0  0  0  0  0
   39.8980   28.8390   42.2150 N   0  0  0  0  0  0  0  0  0  0  0  0
  1  6  2  0  0  0  0
  1  2  1  0  0  0  0
  2  3  2  0  0  0  0
  3  4  1  0  0  0  0
  3 17  1  0  0  0  0
  5  8  1  0  0  0  0
  5  4  2  0  0  0  0
  6  5  1  0  0  0  0
  7  2  1  0  0  0  0
  9 11  1  0  0  0  0
  9 10  1  0  0  0  0
  9  1  1  0  0  0  0
 10 13  1  0  0  0  0
 11 16  1  0  0  0  0
 11 10  1  0  0  0  0
 12  9  1  0  0  0  0
 14 10  1  0  0  0  0
 15 11  1  0  0  0  0
 17 18  1  0  0  0  0
 18 20  2  0  0  0  0
 19 18  1  0  0  0  0
 20 21  1  0  0  0  0
 22 20  1  0  0  0  0
 23 22  2  0  0  0  0
 24 17  2  0  0  0  0
 24 23  1  0  0  0  0
M  END
>  <minimizedAffinity>
-4.22343683

$$$$

 OpenBabel03242520173D

 24 26  0  0  0  0  0  0  0  0999 V2000
   37.0410   29.9650   37.5380 C   0  0  0  0  0  0  0  0  0  0  0  0
   37.0450   29.2650   38.7680 C   0  0  0  0  0  0  0  0  0  0  0  0
   37.2560   29.9940   39.9560 C   0  0  0  0  0  0  0  0  0  0  0  0
   37.4450   31.3400   39.8470 N   0  0  0  0  0  0  0  0  0  0  0  0
   37.4330   31.9620   38.6390 C   0  0  0  0  0  0  0  0  0  0  0  0
   37.2350   31.2970   37.5050 N   0  0  0  0  0  0  0  0  0  0  0  0
   36.8940   28.2160   38.8050 H   0  0  0  0  0  0  0  0  0  0  0  0
   37.5930   33.0430   38.6450 H   0  0  0  0  0  0  0  0  0  0  0  0
   36.8300   29.1750   36.3060 C   0  0  0  0  0  0  0  0  0  0  0  0
   35.3390   29.0920   35.8960 C   0  0  0  0  0  0  0  0  0  0  0  0
   36.3710   29.7650   35.0680 C   0  0  0  0  0  0  0  0  0  0  0  0
   37.3830   28.2150   36.2720 H   0  0  0  0  0  0  0  0  0  0  0  0
   34.6150   29.6370   36.4970 H   0  0  0  0  0  0  0  0  0  0  0  0
   34.9950   28.0680   35.5930 H   0  0  0  0  0  0  0  0  0  0  0  0
   36.6350   29.3280   34.0890 H   0  0  0  0  0  0  0  0  0  0  0  0
   36.2410   30.8790   34.9780 H   0  0  0  0  0  0  0  0  0  0  0  0
   37.2620   29.2840   41.2290 C   0  0  0  0  0  0  0  0  0  0  0  0
   36.4000   28.2200   41.3970 C   0  0  0  0  0  0  0  0  0  0  0  0
   35.7200   27.8890   40.6260 H   0  0  0  0  0  0  0  0  0  0  0  0
   36.4790   27.6140   42.6310 C   0  0  0  0  0  0  0  0  0  0  0  0
   35.8520   26.7690   42.8800 H   0  0  0  0  0  0  0  0  0  0  0  0
   37.3430   28.0460   43.5910 C   0  0  0  0  0  3  0  0  0  0  0  0
   38.2000   29.1240   43.3890 C   0  0  0  0  0  3  0  0  0  0  0  0
   38.1130   29.7170   42.1610 N   0  0  0  0  0  0  0  0  0  0  0  0
  1  2  1  0  0  0  0
  2  7  1  0  0  0  0
  2  3  2  0  0  0  0
  3 17  1  0  0  0  0
  4  3  1  0  0  0  0
  5  8  1  0  0  0  0
  5  4  2  0  0  0  0
  6  1  2  0  0  0  0
  6  5  1  0  0  0  0
  9  1  1  0  0  0  0
 10  9  1  0  0  0  0
 10 13  1  0  0  0  0
 11 10  1  0  0  0  0
 11  9  1  0  0  0  0
 12  9  1  0  0  0  0
 14 10  1  0  0  0  0
 15 11  1  0  0  0  0
 16 11  1  0  0  0  0
 17 18  2  0  0  0  0
 17 24  1  0  0  0  0
 18 20  1  0  0  0  0
 19 18  1  0  0  0  0
 20 21  1  0  0  0  0
 20 22  2  0  0  0  0
 23 22  1  0  0  0  0
 24 23  2  0  0  0  0
M  END
>  <minimizedAffinity>
-4.15357161

$$$$
