
 OpenBabel03242517243D

 42 45  0  0  1  0  0  0  0  0999 V2000
   38.8920   32.5330   40.6380 C   0  0  0  0  0  0  0  0  0  0  0  0
   38.0570   32.8860   39.5520 C   0  0  0  0  0  0  0  0  0  0  0  0
   36.9520   32.0690   39.2530 C   0  0  0  0  0  0  0  0  0  0  0  0
   36.7570   30.9830   40.0340 N   0  0  0  0  0  0  0  0  0  0  0  0
   37.5750   30.6660   41.0710 C   0  0  0  0  0  0  0  0  0  0  0  0
   38.6490   31.4460   41.3750 N   0  0  0  0  0  0  0  0  0  0  0  0
   37.2710   29.4870   41.8330 N   0  0  0  0  0  0  0  0  0  0  0  0
   37.9900   29.3630   43.1000 C   0  0  0  0  0  0  0  0  0  0  0  0
   37.9840   28.0110   43.6800 C   0  0  0  0  0  0  0  0  0  0  0  0
   36.6960   27.3200   43.3990 C   0  0  0  0  0  0  0  0  0  0  0  0
   36.5990   27.1770   41.9080 C   0  0  0  0  0  0  0  0  0  0  0  0
   36.3170   28.5240   41.3430 C   0  0  2  0  0  0  0  0  0  0  0  0
   39.7460   33.1620   40.8720 H   0  0  0  0  0  0  0  0  0  0  0  0
   38.2700   33.7650   38.9730 H   0  0  0  0  0  0  0  0  0  0  0  0
   36.3060   32.3220   38.4310 H   0  0  0  0  0  0  0  0  0  0  0  0
   37.4690   30.0570   43.8010 H   0  0  0  0  0  0  0  0  0  0  0  0
   39.0310   29.7420   43.0050 H   0  0  0  0  0  0  0  0  0  0  0  0
   38.8570   27.4050   43.3340 H   0  0  0  0  0  0  0  0  0  0  0  0
   38.1060   28.0920   44.7890 H   0  0  0  0  0  0  0  0  0  0  0  0
   35.8590   27.9680   43.7240 H   0  0  0  0  0  0  0  0  0  0  0  0
   36.6110   26.3500   43.9310 H   0  0  0  0  0  0  0  0  0  0  0  0
   37.5750   26.8150   41.5050 H   0  0  0  0  0  0  0  0  0  0  0  0
   35.8270   26.4460   41.5930 H   0  0  0  0  0  0  0  0  0  0  0  0
   35.3250   28.8680   41.7350 H   0  0  0  0  0  0  0  0  0  0  0  0
   33.9230   29.1670   39.9320 F   0  0  0  0  0  0  0  0  0  0  0  0
   34.9930   28.8210   39.1810 C   0  0  0  0  0  0  0  0  0  0  0  0
   36.1780   28.5040   39.8640 C   0  0  0  0  0  0  0  0  0  0  0  0
   37.2470   28.1570   39.0530 C   0  0  0  0  0  0  0  0  0  0  0  0
   37.1900   28.1140   37.6890 C   0  0  0  0  0  0  0  0  0  0  0  0
   36.0150   28.4290   37.0550 C   0  0  0  0  0  0  0  0  0  0  0  0
   34.9140   28.7840   37.8180 C   0  0  0  0  0  0  0  0  0  0  0  0
   38.1650   27.9120   39.5680 H   0  0  0  0  0  0  0  0  0  0  0  0
   38.0720   27.8330   37.1500 H   0  0  0  0  0  0  0  0  0  0  0  0
   36.0460   28.3730   35.9750 H   0  0  0  0  0  0  0  0  0  0  0  0
   33.7350   29.0930   37.0380 C   0  0  0  0  0  0  0  0  0  0  0  0
   32.4430   29.2560   37.4680 C   0  0  0  0  0  0  0  0  0  0  0  0
   32.2360   29.1480   38.5190 H   0  0  0  0  0  0  0  0  0  0  0  0
   31.3510   29.5490   36.6870 C   0  0  0  0  0  0  0  0  0  0  0  0
   30.3670   29.6600   37.1170 H   0  0  0  0  0  0  0  0  0  0  0  0
   31.5260   29.7030   35.3380 C   0  0  0  0  0  3  0  0  0  0  0  0
   32.8060   29.5440   34.8910 C   0  0  0  0  0  3  0  0  0  0  0  0
   33.8100   29.2610   35.7050 N   0  0  0  0  0  0  0  0  0  0  0  0
  1 13  1  0  0  0  0
  1  6  1  0  0  0  0
  2  1  2  0  0  0  0
  3  2  1  0  0  0  0
  3  4  2  0  0  0  0
  4  5  1  0  0  0  0
  5  6  2  0  0  0  0
  5  7  1  0  0  0  0
  7  8  1  0  0  0  0
  8  9  1  0  0  0  0
  8 16  1  0  0  0  0
  9 19  1  0  0  0  0
 10  9  1  0  0  0  0
 10 20  1  0  0  0  0
 10 21  1  0  0  0  0
 11 10  1  0  0  0  0
 12 24  1  1  0  0  0
 12  7  1  0  0  0  0
 12 11  1  0  0  0  0
 14  2  1  0  0  0  0
 15  3  1  0  0  0  0
 17  8  1  0  0  0  0
 18  9  1  0  0  0  0
 22 11  1  0  0  0  0
 23 11  1  0  0  0  0
 26 27  1  0  0  0  0
 26 25  1  0  0  0  0
 27 12  1  0  0  0  0
 28 32  1  0  0  0  0
 28 27  2  0  0  0  0
 29 28  1  0  0  0  0
 30 29  2  0  0  0  0
 30 31  1  0  0  0  0
 31 26  2  0  0  0  0
 33 29  1  0  0  0  0
 34 30  1  0  0  0  0
 35 36  1  0  0  0  0
 35 31  1  0  0  0  0
 36 37  1  0  0  0  0
 38 39  1  0  0  0  0
 38 36  2  0  0  0  0
 40 38  1  0  0  0  0
 41 40  2  0  0  0  0
 41 42  1  0  0  0  0
 42 35  2  0  0  0  0
M  END
>  <minimizedAffinity>
-6.58945942

$$$$

 OpenBabel03242517243D

 42 45  0  0  1  0  0  0  0  0999 V2000
   41.9760   30.7250   42.9270 C   0  0  0  0  0  0  0  0  0  0  0  0
   42.0760   29.3140   42.9610 C   0  0  0  0  0  0  0  0  0  0  0  0
   41.1230   28.5510   42.2620 C   0  0  0  0  0  0  0  0  0  0  0  0
   40.1600   29.2250   41.5940 N   0  0  0  0  0  0  0  0  0  0  0  0
   40.0880   30.5820   41.5790 C   0  0  0  0  0  0  0  0  0  0  0  0
   41.0020   31.3360   42.2490 N   0  0  0  0  0  0  0  0  0  0  0  0
   39.0210   31.1910   40.8350 N   0  0  0  0  0  0  0  0  0  0  0  0
   39.1650   32.6270   40.6040 C   0  0  0  0  0  0  0  0  0  0  0  0
   37.9270   33.3120   40.2020 C   0  0  0  0  0  0  0  0  0  0  0  0
   37.0840   32.4270   39.3520 C   0  0  0  0  0  0  0  0  0  0  0  0
   36.7000   31.2520   40.2010 C   0  0  0  0  0  0  0  0  0  0  0  0
   37.9080   30.4010   40.3690 C   0  0  2  0  0  0  0  0  0  0  0  0
   42.7110   31.3170   43.4650 H   0  0  0  0  0  0  0  0  0  0  0  0
   42.8680   28.8430   43.5120 H   0  0  0  0  0  0  0  0  0  0  0  0
   41.1820   27.4770   42.2760 H   0  0  0  0  0  0  0  0  0  0  0  0
   39.9100   32.7180   39.7780 H   0  0  0  0  0  0  0  0  0  0  0  0
   39.6180   33.1280   41.4870 H   0  0  0  0  0  0  0  0  0  0  0  0
   37.3570   33.6950   41.0840 H   0  0  0  0  0  0  0  0  0  0  0  0
   38.1930   34.2220   39.6090 H   0  0  0  0  0  0  0  0  0  0  0  0
   37.6950   32.0430   38.5130 H   0  0  0  0  0  0  0  0  0  0  0  0
   36.2060   32.9580   38.9290 H   0  0  0  0  0  0  0  0  0  0  0  0
   36.3710   31.6100   41.2060 H   0  0  0  0  0  0  0  0  0  0  0  0
   35.8600   30.6660   39.7760 H   0  0  0  0  0  0  0  0  0  0  0  0
   38.2170   30.0270   39.3590 H   0  0  0  0  0  0  0  0  0  0  0  0
   37.9590   27.7340   39.3590 F   0  0  0  0  0  0  0  0  0  0  0  0
   37.6680   27.8780   40.6730 C   0  0  0  0  0  0  0  0  0  0  0  0
   37.6430   29.1860   41.1820 C   0  0  0  0  0  0  0  0  0  0  0  0
   37.3430   29.2840   42.5310 C   0  0  0  0  0  0  0  0  0  0  0  0
   37.0840   28.2110   43.3370 C   0  0  0  0  0  0  0  0  0  0  0  0
   37.1180   26.9470   42.8050 C   0  0  0  0  0  0  0  0  0  0  0  0
   37.4130   26.7920   41.4610 C   0  0  0  0  0  0  0  0  0  0  0  0
   37.3210   30.2860   42.9350 H   0  0  0  0  0  0  0  0  0  0  0  0
   36.8620   28.3910   44.3700 H   0  0  0  0  0  0  0  0  0  0  0  0
   36.9030   26.1490   43.5040 H   0  0  0  0  0  0  0  0  0  0  0  0
   37.4170   25.4150   41.0160 C   0  0  0  0  0  0  0  0  0  0  0  0
   36.4830   24.7580   40.2580 C   0  0  0  0  0  0  0  0  0  0  0  0
   35.6150   25.3020   39.9290 H   0  0  0  0  0  0  0  0  0  0  0  0
   36.5300   23.4420   39.8600 C   0  0  0  0  0  0  0  0  0  0  0  0
   35.7440   23.0100   39.2600 H   0  0  0  0  0  0  0  0  0  0  0  0
   37.6000   22.6770   40.2350 C   0  0  0  0  0  3  0  0  0  0  0  0
   38.5410   23.3140   40.9910 C   0  0  0  0  0  3  0  0  0  0  0  0
   38.4280   24.5860   41.3370 N   0  0  0  0  0  0  0  0  0  0  0  0
  1  2  1  0  0  0  0
  1 13  1  0  0  0  0
  2 14  1  0  0  0  0
  3 15  1  0  0  0  0
  3  2  2  0  0  0  0
  4  3  1  0  0  0  0
  5  4  2  0  0  0  0
  5  6  1  0  0  0  0
  6  1  2  0  0  0  0
  7  5  1  0  0  0  0
  8  7  1  0  0  0  0
  8 17  1  0  0  0  0
  9  8  1  0  0  0  0
  9 18  1  0  0  0  0
 10 11  1  0  0  0  0
 10  9  1  0  0  0  0
 11 12  1  0  0  0  0
 11 22  1  0  0  0  0
 12 24  1  6  0  0  0
 12  7  1  0  0  0  0
 12 27  1  0  0  0  0
 16  8  1  0  0  0  0
 19  9  1  0  0  0  0
 20 10  1  0  0  0  0
 21 10  1  0  0  0  0
 23 11  1  0  0  0  0
 25 26  1  0  0  0  0
 26 27  2  0  0  0  0
 26 31  1  0  0  0  0
 27 28  1  0  0  0  0
 28 32  1  0  0  0  0
 28 29  2  0  0  0  0
 29 33  1  0  0  0  0
 30 29  1  0  0  0  0
 30 34  1  0  0  0  0
 31 30  2  0  0  0  0
 35 42  1  0  0  0  0
 35 31  1  0  0  0  0
 36 35  2  0  0  0  0
 37 36  1  0  0  0  0
 38 40  2  0  0  0  0
 38 36  1  0  0  0  0
 39 38  1  0  0  0  0
 40 41  1  0  0  0  0
 41 42  2  0  0  0  0
M  END
>  <minimizedAffinity>
-6.33155537

$$$$

 OpenBabel03242517243D

 42 45  0  0  1  0  0  0  0  0999 V2000
   35.8140   28.1790   37.5960 C   0  0  0  0  0  0  0  0  0  0  0  0
   36.6490   28.9990   36.8010 C   0  0  0  0  0  0  0  0  0  0  0  0
   37.7550   29.6260   37.4040 C   0  0  0  0  0  0  0  0  0  0  0  0
   37.9500   29.4000   38.7220 N   0  0  0  0  0  0  0  0  0  0  0  0
   37.1320   28.6080   39.4630 C   0  0  0  0  0  0  0  0  0  0  0  0
   36.0580   27.9930   38.8960 N   0  0  0  0  0  0  0  0  0  0  0  0
   37.4380   28.4410   40.8560 N   0  0  0  0  0  0  0  0  0  0  0  0
   36.7190   27.3570   41.5240 C   0  0  0  0  0  0  0  0  0  0  0  0
   36.7260   27.4290   42.9930 C   0  0  0  0  0  0  0  0  0  0  0  0
   38.0150   27.9840   43.4900 C   0  0  0  0  0  0  0  0  0  0  0  0
   38.1120   29.3850   42.9640 C   0  0  0  0  0  0  0  0  0  0  0  0
   38.3930   29.3030   41.5060 C   0  0  2  0  0  0  0  0  0  0  0  0
   34.9590   27.6930   37.1340 H   0  0  0  0  0  0  0  0  0  0  0  0
   36.4350   29.1340   35.7580 H   0  0  0  0  0  0  0  0  0  0  0  0
   38.4010   30.2530   36.8150 H   0  0  0  0  0  0  0  0  0  0  0  0
   37.2380   26.4220   41.2080 H   0  0  0  0  0  0  0  0  0  0  0  0
   35.6770   27.2770   41.1430 H   0  0  0  0  0  0  0  0  0  0  0  0
   35.8540   28.0060   43.3870 H   0  0  0  0  0  0  0  0  0  0  0  0
   36.6030   26.3970   43.4070 H   0  0  0  0  0  0  0  0  0  0  0  0
   38.8500   27.4070   43.0500 H   0  0  0  0  0  0  0  0  0  0  0  0
   38.1000   27.9310   44.5950 H   0  0  0  0  0  0  0  0  0  0  0  0
   37.1370   29.9070   43.1130 H   0  0  0  0  0  0  0  0  0  0  0  0
   38.8840   29.9890   43.4820 H   0  0  0  0  0  0  0  0  0  0  0  0
   39.3850   28.7990   41.3680 H   0  0  0  0  0  0  0  0  0  0  0  0
   40.8250   30.3460   40.4430 F   0  0  0  0  0  0  0  0  0  0  0  0
   39.7360   31.1440   40.3570 C   0  0  0  0  0  0  0  0  0  0  0  0
   38.5320   30.6400   40.8740 C   0  0  0  0  0  0  0  0  0  0  0  0
   37.4440   31.4910   40.7630 C   0  0  0  0  0  0  0  0  0  0  0  0
   37.5000   32.7340   40.1990 C   0  0  0  0  0  0  0  0  0  0  0  0
   38.6940   33.1940   39.7030 C   0  0  0  0  0  0  0  0  0  0  0  0
   39.8140   32.3840   39.7890 C   0  0  0  0  0  0  0  0  0  0  0  0
   36.5120   31.1140   41.1580 H   0  0  0  0  0  0  0  0  0  0  0  0
   36.6020   33.3180   40.1590 H   0  0  0  0  0  0  0  0  0  0  0  0
   38.6600   34.1870   39.2720 H   0  0  0  0  0  0  0  0  0  0  0  0
   41.0120   32.9770   39.2350 C   0  0  0  0  0  0  0  0  0  0  0  0
   42.0920   33.5020   39.8970 C   0  0  0  0  0  0  0  0  0  0  0  0
   42.0890   33.4900   40.9730 H   0  0  0  0  0  0  0  0  0  0  0  0
   43.2110   34.0580   39.3240 C   0  0  0  0  0  0  0  0  0  0  0  0
   44.0160   34.4470   39.9300 H   0  0  0  0  0  0  0  0  0  0  0  0
   43.2970   34.1130   37.9600 C   0  0  0  0  0  3  0  0  0  0  0  0
   42.2310   33.5960   37.2840 C   0  0  0  0  0  3  0  0  0  0  0  0
   41.1840   33.0750   37.9040 N   0  0  0  0  0  0  0  0  0  0  0  0
  1  6  1  0  0  0  0
  2  3  1  0  0  0  0
  2  1  2  0  0  0  0
  3  4  2  0  0  0  0
  4  5  1  0  0  0  0
  5  7  1  0  0  0  0
  6  5  2  0  0  0  0
  7 12  1  0  0  0  0
  7  8  1  0  0  0  0
  8  9  1  0  0  0  0
  9 18  1  0  0  0  0
  9 19  1  0  0  0  0
  9 10  1  0  0  0  0
 10 21  1  0  0  0  0
 11 22  1  0  0  0  0
 11 23  1  0  0  0  0
 11 10  1  0  0  0  0
 12 24  1  6  0  0  0
 12 11  1  0  0  0  0
 13  1  1  0  0  0  0
 14  2  1  0  0  0  0
 15  3  1  0  0  0  0
 16  8  1  0  0  0  0
 17  8  1  0  0  0  0
 20 10  1  0  0  0  0
 26 25  1  0  0  0  0
 26 27  1  0  0  0  0
 27 12  1  0  0  0  0
 28 27  2  0  0  0  0
 28 32  1  0  0  0  0
 29 28  1  0  0  0  0
 30 31  1  0  0  0  0
 30 29  2  0  0  0  0
 31 26  2  0  0  0  0
 33 29  1  0  0  0  0
 34 30  1  0  0  0  0
 35 31  1  0  0  0  0
 35 36  1  0  0  0  0
 36 37  1  0  0  0  0
 38 36  2  0  0  0  0
 38 39  1  0  0  0  0
 40 38  1  0  0  0  0
 41 42  1  0  0  0  0
 41 40  2  0  0  0  0
 42 35  2  0  0  0  0
M  END
>  <minimizedAffinity>
-6.11189461

$$$$

 OpenBabel03242517243D

 42 45  0  0  1  0  0  0  0  0999 V2000
   37.7260   30.9460   38.5200 C   0  0  0  0  0  0  0  0  0  0  0  0
   36.4540   30.6850   39.0810 C   0  0  0  0  0  0  0  0  0  0  0  0
   36.3800   30.2460   40.4160 C   0  0  0  0  0  0  0  0  0  0  0  0
   37.5450   30.1000   41.0840 N   0  0  0  0  0  0  0  0  0  0  0  0
   38.7540   30.3580   40.5210 C   0  0  0  0  0  0  0  0  0  0  0  0
   38.8450   30.7840   39.2310 N   0  0  0  0  0  0  0  0  0  0  0  0
   39.9270   30.1680   41.3270 N   0  0  0  0  0  0  0  0  0  0  0  0
   41.1560   30.7410   40.7820 C   0  0  0  0  0  0  0  0  0  0  0  0
   42.3950   30.2260   41.3840 C   0  0  0  0  0  0  0  0  0  0  0  0
   42.1990   29.9370   42.8320 C   0  0  0  0  0  0  0  0  0  0  0  0
   41.1640   28.8540   42.9190 C   0  0  0  0  0  0  0  0  0  0  0  0
   39.8490   29.4580   42.5800 C   0  0  2  0  0  0  0  0  0  0  0  0
   37.7870   31.2860   37.4900 H   0  0  0  0  0  0  0  0  0  0  0  0
   35.5670   30.8220   38.4910 H   0  0  0  0  0  0  0  0  0  0  0  0
   35.4210   30.0420   40.8590 H   0  0  0  0  0  0  0  0  0  0  0  0
   41.0860   31.8360   40.9860 H   0  0  0  0  0  0  0  0  0  0  0  0
   41.1870   30.6340   39.6750 H   0  0  0  0  0  0  0  0  0  0  0  0
   42.7840   29.3320   40.8380 H   0  0  0  0  0  0  0  0  0  0  0  0
   43.1960   31.0000   41.2840 H   0  0  0  0  0  0  0  0  0  0  0  0
   41.7810   30.8340   43.3260 H   0  0  0  0  0  0  0  0  0  0  0  0
   43.1480   29.6680   43.3410 H   0  0  0  0  0  0  0  0  0  0  0  0
   41.3970   28.0560   42.1740 H   0  0  0  0  0  0  0  0  0  0  0  0
   41.1310   28.3670   43.9150 H   0  0  0  0  0  0  0  0  0  0  0  0
   39.6130   30.2410   43.3470 H   0  0  0  0  0  0  0  0  0  0  0  0
   39.6220   27.1360   40.9390 F   0  0  0  0  0  0  0  0  0  0  0  0
   38.6320   27.3400   41.8380 C   0  0  0  0  0  0  0  0  0  0  0  0
   38.7340   28.4780   42.6530 C   0  0  0  0  0  0  0  0  0  0  0  0
   37.6990   28.6450   43.5590 C   0  0  0  0  0  0  0  0  0  0  0  0
   36.6420   27.7870   43.6790 C   0  0  0  0  0  0  0  0  0  0  0  0
   36.5750   26.6850   42.8650 C   0  0  0  0  0  0  0  0  0  0  0  0
   37.5840   26.4710   41.9410 C   0  0  0  0  0  0  0  0  0  0  0  0
   37.7670   29.5180   44.1930 H   0  0  0  0  0  0  0  0  0  0  0  0
   35.8900   28.0030   44.4110 H   0  0  0  0  0  0  0  0  0  0  0  0
   35.7090   26.0540   43.0180 H   0  0  0  0  0  0  0  0  0  0  0  0
   37.4030   25.2780   41.1400 C   0  0  0  0  0  0  0  0  0  0  0  0
   37.8990   24.0190   41.3570 C   0  0  0  0  0  0  0  0  0  0  0  0
   38.5090   23.8510   42.2280 H   0  0  0  0  0  0  0  0  0  0  0  0
   37.7000   22.9130   40.5640 C   0  0  0  0  0  0  0  0  0  0  0  0
   38.1330   21.9570   40.8170 H   0  0  0  0  0  0  0  0  0  0  0  0
   36.9360   23.0380   39.4360 C   0  0  0  0  0  3  0  0  0  0  0  0
   36.4330   24.2860   39.2040 C   0  0  0  0  0  3  0  0  0  0  0  0
   36.6670   25.3060   40.0130 N   0  0  0  0  0  0  0  0  0  0  0  0
  1  2  2  0  0  0  0
  1  6  1  0  0  0  0
  2  3  1  0  0  0  0
  3 15  1  0  0  0  0
  3  4  2  0  0  0  0
  5  4  1  0  0  0  0
  5  7  1  0  0  0  0
  6  5  2  0  0  0  0
  7 12  1  0  0  0  0
  8 16  1  0  0  0  0
  8  7  1  0  0  0  0
  8  9  1  0  0  0  0
  9 10  1  0  0  0  0
 10 11  1  0  0  0  0
 10 20  1  0  0  0  0
 10 21  1  0  0  0  0
 11 23  1  0  0  0  0
 12 27  1  0  0  0  0
 12 11  1  0  0  0  0
 12 24  1  1  0  0  0
 13  1  1  0  0  0  0
 14  2  1  0  0  0  0
 17  8  1  0  0  0  0
 18  9  1  0  0  0  0
 19  9  1  0  0  0  0
 22 11  1  0  0  0  0
 25 26  1  0  0  0  0
 26 31  2  0  0  0  0
 26 27  1  0  0  0  0
 27 28  2  0  0  0  0
 28 29  1  0  0  0  0
 28 32  1  0  0  0  0
 29 33  1  0  0  0  0
 30 34  1  0  0  0  0
 30 29  2  0  0  0  0
 31 30  1  0  0  0  0
 35 36  1  0  0  0  0
 35 31  1  0  0  0  0
 36 37  1  0  0  0  0
 38 39  1  0  0  0  0
 38 36  2  0  0  0  0
 40 38  1  0  0  0  0
 41 40  2  0  0  0  0
 41 42  1  0  0  0  0
 42 35  2  0  0  0  0
M  END
>  <minimizedAffinity>
-6.07773113

$$$$

 OpenBabel03242517243D

 42 45  0  0  1  0  0  0  0  0999 V2000
   35.0530   28.6370   38.0980 C   0  0  0  0  0  0  0  0  0  0  0  0
   35.9370   29.6560   38.5250 C   0  0  0  0  0  0  0  0  0  0  0  0
   37.0530   29.3010   39.3040 C   0  0  0  0  0  0  0  0  0  0  0  0
   37.2100   27.9910   39.5990 N   0  0  0  0  0  0  0  0  0  0  0  0
   36.3450   27.0330   39.1750 C   0  0  0  0  0  0  0  0  0  0  0  0
   35.2600   27.3580   38.4200 N   0  0  0  0  0  0  0  0  0  0  0  0
   36.6120   25.6720   39.5490 N   0  0  0  0  0  0  0  0  0  0  0  0
   35.8370   24.6650   38.8260 C   0  0  0  0  0  0  0  0  0  0  0  0
   35.8140   23.3370   39.4580 C   0  0  0  0  0  0  0  0  0  0  0  0
   37.1120   23.0460   40.1260 C   0  0  0  0  0  0  0  0  0  0  0  0
   37.2760   24.0650   41.2140 C   0  0  0  0  0  0  0  0  0  0  0  0
   37.5860   25.3690   40.5680 C   0  0  2  0  0  0  0  0  0  0  0  0
   34.1910   28.9080   37.4950 H   0  0  0  0  0  0  0  0  0  0  0  0
   35.7520   30.6780   38.2540 H   0  0  0  0  0  0  0  0  0  0  0  0
   37.7360   30.0620   39.6390 H   0  0  0  0  0  0  0  0  0  0  0  0
   36.3260   24.5790   37.8270 H   0  0  0  0  0  0  0  0  0  0  0  0
   34.8020   25.0230   38.6340 H   0  0  0  0  0  0  0  0  0  0  0  0
   34.9570   23.2270   40.1660 H   0  0  0  0  0  0  0  0  0  0  0  0
   35.6410   22.5640   38.6690 H   0  0  0  0  0  0  0  0  0  0  0  0
   37.9340   23.2000   39.4010 H   0  0  0  0  0  0  0  0  0  0  0  0
   37.1710   22.0030   40.5000 H   0  0  0  0  0  0  0  0  0  0  0  0
   36.3190   24.1630   41.7790 H   0  0  0  0  0  0  0  0  0  0  0  0
   38.0600   23.7920   41.9490 H   0  0  0  0  0  0  0  0  0  0  0  0
   38.5600   25.2680   40.0230 H   0  0  0  0  0  0  0  0  0  0  0  0
   39.9780   26.9040   40.8100 F   0  0  0  0  0  0  0  0  0  0  0  0
   38.9750   27.2070   41.6660 C   0  0  0  0  0  0  0  0  0  0  0  0
   37.7920   26.4610   41.5550 C   0  0  0  0  0  0  0  0  0  0  0  0
   36.7930   26.8070   42.4510 C   0  0  0  0  0  0  0  0  0  0  0  0
   36.9140   27.7960   43.3860 C   0  0  0  0  0  0  0  0  0  0  0  0
   38.0860   28.5050   43.4660 C   0  0  0  0  0  0  0  0  0  0  0  0
   39.1170   28.1990   42.5940 C   0  0  0  0  0  0  0  0  0  0  0  0
   35.8770   26.2390   42.3740 H   0  0  0  0  0  0  0  0  0  0  0  0
   36.0840   27.9890   44.0350 H   0  0  0  0  0  0  0  0  0  0  0  0
   38.1080   29.2710   44.2310 H   0  0  0  0  0  0  0  0  0  0  0  0
   40.3010   29.0130   42.7760 C   0  0  0  0  0  0  0  0  0  0  0  0
   40.4460   30.3640   42.5920 C   0  0  0  0  0  0  0  0  0  0  0  0
   39.5910   30.9320   42.2710 H   0  0  0  0  0  0  0  0  0  0  0  0
   41.5950   31.0950   42.7770 C   0  0  0  0  0  0  0  0  0  0  0  0
   41.6150   32.1620   42.6070 H   0  0  0  0  0  0  0  0  0  0  0  0
   42.7310   30.4500   43.1860 C   0  0  0  0  0  3  0  0  0  0  0  0
   42.6050   29.1050   43.3740 C   0  0  0  0  0  3  0  0  0  0  0  0
   41.4630   28.4660   43.1760 N   0  0  0  0  0  0  0  0  0  0  0  0
  1  6  2  0  0  0  0
  1  2  1  0  0  0  0
  2  3  2  0  0  0  0
  3  4  1  0  0  0  0
  3 15  1  0  0  0  0
  5  7  1  0  0  0  0
  5  4  2  0  0  0  0
  6  5  1  0  0  0  0
  7 12  1  0  0  0  0
  8  9  1  0  0  0  0
  8  7  1  0  0  0  0
  9 10  1  0  0  0  0
  9 18  1  0  0  0  0
 10 21  1  0  0  0  0
 10 11  1  0  0  0  0
 11 22  1  0  0  0  0
 11 23  1  0  0  0  0
 12 24  1  6  0  0  0
 12 11  1  0  0  0  0
 12 27  1  0  0  0  0
 13  1  1  0  0  0  0
 14  2  1  0  0  0  0
 16  8  1  0  0  0  0
 17  8  1  0  0  0  0
 19  9  1  0  0  0  0
 20 10  1  0  0  0  0
 25 26  1  0  0  0  0
 26 31  1  0  0  0  0
 27 26  2  0  0  0  0
 27 28  1  0  0  0  0
 28 29  2  0  0  0  0
 29 30  1  0  0  0  0
 29 33  1  0  0  0  0
 30 34  1  0  0  0  0
 31 35  1  0  0  0  0
 31 30  2  0  0  0  0
 32 28  1  0  0  0  0
 35 42  1  0  0  0  0
 36 35  2  0  0  0  0
 36 38  1  0  0  0  0
 37 36  1  0  0  0  0
 38 40  2  0  0  0  0
 39 38  1  0  0  0  0
 40 41  1  0  0  0  0
 42 41  2  0  0  0  0
M  END
>  <minimizedAffinity>
-6.03683519

$$$$

 OpenBabel03242517243D

 42 45  0  0  1  0  0  0  0  0999 V2000
   37.5530   26.4330   37.2290 C   0  0  0  0  0  0  0  0  0  0  0  0
   37.0620   25.4890   38.1610 C   0  0  0  0  0  0  0  0  0  0  0  0
   36.5900   25.9490   39.4050 C   0  0  0  0  0  0  0  0  0  0  0  0
   36.6390   27.2800   39.6310 N   0  0  0  0  0  0  0  0  0  0  0  0
   37.1170   28.1650   38.7180 C   0  0  0  0  0  0  0  0  0  0  0  0
   37.5760   27.7390   37.5090 N   0  0  0  0  0  0  0  0  0  0  0  0
   37.1210   29.5580   39.0680 N   0  0  0  0  0  0  0  0  0  0  0  0
   37.3550   30.4770   37.9560 C   0  0  0  0  0  0  0  0  0  0  0  0
   37.7440   31.8380   38.3550 C   0  0  0  0  0  0  0  0  0  0  0  0
   37.0590   32.2360   39.6160 C   0  0  0  0  0  0  0  0  0  0  0  0
   37.5360   31.2940   40.6820 C   0  0  0  0  0  0  0  0  0  0  0  0
   36.9030   29.9720   40.4320 C   0  0  2  0  0  0  0  0  0  0  0  0
   37.9160   26.0820   36.2670 H   0  0  0  0  0  0  0  0  0  0  0  0
   37.0510   24.4440   37.9150 H   0  0  0  0  0  0  0  0  0  0  0  0
   36.2130   25.2450   40.1270 H   0  0  0  0  0  0  0  0  0  0  0  0
   36.3850   30.5280   37.4070 H   0  0  0  0  0  0  0  0  0  0  0  0
   38.0940   30.0550   37.2400 H   0  0  0  0  0  0  0  0  0  0  0  0
   38.8530   31.9470   38.4410 H   0  0  0  0  0  0  0  0  0  0  0  0
   37.4430   32.5530   37.5490 H   0  0  0  0  0  0  0  0  0  0  0  0
   35.9700   32.0810   39.5000 H   0  0  0  0  0  0  0  0  0  0  0  0
   37.2330   33.3020   39.8740 H   0  0  0  0  0  0  0  0  0  0  0  0
   38.6440   31.1820   40.6100 H   0  0  0  0  0  0  0  0  0  0  0  0
   37.3120   31.6520   41.7070 H   0  0  0  0  0  0  0  0  0  0  0  0
   35.7930   30.0900   40.5290 H   0  0  0  0  0  0  0  0  0  0  0  0
   39.5730   29.0870   40.9060 F   0  0  0  0  0  0  0  0  0  0  0  0
   38.6050   28.5240   41.6660 C   0  0  0  0  0  0  0  0  0  0  0  0
   37.2870   28.9540   41.4440 C   0  0  0  0  0  0  0  0  0  0  0  0
   36.3310   28.3520   42.2460 C   0  0  0  0  0  0  0  0  0  0  0  0
   36.6120   27.4080   43.1930 C   0  0  0  0  0  0  0  0  0  0  0  0
   37.9110   27.0120   43.3820 C   0  0  0  0  0  0  0  0  0  0  0  0
   38.9070   27.5820   42.6070 C   0  0  0  0  0  0  0  0  0  0  0  0
   35.3130   28.6760   42.0840 H   0  0  0  0  0  0  0  0  0  0  0  0
   35.8010   27.0010   43.7630 H   0  0  0  0  0  0  0  0  0  0  0  0
   38.0550   26.2600   44.1480 H   0  0  0  0  0  0  0  0  0  0  0  0
   40.2350   27.0830   42.8980 C   0  0  0  0  0  0  0  0  0  0  0  0
   41.3220   27.7710   43.3720 C   0  0  0  0  0  0  0  0  0  0  0  0
   41.2160   28.8240   43.5670 H   0  0  0  0  0  0  0  0  0  0  0  0
   42.5680   27.2530   43.6320 C   0  0  0  0  0  0  0  0  0  0  0  0
   43.3670   27.8750   44.0070 H   0  0  0  0  0  0  0  0  0  0  0  0
   42.7890   25.9210   43.4110 C   0  0  0  0  0  3  0  0  0  0  0  0
   41.7180   25.2190   42.9390 C   0  0  0  0  0  3  0  0  0  0  0  0
   40.5450   25.7870   42.7100 N   0  0  0  0  0  0  0  0  0  0  0  0
  1  6  2  0  0  0  0
  1  2  1  0  0  0  0
  2  3  2  0  0  0  0
  3  4  1  0  0  0  0
  3 15  1  0  0  0  0
  5  7  1  0  0  0  0
  5  4  2  0  0  0  0
  6  5  1  0  0  0  0
  7 12  1  0  0  0  0
  8  9  1  0  0  0  0
  8  7  1  0  0  0  0
  9 18  1  0  0  0  0
  9 10  1  0  0  0  0
 10 21  1  0  0  0  0
 10 11  1  0  0  0  0
 11 23  1  0  0  0  0
 12 24  1  1  0  0  0
 12 11  1  0  0  0  0
 12 27  1  0  0  0  0
 13  1  1  0  0  0  0
 14  2  1  0  0  0  0
 16  8  1  0  0  0  0
 17  8  1  0  0  0  0
 19  9  1  0  0  0  0
 20 10  1  0  0  0  0
 22 11  1  0  0  0  0
 25 26  1  0  0  0  0
 26 31  1  0  0  0  0
 27 26  2  0  0  0  0
 27 28  1  0  0  0  0
 28 29  2  0  0  0  0
 29 30  1  0  0  0  0
 29 33  1  0  0  0  0
 30 34  1  0  0  0  0
 31 35  1  0  0  0  0
 31 30  2  0  0  0  0
 32 28  1  0  0  0  0
 35 36  1  0  0  0  0
 36 37  1  0  0  0  0
 36 38  2  0  0  0  0
 38 39  1  0  0  0  0
 40 38  1  0  0  0  0
 41 40  2  0  0  0  0
 42 35  2  0  0  0  0
 42 41  1  0  0  0  0
M  END
>  <minimizedAffinity>
-5.8231039

$$$$

 OpenBabel03242517243D

 42 45  0  0  1  0  0  0  0  0999 V2000
   42.0700   25.7060   40.6260 C   0  0  0  0  0  0  0  0  0  0  0  0
   42.0050   26.1890   41.9540 C   0  0  0  0  0  0  0  0  0  0  0  0
   40.7500   26.2650   42.5860 C   0  0  0  0  0  0  0  0  0  0  0  0
   39.6740   25.8670   41.8730 N   0  0  0  0  0  0  0  0  0  0  0  0
   39.7640   25.4070   40.5980 C   0  0  0  0  0  0  0  0  0  0  0  0
   40.9700   25.3260   39.9710 N   0  0  0  0  0  0  0  0  0  0  0  0
   38.5520   25.0110   39.9380 N   0  0  0  0  0  0  0  0  0  0  0  0
   38.7370   24.2520   38.7020 C   0  0  0  0  0  0  0  0  0  0  0  0
   37.5490   24.1870   37.8370 C   0  0  0  0  0  0  0  0  0  0  0  0
   36.3040   24.1340   38.6510 C   0  0  0  0  0  0  0  0  0  0  0  0
   36.2370   25.4190   39.4220 C   0  0  0  0  0  0  0  0  0  0  0  0
   37.2670   25.3580   40.4920 C   0  0  2  0  0  0  0  0  0  0  0  0
   43.0370   25.6450   40.1350 H   0  0  0  0  0  0  0  0  0  0  0  0
   42.9020   26.4890   42.4620 H   0  0  0  0  0  0  0  0  0  0  0  0
   40.6820   26.6300   43.5960 H   0  0  0  0  0  0  0  0  0  0  0  0
   39.0000   23.2180   39.0290 H   0  0  0  0  0  0  0  0  0  0  0  0
   39.6140   24.6290   38.1320 H   0  0  0  0  0  0  0  0  0  0  0  0
   37.5220   25.0280   37.1020 H   0  0  0  0  0  0  0  0  0  0  0  0
   37.6040   23.2590   37.2150 H   0  0  0  0  0  0  0  0  0  0  0  0
   36.3880   23.3110   39.3870 H   0  0  0  0  0  0  0  0  0  0  0  0
   35.4010   23.9560   38.0310 H   0  0  0  0  0  0  0  0  0  0  0  0
   36.4750   26.2730   38.7430 H   0  0  0  0  0  0  0  0  0  0  0  0
   35.2330   25.6160   39.8490 H   0  0  0  0  0  0  0  0  0  0  0  0
   37.0080   24.5140   41.1820 H   0  0  0  0  0  0  0  0  0  0  0  0
   37.8110   27.9900   39.5370 F   0  0  0  0  0  0  0  0  0  0  0  0
   37.5540   27.8680   40.8590 C   0  0  0  0  0  0  0  0  0  0  0  0
   37.2820   26.5780   41.3410 C   0  0  0  0  0  0  0  0  0  0  0  0
   37.0240   26.5010   42.7000 C   0  0  0  0  0  0  0  0  0  0  0  0
   37.0250   27.5790   43.5410 C   0  0  0  0  0  0  0  0  0  0  0  0
   37.2950   28.8250   43.0350 C   0  0  0  0  0  0  0  0  0  0  0  0
   37.5600   28.9580   41.6820 C   0  0  0  0  0  0  0  0  0  0  0  0
   36.8130   25.5130   43.0830 H   0  0  0  0  0  0  0  0  0  0  0  0
   36.8120   27.4170   44.5780 H   0  0  0  0  0  0  0  0  0  0  0  0
   37.2780   29.6290   43.7600 H   0  0  0  0  0  0  0  0  0  0  0  0
   37.8310   30.3190   41.2680 C   0  0  0  0  0  0  0  0  0  0  0  0
   37.0350   31.1660   40.5410 C   0  0  0  0  0  0  0  0  0  0  0  0
   36.0720   30.8120   40.2160 H   0  0  0  0  0  0  0  0  0  0  0  0
   37.3380   32.4550   40.1700 C   0  0  0  0  0  0  0  0  0  0  0  0
   36.6440   33.0500   39.5950 H   0  0  0  0  0  0  0  0  0  0  0  0
   38.5430   32.9840   40.5420 C   0  0  0  0  0  3  0  0  0  0  0  0
   39.3490   32.1550   41.2670 C   0  0  0  0  0  3  0  0  0  0  0  0
   38.9910   30.9220   41.5880 N   0  0  0  0  0  0  0  0  0  0  0  0
  1  2  1  0  0  0  0
  2 14  1  0  0  0  0
  2  3  2  0  0  0  0
  3 15  1  0  0  0  0
  4  3  1  0  0  0  0
  5  4  2  0  0  0  0
  6  5  1  0  0  0  0
  6  1  2  0  0  0  0
  7 12  1  0  0  0  0
  7  5  1  0  0  0  0
  8 16  1  0  0  0  0
  8  7  1  0  0  0  0
  9 10  1  0  0  0  0
  9  8  1  0  0  0  0
 10 20  1  0  0  0  0
 10 11  1  0  0  0  0
 11 23  1  0  0  0  0
 11 12  1  0  0  0  0
 12 24  1  1  0  0  0
 12 27  1  0  0  0  0
 13  1  1  0  0  0  0
 17  8  1  0  0  0  0
 18  9  1  0  0  0  0
 19  9  1  0  0  0  0
 21 10  1  0  0  0  0
 22 11  1  0  0  0  0
 25 26  1  0  0  0  0
 26 27  2  0  0  0  0
 26 31  1  0  0  0  0
 27 28  1  0  0  0  0
 28 32  1  0  0  0  0
 28 29  2  0  0  0  0
 29 33  1  0  0  0  0
 30 29  1  0  0  0  0
 30 34  1  0  0  0  0
 31 30  2  0  0  0  0
 35 42  1  0  0  0  0
 35 31  1  0  0  0  0
 36 35  2  0  0  0  0
 37 36  1  0  0  0  0
 38 36  1  0  0  0  0
 38 40  2  0  0  0  0
 39 38  1  0  0  0  0
 40 41  1  0  0  0  0
 41 42  2  0  0  0  0
M  END
>  <minimizedAffinity>
-5.78538322

$$$$

 OpenBabel03242517243D

 42 45  0  0  1  0  0  0  0  0999 V2000
   39.5710   28.0500   41.6920 C   0  0  0  0  0  0  0  0  0  0  0  0
   39.4890   29.1690   42.5530 C   0  0  0  0  0  0  0  0  0  0  0  0
   38.7750   30.3030   42.1250 C   0  0  0  0  0  0  0  0  0  0  0  0
   38.2060   30.2480   40.9000 N   0  0  0  0  0  0  0  0  0  0  0  0
   38.3010   29.1600   40.0920 C   0  0  0  0  0  0  0  0  0  0  0  0
   38.9880   28.0540   40.4910 N   0  0  0  0  0  0  0  0  0  0  0  0
   37.6560   29.2150   38.8100 N   0  0  0  0  0  0  0  0  0  0  0  0
   37.5330   27.9320   38.1210 C   0  0  0  0  0  0  0  0  0  0  0  0
   37.2420   28.0320   36.6830 C   0  0  0  0  0  0  0  0  0  0  0  0
   36.3630   29.2000   36.4000 C   0  0  0  0  0  0  0  0  0  0  0  0
   37.1330   30.4250   36.7960 C   0  0  0  0  0  0  0  0  0  0  0  0
   37.1790   30.4690   38.2820 C   0  0  2  0  0  0  0  0  0  0  0  0
   40.1210   27.1730   42.0200 H   0  0  0  0  0  0  0  0  0  0  0  0
   39.9650   29.1440   43.5150 H   0  0  0  0  0  0  0  0  0  0  0  0
   38.7010   31.1630   42.7660 H   0  0  0  0  0  0  0  0  0  0  0  0
   36.6850   27.4090   38.6230 H   0  0  0  0  0  0  0  0  0  0  0  0
   38.4310   27.3000   38.2930 H   0  0  0  0  0  0  0  0  0  0  0  0
   38.1750   28.0660   36.0690 H   0  0  0  0  0  0  0  0  0  0  0  0
   36.7110   27.1040   36.3550 H   0  0  0  0  0  0  0  0  0  0  0  0
   35.4700   29.1460   37.0510 H   0  0  0  0  0  0  0  0  0  0  0  0
   36.0220   29.2280   35.3440 H   0  0  0  0  0  0  0  0  0  0  0  0
   38.1760   30.3510   36.4060 H   0  0  0  0  0  0  0  0  0  0  0  0
   36.7000   31.3600   36.3860 H   0  0  0  0  0  0  0  0  0  0  0  0
   36.1300   30.5680   38.6630 H   0  0  0  0  0  0  0  0  0  0  0  0
   39.9500   30.9900   37.8480 F   0  0  0  0  0  0  0  0  0  0  0  0
   39.2700   31.9030   38.5780 C   0  0  0  0  0  0  0  0  0  0  0  0
   37.9050   31.6600   38.7960 C   0  0  0  0  0  0  0  0  0  0  0  0
   37.2500   32.6220   39.5470 C   0  0  0  0  0  0  0  0  0  0  0  0
   37.8540   33.7380   40.0550 C   0  0  0  0  0  0  0  0  0  0  0  0
   39.1900   33.9440   39.8210 C   0  0  0  0  0  0  0  0  0  0  0  0
   39.8930   33.0120   39.0760 C   0  0  0  0  0  0  0  0  0  0  0  0
   36.1980   32.4450   39.7210 H   0  0  0  0  0  0  0  0  0  0  0  0
   37.2600   34.4250   40.6240 H   0  0  0  0  0  0  0  0  0  0  0  0
   39.5980   34.8480   40.2550 H   0  0  0  0  0  0  0  0  0  0  0  0
   41.2920   33.3370   38.8990 C   0  0  0  0  0  0  0  0  0  0  0  0
   41.9440   33.7170   37.7550 C   0  0  0  0  0  0  0  0  0  0  0  0
   41.3760   33.7970   36.8440 H   0  0  0  0  0  0  0  0  0  0  0  0
   43.2810   34.0160   37.6350 C   0  0  0  0  0  0  0  0  0  0  0  0
   43.7070   34.3080   36.6870 H   0  0  0  0  0  0  0  0  0  0  0  0
   44.0770   33.9390   38.7460 C   0  0  0  0  0  3  0  0  0  0  0  0
   43.4450   33.5620   39.8950 C   0  0  0  0  0  3  0  0  0  0  0  0
   42.1510   33.2890   39.9350 N   0  0  0  0  0  0  0  0  0  0  0  0
  1 13  1  0  0  0  0
  1  2  1  0  0  0  0
  2 14  1  0  0  0  0
  3  2  2  0  0  0  0
  3 15  1  0  0  0  0
  4  3  1  0  0  0  0
  5  6  1  0  0  0  0
  5  4  2  0  0  0  0
  6  1  2  0  0  0  0
  7  5  1  0  0  0  0
  8 17  1  0  0  0  0
  8 16  1  0  0  0  0
  8  7  1  0  0  0  0
  9  8  1  0  0  0  0
 10  9  1  0  0  0  0
 10 11  1  0  0  0  0
 10 20  1  0  0  0  0
 11 12  1  0  0  0  0
 12 24  1  1  0  0  0
 12 27  1  0  0  0  0
 12  7  1  0  0  0  0
 18  9  1  0  0  0  0
 19  9  1  0  0  0  0
 21 10  1  0  0  0  0
 22 11  1  0  0  0  0
 23 11  1  0  0  0  0
 25 26  1  0  0  0  0
 26 27  2  0  0  0  0
 26 31  1  0  0  0  0
 27 28  1  0  0  0  0
 28 32  1  0  0  0  0
 28 29  2  0  0  0  0
 29 33  1  0  0  0  0
 30 29  1  0  0  0  0
 30 34  1  0  0  0  0
 31 30  2  0  0  0  0
 35 31  1  0  0  0  0
 35 42  1  0  0  0  0
 36 35  2  0  0  0  0
 37 36  1  0  0  0  0
 38 36  1  0  0  0  0
 38 40  2  0  0  0  0
 39 38  1  0  0  0  0
 40 41  1  0  0  0  0
 41 42  2  0  0  0  0
M  END
>  <minimizedAffinity>
-5.75835991

$$$$

 OpenBabel03242517243D

 42 45  0  0  1  0  0  0  0  0999 V2000
   35.3750   26.8750   37.0370 C   0  0  0  0  0  0  0  0  0  0  0  0
   35.9100   28.0830   36.5320 C   0  0  0  0  0  0  0  0  0  0  0  0
   36.8890   28.7570   37.2860 C   0  0  0  0  0  0  0  0  0  0  0  0
   37.2590   28.1980   38.4600 N   0  0  0  0  0  0  0  0  0  0  0  0
   36.7270   27.0370   38.9210 C   0  0  0  0  0  0  0  0  0  0  0  0
   35.7800   26.3710   38.2050 N   0  0  0  0  0  0  0  0  0  0  0  0
   37.1960   26.5360   40.1830 N   0  0  0  0  0  0  0  0  0  0  0  0
   36.8230   25.1550   40.4820 C   0  0  0  0  0  0  0  0  0  0  0  0
   36.9540   24.7750   41.8960 C   0  0  0  0  0  0  0  0  0  0  0  0
   38.1160   25.4620   42.5240 C   0  0  0  0  0  0  0  0  0  0  0  0
   37.8270   26.9330   42.4720 C   0  0  0  0  0  0  0  0  0  0  0  0
   37.9780   27.3730   41.0590 C   0  0  2  0  0  0  0  0  0  0  0  0
   34.6190   26.3520   36.4570 H   0  0  0  0  0  0  0  0  0  0  0  0
   35.5710   28.4710   35.5900 H   0  0  0  0  0  0  0  0  0  0  0  0
   37.3080   29.6770   36.9180 H   0  0  0  0  0  0  0  0  0  0  0  0
   37.5160   24.5260   39.8750 H   0  0  0  0  0  0  0  0  0  0  0  0
   35.7980   24.9310   40.1120 H   0  0  0  0  0  0  0  0  0  0  0  0
   36.0120   24.9610   42.4680 H   0  0  0  0  0  0  0  0  0  0  0  0
   37.1200   23.6700   41.9610 H   0  0  0  0  0  0  0  0  0  0  0  0
   39.0190   25.2800   41.9090 H   0  0  0  0  0  0  0  0  0  0  0  0
   38.3180   25.0990   43.5530 H   0  0  0  0  0  0  0  0  0  0  0  0
   36.7750   27.1170   42.7950 H   0  0  0  0  0  0  0  0  0  0  0  0
   38.4810   27.5260   43.1430 H   0  0  0  0  0  0  0  0  0  0  0  0
   39.0430   27.2070   40.7510 H   0  0  0  0  0  0  0  0  0  0  0  0
   39.9320   29.2470   40.1610 F   0  0  0  0  0  0  0  0  0  0  0  0
   38.7060   29.7420   40.4450 C   0  0  0  0  0  0  0  0  0  0  0  0
   37.7340   28.8290   40.8850 C   0  0  0  0  0  0  0  0  0  0  0  0
   36.4940   29.3800   41.1620 C   0  0  0  0  0  0  0  0  0  0  0  0
   36.2000   30.7090   41.0290 C   0  0  0  0  0  0  0  0  0  0  0  0
   37.1750   31.5720   40.5970 C   0  0  0  0  0  0  0  0  0  0  0  0
   38.4340   31.0730   40.3060 C   0  0  0  0  0  0  0  0  0  0  0  0
   35.7370   28.6870   41.5020 H   0  0  0  0  0  0  0  0  0  0  0  0
   35.2100   31.0380   41.2680 H   0  0  0  0  0  0  0  0  0  0  0  0
   36.8680   32.6070   40.5170 H   0  0  0  0  0  0  0  0  0  0  0  0
   39.3750   32.0780   39.8610 C   0  0  0  0  0  0  0  0  0  0  0  0
   40.1270   32.0980   38.7150 C   0  0  0  0  0  0  0  0  0  0  0  0
   40.0350   31.2760   38.0270 H   0  0  0  0  0  0  0  0  0  0  0  0
   41.0130   33.0790   38.3340 C   0  0  0  0  0  0  0  0  0  0  0  0
   41.5630   33.0080   37.4080 H   0  0  0  0  0  0  0  0  0  0  0  0
   41.1910   34.1610   39.1520 C   0  0  0  0  0  3  0  0  0  0  0  0
   40.4500   34.1590   40.2980 C   0  0  0  0  0  3  0  0  0  0  0  0
   39.6160   33.1770   40.5990 N   0  0  0  0  0  0  0  0  0  0  0  0
  1  6  1  0  0  0  0
  2  1  2  0  0  0  0
  2  3  1  0  0  0  0
  3  4  2  0  0  0  0
  4  5  1  0  0  0  0
  5  7  1  0  0  0  0
  6  5  2  0  0  0  0
  7  8  1  0  0  0  0
  7 12  1  0  0  0  0
  8  9  1  0  0  0  0
  9 19  1  0  0  0  0
  9 18  1  0  0  0  0
  9 10  1  0  0  0  0
 10 21  1  0  0  0  0
 11 10  1  0  0  0  0
 11 22  1  0  0  0  0
 11 23  1  0  0  0  0
 12 24  1  6  0  0  0
 12 11  1  0  0  0  0
 13  1  1  0  0  0  0
 14  2  1  0  0  0  0
 15  3  1  0  0  0  0
 16  8  1  0  0  0  0
 17  8  1  0  0  0  0
 20 10  1  0  0  0  0
 25 26  1  0  0  0  0
 26 27  1  0  0  0  0
 27 12  1  0  0  0  0
 27 28  2  0  0  0  0
 28 32  1  0  0  0  0
 29 28  1  0  0  0  0
 29 33  1  0  0  0  0
 30 29  2  0  0  0  0
 31 26  2  0  0  0  0
 31 30  1  0  0  0  0
 34 30  1  0  0  0  0
 35 31  1  0  0  0  0
 35 42  1  0  0  0  0
 36 35  2  0  0  0  0
 37 36  1  0  0  0  0
 38 36  1  0  0  0  0
 38 40  2  0  0  0  0
 39 38  1  0  0  0  0
 40 41  1  0  0  0  0
 41 42  2  0  0  0  0
M  END
>  <minimizedAffinity>
-5.73282957

$$$$
