
 OpenBabel03242521063D

 33 36  0  0  1  0  0  0  0  0999 V2000
   38.5960   24.9450   41.9980 C   0  0  0  0  0  0  0  0  0  0  0  0
   39.6000   24.5350   42.8480 C   0  0  0  0  0  0  0  0  0  0  0  0
   40.3350   25.3450   43.6800 C   0  0  0  0  0  0  0  0  0  0  0  0
   40.0630   26.6900   43.6800 C   0  0  0  0  0  0  0  0  0  0  0  0
   39.0610   27.1000   42.8320 C   0  0  0  0  0  0  0  0  0  0  0  0
   38.3810   26.2700   42.0480 N   0  0  0  0  0  0  0  0  0  0  0  0
   39.8620   23.4700   42.8910 H   0  0  0  0  0  0  0  0  0  0  0  0
   41.1150   24.9430   44.3240 H   0  0  0  0  0  0  0  0  0  0  0  0
   40.6350   27.3400   44.3300 H   0  0  0  0  0  0  0  0  0  0  0  0
   35.9330   23.3180   39.8910 C   0  0  0  0  0  0  0  0  0  0  0  0
   36.5370   24.2750   40.7230 C   0  0  0  0  0  0  0  0  0  0  0  0
   37.8500   24.0480   41.1420 C   0  0  0  0  0  0  0  0  0  0  0  0
   38.4730   22.9320   40.7310 N   0  0  0  0  0  0  0  0  0  0  0  0
   37.8720   22.0190   39.9260 C   0  0  0  0  0  0  0  0  0  0  0  0
   36.6040   22.2290   39.5160 N   0  0  0  0  0  0  0  0  0  0  0  0
   34.9200   23.5260   39.5870 H   0  0  0  0  0  0  0  0  0  0  0  0
   36.0580   25.1810   41.0680 H   0  0  0  0  0  0  0  0  0  0  0  0
   38.4310   21.1280   39.6240 H   0  0  0  0  0  0  0  0  0  0  0  0
   38.7430   28.5560   42.8090 C   0  0  2  0  0  0  0  0  0  0  0  0
   37.4620   28.9400   43.4950 C   0  0  0  0  0  0  0  0  0  0  0  0
   37.6330   29.0310   41.9890 C   0  0  1  0  0  0  0  0  0  0  0  0
   39.5840   29.2620   43.0250 H   0  0  0  0  0  0  0  0  0  0  0  0
   36.7670   28.1820   43.8580 H   0  0  0  0  0  0  0  0  0  0  0  0
   37.3850   29.9300   44.0080 H   0  0  0  0  0  0  0  0  0  0  0  0
   37.0700   28.3120   41.3570 H   0  0  0  0  0  0  0  0  0  0  0  0
   37.7890   30.3920   41.3960 C   0  0  0  0  0  0  0  0  0  0  0  0
   36.7700   31.0120   40.6650 C   0  0  0  0  0  0  0  0  0  0  0  0
   35.8460   30.4570   40.5420 H   0  0  0  0  0  0  0  0  0  0  0  0
   36.9850   32.2800   40.1410 C   0  0  0  0  0  0  0  0  0  0  0  0
   36.1690   32.7350   39.5760 H   0  0  0  0  0  0  0  0  0  0  0  0
   38.2050   32.9160   40.3490 C   0  0  0  0  0  3  0  0  0  0  0  0
   39.1960   32.2790   41.0770 C   0  0  0  0  0  3  0  0  0  0  0  0
   38.9690   31.0470   41.5780 N   0  0  0  0  0  0  0  0  0  0  0  0
  1  6  2  0  0  0  0
  1  2  1  0  0  0  0
  2  7  1  0  0  0  0
  2  3  2  0  0  0  0
  3  8  1  0  0  0  0
  4  3  1  0  0  0  0
  4  9  1  0  0  0  0
  5  4  2  0  0  0  0
  6  5  1  0  0  0  0
 10 11  1  0  0  0  0
 11 17  1  0  0  0  0
 11 12  2  0  0  0  0
 12  1  1  0  0  0  0
 13 12  1  0  0  0  0
 14 13  2  0  0  0  0
 15 10  2  0  0  0  0
 15 14  1  0  0  0  0
 16 10  1  0  0  0  0
 18 14  1  0  0  0  0
 19  5  1  0  0  0  0
 19 22  1  1  0  0  0
 19 20  1  0  0  0  0
 20 23  1  0  0  0  0
 20 24  1  0  0  0  0
 21 25  1  6  0  0  0
 21 19  1  0  0  0  0
 21 20  1  0  0  0  0
 26 33  1  0  0  0  0
 26 21  1  0  0  0  0
 27 26  2  0  0  0  0
 28 27  1  0  0  0  0
 29 31  2  0  0  0  0
 29 27  1  0  0  0  0
 30 29  1  0  0  0  0
 31 32  1  0  0  0  0
 32 33  2  0  0  0  0
M  END
>  <minimizedAffinity>
-5.67624569

$$$$

 OpenBabel03242521063D

 33 36  0  0  1  0  0  0  0  0999 V2000
   39.2780   32.0820   40.7670 C   0  0  0  0  0  0  0  0  0  0  0  0
   38.2360   32.7050   40.1150 C   0  0  0  0  0  0  0  0  0  0  0  0
   36.9490   32.2330   40.0140 C   0  0  0  0  0  0  0  0  0  0  0  0
   36.6520   31.0320   40.6070 C   0  0  0  0  0  0  0  0  0  0  0  0
   37.6900   30.4090   41.2570 C   0  0  0  0  0  0  0  0  0  0  0  0
   38.9180   30.9140   41.3240 N   0  0  0  0  0  0  0  0  0  0  0  0
   38.4140   33.6690   39.6220 H   0  0  0  0  0  0  0  0  0  0  0  0
   36.1800   32.7870   39.4800 H   0  0  0  0  0  0  0  0  0  0  0  0
   35.6420   30.6480   40.5340 H   0  0  0  0  0  0  0  0  0  0  0  0
   42.3830   34.1610   40.3050 C   0  0  0  0  0  0  0  0  0  0  0  0
   41.0530   33.7430   40.1320 C   0  0  0  0  0  0  0  0  0  0  0  0
   40.6180   32.6240   40.8450 C   0  0  0  0  0  0  0  0  0  0  0  0
   41.4850   32.0020   41.6600 N   0  0  0  0  0  0  0  0  0  0  0  0
   42.7660   32.4210   41.8140 C   0  0  0  0  0  0  0  0  0  0  0  0
   43.1970   33.5020   41.1300 N   0  0  0  0  0  0  0  0  0  0  0  0
   42.6860   35.0270   39.7400 H   0  0  0  0  0  0  0  0  0  0  0  0
   40.3360   34.2260   39.4830 H   0  0  0  0  0  0  0  0  0  0  0  0
   43.4260   31.8730   42.4930 H   0  0  0  0  0  0  0  0  0  0  0  0
   37.3980   29.1020   41.9110 C   0  0  2  0  0  0  0  0  0  0  0  0
   37.7280   29.0330   43.3750 C   0  0  0  0  0  0  0  0  0  0  0  0
   38.5070   28.2510   42.3320 C   0  0  1  0  0  0  0  0  0  0  0  0
   36.4220   28.6160   41.6580 H   0  0  0  0  0  0  0  0  0  0  0  0
   38.2640   29.8430   43.8720 H   0  0  0  0  0  0  0  0  0  0  0  0
   37.1060   28.3980   44.0530 H   0  0  0  0  0  0  0  0  0  0  0  0
   39.5510   28.5640   42.1190 H   0  0  0  0  0  0  0  0  0  0  0  0
   38.2700   26.7790   42.2580 C   0  0  0  0  0  0  0  0  0  0  0  0
   37.1030   26.2350   41.7120 C   0  0  0  0  0  0  0  0  0  0  0  0
   36.3630   26.9340   41.3370 H   0  0  0  0  0  0  0  0  0  0  0  0
   36.9500   24.8550   41.6750 C   0  0  0  0  0  0  0  0  0  0  0  0
   36.0270   24.4630   41.2420 H   0  0  0  0  0  0  0  0  0  0  0  0
   37.9540   24.0340   42.1790 C   0  0  0  0  0  3  0  0  0  0  0  0
   39.0990   24.6010   42.7140 C   0  0  0  0  0  3  0  0  0  0  0  0
   39.2300   25.9430   42.7410 N   0  0  0  0  0  0  0  0  0  0  0  0
  1 12  1  0  0  0  0
  1  6  1  0  0  0  0
  2  1  2  0  0  0  0
  3  2  1  0  0  0  0
  3  4  2  0  0  0  0
  4  5  1  0  0  0  0
  5  6  2  0  0  0  0
  5 19  1  0  0  0  0
  7  2  1  0  0  0  0
  8  3  1  0  0  0  0
  9  4  1  0  0  0  0
 10 15  1  0  0  0  0
 11 10  2  0  0  0  0
 11 12  1  0  0  0  0
 12 13  2  0  0  0  0
 13 14  1  0  0  0  0
 14 18  1  0  0  0  0
 15 14  2  0  0  0  0
 16 10  1  0  0  0  0
 17 11  1  0  0  0  0
 19 22  1  6  0  0  0
 19 21  1  0  0  0  0
 19 20  1  0  0  0  0
 20 23  1  0  0  0  0
 20 24  1  0  0  0  0
 21 25  1  6  0  0  0
 21 20  1  0  0  0  0
 26 21  1  0  0  0  0
 26 33  1  0  0  0  0
 27 26  2  0  0  0  0
 28 27  1  0  0  0  0
 29 27  1  0  0  0  0
 29 31  2  0  0  0  0
 30 29  1  0  0  0  0
 31 32  1  0  0  0  0
 32 33  2  0  0  0  0
M  END
>  <minimizedAffinity>
-5.4947238

$$$$

 OpenBabel03242521063D

 33 36  0  0  1  0  0  0  0  0999 V2000
   37.5370   28.2840   41.6390 C   0  0  0  0  0  0  0  0  0  0  0  0
   36.2080   28.2780   41.2740 C   0  0  0  0  0  0  0  0  0  0  0  0
   35.5220   29.3230   40.7050 C   0  0  0  0  0  0  0  0  0  0  0  0
   36.2020   30.4920   40.4710 C   0  0  0  0  0  0  0  0  0  0  0  0
   37.5270   30.5000   40.8350 C   0  0  0  0  0  0  0  0  0  0  0  0
   38.1400   29.4560   41.3820 N   0  0  0  0  0  0  0  0  0  0  0  0
   35.6140   27.3690   41.4370 H   0  0  0  0  0  0  0  0  0  0  0  0
   34.4690   29.2390   40.4440 H   0  0  0  0  0  0  0  0  0  0  0  0
   35.6720   31.3240   40.0230 H   0  0  0  0  0  0  0  0  0  0  0  0
   39.8090   26.0750   43.6740 C   0  0  0  0  0  0  0  0  0  0  0  0
   39.2400   27.2590   43.1770 C   0  0  0  0  0  0  0  0  0  0  0  0
   38.2140   27.1520   42.2360 C   0  0  0  0  0  0  0  0  0  0  0  0
   37.8180   25.9280   41.8510 N   0  0  0  0  0  0  0  0  0  0  0  0
   38.3800   24.7950   42.3430 C   0  0  0  0  0  0  0  0  0  0  0  0
   39.3720   24.8870   43.2520 N   0  0  0  0  0  0  0  0  0  0  0  0
   40.5980   26.1940   44.3980 H   0  0  0  0  0  0  0  0  0  0  0  0
   39.5400   28.2560   43.4700 H   0  0  0  0  0  0  0  0  0  0  0  0
   38.0150   23.8250   41.9900 H   0  0  0  0  0  0  0  0  0  0  0  0
   38.2920   31.7560   40.5930 C   0  0  2  0  0  0  0  0  0  0  0  0
   37.6220   32.7470   39.6830 C   0  0  0  0  0  0  0  0  0  0  0  0
   38.8770   31.9950   39.2780 C   0  0  1  0  0  0  0  0  0  0  0  0
   38.7730   32.2350   41.4840 H   0  0  0  0  0  0  0  0  0  0  0  0
   36.7090   32.4900   39.1440 H   0  0  0  0  0  0  0  0  0  0  0  0
   37.7770   33.8420   39.8470 H   0  0  0  0  0  0  0  0  0  0  0  0
   38.7870   31.2190   38.4880 H   0  0  0  0  0  0  0  0  0  0  0  0
   40.1600   32.7580   39.2570 C   0  0  0  0  0  0  0  0  0  0  0  0
   40.7840   33.2030   40.4280 C   0  0  0  0  0  0  0  0  0  0  0  0
   40.2940   32.9700   41.3660 H   0  0  0  0  0  0  0  0  0  0  0  0
   41.9780   33.9080   40.3340 C   0  0  0  0  0  0  0  0  0  0  0  0
   42.4390   34.2420   41.2650 H   0  0  0  0  0  0  0  0  0  0  0  0
   42.5350   34.1610   39.0840 C   0  0  0  0  0  3  0  0  0  0  0  0
   41.8950   33.7070   37.9430 C   0  0  0  0  0  3  0  0  0  0  0  0
   40.7360   33.0250   38.0540 N   0  0  0  0  0  0  0  0  0  0  0  0
  1 12  1  0  0  0  0
  2  7  1  0  0  0  0
  2  1  2  0  0  0  0
  3  2  1  0  0  0  0
  4  3  2  0  0  0  0
  4  5  1  0  0  0  0
  5  6  2  0  0  0  0
  6  1  1  0  0  0  0
  8  3  1  0  0  0  0
  9  4  1  0  0  0  0
 10 16  1  0  0  0  0
 11 17  1  0  0  0  0
 11 10  2  0  0  0  0
 12 11  1  0  0  0  0
 13 12  2  0  0  0  0
 13 14  1  0  0  0  0
 14 15  2  0  0  0  0
 15 10  1  0  0  0  0
 18 14  1  0  0  0  0
 19  5  1  0  0  0  0
 19 22  1  1  0  0  0
 20 24  1  0  0  0  0
 20 19  1  0  0  0  0
 21 25  1  6  0  0  0
 21 20  1  0  0  0  0
 21 19  1  0  0  0  0
 23 20  1  0  0  0  0
 26 21  1  0  0  0  0
 26 27  1  0  0  0  0
 27 28  1  0  0  0  0
 29 27  2  0  0  0  0
 29 30  1  0  0  0  0
 31 29  1  0  0  0  0
 32 33  1  0  0  0  0
 32 31  2  0  0  0  0
 33 26  2  0  0  0  0
M  END
>  <minimizedAffinity>
-5.37575769

$$$$

 OpenBabel03242521063D

 33 36  0  0  1  0  0  0  0  0999 V2000
   39.1310   31.2880   38.5720 C   0  0  0  0  0  0  0  0  0  0  0  0
   38.4630   32.4300   38.9580 C   0  0  0  0  0  0  0  0  0  0  0  0
   37.2450   32.4770   39.5930 C   0  0  0  0  0  0  0  0  0  0  0  0
   36.6180   31.2910   39.8800 C   0  0  0  0  0  0  0  0  0  0  0  0
   37.2830   30.1510   39.4950 C   0  0  0  0  0  0  0  0  0  0  0  0
   38.4630   30.1650   38.8820 N   0  0  0  0  0  0  0  0  0  0  0  0
   38.9160   33.4090   38.7550 H   0  0  0  0  0  0  0  0  0  0  0  0
   36.7820   33.4230   39.8670 H   0  0  0  0  0  0  0  0  0  0  0  0
   35.6580   31.3140   40.3800 H   0  0  0  0  0  0  0  0  0  0  0  0
   42.4080   32.3010   37.0170 C   0  0  0  0  0  0  0  0  0  0  0  0
   41.1760   32.4420   37.6780 C   0  0  0  0  0  0  0  0  0  0  0  0
   40.4160   31.2930   37.9050 C   0  0  0  0  0  0  0  0  0  0  0  0
   40.8940   30.1110   37.4850 N   0  0  0  0  0  0  0  0  0  0  0  0
   42.0870   29.9950   36.8480 C   0  0  0  0  0  0  0  0  0  0  0  0
   42.8290   31.0990   36.6240 N   0  0  0  0  0  0  0  0  0  0  0  0
   42.9680   33.2080   36.8590 H   0  0  0  0  0  0  0  0  0  0  0  0
   40.7690   33.3820   38.0260 H   0  0  0  0  0  0  0  0  0  0  0  0
   42.4230   29.0040   36.5290 H   0  0  0  0  0  0  0  0  0  0  0  0
   36.6270   28.8470   39.7920 C   0  0  2  0  0  0  0  0  0  0  0  0
   35.5580   28.8950   40.8470 C   0  0  0  0  0  0  0  0  0  0  0  0
   36.8850   28.1910   41.0700 C   0  0  1  0  0  0  0  0  0  0  0  0
   36.3480   28.2090   38.9150 H   0  0  0  0  0  0  0  0  0  0  0  0
   35.3850   29.7980   41.4350 H   0  0  0  0  0  0  0  0  0  0  0  0
   34.6810   28.2060   40.7780 H   0  0  0  0  0  0  0  0  0  0  0  0
   37.6020   28.6470   41.7850 H   0  0  0  0  0  0  0  0  0  0  0  0
   36.8830   26.6980   41.0560 C   0  0  0  0  0  0  0  0  0  0  0  0
   37.0830   25.9390   42.2130 C   0  0  0  0  0  0  0  0  0  0  0  0
   37.2430   26.4830   43.1380 H   0  0  0  0  0  0  0  0  0  0  0  0
   37.0680   24.5520   42.1260 C   0  0  0  0  0  0  0  0  0  0  0  0
   37.2270   23.9890   43.0480 H   0  0  0  0  0  0  0  0  0  0  0  0
   36.8550   23.9390   40.8950 C   0  0  0  0  0  3  0  0  0  0  0  0
   36.6590   24.7170   39.7660 C   0  0  0  0  0  3  0  0  0  0  0  0
   36.6770   26.0620   39.8700 N   0  0  0  0  0  0  0  0  0  0  0  0
  1  6  2  0  0  0  0
  1  2  1  0  0  0  0
  2  3  2  0  0  0  0
  3  8  1  0  0  0  0
  3  4  1  0  0  0  0
  4  9  1  0  0  0  0
  5 19  1  0  0  0  0
  5  4  2  0  0  0  0
  6  5  1  0  0  0  0
  7  2  1  0  0  0  0
 10 11  1  0  0  0  0
 11 12  2  0  0  0  0
 11 17  1  0  0  0  0
 12  1  1  0  0  0  0
 13 12  1  0  0  0  0
 14 13  2  0  0  0  0
 15 14  1  0  0  0  0
 15 10  2  0  0  0  0
 16 10  1  0  0  0  0
 18 14  1  0  0  0  0
 19 22  1  6  0  0  0
 19 20  1  0  0  0  0
 19 21  1  0  0  0  0
 20 21  1  0  0  0  0
 20 23  1  0  0  0  0
 21 25  1  1  0  0  0
 24 20  1  0  0  0  0
 26 21  1  0  0  0  0
 26 27  1  0  0  0  0
 27 28  1  0  0  0  0
 29 27  2  0  0  0  0
 29 30  1  0  0  0  0
 31 29  1  0  0  0  0
 32 33  1  0  0  0  0
 32 31  2  0  0  0  0
 33 26  2  0  0  0  0
M  END
>  <minimizedAffinity>
-5.3423419

$$$$

 OpenBabel03242521063D

 33 36  0  0  1  0  0  0  0  0999 V2000
   39.1850   31.6100   39.1420 C   0  0  0  0  0  0  0  0  0  0  0  0
   38.1620   32.5340   39.1540 C   0  0  0  0  0  0  0  0  0  0  0  0
   37.0110   32.4550   39.8980 C   0  0  0  0  0  0  0  0  0  0  0  0
   36.8400   31.3620   40.7120 C   0  0  0  0  0  0  0  0  0  0  0  0
   37.8590   30.4400   40.7000 C   0  0  0  0  0  0  0  0  0  0  0  0
   38.9540   30.5700   39.9580 N   0  0  0  0  0  0  0  0  0  0  0  0
   38.2440   33.4290   38.5230 H   0  0  0  0  0  0  0  0  0  0  0  0
   36.2480   33.2290   39.8520 H   0  0  0  0  0  0  0  0  0  0  0  0
   35.9360   31.2870   41.3030 H   0  0  0  0  0  0  0  0  0  0  0  0
   42.1840   32.9390   37.2920 C   0  0  0  0  0  0  0  0  0  0  0  0
   41.0290   32.9550   38.0920 C   0  0  0  0  0  0  0  0  0  0  0  0
   40.3810   31.7430   38.3370 C   0  0  0  0  0  0  0  0  0  0  0  0
   40.8880   30.6220   37.8020 N   0  0  0  0  0  0  0  0  0  0  0  0
   42.0060   30.6250   37.0310 C   0  0  0  0  0  0  0  0  0  0  0  0
   42.6400   31.7910   36.7880 N   0  0  0  0  0  0  0  0  0  0  0  0
   42.6590   33.8910   37.1230 H   0  0  0  0  0  0  0  0  0  0  0  0
   40.6010   33.8450   38.5340 H   0  0  0  0  0  0  0  0  0  0  0  0
   42.3710   29.6780   36.6220 H   0  0  0  0  0  0  0  0  0  0  0  0
   37.7020   29.2420   41.5730 C   0  0  2  0  0  0  0  0  0  0  0  0
   38.4440   29.3020   42.8790 C   0  0  0  0  0  0  0  0  0  0  0  0
   38.8380   28.3460   41.7660 C   0  0  1  0  0  0  0  0  0  0  0  0
   36.6700   28.8210   41.6740 H   0  0  0  0  0  0  0  0  0  0  0  0
   39.1450   30.1100   43.0930 H   0  0  0  0  0  0  0  0  0  0  0  0
   38.0150   28.8020   43.7820 H   0  0  0  0  0  0  0  0  0  0  0  0
   39.7880   28.5400   41.2260 H   0  0  0  0  0  0  0  0  0  0  0  0
   38.5110   26.9010   41.9530 C   0  0  0  0  0  0  0  0  0  0  0  0
   37.2020   26.4140   41.8770 C   0  0  0  0  0  0  0  0  0  0  0  0
   36.4190   27.1370   41.6750 H   0  0  0  0  0  0  0  0  0  0  0  0
   36.9710   25.0570   42.0610 C   0  0  0  0  0  0  0  0  0  0  0  0
   35.9380   24.7090   41.9960 H   0  0  0  0  0  0  0  0  0  0  0  0
   38.0390   24.2030   42.3170 C   0  0  0  0  0  3  0  0  0  0  0  0
   39.3240   24.7130   42.3860 C   0  0  0  0  0  3  0  0  0  0  0  0
   39.5290   26.0340   42.2050 N   0  0  0  0  0  0  0  0  0  0  0  0
  1  2  2  0  0  0  0
  1  6  1  0  0  0  0
  2  3  1  0  0  0  0
  3  4  2  0  0  0  0
  4  9  1  0  0  0  0
  5  4  1  0  0  0  0
  5 19  1  0  0  0  0
  6  5  2  0  0  0  0
  7  2  1  0  0  0  0
  8  3  1  0  0  0  0
 10 11  1  0  0  0  0
 11 12  2  0  0  0  0
 11 17  1  0  0  0  0
 12  1  1  0  0  0  0
 13 12  1  0  0  0  0
 14 13  2  0  0  0  0
 15 14  1  0  0  0  0
 15 10  2  0  0  0  0
 16 10  1  0  0  0  0
 18 14  1  0  0  0  0
 19 22  1  1  0  0  0
 19 21  1  0  0  0  0
 19 20  1  0  0  0  0
 20 23  1  0  0  0  0
 20 24  1  0  0  0  0
 21 25  1  6  0  0  0
 21 26  1  0  0  0  0
 21 20  1  0  0  0  0
 26 33  1  0  0  0  0
 27 26  2  0  0  0  0
 27 29  1  0  0  0  0
 28 27  1  0  0  0  0
 29 31  2  0  0  0  0
 30 29  1  0  0  0  0
 31 32  1  0  0  0  0
 33 32  2  0  0  0  0
M  END
>  <minimizedAffinity>
-5.3253603

$$$$

 OpenBabel03242521063D

 33 36  0  0  1  0  0  0  0  0999 V2000
   37.3740   29.1300   41.3290 C   0  0  0  0  0  0  0  0  0  0  0  0
   37.6590   29.4310   42.6430 C   0  0  0  0  0  0  0  0  0  0  0  0
   37.7300   28.5320   43.6790 C   0  0  0  0  0  0  0  0  0  0  0  0
   37.4990   27.2070   43.4050 C   0  0  0  0  0  0  0  0  0  0  0  0
   37.2150   26.9060   42.0940 C   0  0  0  0  0  0  0  0  0  0  0  0
   37.1600   27.8200   41.1300 N   0  0  0  0  0  0  0  0  0  0  0  0
   37.8520   30.4750   42.9220 H   0  0  0  0  0  0  0  0  0  0  0  0
   37.9620   28.8500   44.6940 H   0  0  0  0  0  0  0  0  0  0  0  0
   37.5520   26.4890   44.2130 H   0  0  0  0  0  0  0  0  0  0  0  0
   37.1840   30.8670   37.9920 C   0  0  0  0  0  0  0  0  0  0  0  0
   37.2380   29.8070   38.9130 C   0  0  0  0  0  0  0  0  0  0  0  0
   37.3120   30.1180   40.2710 C   0  0  0  0  0  0  0  0  0  0  0  0
   37.3270   31.4100   40.6370 N   0  0  0  0  0  0  0  0  0  0  0  0
   37.2730   32.4210   39.7330 C   0  0  0  0  0  0  0  0  0  0  0  0
   37.2010   32.1310   38.4170 N   0  0  0  0  0  0  0  0  0  0  0  0
   37.1270   30.5920   36.9530 H   0  0  0  0  0  0  0  0  0  0  0  0
   37.2280   28.7590   38.6440 H   0  0  0  0  0  0  0  0  0  0  0  0
   37.2880   33.4540   40.0920 H   0  0  0  0  0  0  0  0  0  0  0  0
   36.9590   25.4760   41.7650 C   0  0  2  0  0  0  0  0  0  0  0  0
   38.0330   24.5180   42.1990 C   0  0  0  0  0  0  0  0  0  0  0  0
   37.7640   24.8240   40.7360 C   0  0  1  0  0  0  0  0  0  0  0  0
   35.9250   25.0900   41.9530 H   0  0  0  0  0  0  0  0  0  0  0  0
   38.9800   24.8780   42.6030 H   0  0  0  0  0  0  0  0  0  0  0  0
   37.7560   23.4800   42.5080 H   0  0  0  0  0  0  0  0  0  0  0  0
   38.5240   25.4130   40.1800 H   0  0  0  0  0  0  0  0  0  0  0  0
   37.0750   23.7740   39.9290 C   0  0  0  0  0  0  0  0  0  0  0  0
   35.6820   23.6560   39.8880 C   0  0  0  0  0  0  0  0  0  0  0  0
   35.1100   24.3680   40.4740 H   0  0  0  0  0  0  0  0  0  0  0  0
   35.1080   22.6550   39.1140 C   0  0  0  0  0  0  0  0  0  0  0  0
   34.0190   22.5900   39.1040 H   0  0  0  0  0  0  0  0  0  0  0  0
   35.9220   21.7870   38.3940 C   0  0  0  0  0  3  0  0  0  0  0  0
   37.2980   21.9280   38.4530 C   0  0  0  0  0  3  0  0  0  0  0  0
   37.8370   22.9060   39.2100 N   0  0  0  0  0  0  0  0  0  0  0  0
  1  2  1  0  0  0  0
  2  7  1  0  0  0  0
  2  3  2  0  0  0  0
  3  8  1  0  0  0  0
  4  3  1  0  0  0  0
  4  9  1  0  0  0  0
  5  4  2  0  0  0  0
  6  1  2  0  0  0  0
  6  5  1  0  0  0  0
 10 15  2  0  0  0  0
 10 11  1  0  0  0  0
 11 12  2  0  0  0  0
 12 13  1  0  0  0  0
 12  1  1  0  0  0  0
 14 18  1  0  0  0  0
 14 13  2  0  0  0  0
 15 14  1  0  0  0  0
 16 10  1  0  0  0  0
 17 11  1  0  0  0  0
 19 22  1  1  0  0  0
 19  5  1  0  0  0  0
 19 20  1  0  0  0  0
 20 24  1  0  0  0  0
 20 23  1  0  0  0  0
 21 25  1  6  0  0  0
 21 19  1  0  0  0  0
 21 20  1  0  0  0  0
 26 21  1  0  0  0  0
 27 26  1  0  0  0  0
 27 28  1  0  0  0  0
 29 27  2  0  0  0  0
 30 29  1  0  0  0  0
 31 32  2  0  0  0  0
 31 29  1  0  0  0  0
 32 33  1  0  0  0  0
 33 26  2  0  0  0  0
M  END
>  <minimizedAffinity>
-5.2424202

$$$$

 OpenBabel03242521063D

 33 36  0  0  1  0  0  0  0  0999 V2000
   37.5670   26.5300   41.7950 C   0  0  0  0  0  0  0  0  0  0  0  0
   36.8470   26.8240   42.9320 C   0  0  0  0  0  0  0  0  0  0  0  0
   36.9510   27.9720   43.6800 C   0  0  0  0  0  0  0  0  0  0  0  0
   37.8500   28.9280   43.2770 C   0  0  0  0  0  0  0  0  0  0  0  0
   38.5690   28.6350   42.1430 C   0  0  0  0  0  0  0  0  0  0  0  0
   38.4260   27.5050   41.4570 N   0  0  0  0  0  0  0  0  0  0  0  0
   36.1120   26.0970   43.3020 H   0  0  0  0  0  0  0  0  0  0  0  0
   36.3430   28.1300   44.5690 H   0  0  0  0  0  0  0  0  0  0  0  0
   37.9430   29.8370   43.8580 H   0  0  0  0  0  0  0  0  0  0  0  0
   37.7010   22.9550   40.6190 C   0  0  0  0  0  0  0  0  0  0  0  0
   37.9200   24.0660   41.4500 C   0  0  0  0  0  0  0  0  0  0  0  0
   37.4170   25.3030   41.0410 C   0  0  0  0  0  0  0  0  0  0  0  0
   36.7490   25.3740   39.8790 N   0  0  0  0  0  0  0  0  0  0  0  0
   36.5470   24.2890   39.0890 C   0  0  0  0  0  0  0  0  0  0  0  0
   37.0290   23.0890   39.4750 N   0  0  0  0  0  0  0  0  0  0  0  0
   38.1020   22.0170   40.9650 H   0  0  0  0  0  0  0  0  0  0  0  0
   38.4550   24.0350   42.3900 H   0  0  0  0  0  0  0  0  0  0  0  0
   35.9950   24.4100   38.1520 H   0  0  0  0  0  0  0  0  0  0  0  0
   39.5550   29.6530   41.6800 C   0  0  2  0  0  0  0  0  0  0  0  0
   39.9160   30.7000   42.6960 C   0  0  0  0  0  0  0  0  0  0  0  0
   39.1100   31.0240   41.4500 C   0  0  1  0  0  0  0  0  0  0  0  0
   40.4380   29.2780   41.1050 H   0  0  0  0  0  0  0  0  0  0  0  0
   39.3850   30.7710   43.6470 H   0  0  0  0  0  0  0  0  0  0  0  0
   40.9460   31.1340   42.7010 H   0  0  0  0  0  0  0  0  0  0  0  0
   38.0380   31.2820   41.5770 H   0  0  0  0  0  0  0  0  0  0  0  0
   39.8050   31.7660   40.3560 C   0  0  0  0  0  0  0  0  0  0  0  0
   40.2690   31.1300   39.2000 C   0  0  0  0  0  0  0  0  0  0  0  0
   40.1040   30.0610   39.1260 H   0  0  0  0  0  0  0  0  0  0  0  0
   40.9070   31.8830   38.2220 C   0  0  0  0  0  0  0  0  0  0  0  0
   41.2570   31.3570   37.3310 H   0  0  0  0  0  0  0  0  0  0  0  0
   41.0740   33.2530   38.4030 C   0  0  0  0  0  3  0  0  0  0  0  0
   40.6040   33.8550   39.5580 C   0  0  0  0  0  3  0  0  0  0  0  0
   39.9870   33.1070   40.4970 N   0  0  0  0  0  0  0  0  0  0  0  0
  1  2  1  0  0  0  0
  2  7  1  0  0  0  0
  2  3  2  0  0  0  0
  3  8  1  0  0  0  0
  4  3  1  0  0  0  0
  4  9  1  0  0  0  0
  5  4  2  0  0  0  0
  6  1  2  0  0  0  0
  6  5  1  0  0  0  0
 10 16  1  0  0  0  0
 10 11  1  0  0  0  0
 11 17  1  0  0  0  0
 12 11  2  0  0  0  0
 12  1  1  0  0  0  0
 13 12  1  0  0  0  0
 14 15  1  0  0  0  0
 14 13  2  0  0  0  0
 15 10  2  0  0  0  0
 18 14  1  0  0  0  0
 19 22  1  6  0  0  0
 19  5  1  0  0  0  0
 19 20  1  0  0  0  0
 20 24  1  0  0  0  0
 20 23  1  0  0  0  0
 21 25  1  1  0  0  0
 21 19  1  0  0  0  0
 21 20  1  0  0  0  0
 26 33  1  0  0  0  0
 26 21  1  0  0  0  0
 27 26  2  0  0  0  0
 28 27  1  0  0  0  0
 29 31  2  0  0  0  0
 29 27  1  0  0  0  0
 30 29  1  0  0  0  0
 31 32  1  0  0  0  0
 32 33  2  0  0  0  0
M  END
>  <minimizedAffinity>
-5.15607786

$$$$

 OpenBabel03242521063D

 33 36  0  0  1  0  0  0  0  0999 V2000
   39.0560   31.5610   39.0780 C   0  0  0  0  0  0  0  0  0  0  0  0
   38.6250   31.9530   37.8290 C   0  0  0  0  0  0  0  0  0  0  0  0
   37.6060   31.3800   37.1090 C   0  0  0  0  0  0  0  0  0  0  0  0
   36.9400   30.3150   37.6650 C   0  0  0  0  0  0  0  0  0  0  0  0
   37.3690   29.9230   38.9100 C   0  0  0  0  0  0  0  0  0  0  0  0
   38.3640   30.5170   39.5620 N   0  0  0  0  0  0  0  0  0  0  0  0
   39.1200   32.8000   37.3350 H   0  0  0  0  0  0  0  0  0  0  0  0
   37.3240   31.7500   36.1250 H   0  0  0  0  0  0  0  0  0  0  0  0
   36.1350   29.8530   37.1080 H   0  0  0  0  0  0  0  0  0  0  0  0
   41.8940   32.3350   41.4290 C   0  0  0  0  0  0  0  0  0  0  0  0
   40.8690   31.5940   40.8170 C   0  0  0  0  0  0  0  0  0  0  0  0
   40.1380   32.2020   39.7950 C   0  0  0  0  0  0  0  0  0  0  0  0
   40.4460   33.4610   39.4430 N   0  0  0  0  0  0  0  0  0  0  0  0
   41.4420   34.1600   40.0460 C   0  0  0  0  0  0  0  0  0  0  0  0
   42.1540   33.5820   41.0350 N   0  0  0  0  0  0  0  0  0  0  0  0
   42.4380   31.8350   42.2140 H   0  0  0  0  0  0  0  0  0  0  0  0
   40.6000   30.5800   41.0830 H   0  0  0  0  0  0  0  0  0  0  0  0
   41.6460   35.1830   39.7150 H   0  0  0  0  0  0  0  0  0  0  0  0
   36.6660   28.7690   39.5390 C   0  0  2  0  0  0  0  0  0  0  0  0
   36.0210   29.0600   40.8650 C   0  0  0  0  0  0  0  0  0  0  0  0
   37.2330   28.1540   40.7360 C   0  0  1  0  0  0  0  0  0  0  0  0
   36.0280   28.1390   38.8700 H   0  0  0  0  0  0  0  0  0  0  0  0
   36.1800   30.0120   41.3740 H   0  0  0  0  0  0  0  0  0  0  0  0
   35.0800   28.5280   41.1500 H   0  0  0  0  0  0  0  0  0  0  0  0
   38.2020   28.5210   41.1350 H   0  0  0  0  0  0  0  0  0  0  0  0
   37.0130   26.6850   40.8870 C   0  0  0  0  0  0  0  0  0  0  0  0
   37.1720   26.0270   42.1120 C   0  0  0  0  0  0  0  0  0  0  0  0
   37.4660   26.6330   42.9620 H   0  0  0  0  0  0  0  0  0  0  0  0
   36.9500   24.6580   42.1800 C   0  0  0  0  0  0  0  0  0  0  0  0
   37.0830   24.1740   43.1500 H   0  0  0  0  0  0  0  0  0  0  0  0
   36.5750   23.9600   41.0350 C   0  0  0  0  0  3  0  0  0  0  0  0
   36.4250   24.6380   39.8370 C   0  0  0  0  0  3  0  0  0  0  0  0
   36.6440   25.9690   39.7900 N   0  0  0  0  0  0  0  0  0  0  0  0
  1  6  1  0  0  0  0
  1 12  1  0  0  0  0
  2  1  2  0  0  0  0
  3  4  2  0  0  0  0
  3  2  1  0  0  0  0
  4  5  1  0  0  0  0
  5 19  1  0  0  0  0
  5  6  2  0  0  0  0
  7  2  1  0  0  0  0
  8  3  1  0  0  0  0
  9  4  1  0  0  0  0
 10 16  1  0  0  0  0
 11 17  1  0  0  0  0
 11 10  2  0  0  0  0
 12 11  1  0  0  0  0
 13 12  2  0  0  0  0
 13 14  1  0  0  0  0
 14 15  2  0  0  0  0
 15 10  1  0  0  0  0
 18 14  1  0  0  0  0
 19 22  1  6  0  0  0
 19 21  1  0  0  0  0
 19 20  1  0  0  0  0
 20 24  1  0  0  0  0
 20 23  1  0  0  0  0
 21 20  1  0  0  0  0
 21 26  1  0  0  0  0
 21 25  1  1  0  0  0
 26 27  1  0  0  0  0
 27 29  2  0  0  0  0
 27 28  1  0  0  0  0
 29 30  1  0  0  0  0
 31 29  1  0  0  0  0
 32 31  2  0  0  0  0
 33 32  1  0  0  0  0
 33 26  2  0  0  0  0
M  END
>  <minimizedAffinity>
-5.11519623

$$$$

 OpenBabel03242521063D

 33 36  0  0  1  0  0  0  0  0999 V2000
   37.6320   29.2970   41.4970 C   0  0  0  0  0  0  0  0  0  0  0  0
   37.5950   29.2980   42.8740 C   0  0  0  0  0  0  0  0  0  0  0  0
   37.3600   28.2080   43.6770 C   0  0  0  0  0  0  0  0  0  0  0  0
   37.1370   26.9960   43.0730 C   0  0  0  0  0  0  0  0  0  0  0  0
   37.1730   26.9930   41.6990 C   0  0  0  0  0  0  0  0  0  0  0  0
   37.4070   28.0820   40.9720 N   0  0  0  0  0  0  0  0  0  0  0  0
   37.7670   30.2390   43.4130 H   0  0  0  0  0  0  0  0  0  0  0  0
   37.3470   28.2910   44.7620 H   0  0  0  0  0  0  0  0  0  0  0  0
   36.9490   26.1290   43.6930 H   0  0  0  0  0  0  0  0  0  0  0  0
   37.3830   32.6380   39.7770 C   0  0  0  0  0  0  0  0  0  0  0  0
   37.0070   31.5550   40.5910 C   0  0  0  0  0  0  0  0  0  0  0  0
   37.8870   30.4770   40.6970 C   0  0  0  0  0  0  0  0  0  0  0  0
   39.0470   30.5220   40.0220 N   0  0  0  0  0  0  0  0  0  0  0  0
   39.3930   31.5770   39.2420 C   0  0  0  0  0  0  0  0  0  0  0  0
   38.5490   32.6250   39.1320 N   0  0  0  0  0  0  0  0  0  0  0  0
   36.6810   33.4530   39.7180 H   0  0  0  0  0  0  0  0  0  0  0  0
   36.0800   31.4950   41.1430 H   0  0  0  0  0  0  0  0  0  0  0  0
   40.3520   31.5560   38.7160 H   0  0  0  0  0  0  0  0  0  0  0  0
   36.9340   25.6920   41.0140 C   0  0  2  0  0  0  0  0  0  0  0  0
   36.8680   24.4950   41.9200 C   0  0  0  0  0  0  0  0  0  0  0  0
   38.0130   24.7110   40.9470 C   0  0  1  0  0  0  0  0  0  0  0  0
   36.1530   25.6780   40.2110 H   0  0  0  0  0  0  0  0  0  0  0  0
   37.1120   24.5770   42.9810 H   0  0  0  0  0  0  0  0  0  0  0  0
   36.1990   23.6390   41.6580 H   0  0  0  0  0  0  0  0  0  0  0  0
   39.0100   24.9630   41.3640 H   0  0  0  0  0  0  0  0  0  0  0  0
   38.0470   23.8530   39.7250 C   0  0  0  0  0  0  0  0  0  0  0  0
   38.7420   22.6400   39.6820 C   0  0  0  0  0  0  0  0  0  0  0  0
   39.2630   22.3390   40.5850 H   0  0  0  0  0  0  0  0  0  0  0  0
   38.7310   21.8930   38.5110 C   0  0  0  0  0  0  0  0  0  0  0  0
   39.2820   20.9500   38.5110 H   0  0  0  0  0  0  0  0  0  0  0  0
   38.0330   22.3580   37.4010 C   0  0  0  0  0  3  0  0  0  0  0  0
   37.3550   23.5630   37.4730 C   0  0  0  0  0  3  0  0  0  0  0  0
   37.3770   24.2750   38.6190 N   0  0  0  0  0  0  0  0  0  0  0  0
  1  2  1  0  0  0  0
  2  7  1  0  0  0  0
  2  3  2  0  0  0  0
  3  8  1  0  0  0  0
  4  3  1  0  0  0  0
  4  9  1  0  0  0  0
  5  4  2  0  0  0  0
  6  1  2  0  0  0  0
  6  5  1  0  0  0  0
 10 11  1  0  0  0  0
 11 12  2  0  0  0  0
 11 17  1  0  0  0  0
 12  1  1  0  0  0  0
 13 12  1  0  0  0  0
 14 13  2  0  0  0  0
 15 14  1  0  0  0  0
 15 10  2  0  0  0  0
 16 10  1  0  0  0  0
 18 14  1  0  0  0  0
 19 22  1  6  0  0  0
 19  5  1  0  0  0  0
 19 20  1  0  0  0  0
 20 23  1  0  0  0  0
 21 19  1  0  0  0  0
 21 25  1  1  0  0  0
 21 20  1  0  0  0  0
 24 20  1  0  0  0  0
 26 21  1  0  0  0  0
 27 26  1  0  0  0  0
 27 28  1  0  0  0  0
 29 27  2  0  0  0  0
 30 29  1  0  0  0  0
 31 32  2  0  0  0  0
 31 29  1  0  0  0  0
 32 33  1  0  0  0  0
 33 26  2  0  0  0  0
M  END
>  <minimizedAffinity>
-5.06773281

$$$$
