
 OpenBabel03252503583D

 19 20  0  0  0  0  0  0  0  0999 V2000
   37.6640   28.4740   42.6060 C   0  0  0  0  0  0  0  0  0  0  0  0
   36.5360   27.8520   42.0790 C   0  0  0  0  0  0  0  0  0  0  0  0
   35.8290   28.5610   41.0870 C   0  0  0  0  0  0  0  0  0  0  0  0
   36.2950   29.7900   40.7190 N   0  0  0  0  0  0  0  0  0  0  0  0
   37.3880   30.3370   41.2640 C   0  0  0  0  0  0  0  0  0  0  0  0
   38.0870   29.6870   42.2140 N   0  0  0  0  0  0  0  0  0  0  0  0
   36.1890   26.8800   42.3850 H   0  0  0  0  0  0  0  0  0  0  0  0
   34.9450   28.1200   40.6450 H   0  0  0  0  0  0  0  0  0  0  0  0
   37.8000   31.6560   40.8000 C   0  0  0  0  0  0  0  0  0  0  0  0
   37.0110   32.4370   39.9850 C   0  0  0  0  0  0  0  0  0  0  0  0
   36.0380   32.0580   39.6720 H   0  0  0  0  0  0  0  0  0  0  0  0
   37.4300   33.6850   39.5610 C   0  0  0  0  0  0  0  0  0  0  0  0
   36.8220   34.3290   38.9110 H   0  0  0  0  0  0  0  0  0  0  0  0
   38.6740   34.1090   39.9930 C   0  0  0  0  0  3  0  0  0  0  0  0
   39.4820   33.3280   40.8190 C   0  0  0  0  0  3  0  0  0  0  0  0
   39.0130   32.1060   41.2030 N   0  0  0  0  0  0  0  0  0  0  0  0
   38.3460   27.6980   43.6180 C   0  0  0  0  0  0  0  0  0  0  0  0
   39.0470   26.6570   43.4020 O   0  0  0  0  0  0  0  0  0  0  0  0
   38.4140   27.8090   44.6940 H   0  0  0  0  0  0  0  0  0  0  0  0
  1 17  1  0  0  0  0
  2  7  1  0  0  0  0
  2  1  2  0  0  0  0
  3  2  1  0  0  0  0
  4  3  2  0  0  0  0
  4  5  1  0  0  0  0
  5  6  2  0  0  0  0
  6  1  1  0  0  0  0
  8  3  1  0  0  0  0
  9 16  1  0  0  0  0
  9  5  1  0  0  0  0
 10  9  2  0  0  0  0
 11 10  1  0  0  0  0
 12 10  1  0  0  0  0
 12 14  2  0  0  0  0
 13 12  1  0  0  0  0
 14 15  1  0  0  0  0
 15 16  2  0  0  0  0
 17 19  1  0  0  0  0
 18 17  2  0  0  0  0
M  END
>  <minimizedAffinity>
-4.298769

$$$$

 OpenBabel03252503583D

 19 20  0  0  0  0  0  0  0  0999 V2000
   39.5580   32.7390   40.5990 C   0  0  0  0  0  0  0  0  0  0  0  0
   38.6130   33.4350   39.8520 C   0  0  0  0  0  0  0  0  0  0  0  0
   37.3180   32.8810   39.7960 C   0  0  0  0  0  0  0  0  0  0  0  0
   37.0860   31.7170   40.4700 N   0  0  0  0  0  0  0  0  0  0  0  0
   38.0380   31.0930   41.1730 C   0  0  0  0  0  0  0  0  0  0  0  0
   39.2860   31.5940   41.2470 N   0  0  0  0  0  0  0  0  0  0  0  0
   38.8190   34.3530   39.3290 H   0  0  0  0  0  0  0  0  0  0  0  0
   36.5470   33.3850   39.2280 H   0  0  0  0  0  0  0  0  0  0  0  0
   37.6850   29.8530   41.8560 C   0  0  0  0  0  0  0  0  0  0  0  0
   38.3260   29.4250   42.9970 C   0  0  0  0  0  0  0  0  0  0  0  0
   39.1290   30.0350   43.4110 H   0  0  0  0  0  0  0  0  0  0  0  0
   37.9680   28.2450   43.6210 C   0  0  0  0  0  0  0  0  0  0  0  0
   38.4610   27.8790   44.5330 H   0  0  0  0  0  0  0  0  0  0  0  0
   36.9410   27.5170   43.0470 C   0  0  0  0  0  3  0  0  0  0  0  0
   36.2850   27.9400   41.8920 C   0  0  0  0  0  3  0  0  0  0  0  0
   36.6830   29.1140   41.3220 N   0  0  0  0  0  0  0  0  0  0  0  0
   40.8660   33.3550   40.6180 C   0  0  0  0  0  0  0  0  0  0  0  0
   41.9110   32.8520   41.1440 O   0  0  0  0  0  0  0  0  0  0  0  0
   41.2280   34.2990   40.2280 H   0  0  0  0  0  0  0  0  0  0  0  0
  1 17  1  0  0  0  0
  1  6  1  0  0  0  0
  2  1  2  0  0  0  0
  3  2  1  0  0  0  0
  3  4  2  0  0  0  0
  4  5  1  0  0  0  0
  5  6  2  0  0  0  0
  5  9  1  0  0  0  0
  7  2  1  0  0  0  0
  8  3  1  0  0  0  0
  9 10  1  0  0  0  0
 10 11  1  0  0  0  0
 10 12  2  0  0  0  0
 12 13  1  0  0  0  0
 14 12  1  0  0  0  0
 15 14  2  0  0  0  0
 16  9  2  0  0  0  0
 16 15  1  0  0  0  0
 17 18  2  0  0  0  0
 19 17  1  0  0  0  0
M  END
>  <minimizedAffinity>
-4.21649075

$$$$

 OpenBabel03252503583D

 19 20  0  0  0  0  0  0  0  0999 V2000
   39.1720   32.6770   40.5940 C   0  0  0  0  0  0  0  0  0  0  0  0
   37.9910   32.9590   39.9150 C   0  0  0  0  0  0  0  0  0  0  0  0
   36.9510   32.0160   40.0370 C   0  0  0  0  0  0  0  0  0  0  0  0
   37.1730   30.9070   40.8010 N   0  0  0  0  0  0  0  0  0  0  0  0
   38.3330   30.6910   41.4320 C   0  0  0  0  0  0  0  0  0  0  0  0
   39.3480   31.5710   41.3370 N   0  0  0  0  0  0  0  0  0  0  0  0
   37.8380   33.8420   39.3180 H   0  0  0  0  0  0  0  0  0  0  0  0
   36.0120   32.1900   39.5280 H   0  0  0  0  0  0  0  0  0  0  0  0
   38.4670   29.4730   42.2230 C   0  0  0  0  0  0  0  0  0  0  0  0
   37.3980   28.8690   42.8460 C   0  0  0  0  0  0  0  0  0  0  0  0
   36.4080   29.3160   42.7450 H   0  0  0  0  0  0  0  0  0  0  0  0
   37.5580   27.7150   43.5890 C   0  0  0  0  0  0  0  0  0  0  0  0
   36.7230   27.2120   44.0970 H   0  0  0  0  0  0  0  0  0  0  0  0
   38.8380   27.1980   43.6780 C   0  0  0  0  0  3  0  0  0  0  0  0
   39.9290   27.8000   43.0530 C   0  0  0  0  0  3  0  0  0  0  0  0
   39.7080   28.9370   42.3320 N   0  0  0  0  0  0  0  0  0  0  0  0
   40.2000   33.6800   40.4310 C   0  0  0  0  0  0  0  0  0  0  0  0
   40.6060   34.1460   39.3180 O   0  0  0  0  0  0  0  0  0  0  0  0
   40.8080   34.2180   41.1480 H   0  0  0  0  0  0  0  0  0  0  0  0
  1  6  1  0  0  0  0
  2  3  1  0  0  0  0
  2  1  2  0  0  0  0
  3  4  2  0  0  0  0
  4  5  1  0  0  0  0
  5  9  1  0  0  0  0
  6  5  2  0  0  0  0
  7  2  1  0  0  0  0
  8  3  1  0  0  0  0
  9 16  2  0  0  0  0
  9 10  1  0  0  0  0
 10 12  2  0  0  0  0
 11 10  1  0  0  0  0
 12 14  1  0  0  0  0
 12 13  1  0  0  0  0
 15 14  2  0  0  0  0
 16 15  1  0  0  0  0
 17  1  1  0  0  0  0
 17 19  1  0  0  0  0
 18 17  2  0  0  0  0
M  END
>  <minimizedAffinity>
-4.18974018

$$$$

 OpenBabel03252503583D

 19 20  0  0  0  0  0  0  0  0999 V2000
   37.6880   32.2930   39.7030 C   0  0  0  0  0  0  0  0  0  0  0  0
   37.3690   32.0130   38.3770 C   0  0  0  0  0  0  0  0  0  0  0  0
   36.9970   30.6870   38.0830 C   0  0  0  0  0  0  0  0  0  0  0  0
   36.9740   29.7820   39.1060 N   0  0  0  0  0  0  0  0  0  0  0  0
   37.2920   30.1120   40.3630 C   0  0  0  0  0  0  0  0  0  0  0  0
   37.6530   31.3710   40.6790 N   0  0  0  0  0  0  0  0  0  0  0  0
   37.3930   32.7440   37.5870 H   0  0  0  0  0  0  0  0  0  0  0  0
   36.7390   30.4180   37.0670 H   0  0  0  0  0  0  0  0  0  0  0  0
   37.2360   29.0700   41.3810 C   0  0  0  0  0  0  0  0  0  0  0  0
   36.9340   27.7590   41.0870 C   0  0  0  0  0  0  0  0  0  0  0  0
   36.7280   27.4850   40.0520 H   0  0  0  0  0  0  0  0  0  0  0  0
   36.8890   26.7930   42.0750 C   0  0  0  0  0  0  0  0  0  0  0  0
   36.6510   25.7400   41.8700 H   0  0  0  0  0  0  0  0  0  0  0  0
   37.1610   27.2050   43.3680 C   0  0  0  0  0  3  0  0  0  0  0  0
   37.4690   28.5290   43.6790 C   0  0  0  0  0  3  0  0  0  0  0  0
   37.4970   29.4360   42.6600 N   0  0  0  0  0  0  0  0  0  0  0  0
   38.0620   33.6690   39.9410 C   0  0  0  0  0  0  0  0  0  0  0  0
   39.0130   34.0540   40.6960 O   0  0  0  0  0  0  0  0  0  0  0  0
   37.6610   34.6050   39.5710 H   0  0  0  0  0  0  0  0  0  0  0  0
  1 17  1  0  0  0  0
  1  6  1  0  0  0  0
  2  1  2  0  0  0  0
  3  2  1  0  0  0  0
  3  4  2  0  0  0  0
  4  5  1  0  0  0  0
  5  6  2  0  0  0  0
  5  9  1  0  0  0  0
  7  2  1  0  0  0  0
  8  3  1  0  0  0  0
  9 16  1  0  0  0  0
 10  9  2  0  0  0  0
 10 12  1  0  0  0  0
 11 10  1  0  0  0  0
 12 14  2  0  0  0  0
 13 12  1  0  0  0  0
 14 15  1  0  0  0  0
 16 15  2  0  0  0  0
 17 18  2  0  0  0  0
 19 17  1  0  0  0  0
M  END
>  <minimizedAffinity>
-4.1823597

$$$$

 OpenBabel03252503583D

 19 20  0  0  0  0  0  0  0  0999 V2000
   37.1890   27.1640   41.4370 C   0  0  0  0  0  0  0  0  0  0  0  0
   37.2270   26.9900   42.8170 C   0  0  0  0  0  0  0  0  0  0  0  0
   37.4440   28.1440   43.5950 C   0  0  0  0  0  0  0  0  0  0  0  0
   37.6000   29.3360   42.9480 N   0  0  0  0  0  0  0  0  0  0  0  0
   37.5530   29.4410   41.6150 C   0  0  0  0  0  0  0  0  0  0  0  0
   37.3480   28.3580   40.8410 N   0  0  0  0  0  0  0  0  0  0  0  0
   37.1000   26.0390   43.3050 H   0  0  0  0  0  0  0  0  0  0  0  0
   37.4810   28.0620   44.6730 H   0  0  0  0  0  0  0  0  0  0  0  0
   37.7330   30.7620   41.0240 C   0  0  0  0  0  0  0  0  0  0  0  0
   36.8560   31.2900   40.1030 C   0  0  0  0  0  0  0  0  0  0  0  0
   35.9890   30.7000   39.8020 H   0  0  0  0  0  0  0  0  0  0  0  0
   37.0540   32.5460   39.5600 C   0  0  0  0  0  0  0  0  0  0  0  0
   36.3700   32.9920   38.8240 H   0  0  0  0  0  0  0  0  0  0  0  0
   38.1710   33.2440   39.9840 C   0  0  0  0  0  3  0  0  0  0  0  0
   39.0660   32.7210   40.9160 C   0  0  0  0  0  3  0  0  0  0  0  0
   38.8170   31.4760   41.4150 N   0  0  0  0  0  0  0  0  0  0  0  0
   36.9640   25.9450   40.6940 C   0  0  0  0  0  0  0  0  0  0  0  0
   36.7430   24.8000   41.2060 O   0  0  0  0  0  0  0  0  0  0  0  0
   36.9330   25.7380   39.6310 H   0  0  0  0  0  0  0  0  0  0  0  0
  1  2  1  0  0  0  0
  2  7  1  0  0  0  0
  2  3  2  0  0  0  0
  3  8  1  0  0  0  0
  4  3  1  0  0  0  0
  5  4  2  0  0  0  0
  6  1  2  0  0  0  0
  6  5  1  0  0  0  0
  9 16  1  0  0  0  0
  9  5  1  0  0  0  0
 10  9  2  0  0  0  0
 11 10  1  0  0  0  0
 12 14  2  0  0  0  0
 12 10  1  0  0  0  0
 13 12  1  0  0  0  0
 14 15  1  0  0  0  0
 15 16  2  0  0  0  0
 17 18  2  0  0  0  0
 17  1  1  0  0  0  0
 19 17  1  0  0  0  0
M  END
>  <minimizedAffinity>
-4.18167686

$$$$

 OpenBabel03252503583D

 19 20  0  0  0  0  0  0  0  0999 V2000
   37.3540   29.5800   37.4970 C   0  0  0  0  0  0  0  0  0  0  0  0
   37.3260   30.9620   37.3320 C   0  0  0  0  0  0  0  0  0  0  0  0
   37.3060   31.7380   38.5080 C   0  0  0  0  0  0  0  0  0  0  0  0
   37.3160   31.0890   39.7090 N   0  0  0  0  0  0  0  0  0  0  0  0
   37.3440   29.7540   39.8030 C   0  0  0  0  0  0  0  0  0  0  0  0
   37.3630   28.9820   38.7000 N   0  0  0  0  0  0  0  0  0  0  0  0
   37.3190   31.4520   36.3740 H   0  0  0  0  0  0  0  0  0  0  0  0
   37.2840   32.8170   38.4340 H   0  0  0  0  0  0  0  0  0  0  0  0
   37.3510   29.1600   41.1350 C   0  0  0  0  0  0  0  0  0  0  0  0
   36.5000   28.1410   41.4990 C   0  0  0  0  0  0  0  0  0  0  0  0
   35.7900   27.7590   40.7650 H   0  0  0  0  0  0  0  0  0  0  0  0
   36.5310   27.5990   42.7710 C   0  0  0  0  0  0  0  0  0  0  0  0
   35.8640   26.7860   43.0890 H   0  0  0  0  0  0  0  0  0  0  0  0
   37.4550   28.1270   43.6550 C   0  0  0  0  0  3  0  0  0  0  0  0
   38.3220   29.1580   43.2990 C   0  0  0  0  0  3  0  0  0  0  0  0
   38.2430   29.6520   42.0290 N   0  0  0  0  0  0  0  0  0  0  0  0
   37.3730   28.8390   36.2560 C   0  0  0  0  0  0  0  0  0  0  0  0
   38.2740   28.0090   35.9060 O   0  0  0  0  0  0  0  0  0  0  0  0
   36.6930   28.8170   35.4130 H   0  0  0  0  0  0  0  0  0  0  0  0
  1  6  1  0  0  0  0
  2  1  2  0  0  0  0
  2  3  1  0  0  0  0
  3  4  2  0  0  0  0
  4  5  1  0  0  0  0
  5  9  1  0  0  0  0
  6  5  2  0  0  0  0
  7  2  1  0  0  0  0
  8  3  1  0  0  0  0
  9 10  2  0  0  0  0
  9 16  1  0  0  0  0
 10 12  1  0  0  0  0
 11 10  1  0  0  0  0
 12 13  1  0  0  0  0
 12 14  2  0  0  0  0
 15 14  1  0  0  0  0
 16 15  2  0  0  0  0
 17  1  1  0  0  0  0
 18 17  2  0  0  0  0
 19 17  1  0  0  0  0
M  END
>  <minimizedAffinity>
-3.93413281

$$$$

 OpenBabel03252503583D

 19 20  0  0  0  0  0  0  0  0999 V2000
   37.5090   30.8060   40.9540 C   0  0  0  0  0  0  0  0  0  0  0  0
   36.1810   30.6840   40.5540 C   0  0  0  0  0  0  0  0  0  0  0  0
   35.5810   29.4220   40.7350 C   0  0  0  0  0  0  0  0  0  0  0  0
   36.3340   28.4230   41.2830 N   0  0  0  0  0  0  0  0  0  0  0  0
   37.6080   28.6020   41.6470 C   0  0  0  0  0  0  0  0  0  0  0  0
   38.2140   29.7950   41.4880 N   0  0  0  0  0  0  0  0  0  0  0  0
   35.6070   31.4870   40.1260 H   0  0  0  0  0  0  0  0  0  0  0  0
   34.5500   29.2750   40.4410 H   0  0  0  0  0  0  0  0  0  0  0  0
   38.3240   27.4690   42.2220 C   0  0  0  0  0  0  0  0  0  0  0  0
   38.0170   26.1620   41.9140 C   0  0  0  0  0  0  0  0  0  0  0  0
   37.2060   25.9630   41.2120 H   0  0  0  0  0  0  0  0  0  0  0  0
   38.7140   25.1090   42.4760 C   0  0  0  0  0  0  0  0  0  0  0  0
   38.4900   24.0570   42.2490 H   0  0  0  0  0  0  0  0  0  0  0  0
   39.7310   25.4290   43.3580 C   0  0  0  0  0  3  0  0  0  0  0  0
   40.0520   26.7470   43.6770 C   0  0  0  0  0  3  0  0  0  0  0  0
   39.3280   27.7440   43.0910 N   0  0  0  0  0  0  0  0  0  0  0  0
   38.0690   32.1230   40.7430 C   0  0  0  0  0  0  0  0  0  0  0  0
   37.7910   32.8950   39.7680 O   0  0  0  0  0  0  0  0  0  0  0  0
   38.7860   32.7050   41.3080 H   0  0  0  0  0  0  0  0  0  0  0  0
  1  6  1  0  0  0  0
  2  3  1  0  0  0  0
  2  1  2  0  0  0  0
  3  4  2  0  0  0  0
  4  5  1  0  0  0  0
  5  9  1  0  0  0  0
  6  5  2  0  0  0  0
  7  2  1  0  0  0  0
  8  3  1  0  0  0  0
  9 16  1  0  0  0  0
 10  9  2  0  0  0  0
 10 12  1  0  0  0  0
 11 10  1  0  0  0  0
 12 14  2  0  0  0  0
 13 12  1  0  0  0  0
 14 15  1  0  0  0  0
 16 15  2  0  0  0  0
 17  1  1  0  0  0  0
 17 19  1  0  0  0  0
 18 17  2  0  0  0  0
M  END
>  <minimizedAffinity>
-3.93167114

$$$$

 OpenBabel03252503583D

 19 20  0  0  0  0  0  0  0  0999 V2000
   37.0110   30.2370   38.8450 C   0  0  0  0  0  0  0  0  0  0  0  0
   36.6800   31.1850   39.8090 C   0  0  0  0  0  0  0  0  0  0  0  0
   36.3770   30.6990   41.0960 C   0  0  0  0  0  0  0  0  0  0  0  0
   36.4300   29.3500   41.3040 N   0  0  0  0  0  0  0  0  0  0  0  0
   36.7560   28.4870   40.3360 C   0  0  0  0  0  0  0  0  0  0  0  0
   37.0510   28.9180   39.0940 N   0  0  0  0  0  0  0  0  0  0  0  0
   36.6450   32.2440   39.6210 H   0  0  0  0  0  0  0  0  0  0  0  0
   36.1130   31.3950   41.8810 H   0  0  0  0  0  0  0  0  0  0  0  0
   36.7830   27.0660   40.6630 C   0  0  0  0  0  0  0  0  0  0  0  0
   37.0820   26.5990   41.9230 C   0  0  0  0  0  0  0  0  0  0  0  0
   37.3080   27.3170   42.7120 H   0  0  0  0  0  0  0  0  0  0  0  0
   37.0990   25.2450   42.2020 C   0  0  0  0  0  0  0  0  0  0  0  0
   37.3340   24.8440   43.1980 H   0  0  0  0  0  0  0  0  0  0  0  0
   36.8030   24.3860   41.1590 C   0  0  0  0  0  3  0  0  0  0  0  0
   36.4980   24.8460   39.8780 C   0  0  0  0  0  3  0  0  0  0  0  0
   36.4970   26.1940   39.6650 N   0  0  0  0  0  0  0  0  0  0  0  0
   37.3110   30.7970   37.5460 C   0  0  0  0  0  0  0  0  0  0  0  0
   38.2210   31.6550   37.3050 O   0  0  0  0  0  0  0  0  0  0  0  0
   36.8740   30.6340   36.5680 H   0  0  0  0  0  0  0  0  0  0  0  0
  1  6  2  0  0  0  0
  1  2  1  0  0  0  0
  2  3  2  0  0  0  0
  3  4  1  0  0  0  0
  3  8  1  0  0  0  0
  5  9  1  0  0  0  0
  5  4  2  0  0  0  0
  6  5  1  0  0  0  0
  7  2  1  0  0  0  0
  9 10  1  0  0  0  0
 10 12  2  0  0  0  0
 10 11  1  0  0  0  0
 12 13  1  0  0  0  0
 14 12  1  0  0  0  0
 15 14  2  0  0  0  0
 16 15  1  0  0  0  0
 16  9  2  0  0  0  0
 17  1  1  0  0  0  0
 18 17  2  0  0  0  0
 19 17  1  0  0  0  0
M  END
>  <minimizedAffinity>
-3.90437722

$$$$

 OpenBabel03252503583D

 19 20  0  0  0  0  0  0  0  0999 V2000
   39.8570   31.5120   39.0330 C   0  0  0  0  0  0  0  0  0  0  0  0
   39.7440   32.8500   39.4000 C   0  0  0  0  0  0  0  0  0  0  0  0
   39.0100   33.1240   40.5720 C   0  0  0  0  0  0  0  0  0  0  0  0
   38.4710   32.0720   41.2550 N   0  0  0  0  0  0  0  0  0  0  0  0
   38.6140   30.8050   40.8510 C   0  0  0  0  0  0  0  0  0  0  0  0
   39.3080   30.5070   39.7350 N   0  0  0  0  0  0  0  0  0  0  0  0
   40.1790   33.6630   38.8460 H   0  0  0  0  0  0  0  0  0  0  0  0
   38.8940   34.1480   40.9010 H   0  0  0  0  0  0  0  0  0  0  0  0
   37.9970   29.7550   41.6530 C   0  0  0  0  0  0  0  0  0  0  0  0
   38.3890   29.4760   42.9430 C   0  0  0  0  0  0  0  0  0  0  0  0
   39.1940   30.0630   43.3870 H   0  0  0  0  0  0  0  0  0  0  0  0
   37.7840   28.4730   43.6770 C   0  0  0  0  0  0  0  0  0  0  0  0
   38.0760   28.2290   44.7080 H   0  0  0  0  0  0  0  0  0  0  0  0
   36.7690   27.7660   43.0570 C   0  0  0  0  0  3  0  0  0  0  0  0
   36.3620   28.0380   41.7510 C   0  0  0  0  0  3  0  0  0  0  0  0
   36.9980   29.0400   41.0780 N   0  0  0  0  0  0  0  0  0  0  0  0
   40.6190   31.2950   37.8240 C   0  0  0  0  0  0  0  0  0  0  0  0
   41.0050   32.2060   37.0220 O   0  0  0  0  0  0  0  0  0  0  0  0
   41.0030   30.3940   37.3610 H   0  0  0  0  0  0  0  0  0  0  0  0
  1  2  2  0  0  0  0
  1  6  1  0  0  0  0
  2  3  1  0  0  0  0
  3  8  1  0  0  0  0
  3  4  2  0  0  0  0
  5  4  1  0  0  0  0
  5  9  1  0  0  0  0
  6  5  2  0  0  0  0
  7  2  1  0  0  0  0
  9 10  1  0  0  0  0
 10 11  1  0  0  0  0
 10 12  2  0  0  0  0
 12 13  1  0  0  0  0
 14 12  1  0  0  0  0
 15 14  2  0  0  0  0
 16  9  2  0  0  0  0
 16 15  1  0  0  0  0
 17  1  1  0  0  0  0
 18 17  2  0  0  0  0
 19 17  1  0  0  0  0
M  END
>  <minimizedAffinity>
-3.89564848

$$$$
