
 OpenBabel03252505033D

 33 35  0  0  1  0  0  0  0  0999 V2000
   46.4400   32.9620   46.4650 C   0  0  2  0  0  0  0  0  0  0  0  0
   46.9790   31.7470   45.7860 C   0  0  0  0  0  0  0  0  0  0  0  0
   46.1220   30.5460   45.8130 C   0  0  0  0  0  0  0  0  0  0  0  0
   45.8120   30.2880   47.2810 C   0  0  0  0  0  0  0  0  0  0  0  0
   45.0210   31.3520   47.8850 C   0  0  0  0  0  0  0  0  0  0  0  0
   45.3770   32.7360   47.4330 C   0  0  0  0  0  0  0  0  0  0  0  0
   47.2860   33.4800   46.9600 H   0  0  0  0  0  0  0  0  0  0  0  0
   47.2600   31.9410   44.7250 H   0  0  0  0  0  0  0  0  0  0  0  0
   47.9490   31.4540   46.2710 H   0  0  0  0  0  0  0  0  0  0  0  0
   45.1830   30.6290   45.2280 H   0  0  0  0  0  0  0  0  0  0  0  0
   46.7020   29.6830   45.4530 H   0  0  0  0  0  0  0  0  0  0  0  0
   45.1180   29.4050   47.2480 H   0  0  0  0  0  0  0  0  0  0  0  0
   46.7080   29.9870   47.8200 H   0  0  0  0  0  0  0  0  0  0  0  0
   44.2370   31.3790   48.5810 H   0  0  0  0  0  0  0  0  0  0  0  0
   44.5860   35.5750   44.6190 C   0  0  0  0  0  0  0  0  0  0  0  0
   45.2300   35.5790   43.3600 C   0  0  0  0  0  0  0  0  0  0  0  0
   46.3000   34.6640   43.1770 C   0  0  0  0  0  0  0  0  0  0  0  0
   46.6510   33.8450   44.1980 N   0  0  0  0  0  0  0  0  0  0  0  0
   46.0040   33.8810   45.3850 C   0  0  0  0  0  0  0  0  0  0  0  0
   44.9720   34.7420   45.6010 N   0  0  0  0  0  0  0  0  0  0  0  0
   43.7680   36.2460   44.8140 H   0  0  0  0  0  0  0  0  0  0  0  0
   44.9040   36.2560   42.5840 H   0  0  0  0  0  0  0  0  0  0  0  0
   46.9870   34.6400   41.8910 C   0  0  0  0  0  0  0  0  0  0  0  0
   48.1290   35.3840   41.7610 C   0  0  0  0  0  0  0  0  0  0  0  0
   48.5730   35.9940   42.5370 H   0  0  0  0  0  0  0  0  0  0  0  0
   48.7800   35.3520   40.5230 C   0  0  0  0  0  0  0  0  0  0  0  0
   49.6730   35.8880   40.3080 H   0  0  0  0  0  0  0  0  0  0  0  0
   48.1830   34.5590   39.5520 C   0  0  0  0  0  0  0  0  0  0  0  0
   47.0360   33.8130   39.6800 C   0  0  0  0  0  0  0  0  0  0  0  0
   46.4590   33.8930   40.9160 N   0  0  0  0  0  0  0  0  0  0  0  0
   44.6820   33.8720   47.9360 N   0  0  0  0  0  0  0  0  0  0  0  0
   43.7710   34.3790   47.7380 H   0  0  0  0  0  0  0  0  0  0  0  0
   45.3680   34.1520   48.6690 H   0  0  0  0  0  0  0  0  0  0  0  0
  1  7  1  1  0  0  0
  1  6  1  0  0  0  0
  2  3  1  0  0  0  0
  2  9  1  0  0  0  0
  2  1  1  0  0  0  0
  3  4  1  0  0  0  0
  4 13  1  0  0  0  0
  4  5  1  0  0  0  0
  5 14  1  0  0  0  0
  6  5  2  0  0  0  0
  6 31  1  0  0  0  0
  8  2  1  0  0  0  0
 10  3  1  0  0  0  0
 11  3  1  0  0  0  0
 12  4  1  0  0  0  0
 15 21  1  0  0  0  0
 15 20  1  0  0  0  0
 16 15  2  0  0  0  0
 17 16  1  0  0  0  0
 17 18  2  0  0  0  0
 18 19  1  0  0  0  0
 19 20  2  0  0  0  0
 19  1  1  0  0  0  0
 22 16  1  0  0  0  0
 23 17  1  0  0  0  0
 24 23  1  0  0  0  0
 24 25  1  0  0  0  0
 26 24  2  0  0  0  0
 27 26  1  0  0  0  0
 28 29  2  0  0  0  0
 28 26  1  0  0  0  0
 29 30  1  0  0  0  0
 30 23  2  0  0  0  0
 31 33  1  0  0  0  0
 32 31  1  0  0  0  0
M  END
>  <minimizedAffinity>
-6.8060813

>  <minimizedRMSD>
1.00621307

$$$$
