
 OpenBabel03252501463D

 22 23  0  0  0  0  0  0  0  0999 V2000
   38.3340   27.8170   40.3160 C   0  0  0  0  0  0  0  0  0  0  0  0
   37.4430   27.3400   41.2740 C   0  0  0  0  0  0  0  0  0  0  0  0
   36.7330   28.2780   42.0110 C   0  0  0  0  0  0  0  0  0  0  0  0
   36.9270   29.6040   41.7770 N   0  0  0  0  0  0  0  0  0  0  0  0
   37.8090   30.0260   40.8320 C   0  0  0  0  0  0  0  0  0  0  0  0
   38.5010   29.1290   40.1120 N   0  0  0  0  0  0  0  0  0  0  0  0
   38.8820   27.0530   39.7480 H   0  0  0  0  0  0  0  0  0  0  0  0
   36.0140   28.0150   42.7800 H   0  0  0  0  0  0  0  0  0  0  0  0
   38.0070   31.4520   40.5910 C   0  0  0  0  0  0  0  0  0  0  0  0
   37.1420   32.1300   39.7550 C   0  0  0  0  0  0  0  0  0  0  0  0
   36.3140   31.5940   39.2800 H   0  0  0  0  0  0  0  0  0  0  0  0
   37.2690   33.4860   39.4800 C   0  0  0  0  0  0  0  0  0  0  0  0
   36.5750   34.0030   38.8160 H   0  0  0  0  0  0  0  0  0  0  0  0
   38.3160   34.1550   40.0830 C   0  0  0  0  0  3  0  0  0  0  0  0
   39.1930   33.4770   40.9260 C   0  0  0  0  0  3  0  0  0  0  0  0
   39.0110   32.1620   41.1500 N   0  0  0  0  0  0  0  0  0  0  0  0
   37.2350   25.9290   41.5240 C   0  0  0  0  0  3  0  0  0  0  0  0
   37.7360   24.9270   40.8290 C   0  0  0  0  0  3  0  0  0  0  0  0
   37.4570   23.4930   41.1740 C   0  0  0  0  0  0  0  0  0  0  0  0
   36.4910   23.2350   40.6880 H   0  0  0  0  0  0  0  0  0  0  0  0
   37.4020   23.3380   42.2690 H   0  0  0  0  0  0  0  0  0  0  0  0
   38.2330   22.8490   40.7100 H   0  0  0  0  0  0  0  0  0  0  0  0
  1  2  1  0  0  0  0
  2 17  1  0  0  0  0
  2  3  2  0  0  0  0
  3  8  1  0  0  0  0
  4  3  1  0  0  0  0
  5  4  2  0  0  0  0
  6  1  2  0  0  0  0
  6  5  1  0  0  0  0
  7  1  1  0  0  0  0
  9  5  1  0  0  0  0
  9 16  1  0  0  0  0
 10  9  2  0  0  0  0
 11 10  1  0  0  0  0
 12 10  1  0  0  0  0
 12 14  2  0  0  0  0
 13 12  1  0  0  0  0
 14 15  1  0  0  0  0
 15 16  2  0  0  0  0
 18 19  1  0  0  0  0
 18 17  2  0  0  0  0
 19 21  1  0  0  0  0
 20 19  1  0  0  0  0
 22 19  1  0  0  0  0
M  END
>  <minimizedAffinity>
-4.38297749

$$$$

 OpenBabel03252501463D

 22 23  0  0  0  0  0  0  0  0999 V2000
   38.5040   29.8100   40.0260 C   0  0  0  0  0  0  0  0  0  0  0  0
   37.4780   30.5060   40.6610 C   0  0  0  0  0  0  0  0  0  0  0  0
   36.9050   29.9190   41.7810 C   0  0  0  0  0  0  0  0  0  0  0  0
   37.3550   28.7100   42.2110 N   0  0  0  0  0  0  0  0  0  0  0  0
   38.3600   28.0650   41.5600 C   0  0  0  0  0  0  0  0  0  0  0  0
   38.9220   28.6210   40.4760 N   0  0  0  0  0  0  0  0  0  0  0  0
   38.9380   30.2980   39.1430 H   0  0  0  0  0  0  0  0  0  0  0  0
   36.1010   30.3740   42.3500 H   0  0  0  0  0  0  0  0  0  0  0  0
   38.8340   26.7680   42.0330 C   0  0  0  0  0  0  0  0  0  0  0  0
   39.6130   26.7000   43.1710 C   0  0  0  0  0  0  0  0  0  0  0  0
   39.8690   27.6180   43.7100 H   0  0  0  0  0  0  0  0  0  0  0  0
   40.1000   25.5020   43.6790 C   0  0  0  0  0  0  0  0  0  0  0  0
   40.7140   25.4690   44.5800 H   0  0  0  0  0  0  0  0  0  0  0  0
   39.7730   24.3480   42.9940 C   0  0  0  0  0  3  0  0  0  0  0  0
   38.9880   24.4100   41.8450 C   0  0  0  0  0  3  0  0  0  0  0  0
   38.5490   25.6050   41.4080 N   0  0  0  0  0  0  0  0  0  0  0  0
   36.9970   31.7930   40.2040 C   0  0  0  0  0  3  0  0  0  0  0  0
   37.7340   32.7990   39.7780 C   0  0  0  0  0  3  0  0  0  0  0  0
   37.1330   34.0980   39.3240 C   0  0  0  0  0  0  0  0  0  0  0  0
   36.9780   34.7100   40.2390 H   0  0  0  0  0  0  0  0  0  0  0  0
   36.1770   33.9420   38.7870 H   0  0  0  0  0  0  0  0  0  0  0  0
   37.8690   34.6400   38.6950 H   0  0  0  0  0  0  0  0  0  0  0  0
  1  6  2  0  0  0  0
  1  2  1  0  0  0  0
  2  3  2  0  0  0  0
  3  4  1  0  0  0  0
  3  8  1  0  0  0  0
  5  9  1  0  0  0  0
  5  4  2  0  0  0  0
  6  5  1  0  0  0  0
  7  1  1  0  0  0  0
  9 10  1  0  0  0  0
 10 12  2  0  0  0  0
 10 11  1  0  0  0  0
 12 13  1  0  0  0  0
 14 12  1  0  0  0  0
 15 14  2  0  0  0  0
 16 15  1  0  0  0  0
 16  9  2  0  0  0  0
 17  2  1  0  0  0  0
 18 17  2  0  0  0  0
 19 18  1  0  0  0  0
 19 20  1  0  0  0  0
 21 19  1  0  0  0  0
 22 19  1  0  0  0  0
M  END
>  <minimizedAffinity>
-4.22349834

$$$$

 OpenBabel03252501463D

 22 23  0  0  0  0  0  0  0  0999 V2000
   35.4530   27.6500   38.0000 C   0  0  0  0  0  0  0  0  0  0  0  0
   34.4300   28.5900   38.0950 C   0  0  0  0  0  0  0  0  0  0  0  0
   34.3020   29.2770   39.2930 C   0  0  0  0  0  0  0  0  0  0  0  0
   35.1620   29.0160   40.3140 N   0  0  0  0  0  0  0  0  0  0  0  0
   36.1480   28.0890   40.1780 C   0  0  0  0  0  0  0  0  0  0  0  0
   36.2820   27.4170   39.0240 N   0  0  0  0  0  0  0  0  0  0  0  0
   35.5310   27.1200   37.0400 H   0  0  0  0  0  0  0  0  0  0  0  0
   33.5410   30.0290   39.4730 H   0  0  0  0  0  0  0  0  0  0  0  0
   37.0650   27.8180   41.2820 C   0  0  0  0  0  0  0  0  0  0  0  0
   36.5980   27.8570   42.5810 C   0  0  0  0  0  0  0  0  0  0  0  0
   35.5450   28.0880   42.7740 H   0  0  0  0  0  0  0  0  0  0  0  0
   37.4120   27.6110   43.6800 C   0  0  0  0  0  0  0  0  0  0  0  0
   37.0240   27.6450   44.6990 H   0  0  0  0  0  0  0  0  0  0  0  0
   38.7380   27.3190   43.4290 C   0  0  0  0  0  3  0  0  0  0  0  0
   39.2150   27.2800   42.1210 C   0  0  0  0  0  3  0  0  0  0  0  0
   38.3710   27.5280   41.1020 N   0  0  0  0  0  0  0  0  0  0  0  0
   33.5120   28.8690   37.0090 C   0  0  0  0  0  3  0  0  0  0  0  0
   32.2720   29.2990   37.1220 C   0  0  0  0  0  3  0  0  0  0  0  0
   31.4010   29.5590   35.9260 C   0  0  0  0  0  0  0  0  0  0  0  0
   30.9480   28.5820   35.6500 H   0  0  0  0  0  0  0  0  0  0  0  0
   31.9800   29.9780   35.0810 H   0  0  0  0  0  0  0  0  0  0  0  0
   30.5670   30.2290   36.2220 H   0  0  0  0  0  0  0  0  0  0  0  0
  1  2  2  0  0  0  0
  1  6  1  0  0  0  0
  2  3  1  0  0  0  0
  3  8  1  0  0  0  0
  3  4  2  0  0  0  0
  5  4  1  0  0  0  0
  5  9  1  0  0  0  0
  6  5  2  0  0  0  0
  7  1  1  0  0  0  0
  9 10  1  0  0  0  0
 10 11  1  0  0  0  0
 10 12  2  0  0  0  0
 12 13  1  0  0  0  0
 14 12  1  0  0  0  0
 15 14  2  0  0  0  0
 16  9  2  0  0  0  0
 16 15  1  0  0  0  0
 17 18  2  0  0  0  0
 17  2  1  0  0  0  0
 19 22  1  0  0  0  0
 19 18  1  0  0  0  0
 20 19  1  0  0  0  0
 21 19  1  0  0  0  0
M  END
>  <minimizedAffinity>
-4.21179152

$$$$

 OpenBabel03252501463D

 22 23  0  0  0  0  0  0  0  0999 V2000
   36.3550   27.5170   38.8260 C   0  0  0  0  0  0  0  0  0  0  0  0
   35.4650   28.5000   39.2520 C   0  0  0  0  0  0  0  0  0  0  0  0
   35.5010   28.8560   40.5930 C   0  0  0  0  0  0  0  0  0  0  0  0
   36.3860   28.2480   41.4280 N   0  0  0  0  0  0  0  0  0  0  0  0
   37.2370   27.2930   40.9680 C   0  0  0  0  0  0  0  0  0  0  0  0
   37.2120   26.9380   39.6740 N   0  0  0  0  0  0  0  0  0  0  0  0
   36.3040   27.2540   37.7600 H   0  0  0  0  0  0  0  0  0  0  0  0
   34.8520   29.6090   41.0290 H   0  0  0  0  0  0  0  0  0  0  0  0
   38.1820   26.6470   41.8750 C   0  0  0  0  0  0  0  0  0  0  0  0
   38.8840   27.4130   42.7850 C   0  0  0  0  0  0  0  0  0  0  0  0
   38.7270   28.4950   42.8210 H   0  0  0  0  0  0  0  0  0  0  0  0
   39.7990   26.8680   43.6780 C   0  0  0  0  0  0  0  0  0  0  0  0
   40.3440   27.4900   44.3900 H   0  0  0  0  0  0  0  0  0  0  0  0
   39.9930   25.5010   43.6270 C   0  0  0  0  0  3  0  0  0  0  0  0
   39.2880   24.7250   42.7100 C   0  0  0  0  0  3  0  0  0  0  0  0
   38.4160   25.3180   41.8750 N   0  0  0  0  0  0  0  0  0  0  0  0
   34.5210   29.1490   38.3650 C   0  0  0  0  0  3  0  0  0  0  0  0
   33.5950   28.5570   37.6370 C   0  0  0  0  0  3  0  0  0  0  0  0
   32.6630   29.3260   36.7460 C   0  0  0  0  0  0  0  0  0  0  0  0
   33.2020   29.4780   35.7850 H   0  0  0  0  0  0  0  0  0  0  0  0
   32.3760   30.2970   37.1940 H   0  0  0  0  0  0  0  0  0  0  0  0
   31.7750   28.7010   36.5220 H   0  0  0  0  0  0  0  0  0  0  0  0
  1  2  2  0  0  0  0
  1  6  1  0  0  0  0
  2  3  1  0  0  0  0
  3  8  1  0  0  0  0
  3  4  2  0  0  0  0
  5  4  1  0  0  0  0
  5  9  1  0  0  0  0
  6  5  2  0  0  0  0
  7  1  1  0  0  0  0
  9 10  1  0  0  0  0
 10 11  1  0  0  0  0
 10 12  2  0  0  0  0
 12 13  1  0  0  0  0
 14 12  1  0  0  0  0
 15 14  2  0  0  0  0
 16  9  2  0  0  0  0
 16 15  1  0  0  0  0
 17  2  1  0  0  0  0
 18 17  2  0  0  0  0
 19 21  1  0  0  0  0
 19 18  1  0  0  0  0
 20 19  1  0  0  0  0
 22 19  1  0  0  0  0
M  END
>  <minimizedAffinity>
-4.19224167

$$$$

 OpenBabel03252501463D

 22 23  0  0  0  0  0  0  0  0999 V2000
   37.0750   29.6330   39.2870 C   0  0  0  0  0  0  0  0  0  0  0  0
   36.8990   30.4440   40.4060 C   0  0  0  0  0  0  0  0  0  0  0  0
   36.7640   29.8170   41.6360 C   0  0  0  0  0  0  0  0  0  0  0  0
   36.8060   28.4590   41.7070 N   0  0  0  0  0  0  0  0  0  0  0  0
   36.9790   27.7050   40.5890 C   0  0  0  0  0  0  0  0  0  0  0  0
   37.1110   28.2990   39.3930 N   0  0  0  0  0  0  0  0  0  0  0  0
   37.1790   30.1560   38.3270 H   0  0  0  0  0  0  0  0  0  0  0  0
   36.6240   30.3530   42.5690 H   0  0  0  0  0  0  0  0  0  0  0  0
   37.0220   26.2480   40.6800 C   0  0  0  0  0  0  0  0  0  0  0  0
   37.3260   25.6490   41.8860 C   0  0  0  0  0  0  0  0  0  0  0  0
   37.5310   26.2690   42.7650 H   0  0  0  0  0  0  0  0  0  0  0  0
   37.3860   24.2710   42.0480 C   0  0  0  0  0  0  0  0  0  0  0  0
   37.6270   23.8160   43.0100 H   0  0  0  0  0  0  0  0  0  0  0  0
   37.1260   23.4940   40.9350 C   0  0  0  0  0  3  0  0  0  0  0  0
   36.8200   24.0930   39.7160 C   0  0  0  0  0  3  0  0  0  0  0  0
   36.7780   25.4360   39.6300 N   0  0  0  0  0  0  0  0  0  0  0  0
   36.8540   31.8900   40.3310 C   0  0  0  0  0  3  0  0  0  0  0  0
   37.6660   32.6650   39.6410 C   0  0  0  0  0  3  0  0  0  0  0  0
   37.5320   34.1610   39.6320 C   0  0  0  0  0  0  0  0  0  0  0  0
   38.0770   34.5300   40.5280 H   0  0  0  0  0  0  0  0  0  0  0  0
   36.4720   34.4770   39.6570 H   0  0  0  0  0  0  0  0  0  0  0  0
   38.0580   34.5680   38.7440 H   0  0  0  0  0  0  0  0  0  0  0  0
  1  6  2  0  0  0  0
  1  2  1  0  0  0  0
  2  3  2  0  0  0  0
  3  4  1  0  0  0  0
  3  8  1  0  0  0  0
  5  9  1  0  0  0  0
  5  4  2  0  0  0  0
  6  5  1  0  0  0  0
  7  1  1  0  0  0  0
  9 10  1  0  0  0  0
 10 12  2  0  0  0  0
 10 11  1  0  0  0  0
 12 13  1  0  0  0  0
 14 12  1  0  0  0  0
 15 14  2  0  0  0  0
 16 15  1  0  0  0  0
 16  9  2  0  0  0  0
 17  2  1  0  0  0  0
 18 17  2  0  0  0  0
 19 18  1  0  0  0  0
 19 21  1  0  0  0  0
 19 20  1  0  0  0  0
 22 19  1  0  0  0  0
M  END
>  <minimizedAffinity>
-4.09088898

$$$$

 OpenBabel03252501463D

 22 23  0  0  0  0  0  0  0  0999 V2000
   37.4320   27.7350   41.2660 C   0  0  0  0  0  0  0  0  0  0  0  0
   37.0000   27.0770   40.1160 C   0  0  0  0  0  0  0  0  0  0  0  0
   36.8350   27.8390   38.9680 C   0  0  0  0  0  0  0  0  0  0  0  0
   37.0950   29.1730   39.0020 N   0  0  0  0  0  0  0  0  0  0  0  0
   37.5150   29.7750   40.1460 C   0  0  0  0  0  0  0  0  0  0  0  0
   37.6780   29.0510   41.2640 N   0  0  0  0  0  0  0  0  0  0  0  0
   37.5540   27.1090   42.1590 H   0  0  0  0  0  0  0  0  0  0  0  0
   36.5040   27.4270   38.0200 H   0  0  0  0  0  0  0  0  0  0  0  0
   37.7910   31.2090   40.1690 C   0  0  0  0  0  0  0  0  0  0  0  0
   37.0290   32.0620   39.3950 C   0  0  0  0  0  0  0  0  0  0  0  0
   36.2250   31.6580   38.7710 H   0  0  0  0  0  0  0  0  0  0  0  0
   37.2340   33.4360   39.3650 C   0  0  0  0  0  0  0  0  0  0  0  0
   36.6210   34.0930   38.7470 H   0  0  0  0  0  0  0  0  0  0  0  0
   38.2510   33.9380   40.1540 C   0  0  0  0  0  3  0  0  0  0  0  0
   39.0220   33.0820   40.9360 C   0  0  0  0  0  3  0  0  0  0  0  0
   38.7690   31.7610   40.9180 N   0  0  0  0  0  0  0  0  0  0  0  0
   36.7230   25.6560   40.0780 C   0  0  0  0  0  3  0  0  0  0  0  0
   37.5160   24.6910   40.4990 C   0  0  0  0  0  3  0  0  0  0  0  0
   37.1300   23.2420   40.4140 C   0  0  0  0  0  0  0  0  0  0  0  0
   37.4020   22.9050   39.3900 H   0  0  0  0  0  0  0  0  0  0  0  0
   36.0500   23.0940   40.6040 H   0  0  0  0  0  0  0  0  0  0  0  0
   37.7540   22.6580   41.1220 H   0  0  0  0  0  0  0  0  0  0  0  0
  1  7  1  0  0  0  0
  2  1  2  0  0  0  0
  3  4  2  0  0  0  0
  3  2  1  0  0  0  0
  4  5  1  0  0  0  0
  5  9  1  0  0  0  0
  5  6  2  0  0  0  0
  6  1  1  0  0  0  0
  8  3  1  0  0  0  0
  9 16  1  0  0  0  0
 10  9  2  0  0  0  0
 11 10  1  0  0  0  0
 12 10  1  0  0  0  0
 12 14  2  0  0  0  0
 13 12  1  0  0  0  0
 14 15  1  0  0  0  0
 16 15  2  0  0  0  0
 17  2  1  0  0  0  0
 17 18  2  0  0  0  0
 19 18  1  0  0  0  0
 19 21  1  0  0  0  0
 19 22  1  0  0  0  0
 20 19  1  0  0  0  0
M  END
>  <minimizedAffinity>
-3.94261146

$$$$

 OpenBabel03252501463D

 22 23  0  0  0  0  0  0  0  0999 V2000
   38.0020   28.7970   42.6740 C   0  0  0  0  0  0  0  0  0  0  0  0
   37.9630   27.7530   41.7530 C   0  0  0  0  0  0  0  0  0  0  0  0
   38.3460   28.0350   40.4500 C   0  0  0  0  0  0  0  0  0  0  0  0
   38.7380   29.2960   40.1220 N   0  0  0  0  0  0  0  0  0  0  0  0
   38.7610   30.2860   41.0530 C   0  0  0  0  0  0  0  0  0  0  0  0
   38.3930   30.0260   42.3170 N   0  0  0  0  0  0  0  0  0  0  0  0
   37.6940   28.5460   43.6980 H   0  0  0  0  0  0  0  0  0  0  0  0
   38.3530   27.2960   39.6550 H   0  0  0  0  0  0  0  0  0  0  0  0
   39.1850   31.6340   40.6870 C   0  0  0  0  0  0  0  0  0  0  0  0
   40.4960   31.8600   40.3170 C   0  0  0  0  0  0  0  0  0  0  0  0
   41.2070   31.0280   40.2990 H   0  0  0  0  0  0  0  0  0  0  0  0
   40.9700   33.1150   39.9570 C   0  0  0  0  0  0  0  0  0  0  0  0
   42.0090   33.2730   39.6660 H   0  0  0  0  0  0  0  0  0  0  0  0
   40.0670   34.1610   39.9810 C   0  0  0  0  0  3  0  0  0  0  0  0
   38.7440   33.9390   40.3550 C   0  0  0  0  0  3  0  0  0  0  0  0
   38.3510   32.6970   40.6920 N   0  0  0  0  0  0  0  0  0  0  0  0
   37.5450   26.4100   42.1010 C   0  0  0  0  0  3  0  0  0  0  0  0
   37.3240   25.4160   41.2640 C   0  0  0  0  0  3  0  0  0  0  0  0
   36.8920   24.0560   41.7310 C   0  0  0  0  0  0  0  0  0  0  0  0
   35.7860   24.0990   41.8390 H   0  0  0  0  0  0  0  0  0  0  0  0
   37.3720   23.7800   42.6890 H   0  0  0  0  0  0  0  0  0  0  0  0
   37.1090   23.3130   40.9360 H   0  0  0  0  0  0  0  0  0  0  0  0
  1  7  1  0  0  0  0
  2 17  1  0  0  0  0
  2  1  2  0  0  0  0
  3  2  1  0  0  0  0
  4  3  2  0  0  0  0
  4  5  1  0  0  0  0
  5  6  2  0  0  0  0
  6  1  1  0  0  0  0
  8  3  1  0  0  0  0
  9 16  1  0  0  0  0
  9  5  1  0  0  0  0
 10  9  2  0  0  0  0
 11 10  1  0  0  0  0
 12 14  2  0  0  0  0
 12 10  1  0  0  0  0
 13 12  1  0  0  0  0
 14 15  1  0  0  0  0
 15 16  2  0  0  0  0
 18 19  1  0  0  0  0
 18 17  2  0  0  0  0
 19 20  1  0  0  0  0
 19 21  1  0  0  0  0
 22 19  1  0  0  0  0
M  END
>  <minimizedAffinity>
-3.88230252

$$$$

 OpenBabel03252501463D

 22 23  0  0  0  0  0  0  0  0999 V2000
   35.8780   28.2730   40.0560 C   0  0  0  0  0  0  0  0  0  0  0  0
   35.7270   27.5870   38.8530 C   0  0  0  0  0  0  0  0  0  0  0  0
   36.5410   26.4840   38.6390 C   0  0  0  0  0  0  0  0  0  0  0  0
   37.4400   26.1170   39.5910 N   0  0  0  0  0  0  0  0  0  0  0  0
   37.5550   26.8150   40.7520 C   0  0  0  0  0  0  0  0  0  0  0  0
   36.7740   27.8840   40.9710 N   0  0  0  0  0  0  0  0  0  0  0  0
   35.2210   29.1410   40.1990 H   0  0  0  0  0  0  0  0  0  0  0  0
   36.5050   25.8800   37.7380 H   0  0  0  0  0  0  0  0  0  0  0  0
   38.5240   26.4090   41.7650 C   0  0  0  0  0  0  0  0  0  0  0  0
   38.7790   25.0670   41.9660 C   0  0  0  0  0  0  0  0  0  0  0  0
   38.2540   24.3180   41.3650 H   0  0  0  0  0  0  0  0  0  0  0  0
   39.6870   24.6070   42.9120 C   0  0  0  0  0  0  0  0  0  0  0  0
   39.8740   23.5420   43.0560 H   0  0  0  0  0  0  0  0  0  0  0  0
   40.3460   25.5580   43.6670 C   0  0  0  0  0  3  0  0  0  0  0  0
   40.0920   26.9130   43.4690 C   0  0  0  0  0  3  0  0  0  0  0  0
   39.2000   27.2890   42.5350 N   0  0  0  0  0  0  0  0  0  0  0  0
   34.7700   27.9780   37.8380 C   0  0  0  0  0  3  0  0  0  0  0  0
   33.7470   28.7940   37.9970 C   0  0  0  0  0  3  0  0  0  0  0  0
   32.8110   29.1350   36.8740 C   0  0  0  0  0  0  0  0  0  0  0  0
   32.0500   28.3250   36.8430 H   0  0  0  0  0  0  0  0  0  0  0  0
   33.3430   29.2140   35.9070 H   0  0  0  0  0  0  0  0  0  0  0  0
   32.2720   30.0730   37.1210 H   0  0  0  0  0  0  0  0  0  0  0  0
  1  7  1  0  0  0  0
  1  6  1  0  0  0  0
  2  1  2  0  0  0  0
  3  2  1  0  0  0  0
  3  4  2  0  0  0  0
  4  5  1  0  0  0  0
  5  6  2  0  0  0  0
  5  9  1  0  0  0  0
  8  3  1  0  0  0  0
  9 10  2  0  0  0  0
  9 16  1  0  0  0  0
 10 12  1  0  0  0  0
 11 10  1  0  0  0  0
 12 13  1  0  0  0  0
 12 14  2  0  0  0  0
 15 14  1  0  0  0  0
 16 15  2  0  0  0  0
 17 18  2  0  0  0  0
 17  2  1  0  0  0  0
 19 22  1  0  0  0  0
 19 18  1  0  0  0  0
 20 19  1  0  0  0  0
 21 19  1  0  0  0  0
M  END
>  <minimizedAffinity>
-3.82111263

$$$$

 OpenBabel03252501463D

 22 23  0  0  0  0  0  0  0  0999 V2000
   41.6550   29.4050   36.8640 C   0  0  0  0  0  0  0  0  0  0  0  0
   42.5050   30.4270   36.4480 C   0  0  0  0  0  0  0  0  0  0  0  0
   42.2220   31.7130   36.8860 C   0  0  0  0  0  0  0  0  0  0  0  0
   41.1470   31.9280   37.6900 N   0  0  0  0  0  0  0  0  0  0  0  0
   40.3430   30.9010   38.0730 C   0  0  0  0  0  0  0  0  0  0  0  0
   40.6050   29.6520   37.6560 N   0  0  0  0  0  0  0  0  0  0  0  0
   41.9030   28.3980   36.5030 H   0  0  0  0  0  0  0  0  0  0  0  0
   42.8190   32.5800   36.6210 H   0  0  0  0  0  0  0  0  0  0  0  0
   39.1920   31.1460   38.9370 C   0  0  0  0  0  0  0  0  0  0  0  0
   38.1770   31.9740   38.5020 C   0  0  0  0  0  0  0  0  0  0  0  0
   38.2410   32.4400   37.5130 H   0  0  0  0  0  0  0  0  0  0  0  0
   37.0520   32.2530   39.2690 C   0  0  0  0  0  0  0  0  0  0  0  0
   36.2600   32.9110   38.9080 H   0  0  0  0  0  0  0  0  0  0  0  0
   36.9780   31.6620   40.5160 C   0  0  0  0  0  3  0  0  0  0  0  0
   37.9990   30.8270   40.9600 C   0  0  0  0  0  3  0  0  0  0  0  0
   39.0600   30.5980   40.1650 N   0  0  0  0  0  0  0  0  0  0  0  0
   43.6510   30.1990   35.5910 C   0  0  0  0  0  3  0  0  0  0  0  0
   44.8220   30.7980   35.6730 C   0  0  0  0  0  3  0  0  0  0  0  0
   45.9490   30.4870   34.7300 C   0  0  0  0  0  0  0  0  0  0  0  0
   45.7860   31.1160   33.8280 H   0  0  0  0  0  0  0  0  0  0  0  0
   45.9750   29.4130   34.4620 H   0  0  0  0  0  0  0  0  0  0  0  0
   46.9060   30.8180   35.1840 H   0  0  0  0  0  0  0  0  0  0  0  0
  1  6  1  0  0  0  0
  2  1  2  0  0  0  0
  2  3  1  0  0  0  0
  3  4  2  0  0  0  0
  4  5  1  0  0  0  0
  5  9  1  0  0  0  0
  6  5  2  0  0  0  0
  7  1  1  0  0  0  0
  8  3  1  0  0  0  0
  9 16  1  0  0  0  0
 10  9  2  0  0  0  0
 10 12  1  0  0  0  0
 11 10  1  0  0  0  0
 12 14  2  0  0  0  0
 13 12  1  0  0  0  0
 14 15  1  0  0  0  0
 16 15  2  0  0  0  0
 17 18  2  0  0  0  0
 17  2  1  0  0  0  0
 19 22  1  0  0  0  0
 19 18  1  0  0  0  0
 20 19  1  0  0  0  0
 21 19  1  0  0  0  0
M  END
>  <minimizedAffinity>
-3.80787134

$$$$
