
 OpenBabel03242520153D

 24 26  0  0  0  0  0  0  0  0999 V2000
   45.3480   34.6230   44.3200 C   0  0  0  0  0  0  0  0  0  0  0  0
   46.4340   34.2270   43.5030 C   0  0  0  0  0  0  0  0  0  0  0  0
   47.3550   33.2900   44.0160 C   0  0  0  0  0  0  0  0  0  0  0  0
   47.1420   32.8200   45.2770 N   0  0  0  0  0  0  0  0  0  0  0  0
   46.0820   33.2340   46.0200 C   0  0  0  0  0  0  0  0  0  0  0  0
   45.1990   34.1160   45.5590 N   0  0  0  0  0  0  0  0  0  0  0  0
   46.5600   34.6200   42.5270 H   0  0  0  0  0  0  0  0  0  0  0  0
   45.9880   32.8050   47.0210 H   0  0  0  0  0  0  0  0  0  0  0  0
   44.4040   35.6150   43.7630 C   0  0  0  0  0  0  0  0  0  0  0  0
   45.1080   36.9080   43.2830 C   0  0  0  0  0  0  0  0  0  0  0  0
   44.3940   35.9850   42.3650 C   0  0  0  0  0  0  0  0  0  0  0  0
   43.4880   35.7720   44.3680 H   0  0  0  0  0  0  0  0  0  0  0  0
   46.1920   36.9520   43.3520 H   0  0  0  0  0  0  0  0  0  0  0  0
   44.5960   37.8590   43.5890 H   0  0  0  0  0  0  0  0  0  0  0  0
   43.4720   36.3370   41.8690 H   0  0  0  0  0  0  0  0  0  0  0  0
   45.0590   35.4560   41.6280 H   0  0  0  0  0  0  0  0  0  0  0  0
   48.4770   32.8750   43.1840 C   0  0  0  0  0  0  0  0  0  0  0  0
   49.3820   33.8290   42.7690 C   0  0  0  0  0  0  0  0  0  0  0  0
   49.2970   34.8730   43.0340 H   0  0  0  0  0  0  0  0  0  0  0  0
   50.4060   33.3410   41.9890 C   0  0  0  0  0  0  0  0  0  0  0  0
   51.1770   33.9940   41.6050 H   0  0  0  0  0  0  0  0  0  0  0  0
   50.4970   32.0200   41.6660 C   0  0  0  0  0  0  0  0  0  0  0  0
   49.5650   31.0820   42.1010 C   0  0  0  0  0  0  0  0  0  0  0  0
   48.5550   31.5790   42.8740 N   0  0  0  0  0  0  0  0  0  0  0  0
  1  6  1  0  0  0  0
  2  3  1  0  0  0  0
  2  1  2  0  0  0  0
  3  4  2  0  0  0  0
  4  5  1  0  0  0  0
  5  8  1  0  0  0  0
  6  5  2  0  0  0  0
  7  2  1  0  0  0  0
  9  1  1  0  0  0  0
  9 12  1  0  0  0  0
 10 13  1  0  0  0  0
 10 14  1  0  0  0  0
 10  9  1  0  0  0  0
 11 10  1  0  0  0  0
 11  9  1  0  0  0  0
 15 11  1  0  0  0  0
 16 11  1  0  0  0  0
 17  3  1  0  0  0  0
 18 19  1  0  0  0  0
 18 17  2  0  0  0  0
 20 18  1  0  0  0  0
 21 20  1  0  0  0  0
 22 20  2  0  0  0  0
 22 23  1  0  0  0  0
 23 24  2  0  0  0  0
 24 17  1  0  0  0  0
M  END
>  <minimizedAffinity>
-4.16494465

>  <minimizedRMSD>
1.39797437

$$$$
