
 OpenBabel03242511593D

 40 43  0  0  1  0  0  0  0  0999 V2000
   36.9260   28.8220   37.0500 C   0  0  2  0  0  0  0  0  0  0  0  0
   36.9300   28.8250   35.5630 C   0  0  0  0  0  0  0  0  0  0  0  0
   35.7770   29.5470   34.9730 C   0  0  0  0  0  0  0  0  0  0  0  0
   34.4430   29.0490   35.4820 C   0  0  0  0  0  0  0  0  0  0  0  0
   34.4320   28.7540   36.9560 C   0  0  0  0  0  0  0  0  0  0  0  0
   35.6390   29.2880   37.6700 C   0  0  1  0  0  0  0  0  0  0  0  0
   37.1150   27.7510   37.3600 H   0  0  0  0  0  0  0  0  0  0  0  0
   37.8600   29.3370   35.2370 H   0  0  0  0  0  0  0  0  0  0  0  0
   36.9700   27.8130   35.1240 H   0  0  0  0  0  0  0  0  0  0  0  0
   35.7790   29.3820   33.8700 H   0  0  0  0  0  0  0  0  0  0  0  0
   35.7940   30.6360   35.1320 H   0  0  0  0  0  0  0  0  0  0  0  0
   33.6930   29.8200   35.1740 H   0  0  0  0  0  0  0  0  0  0  0  0
   34.1670   28.1230   34.9260 H   0  0  0  0  0  0  0  0  0  0  0  0
   33.5600   29.3350   37.3760 H   0  0  0  0  0  0  0  0  0  0  0  0
   34.2070   27.7040   37.2070 H   0  0  0  0  0  0  0  0  0  0  0  0
   35.5470   30.3770   37.7740 H   0  0  0  0  0  0  0  0  0  0  0  0
   38.0420   29.6020   37.6220 C   0  0  0  0  0  0  0  0  0  0  0  0
   37.9590   30.9770   37.4040 C   0  0  0  0  0  0  0  0  0  0  0  0
   38.9540   31.8290   37.9050 C   0  0  0  0  0  0  0  0  0  0  0  0
   39.9820   31.2080   38.6050 N   0  0  0  0  0  0  0  0  0  0  0  0
   40.0280   29.8720   38.7960 C   0  0  0  0  0  0  0  0  0  0  0  0
   39.0540   29.0850   38.3000 N   0  0  0  0  0  0  0  0  0  0  0  0
   37.2610   31.6140   36.8860 H   0  0  0  0  0  0  0  0  0  0  0  0
   39.0370   32.8920   37.8270 H   0  0  0  0  0  0  0  0  0  0  0  0
   40.8560   29.4530   39.3500 H   0  0  0  0  0  0  0  0  0  0  0  0
   35.6110   28.7400   39.0810 C   0  0  2  0  0  0  0  0  0  0  0  0
   34.5380   29.2360   40.0190 C   0  0  0  0  0  0  0  0  0  0  0  0
   35.9600   29.5980   40.2360 C   0  0  1  0  0  0  0  0  0  0  0  0
   35.8970   27.6690   39.1420 H   0  0  0  0  0  0  0  0  0  0  0  0
   34.1090   28.4640   40.7100 H   0  0  0  0  0  0  0  0  0  0  0  0
   33.7970   29.9650   39.6450 H   0  0  0  0  0  0  0  0  0  0  0  0
   36.1630   30.6790   40.0380 H   0  0  0  0  0  0  0  0  0  0  0  0
   36.6300   29.0700   41.4330 C   0  0  0  0  0  0  0  0  0  0  0  0
   36.2290   27.8490   41.9150 C   0  0  0  0  0  0  0  0  0  0  0  0
   35.4450   27.2310   41.4730 H   0  0  0  0  0  0  0  0  0  0  0  0
   36.8170   27.2810   43.0450 C   0  0  0  0  0  0  0  0  0  0  0  0
   36.5200   26.3220   43.4430 H   0  0  0  0  0  0  0  0  0  0  0  0
   37.8300   28.0380   43.6450 C   0  0  0  0  0  3  0  0  0  0  0  0
   38.2390   29.2680   43.1680 C   0  0  0  0  0  3  0  0  0  0  0  0
   37.6190   29.7460   42.0690 N   0  0  0  0  0  0  0  0  0  0  0  0
  1  7  1  1  0  0  0
  1 17  1  0  0  0  0
  1  6  1  0  0  0  0
  2  1  1  0  0  0  0
  3 11  1  0  0  0  0
  3  4  1  0  0  0  0
  3  2  1  0  0  0  0
  4  5  1  0  0  0  0
  5 15  1  0  0  0  0
  5 14  1  0  0  0  0
  5  6  1  0  0  0  0
  6 16  1  1  0  0  0
  6 26  1  0  0  0  0
  8  2  1  0  0  0  0
  9  2  1  0  0  0  0
 10  3  1  0  0  0  0
 12  4  1  0  0  0  0
 13  4  1  0  0  0  0
 17 22  1  0  0  0  0
 18 17  2  0  0  0  0
 18 19  1  0  0  0  0
 19 20  2  0  0  0  0
 20 21  1  0  0  0  0
 21 25  1  0  0  0  0
 22 21  2  0  0  0  0
 23 18  1  0  0  0  0
 24 19  1  0  0  0  0
 26 29  1  1  0  0  0
 26 27  1  0  0  0  0
 26 28  1  0  0  0  0
 27 28  1  0  0  0  0
 27 30  1  0  0  0  0
 28 32  1  6  0  0  0
 28 33  1  0  0  0  0
 31 27  1  0  0  0  0
 33 34  2  0  0  0  0
 33 40  1  0  0  0  0
 34 36  1  0  0  0  0
 35 34  1  0  0  0  0
 36 37  1  0  0  0  0
 36 38  2  0  0  0  0
 39 38  1  0  0  0  0
 40 39  2  0  0  0  0
M  END
>  <minimizedAffinity>
-5.4877696

$$$$

 OpenBabel03242511593D

 40 43  0  0  1  0  0  0  0  0999 V2000
   37.3390   26.6830   39.7010 C   0  0  2  0  0  0  0  0  0  0  0  0
   37.1650   25.2440   39.3680 C   0  0  0  0  0  0  0  0  0  0  0  0
   36.4100   24.4890   40.3980 C   0  0  0  0  0  0  0  0  0  0  0  0
   36.9980   24.6280   41.7840 C   0  0  0  0  0  0  0  0  0  0  0  0
   37.4620   26.0210   42.1050 C   0  0  0  0  0  0  0  0  0  0  0  0
   36.9820   27.0420   41.1150 C   0  0  1  0  0  0  0  0  0  0  0  0
   38.4330   26.9110   39.5300 H   0  0  0  0  0  0  0  0  0  0  0  0
   36.5940   25.1930   38.4170 H   0  0  0  0  0  0  0  0  0  0  0  0
   38.1180   24.7200   39.1790 H   0  0  0  0  0  0  0  0  0  0  0  0
   36.4460   23.4040   40.1430 H   0  0  0  0  0  0  0  0  0  0  0  0
   35.3460   24.7630   40.4720 H   0  0  0  0  0  0  0  0  0  0  0  0
   36.2170   24.2420   42.4850 H   0  0  0  0  0  0  0  0  0  0  0  0
   37.8610   23.9280   41.8810 H   0  0  0  0  0  0  0  0  0  0  0  0
   36.9560   26.2930   43.0770 H   0  0  0  0  0  0  0  0  0  0  0  0
   38.5390   26.1010   42.3250 H   0  0  0  0  0  0  0  0  0  0  0  0
   35.9150   27.2380   41.2840 H   0  0  0  0  0  0  0  0  0  0  0  0
   36.6010   27.5720   38.7810 C   0  0  0  0  0  0  0  0  0  0  0  0
   37.4040   28.2500   37.8630 C   0  0  0  0  0  0  0  0  0  0  0  0
   36.8210   29.1180   36.9290 C   0  0  0  0  0  0  0  0  0  0  0  0
   35.4380   29.2370   36.9960 N   0  0  0  0  0  0  0  0  0  0  0  0
   34.6940   28.5630   37.9000 C   0  0  0  0  0  0  0  0  0  0  0  0
   35.2880   27.7370   38.7830 N   0  0  0  0  0  0  0  0  0  0  0  0
   38.4650   28.2890   37.6790 H   0  0  0  0  0  0  0  0  0  0  0  0
   37.2890   29.7050   36.1670 H   0  0  0  0  0  0  0  0  0  0  0  0
   33.6220   28.7010   37.9000 H   0  0  0  0  0  0  0  0  0  0  0  0
   37.6890   28.3440   41.4270 C   0  0  2  0  0  0  0  0  0  0  0  0
   37.3640   29.0400   42.7250 C   0  0  0  0  0  0  0  0  0  0  0  0
   36.9520   29.6280   41.4270 C   0  0  1  0  0  0  0  0  0  0  0  0
   38.7430   28.3650   41.0770 H   0  0  0  0  0  0  0  0  0  0  0  0
   38.2330   29.5280   43.2390 H   0  0  0  0  0  0  0  0  0  0  0  0
   36.6380   28.5740   43.4150 H   0  0  0  0  0  0  0  0  0  0  0  0
   35.8460   29.5920   41.2700 H   0  0  0  0  0  0  0  0  0  0  0  0
   37.5780   30.8920   41.0130 C   0  0  0  0  0  0  0  0  0  0  0  0
   36.8940   31.6960   40.1350 C   0  0  0  0  0  0  0  0  0  0  0  0
   35.9120   31.4690   39.7170 H   0  0  0  0  0  0  0  0  0  0  0  0
   37.4210   32.9100   39.6960 C   0  0  0  0  0  0  0  0  0  0  0  0
   36.9030   33.5610   39.0070 H   0  0  0  0  0  0  0  0  0  0  0  0
   38.6810   33.2440   40.2080 C   0  0  0  0  0  3  0  0  0  0  0  0
   39.3760   32.4410   41.0910 C   0  0  0  0  0  3  0  0  0  0  0  0
   38.7950   31.2820   41.4660 N   0  0  0  0  0  0  0  0  0  0  0  0
  1  7  1  6  0  0  0
  1  6  1  0  0  0  0
  2  1  1  0  0  0  0
  2  3  1  0  0  0  0
  3 11  1  0  0  0  0
  3  4  1  0  0  0  0
  4 13  1  0  0  0  0
  4  5  1  0  0  0  0
  4 12  1  0  0  0  0
  5 15  1  0  0  0  0
  5 14  1  0  0  0  0
  6 16  1  1  0  0  0
  6 26  1  0  0  0  0
  6  5  1  0  0  0  0
  8  2  1  0  0  0  0
  9  2  1  0  0  0  0
 10  3  1  0  0  0  0
 17 22  1  0  0  0  0
 17  1  1  0  0  0  0
 18 17  2  0  0  0  0
 19 20  2  0  0  0  0
 19 18  1  0  0  0  0
 20 21  1  0  0  0  0
 21 22  2  0  0  0  0
 23 18  1  0  0  0  0
 24 19  1  0  0  0  0
 25 21  1  0  0  0  0
 26 29  1  6  0  0  0
 26 28  1  0  0  0  0
 26 27  1  0  0  0  0
 27 30  1  0  0  0  0
 27 31  1  0  0  0  0
 28 32  1  6  0  0  0
 28 27  1  0  0  0  0
 33 28  1  0  0  0  0
 33 40  1  0  0  0  0
 34 33  2  0  0  0  0
 35 34  1  0  0  0  0
 36 34  1  0  0  0  0
 36 38  2  0  0  0  0
 37 36  1  0  0  0  0
 38 39  1  0  0  0  0
 39 40  2  0  0  0  0
M  END
>  <minimizedAffinity>
-5.31478596

$$$$

 OpenBabel03242511593D

 40 43  0  0  1  0  0  0  0  0999 V2000
   37.0080   26.1200   41.4580 C   0  0  2  0  0  0  0  0  0  0  0  0
   36.9720   24.8120   42.1640 C   0  0  0  0  0  0  0  0  0  0  0  0
   37.3040   23.6610   41.2890 C   0  0  0  0  0  0  0  0  0  0  0  0
   36.4460   23.5980   40.0450 C   0  0  0  0  0  0  0  0  0  0  0  0
   36.2010   24.9390   39.4120 C   0  0  0  0  0  0  0  0  0  0  0  0
   37.0880   26.0180   39.9620 C   0  0  1  0  0  0  0  0  0  0  0  0
   36.0500   26.6520   41.7390 H   0  0  0  0  0  0  0  0  0  0  0  0
   37.7280   24.8550   42.9770 H   0  0  0  0  0  0  0  0  0  0  0  0
   36.0060   24.6080   42.6580 H   0  0  0  0  0  0  0  0  0  0  0  0
   37.1170   22.7180   41.8530 H   0  0  0  0  0  0  0  0  0  0  0  0
   38.3530   23.6320   40.9570 H   0  0  0  0  0  0  0  0  0  0  0  0
   36.9520   22.8670   39.3650 H   0  0  0  0  0  0  0  0  0  0  0  0
   35.4660   23.1360   40.3060 H   0  0  0  0  0  0  0  0  0  0  0  0
   36.5090   24.8260   38.3320 H   0  0  0  0  0  0  0  0  0  0  0  0
   35.1400   25.2310   39.3650 H   0  0  0  0  0  0  0  0  0  0  0  0
   38.1040   25.8910   39.5630 H   0  0  0  0  0  0  0  0  0  0  0  0
   38.0990   26.9940   41.9370 C   0  0  0  0  0  0  0  0  0  0  0  0
   37.6770   28.0830   42.6980 C   0  0  0  0  0  0  0  0  0  0  0  0
   38.6180   28.9830   43.2190 C   0  0  0  0  0  0  0  0  0  0  0  0
   39.9470   28.7040   42.9210 N   0  0  0  0  0  0  0  0  0  0  0  0
   40.3170   27.6370   42.1800 C   0  0  0  0  0  0  0  0  0  0  0  0
   39.3850   26.7940   41.6960 N   0  0  0  0  0  0  0  0  0  0  0  0
   36.7140   28.4540   43.0090 H   0  0  0  0  0  0  0  0  0  0  0  0
   38.4620   29.8570   43.8150 H   0  0  0  0  0  0  0  0  0  0  0  0
   41.3690   27.4780   41.9850 H   0  0  0  0  0  0  0  0  0  0  0  0
   36.5950   27.3370   39.4070 C   0  0  2  0  0  0  0  0  0  0  0  0
   36.3990   27.4560   37.9160 C   0  0  0  0  0  0  0  0  0  0  0  0
   37.4850   28.2010   38.5980 C   0  0  1  0  0  0  0  0  0  0  0  0
   35.8620   27.8440   40.0680 H   0  0  0  0  0  0  0  0  0  0  0  0
   35.5080   28.0570   37.5950 H   0  0  0  0  0  0  0  0  0  0  0  0
   36.6010   26.5770   37.2780 H   0  0  0  0  0  0  0  0  0  0  0  0
   38.5000   27.8080   38.3440 H   0  0  0  0  0  0  0  0  0  0  0  0
   37.3980   29.6680   38.6320 C   0  0  0  0  0  0  0  0  0  0  0  0
   36.9770   30.2660   39.7940 C   0  0  0  0  0  0  0  0  0  0  0  0
   36.7000   29.7320   40.7050 H   0  0  0  0  0  0  0  0  0  0  0  0
   36.8700   31.6520   39.9040 C   0  0  0  0  0  0  0  0  0  0  0  0
   36.5420   32.1460   40.8060 H   0  0  0  0  0  0  0  0  0  0  0  0
   37.2160   32.3790   38.7590 C   0  0  0  0  0  3  0  0  0  0  0  0
   37.6400   31.7860   37.5860 C   0  0  0  0  0  3  0  0  0  0  0  0
   37.7170   30.4380   37.5620 N   0  0  0  0  0  0  0  0  0  0  0  0
  1  7  1  1  0  0  0
  1 17  1  0  0  0  0
  1  2  1  0  0  0  0
  2  9  1  0  0  0  0
  2  8  1  0  0  0  0
  3 10  1  0  0  0  0
  3  2  1  0  0  0  0
  4 13  1  0  0  0  0
  4  3  1  0  0  0  0
  5  6  1  0  0  0  0
  5  4  1  0  0  0  0
  6 16  1  6  0  0  0
  6  1  1  0  0  0  0
 11  3  1  0  0  0  0
 12  4  1  0  0  0  0
 14  5  1  0  0  0  0
 15  5  1  0  0  0  0
 17 18  1  0  0  0  0
 18 23  1  0  0  0  0
 18 19  2  0  0  0  0
 19 24  1  0  0  0  0
 20 19  1  0  0  0  0
 21 20  2  0  0  0  0
 22 17  2  0  0  0  0
 22 21  1  0  0  0  0
 25 21  1  0  0  0  0
 26  6  1  0  0  0  0
 26 29  1  1  0  0  0
 27 28  1  0  0  0  0
 27 26  1  0  0  0  0
 28 32  1  6  0  0  0
 28 33  1  0  0  0  0
 28 26  1  0  0  0  0
 30 27  1  0  0  0  0
 31 27  1  0  0  0  0
 33 34  1  0  0  0  0
 34 36  2  0  0  0  0
 34 35  1  0  0  0  0
 36 37  1  0  0  0  0
 38 36  1  0  0  0  0
 39 38  2  0  0  0  0
 40 39  1  0  0  0  0
 40 33  2  0  0  0  0
M  END
>  <minimizedAffinity>
-5.3085928

$$$$

 OpenBabel03242511593D

 40 43  0  0  1  0  0  0  0  0999 V2000
   37.5280   26.7700   39.6770 C   0  0  2  0  0  0  0  0  0  0  0  0
   37.3800   25.3190   39.3830 C   0  0  0  0  0  0  0  0  0  0  0  0
   36.5450   24.6000   40.3760 C   0  0  0  0  0  0  0  0  0  0  0  0
   37.0210   24.7900   41.7990 C   0  0  0  0  0  0  0  0  0  0  0  0
   37.4580   26.1950   42.1060 C   0  0  0  0  0  0  0  0  0  0  0  0
   37.0590   27.1780   41.0440 C   0  0  1  0  0  0  0  0  0  0  0  0
   38.6320   26.9940   39.5850 H   0  0  0  0  0  0  0  0  0  0  0  0
   36.8860   25.2330   38.3920 H   0  0  0  0  0  0  0  0  0  0  0  0
   38.3450   24.7910   39.2900 H   0  0  0  0  0  0  0  0  0  0  0  0
   36.6010   23.5070   40.1640 H   0  0  0  0  0  0  0  0  0  0  0  0
   35.4790   24.8740   40.3550 H   0  0  0  0  0  0  0  0  0  0  0  0
   36.1860   24.4270   42.4490 H   0  0  0  0  0  0  0  0  0  0  0  0
   37.8730   24.0970   41.9890 H   0  0  0  0  0  0  0  0  0  0  0  0
   36.8760   26.5010   43.0240 H   0  0  0  0  0  0  0  0  0  0  0  0
   38.5140   26.2860   42.4080 H   0  0  0  0  0  0  0  0  0  0  0  0
   35.9820   27.3780   41.1200 H   0  0  0  0  0  0  0  0  0  0  0  0
   36.8660   27.6230   38.6690 C   0  0  0  0  0  0  0  0  0  0  0  0
   35.4730   27.5400   38.6660 C   0  0  0  0  0  0  0  0  0  0  0  0
   34.7270   28.3090   37.7610 C   0  0  0  0  0  0  0  0  0  0  0  0
   35.4660   29.1220   36.9090 N   0  0  0  0  0  0  0  0  0  0  0  0
   36.8150   29.1750   36.9430 C   0  0  0  0  0  0  0  0  0  0  0  0
   37.4990   28.4220   37.8250 N   0  0  0  0  0  0  0  0  0  0  0  0
   34.7540   26.9700   39.2290 H   0  0  0  0  0  0  0  0  0  0  0  0
   33.6670   28.3620   37.6310 H   0  0  0  0  0  0  0  0  0  0  0  0
   37.3280   29.8290   36.2510 H   0  0  0  0  0  0  0  0  0  0  0  0
   37.7400   28.4920   41.3640 C   0  0  2  0  0  0  0  0  0  0  0  0
   37.3760   29.1910   42.6510 C   0  0  0  0  0  0  0  0  0  0  0  0
   36.9840   29.7650   41.3400 C   0  0  1  0  0  0  0  0  0  0  0  0
   38.8000   28.5270   41.0380 H   0  0  0  0  0  0  0  0  0  0  0  0
   38.2250   29.6950   43.1810 H   0  0  0  0  0  0  0  0  0  0  0  0
   36.6420   28.7180   43.3270 H   0  0  0  0  0  0  0  0  0  0  0  0
   35.8830   29.7120   41.1600 H   0  0  0  0  0  0  0  0  0  0  0  0
   37.6000   31.0370   40.9340 C   0  0  0  0  0  0  0  0  0  0  0  0
   36.9050   31.8460   40.0700 C   0  0  0  0  0  0  0  0  0  0  0  0
   35.9190   31.6180   39.6580 H   0  0  0  0  0  0  0  0  0  0  0  0
   37.4220   33.0670   39.6380 C   0  0  0  0  0  0  0  0  0  0  0  0
   36.8950   33.7210   38.9600 H   0  0  0  0  0  0  0  0  0  0  0  0
   38.6840   33.4020   40.1420 C   0  0  0  0  0  3  0  0  0  0  0  0
   39.3910   32.5930   41.0100 C   0  0  0  0  0  3  0  0  0  0  0  0
   38.8190   31.4270   41.3800 N   0  0  0  0  0  0  0  0  0  0  0  0
  1  7  1  6  0  0  0
  1  6  1  0  0  0  0
  2  1  1  0  0  0  0
  2  3  1  0  0  0  0
  3  4  1  0  0  0  0
  4 13  1  0  0  0  0
  4  5  1  0  0  0  0
  4 12  1  0  0  0  0
  5 15  1  0  0  0  0
  5 14  1  0  0  0  0
  6 16  1  6  0  0  0
  6 26  1  0  0  0  0
  6  5  1  0  0  0  0
  8  2  1  0  0  0  0
  9  2  1  0  0  0  0
 10  3  1  0  0  0  0
 11  3  1  0  0  0  0
 17  1  1  0  0  0  0
 18 17  1  0  0  0  0
 18 23  1  0  0  0  0
 19 18  2  0  0  0  0
 20 21  2  0  0  0  0
 20 19  1  0  0  0  0
 21 22  1  0  0  0  0
 22 17  2  0  0  0  0
 24 19  1  0  0  0  0
 25 21  1  0  0  0  0
 26 29  1  6  0  0  0
 26 27  1  0  0  0  0
 27 30  1  0  0  0  0
 27 31  1  0  0  0  0
 28 32  1  6  0  0  0
 28 26  1  0  0  0  0
 28 27  1  0  0  0  0
 33 28  1  0  0  0  0
 33 40  1  0  0  0  0
 34 33  2  0  0  0  0
 35 34  1  0  0  0  0
 36 34  1  0  0  0  0
 36 38  2  0  0  0  0
 37 36  1  0  0  0  0
 38 39  1  0  0  0  0
 39 40  2  0  0  0  0
M  END
>  <minimizedAffinity>
-5.29511595

$$$$

 OpenBabel03242511593D

 40 43  0  0  1  0  0  0  0  0999 V2000
   37.7120   29.6980   41.9540 C   0  0  2  0  0  0  0  0  0  0  0  0
   38.1030   29.1800   43.2920 C   0  0  0  0  0  0  0  0  0  0  0  0
   38.3660   27.7200   43.3050 C   0  0  0  0  0  0  0  0  0  0  0  0
   37.2160   26.9070   42.7550 C   0  0  0  0  0  0  0  0  0  0  0  0
   36.5750   27.5140   41.5390 C   0  0  0  0  0  0  0  0  0  0  0  0
   37.3820   28.6330   40.9470 C   0  0  1  0  0  0  0  0  0  0  0  0
   36.7960   30.3390   42.1230 H   0  0  0  0  0  0  0  0  0  0  0  0
   39.0390   29.7010   43.5860 H   0  0  0  0  0  0  0  0  0  0  0  0
   37.3660   29.4090   44.0820 H   0  0  0  0  0  0  0  0  0  0  0  0
   38.5120   27.3930   44.3610 H   0  0  0  0  0  0  0  0  0  0  0  0
   39.2670   27.4180   42.7500 H   0  0  0  0  0  0  0  0  0  0  0  0
   37.6260   25.8810   42.5810 H   0  0  0  0  0  0  0  0  0  0  0  0
   36.4440   26.7900   43.5500 H   0  0  0  0  0  0  0  0  0  0  0  0
   36.5790   26.7010   40.7550 H   0  0  0  0  0  0  0  0  0  0  0  0
   35.5100   27.7660   41.6650 H   0  0  0  0  0  0  0  0  0  0  0  0
   38.2490   28.2150   40.4190 H   0  0  0  0  0  0  0  0  0  0  0  0
   38.7270   30.6030   41.3770 C   0  0  0  0  0  0  0  0  0  0  0  0
   39.8990   29.9690   40.9630 C   0  0  0  0  0  0  0  0  0  0  0  0
   40.9370   30.7190   40.3890 C   0  0  0  0  0  0  0  0  0  0  0  0
   40.7030   32.0840   40.2770 N   0  0  0  0  0  0  0  0  0  0  0  0
   39.5540   32.6610   40.6900 C   0  0  0  0  0  0  0  0  0  0  0  0
   38.5790   31.9100   41.2370 N   0  0  0  0  0  0  0  0  0  0  0  0
   40.2490   28.9510   40.9850 H   0  0  0  0  0  0  0  0  0  0  0  0
   41.8860   30.3910   40.0240 H   0  0  0  0  0  0  0  0  0  0  0  0
   39.4360   33.7300   40.5740 H   0  0  0  0  0  0  0  0  0  0  0  0
   36.5330   29.2890   39.8790 C   0  0  2  0  0  0  0  0  0  0  0  0
   35.0750   29.5360   40.1770 C   0  0  0  0  0  0  0  0  0  0  0  0
   35.4810   28.5270   39.1700 C   0  0  1  0  0  0  0  0  0  0  0  0
   37.0800   30.0600   39.2970 H   0  0  0  0  0  0  0  0  0  0  0  0
   34.6580   30.4980   39.7800 H   0  0  0  0  0  0  0  0  0  0  0  0
   34.6750   29.2500   41.1670 H   0  0  0  0  0  0  0  0  0  0  0  0
   35.2820   27.4800   39.5060 H   0  0  0  0  0  0  0  0  0  0  0  0
   35.1400   28.7820   37.7620 C   0  0  0  0  0  0  0  0  0  0  0  0
   33.8170   28.7440   37.3990 C   0  0  0  0  0  0  0  0  0  0  0  0
   32.9880   28.5390   38.0810 H   0  0  0  0  0  0  0  0  0  0  0  0
   33.4140   28.9750   36.0850 C   0  0  0  0  0  0  0  0  0  0  0  0
   32.3800   28.9520   35.7740 H   0  0  0  0  0  0  0  0  0  0  0  0
   34.4430   29.2440   35.1740 C   0  0  0  0  0  3  0  0  0  0  0  0
   35.7770   29.2840   35.5310 C   0  0  0  0  0  3  0  0  0  0  0  0
   36.0820   29.0490   36.8250 N   0  0  0  0  0  0  0  0  0  0  0  0
  1  7  1  1  0  0  0
  1  2  1  0  0  0  0
  2  3  1  0  0  0  0
  2  8  1  0  0  0  0
  2  9  1  0  0  0  0
  3 10  1  0  0  0  0
  4  3  1  0  0  0  0
  4 13  1  0  0  0  0
  5 15  1  0  0  0  0
  5  4  1  0  0  0  0
  6 16  1  6  0  0  0
  6  5  1  0  0  0  0
  6  1  1  0  0  0  0
 11  3  1  0  0  0  0
 12  4  1  0  0  0  0
 14  5  1  0  0  0  0
 17  1  1  0  0  0  0
 18 23  1  0  0  0  0
 18 17  2  0  0  0  0
 19 18  1  0  0  0  0
 20 19  2  0  0  0  0
 20 21  1  0  0  0  0
 21 22  2  0  0  0  0
 22 17  1  0  0  0  0
 24 19  1  0  0  0  0
 25 21  1  0  0  0  0
 26 29  1  6  0  0  0
 26 27  1  0  0  0  0
 26  6  1  0  0  0  0
 27 31  1  0  0  0  0
 28 32  1  1  0  0  0
 28 26  1  0  0  0  0
 28 27  1  0  0  0  0
 30 27  1  0  0  0  0
 33 28  1  0  0  0  0
 34 33  1  0  0  0  0
 34 35  1  0  0  0  0
 36 34  2  0  0  0  0
 37 36  1  0  0  0  0
 38 39  2  0  0  0  0
 38 36  1  0  0  0  0
 39 40  1  0  0  0  0
 40 33  2  0  0  0  0
M  END
>  <minimizedAffinity>
-5.20905066

$$$$

 OpenBabel03242511593D

 40 43  0  0  1  0  0  0  0  0999 V2000
   37.8150   27.1230   42.4590 C   0  0  2  0  0  0  0  0  0  0  0  0
   38.6630   27.0510   43.6790 C   0  0  0  0  0  0  0  0  0  0  0  0
   39.8310   26.1480   43.5310 C   0  0  0  0  0  0  0  0  0  0  0  0
   39.4480   24.7530   43.0890 C   0  0  0  0  0  0  0  0  0  0  0  0
   38.3780   24.7280   42.0340 C   0  0  0  0  0  0  0  0  0  0  0  0
   38.1210   26.0760   41.4260 C   0  0  1  0  0  0  0  0  0  0  0  0
   36.7490   26.9890   42.8130 H   0  0  0  0  0  0  0  0  0  0  0  0
   39.0440   28.0760   43.8760 H   0  0  0  0  0  0  0  0  0  0  0  0
   38.1040   26.7550   44.5840 H   0  0  0  0  0  0  0  0  0  0  0  0
   40.3280   26.0420   44.5240 H   0  0  0  0  0  0  0  0  0  0  0  0
   40.5970   26.5080   42.8280 H   0  0  0  0  0  0  0  0  0  0  0  0
   40.4020   24.2630   42.7720 H   0  0  0  0  0  0  0  0  0  0  0  0
   39.0950   24.1780   43.9760 H   0  0  0  0  0  0  0  0  0  0  0  0
   38.7950   24.1010   41.1930 H   0  0  0  0  0  0  0  0  0  0  0  0
   37.4560   24.2040   42.3350 H   0  0  0  0  0  0  0  0  0  0  0  0
   38.9430   26.3300   40.7450 H   0  0  0  0  0  0  0  0  0  0  0  0
   37.8540   28.4530   41.8180 C   0  0  0  0  0  0  0  0  0  0  0  0
   39.0350   28.7290   41.1290 C   0  0  0  0  0  0  0  0  0  0  0  0
   39.1920   29.9570   40.4700 C   0  0  0  0  0  0  0  0  0  0  0  0
   38.1160   30.8320   40.5610 N   0  0  0  0  0  0  0  0  0  0  0  0
   36.9880   30.5280   41.2380 C   0  0  0  0  0  0  0  0  0  0  0  0
   36.8720   29.3390   41.8600 N   0  0  0  0  0  0  0  0  0  0  0  0
   39.9540   28.1900   40.9700 H   0  0  0  0  0  0  0  0  0  0  0  0
   40.0230   30.3190   39.9030 H   0  0  0  0  0  0  0  0  0  0  0  0
   36.1880   31.2550   41.2700 H   0  0  0  0  0  0  0  0  0  0  0  0
   36.8910   25.9530   40.5520 C   0  0  2  0  0  0  0  0  0  0  0  0
   36.8930   24.9150   39.4570 C   0  0  0  0  0  0  0  0  0  0  0  0
   36.9250   26.3610   39.1300 C   0  0  1  0  0  0  0  0  0  0  0  0
   35.9420   26.1210   41.1040 H   0  0  0  0  0  0  0  0  0  0  0  0
   35.9170   24.3890   39.2920 H   0  0  0  0  0  0  0  0  0  0  0  0
   37.7790   24.2660   39.3380 H   0  0  0  0  0  0  0  0  0  0  0  0
   37.9080   26.6840   38.7060 H   0  0  0  0  0  0  0  0  0  0  0  0
   35.7570   26.9400   38.4500 C   0  0  0  0  0  0  0  0  0  0  0  0
   35.3800   28.2170   38.7840 C   0  0  0  0  0  0  0  0  0  0  0  0
   35.8850   28.8440   39.5210 H   0  0  0  0  0  0  0  0  0  0  0  0
   34.2840   28.8340   38.1830 C   0  0  0  0  0  0  0  0  0  0  0  0
   33.9670   29.8370   38.4270 H   0  0  0  0  0  0  0  0  0  0  0  0
   33.6050   28.0680   37.2280 C   0  0  0  0  0  3  0  0  0  0  0  0
   33.9770   26.7820   36.8870 C   0  0  0  0  0  3  0  0  0  0  0  0
   35.0500   26.2580   37.5160 N   0  0  0  0  0  0  0  0  0  0  0  0
  1  7  1  1  0  0  0
  1  2  1  0  0  0  0
  2  8  1  0  0  0  0
  2  9  1  0  0  0  0
  3  2  1  0  0  0  0
  3 10  1  0  0  0  0
  4  3  1  0  0  0  0
  4 13  1  0  0  0  0
  5 15  1  0  0  0  0
  5  4  1  0  0  0  0
  6 16  1  6  0  0  0
  6  5  1  0  0  0  0
  6  1  1  0  0  0  0
 11  3  1  0  0  0  0
 12  4  1  0  0  0  0
 14  5  1  0  0  0  0
 17 22  1  0  0  0  0
 17  1  1  0  0  0  0
 18 17  2  0  0  0  0
 19 20  2  0  0  0  0
 19 18  1  0  0  0  0
 20 21  1  0  0  0  0
 21 25  1  0  0  0  0
 21 22  2  0  0  0  0
 23 18  1  0  0  0  0
 24 19  1  0  0  0  0
 26 29  1  1  0  0  0
 26  6  1  0  0  0  0
 27 26  1  0  0  0  0
 28 32  1  6  0  0  0
 28 27  1  0  0  0  0
 28 26  1  0  0  0  0
 30 27  1  0  0  0  0
 31 27  1  0  0  0  0
 33 34  1  0  0  0  0
 33 28  1  0  0  0  0
 34 35  1  0  0  0  0
 36 37  1  0  0  0  0
 36 34  2  0  0  0  0
 38 36  1  0  0  0  0
 39 38  2  0  0  0  0
 39 40  1  0  0  0  0
 40 33  2  0  0  0  0
M  END
>  <minimizedAffinity>
-5.17670393

$$$$

 OpenBabel03242511593D

 40 43  0  0  1  0  0  0  0  0999 V2000
   40.4980   27.5310   42.1270 C   0  0  2  0  0  0  0  0  0  0  0  0
   41.0670   26.2110   42.5070 C   0  0  0  0  0  0  0  0  0  0  0  0
   41.9740   26.2770   43.6790 C   0  0  0  0  0  0  0  0  0  0  0  0
   43.0870   27.2870   43.5100 C   0  0  0  0  0  0  0  0  0  0  0  0
   42.6430   28.5710   42.8690 C   0  0  0  0  0  0  0  0  0  0  0  0
   41.1500   28.7060   42.7980 C   0  0  1  0  0  0  0  0  0  0  0  0
   40.6410   27.6220   41.0090 H   0  0  0  0  0  0  0  0  0  0  0  0
   40.2150   25.5480   42.7680 H   0  0  0  0  0  0  0  0  0  0  0  0
   41.6010   25.7110   41.6800 H   0  0  0  0  0  0  0  0  0  0  0  0
   42.4630   25.2830   43.8080 H   0  0  0  0  0  0  0  0  0  0  0  0
   41.4700   26.5100   44.6290 H   0  0  0  0  0  0  0  0  0  0  0  0
   43.5290   27.4240   44.5290 H   0  0  0  0  0  0  0  0  0  0  0  0
   43.8950   26.8340   42.8910 H   0  0  0  0  0  0  0  0  0  0  0  0
   42.9800   29.3930   43.5660 H   0  0  0  0  0  0  0  0  0  0  0  0
   43.1460   28.7990   41.9150 H   0  0  0  0  0  0  0  0  0  0  0  0
   40.7590   28.9410   43.7970 H   0  0  0  0  0  0  0  0  0  0  0  0
   39.0390   27.6050   42.3460 C   0  0  0  0  0  0  0  0  0  0  0  0
   38.2710   27.3990   41.2000 C   0  0  0  0  0  0  0  0  0  0  0  0
   36.8710   27.4340   41.2780 C   0  0  0  0  0  0  0  0  0  0  0  0
   36.3430   27.6820   42.5400 N   0  0  0  0  0  0  0  0  0  0  0  0
   37.1210   27.8760   43.6270 C   0  0  0  0  0  0  0  0  0  0  0  0
   38.4620   27.8350   43.5140 N   0  0  0  0  0  0  0  0  0  0  0  0
   38.5020   27.2130   40.1640 H   0  0  0  0  0  0  0  0  0  0  0  0
   36.1460   27.2980   40.5040 H   0  0  0  0  0  0  0  0  0  0  0  0
   36.6470   28.0650   44.5800 H   0  0  0  0  0  0  0  0  0  0  0  0
   40.8440   29.9200   41.9460 C   0  0  2  0  0  0  0  0  0  0  0  0
   41.3150   31.2690   42.4300 C   0  0  0  0  0  0  0  0  0  0  0  0
   39.8700   30.9400   42.3980 C   0  0  1  0  0  0  0  0  0  0  0  0
   40.8920   29.7150   40.8570 H   0  0  0  0  0  0  0  0  0  0  0  0
   41.6850   31.9640   41.6310 H   0  0  0  0  0  0  0  0  0  0  0  0
   41.8830   31.3300   43.3750 H   0  0  0  0  0  0  0  0  0  0  0  0
   39.4330   30.8240   43.4210 H   0  0  0  0  0  0  0  0  0  0  0  0
   39.0140   31.6800   41.4590 C   0  0  0  0  0  0  0  0  0  0  0  0
   37.8850   31.0610   40.9860 C   0  0  0  0  0  0  0  0  0  0  0  0
   37.5660   30.0520   41.2560 H   0  0  0  0  0  0  0  0  0  0  0  0
   37.0230   31.6970   40.0930 C   0  0  0  0  0  0  0  0  0  0  0  0
   36.1290   31.2320   39.7070 H   0  0  0  0  0  0  0  0  0  0  0  0
   37.3900   32.9950   39.7190 C   0  0  0  0  0  3  0  0  0  0  0  0
   38.5260   33.6260   40.1890 C   0  0  0  0  0  3  0  0  0  0  0  0
   39.3060   32.9390   41.0510 N   0  0  0  0  0  0  0  0  0  0  0  0
  1  7  1  6  0  0  0
  1 17  1  0  0  0  0
  1  2  1  0  0  0  0
  1  6  1  0  0  0  0
  2  8  1  0  0  0  0
  2  3  1  0  0  0  0
  3 10  1  0  0  0  0
  3 11  1  0  0  0  0
  4  3  1  0  0  0  0
  4 12  1  0  0  0  0
  5  4  1  0  0  0  0
  5 14  1  0  0  0  0
  6  5  1  0  0  0  0
  6 16  1  1  0  0  0
  9  2  1  0  0  0  0
 13  4  1  0  0  0  0
 15  5  1  0  0  0  0
 17 22  1  0  0  0  0
 18 19  1  0  0  0  0
 18 17  2  0  0  0  0
 19 20  2  0  0  0  0
 20 21  1  0  0  0  0
 21 25  1  0  0  0  0
 22 21  2  0  0  0  0
 23 18  1  0  0  0  0
 24 19  1  0  0  0  0
 26 29  1  6  0  0  0
 26 28  1  0  0  0  0
 26 27  1  0  0  0  0
 26  6  1  0  0  0  0
 27 31  1  0  0  0  0
 28 27  1  0  0  0  0
 28 32  1  1  0  0  0
 30 27  1  0  0  0  0
 33 28  1  0  0  0  0
 34 35  1  0  0  0  0
 34 33  2  0  0  0  0
 36 34  1  0  0  0  0
 37 36  1  0  0  0  0
 38 36  2  0  0  0  0
 38 39  1  0  0  0  0
 39 40  2  0  0  0  0
 40 33  1  0  0  0  0
M  END
>  <minimizedAffinity>
-5.12588787

$$$$

 OpenBabel03242511593D

 40 43  0  0  1  0  0  0  0  0999 V2000
   36.8720   28.2270   38.3260 C   0  0  2  0  0  0  0  0  0  0  0  0
   36.2100   28.8620   37.1550 C   0  0  0  0  0  0  0  0  0  0  0  0
   34.7990   28.4420   36.9770 C   0  0  0  0  0  0  0  0  0  0  0  0
   34.6310   26.9410   36.9100 C   0  0  0  0  0  0  0  0  0  0  0  0
   35.4880   26.1940   37.8930 C   0  0  0  0  0  0  0  0  0  0  0  0
   36.1040   27.0870   38.9310 C   0  0  1  0  0  0  0  0  0  0  0  0
   37.8660   27.8400   37.9500 H   0  0  0  0  0  0  0  0  0  0  0  0
   36.2240   29.9590   37.3240 H   0  0  0  0  0  0  0  0  0  0  0  0
   36.7470   28.6930   36.2040 H   0  0  0  0  0  0  0  0  0  0  0  0
   34.4250   28.8480   36.0090 H   0  0  0  0  0  0  0  0  0  0  0  0
   34.1160   28.8060   37.7600 H   0  0  0  0  0  0  0  0  0  0  0  0
   33.5360   26.7520   37.0350 H   0  0  0  0  0  0  0  0  0  0  0  0
   34.8800   26.5960   35.8790 H   0  0  0  0  0  0  0  0  0  0  0  0
   34.7810   25.5230   38.4640 H   0  0  0  0  0  0  0  0  0  0  0  0
   36.2100   25.5010   37.4320 H   0  0  0  0  0  0  0  0  0  0  0  0
   35.3350   27.3840   39.6560 H   0  0  0  0  0  0  0  0  0  0  0  0
   37.2010   29.1990   39.3880 C   0  0  0  0  0  0  0  0  0  0  0  0
   36.0930   29.7640   40.0190 C   0  0  0  0  0  0  0  0  0  0  0  0
   36.2730   30.6960   41.0520 C   0  0  0  0  0  0  0  0  0  0  0  0
   37.5930   30.9910   41.3730 N   0  0  0  0  0  0  0  0  0  0  0  0
   38.6410   30.4230   40.7380 C   0  0  0  0  0  0  0  0  0  0  0  0
   38.4300   29.5320   39.7500 N   0  0  0  0  0  0  0  0  0  0  0  0
   35.0280   29.6660   39.8940 H   0  0  0  0  0  0  0  0  0  0  0  0
   35.5400   31.2140   41.6310 H   0  0  0  0  0  0  0  0  0  0  0  0
   39.6430   30.6970   41.0370 H   0  0  0  0  0  0  0  0  0  0  0  0
   37.1000   26.2550   39.7110 C   0  0  2  0  0  0  0  0  0  0  0  0
   36.6270   24.9570   40.3180 C   0  0  0  0  0  0  0  0  0  0  0  0
   36.9830   26.1100   41.1800 C   0  0  1  0  0  0  0  0  0  0  0  0
   38.1250   26.2850   39.2860 H   0  0  0  0  0  0  0  0  0  0  0  0
   37.3650   24.1140   40.2840 H   0  0  0  0  0  0  0  0  0  0  0  0
   35.5800   24.6430   40.1600 H   0  0  0  0  0  0  0  0  0  0  0  0
   36.0920   26.5650   41.6780 H   0  0  0  0  0  0  0  0  0  0  0  0
   38.1590   25.9810   42.0530 C   0  0  0  0  0  0  0  0  0  0  0  0
   38.6300   27.1090   42.6770 C   0  0  0  0  0  0  0  0  0  0  0  0
   38.1940   28.1050   42.5760 H   0  0  0  0  0  0  0  0  0  0  0  0
   39.7400   27.0670   43.5190 C   0  0  0  0  0  0  0  0  0  0  0  0
   40.1290   27.9400   44.0220 H   0  0  0  0  0  0  0  0  0  0  0  0
   40.3320   25.8090   43.6800 C   0  0  0  0  0  3  0  0  0  0  0  0
   39.8650   24.6680   43.0550 C   0  0  0  0  0  3  0  0  0  0  0  0
   38.7850   24.7950   42.2550 N   0  0  0  0  0  0  0  0  0  0  0  0
  1  7  1  6  0  0  0
  1  6  1  0  0  0  0
  1 17  1  0  0  0  0
  2  8  1  0  0  0  0
  2  1  1  0  0  0  0
  3  2  1  0  0  0  0
  3 11  1  0  0  0  0
  4  3  1  0  0  0  0
  4 12  1  0  0  0  0
  4  5  1  0  0  0  0
  5 14  1  0  0  0  0
  5  6  1  0  0  0  0
  6 16  1  1  0  0  0
  6 26  1  0  0  0  0
  9  2  1  0  0  0  0
 10  3  1  0  0  0  0
 13  4  1  0  0  0  0
 15  5  1  0  0  0  0
 17 22  2  0  0  0  0
 17 18  1  0  0  0  0
 18 19  2  0  0  0  0
 19 20  1  0  0  0  0
 19 24  1  0  0  0  0
 21 25  1  0  0  0  0
 21 20  2  0  0  0  0
 22 21  1  0  0  0  0
 23 18  1  0  0  0  0
 26 29  1  6  0  0  0
 26 27  1  0  0  0  0
 26 28  1  0  0  0  0
 27 28  1  0  0  0  0
 28 32  1  1  0  0  0
 28 33  1  0  0  0  0
 30 27  1  0  0  0  0
 31 27  1  0  0  0  0
 33 40  2  0  0  0  0
 33 34  1  0  0  0  0
 34 36  2  0  0  0  0
 35 34  1  0  0  0  0
 36 38  1  0  0  0  0
 36 37  1  0  0  0  0
 39 38  2  0  0  0  0
 40 39  1  0  0  0  0
M  END
>  <minimizedAffinity>
-5.04310131

$$$$

 OpenBabel03242511593D

 40 43  0  0  1  0  0  0  0  0999 V2000
   39.3150   26.4820   41.0300 C   0  0  2  0  0  0  0  0  0  0  0  0
   39.7850   25.0730   40.9550 C   0  0  0  0  0  0  0  0  0  0  0  0
   39.3730   24.2520   42.1190 C   0  0  0  0  0  0  0  0  0  0  0  0
   39.7770   24.8590   43.4440 C   0  0  0  0  0  0  0  0  0  0  0  0
   39.5880   26.3490   43.5080 C   0  0  0  0  0  0  0  0  0  0  0  0
   38.7700   26.8850   42.3700 C   0  0  1  0  0  0  0  0  0  0  0  0
   40.2160   27.1240   40.7920 H   0  0  0  0  0  0  0  0  0  0  0  0
   39.3380   24.6250   40.0420 H   0  0  0  0  0  0  0  0  0  0  0  0
   40.8790   24.9830   40.8340 H   0  0  0  0  0  0  0  0  0  0  0  0
   39.8790   23.2610   42.0550 H   0  0  0  0  0  0  0  0  0  0  0  0
   38.2910   24.0550   42.1740 H   0  0  0  0  0  0  0  0  0  0  0  0
   39.2000   24.3000   44.2230 H   0  0  0  0  0  0  0  0  0  0  0  0
   40.8490   24.6220   43.6370 H   0  0  0  0  0  0  0  0  0  0  0  0
   38.9670   26.5370   44.4320 H   0  0  0  0  0  0  0  0  0  0  0  0
   40.5160   26.9170   43.6820 H   0  0  0  0  0  0  0  0  0  0  0  0
   37.7140   26.6320   42.5310 H   0  0  0  0  0  0  0  0  0  0  0  0
   38.3160   26.8030   39.9900 C   0  0  0  0  0  0  0  0  0  0  0  0
   38.8000   27.5910   38.9460 C   0  0  0  0  0  0  0  0  0  0  0  0
   37.9510   27.9570   37.8910 C   0  0  0  0  0  0  0  0  0  0  0  0
   36.6460   27.4870   37.9780 N   0  0  0  0  0  0  0  0  0  0  0  0
   36.2140   26.7260   39.0060 C   0  0  0  0  0  0  0  0  0  0  0  0
   37.0580   26.3940   40.0020 N   0  0  0  0  0  0  0  0  0  0  0  0
   39.7520   28.0450   38.7270 H   0  0  0  0  0  0  0  0  0  0  0  0
   38.1630   28.5480   37.0260 H   0  0  0  0  0  0  0  0  0  0  0  0
   35.1850   26.3930   39.0130 H   0  0  0  0  0  0  0  0  0  0  0  0
   38.8400   28.3960   42.4330 C   0  0  2  0  0  0  0  0  0  0  0  0
   37.9790   29.1100   43.4450 C   0  0  0  0  0  0  0  0  0  0  0  0
   37.6980   29.2300   41.9930 C   0  0  1  0  0  0  0  0  0  0  0  0
   39.8590   28.7960   42.2470 H   0  0  0  0  0  0  0  0  0  0  0  0
   38.4510   30.0010   43.9360 H   0  0  0  0  0  0  0  0  0  0  0  0
   37.3390   28.5130   44.1190 H   0  0  0  0  0  0  0  0  0  0  0  0
   36.7580   28.7050   41.6930 H   0  0  0  0  0  0  0  0  0  0  0  0
   37.8820   30.5440   41.3620 C   0  0  0  0  0  0  0  0  0  0  0  0
   36.9080   30.9940   40.5070 C   0  0  0  0  0  0  0  0  0  0  0  0
   35.9960   30.4480   40.2570 H   0  0  0  0  0  0  0  0  0  0  0  0
   37.0100   32.2300   39.8690 C   0  0  0  0  0  0  0  0  0  0  0  0
   36.2570   32.6070   39.1930 H   0  0  0  0  0  0  0  0  0  0  0  0
   38.1640   32.9680   40.1610 C   0  0  0  0  0  3  0  0  0  0  0  0
   39.1500   32.5230   41.0190 C   0  0  0  0  0  3  0  0  0  0  0  0
   38.9730   31.3150   41.5950 N   0  0  0  0  0  0  0  0  0  0  0  0
  1  7  1  6  0  0  0
  1  6  1  0  0  0  0
  2  1  1  0  0  0  0
  2  3  1  0  0  0  0
  3 11  1  0  0  0  0
  3  4  1  0  0  0  0
  4  5  1  0  0  0  0
  4 13  1  0  0  0  0
  4 12  1  0  0  0  0
  5 15  1  0  0  0  0
  5 14  1  0  0  0  0
  6 26  1  0  0  0  0
  6 16  1  1  0  0  0
  6  5  1  0  0  0  0
  8  2  1  0  0  0  0
  9  2  1  0  0  0  0
 10  3  1  0  0  0  0
 17 22  1  0  0  0  0
 17  1  1  0  0  0  0
 18 17  2  0  0  0  0
 19 20  2  0  0  0  0
 19 18  1  0  0  0  0
 20 21  1  0  0  0  0
 21 25  1  0  0  0  0
 21 22  2  0  0  0  0
 23 18  1  0  0  0  0
 24 19  1  0  0  0  0
 26 29  1  6  0  0  0
 26 27  1  0  0  0  0
 27 30  1  0  0  0  0
 27 31  1  0  0  0  0
 28 32  1  6  0  0  0
 28 26  1  0  0  0  0
 28 27  1  0  0  0  0
 33 40  1  0  0  0  0
 33 28  1  0  0  0  0
 34 33  2  0  0  0  0
 35 34  1  0  0  0  0
 36 38  2  0  0  0  0
 36 34  1  0  0  0  0
 37 36  1  0  0  0  0
 38 39  1  0  0  0  0
 39 40  2  0  0  0  0
M  END
>  <minimizedAffinity>
-5.03856468

$$$$
