
 OpenBabel03252507013D

 36 38  0  0  0  0  0  0  0  0999 V2000
   37.2950   26.7150   41.5960 N   0  0  0  0  0  0  0  0  0  0  0  0
   38.1970   25.7050   42.0130 C   0  0  0  0  0  0  0  0  0  0  0  0
   37.2540   24.4970   42.1180 C   0  0  0  0  0  0  0  0  0  0  0  0
   36.5580   24.1590   40.8730 C   0  0  0  0  0  0  0  0  0  0  0  0
   36.5130   25.2210   39.8150 C   0  0  0  0  0  0  0  0  0  0  0  0
   36.8740   26.5930   40.2080 C   0  0  0  0  0  0  0  0  0  0  0  0
   38.9250   25.4560   41.2490 H   0  0  0  0  0  0  0  0  0  0  0  0
   38.7260   25.8070   42.9480 H   0  0  0  0  0  0  0  0  0  0  0  0
   37.9200   23.6670   42.4540 H   0  0  0  0  0  0  0  0  0  0  0  0
   36.5970   24.7200   42.9870 H   0  0  0  0  0  0  0  0  0  0  0  0
   36.9650   23.2630   40.3740 H   0  0  0  0  0  0  0  0  0  0  0  0
   35.4860   23.9510   41.1100 H   0  0  0  0  0  0  0  0  0  0  0  0
   36.2030   25.0270   38.8430 H   0  0  0  0  0  0  0  0  0  0  0  0
   36.7290   27.6600   39.2780 C   0  0  0  0  0  0  0  0  0  0  0  0
   35.5480   28.1160   38.8170 C   0  0  0  0  0  0  0  0  0  0  0  0
   34.6130   27.6970   39.1250 H   0  0  0  0  0  0  0  0  0  0  0  0
   35.4310   29.1520   37.9140 C   0  0  0  0  0  0  0  0  0  0  0  0
   34.4720   29.5010   37.5560 H   0  0  0  0  0  0  0  0  0  0  0  0
   36.5480   29.7940   37.4230 C   0  0  0  0  0  3  0  0  0  0  0  0
   37.7480   29.2970   37.9230 C   0  0  0  0  0  3  0  0  0  0  0  0
   37.7980   28.2970   38.7900 N   0  0  0  0  0  0  0  0  0  0  0  0
   36.6410   27.6050   42.3770 C   0  0  0  0  0  0  0  0  0  0  0  0
   36.0140   27.2070   43.2250 H   0  0  0  0  0  0  0  0  0  0  0  0
   35.9160   28.2420   41.8040 H   0  0  0  0  0  0  0  0  0  0  0  0
   37.6030   28.5790   43.0050 C   0  0  0  0  0  0  0  0  0  0  0  0
   37.0680   28.9770   43.9130 H   0  0  0  0  0  0  0  0  0  0  0  0
   38.5290   28.1970   43.3890 H   0  0  0  0  0  0  0  0  0  0  0  0
   37.6760   29.7590   42.1220 C   0  0  0  0  0  0  0  0  0  0  0  0
   38.8740   30.3600   41.8070 C   0  0  0  0  0  0  0  0  0  0  0  0
   38.8960   31.4750   40.9620 C   0  0  0  0  0  0  0  0  0  0  0  0
   37.7020   31.9090   40.4910 N   0  0  0  0  0  0  0  0  0  0  0  0
   36.5550   31.3030   40.8150 C   0  0  0  0  0  0  0  0  0  0  0  0
   36.5640   30.2490   41.6180 N   0  0  0  0  0  0  0  0  0  0  0  0
   39.7750   29.9510   42.2250 H   0  0  0  0  0  0  0  0  0  0  0  0
   39.8770   31.8700   40.7790 H   0  0  0  0  0  0  0  0  0  0  0  0
   35.6160   31.6980   40.4030 H   0  0  0  0  0  0  0  0  0  0  0  0
  1  2  1  0  0  0  0
  1 22  1  0  0  0  0
  2  3  1  0  0  0  0
  2  8  1  0  0  0  0
  3  9  1  0  0  0  0
  3 10  1  0  0  0  0
  4 12  1  0  0  0  0
  4  3  1  0  0  0  0
  5  6  2  0  0  0  0
  5  4  1  0  0  0  0
  6  1  1  0  0  0  0
  7  2  1  0  0  0  0
 11  4  1  0  0  0  0
 13  5  1  0  0  0  0
 14  6  1  0  0  0  0
 15 16  1  0  0  0  0
 15 14  1  0  0  0  0
 17 15  2  0  0  0  0
 18 17  1  0  0  0  0
 19 17  1  0  0  0  0
 19 20  2  0  0  0  0
 20 21  1  0  0  0  0
 21 14  2  0  0  0  0
 22 25  1  0  0  0  0
 22 23  1  0  0  0  0
 24 22  1  0  0  0  0
 25 27  1  0  0  0  0
 25 26  1  0  0  0  0
 28 25  1  0  0  0  0
 29 28  1  0  0  0  0
 29 34  1  0  0  0  0
 30 29  2  0  0  0  0
 31 32  2  0  0  0  0
 31 30  1  0  0  0  0
 32 33  1  0  0  0  0
 33 28  2  0  0  0  0
 35 30  1  0  0  0  0
 36 32  1  0  0  0  0
M  END
>  <minimizedAffinity>
-5.04783535

$$$$

 OpenBabel03252507013D

 36 38  0  0  0  0  0  0  0  0999 V2000
   37.8850   29.3090   41.5000 N   0  0  0  0  0  0  0  0  0  0  0  0
   36.7080   30.0850   41.6490 C   0  0  0  0  0  0  0  0  0  0  0  0
   36.1270   30.0100   40.2280 C   0  0  0  0  0  0  0  0  0  0  0  0
   35.8570   28.6500   39.7530 C   0  0  0  0  0  0  0  0  0  0  0  0
   36.5330   27.5300   40.4870 C   0  0  0  0  0  0  0  0  0  0  0  0
   37.6380   27.8780   41.3940 C   0  0  0  0  0  0  0  0  0  0  0  0
   35.9790   29.6130   42.2990 H   0  0  0  0  0  0  0  0  0  0  0  0
   36.7780   31.1230   41.9340 H   0  0  0  0  0  0  0  0  0  0  0  0
   35.1930   30.6160   40.2890 H   0  0  0  0  0  0  0  0  0  0  0  0
   36.8270   30.6040   39.6010 H   0  0  0  0  0  0  0  0  0  0  0  0
   34.7830   28.3930   39.7500 H   0  0  0  0  0  0  0  0  0  0  0  0
   36.2240   28.5610   38.7010 H   0  0  0  0  0  0  0  0  0  0  0  0
   36.2740   26.5340   40.3450 H   0  0  0  0  0  0  0  0  0  0  0  0
   38.3960   26.8490   42.0190 C   0  0  0  0  0  0  0  0  0  0  0  0
   39.1940   27.0320   43.0900 C   0  0  0  0  0  0  0  0  0  0  0  0
   39.3160   27.9870   43.5560 H   0  0  0  0  0  0  0  0  0  0  0  0
   39.9220   26.0190   43.6800 C   0  0  0  0  0  0  0  0  0  0  0  0
   40.5570   26.1880   44.5380 H   0  0  0  0  0  0  0  0  0  0  0  0
   39.8690   24.7310   43.1910 C   0  0  0  0  0  3  0  0  0  0  0  0
   39.0340   24.5810   42.0870 C   0  0  0  0  0  3  0  0  0  0  0  0
   38.3600   25.5930   41.5640 N   0  0  0  0  0  0  0  0  0  0  0  0
   39.1320   29.7560   41.2320 C   0  0  0  0  0  0  0  0  0  0  0  0
   39.3650   30.0830   40.1780 H   0  0  0  0  0  0  0  0  0  0  0  0
   39.9270   28.9900   41.4390 H   0  0  0  0  0  0  0  0  0  0  0  0
   39.4850   30.9280   42.1090 C   0  0  0  0  0  0  0  0  0  0  0  0
   38.5080   31.2680   42.5540 H   0  0  0  0  0  0  0  0  0  0  0  0
   40.1150   30.7490   42.9600 H   0  0  0  0  0  0  0  0  0  0  0  0
   39.8530   32.0490   41.2230 C   0  0  0  0  0  0  0  0  0  0  0  0
   40.9970   32.0270   40.4570 C   0  0  0  0  0  0  0  0  0  0  0  0
   41.3030   33.1110   39.6270 C   0  0  0  0  0  0  0  0  0  0  0  0
   40.4310   34.1480   39.6290 N   0  0  0  0  0  0  0  0  0  0  0  0
   39.3280   34.1400   40.3840 C   0  0  0  0  0  0  0  0  0  0  0  0
   39.0630   33.0980   41.1610 N   0  0  0  0  0  0  0  0  0  0  0  0
   41.6340   31.1640   40.5160 H   0  0  0  0  0  0  0  0  0  0  0  0
   42.2150   32.9970   39.0720 H   0  0  0  0  0  0  0  0  0  0  0  0
   38.6560   35.0080   40.3460 H   0  0  0  0  0  0  0  0  0  0  0  0
  1  2  1  0  0  0  0
  2  8  1  0  0  0  0
  2  7  1  0  0  0  0
  3  9  1  0  0  0  0
  3  2  1  0  0  0  0
  4  3  1  0  0  0  0
  4  5  1  0  0  0  0
  5  6  2  0  0  0  0
  6  1  1  0  0  0  0
  6 14  1  0  0  0  0
 10  3  1  0  0  0  0
 11  4  1  0  0  0  0
 12  4  1  0  0  0  0
 13  5  1  0  0  0  0
 14 15  1  0  0  0  0
 15 16  1  0  0  0  0
 15 17  2  0  0  0  0
 17 18  1  0  0  0  0
 19 17  1  0  0  0  0
 20 19  2  0  0  0  0
 21 14  2  0  0  0  0
 21 20  1  0  0  0  0
 22 24  1  0  0  0  0
 22  1  1  0  0  0  0
 22 25  1  0  0  0  0
 23 22  1  0  0  0  0
 25 26  1  0  0  0  0
 25 27  1  0  0  0  0
 28 25  1  0  0  0  0
 29 34  1  0  0  0  0
 29 28  2  0  0  0  0
 30 31  2  0  0  0  0
 30 29  1  0  0  0  0
 31 32  1  0  0  0  0
 32 33  2  0  0  0  0
 33 28  1  0  0  0  0
 35 30  1  0  0  0  0
 36 32  1  0  0  0  0
M  END
>  <minimizedAffinity>
-4.85523939

$$$$

 OpenBabel03252507013D

 36 38  0  0  0  0  0  0  0  0999 V2000
   39.2820   31.2000   40.8330 N   0  0  0  0  0  0  0  0  0  0  0  0
   40.3900   31.5090   40.0040 C   0  0  0  0  0  0  0  0  0  0  0  0
   41.2890   32.2700   40.9910 C   0  0  0  0  0  0  0  0  0  0  0  0
   41.6660   31.5070   42.1830 C   0  0  0  0  0  0  0  0  0  0  0  0
   40.8370   30.2980   42.5020 C   0  0  0  0  0  0  0  0  0  0  0  0
   39.5490   30.1510   41.8060 C   0  0  0  0  0  0  0  0  0  0  0  0
   40.9460   30.6260   39.7070 H   0  0  0  0  0  0  0  0  0  0  0  0
   40.2530   32.1200   39.1260 H   0  0  0  0  0  0  0  0  0  0  0  0
   42.1820   32.5450   40.3800 H   0  0  0  0  0  0  0  0  0  0  0  0
   40.7560   33.2270   41.1840 H   0  0  0  0  0  0  0  0  0  0  0  0
   42.7110   31.1500   42.1620 H   0  0  0  0  0  0  0  0  0  0  0  0
   41.5580   32.1680   43.0780 H   0  0  0  0  0  0  0  0  0  0  0  0
   41.1240   29.5970   43.2130 H   0  0  0  0  0  0  0  0  0  0  0  0
   38.6670   29.0920   42.1600 C   0  0  0  0  0  0  0  0  0  0  0  0
   37.9930   29.0170   43.3240 C   0  0  0  0  0  0  0  0  0  0  0  0
   38.0740   29.7670   44.0820 H   0  0  0  0  0  0  0  0  0  0  0  0
   37.1430   27.9800   43.6470 C   0  0  0  0  0  0  0  0  0  0  0  0
   36.6110   27.9390   44.5880 H   0  0  0  0  0  0  0  0  0  0  0  0
   36.9330   26.9350   42.7710 C   0  0  0  0  0  3  0  0  0  0  0  0
   37.6450   27.0490   41.5800 C   0  0  0  0  0  3  0  0  0  0  0  0
   38.4480   28.0700   41.3260 N   0  0  0  0  0  0  0  0  0  0  0  0
   38.1320   31.9000   40.9590 C   0  0  0  0  0  0  0  0  0  0  0  0
   38.1930   32.9550   41.3520 H   0  0  0  0  0  0  0  0  0  0  0  0
   37.3970   31.4140   41.6540 H   0  0  0  0  0  0  0  0  0  0  0  0
   37.4130   31.9970   39.6400 C   0  0  0  0  0  0  0  0  0  0  0  0
   36.6070   32.7680   39.7990 H   0  0  0  0  0  0  0  0  0  0  0  0
   37.9620   32.3600   38.7910 H   0  0  0  0  0  0  0  0  0  0  0  0
   36.6460   30.7490   39.4610 C   0  0  0  0  0  0  0  0  0  0  0  0
   36.7760   29.9690   38.3340 C   0  0  0  0  0  0  0  0  0  0  0  0
   36.0320   28.7920   38.2090 C   0  0  0  0  0  0  0  0  0  0  0  0
   35.2030   28.4810   39.2360 N   0  0  0  0  0  0  0  0  0  0  0  0
   35.0990   29.2580   40.3170 C   0  0  0  0  0  0  0  0  0  0  0  0
   35.8170   30.3690   40.4080 N   0  0  0  0  0  0  0  0  0  0  0  0
   37.4560   30.2910   37.5670 H   0  0  0  0  0  0  0  0  0  0  0  0
   36.2030   28.2560   37.2950 H   0  0  0  0  0  0  0  0  0  0  0  0
   34.4120   28.9560   41.1200 H   0  0  0  0  0  0  0  0  0  0  0  0
  1 22  1  0  0  0  0
  1  6  1  0  0  0  0
  2  1  1  0  0  0  0
  2  3  1  0  0  0  0
  3 10  1  0  0  0  0
  3  4  1  0  0  0  0
  4  5  1  0  0  0  0
  4 12  1  0  0  0  0
  5 13  1  0  0  0  0
  6 14  1  0  0  0  0
  6  5  2  0  0  0  0
  7  2  1  0  0  0  0
  8  2  1  0  0  0  0
  9  3  1  0  0  0  0
 11  4  1  0  0  0  0
 14 15  1  0  0  0  0
 15 17  2  0  0  0  0
 15 16  1  0  0  0  0
 17 18  1  0  0  0  0
 19 17  1  0  0  0  0
 20 19  2  0  0  0  0
 21 20  1  0  0  0  0
 21 14  2  0  0  0  0
 22 23  1  0  0  0  0
 22 24  1  0  0  0  0
 25 26  1  0  0  0  0
 25 22  1  0  0  0  0
 27 25  1  0  0  0  0
 28 25  1  0  0  0  0
 28 33  1  0  0  0  0
 29 28  2  0  0  0  0
 30 29  1  0  0  0  0
 30 31  2  0  0  0  0
 31 32  1  0  0  0  0
 32 33  2  0  0  0  0
 32 36  1  0  0  0  0
 34 29  1  0  0  0  0
 35 30  1  0  0  0  0
M  END
>  <minimizedAffinity>
-4.84856415

$$$$

 OpenBabel03252507013D

 36 38  0  0  0  0  0  0  0  0999 V2000
   38.6640   27.5130   41.5840 N   0  0  0  0  0  0  0  0  0  0  0  0
   39.2840   28.1230   42.7030 C   0  0  0  0  0  0  0  0  0  0  0  0
   38.1000   28.8920   43.3100 C   0  0  0  0  0  0  0  0  0  0  0  0
   36.9560   28.0540   43.6800 C   0  0  0  0  0  0  0  0  0  0  0  0
   36.8960   26.6850   43.0700 C   0  0  0  0  0  0  0  0  0  0  0  0
   37.7830   26.4060   41.9290 C   0  0  0  0  0  0  0  0  0  0  0  0
   39.5930   27.4020   43.4520 H   0  0  0  0  0  0  0  0  0  0  0  0
   40.1010   28.8130   42.5570 H   0  0  0  0  0  0  0  0  0  0  0  0
   38.5410   29.4020   44.1990 H   0  0  0  0  0  0  0  0  0  0  0  0
   37.8820   29.7030   42.5810 H   0  0  0  0  0  0  0  0  0  0  0  0
   36.8650   27.8950   44.7690 H   0  0  0  0  0  0  0  0  0  0  0  0
   36.0200   28.5580   43.3370 H   0  0  0  0  0  0  0  0  0  0  0  0
   36.2320   25.9570   43.3980 H   0  0  0  0  0  0  0  0  0  0  0  0
   37.6800   25.1690   41.2340 C   0  0  0  0  0  0  0  0  0  0  0  0
   36.5290   24.6570   40.7540 C   0  0  0  0  0  0  0  0  0  0  0  0
   35.5900   25.1580   40.8640 H   0  0  0  0  0  0  0  0  0  0  0  0
   36.4510   23.4550   40.0830 C   0  0  0  0  0  0  0  0  0  0  0  0
   35.5170   23.0620   39.7060 H   0  0  0  0  0  0  0  0  0  0  0  0
   37.5790   22.6920   39.8630 C   0  0  0  0  0  3  0  0  0  0  0  0
   38.7460   23.2530   40.3710 C   0  0  0  0  0  3  0  0  0  0  0  0
   38.7590   24.4140   41.0080 N   0  0  0  0  0  0  0  0  0  0  0  0
   38.6290   27.9730   40.3130 C   0  0  0  0  0  0  0  0  0  0  0  0
   38.9950   27.2930   39.4910 H   0  0  0  0  0  0  0  0  0  0  0  0
   39.2440   28.9010   40.1650 H   0  0  0  0  0  0  0  0  0  0  0  0
   37.2300   28.3690   39.9220 C   0  0  0  0  0  0  0  0  0  0  0  0
   37.0490   27.8710   38.9280 H   0  0  0  0  0  0  0  0  0  0  0  0
   36.4190   28.0310   40.5390 H   0  0  0  0  0  0  0  0  0  0  0  0
   37.2570   29.8030   39.5720 C   0  0  0  0  0  0  0  0  0  0  0  0
   37.4860   30.2340   38.2850 C   0  0  0  0  0  0  0  0  0  0  0  0
   37.4990   31.6030   37.9990 C   0  0  0  0  0  0  0  0  0  0  0  0
   37.2800   32.4470   39.0370 N   0  0  0  0  0  0  0  0  0  0  0  0
   37.0600   31.9970   40.2760 C   0  0  0  0  0  0  0  0  0  0  0  0
   37.0530   30.6930   40.5180 N   0  0  0  0  0  0  0  0  0  0  0  0
   37.6520   29.4970   37.5220 H   0  0  0  0  0  0  0  0  0  0  0  0
   37.6870   31.8370   36.9690 H   0  0  0  0  0  0  0  0  0  0  0  0
   36.8870   32.7270   41.0790 H   0  0  0  0  0  0  0  0  0  0  0  0
  1  6  1  0  0  0  0
  1  2  1  0  0  0  0
  2  3  1  0  0  0  0
  2  7  1  0  0  0  0
  3  4  1  0  0  0  0
  3  9  1  0  0  0  0
  4 11  1  0  0  0  0
  5 13  1  0  0  0  0
  5  4  1  0  0  0  0
  6  5  2  0  0  0  0
  8  2  1  0  0  0  0
 10  3  1  0  0  0  0
 12  4  1  0  0  0  0
 14  6  1  0  0  0  0
 15 16  1  0  0  0  0
 15 14  2  0  0  0  0
 17 15  1  0  0  0  0
 18 17  1  0  0  0  0
 19 17  2  0  0  0  0
 19 20  1  0  0  0  0
 20 21  2  0  0  0  0
 21 14  1  0  0  0  0
 22  1  1  0  0  0  0
 23 22  1  0  0  0  0
 24 22  1  0  0  0  0
 25 22  1  0  0  0  0
 25 27  1  0  0  0  0
 26 25  1  0  0  0  0
 28 25  1  0  0  0  0
 28 33  1  0  0  0  0
 29 28  2  0  0  0  0
 30 29  1  0  0  0  0
 30 31  2  0  0  0  0
 31 32  1  0  0  0  0
 32 33  2  0  0  0  0
 32 36  1  0  0  0  0
 34 29  1  0  0  0  0
 35 30  1  0  0  0  0
M  END
>  <minimizedAffinity>
-4.81708574

$$$$

 OpenBabel03252507013D

 36 38  0  0  0  0  0  0  0  0999 V2000
   37.2580   28.6450   42.2480 N   0  0  0  0  0  0  0  0  0  0  0  0
   37.4580   28.5130   43.6450 C   0  0  0  0  0  0  0  0  0  0  0  0
   38.6520   27.5460   43.6790 C   0  0  0  0  0  0  0  0  0  0  0  0
   39.8450   28.0280   42.9770 C   0  0  0  0  0  0  0  0  0  0  0  0
   39.6460   29.1470   41.9980 C   0  0  0  0  0  0  0  0  0  0  0  0
   38.2690   29.4540   41.5820 C   0  0  0  0  0  0  0  0  0  0  0  0
   37.8000   29.4340   44.1050 H   0  0  0  0  0  0  0  0  0  0  0  0
   36.6740   28.1090   44.2670 H   0  0  0  0  0  0  0  0  0  0  0  0
   38.8470   27.4020   44.7680 H   0  0  0  0  0  0  0  0  0  0  0  0
   38.2450   26.5760   43.3200 H   0  0  0  0  0  0  0  0  0  0  0  0
   40.6440   28.3710   43.6570 H   0  0  0  0  0  0  0  0  0  0  0  0
   40.2620   27.1890   42.3670 H   0  0  0  0  0  0  0  0  0  0  0  0
   40.4410   29.6720   41.5840 H   0  0  0  0  0  0  0  0  0  0  0  0
   38.0320   30.4190   40.5640 C   0  0  0  0  0  0  0  0  0  0  0  0
   37.1650   31.4450   40.6720 C   0  0  0  0  0  0  0  0  0  0  0  0
   36.5810   31.6110   41.5530 H   0  0  0  0  0  0  0  0  0  0  0  0
   36.9490   32.3690   39.6710 C   0  0  0  0  0  0  0  0  0  0  0  0
   36.2490   33.1860   39.7780 H   0  0  0  0  0  0  0  0  0  0  0  0
   37.6280   32.2890   38.4730 C   0  0  0  0  0  3  0  0  0  0  0  0
   38.5140   31.2180   38.3990 C   0  0  0  0  0  3  0  0  0  0  0  0
   38.6790   30.3610   39.3960 N   0  0  0  0  0  0  0  0  0  0  0  0
   36.3990   27.9450   41.4730 C   0  0  0  0  0  0  0  0  0  0  0  0
   35.4890   28.4780   41.0750 H   0  0  0  0  0  0  0  0  0  0  0  0
   35.9610   27.0540   41.9960 H   0  0  0  0  0  0  0  0  0  0  0  0
   37.1010   27.3800   40.2660 C   0  0  0  0  0  0  0  0  0  0  0  0
   36.2770   27.1010   39.5500 H   0  0  0  0  0  0  0  0  0  0  0  0
   37.7340   28.0350   39.6980 H   0  0  0  0  0  0  0  0  0  0  0  0
   37.6610   26.0710   40.6530 C   0  0  0  0  0  0  0  0  0  0  0  0
   38.9100   25.6630   40.2430 C   0  0  0  0  0  0  0  0  0  0  0  0
   39.4020   24.4140   40.6380 C   0  0  0  0  0  0  0  0  0  0  0  0
   38.5950   23.6590   41.4220 N   0  0  0  0  0  0  0  0  0  0  0  0
   37.3860   24.0830   41.8030 C   0  0  0  0  0  0  0  0  0  0  0  0
   36.9460   25.2710   41.4140 N   0  0  0  0  0  0  0  0  0  0  0  0
   39.4840   26.3250   39.6220 H   0  0  0  0  0  0  0  0  0  0  0  0
   40.3830   24.1890   40.2660 H   0  0  0  0  0  0  0  0  0  0  0  0
   36.7740   23.4290   42.4400 H   0  0  0  0  0  0  0  0  0  0  0  0
  1  2  1  0  0  0  0
  2  3  1  0  0  0  0
  2  7  1  0  0  0  0
  2  8  1  0  0  0  0
  3  9  1  0  0  0  0
  4 11  1  0  0  0  0
  4  3  1  0  0  0  0
  5  4  1  0  0  0  0
  6  5  2  0  0  0  0
  6  1  1  0  0  0  0
 10  3  1  0  0  0  0
 12  4  1  0  0  0  0
 13  5  1  0  0  0  0
 14 15  1  0  0  0  0
 14  6  1  0  0  0  0
 15 16  1  0  0  0  0
 17 18  1  0  0  0  0
 17 15  2  0  0  0  0
 19 17  1  0  0  0  0
 20 19  2  0  0  0  0
 20 21  1  0  0  0  0
 21 14  2  0  0  0  0
 22 24  1  0  0  0  0
 22  1  1  0  0  0  0
 23 22  1  0  0  0  0
 25 28  1  0  0  0  0
 25 22  1  0  0  0  0
 26 25  1  0  0  0  0
 27 25  1  0  0  0  0
 28 33  1  0  0  0  0
 29 30  1  0  0  0  0
 29 28  2  0  0  0  0
 30 31  2  0  0  0  0
 31 32  1  0  0  0  0
 32 36  1  0  0  0  0
 33 32  2  0  0  0  0
 34 29  1  0  0  0  0
 35 30  1  0  0  0  0
M  END
>  <minimizedAffinity>
-4.76696587

$$$$

 OpenBabel03252507013D

 36 38  0  0  0  0  0  0  0  0999 V2000
   37.2980   31.3150   40.1750 N   0  0  0  0  0  0  0  0  0  0  0  0
   37.1230   32.1390   39.0350 C   0  0  0  0  0  0  0  0  0  0  0  0
   37.3330   33.5330   39.6470 C   0  0  0  0  0  0  0  0  0  0  0  0
   38.6350   33.7230   40.2930 C   0  0  0  0  0  0  0  0  0  0  0  0
   39.4030   32.4840   40.6440 C   0  0  0  0  0  0  0  0  0  0  0  0
   38.6820   31.2020   40.6150 C   0  0  0  0  0  0  0  0  0  0  0  0
   37.9120   32.0070   38.3030 H   0  0  0  0  0  0  0  0  0  0  0  0
   36.1820   32.1360   38.5070 H   0  0  0  0  0  0  0  0  0  0  0  0
   37.1980   34.2260   38.7830 H   0  0  0  0  0  0  0  0  0  0  0  0
   36.4480   33.6950   40.3000 H   0  0  0  0  0  0  0  0  0  0  0  0
   39.3300   34.3430   39.6990 H   0  0  0  0  0  0  0  0  0  0  0  0
   38.4750   34.2440   41.2690 H   0  0  0  0  0  0  0  0  0  0  0  0
   40.3990   32.5110   40.9390 H   0  0  0  0  0  0  0  0  0  0  0  0
   39.3260   30.0130   41.0580 C   0  0  0  0  0  0  0  0  0  0  0  0
   39.7130   29.0080   40.2490 C   0  0  0  0  0  0  0  0  0  0  0  0
   39.5620   29.0350   39.1900 H   0  0  0  0  0  0  0  0  0  0  0  0
   40.3350   27.8630   40.7000 C   0  0  0  0  0  0  0  0  0  0  0  0
   40.6380   27.0680   40.0330 H   0  0  0  0  0  0  0  0  0  0  0  0
   40.6000   27.6820   42.0410 C   0  0  0  0  0  3  0  0  0  0  0  0
   40.1860   28.7400   42.8450 C   0  0  0  0  0  3  0  0  0  0  0  0
   39.5930   29.8170   42.3530 N   0  0  0  0  0  0  0  0  0  0  0  0
   36.3360   30.8320   40.9930 C   0  0  0  0  0  0  0  0  0  0  0  0
   35.5720   31.5540   41.4000 H   0  0  0  0  0  0  0  0  0  0  0  0
   36.7480   30.3520   41.9200 H   0  0  0  0  0  0  0  0  0  0  0  0
   35.5470   29.7450   40.3120 C   0  0  0  0  0  0  0  0  0  0  0  0
   34.5380   29.7550   40.8120 H   0  0  0  0  0  0  0  0  0  0  0  0
   35.3250   29.8610   39.2670 H   0  0  0  0  0  0  0  0  0  0  0  0
   36.1140   28.4510   40.7400 C   0  0  0  0  0  0  0  0  0  0  0  0
   36.3820   27.4410   39.8430 C   0  0  0  0  0  0  0  0  0  0  0  0
   36.9240   26.2330   40.2940 C   0  0  0  0  0  0  0  0  0  0  0  0
   37.1590   26.1270   41.6240 N   0  0  0  0  0  0  0  0  0  0  0  0
   36.8890   27.1260   42.4690 C   0  0  0  0  0  0  0  0  0  0  0  0
   36.3750   28.2600   42.0140 N   0  0  0  0  0  0  0  0  0  0  0  0
   36.1640   27.6100   38.8050 H   0  0  0  0  0  0  0  0  0  0  0  0
   37.0950   25.5100   39.5190 H   0  0  0  0  0  0  0  0  0  0  0  0
   37.1000   26.9840   43.5380 H   0  0  0  0  0  0  0  0  0  0  0  0
  1  6  1  0  0  0  0
  1 22  1  0  0  0  0
  2  3  1  0  0  0  0
  2  1  1  0  0  0  0
  3  4  1  0  0  0  0
  3 10  1  0  0  0  0
  4  5  1  0  0  0  0
  4 12  1  0  0  0  0
  5 13  1  0  0  0  0
  6  5  2  0  0  0  0
  6 14  1  0  0  0  0
  7  2  1  0  0  0  0
  8  2  1  0  0  0  0
  9  3  1  0  0  0  0
 11  4  1  0  0  0  0
 14 21  1  0  0  0  0
 15 17  1  0  0  0  0
 15 14  2  0  0  0  0
 16 15  1  0  0  0  0
 17 19  2  0  0  0  0
 18 17  1  0  0  0  0
 19 20  1  0  0  0  0
 21 20  2  0  0  0  0
 22 23  1  0  0  0  0
 22 24  1  0  0  0  0
 25 28  1  0  0  0  0
 25 26  1  0  0  0  0
 25 22  1  0  0  0  0
 27 25  1  0  0  0  0
 28 33  1  0  0  0  0
 29 30  1  0  0  0  0
 29 28  2  0  0  0  0
 30 31  2  0  0  0  0
 31 32  1  0  0  0  0
 32 36  1  0  0  0  0
 33 32  2  0  0  0  0
 34 29  1  0  0  0  0
 35 30  1  0  0  0  0
M  END
>  <minimizedAffinity>
-4.76139498

$$$$

 OpenBabel03252507013D

 36 38  0  0  0  0  0  0  0  0999 V2000
   38.7830   29.0070   42.1960 N   0  0  0  0  0  0  0  0  0  0  0  0
   39.1430   27.7450   42.7300 C   0  0  0  0  0  0  0  0  0  0  0  0
   37.9630   27.4830   43.6800 C   0  0  0  0  0  0  0  0  0  0  0  0
   36.6500   27.4710   43.0280 C   0  0  0  0  0  0  0  0  0  0  0  0
   36.5640   28.1030   41.6710 C   0  0  0  0  0  0  0  0  0  0  0  0
   37.6860   28.9510   41.2390 C   0  0  0  0  0  0  0  0  0  0  0  0
   39.1150   26.9550   41.9880 H   0  0  0  0  0  0  0  0  0  0  0  0
   40.0600   27.6370   43.2880 H   0  0  0  0  0  0  0  0  0  0  0  0
   38.2030   26.4940   44.1370 H   0  0  0  0  0  0  0  0  0  0  0  0
   38.0840   28.2250   44.4980 H   0  0  0  0  0  0  0  0  0  0  0  0
   36.2310   26.4570   42.9080 H   0  0  0  0  0  0  0  0  0  0  0  0
   35.9350   28.0550   43.6590 H   0  0  0  0  0  0  0  0  0  0  0  0
   35.7330   27.9930   41.0570 H   0  0  0  0  0  0  0  0  0  0  0  0
   37.6020   29.6740   40.0170 C   0  0  0  0  0  0  0  0  0  0  0  0
   37.0210   30.8820   39.8830 C   0  0  0  0  0  0  0  0  0  0  0  0
   36.5720   31.3960   40.7080 H   0  0  0  0  0  0  0  0  0  0  0  0
   36.9500   31.5660   38.6880 C   0  0  0  0  0  0  0  0  0  0  0  0
   36.4780   32.5350   38.6030 H   0  0  0  0  0  0  0  0  0  0  0  0
   37.4850   31.0330   37.5340 C   0  0  0  0  0  3  0  0  0  0  0  0
   38.0770   29.7860   37.7110 C   0  0  0  0  0  3  0  0  0  0  0  0
   38.1150   29.1770   38.8870 N   0  0  0  0  0  0  0  0  0  0  0  0
   39.1800   30.2250   42.6290 C   0  0  0  0  0  0  0  0  0  0  0  0
   39.1440   30.4320   43.7360 H   0  0  0  0  0  0  0  0  0  0  0  0
   38.5730   31.0640   42.1960 H   0  0  0  0  0  0  0  0  0  0  0  0
   40.5970   30.5110   42.2060 C   0  0  0  0  0  0  0  0  0  0  0  0
   41.0100   31.1910   43.0030 H   0  0  0  0  0  0  0  0  0  0  0  0
   41.2890   29.6910   42.1720 H   0  0  0  0  0  0  0  0  0  0  0  0
   40.5350   31.3900   41.0220 C   0  0  0  0  0  0  0  0  0  0  0  0
   41.0780   31.0210   39.8110 C   0  0  0  0  0  0  0  0  0  0  0  0
   40.9920   31.8840   38.7150 C   0  0  0  0  0  0  0  0  0  0  0  0
   40.3630   33.0680   38.9160 N   0  0  0  0  0  0  0  0  0  0  0  0
   39.8460   33.3980   40.1030 C   0  0  0  0  0  0  0  0  0  0  0  0
   39.9420   32.5590   41.1250 N   0  0  0  0  0  0  0  0  0  0  0  0
   41.5600   30.0630   39.7400 H   0  0  0  0  0  0  0  0  0  0  0  0
   41.4460   31.5060   37.8190 H   0  0  0  0  0  0  0  0  0  0  0  0
   39.3460   34.3710   40.2090 H   0  0  0  0  0  0  0  0  0  0  0  0
  1 22  1  0  0  0  0
  1  2  1  0  0  0  0
  2  8  1  0  0  0  0
  2  3  1  0  0  0  0
  3  9  1  0  0  0  0
  3 10  1  0  0  0  0
  4 12  1  0  0  0  0
  4  3  1  0  0  0  0
  5  4  1  0  0  0  0
  6  5  2  0  0  0  0
  6  1  1  0  0  0  0
  7  2  1  0  0  0  0
 11  4  1  0  0  0  0
 13  5  1  0  0  0  0
 14  6  1  0  0  0  0
 15 14  1  0  0  0  0
 15 16  1  0  0  0  0
 17 15  2  0  0  0  0
 18 17  1  0  0  0  0
 19 20  2  0  0  0  0
 19 17  1  0  0  0  0
 20 21  1  0  0  0  0
 21 14  2  0  0  0  0
 22 23  1  0  0  0  0
 24 22  1  0  0  0  0
 25 22  1  0  0  0  0
 25 26  1  0  0  0  0
 27 25  1  0  0  0  0
 28 33  1  0  0  0  0
 28 25  1  0  0  0  0
 29 28  2  0  0  0  0
 30 31  2  0  0  0  0
 30 29  1  0  0  0  0
 31 32  1  0  0  0  0
 32 36  1  0  0  0  0
 32 33  2  0  0  0  0
 34 29  1  0  0  0  0
 35 30  1  0  0  0  0
M  END
>  <minimizedAffinity>
-4.75224447

$$$$

 OpenBabel03252507013D

 36 38  0  0  0  0  0  0  0  0999 V2000
   37.8280   29.6850   39.0100 N   0  0  0  0  0  0  0  0  0  0  0  0
   38.4700   30.6370   38.1780 C   0  0  0  0  0  0  0  0  0  0  0  0
   37.4230   31.7620   38.1600 C   0  0  0  0  0  0  0  0  0  0  0  0
   37.0840   32.2980   39.4810 C   0  0  0  0  0  0  0  0  0  0  0  0
   37.4480   31.4540   40.6670 C   0  0  0  0  0  0  0  0  0  0  0  0
   37.8120   30.0500   40.4200 C   0  0  0  0  0  0  0  0  0  0  0  0
   39.3590   31.0570   38.6360 H   0  0  0  0  0  0  0  0  0  0  0  0
   38.7160   30.3830   37.1590 H   0  0  0  0  0  0  0  0  0  0  0  0
   37.8810   32.5410   37.5060 H   0  0  0  0  0  0  0  0  0  0  0  0
   36.5700   31.3500   37.5780 H   0  0  0  0  0  0  0  0  0  0  0  0
   37.5280   33.2890   39.6780 H   0  0  0  0  0  0  0  0  0  0  0  0
   35.9740   32.4110   39.5450 H   0  0  0  0  0  0  0  0  0  0  0  0
   37.4120   31.8160   41.6400 H   0  0  0  0  0  0  0  0  0  0  0  0
   38.0450   29.1720   41.5150 C   0  0  0  0  0  0  0  0  0  0  0  0
   37.1740   28.9610   42.5210 C   0  0  0  0  0  0  0  0  0  0  0  0
   36.2230   29.4490   42.5680 H   0  0  0  0  0  0  0  0  0  0  0  0
   37.4210   28.1060   43.5750 C   0  0  0  0  0  0  0  0  0  0  0  0
   36.7080   27.9510   44.3730 H   0  0  0  0  0  0  0  0  0  0  0  0
   38.6040   27.4030   43.6560 C   0  0  0  0  0  3  0  0  0  0  0  0
   39.4770   27.6460   42.5990 C   0  0  0  0  0  3  0  0  0  0  0  0
   39.1840   28.4810   41.6130 N   0  0  0  0  0  0  0  0  0  0  0  0
   37.0680   28.6370   38.6220 C   0  0  0  0  0  0  0  0  0  0  0  0
   37.3380   27.6130   39.0070 H   0  0  0  0  0  0  0  0  0  0  0  0
   37.0550   28.4920   37.5090 H   0  0  0  0  0  0  0  0  0  0  0  0
   35.6260   28.8480   39.0030 C   0  0  0  0  0  0  0  0  0  0  0  0
   35.2880   27.8640   39.4350 H   0  0  0  0  0  0  0  0  0  0  0  0
   35.4070   29.5630   39.7720 H   0  0  0  0  0  0  0  0  0  0  0  0
   34.8480   28.9440   37.7520 C   0  0  0  0  0  0  0  0  0  0  0  0
   33.4710   28.9790   37.7520 C   0  0  0  0  0  0  0  0  0  0  0  0
   32.7760   29.0750   36.5420 C   0  0  0  0  0  0  0  0  0  0  0  0
   33.5200   29.1290   35.4110 N   0  0  0  0  0  0  0  0  0  0  0  0
   34.8550   29.0930   35.4440 C   0  0  0  0  0  0  0  0  0  0  0  0
   35.4890   29.0020   36.6050 N   0  0  0  0  0  0  0  0  0  0  0  0
   32.9590   28.9310   38.6950 H   0  0  0  0  0  0  0  0  0  0  0  0
   31.7080   29.0940   36.6480 H   0  0  0  0  0  0  0  0  0  0  0  0
   35.4080   29.1400   34.4960 H   0  0  0  0  0  0  0  0  0  0  0  0
  1  6  1  0  0  0  0
  2  7  1  0  0  0  0
  2  1  1  0  0  0  0
  3  2  1  0  0  0  0
  3  4  1  0  0  0  0
  4 12  1  0  0  0  0
  4 11  1  0  0  0  0
  4  5  1  0  0  0  0
  5 13  1  0  0  0  0
  6  5  2  0  0  0  0
  6 14  1  0  0  0  0
  8  2  1  0  0  0  0
  9  3  1  0  0  0  0
 10  3  1  0  0  0  0
 14 21  2  0  0  0  0
 14 15  1  0  0  0  0
 15 16  1  0  0  0  0
 15 17  2  0  0  0  0
 17 19  1  0  0  0  0
 17 18  1  0  0  0  0
 20 19  2  0  0  0  0
 21 20  1  0  0  0  0
 22 25  1  0  0  0  0
 22 23  1  0  0  0  0
 22  1  1  0  0  0  0
 24 22  1  0  0  0  0
 25 26  1  0  0  0  0
 25 27  1  0  0  0  0
 28 25  1  0  0  0  0
 29 28  1  0  0  0  0
 29 34  1  0  0  0  0
 30 35  1  0  0  0  0
 30 29  2  0  0  0  0
 31 32  2  0  0  0  0
 31 30  1  0  0  0  0
 32 33  1  0  0  0  0
 33 28  2  0  0  0  0
 36 32  1  0  0  0  0
M  END
>  <minimizedAffinity>
-4.72088861

$$$$

 OpenBabel03252507013D

 36 38  0  0  0  0  0  0  0  0999 V2000
   37.5580   29.6670   40.9000 N   0  0  0  0  0  0  0  0  0  0  0  0
   36.7940   30.8590   40.9470 C   0  0  0  0  0  0  0  0  0  0  0  0
   36.8670   31.3100   39.4790 C   0  0  0  0  0  0  0  0  0  0  0  0
   36.3430   30.3350   38.5170 C   0  0  0  0  0  0  0  0  0  0  0  0
   36.2000   28.9220   38.9980 C   0  0  0  0  0  0  0  0  0  0  0  0
   36.8770   28.5550   40.2520 C   0  0  0  0  0  0  0  0  0  0  0  0
   35.7470   30.6740   41.1550 H   0  0  0  0  0  0  0  0  0  0  0  0
   37.1130   31.6800   41.5710 H   0  0  0  0  0  0  0  0  0  0  0  0
   36.2810   32.2590   39.4620 H   0  0  0  0  0  0  0  0  0  0  0  0
   37.9260   31.6120   39.3240 H   0  0  0  0  0  0  0  0  0  0  0  0
   35.3530   30.6100   38.1120 H   0  0  0  0  0  0  0  0  0  0  0  0
   37.0500   30.2710   37.6540 H   0  0  0  0  0  0  0  0  0  0  0  0
   35.6800   28.2010   38.4600 H   0  0  0  0  0  0  0  0  0  0  0  0
   36.8790   27.2010   40.6890 C   0  0  0  0  0  0  0  0  0  0  0  0
   36.7260   26.1370   39.8770 C   0  0  0  0  0  0  0  0  0  0  0  0
   36.5900   26.2370   38.8200 H   0  0  0  0  0  0  0  0  0  0  0  0
   36.7310   24.8310   40.3220 C   0  0  0  0  0  0  0  0  0  0  0  0
   36.6060   23.9910   39.6520 H   0  0  0  0  0  0  0  0  0  0  0  0
   36.8960   24.5390   41.6590 C   0  0  0  0  0  3  0  0  0  0  0  0
   37.0520   25.6630   42.4660 C   0  0  0  0  0  3  0  0  0  0  0  0
   37.0390   26.8940   41.9800 N   0  0  0  0  0  0  0  0  0  0  0  0
   38.8740   29.5240   41.1770 C   0  0  0  0  0  0  0  0  0  0  0  0
   39.6200   29.8730   40.4080 H   0  0  0  0  0  0  0  0  0  0  0  0
   39.1730   28.4560   41.3510 H   0  0  0  0  0  0  0  0  0  0  0  0
   39.2370   30.2410   42.4510 C   0  0  0  0  0  0  0  0  0  0  0  0
   38.3970   30.9710   42.6270 H   0  0  0  0  0  0  0  0  0  0  0  0
   39.2840   29.6670   43.3570 H   0  0  0  0  0  0  0  0  0  0  0  0
   40.3830   31.1210   42.1510 C   0  0  0  0  0  0  0  0  0  0  0  0
   41.5570   31.0570   42.8680 C   0  0  0  0  0  0  0  0  0  0  0  0
   42.6190   31.9090   42.5460 C   0  0  0  0  0  0  0  0  0  0  0  0
   42.4220   32.7710   41.5190 N   0  0  0  0  0  0  0  0  0  0  0  0
   41.2700   32.8090   40.8420 C   0  0  0  0  0  0  0  0  0  0  0  0
   40.2800   31.9890   41.1690 N   0  0  0  0  0  0  0  0  0  0  0  0
   41.6280   30.3440   43.6680 H   0  0  0  0  0  0  0  0  0  0  0  0
   43.4880   31.7830   43.1620 H   0  0  0  0  0  0  0  0  0  0  0  0
   41.1660   33.5280   40.0180 H   0  0  0  0  0  0  0  0  0  0  0  0
  1  2  1  0  0  0  0
  1 22  1  0  0  0  0
  2  7  1  0  0  0  0
  2  8  1  0  0  0  0
  3  2  1  0  0  0  0
  4  5  1  0  0  0  0
  4  3  1  0  0  0  0
  5  6  2  0  0  0  0
  6 14  1  0  0  0  0
  6  1  1  0  0  0  0
  9  3  1  0  0  0  0
 10  3  1  0  0  0  0
 11  4  1  0  0  0  0
 12  4  1  0  0  0  0
 13  5  1  0  0  0  0
 14 21  1  0  0  0  0
 15 17  1  0  0  0  0
 15 14  2  0  0  0  0
 16 15  1  0  0  0  0
 17 19  2  0  0  0  0
 18 17  1  0  0  0  0
 19 20  1  0  0  0  0
 21 20  2  0  0  0  0
 22 24  1  0  0  0  0
 22 25  1  0  0  0  0
 23 22  1  0  0  0  0
 25 26  1  0  0  0  0
 25 27  1  0  0  0  0
 28 25  1  0  0  0  0
 28 29  1  0  0  0  0
 29 34  1  0  0  0  0
 30 29  2  0  0  0  0
 30 35  1  0  0  0  0
 31 30  1  0  0  0  0
 32 33  1  0  0  0  0
 32 31  2  0  0  0  0
 33 28  2  0  0  0  0
 36 32  1  0  0  0  0
M  END
>  <minimizedAffinity>
-4.68930006

$$$$
