
 OpenBabel03252508393D

 40 43  0  0  0  0  0  0  0  0999 V2000
   45.1080   33.9630   40.7220 C   0  0  0  0  0  0  0  0  0  0  0  0
   44.0670   33.6350   39.9050 C   0  0  0  0  0  0  0  0  0  0  0  0
   44.3630   33.1210   38.6720 C   0  0  0  0  0  0  0  0  0  0  0  0
   45.6410   32.9240   38.2250 C   0  0  0  0  0  0  0  0  0  0  0  0
   46.6770   33.2640   39.0700 C   0  0  0  0  0  0  0  0  0  0  0  0
   46.4290   33.7810   40.3130 C   0  0  0  0  0  0  0  0  0  0  0  0
   43.5330   32.8610   38.0250 H   0  0  0  0  0  0  0  0  0  0  0  0
   45.7840   32.5090   37.2270 H   0  0  0  0  0  0  0  0  0  0  0  0
   47.6920   33.1030   38.7030 H   0  0  0  0  0  0  0  0  0  0  0  0
   40.7890   35.2930   40.8000 C   0  0  0  0  0  0  0  0  0  0  0  0
   42.0870   35.1110   40.2880 C   0  0  0  0  0  0  0  0  0  0  0  0
   42.7300   33.8610   40.4180 C   0  0  0  0  0  0  0  0  0  0  0  0
   42.0100   32.9000   41.0540 N   0  0  0  0  0  0  0  0  0  0  0  0
   40.7760   33.0970   41.5320 C   0  0  0  0  0  0  0  0  0  0  0  0
   40.1740   34.2870   41.4040 N   0  0  0  0  0  0  0  0  0  0  0  0
   40.1970   36.5640   40.6400 N   0  0  0  0  0  0  0  0  0  0  0  0
   42.6100   35.9280   39.7870 H   0  0  0  0  0  0  0  0  0  0  0  0
   40.2770   32.2660   42.0280 H   0  0  0  0  0  0  0  0  0  0  0  0
   39.5310   36.8360   41.4010 H   0  0  0  0  0  0  0  0  0  0  0  0
   40.3610   37.2310   39.8540 H   0  0  0  0  0  0  0  0  0  0  0  0
   47.5800   34.1110   41.1350 C   0  0  0  0  0  0  0  0  0  0  0  0
   48.1310   35.3590   40.9130 C   0  0  0  0  0  0  0  0  0  0  0  0
   49.2400   35.8380   41.6120 C   0  0  0  0  0  0  0  0  0  0  0  0
   49.8080   35.0320   42.5630 C   0  0  0  0  0  0  0  0  0  0  0  0
   49.2740   33.7800   42.8030 C   0  0  0  0  0  0  0  0  0  0  0  0
   48.1700   33.3250   42.0950 C   0  0  0  0  0  0  0  0  0  0  0  0
   47.7310   36.0410   40.1770 H   0  0  0  0  0  0  0  0  0  0  0  0
   49.6440   36.8350   41.4030 H   0  0  0  0  0  0  0  0  0  0  0  0
   50.6690   35.3390   43.1420 H   0  0  0  0  0  0  0  0  0  0  0  0
   49.6420   33.0700   43.5270 H   0  0  0  0  0  0  0  0  0  0  0  0
   47.5540   32.0030   42.3020 C   0  0  0  0  0  0  0  0  0  0  0  0
   47.9150   30.9280   41.4890 C   0  0  0  0  0  0  0  0  0  0  0  0
   48.6470   31.0630   40.7060 H   0  0  0  0  0  0  0  0  0  0  0  0
   47.3470   29.6790   41.6700 C   0  0  0  0  0  0  0  0  0  0  0  0
   47.6190   28.8430   41.0460 H   0  0  0  0  0  0  0  0  0  0  0  0
   46.4000   29.4990   42.6820 C   0  0  0  0  0  3  0  0  0  0  0  0
   46.0820   30.5970   43.4550 C   0  0  0  0  0  3  0  0  0  0  0  0
   46.6450   31.8230   43.2720 N   0  0  0  0  0  0  0  0  0  0  0  0
   44.7030   34.9580   43.1040 N   0  0  0  0  0  0  0  0  0  0  0  0
   44.8780   34.5080   42.0320 C   0  0  0  0  0  0  0  0  0  0  0  0
  1 40  1  0  0  0  0
  2 12  1  0  0  0  0
  2  1  2  0  0  0  0
  3  2  1  0  0  0  0
  4  3  2  0  0  0  0
  4  5  1  0  0  0  0
  5  6  2  0  0  0  0
  6  1  1  0  0  0  0
  6 21  1  0  0  0  0
  7  3  1  0  0  0  0
  8  4  1  0  0  0  0
  9  5  1  0  0  0  0
 10 15  1  0  0  0  0
 11 12  1  0  0  0  0
 11 10  2  0  0  0  0
 12 13  2  0  0  0  0
 13 14  1  0  0  0  0
 14 18  1  0  0  0  0
 15 14  2  0  0  0  0
 16 10  1  0  0  0  0
 16 19  1  0  0  0  0
 17 11  1  0  0  0  0
 20 16  1  0  0  0  0
 21 26  1  0  0  0  0
 22 21  2  0  0  0  0
 22 23  1  0  0  0  0
 23 24  2  0  0  0  0
 24 25  1  0  0  0  0
 24 29  1  0  0  0  0
 25 30  1  0  0  0  0
 26 31  1  0  0  0  0
 26 25  2  0  0  0  0
 27 22  1  0  0  0  0
 28 23  1  0  0  0  0
 31 38  1  0  0  0  0
 32 34  1  0  0  0  0
 32 31  2  0  0  0  0
 33 32  1  0  0  0  0
 34 36  2  0  0  0  0
 35 34  1  0  0  0  0
 36 37  1  0  0  0  0
 38 37  2  0  0  0  0
 40 39  3  0  0  0  0
M  END
>  <minimizedAffinity>
-5.96984863

>  <minimizedRMSD>
0.531100988

$$$$
