
 OpenBabel03242513323D

 36 39  0  0  0  0  0  0  0  0999 V2000
   37.5920   26.8490   41.5080 C   0  0  0  0  0  0  0  0  0  0  0  0
   38.4050   25.7600   41.7210 C   0  0  0  0  0  0  0  0  0  0  0  0
   39.2170   25.8000   42.8190 C   0  0  0  0  0  0  0  0  0  0  0  0
   39.2330   26.8790   43.6860 C   0  0  0  0  0  0  0  0  0  0  0  0
   38.4180   27.9560   43.4610 C   0  0  0  0  0  0  0  0  0  0  0  0
   37.5710   27.9620   42.3530 C   0  0  0  0  0  0  0  0  0  0  0  0
   39.8750   24.9560   43.0220 H   0  0  0  0  0  0  0  0  0  0  0  0
   39.8700   26.9120   44.5490 H   0  0  0  0  0  0  0  0  0  0  0  0
   38.3590   28.8280   44.0670 H   0  0  0  0  0  0  0  0  0  0  0  0
   37.7580   22.3980   40.1470 C   0  0  0  0  0  0  0  0  0  0  0  0
   37.7950   23.4370   41.0850 C   0  0  0  0  0  0  0  0  0  0  0  0
   38.3470   24.6630   40.7860 C   0  0  0  0  0  0  0  0  0  0  0  0
   38.8450   24.7750   39.5190 N   0  0  0  0  0  0  0  0  0  0  0  0
   38.8160   23.7840   38.6070 C   0  0  0  0  0  0  0  0  0  0  0  0
   38.2650   22.5900   38.9350 N   0  0  0  0  0  0  0  0  0  0  0  0
   37.3130   21.4690   40.4470 H   0  0  0  0  0  0  0  0  0  0  0  0
   37.3850   23.2880   42.0710 H   0  0  0  0  0  0  0  0  0  0  0  0
   39.2390   23.9880   37.6360 H   0  0  0  0  0  0  0  0  0  0  0  0
   36.7490   26.8580   40.4080 O   0  0  0  0  0  0  0  0  0  0  0  0
   35.7550   26.7780   40.5250 H   0  0  0  0  0  0  0  0  0  0  0  0
   36.7300   29.0090   42.0700 O   0  0  0  0  0  0  0  0  0  0  0  0
   37.0830   30.1590   41.4630 C   0  0  0  0  0  0  0  0  0  0  0  0
   36.3540   30.9680   40.6160 C   0  0  0  0  0  0  0  0  0  0  0  0
   36.9200   32.0950   40.1160 C   0  0  0  0  0  0  0  0  0  0  0  0
   38.2550   32.3670   40.5110 C   0  0  0  0  0  0  0  0  0  0  0  0
   38.6700   30.9800   41.6060 S   0  0  0  0  0  0  0  0  0  0  0  0
   35.3390   30.6970   40.3580 H   0  0  0  0  0  0  0  0  0  0  0  0
   36.5050   32.8150   39.4610 H   0  0  0  0  0  0  0  0  0  0  0  0
   39.1790   33.4450   40.1970 C   0  0  0  0  0  0  0  0  0  0  0  0
   38.7540   34.7270   40.3440 C   0  0  0  0  0  0  0  0  0  0  0  0
   37.7860   35.0360   40.6760 H   0  0  0  0  0  0  0  0  0  0  0  0
   39.7280   35.6770   40.0130 C   0  0  0  0  0  0  0  0  0  0  0  0
   39.5190   36.7400   40.0860 H   0  0  0  0  0  0  0  0  0  0  0  0
   41.0030   35.3100   39.5770 C   0  0  0  0  0  3  0  0  0  0  0  0
   41.3510   33.9790   39.4550 C   0  0  0  0  0  3  0  0  0  0  0  0
   40.3930   33.0600   39.7810 N   0  0  0  0  0  0  0  0  0  0  0  0
  1  2  2  0  0  0  0
  1  6  1  0  0  0  0
  2  3  1  0  0  0  0
  3  7  1  0  0  0  0
  3  4  2  0  0  0  0
  4  8  1  0  0  0  0
  5  4  1  0  0  0  0
  5  9  1  0  0  0  0
  6  5  2  0  0  0  0
 10 16  1  0  0  0  0
 10 11  1  0  0  0  0
 11 17  1  0  0  0  0
 12 11  2  0  0  0  0
 12  2  1  0  0  0  0
 13 12  1  0  0  0  0
 14 15  1  0  0  0  0
 14 13  2  0  0  0  0
 15 10  2  0  0  0  0
 18 14  1  0  0  0  0
 19 20  1  0  0  0  0
 19  1  1  0  0  0  0
 21  6  1  0  0  0  0
 22 26  1  0  0  0  0
 22 21  1  0  0  0  0
 23 22  2  0  0  0  0
 24 25  2  0  0  0  0
 24 23  1  0  0  0  0
 25 26  1  0  0  0  0
 27 23  1  0  0  0  0
 28 24  1  0  0  0  0
 29 30  1  0  0  0  0
 29 25  1  0  0  0  0
 30 31  1  0  0  0  0
 32 33  1  0  0  0  0
 32 30  2  0  0  0  0
 34 32  1  0  0  0  0
 35 34  2  0  0  0  0
 35 36  1  0  0  0  0
 36 29  2  0  0  0  0
M  END
>  <minimizedAffinity>
-6.38085985

$$$$

 OpenBabel03242513323D

 36 39  0  0  0  0  0  0  0  0999 V2000
   38.9210   31.4200   41.5000 C   0  0  0  0  0  0  0  0  0  0  0  0
   38.4160   32.3790   40.6520 C   0  0  0  0  0  0  0  0  0  0  0  0
   37.1330   32.2050   40.2160 C   0  0  0  0  0  0  0  0  0  0  0  0
   36.3640   31.1200   40.6000 C   0  0  0  0  0  0  0  0  0  0  0  0
   36.8810   30.1730   41.4450 C   0  0  0  0  0  0  0  0  0  0  0  0
   38.1860   30.3070   41.9170 C   0  0  0  0  0  0  0  0  0  0  0  0
   36.6980   32.9430   39.5450 H   0  0  0  0  0  0  0  0  0  0  0  0
   35.3560   30.9820   40.2590 H   0  0  0  0  0  0  0  0  0  0  0  0
   36.3700   29.3090   41.7940 H   0  0  0  0  0  0  0  0  0  0  0  0
   39.8270   35.8470   40.2290 C   0  0  0  0  0  0  0  0  0  0  0  0
   38.9780   34.7980   40.6040 C   0  0  0  0  0  0  0  0  0  0  0  0
   39.2620   33.4890   40.2850 C   0  0  0  0  0  0  0  0  0  0  0  0
   40.4210   33.3060   39.5860 N   0  0  0  0  0  0  0  0  0  0  0  0
   41.2450   34.3050   39.2190 C   0  0  0  0  0  0  0  0  0  0  0  0
   40.9360   35.5830   39.5490 N   0  0  0  0  0  0  0  0  0  0  0  0
   39.5450   36.8440   40.5100 H   0  0  0  0  0  0  0  0  0  0  0  0
   38.0750   35.0060   41.1560 H   0  0  0  0  0  0  0  0  0  0  0  0
   42.1340   34.0410   38.6690 H   0  0  0  0  0  0  0  0  0  0  0  0
   40.2180   31.5500   41.9700 O   0  0  0  0  0  0  0  0  0  0  0  0
   40.3930   31.7680   42.9350 H   0  0  0  0  0  0  0  0  0  0  0  0
   38.7640   29.3950   42.7640 O   0  0  0  0  0  0  0  0  0  0  0  0
   38.8510   28.0680   42.5500 C   0  0  0  0  0  0  0  0  0  0  0  0
   39.1540   27.0510   43.4320 C   0  0  0  0  0  0  0  0  0  0  0  0
   39.1850   25.7680   42.9900 C   0  0  0  0  0  0  0  0  0  0  0  0
   38.8980   25.5620   41.6170 C   0  0  0  0  0  0  0  0  0  0  0  0
   38.5840   27.2350   40.9850 S   0  0  0  0  0  0  0  0  0  0  0  0
   39.3620   27.2840   44.4680 H   0  0  0  0  0  0  0  0  0  0  0  0
   39.3980   24.8830   43.5290 H   0  0  0  0  0  0  0  0  0  0  0  0
   38.8350   24.3670   40.7890 C   0  0  0  0  0  0  0  0  0  0  0  0
   37.9510   23.3920   41.1240 C   0  0  0  0  0  0  0  0  0  0  0  0
   37.2780   23.4090   41.9540 H   0  0  0  0  0  0  0  0  0  0  0  0
   37.9800   22.2920   40.2560 C   0  0  0  0  0  0  0  0  0  0  0  0
   37.3230   21.4430   40.4110 H   0  0  0  0  0  0  0  0  0  0  0  0
   38.8460   22.2360   39.1620 C   0  0  0  0  0  3  0  0  0  0  0  0
   39.7150   23.2760   38.8940 C   0  0  0  0  0  3  0  0  0  0  0  0
   39.6780   24.3430   39.7480 N   0  0  0  0  0  0  0  0  0  0  0  0
  1  6  1  0  0  0  0
  1 19  1  0  0  0  0
  2  1  2  0  0  0  0
  3  4  2  0  0  0  0
  3  2  1  0  0  0  0
  4  5  1  0  0  0  0
  5  9  1  0  0  0  0
  5  6  2  0  0  0  0
  6 21  1  0  0  0  0
  7  3  1  0  0  0  0
  8  4  1  0  0  0  0
 10 16  1  0  0  0  0
 10 11  1  0  0  0  0
 11 17  1  0  0  0  0
 12 11  2  0  0  0  0
 12  2  1  0  0  0  0
 13 12  1  0  0  0  0
 14 15  1  0  0  0  0
 14 13  2  0  0  0  0
 15 10  2  0  0  0  0
 18 14  1  0  0  0  0
 19 20  1  0  0  0  0
 22 21  1  0  0  0  0
 22 23  2  0  0  0  0
 23 27  1  0  0  0  0
 24 23  1  0  0  0  0
 24 28  1  0  0  0  0
 25 24  2  0  0  0  0
 26 25  1  0  0  0  0
 26 22  1  0  0  0  0
 29 30  1  0  0  0  0
 29 25  1  0  0  0  0
 30 31  1  0  0  0  0
 32 33  1  0  0  0  0
 32 30  2  0  0  0  0
 34 32  1  0  0  0  0
 35 34  2  0  0  0  0
 35 36  1  0  0  0  0
 36 29  2  0  0  0  0
M  END
>  <minimizedAffinity>
-6.28437424

$$$$

 OpenBabel03242513323D

 36 39  0  0  0  0  0  0  0  0999 V2000
   38.5050   31.7200   41.0130 C   0  0  0  0  0  0  0  0  0  0  0  0
   38.4640   32.6370   39.9890 C   0  0  0  0  0  0  0  0  0  0  0  0
   37.5090   32.4520   39.0300 C   0  0  0  0  0  0  0  0  0  0  0  0
   36.6170   31.3940   39.0720 C   0  0  0  0  0  0  0  0  0  0  0  0
   36.6700   30.4880   40.0980 C   0  0  0  0  0  0  0  0  0  0  0  0
   37.6270   30.6350   41.1010 C   0  0  0  0  0  0  0  0  0  0  0  0
   37.4450   33.1580   38.2030 H   0  0  0  0  0  0  0  0  0  0  0  0
   35.8670   31.2470   38.3190 H   0  0  0  0  0  0  0  0  0  0  0  0
   36.0300   29.6470   40.2160 H   0  0  0  0  0  0  0  0  0  0  0  0
   41.4470   34.8150   39.2400 C   0  0  0  0  0  0  0  0  0  0  0  0
   40.5450   33.7450   39.2030 C   0  0  0  0  0  0  0  0  0  0  0  0
   39.4180   33.7200   39.9950 C   0  0  0  0  0  0  0  0  0  0  0  0
   39.2600   34.8100   40.8020 N   0  0  0  0  0  0  0  0  0  0  0  0
   40.1180   35.8460   40.8470 C   0  0  0  0  0  0  0  0  0  0  0  0
   41.2180   35.8380   40.0550 N   0  0  0  0  0  0  0  0  0  0  0  0
   42.3040   34.7690   38.5960 H   0  0  0  0  0  0  0  0  0  0  0  0
   40.7250   32.9100   38.5440 H   0  0  0  0  0  0  0  0  0  0  0  0
   39.8900   36.6540   41.5240 H   0  0  0  0  0  0  0  0  0  0  0  0
   39.4560   31.8630   42.0110 O   0  0  0  0  0  0  0  0  0  0  0  0
   39.1840   32.1290   42.9410 H   0  0  0  0  0  0  0  0  0  0  0  0
   37.7340   29.7640   42.1550 O   0  0  0  0  0  0  0  0  0  0  0  0
   37.5060   28.4380   42.1060 C   0  0  0  0  0  0  0  0  0  0  0  0
   36.9510   27.6030   43.0540 C   0  0  0  0  0  0  0  0  0  0  0  0
   36.8160   26.2800   42.7840 C   0  0  0  0  0  0  0  0  0  0  0  0
   37.2680   25.8400   41.5140 C   0  0  0  0  0  0  0  0  0  0  0  0
   37.8820   27.3560   40.7260 S   0  0  0  0  0  0  0  0  0  0  0  0
   36.6280   28.0090   44.0030 H   0  0  0  0  0  0  0  0  0  0  0  0
   36.4170   25.5130   43.3940 H   0  0  0  0  0  0  0  0  0  0  0  0
   37.2940   24.5350   40.8710 C   0  0  0  0  0  0  0  0  0  0  0  0
   38.3570   23.7210   41.0990 C   0  0  0  0  0  0  0  0  0  0  0  0
   39.1990   23.9420   41.7180 H   0  0  0  0  0  0  0  0  0  0  0  0
   38.2710   22.4940   40.4290 C   0  0  0  0  0  0  0  0  0  0  0  0
   39.0550   21.7500   40.5250 H   0  0  0  0  0  0  0  0  0  0  0  0
   37.1850   22.1700   39.6130 C   0  0  0  0  0  3  0  0  0  0  0  0
   36.1440   23.0610   39.4360 C   0  0  0  0  0  3  0  0  0  0  0  0
   36.2380   24.2550   40.0950 N   0  0  0  0  0  0  0  0  0  0  0  0
  1  6  1  0  0  0  0
  1 19  1  0  0  0  0
  2 12  1  0  0  0  0
  2  1  2  0  0  0  0
  3  4  2  0  0  0  0
  3  2  1  0  0  0  0
  4  5  1  0  0  0  0
  5  9  1  0  0  0  0
  5  6  2  0  0  0  0
  6 21  1  0  0  0  0
  7  3  1  0  0  0  0
  8  4  1  0  0  0  0
 10 15  1  0  0  0  0
 11 10  2  0  0  0  0
 11 12  1  0  0  0  0
 12 13  2  0  0  0  0
 13 14  1  0  0  0  0
 14 18  1  0  0  0  0
 15 14  2  0  0  0  0
 16 10  1  0  0  0  0
 17 11  1  0  0  0  0
 19 20  1  0  0  0  0
 22 21  1  0  0  0  0
 22 23  2  0  0  0  0
 23 27  1  0  0  0  0
 24 23  1  0  0  0  0
 24 28  1  0  0  0  0
 25 24  2  0  0  0  0
 26 25  1  0  0  0  0
 26 22  1  0  0  0  0
 29 30  1  0  0  0  0
 29 25  1  0  0  0  0
 30 31  1  0  0  0  0
 32 33  1  0  0  0  0
 32 30  2  0  0  0  0
 34 32  1  0  0  0  0
 35 34  2  0  0  0  0
 35 36  1  0  0  0  0
 36 29  2  0  0  0  0
M  END
>  <minimizedAffinity>
-6.24814415

$$$$

 OpenBabel03242513323D

 36 39  0  0  0  0  0  0  0  0999 V2000
   40.1850   33.1020   39.2700 C   0  0  0  0  0  0  0  0  0  0  0  0
   40.9120   34.1470   39.7920 C   0  0  0  0  0  0  0  0  0  0  0  0
   40.2070   35.1580   40.3800 C   0  0  0  0  0  0  0  0  0  0  0  0
   38.8250   35.1480   40.4540 C   0  0  0  0  0  0  0  0  0  0  0  0
   38.1140   34.1000   39.9300 C   0  0  0  0  0  0  0  0  0  0  0  0
   38.7890   33.0440   39.3200 C   0  0  0  0  0  0  0  0  0  0  0  0
   40.7480   36.0020   40.8050 H   0  0  0  0  0  0  0  0  0  0  0  0
   38.2690   35.9410   40.9160 H   0  0  0  0  0  0  0  0  0  0  0  0
   37.0560   34.0030   39.9390 H   0  0  0  0  0  0  0  0  0  0  0  0
   44.5860   34.1080   40.6280 C   0  0  0  0  0  0  0  0  0  0  0  0
   43.1940   34.1510   40.7740 C   0  0  0  0  0  0  0  0  0  0  0  0
   42.3510   34.1050   39.6860 C   0  0  0  0  0  0  0  0  0  0  0  0
   42.9780   34.0150   38.4760 N   0  0  0  0  0  0  0  0  0  0  0  0
   44.3150   33.9740   38.3210 C   0  0  0  0  0  0  0  0  0  0  0  0
   45.1160   34.0210   39.4130 N   0  0  0  0  0  0  0  0  0  0  0  0
   45.1840   34.1480   41.5180 H   0  0  0  0  0  0  0  0  0  0  0  0
   42.7570   34.2230   41.7580 H   0  0  0  0  0  0  0  0  0  0  0  0
   44.6980   33.9020   37.3160 H   0  0  0  0  0  0  0  0  0  0  0  0
   40.8540   32.0510   38.6620 O   0  0  0  0  0  0  0  0  0  0  0  0
   40.8840   31.1450   39.0960 H   0  0  0  0  0  0  0  0  0  0  0  0
   38.1390   31.9660   38.7750 O   0  0  0  0  0  0  0  0  0  0  0  0
   37.6260   30.9270   39.4620 C   0  0  0  0  0  0  0  0  0  0  0  0
   36.5190   30.8750   40.2840 C   0  0  0  0  0  0  0  0  0  0  0  0
   36.1840   29.7030   40.8820 C   0  0  0  0  0  0  0  0  0  0  0  0
   37.0180   28.5890   40.6100 C   0  0  0  0  0  0  0  0  0  0  0  0
   38.2790   29.2580   39.4880 S   0  0  0  0  0  0  0  0  0  0  0  0
   35.9280   31.7670   40.4450 H   0  0  0  0  0  0  0  0  0  0  0  0
   35.3770   29.4950   41.5330 H   0  0  0  0  0  0  0  0  0  0  0  0
   36.9890   27.2030   41.0490 C   0  0  0  0  0  0  0  0  0  0  0  0
   36.9790   26.9450   42.3830 C   0  0  0  0  0  0  0  0  0  0  0  0
   36.9890   27.6720   43.1650 H   0  0  0  0  0  0  0  0  0  0  0  0
   36.9510   25.5770   42.6850 C   0  0  0  0  0  0  0  0  0  0  0  0
   36.9400   25.2330   43.7140 H   0  0  0  0  0  0  0  0  0  0  0  0
   36.9360   24.5990   41.6880 C   0  0  0  0  0  3  0  0  0  0  0  0
   36.9490   24.9510   40.3520 C   0  0  0  0  0  3  0  0  0  0  0  0
   36.9760   26.2880   40.0690 N   0  0  0  0  0  0  0  0  0  0  0  0
  1  6  2  0  0  0  0
  1  2  1  0  0  0  0
  2  3  2  0  0  0  0
  3  4  1  0  0  0  0
  3  7  1  0  0  0  0
  4  8  1  0  0  0  0
  5  9  1  0  0  0  0
  5  4  2  0  0  0  0
  6  5  1  0  0  0  0
 10 11  1  0  0  0  0
 10 16  1  0  0  0  0
 11 17  1  0  0  0  0
 12  2  1  0  0  0  0
 12 11  2  0  0  0  0
 13 12  1  0  0  0  0
 14 13  2  0  0  0  0
 14 15  1  0  0  0  0
 15 10  2  0  0  0  0
 18 14  1  0  0  0  0
 19 20  1  0  0  0  0
 19  1  1  0  0  0  0
 21  6  1  0  0  0  0
 21 22  1  0  0  0  0
 22 26  1  0  0  0  0
 22 23  2  0  0  0  0
 23 27  1  0  0  0  0
 23 24  1  0  0  0  0
 24 28  1  0  0  0  0
 25 24  2  0  0  0  0
 25 29  1  0  0  0  0
 26 25  1  0  0  0  0
 29 30  1  0  0  0  0
 30 32  2  0  0  0  0
 30 31  1  0  0  0  0
 32 33  1  0  0  0  0
 34 32  1  0  0  0  0
 35 34  2  0  0  0  0
 36 35  1  0  0  0  0
 36 29  2  0  0  0  0
M  END
>  <minimizedAffinity>
-5.93866825

$$$$

 OpenBabel03242513323D

 36 39  0  0  0  0  0  0  0  0999 V2000
   36.8510   26.5540   40.2980 C   0  0  0  0  0  0  0  0  0  0  0  0
   36.9520   25.4690   41.1380 C   0  0  0  0  0  0  0  0  0  0  0  0
   36.9860   25.7260   42.4790 C   0  0  0  0  0  0  0  0  0  0  0  0
   36.9250   27.0130   42.9850 C   0  0  0  0  0  0  0  0  0  0  0  0
   36.8260   28.0840   42.1360 C   0  0  0  0  0  0  0  0  0  0  0  0
   36.7860   27.8720   40.7590 C   0  0  0  0  0  0  0  0  0  0  0  0
   37.0650   24.8930   43.1760 H   0  0  0  0  0  0  0  0  0  0  0  0
   36.9530   27.2170   44.0380 H   0  0  0  0  0  0  0  0  0  0  0  0
   36.7730   29.1040   42.4290 H   0  0  0  0  0  0  0  0  0  0  0  0
   38.0750   22.0020   40.1800 C   0  0  0  0  0  0  0  0  0  0  0  0
   38.0550   23.2740   40.7640 C   0  0  0  0  0  0  0  0  0  0  0  0
   37.0120   24.1500   40.5550 C   0  0  0  0  0  0  0  0  0  0  0  0
   36.0190   23.6780   39.7460 N   0  0  0  0  0  0  0  0  0  0  0  0
   36.0250   22.4570   39.1780 C   0  0  0  0  0  0  0  0  0  0  0  0
   37.0670   21.6200   39.4040 N   0  0  0  0  0  0  0  0  0  0  0  0
   38.9180   21.3710   40.3850 H   0  0  0  0  0  0  0  0  0  0  0  0
   38.8710   23.5910   41.3950 H   0  0  0  0  0  0  0  0  0  0  0  0
   35.1850   22.1920   38.5570 H   0  0  0  0  0  0  0  0  0  0  0  0
   36.8130   26.3460   38.9280 O   0  0  0  0  0  0  0  0  0  0  0  0
   35.9680   26.5100   38.4100 H   0  0  0  0  0  0  0  0  0  0  0  0
   36.6880   28.8990   39.8550 O   0  0  0  0  0  0  0  0  0  0  0  0
   37.2110   30.1310   40.0030 C   0  0  0  0  0  0  0  0  0  0  0  0
   36.5750   31.3440   40.1720 C   0  0  0  0  0  0  0  0  0  0  0  0
   37.3150   32.4750   40.3040 C   0  0  0  0  0  0  0  0  0  0  0  0
   38.7240   32.3230   40.2560 C   0  0  0  0  0  0  0  0  0  0  0  0
   38.9570   30.5370   40.0220 S   0  0  0  0  0  0  0  0  0  0  0  0
   35.4940   31.3840   40.1990 H   0  0  0  0  0  0  0  0  0  0  0  0
   36.9890   33.4720   40.4380 H   0  0  0  0  0  0  0  0  0  0  0  0
   39.8240   33.2690   40.3560 C   0  0  0  0  0  0  0  0  0  0  0  0
   41.0680   32.7920   40.6180 C   0  0  0  0  0  0  0  0  0  0  0  0
   41.3330   31.7670   40.7630 H   0  0  0  0  0  0  0  0  0  0  0  0
   42.0440   33.7940   40.6910 C   0  0  0  0  0  0  0  0  0  0  0  0
   43.0810   33.5480   40.8950 H   0  0  0  0  0  0  0  0  0  0  0  0
   41.7350   35.1440   40.5070 C   0  0  0  0  0  3  0  0  0  0  0  0
   40.4390   35.5410   40.2440 C   0  0  0  0  0  3  0  0  0  0  0  0
   39.4950   34.5550   40.1750 N   0  0  0  0  0  0  0  0  0  0  0  0
  1  6  2  0  0  0  0
  1  2  1  0  0  0  0
  2  3  2  0  0  0  0
  3  4  1  0  0  0  0
  3  7  1  0  0  0  0
  4  8  1  0  0  0  0
  5  9  1  0  0  0  0
  5  4  2  0  0  0  0
  6  5  1  0  0  0  0
 10 16  1  0  0  0  0
 10 11  1  0  0  0  0
 11 17  1  0  0  0  0
 12 11  2  0  0  0  0
 12  2  1  0  0  0  0
 13 12  1  0  0  0  0
 14 15  1  0  0  0  0
 14 13  2  0  0  0  0
 15 10  2  0  0  0  0
 18 14  1  0  0  0  0
 19  1  1  0  0  0  0
 20 19  1  0  0  0  0
 21 22  1  0  0  0  0
 21  6  1  0  0  0  0
 22 26  1  0  0  0  0
 22 23  2  0  0  0  0
 23 27  1  0  0  0  0
 23 24  1  0  0  0  0
 24 28  1  0  0  0  0
 25 24  2  0  0  0  0
 25 29  1  0  0  0  0
 26 25  1  0  0  0  0
 29 30  1  0  0  0  0
 30 32  2  0  0  0  0
 30 31  1  0  0  0  0
 32 33  1  0  0  0  0
 34 32  1  0  0  0  0
 35 34  2  0  0  0  0
 36 35  1  0  0  0  0
 36 29  2  0  0  0  0
M  END
>  <minimizedAffinity>
-5.90087128

$$$$

 OpenBabel03242513323D

 36 39  0  0  0  0  0  0  0  0999 V2000
   40.6270   33.3090   40.4620 C   0  0  0  0  0  0  0  0  0  0  0  0
   41.3260   34.3860   39.9690 C   0  0  0  0  0  0  0  0  0  0  0  0
   40.6210   35.5370   39.7580 C   0  0  0  0  0  0  0  0  0  0  0  0
   39.2650   35.6310   40.0230 C   0  0  0  0  0  0  0  0  0  0  0  0
   38.5830   34.5490   40.5140 C   0  0  0  0  0  0  0  0  0  0  0  0
   39.2590   33.3520   40.7450 C   0  0  0  0  0  0  0  0  0  0  0  0
   41.1400   36.4120   39.3690 H   0  0  0  0  0  0  0  0  0  0  0  0
   38.7100   36.5340   39.8590 H   0  0  0  0  0  0  0  0  0  0  0  0
   37.5460   34.5240   40.7480 H   0  0  0  0  0  0  0  0  0  0  0  0
   44.6450   33.9480   38.2390 C   0  0  0  0  0  0  0  0  0  0  0  0
   43.2680   34.0950   38.4470 C   0  0  0  0  0  0  0  0  0  0  0  0
   42.7370   34.2330   39.7100 C   0  0  0  0  0  0  0  0  0  0  0  0
   43.6530   34.2150   40.7230 N   0  0  0  0  0  0  0  0  0  0  0  0
   44.9800   34.0750   40.5380 C   0  0  0  0  0  0  0  0  0  0  0  0
   45.4690   33.9410   39.2810 N   0  0  0  0  0  0  0  0  0  0  0  0
   44.9900   33.8450   37.2280 H   0  0  0  0  0  0  0  0  0  0  0  0
   42.5930   34.1000   37.6050 H   0  0  0  0  0  0  0  0  0  0  0  0
   45.6090   34.0760   41.4140 H   0  0  0  0  0  0  0  0  0  0  0  0
   41.2970   32.1180   40.6920 O   0  0  0  0  0  0  0  0  0  0  0  0
   41.4580   31.7950   41.6300 H   0  0  0  0  0  0  0  0  0  0  0  0
   38.6360   32.2330   41.2350 O   0  0  0  0  0  0  0  0  0  0  0  0
   37.7180   31.4940   40.5820 C   0  0  0  0  0  0  0  0  0  0  0  0
   36.6090   30.8340   41.0690 C   0  0  0  0  0  0  0  0  0  0  0  0
   35.8130   30.1410   40.2150 C   0  0  0  0  0  0  0  0  0  0  0  0
   36.1900   30.1470   38.8480 C   0  0  0  0  0  0  0  0  0  0  0  0
   37.6970   31.1600   38.8210 S   0  0  0  0  0  0  0  0  0  0  0  0
   36.3820   30.8740   42.1260 H   0  0  0  0  0  0  0  0  0  0  0  0
   34.9370   29.5870   40.4230 H   0  0  0  0  0  0  0  0  0  0  0  0
   35.6110   29.5390   37.6610 C   0  0  0  0  0  0  0  0  0  0  0  0
   34.3960   28.9400   37.7650 C   0  0  0  0  0  0  0  0  0  0  0  0
   33.8040   28.8670   38.6510 H   0  0  0  0  0  0  0  0  0  0  0  0
   33.9410   28.3910   36.5590 C   0  0  0  0  0  0  0  0  0  0  0  0
   32.9830   27.8840   36.5040 H   0  0  0  0  0  0  0  0  0  0  0  0
   34.6880   28.4700   35.3810 C   0  0  0  0  0  3  0  0  0  0  0  0
   35.9170   29.0980   35.3650 C   0  0  0  0  0  3  0  0  0  0  0  0
   36.3520   29.6300   36.5470 N   0  0  0  0  0  0  0  0  0  0  0  0
  1 19  1  0  0  0  0
  1  6  1  0  0  0  0
  2  1  2  0  0  0  0
  3  2  1  0  0  0  0
  3  4  2  0  0  0  0
  4  5  1  0  0  0  0
  5  6  2  0  0  0  0
  5  9  1  0  0  0  0
  6 21  1  0  0  0  0
  7  3  1  0  0  0  0
  8  4  1  0  0  0  0
 10 11  2  0  0  0  0
 10 15  1  0  0  0  0
 11 12  1  0  0  0  0
 12  2  1  0  0  0  0
 12 13  2  0  0  0  0
 14 13  1  0  0  0  0
 14 18  1  0  0  0  0
 15 14  2  0  0  0  0
 16 10  1  0  0  0  0
 17 11  1  0  0  0  0
 19 20  1  0  0  0  0
 22 23  2  0  0  0  0
 22 21  1  0  0  0  0
 23 27  1  0  0  0  0
 24 28  1  0  0  0  0
 24 23  1  0  0  0  0
 25 24  2  0  0  0  0
 26 25  1  0  0  0  0
 26 22  1  0  0  0  0
 29 30  1  0  0  0  0
 29 25  1  0  0  0  0
 30 31  1  0  0  0  0
 32 30  2  0  0  0  0
 33 32  1  0  0  0  0
 34 32  1  0  0  0  0
 35 34  2  0  0  0  0
 35 36  1  0  0  0  0
 36 29  2  0  0  0  0
M  END
>  <minimizedAffinity>
-5.82656479

$$$$

 OpenBabel03242513323D

 36 39  0  0  0  0  0  0  0  0999 V2000
   37.0440   31.3080   38.6910 C   0  0  0  0  0  0  0  0  0  0  0  0
   36.7800   29.9580   38.6830 C   0  0  0  0  0  0  0  0  0  0  0  0
   36.4960   29.3770   39.8860 C   0  0  0  0  0  0  0  0  0  0  0  0
   36.4720   30.0990   41.0670 C   0  0  0  0  0  0  0  0  0  0  0  0
   36.7380   31.4430   41.0590 C   0  0  0  0  0  0  0  0  0  0  0  0
   37.0330   32.0810   39.8550 C   0  0  0  0  0  0  0  0  0  0  0  0
   36.2800   28.3100   39.9210 H   0  0  0  0  0  0  0  0  0  0  0  0
   36.2490   29.6440   42.0130 H   0  0  0  0  0  0  0  0  0  0  0  0
   36.7430   32.0790   41.9100 H   0  0  0  0  0  0  0  0  0  0  0  0
   37.7990   27.6840   35.8560 C   0  0  0  0  0  0  0  0  0  0  0  0
   37.7980   28.3450   37.0910 C   0  0  0  0  0  0  0  0  0  0  0  0
   36.8190   29.2550   37.4240 C   0  0  0  0  0  0  0  0  0  0  0  0
   35.8670   29.4510   36.4640 N   0  0  0  0  0  0  0  0  0  0  0  0
   35.8560   28.8220   35.2730 C   0  0  0  0  0  0  0  0  0  0  0  0
   36.8350   27.9330   34.9780 N   0  0  0  0  0  0  0  0  0  0  0  0
   38.5920   26.9880   35.6630 H   0  0  0  0  0  0  0  0  0  0  0  0
   38.5790   28.1480   37.8090 H   0  0  0  0  0  0  0  0  0  0  0  0
   35.0530   29.0560   34.5930 H   0  0  0  0  0  0  0  0  0  0  0  0
   37.3390   31.9450   37.4950 O   0  0  0  0  0  0  0  0  0  0  0  0
   36.6870   32.5920   37.0870 H   0  0  0  0  0  0  0  0  0  0  0  0
   37.3080   33.4230   39.7770 O   0  0  0  0  0  0  0  0  0  0  0  0
   38.5010   33.9970   40.0270 C   0  0  0  0  0  0  0  0  0  0  0  0
   38.8170   35.3280   40.2130 C   0  0  0  0  0  0  0  0  0  0  0  0
   40.1040   35.6810   40.4560 C   0  0  0  0  0  0  0  0  0  0  0  0
   41.0550   34.6310   40.5020 C   0  0  0  0  0  0  0  0  0  0  0  0
   40.0670   33.1400   40.1930 S   0  0  0  0  0  0  0  0  0  0  0  0
   38.0370   36.0760   40.1640 H   0  0  0  0  0  0  0  0  0  0  0  0
   40.5110   36.6450   40.6180 H   0  0  0  0  0  0  0  0  0  0  0  0
   42.4920   34.6070   40.7310 C   0  0  0  0  0  0  0  0  0  0  0  0
   42.9780   35.1730   41.8660 C   0  0  0  0  0  0  0  0  0  0  0  0
   42.4010   35.6470   42.6310 H   0  0  0  0  0  0  0  0  0  0  0  0
   44.3720   35.0900   41.9760 C   0  0  0  0  0  0  0  0  0  0  0  0
   44.8890   35.5030   42.8360 H   0  0  0  0  0  0  0  0  0  0  0  0
   45.1570   34.4780   40.9960 C   0  0  0  0  0  3  0  0  0  0  0  0
   44.5780   33.9270   39.8700 C   0  0  0  0  0  3  0  0  0  0  0  0
   43.2170   34.0140   39.7730 N   0  0  0  0  0  0  0  0  0  0  0  0
  1  6  1  0  0  0  0
  2  1  2  0  0  0  0
  2  3  1  0  0  0  0
  3  7  1  0  0  0  0
  3  4  2  0  0  0  0
  4  8  1  0  0  0  0
  5  4  1  0  0  0  0
  5  9  1  0  0  0  0
  6  5  2  0  0  0  0
 10 11  1  0  0  0  0
 11 12  2  0  0  0  0
 11 17  1  0  0  0  0
 12  2  1  0  0  0  0
 13 12  1  0  0  0  0
 14 13  2  0  0  0  0
 15 14  1  0  0  0  0
 15 10  2  0  0  0  0
 16 10  1  0  0  0  0
 18 14  1  0  0  0  0
 19  1  1  0  0  0  0
 20 19  1  0  0  0  0
 21  6  1  0  0  0  0
 21 22  1  0  0  0  0
 22 26  1  0  0  0  0
 22 23  2  0  0  0  0
 23 24  1  0  0  0  0
 24 25  2  0  0  0  0
 24 28  1  0  0  0  0
 25 29  1  0  0  0  0
 26 25  1  0  0  0  0
 27 23  1  0  0  0  0
 29 30  1  0  0  0  0
 30 32  2  0  0  0  0
 30 31  1  0  0  0  0
 32 33  1  0  0  0  0
 34 32  1  0  0  0  0
 35 34  2  0  0  0  0
 36 35  1  0  0  0  0
 36 29  2  0  0  0  0
M  END
>  <minimizedAffinity>
-5.81695032

$$$$

 OpenBabel03242513323D

 36 39  0  0  0  0  0  0  0  0999 V2000
   39.3940   32.4280   38.7820 C   0  0  0  0  0  0  0  0  0  0  0  0
   40.3070   33.3630   39.2110 C   0  0  0  0  0  0  0  0  0  0  0  0
   39.8280   34.3920   39.9710 C   0  0  0  0  0  0  0  0  0  0  0  0
   38.4890   34.5040   40.3020 C   0  0  0  0  0  0  0  0  0  0  0  0
   37.5910   33.5650   39.8670 C   0  0  0  0  0  0  0  0  0  0  0  0
   38.0320   32.4960   39.0890 C   0  0  0  0  0  0  0  0  0  0  0  0
   40.5210   35.1520   40.3300 H   0  0  0  0  0  0  0  0  0  0  0  0
   38.1110   35.3120   40.8980 H   0  0  0  0  0  0  0  0  0  0  0  0
   36.5470   33.5650   40.0680 H   0  0  0  0  0  0  0  0  0  0  0  0
   43.7250   33.9010   37.7190 C   0  0  0  0  0  0  0  0  0  0  0  0
   42.3820   34.1000   38.0600 C   0  0  0  0  0  0  0  0  0  0  0  0
   41.6910   33.1970   38.8370 C   0  0  0  0  0  0  0  0  0  0  0  0
   42.4170   32.1130   39.2400 N   0  0  0  0  0  0  0  0  0  0  0  0
   43.7090   31.9090   38.9190 C   0  0  0  0  0  0  0  0  0  0  0  0
   44.3590   32.8180   38.1520 N   0  0  0  0  0  0  0  0  0  0  0  0
   44.2020   34.6450   37.1100 H   0  0  0  0  0  0  0  0  0  0  0  0
   41.8610   34.9780   37.7100 H   0  0  0  0  0  0  0  0  0  0  0  0
   44.1810   31.0150   39.2950 H   0  0  0  0  0  0  0  0  0  0  0  0
   39.8300   31.3640   38.0080 O   0  0  0  0  0  0  0  0  0  0  0  0
   39.8450   30.4310   38.3830 H   0  0  0  0  0  0  0  0  0  0  0  0
   37.1860   31.5220   38.6210 O   0  0  0  0  0  0  0  0  0  0  0  0
   36.8630   30.3840   39.2660 C   0  0  0  0  0  0  0  0  0  0  0  0
   35.9220   30.1660   40.2520 C   0  0  0  0  0  0  0  0  0  0  0  0
   35.7670   28.9180   40.7640 C   0  0  0  0  0  0  0  0  0  0  0  0
   36.6060   27.9040   40.2360 C   0  0  0  0  0  0  0  0  0  0  0  0
   37.6100   28.7760   38.9990 S   0  0  0  0  0  0  0  0  0  0  0  0
   35.3170   30.9890   40.6060 H   0  0  0  0  0  0  0  0  0  0  0  0
   35.1010   28.5850   41.5150 H   0  0  0  0  0  0  0  0  0  0  0  0
   36.7370   26.4840   40.5180 C   0  0  0  0  0  0  0  0  0  0  0  0
   36.4270   25.5960   39.5380 C   0  0  0  0  0  0  0  0  0  0  0  0
   36.0880   25.8370   38.5540 H   0  0  0  0  0  0  0  0  0  0  0  0
   36.5920   24.2600   39.9260 C   0  0  0  0  0  0  0  0  0  0  0  0
   36.3790   23.4490   39.2370 H   0  0  0  0  0  0  0  0  0  0  0  0
   37.0340   23.9080   41.2030 C   0  0  0  0  0  3  0  0  0  0  0  0
   37.3270   24.8790   42.1410 C   0  0  0  0  0  3  0  0  0  0  0  0
   37.1630   26.1790   41.7520 N   0  0  0  0  0  0  0  0  0  0  0  0
  1  6  2  0  0  0  0
  1  2  1  0  0  0  0
  2  3  2  0  0  0  0
  3  4  1  0  0  0  0
  3  7  1  0  0  0  0
  4  8  1  0  0  0  0
  5  9  1  0  0  0  0
  5  4  2  0  0  0  0
  6  5  1  0  0  0  0
 10 11  2  0  0  0  0
 10 15  1  0  0  0  0
 11 12  1  0  0  0  0
 12  2  1  0  0  0  0
 12 13  2  0  0  0  0
 14 13  1  0  0  0  0
 14 18  1  0  0  0  0
 15 14  2  0  0  0  0
 16 10  1  0  0  0  0
 17 11  1  0  0  0  0
 19 20  1  0  0  0  0
 19  1  1  0  0  0  0
 21  6  1  0  0  0  0
 21 22  1  0  0  0  0
 22 23  2  0  0  0  0
 23 27  1  0  0  0  0
 23 24  1  0  0  0  0
 24 28  1  0  0  0  0
 25 29  1  0  0  0  0
 25 24  2  0  0  0  0
 26 22  1  0  0  0  0
 26 25  1  0  0  0  0
 29 36  1  0  0  0  0
 30 32  1  0  0  0  0
 30 29  2  0  0  0  0
 31 30  1  0  0  0  0
 32 34  2  0  0  0  0
 33 32  1  0  0  0  0
 34 35  1  0  0  0  0
 36 35  2  0  0  0  0
M  END
>  <minimizedAffinity>
-5.80070066

$$$$

 OpenBabel03242513323D

 36 39  0  0  0  0  0  0  0  0999 V2000
   40.4350   33.5260   40.8520 C   0  0  0  0  0  0  0  0  0  0  0  0
   41.1740   34.6750   40.6850 C   0  0  0  0  0  0  0  0  0  0  0  0
   40.5000   35.7890   40.2730 C   0  0  0  0  0  0  0  0  0  0  0  0
   39.1370   35.7800   40.0310 C   0  0  0  0  0  0  0  0  0  0  0  0
   38.4150   34.6290   40.2020 C   0  0  0  0  0  0  0  0  0  0  0  0
   39.0580   33.4650   40.6210 C   0  0  0  0  0  0  0  0  0  0  0  0
   41.0510   36.7180   40.1300 H   0  0  0  0  0  0  0  0  0  0  0  0
   38.6070   36.6550   39.7080 H   0  0  0  0  0  0  0  0  0  0  0  0
   37.3690   34.5240   40.0420 H   0  0  0  0  0  0  0  0  0  0  0  0
   44.5690   35.2050   42.2330 C   0  0  0  0  0  0  0  0  0  0  0  0
   43.1880   35.2780   42.0090 C   0  0  0  0  0  0  0  0  0  0  0  0
   42.5920   34.6270   40.9520 C   0  0  0  0  0  0  0  0  0  0  0  0
   43.4470   33.9170   40.1580 N   0  0  0  0  0  0  0  0  0  0  0  0
   44.7750   33.8390   40.3610 C   0  0  0  0  0  0  0  0  0  0  0  0
   45.3300   34.4920   41.4110 N   0  0  0  0  0  0  0  0  0  0  0  0
   44.9670   35.7370   43.0750 H   0  0  0  0  0  0  0  0  0  0  0  0
   42.5640   35.8560   42.6720 H   0  0  0  0  0  0  0  0  0  0  0  0
   45.3520   33.2480   39.6680 H   0  0  0  0  0  0  0  0  0  0  0  0
   41.0720   32.3680   41.2680 O   0  0  0  0  0  0  0  0  0  0  0  0
   40.9110   31.9980   42.1880 H   0  0  0  0  0  0  0  0  0  0  0  0
   38.3940   32.2800   40.8110 O   0  0  0  0  0  0  0  0  0  0  0  0
   37.7840   31.5580   39.8520 C   0  0  0  0  0  0  0  0  0  0  0  0
   37.8270   31.6990   38.4800 C   0  0  0  0  0  0  0  0  0  0  0  0
   37.1220   30.8440   37.6960 C   0  0  0  0  0  0  0  0  0  0  0  0
   36.3720   29.8420   38.3620 C   0  0  0  0  0  0  0  0  0  0  0  0
   36.7020   30.1530   40.1200 S   0  0  0  0  0  0  0  0  0  0  0  0
   38.4220   32.4890   38.0410 H   0  0  0  0  0  0  0  0  0  0  0  0
   37.0470   30.8160   36.6420 H   0  0  0  0  0  0  0  0  0  0  0  0
   35.5120   28.7700   37.8860 C   0  0  0  0  0  0  0  0  0  0  0  0
   34.3380   29.0980   37.2850 C   0  0  0  0  0  0  0  0  0  0  0  0
   33.9700   30.0880   37.1200 H   0  0  0  0  0  0  0  0  0  0  0  0
   33.5960   27.9860   36.8680 C   0  0  0  0  0  0  0  0  0  0  0  0
   32.6380   28.1080   36.3730 H   0  0  0  0  0  0  0  0  0  0  0  0
   34.0470   26.6780   37.0660 C   0  0  0  0  0  3  0  0  0  0  0  0
   35.2560   26.4350   37.6880 C   0  0  0  0  0  3  0  0  0  0  0  0
   35.9720   27.5280   38.0900 N   0  0  0  0  0  0  0  0  0  0  0  0
  1 19  1  0  0  0  0
  2  1  1  0  0  0  0
  2 12  1  0  0  0  0
  3  2  2  0  0  0  0
  4  5  2  0  0  0  0
  4  3  1  0  0  0  0
  5  6  1  0  0  0  0
  6 21  1  0  0  0  0
  6  1  2  0  0  0  0
  7  3  1  0  0  0  0
  8  4  1  0  0  0  0
  9  5  1  0  0  0  0
 10 16  1  0  0  0  0
 11 10  1  0  0  0  0
 11 17  1  0  0  0  0
 12 11  2  0  0  0  0
 13 14  2  0  0  0  0
 13 12  1  0  0  0  0
 14 15  1  0  0  0  0
 15 10  2  0  0  0  0
 18 14  1  0  0  0  0
 19 20  1  0  0  0  0
 22 26  1  0  0  0  0
 22 21  1  0  0  0  0
 23 22  2  0  0  0  0
 24 25  2  0  0  0  0
 24 23  1  0  0  0  0
 25 26  1  0  0  0  0
 27 23  1  0  0  0  0
 28 24  1  0  0  0  0
 29 36  1  0  0  0  0
 29 25  1  0  0  0  0
 30 29  2  0  0  0  0
 31 30  1  0  0  0  0
 32 34  2  0  0  0  0
 32 30  1  0  0  0  0
 33 32  1  0  0  0  0
 34 35  1  0  0  0  0
 35 36  2  0  0  0  0
M  END
>  <minimizedAffinity>
-5.75442696

$$$$
