
 OpenBabel03252505203D

 33 36  0  0  0  0  0  0  0  0999 V2000
   37.4270   28.4070   41.4710 C   0  0  0  0  0  0  0  0  0  0  0  0
   36.0800   28.3730   41.1740 C   0  0  0  0  0  0  0  0  0  0  0  0
   35.4600   29.5080   40.6740 C   0  0  0  0  0  0  0  0  0  0  0  0
   36.2320   30.6350   40.4940 C   0  0  0  0  0  0  0  0  0  0  0  0
   37.5850   30.6130   40.8100 C   0  0  0  0  0  0  0  0  0  0  0  0
   38.1900   29.5030   41.2990 N   0  0  0  0  0  0  0  0  0  0  0  0
   35.5220   27.4610   41.3340 H   0  0  0  0  0  0  0  0  0  0  0  0
   34.4040   29.4020   40.4670 H   0  0  0  0  0  0  0  0  0  0  0  0
   35.7100   31.4880   40.1060 H   0  0  0  0  0  0  0  0  0  0  0  0
   39.5370   26.0990   43.4300 C   0  0  0  0  0  0  0  0  0  0  0  0
   39.2000   24.8300   42.9270 C   0  0  0  0  0  0  0  0  0  0  0  0
   38.2520   24.8150   41.9310 C   0  0  0  0  0  0  0  0  0  0  0  0
   37.6800   25.9810   41.4710 N   0  0  0  0  0  0  0  0  0  0  0  0
   38.0500   27.1930   42.0020 C   0  0  0  0  0  0  0  0  0  0  0  0
   38.9720   27.2380   42.9740 N   0  0  0  0  0  0  0  0  0  0  0  0
   40.2720   26.1640   44.2090 H   0  0  0  0  0  0  0  0  0  0  0  0
   39.6610   23.9270   43.3020 H   0  0  0  0  0  0  0  0  0  0  0  0
   37.8340   23.5210   41.2920 C   0  0  0  0  0  0  0  0  0  0  0  0
   36.5810   23.6620   40.4270 C   0  0  0  0  0  0  0  0  0  0  0  0
   38.0090   23.3410   39.8740 C   0  0  0  0  0  0  0  0  0  0  0  0
   37.8150   22.6920   42.0350 H   0  0  0  0  0  0  0  0  0  0  0  0
   35.8830   22.8090   40.4440 H   0  0  0  0  0  0  0  0  0  0  0  0
   36.1870   24.6650   40.2340 H   0  0  0  0  0  0  0  0  0  0  0  0
   38.4180   24.1120   39.2200 H   0  0  0  0  0  0  0  0  0  0  0  0
   38.1650   22.3030   39.5000 H   0  0  0  0  0  0  0  0  0  0  0  0
   38.3650   31.8290   40.6050 C   0  0  0  0  0  0  0  0  0  0  0  0
   37.7520   32.9770   40.1470 C   0  0  0  0  0  0  0  0  0  0  0  0
   36.6890   32.9590   39.9430 H   0  0  0  0  0  0  0  0  0  0  0  0
   38.4370   34.1590   39.9340 C   0  0  0  0  0  0  0  0  0  0  0  0
   37.8860   35.0350   39.5670 H   0  0  0  0  0  0  0  0  0  0  0  0
   39.8090   34.1590   40.2030 C   0  0  0  0  0  3  0  0  0  0  0  0
   40.4060   32.9880   40.6660 C   0  0  0  0  0  3  0  0  0  0  0  0
   39.6670   31.8650   40.8500 N   0  0  0  0  0  0  0  0  0  0  0  0
  1 14  1  0  0  0  0
  2  7  1  0  0  0  0
  2  1  2  0  0  0  0
  3  2  1  0  0  0  0
  4  3  2  0  0  0  0
  4  5  1  0  0  0  0
  5  6  2  0  0  0  0
  6  1  1  0  0  0  0
  8  3  1  0  0  0  0
  9  4  1  0  0  0  0
 10 16  1  0  0  0  0
 11 17  1  0  0  0  0
 11 10  2  0  0  0  0
 12 11  1  0  0  0  0
 13 12  2  0  0  0  0
 13 14  1  0  0  0  0
 14 15  2  0  0  0  0
 15 10  1  0  0  0  0
 18 12  1  0  0  0  0
 18 21  1  0  0  0  0
 19 22  1  0  0  0  0
 19 18  1  0  0  0  0
 20 19  1  0  0  0  0
 20 18  1  0  0  0  0
 23 19  1  0  0  0  0
 24 20  1  0  0  0  0
 25 20  1  0  0  0  0
 26  5  1  0  0  0  0
 26 33  1  0  0  0  0
 27 26  2  0  0  0  0
 28 27  1  0  0  0  0
 29 27  1  0  0  0  0
 29 31  2  0  0  0  0
 30 29  1  0  0  0  0
 31 32  1  0  0  0  0
 32 33  2  0  0  0  0
M  END
>  <minimizedAffinity>
-5.64074469

$$$$

 OpenBabel03252505203D

 33 36  0  0  0  0  0  0  0  0999 V2000
   37.4480   30.4790   40.8460 C   0  0  0  0  0  0  0  0  0  0  0  0
   36.1100   30.3430   40.5360 C   0  0  0  0  0  0  0  0  0  0  0  0
   35.4700   29.1380   40.7820 C   0  0  0  0  0  0  0  0  0  0  0  0
   36.2120   28.1160   41.3320 C   0  0  0  0  0  0  0  0  0  0  0  0
   37.5570   28.3090   41.6250 C   0  0  0  0  0  0  0  0  0  0  0  0
   38.1820   29.4870   41.3850 N   0  0  0  0  0  0  0  0  0  0  0  0
   35.5760   31.1770   40.1060 H   0  0  0  0  0  0  0  0  0  0  0  0
   34.4240   29.1090   40.5110 H   0  0  0  0  0  0  0  0  0  0  0  0
   35.6760   27.2030   41.5040 H   0  0  0  0  0  0  0  0  0  0  0  0
   38.0350   33.9920   39.8820 C   0  0  0  0  0  0  0  0  0  0  0  0
   39.4210   34.1570   40.0460 C   0  0  0  0  0  0  0  0  0  0  0  0
   40.1060   33.0490   40.4900 C   0  0  0  0  0  0  0  0  0  0  0  0
   39.4540   31.8640   40.7510 N   0  0  0  0  0  0  0  0  0  0  0  0
   38.0960   31.7630   40.5710 C   0  0  0  0  0  0  0  0  0  0  0  0
   37.4030   32.8260   40.1400 N   0  0  0  0  0  0  0  0  0  0  0  0
   37.4560   34.8270   39.5380 H   0  0  0  0  0  0  0  0  0  0  0  0
   39.9130   35.0960   39.8350 H   0  0  0  0  0  0  0  0  0  0  0  0
   41.5960   33.0930   40.6710 C   0  0  0  0  0  0  0  0  0  0  0  0
   42.3620   32.7440   39.3940 C   0  0  0  0  0  0  0  0  0  0  0  0
   42.3540   34.1570   40.0650 C   0  0  0  0  0  0  0  0  0  0  0  0
   41.9070   32.5390   41.5850 H   0  0  0  0  0  0  0  0  0  0  0  0
   43.2900   32.1660   39.5290 H   0  0  0  0  0  0  0  0  0  0  0  0
   41.8000   32.6340   38.4600 H   0  0  0  0  0  0  0  0  0  0  0  0
   41.9020   34.9390   39.4540 H   0  0  0  0  0  0  0  0  0  0  0  0
   43.3020   34.4650   40.5630 H   0  0  0  0  0  0  0  0  0  0  0  0
   38.3060   27.2000   42.2070 C   0  0  0  0  0  0  0  0  0  0  0  0
   39.3370   27.4480   43.0900 C   0  0  0  0  0  0  0  0  0  0  0  0
   39.5790   28.4730   43.3420 H   0  0  0  0  0  0  0  0  0  0  0  0
   40.0820   26.4410   43.6750 C   0  0  0  0  0  0  0  0  0  0  0  0
   40.8890   26.7100   44.3690 H   0  0  0  0  0  0  0  0  0  0  0  0
   39.7540   25.1250   43.3360 C   0  0  0  0  0  3  0  0  0  0  0  0
   38.7080   24.8990   42.4420 C   0  0  0  0  0  3  0  0  0  0  0  0
   38.0220   25.9410   41.9090 N   0  0  0  0  0  0  0  0  0  0  0  0
  1  6  1  0  0  0  0
  2  3  1  0  0  0  0
  2  1  2  0  0  0  0
  3  4  2  0  0  0  0
  4  9  1  0  0  0  0
  4  5  1  0  0  0  0
  5 26  1  0  0  0  0
  6  5  2  0  0  0  0
  7  2  1  0  0  0  0
  8  3  1  0  0  0  0
 10 11  2  0  0  0  0
 10 15  1  0  0  0  0
 11 12  1  0  0  0  0
 12 18  1  0  0  0  0
 12 13  2  0  0  0  0
 14 13  1  0  0  0  0
 14  1  1  0  0  0  0
 15 14  2  0  0  0  0
 16 10  1  0  0  0  0
 17 11  1  0  0  0  0
 18 21  1  0  0  0  0
 19 22  1  0  0  0  0
 19 20  1  0  0  0  0
 19 18  1  0  0  0  0
 20 25  1  0  0  0  0
 20 18  1  0  0  0  0
 23 19  1  0  0  0  0
 24 20  1  0  0  0  0
 26 27  1  0  0  0  0
 27 28  1  0  0  0  0
 27 29  2  0  0  0  0
 29 30  1  0  0  0  0
 31 29  1  0  0  0  0
 32 31  2  0  0  0  0
 33 26  2  0  0  0  0
 33 32  1  0  0  0  0
M  END
>  <minimizedAffinity>
-5.62003565

$$$$

 OpenBabel03252505203D

 33 36  0  0  0  0  0  0  0  0999 V2000
   37.6380   29.7910   40.1130 C   0  0  0  0  0  0  0  0  0  0  0  0
   36.6420   29.6420   39.1700 C   0  0  0  0  0  0  0  0  0  0  0  0
   36.6950   30.3790   37.9960 C   0  0  0  0  0  0  0  0  0  0  0  0
   37.7570   31.2390   37.8240 C   0  0  0  0  0  0  0  0  0  0  0  0
   38.7330   31.3490   38.8070 C   0  0  0  0  0  0  0  0  0  0  0  0
   38.6800   30.6290   39.9540 N   0  0  0  0  0  0  0  0  0  0  0  0
   35.8310   28.9520   39.3560 H   0  0  0  0  0  0  0  0  0  0  0  0
   35.8790   30.2070   37.3080 H   0  0  0  0  0  0  0  0  0  0  0  0
   37.7560   31.7870   36.9020 H   0  0  0  0  0  0  0  0  0  0  0  0
   37.6560   28.7940   43.6650 C   0  0  0  0  0  0  0  0  0  0  0  0
   37.3920   27.4140   43.6260 C   0  0  0  0  0  0  0  0  0  0  0  0
   37.2120   26.8750   42.3730 C   0  0  0  0  0  0  0  0  0  0  0  0
   37.2890   27.6580   41.2420 N   0  0  0  0  0  0  0  0  0  0  0  0
   37.5510   29.0020   41.3430 C   0  0  0  0  0  0  0  0  0  0  0  0
   37.7300   29.5540   42.5510 N   0  0  0  0  0  0  0  0  0  0  0  0
   37.8040   29.2610   44.6190 H   0  0  0  0  0  0  0  0  0  0  0  0
   37.3360   26.8180   44.5260 H   0  0  0  0  0  0  0  0  0  0  0  0
   36.9570   25.4050   42.2020 C   0  0  0  0  0  0  0  0  0  0  0  0
   36.9520   24.9680   40.7360 C   0  0  0  0  0  0  0  0  0  0  0  0
   38.0310   24.5420   41.7860 C   0  0  0  0  0  0  0  0  0  0  0  0
   36.0810   25.0750   42.8050 H   0  0  0  0  0  0  0  0  0  0  0  0
   36.2260   24.1850   40.4670 H   0  0  0  0  0  0  0  0  0  0  0  0
   37.2600   25.6920   39.9740 H   0  0  0  0  0  0  0  0  0  0  0  0
   39.0360   24.9030   41.5650 H   0  0  0  0  0  0  0  0  0  0  0  0
   37.9980   23.4780   42.1150 H   0  0  0  0  0  0  0  0  0  0  0  0
   39.8410   32.2720   38.5850 C   0  0  0  0  0  0  0  0  0  0  0  0
   40.6850   32.0950   37.5080 C   0  0  0  0  0  0  0  0  0  0  0  0
   40.5110   31.2650   36.8340 H   0  0  0  0  0  0  0  0  0  0  0  0
   41.7500   32.9360   37.2440 C   0  0  0  0  0  0  0  0  0  0  0  0
   42.3820   32.7370   36.3690 H   0  0  0  0  0  0  0  0  0  0  0  0
   41.9560   34.0020   38.1250 C   0  0  0  0  0  3  0  0  0  0  0  0
   41.0900   34.1600   39.2070 C   0  0  0  0  0  3  0  0  0  0  0  0
   40.0650   33.2920   39.4000 N   0  0  0  0  0  0  0  0  0  0  0  0
  1 14  1  0  0  0  0
  2  7  1  0  0  0  0
  2  1  2  0  0  0  0
  3  2  1  0  0  0  0
  4  3  2  0  0  0  0
  4  5  1  0  0  0  0
  5  6  2  0  0  0  0
  6  1  1  0  0  0  0
  8  3  1  0  0  0  0
  9  4  1  0  0  0  0
 10 16  1  0  0  0  0
 11 10  1  0  0  0  0
 11 17  1  0  0  0  0
 12 11  2  0  0  0  0
 13 14  2  0  0  0  0
 13 12  1  0  0  0  0
 14 15  1  0  0  0  0
 15 10  2  0  0  0  0
 18 12  1  0  0  0  0
 18 21  1  0  0  0  0
 19 20  1  0  0  0  0
 19 18  1  0  0  0  0
 20 25  1  0  0  0  0
 20 18  1  0  0  0  0
 22 19  1  0  0  0  0
 23 19  1  0  0  0  0
 24 20  1  0  0  0  0
 26  5  1  0  0  0  0
 26 33  1  0  0  0  0
 27 26  2  0  0  0  0
 28 27  1  0  0  0  0
 29 27  1  0  0  0  0
 29 31  2  0  0  0  0
 30 29  1  0  0  0  0
 31 32  1  0  0  0  0
 32 33  2  0  0  0  0
M  END
>  <minimizedAffinity>
-5.61740541

$$$$

 OpenBabel03252505203D

 33 36  0  0  0  0  0  0  0  0999 V2000
   36.9240   27.7350   39.9550 C   0  0  0  0  0  0  0  0  0  0  0  0
   35.9740   27.6440   38.9580 C   0  0  0  0  0  0  0  0  0  0  0  0
   35.5930   28.7860   38.2690 C   0  0  0  0  0  0  0  0  0  0  0  0
   36.1910   29.9770   38.6180 C   0  0  0  0  0  0  0  0  0  0  0  0
   37.1430   30.0100   39.6300 C   0  0  0  0  0  0  0  0  0  0  0  0
   37.5130   28.8940   40.3040 N   0  0  0  0  0  0  0  0  0  0  0  0
   35.5370   26.6840   38.7240 H   0  0  0  0  0  0  0  0  0  0  0  0
   34.8450   28.6330   37.5030 H   0  0  0  0  0  0  0  0  0  0  0  0
   35.8660   30.8320   38.0590 H   0  0  0  0  0  0  0  0  0  0  0  0
   37.1310   24.2150   41.0400 C   0  0  0  0  0  0  0  0  0  0  0  0
   38.0580   24.2450   42.0960 C   0  0  0  0  0  0  0  0  0  0  0  0
   38.5840   25.4800   42.3940 C   0  0  0  0  0  0  0  0  0  0  0  0
   38.2120   26.6040   41.6890 N   0  0  0  0  0  0  0  0  0  0  0  0
   37.3000   26.5120   40.6660 C   0  0  0  0  0  0  0  0  0  0  0  0
   36.7710   25.3210   40.3530 N   0  0  0  0  0  0  0  0  0  0  0  0
   36.6910   23.2740   40.7690 H   0  0  0  0  0  0  0  0  0  0  0  0
   38.3360   23.3510   42.6370 H   0  0  0  0  0  0  0  0  0  0  0  0
   39.5600   25.6430   43.5250 C   0  0  0  0  0  0  0  0  0  0  0  0
   41.0150   25.6670   43.0550 C   0  0  0  0  0  0  0  0  0  0  0  0
   40.2650   26.8890   43.6800 C   0  0  0  0  0  0  0  0  0  0  0  0
   39.3340   24.9380   44.3560 H   0  0  0  0  0  0  0  0  0  0  0  0
   41.7460   25.1770   43.7190 H   0  0  0  0  0  0  0  0  0  0  0  0
   41.2180   25.7050   41.9800 H   0  0  0  0  0  0  0  0  0  0  0  0
   40.1420   27.7330   43.0000 H   0  0  0  0  0  0  0  0  0  0  0  0
   40.5780   27.1810   44.7080 H   0  0  0  0  0  0  0  0  0  0  0  0
   37.7510   31.2930   39.9690 C   0  0  0  0  0  0  0  0  0  0  0  0
   37.1740   32.4690   39.5350 C   0  0  0  0  0  0  0  0  0  0  0  0
   36.2690   32.4240   38.9430 H   0  0  0  0  0  0  0  0  0  0  0  0
   37.7020   33.7140   39.8240 C   0  0  0  0  0  0  0  0  0  0  0  0
   37.1920   34.6090   39.4460 H   0  0  0  0  0  0  0  0  0  0  0  0
   38.8710   33.7490   40.5900 C   0  0  0  0  0  3  0  0  0  0  0  0
   39.4350   32.5480   41.0170 C   0  0  0  0  0  3  0  0  0  0  0  0
   38.8580   31.3630   40.6930 N   0  0  0  0  0  0  0  0  0  0  0  0
  1  6  1  0  0  0  0
  1 14  1  0  0  0  0
  2  1  2  0  0  0  0
  3  4  2  0  0  0  0
  3  2  1  0  0  0  0
  4  5  1  0  0  0  0
  5 26  1  0  0  0  0
  5  6  2  0  0  0  0
  7  2  1  0  0  0  0
  8  3  1  0  0  0  0
  9  4  1  0  0  0  0
 10 11  1  0  0  0  0
 11 12  2  0  0  0  0
 11 17  1  0  0  0  0
 12 18  1  0  0  0  0
 13 12  1  0  0  0  0
 14 13  2  0  0  0  0
 15 14  1  0  0  0  0
 15 10  2  0  0  0  0
 16 10  1  0  0  0  0
 18 20  1  0  0  0  0
 18 21  1  0  0  0  0
 19 18  1  0  0  0  0
 19 20  1  0  0  0  0
 19 22  1  0  0  0  0
 20 25  1  0  0  0  0
 23 19  1  0  0  0  0
 24 20  1  0  0  0  0
 26 33  1  0  0  0  0
 27 29  1  0  0  0  0
 27 26  2  0  0  0  0
 28 27  1  0  0  0  0
 29 31  2  0  0  0  0
 30 29  1  0  0  0  0
 31 32  1  0  0  0  0
 33 32  2  0  0  0  0
M  END
>  <minimizedAffinity>
-5.42724371

$$$$

 OpenBabel03252505203D

 33 36  0  0  0  0  0  0  0  0999 V2000
   37.6900   29.3650   41.7350 C   0  0  0  0  0  0  0  0  0  0  0  0
   37.7580   29.2230   43.1060 C   0  0  0  0  0  0  0  0  0  0  0  0
   37.5050   27.9860   43.6800 C   0  0  0  0  0  0  0  0  0  0  0  0
   37.1920   26.9390   42.8400 C   0  0  0  0  0  0  0  0  0  0  0  0
   37.1380   27.1390   41.4650 C   0  0  0  0  0  0  0  0  0  0  0  0
   37.3850   28.3490   40.9060 N   0  0  0  0  0  0  0  0  0  0  0  0
   38.0080   30.0770   43.7180 H   0  0  0  0  0  0  0  0  0  0  0  0
   37.5770   27.9560   44.7580 H   0  0  0  0  0  0  0  0  0  0  0  0
   37.0050   26.0030   43.3280 H   0  0  0  0  0  0  0  0  0  0  0  0
   37.2810   32.6170   40.0400 C   0  0  0  0  0  0  0  0  0  0  0  0
   38.5710   33.1750   40.0730 C   0  0  0  0  0  0  0  0  0  0  0  0
   39.5370   32.4110   40.6850 C   0  0  0  0  0  0  0  0  0  0  0  0
   39.2380   31.1790   41.2240 N   0  0  0  0  0  0  0  0  0  0  0  0
   37.9580   30.6850   41.1610 C   0  0  0  0  0  0  0  0  0  0  0  0
   36.9950   31.4080   40.5720 N   0  0  0  0  0  0  0  0  0  0  0  0
   36.4920   33.1740   39.5740 H   0  0  0  0  0  0  0  0  0  0  0  0
   38.7840   34.1430   39.6430 H   0  0  0  0  0  0  0  0  0  0  0  0
   40.9600   32.8870   40.7520 C   0  0  0  0  0  0  0  0  0  0  0  0
   41.6630   32.8540   39.3940 C   0  0  0  0  0  0  0  0  0  0  0  0
   41.3100   34.1600   40.1780 C   0  0  0  0  0  0  0  0  0  0  0  0
   41.5090   32.4010   41.5900 H   0  0  0  0  0  0  0  0  0  0  0  0
   42.7290   32.5730   39.4070 H   0  0  0  0  0  0  0  0  0  0  0  0
   41.0680   32.6340   38.5010 H   0  0  0  0  0  0  0  0  0  0  0  0
   40.5910   34.8050   39.6710 H   0  0  0  0  0  0  0  0  0  0  0  0
   42.1710   34.7090   40.6240 H   0  0  0  0  0  0  0  0  0  0  0  0
   36.8030   26.0040   40.6120 C   0  0  0  0  0  0  0  0  0  0  0  0
   36.4320   26.2100   39.2990 C   0  0  0  0  0  0  0  0  0  0  0  0
   36.3950   27.2220   38.9160 H   0  0  0  0  0  0  0  0  0  0  0  0
   36.1030   25.1760   38.4420 C   0  0  0  0  0  0  0  0  0  0  0  0
   35.8160   25.4110   37.4090 H   0  0  0  0  0  0  0  0  0  0  0  0
   36.1580   23.8770   38.9570 C   0  0  0  0  0  3  0  0  0  0  0  0
   36.5360   23.6940   40.2870 C   0  0  0  0  0  3  0  0  0  0  0  0
   36.8440   24.7610   41.0680 N   0  0  0  0  0  0  0  0  0  0  0  0
  1  2  1  0  0  0  0
  2  3  2  0  0  0  0
  2  7  1  0  0  0  0
  3  8  1  0  0  0  0
  4  9  1  0  0  0  0
  4  3  1  0  0  0  0
  5  4  2  0  0  0  0
  6  5  1  0  0  0  0
  6  1  2  0  0  0  0
 10 11  2  0  0  0  0
 10 15  1  0  0  0  0
 11 12  1  0  0  0  0
 12 18  1  0  0  0  0
 12 13  2  0  0  0  0
 14 13  1  0  0  0  0
 14  1  1  0  0  0  0
 15 14  2  0  0  0  0
 16 10  1  0  0  0  0
 17 11  1  0  0  0  0
 18 21  1  0  0  0  0
 19 22  1  0  0  0  0
 19 20  1  0  0  0  0
 19 18  1  0  0  0  0
 20 25  1  0  0  0  0
 20 18  1  0  0  0  0
 23 19  1  0  0  0  0
 24 20  1  0  0  0  0
 26 33  1  0  0  0  0
 26  5  1  0  0  0  0
 27 26  2  0  0  0  0
 28 27  1  0  0  0  0
 29 31  2  0  0  0  0
 29 27  1  0  0  0  0
 30 29  1  0  0  0  0
 31 32  1  0  0  0  0
 32 33  2  0  0  0  0
M  END
>  <minimizedAffinity>
-5.33340597

$$$$

 OpenBabel03252505203D

 33 36  0  0  0  0  0  0  0  0999 V2000
   38.0240   30.8780   39.7360 C   0  0  0  0  0  0  0  0  0  0  0  0
   37.0200   31.7800   40.0230 C   0  0  0  0  0  0  0  0  0  0  0  0
   37.2830   33.1400   39.9570 C   0  0  0  0  0  0  0  0  0  0  0  0
   38.5550   33.5330   39.6020 C   0  0  0  0  0  0  0  0  0  0  0  0
   39.5280   32.5800   39.3230 C   0  0  0  0  0  0  0  0  0  0  0  0
   39.2700   31.2520   39.3890 N   0  0  0  0  0  0  0  0  0  0  0  0
   36.0400   31.4170   40.2960 H   0  0  0  0  0  0  0  0  0  0  0  0
   36.4470   33.7820   40.1960 H   0  0  0  0  0  0  0  0  0  0  0  0
   38.7110   34.5930   39.5650 H   0  0  0  0  0  0  0  0  0  0  0  0
   37.1570   27.4050   38.8420 C   0  0  0  0  0  0  0  0  0  0  0  0
   37.1120   26.7420   40.0810 C   0  0  0  0  0  0  0  0  0  0  0  0
   37.3880   27.5170   41.1830 C   0  0  0  0  0  0  0  0  0  0  0  0
   37.6880   28.8560   41.0580 N   0  0  0  0  0  0  0  0  0  0  0  0
   37.7160   29.4490   39.8190 C   0  0  0  0  0  0  0  0  0  0  0  0
   37.4510   28.7180   38.7270 N   0  0  0  0  0  0  0  0  0  0  0  0
   36.9490   26.8430   37.9520 H   0  0  0  0  0  0  0  0  0  0  0  0
   36.8740   25.6910   40.1570 H   0  0  0  0  0  0  0  0  0  0  0  0
   37.3380   26.9280   42.5640 C   0  0  0  0  0  0  0  0  0  0  0  0
   38.4790   27.4150   43.4600 C   0  0  0  0  0  0  0  0  0  0  0  0
   36.9690   27.7620   43.6790 C   0  0  0  0  0  0  0  0  0  0  0  0
   37.1930   25.8250   42.5270 H   0  0  0  0  0  0  0  0  0  0  0  0
   38.8940   26.6720   44.1600 H   0  0  0  0  0  0  0  0  0  0  0  0
   39.1260   28.2190   43.0940 H   0  0  0  0  0  0  0  0  0  0  0  0
   36.7360   28.8230   43.5790 H   0  0  0  0  0  0  0  0  0  0  0  0
   36.4770   27.2730   44.5500 H   0  0  0  0  0  0  0  0  0  0  0  0
   40.8620   33.0400   38.9520 C   0  0  0  0  0  0  0  0  0  0  0  0
   41.7590   33.4250   39.9280 C   0  0  0  0  0  0  0  0  0  0  0  0
   41.4560   33.3810   40.9670 H   0  0  0  0  0  0  0  0  0  0  0  0
   43.0360   33.8690   39.6390 C   0  0  0  0  0  0  0  0  0  0  0  0
   43.6980   34.1600   40.4650 H   0  0  0  0  0  0  0  0  0  0  0  0
   43.4060   33.9180   38.2920 C   0  0  0  0  0  3  0  0  0  0  0  0
   42.4830   33.5230   37.3240 C   0  0  0  0  0  3  0  0  0  0  0  0
   41.2460   33.0990   37.6860 N   0  0  0  0  0  0  0  0  0  0  0  0
  1 14  1  0  0  0  0
  1  2  1  0  0  0  0
  2  7  1  0  0  0  0
  3  2  2  0  0  0  0
  3  8  1  0  0  0  0
  4  3  1  0  0  0  0
  5  6  1  0  0  0  0
  5  4  2  0  0  0  0
  6  1  2  0  0  0  0
  9  4  1  0  0  0  0
 10 11  1  0  0  0  0
 11 17  1  0  0  0  0
 11 12  2  0  0  0  0
 12 18  1  0  0  0  0
 13 12  1  0  0  0  0
 14 13  2  0  0  0  0
 15 10  2  0  0  0  0
 15 14  1  0  0  0  0
 16 10  1  0  0  0  0
 18 19  1  0  0  0  0
 18 20  1  0  0  0  0
 19 20  1  0  0  0  0
 19 22  1  0  0  0  0
 20 25  1  0  0  0  0
 21 18  1  0  0  0  0
 23 19  1  0  0  0  0
 24 20  1  0  0  0  0
 26  5  1  0  0  0  0
 26 27  1  0  0  0  0
 27 28  1  0  0  0  0
 29 27  2  0  0  0  0
 29 30  1  0  0  0  0
 31 29  1  0  0  0  0
 32 33  1  0  0  0  0
 32 31  2  0  0  0  0
 33 26  2  0  0  0  0
M  END
>  <minimizedAffinity>
-5.32367277

$$$$

 OpenBabel03252505203D

 33 36  0  0  0  0  0  0  0  0999 V2000
   38.8750   30.8620   38.4200 C   0  0  0  0  0  0  0  0  0  0  0  0
   37.8390   30.8750   37.5080 C   0  0  0  0  0  0  0  0  0  0  0  0
   36.6490   30.2310   37.8150 C   0  0  0  0  0  0  0  0  0  0  0  0
   36.5560   29.5990   39.0350 C   0  0  0  0  0  0  0  0  0  0  0  0
   37.6310   29.6190   39.9160 C   0  0  0  0  0  0  0  0  0  0  0  0
   38.7940   30.2480   39.6150 N   0  0  0  0  0  0  0  0  0  0  0  0
   37.9650   31.3860   36.5650 H   0  0  0  0  0  0  0  0  0  0  0  0
   35.8870   30.2850   37.0500 H   0  0  0  0  0  0  0  0  0  0  0  0
   35.6190   29.1160   39.2280 H   0  0  0  0  0  0  0  0  0  0  0  0
   41.5030   33.4260   38.0530 C   0  0  0  0  0  0  0  0  0  0  0  0
   42.5060   32.7730   37.3160 C   0  0  0  0  0  0  0  0  0  0  0  0
   42.2420   31.4670   36.9750 C   0  0  0  0  0  0  0  0  0  0  0  0
   41.0630   30.8570   37.3440 N   0  0  0  0  0  0  0  0  0  0  0  0
   40.1190   31.5470   38.0640 C   0  0  0  0  0  0  0  0  0  0  0  0
   40.3490   32.8210   38.4100 N   0  0  0  0  0  0  0  0  0  0  0  0
   41.6610   34.4470   38.3430 H   0  0  0  0  0  0  0  0  0  0  0  0
   43.4240   33.2710   37.0370 H   0  0  0  0  0  0  0  0  0  0  0  0
   43.2250   30.6760   36.1600 C   0  0  0  0  0  0  0  0  0  0  0  0
   43.9260   29.5830   36.9680 C   0  0  0  0  0  0  0  0  0  0  0  0
   42.9180   29.3160   35.8020 C   0  0  0  0  0  0  0  0  0  0  0  0
   43.8950   31.3470   35.5750 H   0  0  0  0  0  0  0  0  0  0  0  0
   44.9850   29.4030   36.7230 H   0  0  0  0  0  0  0  0  0  0  0  0
   43.5750   29.3770   37.9850 H   0  0  0  0  0  0  0  0  0  0  0  0
   42.0030   28.8090   36.1100 H   0  0  0  0  0  0  0  0  0  0  0  0
   43.3580   28.9180   34.8590 H   0  0  0  0  0  0  0  0  0  0  0  0
   37.4910   28.9360   41.1980 C   0  0  0  0  0  0  0  0  0  0  0  0
   36.9740   27.6580   41.2490 C   0  0  0  0  0  0  0  0  0  0  0  0
   36.6770   27.1730   40.3270 H   0  0  0  0  0  0  0  0  0  0  0  0
   36.8170   26.9600   42.4320 C   0  0  0  0  0  0  0  0  0  0  0  0
   36.3990   25.9450   42.4000 H   0  0  0  0  0  0  0  0  0  0  0  0
   37.2070   27.6040   43.6100 C   0  0  0  0  0  3  0  0  0  0  0  0
   37.7260   28.8950   43.5340 C   0  0  0  0  0  3  0  0  0  0  0  0
   37.8500   29.5170   42.3330 N   0  0  0  0  0  0  0  0  0  0  0  0
  1  6  1  0  0  0  0
  2  3  1  0  0  0  0
  2  1  2  0  0  0  0
  3  4  2  0  0  0  0
  4  9  1  0  0  0  0
  4  5  1  0  0  0  0
  5 26  1  0  0  0  0
  6  5  2  0  0  0  0
  7  2  1  0  0  0  0
  8  3  1  0  0  0  0
 10 16  1  0  0  0  0
 10 15  1  0  0  0  0
 11 10  2  0  0  0  0
 12 11  1  0  0  0  0
 12 13  2  0  0  0  0
 13 14  1  0  0  0  0
 14 15  2  0  0  0  0
 14  1  1  0  0  0  0
 17 11  1  0  0  0  0
 18 19  1  0  0  0  0
 18 12  1  0  0  0  0
 19 23  1  0  0  0  0
 20 24  1  0  0  0  0
 20 18  1  0  0  0  0
 20 19  1  0  0  0  0
 21 18  1  0  0  0  0
 22 19  1  0  0  0  0
 25 20  1  0  0  0  0
 26 27  2  0  0  0  0
 26 33  1  0  0  0  0
 27 29  1  0  0  0  0
 28 27  1  0  0  0  0
 29 31  2  0  0  0  0
 30 29  1  0  0  0  0
 32 31  1  0  0  0  0
 33 32  2  0  0  0  0
M  END
>  <minimizedAffinity>
-5.2745986

$$$$

 OpenBabel03252505203D

 33 36  0  0  0  0  0  0  0  0999 V2000
   37.6670   29.5080   40.6390 C   0  0  0  0  0  0  0  0  0  0  0  0
   37.8140   30.8250   41.0250 C   0  0  0  0  0  0  0  0  0  0  0  0
   37.4160   31.8380   40.1660 C   0  0  0  0  0  0  0  0  0  0  0  0
   36.8840   31.4770   38.9480 C   0  0  0  0  0  0  0  0  0  0  0  0
   36.7590   30.1340   38.6110 C   0  0  0  0  0  0  0  0  0  0  0  0
   37.1480   29.1440   39.4510 N   0  0  0  0  0  0  0  0  0  0  0  0
   38.2370   31.0520   41.9930 H   0  0  0  0  0  0  0  0  0  0  0  0
   37.5640   32.8420   40.5400 H   0  0  0  0  0  0  0  0  0  0  0  0
   36.5920   32.2930   38.3170 H   0  0  0  0  0  0  0  0  0  0  0  0
   39.4700   27.6740   43.2850 C   0  0  0  0  0  0  0  0  0  0  0  0
   38.8750   26.4000   43.2740 C   0  0  0  0  0  0  0  0  0  0  0  0
   37.8670   26.2200   42.3560 C   0  0  0  0  0  0  0  0  0  0  0  0
   37.4810   27.2380   41.5100 N   0  0  0  0  0  0  0  0  0  0  0  0
   38.1000   28.4620   41.5680 C   0  0  0  0  0  0  0  0  0  0  0  0
   39.0860   28.6660   42.4530 N   0  0  0  0  0  0  0  0  0  0  0  0
   40.2610   27.8650   43.9840 H   0  0  0  0  0  0  0  0  0  0  0  0
   39.1930   25.6160   43.9460 H   0  0  0  0  0  0  0  0  0  0  0  0
   37.1780   24.8910   42.2270 C   0  0  0  0  0  0  0  0  0  0  0  0
   36.7260   24.5920   40.7960 C   0  0  0  0  0  0  0  0  0  0  0  0
   37.8470   23.8070   41.5550 C   0  0  0  0  0  0  0  0  0  0  0  0
   36.4020   24.7620   43.0140 H   0  0  0  0  0  0  0  0  0  0  0  0
   35.7680   24.0580   40.6940 H   0  0  0  0  0  0  0  0  0  0  0  0
   37.0460   25.2650   39.9940 H   0  0  0  0  0  0  0  0  0  0  0  0
   38.8380   23.9020   41.1090 H   0  0  0  0  0  0  0  0  0  0  0  0
   37.5900   22.7690   41.8660 H   0  0  0  0  0  0  0  0  0  0  0  0
   36.1910   29.7950   37.3100 C   0  0  0  0  0  0  0  0  0  0  0  0
   34.9860   29.1270   37.2330 C   0  0  0  0  0  0  0  0  0  0  0  0
   34.4730   28.8620   38.1480 H   0  0  0  0  0  0  0  0  0  0  0  0
   34.3980   28.7800   36.0310 C   0  0  0  0  0  0  0  0  0  0  0  0
   33.4370   28.2490   36.0430 H   0  0  0  0  0  0  0  0  0  0  0  0
   35.0770   29.1330   34.8620 C   0  0  0  0  0  3  0  0  0  0  0  0
   36.2930   29.8070   34.9650 C   0  0  0  0  0  3  0  0  0  0  0  0
   36.8080   30.1140   36.1820 N   0  0  0  0  0  0  0  0  0  0  0  0
  1  2  1  0  0  0  0
  1 14  1  0  0  0  0
  2  7  1  0  0  0  0
  3  8  1  0  0  0  0
  3  2  2  0  0  0  0
  4  3  1  0  0  0  0
  5  4  2  0  0  0  0
  5  6  1  0  0  0  0
  6  1  2  0  0  0  0
  9  4  1  0  0  0  0
 10 16  1  0  0  0  0
 11 10  1  0  0  0  0
 11 17  1  0  0  0  0
 12 11  2  0  0  0  0
 13 14  2  0  0  0  0
 13 12  1  0  0  0  0
 14 15  1  0  0  0  0
 15 10  2  0  0  0  0
 18 12  1  0  0  0  0
 18 21  1  0  0  0  0
 19 20  1  0  0  0  0
 19 18  1  0  0  0  0
 20 25  1  0  0  0  0
 20 18  1  0  0  0  0
 22 19  1  0  0  0  0
 23 19  1  0  0  0  0
 24 20  1  0  0  0  0
 26  5  1  0  0  0  0
 27 26  1  0  0  0  0
 27 28  1  0  0  0  0
 29 30  1  0  0  0  0
 29 27  2  0  0  0  0
 31 32  2  0  0  0  0
 31 29  1  0  0  0  0
 32 33  1  0  0  0  0
 33 26  2  0  0  0  0
M  END
>  <minimizedAffinity>
-5.2725811

$$$$

 OpenBabel03252505203D

 33 36  0  0  0  0  0  0  0  0999 V2000
   37.1810   27.1630   41.5010 C   0  0  0  0  0  0  0  0  0  0  0  0
   37.3700   26.9350   42.8490 C   0  0  0  0  0  0  0  0  0  0  0  0
   37.7450   27.9830   43.6750 C   0  0  0  0  0  0  0  0  0  0  0  0
   37.9150   29.2250   43.1020 C   0  0  0  0  0  0  0  0  0  0  0  0
   37.7110   29.3980   41.7380 C   0  0  0  0  0  0  0  0  0  0  0  0
   37.3450   28.3720   40.9310 N   0  0  0  0  0  0  0  0  0  0  0  0
   37.2220   25.9410   43.2460 H   0  0  0  0  0  0  0  0  0  0  0  0
   37.8730   27.7250   44.7170 H   0  0  0  0  0  0  0  0  0  0  0  0
   38.2050   30.0040   43.7790 H   0  0  0  0  0  0  0  0  0  0  0  0
   36.5470   23.7470   40.2600 C   0  0  0  0  0  0  0  0  0  0  0  0
   36.0450   23.9500   38.9630 C   0  0  0  0  0  0  0  0  0  0  0  0
   35.9370   25.2620   38.5630 C   0  0  0  0  0  0  0  0  0  0  0  0
   36.3040   26.2960   39.3980 N   0  0  0  0  0  0  0  0  0  0  0  0
   36.7900   26.0340   40.6550 C   0  0  0  0  0  0  0  0  0  0  0  0
   36.9050   24.7650   41.0720 N   0  0  0  0  0  0  0  0  0  0  0  0
   36.6510   22.7410   40.6180 H   0  0  0  0  0  0  0  0  0  0  0  0
   35.7630   23.1250   38.3240 H   0  0  0  0  0  0  0  0  0  0  0  0
   35.4440   25.6040   37.1860 C   0  0  0  0  0  0  0  0  0  0  0  0
   34.2420   24.7610   36.7580 C   0  0  0  0  0  0  0  0  0  0  0  0
   34.1930   26.3000   37.0320 C   0  0  0  0  0  0  0  0  0  0  0  0
   36.2840   25.6480   36.4570 H   0  0  0  0  0  0  0  0  0  0  0  0
   34.2060   24.4730   35.6950 H   0  0  0  0  0  0  0  0  0  0  0  0
   33.7680   24.1090   37.5000 H   0  0  0  0  0  0  0  0  0  0  0  0
   33.5600   26.5840   37.8740 H   0  0  0  0  0  0  0  0  0  0  0  0
   34.0710   26.9510   36.1360 H   0  0  0  0  0  0  0  0  0  0  0  0
   37.9020   30.7290   41.1720 C   0  0  0  0  0  0  0  0  0  0  0  0
   36.9530   31.2650   40.3260 C   0  0  0  0  0  0  0  0  0  0  0  0
   36.0700   30.6850   40.0910 H   0  0  0  0  0  0  0  0  0  0  0  0
   37.0780   32.5200   39.7580 C   0  0  0  0  0  0  0  0  0  0  0  0
   36.2840   32.8850   39.0930 H   0  0  0  0  0  0  0  0  0  0  0  0
   38.2260   33.2520   40.0750 C   0  0  0  0  0  3  0  0  0  0  0  0
   39.1710   32.6900   40.9320 C   0  0  0  0  0  3  0  0  0  0  0  0
   38.9780   31.4500   41.4500 N   0  0  0  0  0  0  0  0  0  0  0  0
  1  2  1  0  0  0  0
  2  7  1  0  0  0  0
  2  3  2  0  0  0  0
  3  8  1  0  0  0  0
  4  3  1  0  0  0  0
  4  9  1  0  0  0  0
  5  4  2  0  0  0  0
  6  1  2  0  0  0  0
  6  5  1  0  0  0  0
 10 16  1  0  0  0  0
 10 15  1  0  0  0  0
 11 10  2  0  0  0  0
 12 11  1  0  0  0  0
 12 13  2  0  0  0  0
 13 14  1  0  0  0  0
 14 15  2  0  0  0  0
 14  1  1  0  0  0  0
 17 11  1  0  0  0  0
 18 12  1  0  0  0  0
 19 20  1  0  0  0  0
 19 18  1  0  0  0  0
 19 23  1  0  0  0  0
 20 18  1  0  0  0  0
 20 24  1  0  0  0  0
 21 18  1  0  0  0  0
 22 19  1  0  0  0  0
 25 20  1  0  0  0  0
 26 33  1  0  0  0  0
 26  5  1  0  0  0  0
 27 26  2  0  0  0  0
 28 27  1  0  0  0  0
 29 31  2  0  0  0  0
 29 27  1  0  0  0  0
 30 29  1  0  0  0  0
 31 32  1  0  0  0  0
 32 33  2  0  0  0  0
M  END
>  <minimizedAffinity>
-5.25980902

$$$$
