
 OpenBabel03242516273D

 42 46  0  0  0  0  0  0  0  0999 V2000
   36.1710   26.6750   39.3310 C   0  0  0  0  0  0  0  0  0  0  0  0
   35.4850   26.5750   38.1610 N   0  0  0  0  0  0  0  0  0  0  0  0
   35.3000   25.4120   37.5230 C   0  0  0  0  0  0  0  0  0  0  0  0
   35.8220   24.3040   38.0790 N   0  0  0  0  0  0  0  0  0  0  0  0
   36.5140   24.3130   39.2330 C   0  0  0  0  0  0  0  0  0  0  0  0
   37.0510   23.1720   39.8060 C   0  0  0  0  0  0  0  0  0  0  0  0
   37.7480   23.2390   40.9890 C   0  0  0  0  0  0  0  0  0  0  0  0
   37.9440   24.4520   41.6580 C   0  0  0  0  0  0  0  0  0  0  0  0
   37.3900   25.5660   41.0480 C   0  0  0  0  0  0  0  0  0  0  0  0
   36.6910   25.5170   39.8690 C   0  0  0  0  0  0  0  0  0  0  0  0
   34.7550   25.3360   36.5940 H   0  0  0  0  0  0  0  0  0  0  0  0
   36.8820   22.2520   39.2650 H   0  0  0  0  0  0  0  0  0  0  0  0
   38.1180   22.2820   41.3350 H   0  0  0  0  0  0  0  0  0  0  0  0
   38.4950   24.3820   42.5590 H   0  0  0  0  0  0  0  0  0  0  0  0
   37.6740   26.7470   41.8510 C   0  0  0  0  0  0  0  0  0  0  0  0
   36.7740   26.9350   42.9080 C   0  0  0  0  0  0  0  0  0  0  0  0
   35.9500   26.2900   43.0990 H   0  0  0  0  0  0  0  0  0  0  0  0
   37.0100   28.0380   43.7290 C   0  0  0  0  0  0  0  0  0  0  0  0
   36.3830   28.2850   44.5770 H   0  0  0  0  0  0  0  0  0  0  0  0
   38.0760   28.8830   43.4930 C   0  0  0  0  0  3  0  0  0  0  0  0
   38.9390   28.6640   42.4390 C   0  0  0  0  0  3  0  0  0  0  0  0
   38.7240   27.5940   41.6300 N   0  0  0  0  0  0  0  0  0  0  0  0
   36.4260   28.1990   40.2010 S   0  0  0  0  0  0  0  0  0  0  0  0
   38.0000   31.5960   38.7240 C   0  0  0  0  0  0  0  0  0  0  0  0
   37.5860   30.5820   39.5500 C   0  0  0  0  0  0  0  0  0  0  0  0
   36.9280   29.4710   39.0530 C   0  0  0  0  0  0  0  0  0  0  0  0
   36.6680   29.3630   37.6890 C   0  0  0  0  0  0  0  0  0  0  0  0
   37.0670   30.3550   36.8620 C   0  0  0  0  0  0  0  0  0  0  0  0
   37.7220   31.4460   37.3890 C   0  0  0  0  0  0  0  0  0  0  0  0
   37.7910   30.6670   40.6180 H   0  0  0  0  0  0  0  0  0  0  0  0
   36.1460   28.4530   37.4030 H   0  0  0  0  0  0  0  0  0  0  0  0
   36.8530   30.2430   35.8070 H   0  0  0  0  0  0  0  0  0  0  0  0
   38.0450   32.2490   36.7170 H   0  0  0  0  0  0  0  0  0  0  0  0
   40.7640   33.8450   39.5680 C   0  0  0  0  0  0  0  0  0  0  0  0
   40.1220   34.9100   40.2430 C   0  0  0  0  0  0  0  0  0  0  0  0
   38.7360   34.8420   40.4000 C   0  0  0  0  0  0  0  0  0  0  0  0
   38.0420   33.7760   39.9140 N   0  0  0  0  0  0  0  0  0  0  0  0
   38.6970   32.7690   39.2690 C   0  0  0  0  0  0  0  0  0  0  0  0
   40.0410   32.8010   39.0980 N   0  0  0  0  0  0  0  0  0  0  0  0
   41.8390   33.8930   39.4440 H   0  0  0  0  0  0  0  0  0  0  0  0
   40.6650   35.7600   40.6320 H   0  0  0  0  0  0  0  0  0  0  0  0
   38.2010   35.6220   40.9020 H   0  0  0  0  0  0  0  0  0  0  0  0
  1 10  1  0  0  0  0
  1 23  1  0  0  0  0
  2  1  2  0  0  0  0
  3  4  2  0  0  0  0
  3  2  1  0  0  0  0
  4  5  1  0  0  0  0
  5  6  2  0  0  0  0
  5 10  1  0  0  0  0
  6  7  1  0  0  0  0
  7 13  1  0  0  0  0
  7  8  2  0  0  0  0
  8 14  1  0  0  0  0
  9  8  1  0  0  0  0
  9 15  1  0  0  0  0
 10  9  2  0  0  0  0
 11  3  1  0  0  0  0
 12  6  1  0  0  0  0
 15 16  1  0  0  0  0
 16 17  1  0  0  0  0
 16 18  2  0  0  0  0
 18 19  1  0  0  0  0
 20 18  1  0  0  0  0
 21 20  2  0  0  0  0
 22 15  2  0  0  0  0
 22 21  1  0  0  0  0
 24 38  1  0  0  0  0
 24 25  1  0  0  0  0
 25 30  1  0  0  0  0
 26 25  2  0  0  0  0
 26 23  1  0  0  0  0
 27 26  1  0  0  0  0
 28 29  1  0  0  0  0
 28 27  2  0  0  0  0
 29 24  2  0  0  0  0
 31 27  1  0  0  0  0
 32 28  1  0  0  0  0
 33 29  1  0  0  0  0
 34 35  1  0  0  0  0
 35 36  2  0  0  0  0
 35 41  1  0  0  0  0
 36 42  1  0  0  0  0
 37 36  1  0  0  0  0
 38 37  2  0  0  0  0
 39 38  1  0  0  0  0
 39 34  2  0  0  0  0
 40 34  1  0  0  0  0
M  END
>  <minimizedAffinity>
-7.09539604

$$$$

 OpenBabel03242516273D

 42 46  0  0  0  0  0  0  0  0999 V2000
   40.8500   30.7510   41.8330 C   0  0  0  0  0  0  0  0  0  0  0  0
   41.4340   29.9250   42.7420 N   0  0  0  0  0  0  0  0  0  0  0  0
   42.5730   30.2310   43.3780 C   0  0  0  0  0  0  0  0  0  0  0  0
   43.1500   31.4120   43.0910 N   0  0  0  0  0  0  0  0  0  0  0  0
   42.6400   32.2870   42.2060 C   0  0  0  0  0  0  0  0  0  0  0  0
   43.2340   33.5040   41.9130 C   0  0  0  0  0  0  0  0  0  0  0  0
   42.6680   34.3620   41.0000 C   0  0  0  0  0  0  0  0  0  0  0  0
   41.4790   34.0450   40.3340 C   0  0  0  0  0  0  0  0  0  0  0  0
   40.9220   32.8190   40.6580 C   0  0  0  0  0  0  0  0  0  0  0  0
   41.4720   31.9510   41.5670 C   0  0  0  0  0  0  0  0  0  0  0  0
   43.0340   29.5730   44.0980 H   0  0  0  0  0  0  0  0  0  0  0  0
   44.1510   33.7180   42.4440 H   0  0  0  0  0  0  0  0  0  0  0  0
   43.2250   35.2790   40.8560 H   0  0  0  0  0  0  0  0  0  0  0  0
   41.1370   34.7820   39.6540 H   0  0  0  0  0  0  0  0  0  0  0  0
   39.6990   32.6270   39.8920 C   0  0  0  0  0  0  0  0  0  0  0  0
   38.5740   33.2260   40.4730 C   0  0  0  0  0  0  0  0  0  0  0  0
   38.6010   33.7560   41.3950 H   0  0  0  0  0  0  0  0  0  0  0  0
   37.3750   33.0970   39.7710 C   0  0  0  0  0  0  0  0  0  0  0  0
   36.4400   33.5180   40.1200 H   0  0  0  0  0  0  0  0  0  0  0  0
   37.3250   32.4120   38.5740 C   0  0  0  0  0  3  0  0  0  0  0  0
   38.4570   31.8350   38.0350 C   0  0  0  0  0  3  0  0  0  0  0  0
   39.6320   31.9510   38.7060 N   0  0  0  0  0  0  0  0  0  0  0  0
   39.3400   30.3750   40.9820 S   0  0  0  0  0  0  0  0  0  0  0  0
   37.5520   26.8700   41.8260 C   0  0  0  0  0  0  0  0  0  0  0  0
   38.2250   27.8950   41.2110 C   0  0  0  0  0  0  0  0  0  0  0  0
   38.4570   29.0950   41.8590 C   0  0  0  0  0  0  0  0  0  0  0  0
   38.0050   29.2860   43.1630 C   0  0  0  0  0  0  0  0  0  0  0  0
   37.3410   28.2860   43.7820 C   0  0  0  0  0  0  0  0  0  0  0  0
   37.1270   27.1030   43.1100 C   0  0  0  0  0  0  0  0  0  0  0  0
   38.5780   27.7440   40.1900 H   0  0  0  0  0  0  0  0  0  0  0  0
   38.2400   30.2630   43.5800 H   0  0  0  0  0  0  0  0  0  0  0  0
   37.0020   28.4620   44.7960 H   0  0  0  0  0  0  0  0  0  0  0  0
   36.5870   26.2930   43.6140 H   0  0  0  0  0  0  0  0  0  0  0  0
   37.7030   23.2860   41.0910 C   0  0  0  0  0  0  0  0  0  0  0  0
   36.9420   23.1650   39.9030 C   0  0  0  0  0  0  0  0  0  0  0  0
   36.3820   24.3260   39.3670 C   0  0  0  0  0  0  0  0  0  0  0  0
   36.5740   25.5270   39.9800 N   0  0  0  0  0  0  0  0  0  0  0  0
   37.3130   25.6020   41.1230 C   0  0  0  0  0  0  0  0  0  0  0  0
   37.8720   24.4960   41.6730 N   0  0  0  0  0  0  0  0  0  0  0  0
   38.1390   22.3880   41.5110 H   0  0  0  0  0  0  0  0  0  0  0  0
   36.7850   22.2150   39.4100 H   0  0  0  0  0  0  0  0  0  0  0  0
   35.7980   24.2910   38.4710 H   0  0  0  0  0  0  0  0  0  0  0  0
  1  2  1  0  0  0  0
  2  3  2  0  0  0  0
  3 11  1  0  0  0  0
  4  3  1  0  0  0  0
  5  4  2  0  0  0  0
  6  5  1  0  0  0  0
  6 12  1  0  0  0  0
  7  6  2  0  0  0  0
  8  9  2  0  0  0  0
  8  7  1  0  0  0  0
  9 10  1  0  0  0  0
 10  1  2  0  0  0  0
 10  5  1  0  0  0  0
 13  7  1  0  0  0  0
 14  8  1  0  0  0  0
 15 16  1  0  0  0  0
 15  9  1  0  0  0  0
 16 17  1  0  0  0  0
 18 19  1  0  0  0  0
 18 16  2  0  0  0  0
 20 18  1  0  0  0  0
 21 20  2  0  0  0  0
 21 22  1  0  0  0  0
 22 15  2  0  0  0  0
 23  1  1  0  0  0  0
 23 26  1  0  0  0  0
 24 29  1  0  0  0  0
 25 24  2  0  0  0  0
 25 26  1  0  0  0  0
 26 27  2  0  0  0  0
 27 31  1  0  0  0  0
 27 28  1  0  0  0  0
 28 32  1  0  0  0  0
 29 33  1  0  0  0  0
 29 28  2  0  0  0  0
 30 25  1  0  0  0  0
 34 40  1  0  0  0  0
 34 39  1  0  0  0  0
 35 34  2  0  0  0  0
 36 35  1  0  0  0  0
 36 37  2  0  0  0  0
 37 38  1  0  0  0  0
 38 39  2  0  0  0  0
 38 24  1  0  0  0  0
 41 35  1  0  0  0  0
 42 36  1  0  0  0  0
M  END
>  <minimizedAffinity>
-6.55984545

$$$$

 OpenBabel03242516273D

 42 46  0  0  0  0  0  0  0  0999 V2000
   37.5240   27.1240   39.0260 C   0  0  0  0  0  0  0  0  0  0  0  0
   37.3390   27.5810   37.7590 N   0  0  0  0  0  0  0  0  0  0  0  0
   36.6000   26.9300   36.8510 C   0  0  0  0  0  0  0  0  0  0  0  0
   36.0230   25.7740   37.2270 N   0  0  0  0  0  0  0  0  0  0  0  0
   36.1550   25.2510   38.4600 C   0  0  0  0  0  0  0  0  0  0  0  0
   35.5590   24.0610   38.8480 C   0  0  0  0  0  0  0  0  0  0  0  0
   35.7260   23.5740   40.1210 C   0  0  0  0  0  0  0  0  0  0  0  0
   36.4980   24.2510   41.0730 C   0  0  0  0  0  0  0  0  0  0  0  0
   37.0730   25.4340   40.6400 C   0  0  0  0  0  0  0  0  0  0  0  0
   36.9170   25.9370   39.3730 C   0  0  0  0  0  0  0  0  0  0  0  0
   36.4550   27.2950   35.8460 H   0  0  0  0  0  0  0  0  0  0  0  0
   34.9710   23.5630   38.0900 H   0  0  0  0  0  0  0  0  0  0  0  0
   35.2130   22.6370   40.3030 H   0  0  0  0  0  0  0  0  0  0  0  0
   36.5550   23.7800   42.0200 H   0  0  0  0  0  0  0  0  0  0  0  0
   37.8430   26.0220   41.7280 C   0  0  0  0  0  0  0  0  0  0  0  0
   37.0860   26.8590   42.5590 C   0  0  0  0  0  0  0  0  0  0  0  0
   36.0540   27.0630   42.4040 H   0  0  0  0  0  0  0  0  0  0  0  0
   37.7650   27.4330   43.6350 C   0  0  0  0  0  0  0  0  0  0  0  0
   37.2860   28.0970   44.3460 H   0  0  0  0  0  0  0  0  0  0  0  0
   39.1040   27.1770   43.8480 C   0  0  0  0  0  3  0  0  0  0  0  0
   39.8130   26.3460   43.0040 C   0  0  0  0  0  3  0  0  0  0  0  0
   39.1690   25.7800   41.9520 N   0  0  0  0  0  0  0  0  0  0  0  0
   38.4910   27.9680   40.2500 S   0  0  0  0  0  0  0  0  0  0  0  0
   38.8900   31.9370   39.7210 C   0  0  0  0  0  0  0  0  0  0  0  0
   39.1060   30.5840   39.7770 C   0  0  0  0  0  0  0  0  0  0  0  0
   38.1220   29.7140   40.2100 C   0  0  0  0  0  0  0  0  0  0  0  0
   36.8790   30.2040   40.6050 C   0  0  0  0  0  0  0  0  0  0  0  0
   36.6500   31.5350   40.5570 C   0  0  0  0  0  0  0  0  0  0  0  0
   37.6510   32.3730   40.1190 C   0  0  0  0  0  0  0  0  0  0  0  0
   40.0800   30.2020   39.4670 H   0  0  0  0  0  0  0  0  0  0  0  0
   36.1770   29.4380   40.9280 H   0  0  0  0  0  0  0  0  0  0  0  0
   35.6750   31.8860   40.8680 H   0  0  0  0  0  0  0  0  0  0  0  0
   37.4640   33.4520   40.0810 H   0  0  0  0  0  0  0  0  0  0  0  0
   41.0870   34.8650   39.6370 C   0  0  0  0  0  0  0  0  0  0  0  0
   41.8950   34.6340   38.4980 C   0  0  0  0  0  0  0  0  0  0  0  0
   41.6730   33.4650   37.7680 C   0  0  0  0  0  0  0  0  0  0  0  0
   40.7040   32.5880   38.1550 N   0  0  0  0  0  0  0  0  0  0  0  0
   39.9470   32.8470   39.2590 C   0  0  0  0  0  0  0  0  0  0  0  0
   40.1340   33.9710   39.9920 N   0  0  0  0  0  0  0  0  0  0  0  0
   41.2560   35.7710   40.2080 H   0  0  0  0  0  0  0  0  0  0  0  0
   42.6650   35.3250   38.1850 H   0  0  0  0  0  0  0  0  0  0  0  0
   42.2550   33.2400   36.8990 H   0  0  0  0  0  0  0  0  0  0  0  0
  1 10  1  0  0  0  0
  1 23  1  0  0  0  0
  2  1  2  0  0  0  0
  3  4  2  0  0  0  0
  3  2  1  0  0  0  0
  4  5  1  0  0  0  0
  5  6  2  0  0  0  0
  5 10  1  0  0  0  0
  6  7  1  0  0  0  0
  7 13  1  0  0  0  0
  7  8  2  0  0  0  0
  8 14  1  0  0  0  0
  9  8  1  0  0  0  0
  9 15  1  0  0  0  0
 10  9  2  0  0  0  0
 11  3  1  0  0  0  0
 12  6  1  0  0  0  0
 15 22  2  0  0  0  0
 15 16  1  0  0  0  0
 16 18  2  0  0  0  0
 17 16  1  0  0  0  0
 18 20  1  0  0  0  0
 18 19  1  0  0  0  0
 21 20  2  0  0  0  0
 22 21  1  0  0  0  0
 24 25  2  0  0  0  0
 24 29  1  0  0  0  0
 25 26  1  0  0  0  0
 26 23  1  0  0  0  0
 26 27  2  0  0  0  0
 27 31  1  0  0  0  0
 28 27  1  0  0  0  0
 28 32  1  0  0  0  0
 29 28  2  0  0  0  0
 30 25  1  0  0  0  0
 33 29  1  0  0  0  0
 34 39  1  0  0  0  0
 34 40  1  0  0  0  0
 35 34  2  0  0  0  0
 36 37  2  0  0  0  0
 36 35  1  0  0  0  0
 37 38  1  0  0  0  0
 38 24  1  0  0  0  0
 38 39  2  0  0  0  0
 41 35  1  0  0  0  0
 42 36  1  0  0  0  0
M  END
>  <minimizedAffinity>
-6.54922676

$$$$

 OpenBabel03242516273D

 42 46  0  0  0  0  0  0  0  0999 V2000
   36.8430   28.8510   41.4620 C   0  0  0  0  0  0  0  0  0  0  0  0
   37.1360   29.2620   42.7250 N   0  0  0  0  0  0  0  0  0  0  0  0
   37.4320   28.4100   43.7160 C   0  0  0  0  0  0  0  0  0  0  0  0
   37.4360   27.0950   43.4300 N   0  0  0  0  0  0  0  0  0  0  0  0
   37.1590   26.6050   42.2090 C   0  0  0  0  0  0  0  0  0  0  0  0
   37.1650   25.2510   41.9140 C   0  0  0  0  0  0  0  0  0  0  0  0
   36.8760   24.8050   40.6470 C   0  0  0  0  0  0  0  0  0  0  0  0
   36.5650   25.6910   39.6090 C   0  0  0  0  0  0  0  0  0  0  0  0
   36.5710   27.0340   39.9500 C   0  0  0  0  0  0  0  0  0  0  0  0
   36.8580   27.4970   41.2090 C   0  0  0  0  0  0  0  0  0  0  0  0
   37.6640   28.7390   44.7180 H   0  0  0  0  0  0  0  0  0  0  0  0
   37.4090   24.5940   42.7370 H   0  0  0  0  0  0  0  0  0  0  0  0
   36.9120   23.7280   40.5420 H   0  0  0  0  0  0  0  0  0  0  0  0
   36.3600   25.2340   38.6760 H   0  0  0  0  0  0  0  0  0  0  0  0
   36.2300   27.8300   38.7790 C   0  0  0  0  0  0  0  0  0  0  0  0
   37.3340   28.1400   37.9730 C   0  0  0  0  0  0  0  0  0  0  0  0
   38.3290   27.8410   38.1990 H   0  0  0  0  0  0  0  0  0  0  0  0
   37.0650   28.8820   36.8220 C   0  0  0  0  0  0  0  0  0  0  0  0
   37.8360   29.1810   36.1220 H   0  0  0  0  0  0  0  0  0  0  0  0
   35.7790   29.2760   36.5160 C   0  0  0  0  0  3  0  0  0  0  0  0
   34.7190   28.9510   37.3380 C   0  0  0  0  0  3  0  0  0  0  0  0
   34.9620   28.2290   38.4620 N   0  0  0  0  0  0  0  0  0  0  0  0
   36.4540   29.9550   40.1290 S   0  0  0  0  0  0  0  0  0  0  0  0
   39.5950   32.3490   40.9040 C   0  0  0  0  0  0  0  0  0  0  0  0
   38.7450   31.2780   40.7990 C   0  0  0  0  0  0  0  0  0  0  0  0
   37.4940   31.4030   40.2230 C   0  0  0  0  0  0  0  0  0  0  0  0
   37.0690   32.6370   39.7340 C   0  0  0  0  0  0  0  0  0  0  0  0
   37.8940   33.7030   39.8300 C   0  0  0  0  0  0  0  0  0  0  0  0
   39.1340   33.5430   40.4090 C   0  0  0  0  0  0  0  0  0  0  0  0
   39.0790   30.3120   41.1830 H   0  0  0  0  0  0  0  0  0  0  0  0
   36.0710   32.6270   39.3010 H   0  0  0  0  0  0  0  0  0  0  0  0
   37.5380   34.6480   39.4410 H   0  0  0  0  0  0  0  0  0  0  0  0
   39.8020   34.4090   40.4860 H   0  0  0  0  0  0  0  0  0  0  0  0
   43.1360   32.9750   41.5980 C   0  0  0  0  0  0  0  0  0  0  0  0
   43.4460   32.0170   42.5930 C   0  0  0  0  0  0  0  0  0  0  0  0
   42.4270   31.1630   43.0170 C   0  0  0  0  0  0  0  0  0  0  0  0
   41.1800   31.2620   42.4770 N   0  0  0  0  0  0  0  0  0  0  0  0
   40.9200   32.1980   41.5200 C   0  0  0  0  0  0  0  0  0  0  0  0
   41.8850   33.0440   41.0850 N   0  0  0  0  0  0  0  0  0  0  0  0
   43.9230   33.6400   41.2660 H   0  0  0  0  0  0  0  0  0  0  0  0
   44.4330   31.9320   43.0270 H   0  0  0  0  0  0  0  0  0  0  0  0
   42.6070   30.4210   43.7670 H   0  0  0  0  0  0  0  0  0  0  0  0
  1  2  1  0  0  0  0
  2  3  2  0  0  0  0
  3 11  1  0  0  0  0
  4  3  1  0  0  0  0
  5  4  2  0  0  0  0
  6  5  1  0  0  0  0
  6 12  1  0  0  0  0
  7  6  2  0  0  0  0
  8  9  2  0  0  0  0
  8  7  1  0  0  0  0
  9 10  1  0  0  0  0
 10  1  2  0  0  0  0
 10  5  1  0  0  0  0
 13  7  1  0  0  0  0
 14  8  1  0  0  0  0
 15  9  1  0  0  0  0
 16 17  1  0  0  0  0
 16 15  2  0  0  0  0
 18 16  1  0  0  0  0
 19 18  1  0  0  0  0
 20 18  2  0  0  0  0
 20 21  1  0  0  0  0
 21 22  2  0  0  0  0
 22 15  1  0  0  0  0
 23 26  1  0  0  0  0
 23  1  1  0  0  0  0
 24 38  1  0  0  0  0
 25 24  1  0  0  0  0
 25 30  1  0  0  0  0
 26 25  2  0  0  0  0
 27 28  2  0  0  0  0
 27 26  1  0  0  0  0
 28 29  1  0  0  0  0
 29 33  1  0  0  0  0
 29 24  2  0  0  0  0
 31 27  1  0  0  0  0
 32 28  1  0  0  0  0
 34 35  1  0  0  0  0
 35 36  2  0  0  0  0
 35 41  1  0  0  0  0
 36 42  1  0  0  0  0
 37 36  1  0  0  0  0
 38 37  2  0  0  0  0
 39 38  1  0  0  0  0
 39 34  2  0  0  0  0
 40 34  1  0  0  0  0
M  END
>  <minimizedAffinity>
-6.50096416

$$$$

 OpenBabel03242516273D

 42 46  0  0  0  0  0  0  0  0999 V2000
   36.1980   27.3760   39.4810 C   0  0  0  0  0  0  0  0  0  0  0  0
   35.6580   27.5590   38.2470 N   0  0  0  0  0  0  0  0  0  0  0  0
   35.4830   26.5590   37.3730 C   0  0  0  0  0  0  0  0  0  0  0  0
   35.8640   25.3250   37.7520 N   0  0  0  0  0  0  0  0  0  0  0  0
   36.4050   25.0560   38.9530 C   0  0  0  0  0  0  0  0  0  0  0  0
   36.7950   23.7850   39.3440 C   0  0  0  0  0  0  0  0  0  0  0  0
   37.3410   23.5670   40.5850 C   0  0  0  0  0  0  0  0  0  0  0  0
   37.5260   24.6090   41.5010 C   0  0  0  0  0  0  0  0  0  0  0  0
   37.1220   25.8620   41.0670 C   0  0  0  0  0  0  0  0  0  0  0  0
   36.5740   26.0980   39.8320 C   0  0  0  0  0  0  0  0  0  0  0  0
   35.0550   26.7080   36.3930 H   0  0  0  0  0  0  0  0  0  0  0  0
   36.6390   23.0020   38.6150 H   0  0  0  0  0  0  0  0  0  0  0  0
   37.6060   22.5330   40.7730 H   0  0  0  0  0  0  0  0  0  0  0  0
   37.9550   24.3230   42.4250 H   0  0  0  0  0  0  0  0  0  0  0  0
   37.3750   26.8400   42.1150 C   0  0  0  0  0  0  0  0  0  0  0  0
   36.3730   26.8840   43.0940 C   0  0  0  0  0  0  0  0  0  0  0  0
   35.5010   26.2760   43.0690 H   0  0  0  0  0  0  0  0  0  0  0  0
   36.5730   27.7860   44.1390 C   0  0  0  0  0  0  0  0  0  0  0  0
   35.8680   27.9080   44.9530 H   0  0  0  0  0  0  0  0  0  0  0  0
   37.7010   28.5800   44.1850 C   0  0  0  0  0  3  0  0  0  0  0  0
   38.6640   28.5080   43.2000 C   0  0  0  0  0  3  0  0  0  0  0  0
   38.4860   27.6350   42.1750 N   0  0  0  0  0  0  0  0  0  0  0  0
   36.4350   28.6800   40.6600 S   0  0  0  0  0  0  0  0  0  0  0  0
   39.0470   30.8760   38.5280 C   0  0  0  0  0  0  0  0  0  0  0  0
   38.3900   29.8510   39.1600 C   0  0  0  0  0  0  0  0  0  0  0  0
   37.2220   30.0720   39.8680 C   0  0  0  0  0  0  0  0  0  0  0  0
   36.6880   31.3560   39.9540 C   0  0  0  0  0  0  0  0  0  0  0  0
   37.3230   32.3760   39.3370 C   0  0  0  0  0  0  0  0  0  0  0  0
   38.4830   32.1220   38.6400 C   0  0  0  0  0  0  0  0  0  0  0  0
   38.8100   28.8470   39.0920 H   0  0  0  0  0  0  0  0  0  0  0  0
   35.7690   31.4210   40.5330 H   0  0  0  0  0  0  0  0  0  0  0  0
   36.8850   33.3630   39.4200 H   0  0  0  0  0  0  0  0  0  0  0  0
   38.9980   32.9510   38.1400 H   0  0  0  0  0  0  0  0  0  0  0  0
   42.1740   31.5740   36.7540 C   0  0  0  0  0  0  0  0  0  0  0  0
   42.6290   30.2880   36.3790 C   0  0  0  0  0  0  0  0  0  0  0  0
   41.8500   29.1880   36.7430 C   0  0  0  0  0  0  0  0  0  0  0  0
   40.6910   29.3680   37.4370 N   0  0  0  0  0  0  0  0  0  0  0  0
   40.2860   30.6240   37.7800 C   0  0  0  0  0  0  0  0  0  0  0  0
   41.0170   31.7140   37.4440 N   0  0  0  0  0  0  0  0  0  0  0  0
   42.7740   32.4300   36.4740 H   0  0  0  0  0  0  0  0  0  0  0  0
   43.5470   30.1360   35.8280 H   0  0  0  0  0  0  0  0  0  0  0  0
   42.1480   28.1930   36.4850 H   0  0  0  0  0  0  0  0  0  0  0  0
  1 10  1  0  0  0  0
  1 23  1  0  0  0  0
  2  1  2  0  0  0  0
  3  4  2  0  0  0  0
  3  2  1  0  0  0  0
  4  5  1  0  0  0  0
  5  6  2  0  0  0  0
  5 10  1  0  0  0  0
  6  7  1  0  0  0  0
  7 13  1  0  0  0  0
  7  8  2  0  0  0  0
  8 14  1  0  0  0  0
  9  8  1  0  0  0  0
  9 15  1  0  0  0  0
 10  9  2  0  0  0  0
 11  3  1  0  0  0  0
 12  6  1  0  0  0  0
 15 22  2  0  0  0  0
 15 16  1  0  0  0  0
 16 18  2  0  0  0  0
 17 16  1  0  0  0  0
 18 20  1  0  0  0  0
 18 19  1  0  0  0  0
 21 20  2  0  0  0  0
 22 21  1  0  0  0  0
 24 29  2  0  0  0  0
 24 25  1  0  0  0  0
 25 26  2  0  0  0  0
 26 27  1  0  0  0  0
 26 23  1  0  0  0  0
 27 31  1  0  0  0  0
 28 32  1  0  0  0  0
 28 27  2  0  0  0  0
 29 28  1  0  0  0  0
 30 25  1  0  0  0  0
 33 29  1  0  0  0  0
 34 39  1  0  0  0  0
 35 36  1  0  0  0  0
 35 34  2  0  0  0  0
 36 37  2  0  0  0  0
 37 38  1  0  0  0  0
 38 24  1  0  0  0  0
 39 38  2  0  0  0  0
 40 34  1  0  0  0  0
 41 35  1  0  0  0  0
 42 36  1  0  0  0  0
M  END
>  <minimizedAffinity>
-6.47454548

$$$$

 OpenBabel03242516273D

 42 46  0  0  0  0  0  0  0  0999 V2000
   36.9140   28.9680   41.3010 C   0  0  0  0  0  0  0  0  0  0  0  0
   37.2750   29.4330   42.5270 N   0  0  0  0  0  0  0  0  0  0  0  0
   37.6090   28.6250   43.5430 C   0  0  0  0  0  0  0  0  0  0  0  0
   37.5810   27.2980   43.3210 N   0  0  0  0  0  0  0  0  0  0  0  0
   37.2370   26.7550   42.1390 C   0  0  0  0  0  0  0  0  0  0  0  0
   37.2110   25.3890   41.9100 C   0  0  0  0  0  0  0  0  0  0  0  0
   36.8530   24.8880   40.6820 C   0  0  0  0  0  0  0  0  0  0  0  0
   36.5030   25.7280   39.6190 C   0  0  0  0  0  0  0  0  0  0  0  0
   36.5430   27.0850   39.8940 C   0  0  0  0  0  0  0  0  0  0  0  0
   36.8990   27.6030   41.1140 C   0  0  0  0  0  0  0  0  0  0  0  0
   37.8940   28.9970   44.5150 H   0  0  0  0  0  0  0  0  0  0  0  0
   37.4860   24.7670   42.7510 H   0  0  0  0  0  0  0  0  0  0  0  0
   36.8690   23.8060   40.6270 H   0  0  0  0  0  0  0  0  0  0  0  0
   36.2450   25.2300   38.7200 H   0  0  0  0  0  0  0  0  0  0  0  0
   36.1560   27.8310   38.7050 C   0  0  0  0  0  0  0  0  0  0  0  0
   37.2080   28.0300   37.8010 C   0  0  0  0  0  0  0  0  0  0  0  0
   38.2010   27.6870   37.9710 H   0  0  0  0  0  0  0  0  0  0  0  0
   36.8910   28.7170   36.6290 C   0  0  0  0  0  0  0  0  0  0  0  0
   37.6210   28.9300   35.8560 H   0  0  0  0  0  0  0  0  0  0  0  0
   35.6080   29.1660   36.3950 C   0  0  0  0  0  3  0  0  0  0  0  0
   34.5990   28.9500   37.3120 C   0  0  0  0  0  3  0  0  0  0  0  0
   34.8900   28.2830   38.4580 N   0  0  0  0  0  0  0  0  0  0  0  0
   36.4750   30.0130   39.9380 S   0  0  0  0  0  0  0  0  0  0  0  0
   39.8040   31.9950   38.8480 C   0  0  0  0  0  0  0  0  0  0  0  0
   38.8310   31.0440   39.0260 C   0  0  0  0  0  0  0  0  0  0  0  0
   37.6880   31.3110   39.7570 C   0  0  0  0  0  0  0  0  0  0  0  0
   37.5030   32.5650   40.3350 C   0  0  0  0  0  0  0  0  0  0  0  0
   38.4520   33.5120   40.1690 C   0  0  0  0  0  0  0  0  0  0  0  0
   39.5780   33.2150   39.4340 C   0  0  0  0  0  0  0  0  0  0  0  0
   38.9770   30.0620   38.5730 H   0  0  0  0  0  0  0  0  0  0  0  0
   36.5720   32.6710   40.8880 H   0  0  0  0  0  0  0  0  0  0  0  0
   38.2810   34.4780   40.6290 H   0  0  0  0  0  0  0  0  0  0  0  0
   40.3470   33.9840   39.3010 H   0  0  0  0  0  0  0  0  0  0  0  0
   43.1100   32.4660   37.3460 C   0  0  0  0  0  0  0  0  0  0  0  0
   43.3230   31.2560   36.6430 C   0  0  0  0  0  0  0  0  0  0  0  0
   42.3210   30.2860   36.6950 C   0  0  0  0  0  0  0  0  0  0  0  0
   41.1800   30.5160   37.4040 N   0  0  0  0  0  0  0  0  0  0  0  0
   41.0120   31.6940   38.0680 C   0  0  0  0  0  0  0  0  0  0  0  0
   41.9640   32.6590   38.0400 N   0  0  0  0  0  0  0  0  0  0  0  0
   43.8850   33.2220   37.3090 H   0  0  0  0  0  0  0  0  0  0  0  0
   44.2260   31.0660   36.0780 H   0  0  0  0  0  0  0  0  0  0  0  0
   42.4310   29.3530   36.1820 H   0  0  0  0  0  0  0  0  0  0  0  0
  1  2  1  0  0  0  0
  2  3  2  0  0  0  0
  3 11  1  0  0  0  0
  4  3  1  0  0  0  0
  5  4  2  0  0  0  0
  6  5  1  0  0  0  0
  6 12  1  0  0  0  0
  7  6  2  0  0  0  0
  8  9  2  0  0  0  0
  8  7  1  0  0  0  0
  9 10  1  0  0  0  0
 10  1  2  0  0  0  0
 10  5  1  0  0  0  0
 13  7  1  0  0  0  0
 14  8  1  0  0  0  0
 15  9  1  0  0  0  0
 16 17  1  0  0  0  0
 16 15  2  0  0  0  0
 18 16  1  0  0  0  0
 19 18  1  0  0  0  0
 20 18  2  0  0  0  0
 20 21  1  0  0  0  0
 21 22  2  0  0  0  0
 22 15  1  0  0  0  0
 23  1  1  0  0  0  0
 24 25  2  0  0  0  0
 24 29  1  0  0  0  0
 25 26  1  0  0  0  0
 26 23  1  0  0  0  0
 26 27  2  0  0  0  0
 27 31  1  0  0  0  0
 28 27  1  0  0  0  0
 28 32  1  0  0  0  0
 29 28  2  0  0  0  0
 30 25  1  0  0  0  0
 33 29  1  0  0  0  0
 34 39  1  0  0  0  0
 35 36  1  0  0  0  0
 35 34  2  0  0  0  0
 36 37  2  0  0  0  0
 37 38  1  0  0  0  0
 38 24  1  0  0  0  0
 39 38  2  0  0  0  0
 40 34  1  0  0  0  0
 41 35  1  0  0  0  0
 42 36  1  0  0  0  0
M  END
>  <minimizedAffinity>
-6.40616894

$$$$

 OpenBabel03242516273D

 42 46  0  0  0  0  0  0  0  0999 V2000
   36.3490   26.5150   38.4650 C   0  0  0  0  0  0  0  0  0  0  0  0
   36.0530   25.5860   37.5170 N   0  0  0  0  0  0  0  0  0  0  0  0
   35.9830   24.2740   37.7790 C   0  0  0  0  0  0  0  0  0  0  0  0
   36.2190   23.8760   39.0430 N   0  0  0  0  0  0  0  0  0  0  0  0
   36.5180   24.7280   40.0410 C   0  0  0  0  0  0  0  0  0  0  0  0
   36.7580   24.3180   41.3430 C   0  0  0  0  0  0  0  0  0  0  0  0
   37.0570   25.2320   42.3240 C   0  0  0  0  0  0  0  0  0  0  0  0
   37.1320   26.6030   42.0540 C   0  0  0  0  0  0  0  0  0  0  0  0
   36.8850   26.9660   40.7400 C   0  0  0  0  0  0  0  0  0  0  0  0
   36.5830   26.0670   39.7470 C   0  0  0  0  0  0  0  0  0  0  0  0
   35.7490   23.5400   37.0240 H   0  0  0  0  0  0  0  0  0  0  0  0
   36.6930   23.2540   41.5180 H   0  0  0  0  0  0  0  0  0  0  0  0
   37.2250   24.7900   43.2990 H   0  0  0  0  0  0  0  0  0  0  0  0
   37.3700   27.2120   42.8870 H   0  0  0  0  0  0  0  0  0  0  0  0
   36.9980   28.4110   40.6080 C   0  0  0  0  0  0  0  0  0  0  0  0
   35.8080   29.0950   40.8920 C   0  0  0  0  0  0  0  0  0  0  0  0
   34.9010   28.6080   41.1590 H   0  0  0  0  0  0  0  0  0  0  0  0
   35.8620   30.4860   40.8070 C   0  0  0  0  0  0  0  0  0  0  0  0
   35.0070   31.1210   41.0040 H   0  0  0  0  0  0  0  0  0  0  0  0
   37.0330   31.1310   40.4610 C   0  0  0  0  0  3  0  0  0  0  0  0
   38.1840   30.4210   40.1890 C   0  0  0  0  0  3  0  0  0  0  0  0
   38.1490   29.0650   40.2660 N   0  0  0  0  0  0  0  0  0  0  0  0
   36.4420   28.2570   38.1480 S   0  0  0  0  0  0  0  0  0  0  0  0
   32.8330   29.2430   36.6650 C   0  0  0  0  0  0  0  0  0  0  0  0
   33.8690   28.8820   37.4890 C   0  0  0  0  0  0  0  0  0  0  0  0
   35.1550   28.7300   37.0040 C   0  0  0  0  0  0  0  0  0  0  0  0
   35.4250   28.9440   35.6540 C   0  0  0  0  0  0  0  0  0  0  0  0
   34.4150   29.3000   34.8300 C   0  0  0  0  0  0  0  0  0  0  0  0
   33.1460   29.4430   35.3440 C   0  0  0  0  0  0  0  0  0  0  0  0
   33.6560   28.7150   38.5460 H   0  0  0  0  0  0  0  0  0  0  0  0
   36.4670   28.7990   35.3770 H   0  0  0  0  0  0  0  0  0  0  0  0
   34.6540   29.4600   33.7860 H   0  0  0  0  0  0  0  0  0  0  0  0
   32.3280   29.7320   34.6740 H   0  0  0  0  0  0  0  0  0  0  0  0
   29.1750   29.1120   36.7930 C   0  0  0  0  0  0  0  0  0  0  0  0
   28.8760   29.6380   38.0730 C   0  0  0  0  0  0  0  0  0  0  0  0
   29.9420   30.0330   38.8820 C   0  0  0  0  0  0  0  0  0  0  0  0
   31.2240   29.9100   38.4360 N   0  0  0  0  0  0  0  0  0  0  0  0
   31.4720   29.3990   37.1970 C   0  0  0  0  0  0  0  0  0  0  0  0
   30.4620   29.0040   36.3840 N   0  0  0  0  0  0  0  0  0  0  0  0
   28.3520   28.8040   36.1620 H   0  0  0  0  0  0  0  0  0  0  0  0
   27.8610   29.7390   38.4340 H   0  0  0  0  0  0  0  0  0  0  0  0
   29.7720   30.4370   39.8580 H   0  0  0  0  0  0  0  0  0  0  0  0
  1 10  1  0  0  0  0
  2  3  1  0  0  0  0
  2  1  2  0  0  0  0
  3  4  2  0  0  0  0
  4  5  1  0  0  0  0
  5  6  1  0  0  0  0
  6 12  1  0  0  0  0
  6  7  2  0  0  0  0
  7 13  1  0  0  0  0
  8  7  1  0  0  0  0
  8 14  1  0  0  0  0
  9  8  2  0  0  0  0
 10  5  2  0  0  0  0
 10  9  1  0  0  0  0
 11  3  1  0  0  0  0
 15  9  1  0  0  0  0
 15 16  1  0  0  0  0
 16 17  1  0  0  0  0
 18 16  2  0  0  0  0
 18 19  1  0  0  0  0
 20 18  1  0  0  0  0
 21 22  1  0  0  0  0
 21 20  2  0  0  0  0
 22 15  2  0  0  0  0
 23  1  1  0  0  0  0
 24 38  1  0  0  0  0
 24 25  1  0  0  0  0
 25 30  1  0  0  0  0
 26 25  2  0  0  0  0
 26 23  1  0  0  0  0
 27 26  1  0  0  0  0
 28 29  1  0  0  0  0
 28 27  2  0  0  0  0
 29 24  2  0  0  0  0
 31 27  1  0  0  0  0
 32 28  1  0  0  0  0
 33 29  1  0  0  0  0
 34 35  1  0  0  0  0
 35 41  1  0  0  0  0
 35 36  2  0  0  0  0
 36 42  1  0  0  0  0
 37 36  1  0  0  0  0
 38 37  2  0  0  0  0
 39 34  2  0  0  0  0
 39 38  1  0  0  0  0
 40 34  1  0  0  0  0
M  END
>  <minimizedAffinity>
-6.33367014

$$$$

 OpenBabel03242516273D

 42 46  0  0  0  0  0  0  0  0999 V2000
   36.9140   28.5680   39.1310 C   0  0  0  0  0  0  0  0  0  0  0  0
   36.6120   29.2920   38.0200 N   0  0  0  0  0  0  0  0  0  0  0  0
   36.0450   28.7530   36.9320 C   0  0  0  0  0  0  0  0  0  0  0  0
   35.7690   27.4360   36.9590 N   0  0  0  0  0  0  0  0  0  0  0  0
   36.0350   26.6480   38.0160 C   0  0  0  0  0  0  0  0  0  0  0  0
   35.7490   25.2920   38.0430 C   0  0  0  0  0  0  0  0  0  0  0  0
   36.0400   24.5340   39.1520 C   0  0  0  0  0  0  0  0  0  0  0  0
   36.6330   25.0930   40.2890 C   0  0  0  0  0  0  0  0  0  0  0  0
   36.9000   26.4510   40.2160 C   0  0  0  0  0  0  0  0  0  0  0  0
   36.6160   27.2230   39.1190 C   0  0  0  0  0  0  0  0  0  0  0  0
   35.8070   29.3300   36.0510 H   0  0  0  0  0  0  0  0  0  0  0  0
   35.2920   24.8920   37.1500 H   0  0  0  0  0  0  0  0  0  0  0  0
   35.7710   23.4900   39.0520 H   0  0  0  0  0  0  0  0  0  0  0  0
   36.8100   24.4130   41.0820 H   0  0  0  0  0  0  0  0  0  0  0  0
   37.5130   26.8900   41.4620 C   0  0  0  0  0  0  0  0  0  0  0  0
   36.5840   27.2340   42.4520 C   0  0  0  0  0  0  0  0  0  0  0  0
   35.5310   27.1970   42.3080 H   0  0  0  0  0  0  0  0  0  0  0  0
   37.1130   27.6390   43.6790 C   0  0  0  0  0  0  0  0  0  0  0  0
   36.4940   27.9280   44.5190 H   0  0  0  0  0  0  0  0  0  0  0  0
   38.4770   27.6900   43.8810 C   0  0  0  0  0  3  0  0  0  0  0  0
   39.3600   27.3430   42.8780 C   0  0  0  0  0  3  0  0  0  0  0  0
   38.8620   26.9470   41.6780 N   0  0  0  0  0  0  0  0  0  0  0  0
   37.6580   29.2560   40.5870 S   0  0  0  0  0  0  0  0  0  0  0  0
   39.7990   32.6360   40.1530 C   0  0  0  0  0  0  0  0  0  0  0  0
   39.4070   31.3380   40.3640 C   0  0  0  0  0  0  0  0  0  0  0  0
   38.0770   30.9670   40.2980 C   0  0  0  0  0  0  0  0  0  0  0  0
   37.0980   31.9180   40.0140 C   0  0  0  0  0  0  0  0  0  0  0  0
   37.4670   33.2000   39.8050 C   0  0  0  0  0  0  0  0  0  0  0  0
   38.8010   33.5360   39.8770 C   0  0  0  0  0  0  0  0  0  0  0  0
   40.1750   30.5950   40.5860 H   0  0  0  0  0  0  0  0  0  0  0  0
   36.0850   31.5220   39.9850 H   0  0  0  0  0  0  0  0  0  0  0  0
   36.6860   33.9160   39.5850 H   0  0  0  0  0  0  0  0  0  0  0  0
   39.0990   34.5770   39.7070 H   0  0  0  0  0  0  0  0  0  0  0  0
   43.4280   32.4020   39.7200 C   0  0  0  0  0  0  0  0  0  0  0  0
   43.9030   33.5990   40.3060 C   0  0  0  0  0  0  0  0  0  0  0  0
   42.9630   34.4790   40.8460 C   0  0  0  0  0  0  0  0  0  0  0  0
   41.6360   34.1760   40.8020 N   0  0  0  0  0  0  0  0  0  0  0  0
   41.2170   33.0130   40.2280 C   0  0  0  0  0  0  0  0  0  0  0  0
   42.1000   32.1350   39.6940 N   0  0  0  0  0  0  0  0  0  0  0  0
   44.1520   31.7160   39.2990 H   0  0  0  0  0  0  0  0  0  0  0  0
   44.9550   33.8470   40.3450 H   0  0  0  0  0  0  0  0  0  0  0  0
   43.2680   35.3990   41.3010 H   0  0  0  0  0  0  0  0  0  0  0  0
  1 23  1  0  0  0  0
  2  1  2  0  0  0  0
  3  4  2  0  0  0  0
  3  2  1  0  0  0  0
  4  5  1  0  0  0  0
  5  6  2  0  0  0  0
  5 10  1  0  0  0  0
  6  7  1  0  0  0  0
  7  8  2  0  0  0  0
  8 14  1  0  0  0  0
  9  8  1  0  0  0  0
  9 15  1  0  0  0  0
 10  1  1  0  0  0  0
 10  9  2  0  0  0  0
 11  3  1  0  0  0  0
 12  6  1  0  0  0  0
 13  7  1  0  0  0  0
 15 22  2  0  0  0  0
 15 16  1  0  0  0  0
 16 18  2  0  0  0  0
 17 16  1  0  0  0  0
 18 20  1  0  0  0  0
 18 19  1  0  0  0  0
 21 20  2  0  0  0  0
 22 21  1  0  0  0  0
 24 38  1  0  0  0  0
 24 25  1  0  0  0  0
 25 30  1  0  0  0  0
 26 25  2  0  0  0  0
 26 23  1  0  0  0  0
 27 26  1  0  0  0  0
 28 29  1  0  0  0  0
 28 27  2  0  0  0  0
 29 24  2  0  0  0  0
 31 27  1  0  0  0  0
 32 28  1  0  0  0  0
 33 29  1  0  0  0  0
 34 35  1  0  0  0  0
 35 41  1  0  0  0  0
 35 36  2  0  0  0  0
 36 42  1  0  0  0  0
 37 36  1  0  0  0  0
 38 37  2  0  0  0  0
 39 34  2  0  0  0  0
 39 38  1  0  0  0  0
 40 34  1  0  0  0  0
M  END
>  <minimizedAffinity>
-6.32895422

$$$$

 OpenBabel03242516273D

 42 46  0  0  0  0  0  0  0  0999 V2000
   39.0250   29.5570   42.7330 C   0  0  0  0  0  0  0  0  0  0  0  0
   37.7060   29.3250   42.9640 N   0  0  0  0  0  0  0  0  0  0  0  0
   37.2470   28.1690   43.4640 C   0  0  0  0  0  0  0  0  0  0  0  0
   38.1470   27.2080   43.7430 N   0  0  0  0  0  0  0  0  0  0  0  0
   39.4690   27.3560   43.5450 C   0  0  0  0  0  0  0  0  0  0  0  0
   40.3960   26.3670   43.8350 C   0  0  0  0  0  0  0  0  0  0  0  0
   41.7360   26.5720   43.6140 C   0  0  0  0  0  0  0  0  0  0  0  0
   42.2190   27.7780   43.0920 C   0  0  0  0  0  0  0  0  0  0  0  0
   41.2570   28.7360   42.8170 C   0  0  0  0  0  0  0  0  0  0  0  0
   39.9150   28.5490   43.0320 C   0  0  0  0  0  0  0  0  0  0  0  0
   36.1990   27.9870   43.6460 H   0  0  0  0  0  0  0  0  0  0  0  0
   39.9910   25.4490   44.2360 H   0  0  0  0  0  0  0  0  0  0  0  0
   42.3590   25.7270   43.8790 H   0  0  0  0  0  0  0  0  0  0  0  0
   43.2690   27.8220   42.9640 H   0  0  0  0  0  0  0  0  0  0  0  0
   41.9010   29.9270   42.2820 C   0  0  0  0  0  0  0  0  0  0  0  0
   42.3780   30.7980   43.2700 C   0  0  0  0  0  0  0  0  0  0  0  0
   42.2650   30.6210   44.3120 H   0  0  0  0  0  0  0  0  0  0  0  0
   43.0280   31.9470   42.8170 C   0  0  0  0  0  0  0  0  0  0  0  0
   43.4380   32.6930   43.4860 H   0  0  0  0  0  0  0  0  0  0  0  0
   43.1810   32.1890   41.4670 C   0  0  0  0  0  3  0  0  0  0  0  0
   42.6960   31.3050   40.5240 C   0  0  0  0  0  3  0  0  0  0  0  0
   42.0600   30.1820   40.9480 N   0  0  0  0  0  0  0  0  0  0  0  0
   39.6610   31.0790   42.0790 S   0  0  0  0  0  0  0  0  0  0  0  0
   37.8190   30.9550   38.5030 C   0  0  0  0  0  0  0  0  0  0  0  0
   38.5390   30.6470   39.6290 C   0  0  0  0  0  0  0  0  0  0  0  0
   38.7080   31.5650   40.6500 C   0  0  0  0  0  0  0  0  0  0  0  0
   38.1440   32.8350   40.5500 C   0  0  0  0  0  0  0  0  0  0  0  0
   37.4320   33.1540   39.4460 C   0  0  0  0  0  0  0  0  0  0  0  0
   37.2820   32.2170   38.4490 C   0  0  0  0  0  0  0  0  0  0  0  0
   38.9800   29.6520   39.7060 H   0  0  0  0  0  0  0  0  0  0  0  0
   38.3360   33.4790   41.4050 H   0  0  0  0  0  0  0  0  0  0  0  0
   37.0050   34.1480   39.3970 H   0  0  0  0  0  0  0  0  0  0  0  0
   36.7050   32.4770   37.5550 H   0  0  0  0  0  0  0  0  0  0  0  0
   38.5060   28.0370   36.3990 C   0  0  0  0  0  0  0  0  0  0  0  0
   37.4490   28.0580   35.4590 C   0  0  0  0  0  0  0  0  0  0  0  0
   36.5050   29.0810   35.5610 C   0  0  0  0  0  0  0  0  0  0  0  0
   36.6160   30.0220   36.5400 N   0  0  0  0  0  0  0  0  0  0  0  0
   37.6500   29.9680   37.4280 C   0  0  0  0  0  0  0  0  0  0  0  0
   38.5840   28.9890   37.3600 N   0  0  0  0  0  0  0  0  0  0  0  0
   39.2410   27.2450   36.3250 H   0  0  0  0  0  0  0  0  0  0  0  0
   37.3540   27.3150   34.6790 H   0  0  0  0  0  0  0  0  0  0  0  0
   35.6850   29.1430   34.8760 H   0  0  0  0  0  0  0  0  0  0  0  0
  1  2  2  0  0  0  0
  1 10  1  0  0  0  0
  2  3  1  0  0  0  0
  3 11  1  0  0  0  0
  3  4  2  0  0  0  0
  5  4  1  0  0  0  0
  5  6  1  0  0  0  0
  6 12  1  0  0  0  0
  7  6  2  0  0  0  0
  7 13  1  0  0  0  0
  8  7  1  0  0  0  0
  9 10  1  0  0  0  0
  9  8  2  0  0  0  0
 10  5  2  0  0  0  0
 14  8  1  0  0  0  0
 15  9  1  0  0  0  0
 15 16  1  0  0  0  0
 16 17  1  0  0  0  0
 18 16  2  0  0  0  0
 18 19  1  0  0  0  0
 20 18  1  0  0  0  0
 21 22  1  0  0  0  0
 21 20  2  0  0  0  0
 22 15  2  0  0  0  0
 23  1  1  0  0  0  0
 24 25  1  0  0  0  0
 25 30  1  0  0  0  0
 25 26  2  0  0  0  0
 26 23  1  0  0  0  0
 27 26  1  0  0  0  0
 27 31  1  0  0  0  0
 28 27  2  0  0  0  0
 29 24  2  0  0  0  0
 29 28  1  0  0  0  0
 32 28  1  0  0  0  0
 33 29  1  0  0  0  0
 34 39  1  0  0  0  0
 35 36  1  0  0  0  0
 35 34  2  0  0  0  0
 36 37  2  0  0  0  0
 37 38  1  0  0  0  0
 38 24  1  0  0  0  0
 39 38  2  0  0  0  0
 40 34  1  0  0  0  0
 41 35  1  0  0  0  0
 42 36  1  0  0  0  0
M  END
>  <minimizedAffinity>
-6.30393791

$$$$
