
 OpenBabel03252508323D

 31 33  0  0  1  0  0  0  0  0999 V2000
   44.3750   34.4850   41.8230 N   0  0  0  0  0  0  0  0  0  0  0  0
   44.8220   33.4170   40.9860 C   0  0  1  0  0  0  0  0  0  0  0  0
   44.3490   33.4750   39.5830 C   0  0  0  0  0  0  0  0  0  0  0  0
   43.0950   34.0340   39.3270 N   0  0  0  0  0  0  0  0  0  0  0  0
   42.5880   34.9850   40.2370 C   0  0  0  0  0  0  0  0  0  0  0  0
   43.6810   35.5320   41.1360 C   0  0  0  0  0  0  0  0  0  0  0  0
   44.4880   32.4520   41.4680 H   0  0  0  0  0  0  0  0  0  0  0  0
   45.1180   33.9740   38.9550 H   0  0  0  0  0  0  0  0  0  0  0  0
   44.3370   32.4110   39.2060 H   0  0  0  0  0  0  0  0  0  0  0  0
   43.0590   34.4300   38.3580 H   0  0  0  0  0  0  0  0  0  0  0  0
   42.1270   35.8960   39.7610 H   0  0  0  0  0  0  0  0  0  0  0  0
   41.8180   34.5230   40.8720 H   0  0  0  0  0  0  0  0  0  0  0  0
   44.3630   36.0980   40.4320 H   0  0  0  0  0  0  0  0  0  0  0  0
   43.2160   36.3010   41.7430 H   0  0  0  0  0  0  0  0  0  0  0  0
   44.3450   35.5460   43.9530 C   0  0  0  0  0  0  0  0  0  0  0  0
   44.6530   34.4160   43.2040 C   0  0  0  0  0  0  0  0  0  0  0  0
   45.2070   33.3400   43.8740 C   0  0  0  0  0  0  0  0  0  0  0  0
   45.4440   33.3780   45.2100 N   0  0  0  0  0  0  0  0  0  0  0  0
   45.1300   34.5030   45.9180 C   0  0  0  0  0  0  0  0  0  0  0  0
   44.5950   35.5500   45.2930 N   0  0  0  0  0  0  0  0  0  0  0  0
   43.9130   36.4790   43.6300 H   0  0  0  0  0  0  0  0  0  0  0  0
   45.4430   32.4720   43.3090 H   0  0  0  0  0  0  0  0  0  0  0  0
   45.3400   34.4770   46.9760 H   0  0  0  0  0  0  0  0  0  0  0  0
   46.3070   33.3470   40.9310 C   0  0  0  0  0  0  0  0  0  0  0  0
   47.0790   34.4790   40.7470 C   0  0  0  0  0  0  0  0  0  0  0  0
   46.6430   35.4470   40.6410 H   0  0  0  0  0  0  0  0  0  0  0  0
   48.4610   34.4720   40.6820 C   0  0  0  0  0  0  0  0  0  0  0  0
   49.0490   35.3680   40.5380 H   0  0  0  0  0  0  0  0  0  0  0  0
   49.1380   33.2890   40.8050 C   0  0  0  0  0  3  0  0  0  0  0  0
   48.3690   32.1600   40.9890 C   0  0  0  0  0  3  0  0  0  0  0  0
   47.0490   32.2070   41.0450 N   0  0  0  0  0  0  0  0  0  0  0  0
  1 16  1  0  0  0  0
  2  7  1  1  0  0  0
  2  1  1  0  0  0  0
  3  2  1  0  0  0  0
  4  3  1  0  0  0  0
  4  5  1  0  0  0  0
  5 12  1  0  0  0  0
  5  6  1  0  0  0  0
  6 14  1  0  0  0  0
  6  1  1  0  0  0  0
  8  3  1  0  0  0  0
  9  3  1  0  0  0  0
 10  4  1  0  0  0  0
 11  5  1  0  0  0  0
 13  6  1  0  0  0  0
 15 20  1  0  0  0  0
 16 17  1  0  0  0  0
 16 15  2  0  0  0  0
 17 18  2  0  0  0  0
 18 19  1  0  0  0  0
 19 23  1  0  0  0  0
 20 19  2  0  0  0  0
 21 15  1  0  0  0  0
 22 17  1  0  0  0  0
 24  2  1  0  0  0  0
 24 31  1  0  0  0  0
 25 24  2  0  0  0  0
 26 25  1  0  0  0  0
 27 25  1  0  0  0  0
 27 29  2  0  0  0  0
 28 27  1  0  0  0  0
 29 30  1  0  0  0  0
 30 31  2  0  0  0  0
M  END
>  <minimizedAffinity>
-4.4072299

>  <minimizedRMSD>
0.892387629

$$$$
