
 OpenBabel03252508323D

 31 33  0  0  1  0  0  0  0  0999 V2000
   44.3100   34.3830   41.5470 N   0  0  0  0  0  0  0  0  0  0  0  0
   44.7910   33.2740   40.7860 C   0  0  1  0  0  0  0  0  0  0  0  0
   44.3240   33.2220   39.3810 C   0  0  0  0  0  0  0  0  0  0  0  0
   43.0560   33.7240   39.0840 N   0  0  0  0  0  0  0  0  0  0  0  0
   42.5170   34.7210   39.9250 C   0  0  0  0  0  0  0  0  0  0  0  0
   43.5890   35.3600   40.7880 C   0  0  0  0  0  0  0  0  0  0  0  0
   44.4840   32.3350   41.3330 H   0  0  0  0  0  0  0  0  0  0  0  0
   45.0810   33.6990   38.7230 H   0  0  0  0  0  0  0  0  0  0  0  0
   44.3450   32.1350   39.0780 H   0  0  0  0  0  0  0  0  0  0  0  0
   43.0130   34.0520   38.0900 H   0  0  0  0  0  0  0  0  0  0  0  0
   42.0310   35.5820   39.3870 H   0  0  0  0  0  0  0  0  0  0  0  0
   41.7570   34.2800   40.5880 H   0  0  0  0  0  0  0  0  0  0  0  0
   44.2570   35.8960   40.0490 H   0  0  0  0  0  0  0  0  0  0  0  0
   43.0980   36.1540   41.3390 H   0  0  0  0  0  0  0  0  0  0  0  0
   44.3100   35.6130   43.5840 C   0  0  0  0  0  0  0  0  0  0  0  0
   44.5830   34.4170   42.9300 C   0  0  0  0  0  0  0  0  0  0  0  0
   45.1010   33.3820   43.6870 C   0  0  0  0  0  0  0  0  0  0  0  0
   45.3360   33.5200   45.0160 N   0  0  0  0  0  0  0  0  0  0  0  0
   45.0570   34.7080   45.6300 C   0  0  0  0  0  0  0  0  0  0  0  0
   44.5580   35.7180   44.9200 N   0  0  0  0  0  0  0  0  0  0  0  0
   43.9090   36.5310   43.1850 H   0  0  0  0  0  0  0  0  0  0  0  0
   45.3090   32.4630   43.1950 H   0  0  0  0  0  0  0  0  0  0  0  0
   45.2640   34.7610   46.6880 H   0  0  0  0  0  0  0  0  0  0  0  0
   46.2780   33.2450   40.7410 C   0  0  0  0  0  0  0  0  0  0  0  0
   47.0190   34.3940   40.5420 C   0  0  0  0  0  0  0  0  0  0  0  0
   46.5580   35.3480   40.4190 H   0  0  0  0  0  0  0  0  0  0  0  0
   48.4020   34.4260   40.4850 C   0  0  0  0  0  0  0  0  0  0  0  0
   48.9650   35.3340   40.3290 H   0  0  0  0  0  0  0  0  0  0  0  0
   49.1110   33.2630   40.6310 C   0  0  0  0  0  3  0  0  0  0  0  0
   48.3710   32.1170   40.8300 C   0  0  0  0  0  3  0  0  0  0  0  0
   47.0500   32.1270   40.8780 N   0  0  0  0  0  0  0  0  0  0  0  0
  1 16  1  0  0  0  0
  2  7  1  1  0  0  0
  2  1  1  0  0  0  0
  3  2  1  0  0  0  0
  4  3  1  0  0  0  0
  4  5  1  0  0  0  0
  5 12  1  0  0  0  0
  5  6  1  0  0  0  0
  6 14  1  0  0  0  0
  6  1  1  0  0  0  0
  8  3  1  0  0  0  0
  9  3  1  0  0  0  0
 10  4  1  0  0  0  0
 11  5  1  0  0  0  0
 13  6  1  0  0  0  0
 15 20  1  0  0  0  0
 16 15  2  0  0  0  0
 16 17  1  0  0  0  0
 17 18  2  0  0  0  0
 18 19  1  0  0  0  0
 19 23  1  0  0  0  0
 20 19  2  0  0  0  0
 21 15  1  0  0  0  0
 22 17  1  0  0  0  0
 24  2  1  0  0  0  0
 24 31  1  0  0  0  0
 25 24  2  0  0  0  0
 26 25  1  0  0  0  0
 27 25  1  0  0  0  0
 27 29  2  0  0  0  0
 28 27  1  0  0  0  0
 29 30  1  0  0  0  0
 30 31  2  0  0  0  0
M  END
>  <minimizedAffinity>
-4.34745646

>  <minimizedRMSD>
1.03629375

$$$$
