
 OpenBabel03252508323D

 31 33  0  0  1  0  0  0  0  0999 V2000
   44.2560   34.5070   41.7550 N   0  0  0  0  0  0  0  0  0  0  0  0
   44.6200   33.4730   40.8380 C   0  0  1  0  0  0  0  0  0  0  0  0
   44.0460   33.6050   39.4780 C   0  0  0  0  0  0  0  0  0  0  0  0
   42.7880   34.1940   39.3430 N   0  0  0  0  0  0  0  0  0  0  0  0
   42.3670   35.1080   40.3320 C   0  0  0  0  0  0  0  0  0  0  0  0
   43.5330   35.5950   41.1710 C   0  0  0  0  0  0  0  0  0  0  0  0
   44.3050   32.4910   41.2990 H   0  0  0  0  0  0  0  0  0  0  0  0
   44.7760   34.1220   38.8190 H   0  0  0  0  0  0  0  0  0  0  0  0
   43.9870   32.5610   39.0550 H   0  0  0  0  0  0  0  0  0  0  0  0
   42.6880   34.6360   38.3990 H   0  0  0  0  0  0  0  0  0  0  0  0
   41.8880   36.0470   39.9340 H   0  0  0  0  0  0  0  0  0  0  0  0
   41.6370   34.6280   41.0000 H   0  0  0  0  0  0  0  0  0  0  0  0
   44.1710   36.1840   40.4450 H   0  0  0  0  0  0  0  0  0  0  0  0
   43.1280   36.3410   41.8460 H   0  0  0  0  0  0  0  0  0  0  0  0
   44.4480   35.4820   43.9170 C   0  0  0  0  0  0  0  0  0  0  0  0
   44.6340   34.3680   43.1070 C   0  0  0  0  0  0  0  0  0  0  0  0
   45.1750   33.2380   43.6930 C   0  0  0  0  0  0  0  0  0  0  0  0
   45.5150   33.2100   45.0060 N   0  0  0  0  0  0  0  0  0  0  0  0
   45.3190   34.3220   45.7760 C   0  0  0  0  0  0  0  0  0  0  0  0
   44.7990   35.4200   45.2320 N   0  0  0  0  0  0  0  0  0  0  0  0
   44.0470   36.4500   43.6620 H   0  0  0  0  0  0  0  0  0  0  0  0
   45.3170   32.3810   43.0800 H   0  0  0  0  0  0  0  0  0  0  0  0
   45.6070   34.2420   46.8130 H   0  0  0  0  0  0  0  0  0  0  0  0
   46.0950   33.3840   40.6700 C   0  0  0  0  0  0  0  0  0  0  0  0
   46.7390   32.1680   40.5520 C   0  0  0  0  0  0  0  0  0  0  0  0
   46.2060   31.2440   40.5700 H   0  0  0  0  0  0  0  0  0  0  0  0
   48.1070   32.0250   40.3980 C   0  0  0  0  0  0  0  0  0  0  0  0
   48.5940   31.0640   40.3080 H   0  0  0  0  0  0  0  0  0  0  0  0
   48.9020   33.1380   40.3580 C   0  0  0  0  0  3  0  0  0  0  0  0
   48.2610   34.3520   40.4770 C   0  0  0  0  0  3  0  0  0  0  0  0
   46.9510   34.4480   40.6210 N   0  0  0  0  0  0  0  0  0  0  0  0
  1 16  1  0  0  0  0
  2  7  1  1  0  0  0
  2  1  1  0  0  0  0
  3  2  1  0  0  0  0
  4  3  1  0  0  0  0
  4  5  1  0  0  0  0
  5 12  1  0  0  0  0
  5  6  1  0  0  0  0
  6  1  1  0  0  0  0
  6 14  1  0  0  0  0
  8  3  1  0  0  0  0
  9  3  1  0  0  0  0
 10  4  1  0  0  0  0
 11  5  1  0  0  0  0
 13  6  1  0  0  0  0
 15 20  1  0  0  0  0
 16 17  1  0  0  0  0
 16 15  2  0  0  0  0
 17 18  2  0  0  0  0
 18 19  1  0  0  0  0
 19 23  1  0  0  0  0
 20 19  2  0  0  0  0
 21 15  1  0  0  0  0
 22 17  1  0  0  0  0
 24  2  1  0  0  0  0
 25 26  1  0  0  0  0
 25 24  2  0  0  0  0
 27 25  1  0  0  0  0
 28 27  1  0  0  0  0
 29 27  2  0  0  0  0
 29 30  1  0  0  0  0
 30 31  2  0  0  0  0
 31 24  1  0  0  0  0
M  END
>  <minimizedAffinity>
-4.2737422

>  <minimizedRMSD>
0.607302785

$$$$
