
 OpenBabel03252503243D

 46 51  0  0  1  0  0  0  0  0999 V2000
   46.6450   33.4610   43.0370 C   0  0  1  0  0  0  0  0  0  0  0  0
   46.8350   34.8280   42.5620 C   0  0  0  0  0  0  0  0  0  0  0  0
   48.0190   33.9360   42.5950 C   0  0  2  0  0  0  0  0  0  0  0  0
   46.1450   32.7260   42.3820 H   0  0  0  0  0  0  0  0  0  0  0  0
   46.2730   35.1370   41.6980 H   0  0  0  0  0  0  0  0  0  0  0  0
   46.8020   35.6080   43.3910 H   0  0  0  0  0  0  0  0  0  0  0  0
   48.7690   33.9770   43.4110 H   0  0  0  0  0  0  0  0  0  0  0  0
   48.4660   33.3640   41.2920 C   0  0  0  0  0  0  0  0  0  0  0  0
   49.3220   32.2880   41.1770 C   0  0  0  0  0  0  0  0  0  0  0  0
   49.7030   31.8110   39.9330 C   0  0  0  0  0  0  0  0  0  0  0  0
   49.2270   32.4070   38.7840 C   0  0  0  0  0  0  0  0  0  0  0  0
   49.5790   31.9560   37.5500 N   0  0  0  0  0  0  0  0  0  0  0  0
   49.0980   32.5550   36.4420 C   0  0  0  0  0  0  0  0  0  0  0  0
   48.2160   33.6630   36.4620 C   0  0  0  0  0  0  0  0  0  0  0  0
   47.8510   34.1300   37.7070 C   0  0  0  0  0  0  0  0  0  0  0  0
   48.3570   33.5020   38.8410 C   0  0  0  0  0  0  0  0  0  0  0  0
   48.0080   33.9410   40.1050 C   0  0  0  0  0  0  0  0  0  0  0  0
   49.6910   31.8260   42.0720 H   0  0  0  0  0  0  0  0  0  0  0  0
   50.3790   30.9620   39.8820 H   0  0  0  0  0  0  0  0  0  0  0  0
   49.3980   32.1710   35.4740 H   0  0  0  0  0  0  0  0  0  0  0  0
   47.8710   34.0900   35.5310 H   0  0  0  0  0  0  0  0  0  0  0  0
   47.1810   34.9740   37.7830 H   0  0  0  0  0  0  0  0  0  0  0  0
   47.3400   34.7900   40.0740 H   0  0  0  0  0  0  0  0  0  0  0  0
   47.3240   32.2240   45.1200 C   0  0  0  0  0  0  0  0  0  0  0  0
   46.4690   33.1790   44.4900 C   0  0  0  0  0  0  0  0  0  0  0  0
   45.5140   33.7910   45.2620 C   0  0  0  0  0  0  0  0  0  0  0  0
   45.4550   33.4380   46.5760 N   0  0  0  0  0  0  0  0  0  0  0  0
   46.2600   32.5420   47.1540 C   0  0  0  0  0  0  0  0  0  0  0  0
   47.2020   31.9290   46.4230 N   0  0  0  0  0  0  0  0  0  0  0  0
   48.0900   31.7270   44.5180 H   0  0  0  0  0  0  0  0  0  0  0  0
   44.8540   34.5150   44.8230 H   0  0  0  0  0  0  0  0  0  0  0  0
   46.0770   32.2700   48.6010 C   0  0  2  0  0  0  0  0  0  0  0  0
   46.8480   31.2650   49.3110 C   0  0  0  0  0  0  0  0  0  0  0  0
   45.4790   30.8570   48.9080 C   0  0  2  0  0  0  0  0  0  0  0  0
   45.4480   33.0690   49.0940 H   0  0  0  0  0  0  0  0  0  0  0  0
   47.7500   30.8540   48.8530 H   0  0  0  0  0  0  0  0  0  0  0  0
   47.0060   31.4850   50.4130 H   0  0  0  0  0  0  0  0  0  0  0  0
   44.6190   30.8790   49.6200 H   0  0  0  0  0  0  0  0  0  0  0  0
   45.4020   29.9000   47.7770 C   0  0  0  0  0  0  0  0  0  0  0  0
   44.4300   29.7470   46.8140 C   0  0  0  0  0  0  0  0  0  0  0  0
   43.6080   30.4420   46.8720 H   0  0  0  0  0  0  0  0  0  0  0  0
   44.4740   28.8030   45.8270 C   0  0  0  0  0  0  0  0  0  0  0  0
   43.6670   28.7600   45.1190 H   0  0  0  0  0  0  0  0  0  0  0  0
   45.5290   27.9430   45.7590 C   0  0  0  0  0  0  0  0  0  0  0  0
   46.4840   28.1220   46.7360 C   0  0  0  0  0  0  0  0  0  0  0  0
   46.4470   29.0460   47.7080 N   0  0  0  0  0  0  0  0  0  0  0  0
  1  4  1  6  0  0  0
  1 25  1  0  0  0  0
  2  3  1  0  0  0  0
  2  1  1  0  0  0  0
  2  6  1  0  0  0  0
  3  1  1  0  0  0  0
  3  7  1  1  0  0  0
  5  2  1  0  0  0  0
  8  3  1  0  0  0  0
  9  8  1  0  0  0  0
  9 18  1  0  0  0  0
 10  9  2  0  0  0  0
 11 16  1  0  0  0  0
 11 10  1  0  0  0  0
 12 11  2  0  0  0  0
 13 14  2  0  0  0  0
 13 12  1  0  0  0  0
 14 15  1  0  0  0  0
 15 22  1  0  0  0  0
 15 16  2  0  0  0  0
 16 17  1  0  0  0  0
 17  8  2  0  0  0  0
 19 10  1  0  0  0  0
 20 13  1  0  0  0  0
 21 14  1  0  0  0  0
 23 17  1  0  0  0  0
 24 29  1  0  0  0  0
 25 24  2  0  0  0  0
 25 26  1  0  0  0  0
 26 27  2  0  0  0  0
 27 28  1  0  0  0  0
 28 32  1  0  0  0  0
 29 28  2  0  0  0  0
 30 24  1  0  0  0  0
 31 26  1  0  0  0  0
 32 34  1  0  0  0  0
 32 35  1  1  0  0  0
 32 33  1  0  0  0  0
 33 37  1  0  0  0  0
 34 33  1  0  0  0  0
 34 38  1  1  0  0  0
 36 33  1  0  0  0  0
 39 34  1  0  0  0  0
 40 41  1  0  0  0  0
 40 39  2  0  0  0  0
 42 40  1  0  0  0  0
 43 42  1  0  0  0  0
 44 42  2  0  0  0  0
 44 45  1  0  0  0  0
 45 46  2  0  0  0  0
 46 39  1  0  0  0  0
M  END
>  <minimizedAffinity>
-6.02361965

>  <minimizedRMSD>
1.1500107

$$$$
