
 OpenBabel03242514413D

 31 33  0  0  1  0  0  0  0  0999 V2000
   38.7100   31.5730   40.7940 N   0  0  0  0  0  0  0  0  0  0  0  0
   39.8030   32.5120   40.5910 C   0  0  0  0  0  0  0  0  0  0  0  0
   39.3220   33.9390   40.5670 C   0  0  0  0  0  0  0  0  0  0  0  0
   38.2480   34.1610   39.6670 N   0  0  0  0  0  0  0  0  0  0  0  0
   37.2940   33.1330   39.5510 C   0  0  0  0  0  0  0  0  0  0  0  0
   37.3830   31.9680   40.4650 C   0  0  1  0  0  0  0  0  0  0  0  0
   40.2660   32.2590   39.6030 H   0  0  0  0  0  0  0  0  0  0  0  0
   40.5860   32.4280   41.3670 H   0  0  0  0  0  0  0  0  0  0  0  0
   40.1970   34.5470   40.2160 H   0  0  0  0  0  0  0  0  0  0  0  0
   39.0490   34.2330   41.6030 H   0  0  0  0  0  0  0  0  0  0  0  0
   38.5290   34.5860   38.7580 H   0  0  0  0  0  0  0  0  0  0  0  0
   36.2740   33.5930   39.7040 H   0  0  0  0  0  0  0  0  0  0  0  0
   37.2550   32.7600   38.5030 H   0  0  0  0  0  0  0  0  0  0  0  0
   36.8950   32.2670   41.4300 H   0  0  0  0  0  0  0  0  0  0  0  0
   39.0310   28.5580   43.0010 C   0  0  0  0  0  0  0  0  0  0  0  0
   38.7100   29.8770   42.6250 C   0  0  0  0  0  0  0  0  0  0  0  0
   38.9770   30.2800   41.3170 C   0  0  0  0  0  0  0  0  0  0  0  0
   39.5340   29.3440   40.5060 N   0  0  0  0  0  0  0  0  0  0  0  0
   39.8350   28.0850   40.8840 C   0  0  0  0  0  0  0  0  0  0  0  0
   39.5770   27.7000   42.1440 N   0  0  0  0  0  0  0  0  0  0  0  0
   38.8110   28.2720   44.0280 H   0  0  0  0  0  0  0  0  0  0  0  0
   38.2680   30.6060   43.2850 H   0  0  0  0  0  0  0  0  0  0  0  0
   40.2800   27.4730   40.0880 H   0  0  0  0  0  0  0  0  0  0  0  0
   36.5510   30.8760   39.8640 C   0  0  0  0  0  0  0  0  0  0  0  0
   36.6590   30.5730   38.5030 C   0  0  0  0  0  0  0  0  0  0  0  0
   37.3610   31.1500   37.9030 H   0  0  0  0  0  0  0  0  0  0  0  0
   35.8700   29.5490   37.9680 C   0  0  0  0  0  0  0  0  0  0  0  0
   35.9640   29.3200   36.9000 H   0  0  0  0  0  0  0  0  0  0  0  0
   34.9930   28.8410   38.7640 C   0  0  0  0  0  3  0  0  0  0  0  0
   34.9110   29.1680   40.1050 C   0  0  0  0  0  3  0  0  0  0  0  0
   35.6820   30.1580   40.6000 N   0  0  0  0  0  0  0  0  0  0  0  0
  1 17  1  0  0  0  0
  2  1  1  0  0  0  0
  2  8  1  0  0  0  0
  3  2  1  0  0  0  0
  3 10  1  0  0  0  0
  4  3  1  0  0  0  0
  5  4  1  0  0  0  0
  5 12  1  0  0  0  0
  5  6  1  0  0  0  0
  6  1  1  0  0  0  0
  6 14  1  1  0  0  0
  7  2  1  0  0  0  0
  9  3  1  0  0  0  0
 11  4  1  0  0  0  0
 13  5  1  0  0  0  0
 15 21  1  0  0  0  0
 16 15  1  0  0  0  0
 16 22  1  0  0  0  0
 17 16  2  0  0  0  0
 18 19  2  0  0  0  0
 18 17  1  0  0  0  0
 19 20  1  0  0  0  0
 20 15  2  0  0  0  0
 23 19  1  0  0  0  0
 24  6  1  0  0  0  0
 24 31  1  0  0  0  0
 25 24  2  0  0  0  0
 26 25  1  0  0  0  0
 27 25  1  0  0  0  0
 27 29  2  0  0  0  0
 28 27  1  0  0  0  0
 29 30  1  0  0  0  0
 30 31  2  0  0  0  0
M  END
>  <minimizedAffinity>
-5.11581993

$$$$

 OpenBabel03242514413D

 31 33  0  0  1  0  0  0  0  0999 V2000
   38.6540   31.5400   40.7760 N   0  0  0  0  0  0  0  0  0  0  0  0
   39.7550   32.4790   40.6160 C   0  0  0  0  0  0  0  0  0  0  0  0
   39.2790   33.9080   40.6010 C   0  0  0  0  0  0  0  0  0  0  0  0
   38.2290   34.1460   39.6760 N   0  0  0  0  0  0  0  0  0  0  0  0
   37.2760   33.1230   39.5190 C   0  0  0  0  0  0  0  0  0  0  0  0
   37.3380   31.9430   40.4170 C   0  0  1  0  0  0  0  0  0  0  0  0
   40.2430   32.2400   39.6370 H   0  0  0  0  0  0  0  0  0  0  0  0
   40.5170   32.3810   41.4110 H   0  0  0  0  0  0  0  0  0  0  0  0
   40.1640   34.5180   40.2830 H   0  0  0  0  0  0  0  0  0  0  0  0
   38.9790   34.1860   41.6330 H   0  0  0  0  0  0  0  0  0  0  0  0
   38.5360   34.5840   38.7810 H   0  0  0  0  0  0  0  0  0  0  0  0
   36.2530   33.5830   39.6510 H   0  0  0  0  0  0  0  0  0  0  0  0
   37.2640   32.7660   38.4650 H   0  0  0  0  0  0  0  0  0  0  0  0
   36.8250   32.2300   41.3740 H   0  0  0  0  0  0  0  0  0  0  0  0
   39.7350   27.9780   41.2300 C   0  0  0  0  0  0  0  0  0  0  0  0
   39.5600   29.2220   40.5930 C   0  0  0  0  0  0  0  0  0  0  0  0
   38.9040   30.2390   41.2860 C   0  0  0  0  0  0  0  0  0  0  0  0
   38.4840   29.9310   42.5410 N   0  0  0  0  0  0  0  0  0  0  0  0
   38.6610   28.7330   43.1350 C   0  0  0  0  0  0  0  0  0  0  0  0
   39.2930   27.7560   42.4650 N   0  0  0  0  0  0  0  0  0  0  0  0
   40.2510   27.2040   40.6640 H   0  0  0  0  0  0  0  0  0  0  0  0
   39.9010   29.4460   39.5960 H   0  0  0  0  0  0  0  0  0  0  0  0
   38.2520   28.6740   44.1520 H   0  0  0  0  0  0  0  0  0  0  0  0
   36.5200   30.8630   39.7780 C   0  0  0  0  0  0  0  0  0  0  0  0
   36.6720   30.5720   38.4180 C   0  0  0  0  0  0  0  0  0  0  0  0
   37.3980   31.1490   37.8490 H   0  0  0  0  0  0  0  0  0  0  0  0
   35.8950   29.5590   37.8480 C   0  0  0  0  0  0  0  0  0  0  0  0
   36.0230   29.3380   36.7810 H   0  0  0  0  0  0  0  0  0  0  0  0
   34.9860   28.8500   38.6060 C   0  0  0  0  0  3  0  0  0  0  0  0
   34.8610   29.1650   39.9470 C   0  0  0  0  0  3  0  0  0  0  0  0
   35.6200   30.1440   40.4770 N   0  0  0  0  0  0  0  0  0  0  0  0
  1 17  1  0  0  0  0
  2  1  1  0  0  0  0
  2  8  1  0  0  0  0
  3  2  1  0  0  0  0
  3 10  1  0  0  0  0
  4  3  1  0  0  0  0
  5 12  1  0  0  0  0
  5  4  1  0  0  0  0
  5  6  1  0  0  0  0
  6  1  1  0  0  0  0
  6 14  1  1  0  0  0
  7  2  1  0  0  0  0
  9  3  1  0  0  0  0
 11  4  1  0  0  0  0
 13  5  1  0  0  0  0
 15 20  1  0  0  0  0
 16 15  2  0  0  0  0
 16 17  1  0  0  0  0
 17 18  2  0  0  0  0
 18 19  1  0  0  0  0
 19 23  1  0  0  0  0
 20 19  2  0  0  0  0
 21 15  1  0  0  0  0
 22 16  1  0  0  0  0
 24  6  1  0  0  0  0
 24 31  1  0  0  0  0
 25 24  2  0  0  0  0
 26 25  1  0  0  0  0
 27 25  1  0  0  0  0
 27 29  2  0  0  0  0
 28 27  1  0  0  0  0
 29 30  1  0  0  0  0
 30 31  2  0  0  0  0
M  END
>  <minimizedAffinity>
-5.08603764

$$$$

 OpenBabel03242514413D

 31 33  0  0  1  0  0  0  0  0999 V2000
   37.6840   31.1600   40.2980 N   0  0  0  0  0  0  0  0  0  0  0  0
   37.5520   32.6090   40.3020 C   0  0  0  0  0  0  0  0  0  0  0  0
   38.8870   33.2950   40.4250 C   0  0  0  0  0  0  0  0  0  0  0  0
   39.6700   32.8220   41.5110 N   0  0  0  0  0  0  0  0  0  0  0  0
   39.5980   31.4460   41.7940 C   0  0  0  0  0  0  0  0  0  0  0  0
   38.8420   30.5640   40.8700 C   0  0  1  0  0  0  0  0  0  0  0  0
   36.9160   32.8730   41.1850 H   0  0  0  0  0  0  0  0  0  0  0  0
   37.0530   32.9940   39.3940 H   0  0  0  0  0  0  0  0  0  0  0  0
   38.6560   34.3760   40.6120 H   0  0  0  0  0  0  0  0  0  0  0  0
   39.4260   33.1860   39.4610 H   0  0  0  0  0  0  0  0  0  0  0  0
   39.6470   33.4330   42.3550 H   0  0  0  0  0  0  0  0  0  0  0  0
   40.6540   31.0490   41.8370 H   0  0  0  0  0  0  0  0  0  0  0  0
   39.2190   31.2850   42.8280 H   0  0  0  0  0  0  0  0  0  0  0  0
   39.5250   30.3190   40.0150 H   0  0  0  0  0  0  0  0  0  0  0  0
   34.5930   29.1240   39.6970 C   0  0  0  0  0  0  0  0  0  0  0  0
   35.5240   29.9140   40.3990 C   0  0  0  0  0  0  0  0  0  0  0  0
   36.6600   30.3590   39.7240 C   0  0  0  0  0  0  0  0  0  0  0  0
   36.7700   29.9830   38.4240 N   0  0  0  0  0  0  0  0  0  0  0  0
   35.8660   29.2250   37.7680 C   0  0  0  0  0  0  0  0  0  0  0  0
   34.7730   28.7980   38.4200 N   0  0  0  0  0  0  0  0  0  0  0  0
   33.7150   28.7910   40.2490 H   0  0  0  0  0  0  0  0  0  0  0  0
   35.4190   30.2020   41.4320 H   0  0  0  0  0  0  0  0  0  0  0  0
   36.1270   29.0240   36.7210 H   0  0  0  0  0  0  0  0  0  0  0  0
   38.5730   29.2870   41.6070 C   0  0  0  0  0  0  0  0  0  0  0  0
   38.1180   29.3160   42.9290 C   0  0  0  0  0  0  0  0  0  0  0  0
   37.9670   30.2870   43.3980 H   0  0  0  0  0  0  0  0  0  0  0  0
   37.8760   28.1090   43.5930 C   0  0  0  0  0  0  0  0  0  0  0  0
   37.5190   28.1440   44.6290 H   0  0  0  0  0  0  0  0  0  0  0  0
   38.0800   26.8990   42.9610 C   0  0  0  0  0  3  0  0  0  0  0  0
   38.5320   26.9080   41.6540 C   0  0  0  0  0  3  0  0  0  0  0  0
   38.7570   28.0830   41.0330 N   0  0  0  0  0  0  0  0  0  0  0  0
  1  2  1  0  0  0  0
  1  6  1  0  0  0  0
  2  3  1  0  0  0  0
  2  7  1  0  0  0  0
  3  9  1  0  0  0  0
  3  4  1  0  0  0  0
  4  5  1  0  0  0  0
  4 11  1  0  0  0  0
  5 12  1  0  0  0  0
  5 13  1  0  0  0  0
  6 14  1  6  0  0  0
  6 24  1  0  0  0  0
  6  5  1  0  0  0  0
  8  2  1  0  0  0  0
 10  3  1  0  0  0  0
 15 21  1  0  0  0  0
 15 16  1  0  0  0  0
 16 22  1  0  0  0  0
 17  1  1  0  0  0  0
 17 16  2  0  0  0  0
 18 17  1  0  0  0  0
 19 20  1  0  0  0  0
 19 18  2  0  0  0  0
 20 15  2  0  0  0  0
 23 19  1  0  0  0  0
 24 25  1  0  0  0  0
 25 26  1  0  0  0  0
 25 27  2  0  0  0  0
 27 28  1  0  0  0  0
 29 27  1  0  0  0  0
 30 29  2  0  0  0  0
 31 24  2  0  0  0  0
 31 30  1  0  0  0  0
M  END
>  <minimizedAffinity>
-4.95884752

$$$$

 OpenBabel03242514413D

 31 33  0  0  1  0  0  0  0  0999 V2000
   37.9480   29.0920   41.3540 N   0  0  0  0  0  0  0  0  0  0  0  0
   37.8020   30.4260   40.7910 C   0  0  0  0  0  0  0  0  0  0  0  0
   36.4500   31.0170   41.0890 C   0  0  0  0  0  0  0  0  0  0  0  0
   35.3690   30.1650   40.7430 N   0  0  0  0  0  0  0  0  0  0  0  0
   35.5550   28.7870   40.9520 C   0  0  0  0  0  0  0  0  0  0  0  0
   36.7850   28.3270   41.6440 C   0  0  1  0  0  0  0  0  0  0  0  0
   37.9270   30.3230   39.6820 H   0  0  0  0  0  0  0  0  0  0  0  0
   38.5720   31.1290   41.1580 H   0  0  0  0  0  0  0  0  0  0  0  0
   36.3780   31.9410   40.4570 H   0  0  0  0  0  0  0  0  0  0  0  0
   36.4190   31.2930   42.1640 H   0  0  0  0  0  0  0  0  0  0  0  0
   34.9090   30.4010   39.8380 H   0  0  0  0  0  0  0  0  0  0  0  0
   34.6780   28.4090   41.5550 H   0  0  0  0  0  0  0  0  0  0  0  0
   35.4630   28.2350   39.9890 H   0  0  0  0  0  0  0  0  0  0  0  0
   36.6030   28.4360   42.7460 H   0  0  0  0  0  0  0  0  0  0  0  0
   41.1080   27.8770   42.9690 C   0  0  0  0  0  0  0  0  0  0  0  0
   39.8070   28.4100   42.8730 C   0  0  0  0  0  0  0  0  0  0  0  0
   39.2450   28.5700   41.6080 C   0  0  0  0  0  0  0  0  0  0  0  0
   40.0180   28.1900   40.5580 N   0  0  0  0  0  0  0  0  0  0  0  0
   41.2630   27.6810   40.6690 C   0  0  0  0  0  0  0  0  0  0  0  0
   41.8020   27.5280   41.8890 N   0  0  0  0  0  0  0  0  0  0  0  0
   41.5200   27.7640   43.9700 H   0  0  0  0  0  0  0  0  0  0  0  0
   39.2090   28.7060   43.7200 H   0  0  0  0  0  0  0  0  0  0  0  0
   41.7320   27.4330   39.7080 H   0  0  0  0  0  0  0  0  0  0  0  0
   36.9260   26.8630   41.3580 C   0  0  0  0  0  0  0  0  0  0  0  0
   37.0410   25.9460   42.4070 C   0  0  0  0  0  0  0  0  0  0  0  0
   37.0230   26.3280   43.4270 H   0  0  0  0  0  0  0  0  0  0  0  0
   37.1720   24.5850   42.1110 C   0  0  0  0  0  0  0  0  0  0  0  0
   37.2600   23.8750   42.9420 H   0  0  0  0  0  0  0  0  0  0  0  0
   37.1890   24.1420   40.8050 C   0  0  0  0  0  3  0  0  0  0  0  0
   37.0750   25.0770   39.7920 C   0  0  0  0  0  3  0  0  0  0  0  0
   36.9480   26.3830   40.1000 N   0  0  0  0  0  0  0  0  0  0  0  0
  1 17  1  0  0  0  0
  1  6  1  0  0  0  0
  2  3  1  0  0  0  0
  2  8  1  0  0  0  0
  2  1  1  0  0  0  0
  3 10  1  0  0  0  0
  4  5  1  0  0  0  0
  4  3  1  0  0  0  0
  5 12  1  0  0  0  0
  5  6  1  0  0  0  0
  6 14  1  1  0  0  0
  7  2  1  0  0  0  0
  9  3  1  0  0  0  0
 11  4  1  0  0  0  0
 13  5  1  0  0  0  0
 15 21  1  0  0  0  0
 16 15  1  0  0  0  0
 16 22  1  0  0  0  0
 17 16  2  0  0  0  0
 18 19  2  0  0  0  0
 18 17  1  0  0  0  0
 19 20  1  0  0  0  0
 20 15  2  0  0  0  0
 23 19  1  0  0  0  0
 24  6  1  0  0  0  0
 24 25  1  0  0  0  0
 25 26  1  0  0  0  0
 27 25  2  0  0  0  0
 27 28  1  0  0  0  0
 29 27  1  0  0  0  0
 30 31  1  0  0  0  0
 30 29  2  0  0  0  0
 31 24  2  0  0  0  0
M  END
>  <minimizedAffinity>
-4.82784605

$$$$

 OpenBabel03242514413D

 31 33  0  0  1  0  0  0  0  0999 V2000
   39.0430   30.8500   40.8530 N   0  0  0  0  0  0  0  0  0  0  0  0
   39.1020   31.8260   39.7750 C   0  0  0  0  0  0  0  0  0  0  0  0
   38.0220   32.8670   39.8990 C   0  0  0  0  0  0  0  0  0  0  0  0
   36.7220   32.3200   40.0590 N   0  0  0  0  0  0  0  0  0  0  0  0
   36.6160   31.1520   40.8360 C   0  0  0  0  0  0  0  0  0  0  0  0
   37.8180   30.6560   41.5500 C   0  0  1  0  0  0  0  0  0  0  0  0
   38.9650   31.2590   38.8190 H   0  0  0  0  0  0  0  0  0  0  0  0
   40.0760   32.3460   39.7270 H   0  0  0  0  0  0  0  0  0  0  0  0
   38.0400   33.4380   38.9340 H   0  0  0  0  0  0  0  0  0  0  0  0
   38.2820   33.5420   40.7410 H   0  0  0  0  0  0  0  0  0  0  0  0
   36.1520   32.3050   39.1860 H   0  0  0  0  0  0  0  0  0  0  0  0
   35.8200   31.3320   41.6170 H   0  0  0  0  0  0  0  0  0  0  0  0
   36.1960   30.3210   40.2260 H   0  0  0  0  0  0  0  0  0  0  0  0
   37.9010   31.2430   42.5030 H   0  0  0  0  0  0  0  0  0  0  0  0
   41.9230   28.4480   40.8840 C   0  0  0  0  0  0  0  0  0  0  0  0
   40.7680   29.1020   40.4110 C   0  0  0  0  0  0  0  0  0  0  0  0
   40.2020   30.1050   41.1970 C   0  0  0  0  0  0  0  0  0  0  0  0
   40.8270   30.3660   42.3740 N   0  0  0  0  0  0  0  0  0  0  0  0
   41.9330   29.7280   42.8120 C   0  0  0  0  0  0  0  0  0  0  0  0
   42.4760   28.7630   42.0520 N   0  0  0  0  0  0  0  0  0  0  0  0
   42.3430   27.6700   40.2480 H   0  0  0  0  0  0  0  0  0  0  0  0
   40.2870   28.8800   39.4730 H   0  0  0  0  0  0  0  0  0  0  0  0
   42.2930   30.0770   43.7880 H   0  0  0  0  0  0  0  0  0  0  0  0
   37.5450   29.2310   41.9260 C   0  0  0  0  0  0  0  0  0  0  0  0
   37.5890   28.8340   43.2670 C   0  0  0  0  0  0  0  0  0  0  0  0
   37.8240   29.5860   44.0170 H   0  0  0  0  0  0  0  0  0  0  0  0
   37.3310   27.4980   43.5890 C   0  0  0  0  0  0  0  0  0  0  0  0
   37.3670   27.1980   44.6430 H   0  0  0  0  0  0  0  0  0  0  0  0
   37.0360   26.5750   42.6070 C   0  0  0  0  0  3  0  0  0  0  0  0
   37.0030   27.0030   41.2920 C   0  0  0  0  0  3  0  0  0  0  0  0
   37.2530   28.2950   41.0040 N   0  0  0  0  0  0  0  0  0  0  0  0
  1 17  1  0  0  0  0
  1  6  1  0  0  0  0
  2  3  1  0  0  0  0
  2  1  1  0  0  0  0
  3  4  1  0  0  0  0
  3 10  1  0  0  0  0
  4  5  1  0  0  0  0
  5  6  1  0  0  0  0
  5 12  1  0  0  0  0
  6 24  1  0  0  0  0
  6 14  1  1  0  0  0
  7  2  1  0  0  0  0
  8  2  1  0  0  0  0
  9  3  1  0  0  0  0
 11  4  1  0  0  0  0
 13  5  1  0  0  0  0
 15 20  1  0  0  0  0
 16 15  2  0  0  0  0
 16 17  1  0  0  0  0
 17 18  2  0  0  0  0
 18 19  1  0  0  0  0
 19 23  1  0  0  0  0
 20 19  2  0  0  0  0
 21 15  1  0  0  0  0
 22 16  1  0  0  0  0
 24 25  1  0  0  0  0
 25 27  2  0  0  0  0
 25 26  1  0  0  0  0
 27 28  1  0  0  0  0
 29 27  1  0  0  0  0
 30 29  2  0  0  0  0
 31 30  1  0  0  0  0
 31 24  2  0  0  0  0
M  END
>  <minimizedAffinity>
-4.58809042

$$$$

 OpenBabel03242514413D

 31 33  0  0  1  0  0  0  0  0999 V2000
   38.3360   30.0770   41.4860 N   0  0  0  0  0  0  0  0  0  0  0  0
   37.5770   30.9350   40.5880 C   0  0  0  0  0  0  0  0  0  0  0  0
   36.1080   30.9380   40.9220 C   0  0  0  0  0  0  0  0  0  0  0  0
   35.5480   29.6380   41.0270 N   0  0  0  0  0  0  0  0  0  0  0  0
   36.3600   28.6400   41.5960 C   0  0  0  0  0  0  0  0  0  0  0  0
   37.6690   29.0280   42.1770 C   0  0  1  0  0  0  0  0  0  0  0  0
   37.7230   30.5300   39.5540 H   0  0  0  0  0  0  0  0  0  0  0  0
   37.9320   31.9810   40.5990 H   0  0  0  0  0  0  0  0  0  0  0  0
   35.6050   31.4620   40.0680 H   0  0  0  0  0  0  0  0  0  0  0  0
   35.9640   31.5170   41.8580 H   0  0  0  0  0  0  0  0  0  0  0  0
   35.0200   29.3280   40.1830 H   0  0  0  0  0  0  0  0  0  0  0  0
   35.7680   28.1460   42.4210 H   0  0  0  0  0  0  0  0  0  0  0  0
   36.5250   27.8150   40.8670 H   0  0  0  0  0  0  0  0  0  0  0  0
   37.4700   29.4110   43.2130 H   0  0  0  0  0  0  0  0  0  0  0  0
   41.7100   31.0380   42.8110 C   0  0  0  0  0  0  0  0  0  0  0  0
   40.3090   30.8890   42.7790 C   0  0  0  0  0  0  0  0  0  0  0  0
   39.7290   30.2940   41.6610 C   0  0  0  0  0  0  0  0  0  0  0  0
   40.5840   29.9020   40.6810 N   0  0  0  0  0  0  0  0  0  0  0  0
   41.9240   30.0530   40.7290 C   0  0  0  0  0  0  0  0  0  0  0  0
   42.4800   30.6270   41.8080 N   0  0  0  0  0  0  0  0  0  0  0  0
   42.1340   31.5060   43.6980 H   0  0  0  0  0  0  0  0  0  0  0  0
   39.6480   31.2070   43.5680 H   0  0  0  0  0  0  0  0  0  0  0  0
   42.4490   29.6760   39.8420 H   0  0  0  0  0  0  0  0  0  0  0  0
   38.4760   27.7730   42.3130 C   0  0  0  0  0  0  0  0  0  0  0  0
   39.0070   27.4050   43.5540 C   0  0  0  0  0  0  0  0  0  0  0  0
   38.8150   28.0540   44.4060 H   0  0  0  0  0  0  0  0  0  0  0  0
   39.7560   26.2280   43.6520 C   0  0  0  0  0  0  0  0  0  0  0  0
   40.1670   25.9500   44.6300 H   0  0  0  0  0  0  0  0  0  0  0  0
   39.9750   25.4330   42.5460 C   0  0  0  0  0  3  0  0  0  0  0  0
   39.4360   25.8270   41.3360 C   0  0  0  0  0  3  0  0  0  0  0  0
   38.7160   26.9650   41.2630 N   0  0  0  0  0  0  0  0  0  0  0  0
  1 17  1  0  0  0  0
  1  6  1  0  0  0  0
  2  8  1  0  0  0  0
  2  3  1  0  0  0  0
  2  1  1  0  0  0  0
  3  4  1  0  0  0  0
  3 10  1  0  0  0  0
  4  5  1  0  0  0  0
  5  6  1  0  0  0  0
  5 12  1  0  0  0  0
  6 24  1  0  0  0  0
  6 14  1  1  0  0  0
  7  2  1  0  0  0  0
  9  3  1  0  0  0  0
 11  4  1  0  0  0  0
 13  5  1  0  0  0  0
 15 21  1  0  0  0  0
 16 15  1  0  0  0  0
 16 22  1  0  0  0  0
 17 16  2  0  0  0  0
 18 19  2  0  0  0  0
 18 17  1  0  0  0  0
 19 20  1  0  0  0  0
 20 15  2  0  0  0  0
 23 19  1  0  0  0  0
 24 25  1  0  0  0  0
 25 27  2  0  0  0  0
 25 26  1  0  0  0  0
 27 28  1  0  0  0  0
 29 27  1  0  0  0  0
 30 29  2  0  0  0  0
 31 30  1  0  0  0  0
 31 24  2  0  0  0  0
M  END
>  <minimizedAffinity>
-4.57576704

$$$$

 OpenBabel03242514413D

 31 33  0  0  1  0  0  0  0  0999 V2000
   36.6510   28.4640   41.0830 N   0  0  0  0  0  0  0  0  0  0  0  0
   36.8480   27.1790   41.7370 C   0  0  0  0  0  0  0  0  0  0  0  0
   36.9810   27.3210   43.2300 C   0  0  0  0  0  0  0  0  0  0  0  0
   37.9500   28.2800   43.6250 N   0  0  0  0  0  0  0  0  0  0  0  0
   38.0590   29.4370   42.8310 C   0  0  0  0  0  0  0  0  0  0  0  0
   37.0760   29.6520   41.7410 C   0  0  1  0  0  0  0  0  0  0  0  0
   37.7930   26.7460   41.3190 H   0  0  0  0  0  0  0  0  0  0  0  0
   36.0270   26.4680   41.5320 H   0  0  0  0  0  0  0  0  0  0  0  0
   37.3170   26.3180   43.6010 H   0  0  0  0  0  0  0  0  0  0  0  0
   35.9800   27.5620   43.6480 H   0  0  0  0  0  0  0  0  0  0  0  0
   38.8660   27.8720   43.9120 H   0  0  0  0  0  0  0  0  0  0  0  0
   37.9900   30.3310   43.5170 H   0  0  0  0  0  0  0  0  0  0  0  0
   39.0840   29.5170   42.4050 H   0  0  0  0  0  0  0  0  0  0  0  0
   36.1580   30.0980   42.2080 H   0  0  0  0  0  0  0  0  0  0  0  0
   34.2710   28.9590   38.2280 C   0  0  0  0  0  0  0  0  0  0  0  0
   34.7410   28.9610   39.5560 C   0  0  0  0  0  0  0  0  0  0  0  0
   36.0400   28.5200   39.8020 C   0  0  0  0  0  0  0  0  0  0  0  0
   36.7510   28.1180   38.7160 N   0  0  0  0  0  0  0  0  0  0  0  0
   36.2830   28.1230   37.4510 C   0  0  0  0  0  0  0  0  0  0  0  0
   35.0310   28.5490   37.2170 N   0  0  0  0  0  0  0  0  0  0  0  0
   33.2530   29.3100   38.0670 H   0  0  0  0  0  0  0  0  0  0  0  0
   34.1610   29.2850   40.4040 H   0  0  0  0  0  0  0  0  0  0  0  0
   37.0040   27.7620   36.7060 H   0  0  0  0  0  0  0  0  0  0  0  0
   37.6580   30.6850   40.8250 C   0  0  0  0  0  0  0  0  0  0  0  0
   36.9220   31.8260   40.4890 C   0  0  0  0  0  0  0  0  0  0  0  0
   35.9250   31.9360   40.9110 H   0  0  0  0  0  0  0  0  0  0  0  0
   37.4900   32.7750   39.6320 C   0  0  0  0  0  0  0  0  0  0  0  0
   36.9040   33.6650   39.3750 H   0  0  0  0  0  0  0  0  0  0  0  0
   38.7580   32.5970   39.1190 C   0  0  0  0  0  3  0  0  0  0  0  0
   39.4560   31.4570   39.4720 C   0  0  0  0  0  3  0  0  0  0  0  0
   38.8910   30.5570   40.3000 N   0  0  0  0  0  0  0  0  0  0  0  0
  1  2  1  0  0  0  0
  1  6  1  0  0  0  0
  2  3  1  0  0  0  0
  3  9  1  0  0  0  0
  3  4  1  0  0  0  0
  3 10  1  0  0  0  0
  4 11  1  0  0  0  0
  5 12  1  0  0  0  0
  5  4  1  0  0  0  0
  6 14  1  1  0  0  0
  6  5  1  0  0  0  0
  7  2  1  0  0  0  0
  8  2  1  0  0  0  0
 13  5  1  0  0  0  0
 15 16  1  0  0  0  0
 16 17  2  0  0  0  0
 16 22  1  0  0  0  0
 17  1  1  0  0  0  0
 18 17  1  0  0  0  0
 19 18  2  0  0  0  0
 20 19  1  0  0  0  0
 20 15  2  0  0  0  0
 21 15  1  0  0  0  0
 23 19  1  0  0  0  0
 24  6  1  0  0  0  0
 25 24  1  0  0  0  0
 25 26  1  0  0  0  0
 27 25  2  0  0  0  0
 28 27  1  0  0  0  0
 29 30  2  0  0  0  0
 29 27  1  0  0  0  0
 30 31  1  0  0  0  0
 31 24  2  0  0  0  0
M  END
>  <minimizedAffinity>
-4.56274652

$$$$

 OpenBabel03242514413D

 31 33  0  0  1  0  0  0  0  0999 V2000
   37.8860   29.4630   41.3870 N   0  0  0  0  0  0  0  0  0  0  0  0
   38.0090   29.3780   42.8350 C   0  0  0  0  0  0  0  0  0  0  0  0
   38.2810   27.9700   43.2950 C   0  0  0  0  0  0  0  0  0  0  0  0
   37.3660   27.0170   42.7760 N   0  0  0  0  0  0  0  0  0  0  0  0
   36.9250   27.2150   41.4540 C   0  0  0  0  0  0  0  0  0  0  0  0
   37.5410   28.2980   40.6490 C   0  0  1  0  0  0  0  0  0  0  0  0
   37.0350   29.7280   43.2630 H   0  0  0  0  0  0  0  0  0  0  0  0
   38.8100   30.0280   43.2320 H   0  0  0  0  0  0  0  0  0  0  0  0
   38.1640   27.9880   44.4100 H   0  0  0  0  0  0  0  0  0  0  0  0
   39.3270   27.7120   43.0290 H   0  0  0  0  0  0  0  0  0  0  0  0
   36.6120   26.7390   43.4400 H   0  0  0  0  0  0  0  0  0  0  0  0
   37.0890   26.2510   40.8900 H   0  0  0  0  0  0  0  0  0  0  0  0
   35.8190   27.3420   41.4320 H   0  0  0  0  0  0  0  0  0  0  0  0
   38.5020   27.8930   40.2330 H   0  0  0  0  0  0  0  0  0  0  0  0
   37.5470   32.9140   39.9580 C   0  0  0  0  0  0  0  0  0  0  0  0
   37.1810   31.7390   40.6450 C   0  0  0  0  0  0  0  0  0  0  0  0
   38.1100   30.7030   40.7310 C   0  0  0  0  0  0  0  0  0  0  0  0
   39.3080   30.9230   40.1310 N   0  0  0  0  0  0  0  0  0  0  0  0
   39.6410   32.0550   39.4780 C   0  0  0  0  0  0  0  0  0  0  0  0
   38.7450   33.0520   39.3970 N   0  0  0  0  0  0  0  0  0  0  0  0
   36.8010   33.7060   39.9090 H   0  0  0  0  0  0  0  0  0  0  0  0
   36.2240   31.5840   41.1140 H   0  0  0  0  0  0  0  0  0  0  0  0
   40.6550   32.0480   39.0580 H   0  0  0  0  0  0  0  0  0  0  0  0
   36.6270   28.5550   39.4900 C   0  0  0  0  0  0  0  0  0  0  0  0
   35.2510   28.7080   39.6950 C   0  0  0  0  0  0  0  0  0  0  0  0
   34.8740   28.6350   40.7130 H   0  0  0  0  0  0  0  0  0  0  0  0
   34.4210   28.9470   38.5950 C   0  0  0  0  0  0  0  0  0  0  0  0
   33.3450   29.0660   38.7680 H   0  0  0  0  0  0  0  0  0  0  0  0
   34.9410   29.0320   37.3190 C   0  0  0  0  0  3  0  0  0  0  0  0
   36.3050   28.8750   37.1540 C   0  0  0  0  0  3  0  0  0  0  0  0
   37.0870   28.6470   38.2270 N   0  0  0  0  0  0  0  0  0  0  0  0
  1  2  1  0  0  0  0
  2  8  1  0  0  0  0
  2  7  1  0  0  0  0
  2  3  1  0  0  0  0
  3  9  1  0  0  0  0
  4  3  1  0  0  0  0
  4 11  1  0  0  0  0
  5  4  1  0  0  0  0
  6 14  1  6  0  0  0
  6  1  1  0  0  0  0
  6  5  1  0  0  0  0
 10  3  1  0  0  0  0
 12  5  1  0  0  0  0
 13  5  1  0  0  0  0
 15 16  1  0  0  0  0
 16 17  2  0  0  0  0
 16 22  1  0  0  0  0
 17  1  1  0  0  0  0
 18 17  1  0  0  0  0
 19 18  2  0  0  0  0
 20 19  1  0  0  0  0
 20 15  2  0  0  0  0
 21 15  1  0  0  0  0
 23 19  1  0  0  0  0
 24 25  1  0  0  0  0
 24  6  1  0  0  0  0
 25 26  1  0  0  0  0
 27 28  1  0  0  0  0
 27 25  2  0  0  0  0
 29 27  1  0  0  0  0
 30 29  2  0  0  0  0
 30 31  1  0  0  0  0
 31 24  2  0  0  0  0
M  END
>  <minimizedAffinity>
-4.53219509

$$$$

 OpenBabel03242514413D

 31 33  0  0  1  0  0  0  0  0999 V2000
   38.6830   29.2060   41.6880 N   0  0  0  0  0  0  0  0  0  0  0  0
   40.0350   29.5910   42.0660 C   0  0  0  0  0  0  0  0  0  0  0  0
   40.0940   31.0030   42.5840 C   0  0  0  0  0  0  0  0  0  0  0  0
   39.4870   31.9510   41.7200 N   0  0  0  0  0  0  0  0  0  0  0  0
   38.3270   31.5380   41.0390 C   0  0  0  0  0  0  0  0  0  0  0  0
   37.7350   30.2180   41.3700 C   0  0  1  0  0  0  0  0  0  0  0  0
   40.6640   29.5070   41.1430 H   0  0  0  0  0  0  0  0  0  0  0  0
   40.4660   28.9250   42.8360 H   0  0  0  0  0  0  0  0  0  0  0  0
   41.1850   31.2530   42.6580 H   0  0  0  0  0  0  0  0  0  0  0  0
   39.6330   31.0240   43.5940 H   0  0  0  0  0  0  0  0  0  0  0  0
   40.1590   32.4880   41.1300 H   0  0  0  0  0  0  0  0  0  0  0  0
   37.5260   32.3130   41.2240 H   0  0  0  0  0  0  0  0  0  0  0  0
   38.4870   31.5890   39.9380 H   0  0  0  0  0  0  0  0  0  0  0  0
   37.1060   30.3600   42.2880 H   0  0  0  0  0  0  0  0  0  0  0  0
   37.2210   25.8220   42.3770 C   0  0  0  0  0  0  0  0  0  0  0  0
   37.4840   27.1950   42.5510 C   0  0  0  0  0  0  0  0  0  0  0  0
   38.3260   27.8320   41.6410 C   0  0  0  0  0  0  0  0  0  0  0  0
   38.8270   27.0560   40.6460 N   0  0  0  0  0  0  0  0  0  0  0  0
   38.5630   25.7420   40.4940 C   0  0  0  0  0  0  0  0  0  0  0  0
   37.7520   25.1300   41.3730 N   0  0  0  0  0  0  0  0  0  0  0  0
   36.5590   25.3520   43.1030 H   0  0  0  0  0  0  0  0  0  0  0  0
   37.0760   27.7940   43.3490 H   0  0  0  0  0  0  0  0  0  0  0  0
   39.0600   25.2820   39.6300 H   0  0  0  0  0  0  0  0  0  0  0  0
   36.8100   29.8600   40.2460 C   0  0  0  0  0  0  0  0  0  0  0  0
   35.4920   29.4730   40.5120 C   0  0  0  0  0  0  0  0  0  0  0  0
   35.1660   29.4420   41.5500 H   0  0  0  0  0  0  0  0  0  0  0  0
   34.6510   29.1440   39.4440 C   0  0  0  0  0  0  0  0  0  0  0  0
   33.6200   28.8430   39.6640 H   0  0  0  0  0  0  0  0  0  0  0  0
   35.1050   29.1960   38.1420 C   0  0  0  0  0  3  0  0  0  0  0  0
   36.4130   29.5820   37.9160 C   0  0  0  0  0  3  0  0  0  0  0  0
   37.2060   29.8960   38.9600 N   0  0  0  0  0  0  0  0  0  0  0  0
  1  2  1  0  0  0  0
  2  3  1  0  0  0  0
  2  8  1  0  0  0  0
  3  9  1  0  0  0  0
  3 10  1  0  0  0  0
  4  3  1  0  0  0  0
  5 12  1  0  0  0  0
  5  6  1  0  0  0  0
  5  4  1  0  0  0  0
  6  1  1  0  0  0  0
  6 14  1  1  0  0  0
  7  2  1  0  0  0  0
 11  4  1  0  0  0  0
 13  5  1  0  0  0  0
 15 16  1  0  0  0  0
 15 21  1  0  0  0  0
 16 22  1  0  0  0  0
 17  1  1  0  0  0  0
 17 16  2  0  0  0  0
 18 17  1  0  0  0  0
 19 18  2  0  0  0  0
 19 20  1  0  0  0  0
 20 15  2  0  0  0  0
 23 19  1  0  0  0  0
 24 25  1  0  0  0  0
 24  6  1  0  0  0  0
 25 26  1  0  0  0  0
 27 28  1  0  0  0  0
 27 25  2  0  0  0  0
 29 27  1  0  0  0  0
 30 29  2  0  0  0  0
 30 31  1  0  0  0  0
 31 24  2  0  0  0  0
M  END
>  <minimizedAffinity>
-4.48934412

$$$$
