
 OpenBabel03242510053D

 17 18  0  0  0  0  0  0  0  0999 V2000
   45.6230   33.9480   45.4460 C   0  0  0  0  0  0  0  0  0  0  0  0
   44.7080   34.9870   45.6960 C   0  0  0  0  0  0  0  0  0  0  0  0
   44.5220   35.9470   44.6880 C   0  0  0  0  0  0  0  0  0  0  0  0
   45.2350   35.8250   43.5190 N   0  0  0  0  0  0  0  0  0  0  0  0
   46.0960   34.8080   43.3330 C   0  0  0  0  0  0  0  0  0  0  0  0
   46.2950   33.8780   44.2740 N   0  0  0  0  0  0  0  0  0  0  0  0
   45.8320   33.1660   46.1540 H   0  0  0  0  0  0  0  0  0  0  0  0
   44.2160   34.9720   46.6440 H   0  0  0  0  0  0  0  0  0  0  0  0
   43.8300   36.7220   44.8950 H   0  0  0  0  0  0  0  0  0  0  0  0
   46.8300   34.7240   42.0710 C   0  0  0  0  0  0  0  0  0  0  0  0
   48.0140   35.4130   41.9030 C   0  0  0  0  0  0  0  0  0  0  0  0
   48.3530   36.0090   42.7640 H   0  0  0  0  0  0  0  0  0  0  0  0
   48.7810   35.4020   40.7570 C   0  0  0  0  0  0  0  0  0  0  0  0
   49.6960   35.9480   40.6600 H   0  0  0  0  0  0  0  0  0  0  0  0
   48.2530   34.6100   39.7320 C   0  0  0  0  0  0  0  0  0  0  0  0
   47.0570   33.9040   39.8770 C   0  0  0  0  0  0  0  0  0  0  0  0
   46.3650   33.9750   41.0520 N   0  0  0  0  0  0  0  0  0  0  0  0
  1  2  1  0  0  0  0
  1  7  1  0  0  0  0
  2  8  1  0  0  0  0
  3  9  1  0  0  0  0
  3  2  2  0  0  0  0
  4  3  1  0  0  0  0
  5  4  2  0  0  0  0
  5  6  1  0  0  0  0
  6  1  2  0  0  0  0
 10  5  1  0  0  0  0
 11 10  1  0  0  0  0
 11 12  1  0  0  0  0
 13 11  2  0  0  0  0
 14 13  1  0  0  0  0
 15 16  2  0  0  0  0
 15 13  1  0  0  0  0
 16 17  1  0  0  0  0
 17 10  2  0  0  0  0
M  END
>  <minimizedAffinity>
-4.61798477

>  <minimizedRMSD>
5.99304533

$$$$
