
 OpenBabel03252505553D

 32 34  0  0  0  0  0  0  0  0999 V2000
   37.8370   27.9670   43.6790 C   0  0  0  0  0  0  0  0  0  0  0  0
   37.1720   27.7500   44.5260 H   0  0  0  0  0  0  0  0  0  0  0  0
   38.5180   28.8060   43.9790 H   0  0  0  0  0  0  0  0  0  0  0  0
   38.6380   26.7970   43.3090 C   0  0  0  0  0  0  0  0  0  0  0  0
   39.9080   26.4280   43.6790 C   0  0  0  0  0  0  0  0  0  0  0  0
   40.4530   25.2820   43.2030 C   0  0  0  0  0  0  0  0  0  0  0  0
   39.7630   24.4900   42.3650 N   0  0  0  0  0  0  0  0  0  0  0  0
   38.5190   24.8400   41.9960 C   0  0  0  0  0  0  0  0  0  0  0  0
   37.9570   25.9840   42.4620 N   0  0  0  0  0  0  0  0  0  0  0  0
   40.3670   27.1440   44.3580 H   0  0  0  0  0  0  0  0  0  0  0  0
   41.4560   25.0370   43.5240 H   0  0  0  0  0  0  0  0  0  0  0  0
   37.7740   23.9560   41.0710 C   0  0  0  0  0  0  0  0  0  0  0  0
   36.4690   24.2470   40.7390 C   0  0  0  0  0  0  0  0  0  0  0  0
   36.0220   25.1290   41.1710 H   0  0  0  0  0  0  0  0  0  0  0  0
   35.8660   23.3610   39.8710 C   0  0  0  0  0  0  0  0  0  0  0  0
   34.8420   23.5610   39.5900 H   0  0  0  0  0  0  0  0  0  0  0  0
   36.5670   22.2720   39.3990 C   0  0  0  0  0  3  0  0  0  0  0  0
   37.8910   21.9990   39.7520 C   0  0  0  0  0  3  0  0  0  0  0  0
   38.4430   22.8900   40.6020 N   0  0  0  0  0  0  0  0  0  0  0  0
   37.0770   28.3430   42.5540 O   0  0  0  0  0  0  0  0  0  0  0  0
   38.7970   31.2550   41.4360 C   0  0  0  0  0  0  0  0  0  0  0  0
   37.8440   31.9320   40.6860 C   0  0  0  0  0  0  0  0  0  0  0  0
   36.5750   31.3490   40.5750 C   0  0  0  0  0  0  0  0  0  0  0  0
   36.3370   30.1770   41.1900 N   0  0  0  0  0  0  0  0  0  0  0  0
   37.3000   29.5520   41.9110 C   0  0  0  0  0  0  0  0  0  0  0  0
   38.5100   30.0890   42.0290 N   0  0  0  0  0  0  0  0  0  0  0  0
   39.7940   31.6800   41.5440 H   0  0  0  0  0  0  0  0  0  0  0  0
   35.8560   31.8950   39.9870 H   0  0  0  0  0  0  0  0  0  0  0  0
   38.2260   33.2330   40.0470 C   0  0  0  0  0  0  0  0  0  0  0  0
   38.7350   33.9920   41.0750 F   0  0  0  0  0  0  0  0  0  0  0  0
   37.0290   33.7980   39.5830 F   0  0  0  0  0  0  0  0  0  0  0  0
   39.0980   32.9950   39.0310 F   0  0  0  0  0  0  0  0  0  0  0  0
  1  3  1  0  0  0  0
  1  2  1  0  0  0  0
  4  1  1  0  0  0  0
  4  5  1  0  0  0  0
  5 10  1  0  0  0  0
  6 11  1  0  0  0  0
  6  5  2  0  0  0  0
  7  6  1  0  0  0  0
  8  7  2  0  0  0  0
  8  9  1  0  0  0  0
  9  4  2  0  0  0  0
 12  8  1  0  0  0  0
 13 12  1  0  0  0  0
 13 14  1  0  0  0  0
 15 13  2  0  0  0  0
 16 15  1  0  0  0  0
 17 18  2  0  0  0  0
 17 15  1  0  0  0  0
 18 19  1  0  0  0  0
 19 12  2  0  0  0  0
 20  1  1  0  0  0  0
 21 27  1  0  0  0  0
 21 26  1  0  0  0  0
 22 21  2  0  0  0  0
 23 22  1  0  0  0  0
 23 24  2  0  0  0  0
 24 25  1  0  0  0  0
 25 26  2  0  0  0  0
 25 20  1  0  0  0  0
 28 23  1  0  0  0  0
 29 22  1  0  0  0  0
 29 30  1  0  0  0  0
 31 29  1  0  0  0  0
 32 29  1  0  0  0  0
M  END
>  <minimizedAffinity>
-5.88067102

$$$$

 OpenBabel03252505553D

 32 34  0  0  0  0  0  0  0  0999 V2000
   39.7610   30.8990   41.9270 C   0  0  0  0  0  0  0  0  0  0  0  0
   40.3510   30.1370   41.3990 H   0  0  0  0  0  0  0  0  0  0  0  0
   40.4740   31.5770   42.4650 H   0  0  0  0  0  0  0  0  0  0  0  0
   38.9440   31.6870   41.0010 C   0  0  0  0  0  0  0  0  0  0  0  0
   38.7510   33.0440   40.9070 C   0  0  0  0  0  0  0  0  0  0  0  0
   37.9360   33.5540   39.9530 C   0  0  0  0  0  0  0  0  0  0  0  0
   37.3050   32.7450   39.0850 N   0  0  0  0  0  0  0  0  0  0  0  0
   37.4860   31.4160   39.1650 C   0  0  0  0  0  0  0  0  0  0  0  0
   38.2980   30.8870   40.1150 N   0  0  0  0  0  0  0  0  0  0  0  0
   39.3110   33.5940   41.6610 H   0  0  0  0  0  0  0  0  0  0  0  0
   37.8170   34.6280   39.9220 H   0  0  0  0  0  0  0  0  0  0  0  0
   36.7830   30.5410   38.2000 C   0  0  0  0  0  0  0  0  0  0  0  0
   35.7560   29.7270   38.6280 C   0  0  0  0  0  0  0  0  0  0  0  0
   35.4920   29.7540   39.6730 H   0  0  0  0  0  0  0  0  0  0  0  0
   35.1670   28.9520   37.6510 C   0  0  0  0  0  0  0  0  0  0  0  0
   34.3590   28.3020   37.9530 H   0  0  0  0  0  0  0  0  0  0  0  0
   35.6150   29.0250   36.3490 C   0  0  0  0  0  3  0  0  0  0  0  0
   36.6590   29.8600   35.9410 C   0  0  0  0  0  3  0  0  0  0  0  0
   37.2060   30.6000   36.9270 N   0  0  0  0  0  0  0  0  0  0  0  0
   38.8950   30.2820   42.8500 O   0  0  0  0  0  0  0  0  0  0  0  0
   39.1250   26.8400   41.9620 C   0  0  0  0  0  0  0  0  0  0  0  0
   37.9130   26.3100   42.3850 C   0  0  0  0  0  0  0  0  0  0  0  0
   37.0030   27.1830   42.9920 C   0  0  0  0  0  0  0  0  0  0  0  0
   37.3340   28.4780   43.1390 N   0  0  0  0  0  0  0  0  0  0  0  0
   38.5310   28.9500   42.7100 C   0  0  0  0  0  0  0  0  0  0  0  0
   39.4090   28.1380   42.1310 N   0  0  0  0  0  0  0  0  0  0  0  0
   39.8570   26.1890   41.4850 H   0  0  0  0  0  0  0  0  0  0  0  0
   36.0710   26.7440   43.3110 H   0  0  0  0  0  0  0  0  0  0  0  0
   37.6560   24.8490   42.1670 C   0  0  0  0  0  0  0  0  0  0  0  0
   38.5880   24.2080   42.9490 F   0  0  0  0  0  0  0  0  0  0  0  0
   37.9240   24.6110   40.8110 F   0  0  0  0  0  0  0  0  0  0  0  0
   36.3630   24.5690   42.4820 F   0  0  0  0  0  0  0  0  0  0  0  0
  1  3  1  0  0  0  0
  1 20  1  0  0  0  0
  2  1  1  0  0  0  0
  4  1  1  0  0  0  0
  5  4  1  0  0  0  0
  5 10  1  0  0  0  0
  6  5  2  0  0  0  0
  7  8  2  0  0  0  0
  7  6  1  0  0  0  0
  8  9  1  0  0  0  0
  9  4  2  0  0  0  0
 11  6  1  0  0  0  0
 12 13  1  0  0  0  0
 12  8  1  0  0  0  0
 13 14  1  0  0  0  0
 15 16  1  0  0  0  0
 15 13  2  0  0  0  0
 17 15  1  0  0  0  0
 18 17  2  0  0  0  0
 18 19  1  0  0  0  0
 19 12  2  0  0  0  0
 21 26  2  0  0  0  0
 21 22  1  0  0  0  0
 22 23  2  0  0  0  0
 23 24  1  0  0  0  0
 23 28  1  0  0  0  0
 25 20  1  0  0  0  0
 25 24  2  0  0  0  0
 26 25  1  0  0  0  0
 27 21  1  0  0  0  0
 29 22  1  0  0  0  0
 29 32  1  0  0  0  0
 29 30  1  0  0  0  0
 31 29  1  0  0  0  0
M  END
>  <minimizedAffinity>
-5.63914442

$$$$

 OpenBabel03252505553D

 32 34  0  0  0  0  0  0  0  0999 V2000
   36.5090   27.5780   43.1160 C   0  0  0  0  0  0  0  0  0  0  0  0
   35.7200   27.7140   42.3630 H   0  0  0  0  0  0  0  0  0  0  0  0
   36.0150   27.3860   44.1040 H   0  0  0  0  0  0  0  0  0  0  0  0
   37.3850   26.4520   42.7810 C   0  0  0  0  0  0  0  0  0  0  0  0
   37.0950   25.2160   42.2570 C   0  0  0  0  0  0  0  0  0  0  0  0
   38.0870   24.3220   42.0270 C   0  0  0  0  0  0  0  0  0  0  0  0
   39.3650   24.6280   42.3060 N   0  0  0  0  0  0  0  0  0  0  0  0
   39.6630   25.8340   42.8180 C   0  0  0  0  0  0  0  0  0  0  0  0
   38.6830   26.7420   43.0550 N   0  0  0  0  0  0  0  0  0  0  0  0
   36.0310   25.0830   42.0730 H   0  0  0  0  0  0  0  0  0  0  0  0
   37.8060   23.3620   41.6150 H   0  0  0  0  0  0  0  0  0  0  0  0
   41.0760   26.1520   43.1190 C   0  0  0  0  0  0  0  0  0  0  0  0
   42.0250   25.1520   43.1140 C   0  0  0  0  0  0  0  0  0  0  0  0
   41.7010   24.1490   42.8860 H   0  0  0  0  0  0  0  0  0  0  0  0
   43.3120   25.5540   43.4070 C   0  0  0  0  0  0  0  0  0  0  0  0
   44.0800   24.7950   43.4120 H   0  0  0  0  0  0  0  0  0  0  0  0
   43.5750   26.8800   43.6800 C   0  0  0  0  0  3  0  0  0  0  0  0
   42.5940   27.8740   43.6780 C   0  0  0  0  0  3  0  0  0  0  0  0
   41.3510   27.4390   43.3860 N   0  0  0  0  0  0  0  0  0  0  0  0
   37.3050   28.7370   43.1930 O   0  0  0  0  0  0  0  0  0  0  0  0
   38.5590   31.2180   40.9650 C   0  0  0  0  0  0  0  0  0  0  0  0
   37.4720   31.5060   40.1490 C   0  0  0  0  0  0  0  0  0  0  0  0
   36.2800   30.8120   40.3920 C   0  0  0  0  0  0  0  0  0  0  0  0
   36.2370   29.9110   41.3890 N   0  0  0  0  0  0  0  0  0  0  0  0
   37.3250   29.6630   42.1590 C   0  0  0  0  0  0  0  0  0  0  0  0
   38.4660   30.3100   41.9450 N   0  0  0  0  0  0  0  0  0  0  0  0
   39.5020   31.7380   40.8050 H   0  0  0  0  0  0  0  0  0  0  0  0
   35.4540   31.0550   39.7430 H   0  0  0  0  0  0  0  0  0  0  0  0
   37.6400   32.5320   39.0690 C   0  0  0  0  0  0  0  0  0  0  0  0
   38.9720   32.8690   39.1090 F   0  0  0  0  0  0  0  0  0  0  0  0
   36.8570   33.6290   39.4590 F   0  0  0  0  0  0  0  0  0  0  0  0
   37.2220   32.0100   37.8850 F   0  0  0  0  0  0  0  0  0  0  0  0
  1 20  1  0  0  0  0
  1  3  1  0  0  0  0
  2  1  1  0  0  0  0
  4  9  1  0  0  0  0
  4  1  1  0  0  0  0
  5  4  2  0  0  0  0
  6  5  1  0  0  0  0
  6  7  2  0  0  0  0
  7  8  1  0  0  0  0
  8  9  2  0  0  0  0
  8 12  1  0  0  0  0
 10  5  1  0  0  0  0
 11  6  1  0  0  0  0
 12 19  1  0  0  0  0
 13 12  2  0  0  0  0
 13 15  1  0  0  0  0
 14 13  1  0  0  0  0
 15 16  1  0  0  0  0
 15 17  2  0  0  0  0
 18 17  1  0  0  0  0
 19 18  2  0  0  0  0
 21 26  1  0  0  0  0
 22 23  1  0  0  0  0
 22 21  2  0  0  0  0
 23 24  2  0  0  0  0
 24 25  1  0  0  0  0
 25 20  1  0  0  0  0
 26 25  2  0  0  0  0
 27 21  1  0  0  0  0
 28 23  1  0  0  0  0
 29 30  1  0  0  0  0
 29 31  1  0  0  0  0
 29 22  1  0  0  0  0
 32 29  1  0  0  0  0
M  END
>  <minimizedAffinity>
-5.56126785

$$$$

 OpenBabel03252505553D

 32 34  0  0  0  0  0  0  0  0999 V2000
   38.2530   30.4410   37.7170 C   0  0  0  0  0  0  0  0  0  0  0  0
   38.2320   30.7110   36.6510 H   0  0  0  0  0  0  0  0  0  0  0  0
   39.1810   29.8400   37.9030 H   0  0  0  0  0  0  0  0  0  0  0  0
   38.2620   31.6290   38.5740 C   0  0  0  0  0  0  0  0  0  0  0  0
   37.2940   32.5760   38.8030 C   0  0  0  0  0  0  0  0  0  0  0  0
   37.5310   33.6050   39.6530 C   0  0  0  0  0  0  0  0  0  0  0  0
   38.7120   33.7140   40.2850 N   0  0  0  0  0  0  0  0  0  0  0  0
   39.6670   32.7940   40.0700 C   0  0  0  0  0  0  0  0  0  0  0  0
   39.4480   31.7580   39.2220 N   0  0  0  0  0  0  0  0  0  0  0  0
   36.3840   32.3840   38.2380 H   0  0  0  0  0  0  0  0  0  0  0  0
   36.7370   34.3240   39.7980 H   0  0  0  0  0  0  0  0  0  0  0  0
   40.9620   32.9320   40.7750 C   0  0  0  0  0  0  0  0  0  0  0  0
   41.4240   31.9100   41.5750 C   0  0  0  0  0  0  0  0  0  0  0  0
   40.8160   31.0240   41.6650 H   0  0  0  0  0  0  0  0  0  0  0  0
   42.6390   32.1380   42.1860 C   0  0  0  0  0  0  0  0  0  0  0  0
   43.0310   31.3570   42.8210 H   0  0  0  0  0  0  0  0  0  0  0  0
   43.3040   33.3270   41.9760 C   0  0  0  0  0  3  0  0  0  0  0  0
   42.8130   34.3480   41.1580 C   0  0  0  0  0  3  0  0  0  0  0  0
   41.6230   34.0840   40.5810 N   0  0  0  0  0  0  0  0  0  0  0  0
   37.1140   29.6800   38.0430 O   0  0  0  0  0  0  0  0  0  0  0  0
   37.8860   27.3790   40.6500 C   0  0  0  0  0  0  0  0  0  0  0  0
   36.9260   27.6450   41.6180 C   0  0  0  0  0  0  0  0  0  0  0  0
   35.9930   28.6530   41.3430 C   0  0  0  0  0  0  0  0  0  0  0  0
   36.0640   29.3100   40.1730 N   0  0  0  0  0  0  0  0  0  0  0  0
   37.0210   29.0160   39.2580 C   0  0  0  0  0  0  0  0  0  0  0  0
   37.9150   28.0630   39.5000 N   0  0  0  0  0  0  0  0  0  0  0  0
   38.6270   26.6020   40.8310 H   0  0  0  0  0  0  0  0  0  0  0  0
   35.2600   28.8380   42.1120 H   0  0  0  0  0  0  0  0  0  0  0  0
   36.9460   26.8450   42.8860 C   0  0  0  0  0  0  0  0  0  0  0  0
   35.8230   27.2450   43.5710 F   0  0  0  0  0  0  0  0  0  0  0  0
   38.0970   27.2520   43.5770 F   0  0  0  0  0  0  0  0  0  0  0  0
   36.9840   25.5210   42.5810 F   0  0  0  0  0  0  0  0  0  0  0  0
  1  3  1  0  0  0  0
  1 20  1  0  0  0  0
  1  4  1  0  0  0  0
  2  1  1  0  0  0  0
  4  5  2  0  0  0  0
  4  9  1  0  0  0  0
  5  6  1  0  0  0  0
  6 11  1  0  0  0  0
  6  7  2  0  0  0  0
  8  7  1  0  0  0  0
  8 12  1  0  0  0  0
  9  8  2  0  0  0  0
 10  5  1  0  0  0  0
 12 13  1  0  0  0  0
 13 14  1  0  0  0  0
 13 15  2  0  0  0  0
 15 16  1  0  0  0  0
 17 15  1  0  0  0  0
 18 17  2  0  0  0  0
 19 12  2  0  0  0  0
 19 18  1  0  0  0  0
 20 25  1  0  0  0  0
 21 27  1  0  0  0  0
 21 22  1  0  0  0  0
 22 29  1  0  0  0  0
 23 22  2  0  0  0  0
 23 28  1  0  0  0  0
 24 23  1  0  0  0  0
 25 26  1  0  0  0  0
 25 24  2  0  0  0  0
 26 21  2  0  0  0  0
 29 30  1  0  0  0  0
 29 31  1  0  0  0  0
 32 29  1  0  0  0  0
M  END
>  <minimizedAffinity>
-5.4764061

$$$$

 OpenBabel03252505553D

 32 34  0  0  0  0  0  0  0  0999 V2000
   36.2580   30.5250   41.0350 C   0  0  0  0  0  0  0  0  0  0  0  0
   35.7970   31.4610   41.3810 H   0  0  0  0  0  0  0  0  0  0  0  0
   35.4620   29.7350   41.0130 H   0  0  0  0  0  0  0  0  0  0  0  0
   36.8370   30.6720   39.6970 C   0  0  0  0  0  0  0  0  0  0  0  0
   36.4390   30.1600   38.4870 C   0  0  0  0  0  0  0  0  0  0  0  0
   37.1440   30.4360   37.3630 C   0  0  0  0  0  0  0  0  0  0  0  0
   38.2390   31.2120   37.4130 N   0  0  0  0  0  0  0  0  0  0  0  0
   38.6400   31.7200   38.5900 C   0  0  0  0  0  0  0  0  0  0  0  0
   37.9470   31.4540   39.7270 N   0  0  0  0  0  0  0  0  0  0  0  0
   35.5430   29.5480   38.5710 H   0  0  0  0  0  0  0  0  0  0  0  0
   36.7890   30.0070   36.4350 H   0  0  0  0  0  0  0  0  0  0  0  0
   39.8490   32.5720   38.6260 C   0  0  0  0  0  0  0  0  0  0  0  0
   40.0930   33.3780   39.7160 C   0  0  0  0  0  0  0  0  0  0  0  0
   39.3810   33.3620   40.5260 H   0  0  0  0  0  0  0  0  0  0  0  0
   41.2460   34.1320   39.6500 C   0  0  0  0  0  0  0  0  0  0  0  0
   41.4680   34.7760   40.4890 H   0  0  0  0  0  0  0  0  0  0  0  0
   42.0630   34.0480   38.5430 C   0  0  0  0  0  3  0  0  0  0  0  0
   41.7920   33.2210   37.4490 C   0  0  0  0  0  3  0  0  0  0  0  0
   40.6560   32.5020   37.5550 N   0  0  0  0  0  0  0  0  0  0  0  0
   37.2900   30.1430   41.9140 O   0  0  0  0  0  0  0  0  0  0  0  0
   37.0380   26.6160   42.3460 C   0  0  0  0  0  0  0  0  0  0  0  0
   38.3520   26.1780   42.2490 C   0  0  0  0  0  0  0  0  0  0  0  0
   39.3410   27.1460   42.0290 C   0  0  0  0  0  0  0  0  0  0  0  0
   38.9820   28.4370   41.9210 N   0  0  0  0  0  0  0  0  0  0  0  0
   37.6840   28.8160   42.0210 C   0  0  0  0  0  0  0  0  0  0  0  0
   36.7310   27.9140   42.2310 N   0  0  0  0  0  0  0  0  0  0  0  0
   36.2430   25.8910   42.5170 H   0  0  0  0  0  0  0  0  0  0  0  0
   40.3520   26.7770   41.9580 H   0  0  0  0  0  0  0  0  0  0  0  0
   38.6310   24.7120   42.3860 C   0  0  0  0  0  0  0  0  0  0  0  0
   39.1680   24.3420   41.1750 F   0  0  0  0  0  0  0  0  0  0  0  0
   37.3810   24.1000   42.5620 F   0  0  0  0  0  0  0  0  0  0  0  0
   39.4460   24.5070   43.4550 F   0  0  0  0  0  0  0  0  0  0  0  0
  1  2  1  0  0  0  0
  1 20  1  0  0  0  0
  3  1  1  0  0  0  0
  4  9  1  0  0  0  0
  4  1  1  0  0  0  0
  5 10  1  0  0  0  0
  5  4  2  0  0  0  0
  6  7  2  0  0  0  0
  6  5  1  0  0  0  0
  7  8  1  0  0  0  0
  8 12  1  0  0  0  0
  8  9  2  0  0  0  0
 11  6  1  0  0  0  0
 12 13  1  0  0  0  0
 13 14  1  0  0  0  0
 15 13  2  0  0  0  0
 15 16  1  0  0  0  0
 17 15  1  0  0  0  0
 18 19  1  0  0  0  0
 18 17  2  0  0  0  0
 19 12  2  0  0  0  0
 20 25  1  0  0  0  0
 21 27  1  0  0  0  0
 22 21  1  0  0  0  0
 22 29  1  0  0  0  0
 23 22  2  0  0  0  0
 24 25  2  0  0  0  0
 24 23  1  0  0  0  0
 25 26  1  0  0  0  0
 26 21  2  0  0  0  0
 28 23  1  0  0  0  0
 29 31  1  0  0  0  0
 29 32  1  0  0  0  0
 30 29  1  0  0  0  0
M  END
>  <minimizedAffinity>
-5.45082569

$$$$

 OpenBabel03252505553D

 32 34  0  0  0  0  0  0  0  0999 V2000
   37.6100   30.7870   37.7020 C   0  0  0  0  0  0  0  0  0  0  0  0
   36.5210   30.6460   37.7460 H   0  0  0  0  0  0  0  0  0  0  0  0
   37.8850   31.0330   36.6430 H   0  0  0  0  0  0  0  0  0  0  0  0
   38.0500   31.8720   38.5830 C   0  0  0  0  0  0  0  0  0  0  0  0
   37.3570   32.6070   39.5140 C   0  0  0  0  0  0  0  0  0  0  0  0
   37.9840   33.5770   40.2240 C   0  0  0  0  0  0  0  0  0  0  0  0
   39.2890   33.8340   40.0300 N   0  0  0  0  0  0  0  0  0  0  0  0
   39.9780   33.1210   39.1240 C   0  0  0  0  0  0  0  0  0  0  0  0
   39.3670   32.1470   38.4030 N   0  0  0  0  0  0  0  0  0  0  0  0
   36.3120   32.3110   39.5820 H   0  0  0  0  0  0  0  0  0  0  0  0
   37.3930   34.1270   40.9430 H   0  0  0  0  0  0  0  0  0  0  0  0
   41.4140   33.4190   38.9250 C   0  0  0  0  0  0  0  0  0  0  0  0
   41.9150   33.5820   37.6510 C   0  0  0  0  0  0  0  0  0  0  0  0
   41.2310   33.4860   36.8230 H   0  0  0  0  0  0  0  0  0  0  0  0
   43.2640   33.8570   37.5750 C   0  0  0  0  0  0  0  0  0  0  0  0
   43.6900   33.9900   36.5910 H   0  0  0  0  0  0  0  0  0  0  0  0
   44.0150   33.9510   38.7270 C   0  0  0  0  0  3  0  0  0  0  0  0
   43.4820   33.7810   40.0080 C   0  0  0  0  0  3  0  0  0  0  0  0
   42.1600   33.5150   40.0370 N   0  0  0  0  0  0  0  0  0  0  0  0
   38.2650   29.6090   38.1070 O   0  0  0  0  0  0  0  0  0  0  0  0
   38.5630   27.9820   41.2630 C   0  0  0  0  0  0  0  0  0  0  0  0
   37.2560   27.6300   41.5750 C   0  0  0  0  0  0  0  0  0  0  0  0
   36.2570   27.9730   40.6560 C   0  0  0  0  0  0  0  0  0  0  0  0
   36.5980   28.6190   39.5270 N   0  0  0  0  0  0  0  0  0  0  0  0
   37.8890   28.9430   39.2660 C   0  0  0  0  0  0  0  0  0  0  0  0
   38.8520   28.6260   40.1250 N   0  0  0  0  0  0  0  0  0  0  0  0
   39.3660   27.7310   41.9550 H   0  0  0  0  0  0  0  0  0  0  0  0
   35.2530   27.6880   40.9250 H   0  0  0  0  0  0  0  0  0  0  0  0
   36.9980   26.9110   42.8650 C   0  0  0  0  0  0  0  0  0  0  0  0
   35.9220   27.5630   43.4210 F   0  0  0  0  0  0  0  0  0  0  0  0
   38.1400   27.1160   43.6530 F   0  0  0  0  0  0  0  0  0  0  0  0
   36.7920   25.5910   42.6100 F   0  0  0  0  0  0  0  0  0  0  0  0
  1  2  1  0  0  0  0
  1 20  1  0  0  0  0
  1  4  1  0  0  0  0
  3  1  1  0  0  0  0
  4  5  1  0  0  0  0
  5 10  1  0  0  0  0
  5  6  2  0  0  0  0
  6 11  1  0  0  0  0
  7  6  1  0  0  0  0
  8  7  2  0  0  0  0
  9  4  2  0  0  0  0
  9  8  1  0  0  0  0
 12  8  1  0  0  0  0
 12 19  1  0  0  0  0
 13 12  2  0  0  0  0
 14 13  1  0  0  0  0
 15 13  1  0  0  0  0
 15 17  2  0  0  0  0
 16 15  1  0  0  0  0
 17 18  1  0  0  0  0
 18 19  2  0  0  0  0
 20 25  1  0  0  0  0
 21 22  1  0  0  0  0
 21 27  1  0  0  0  0
 22 29  1  0  0  0  0
 23 28  1  0  0  0  0
 23 22  2  0  0  0  0
 24 23  1  0  0  0  0
 25 24  2  0  0  0  0
 25 26  1  0  0  0  0
 26 21  2  0  0  0  0
 29 30  1  0  0  0  0
 29 31  1  0  0  0  0
 32 29  1  0  0  0  0
M  END
>  <minimizedAffinity>
-5.44578362

$$$$

 OpenBabel03252505553D

 32 34  0  0  0  0  0  0  0  0999 V2000
   36.9480   31.5420   38.6020 C   0  0  0  0  0  0  0  0  0  0  0  0
   36.1080   31.5480   39.3110 H   0  0  0  0  0  0  0  0  0  0  0  0
   36.5590   31.8640   37.6010 H   0  0  0  0  0  0  0  0  0  0  0  0
   38.0180   32.4500   39.0250 C   0  0  0  0  0  0  0  0  0  0  0  0
   37.9940   33.5270   39.8760 C   0  0  0  0  0  0  0  0  0  0  0  0
   39.1270   34.2290   40.1220 C   0  0  0  0  0  0  0  0  0  0  0  0
   40.2880   33.8850   39.5400 N   0  0  0  0  0  0  0  0  0  0  0  0
   40.3250   32.8320   38.7060 C   0  0  0  0  0  0  0  0  0  0  0  0
   39.2000   32.1170   38.4470 N   0  0  0  0  0  0  0  0  0  0  0  0
   37.0030   33.7100   40.2850 H   0  0  0  0  0  0  0  0  0  0  0  0
   39.0540   35.0700   40.7980 H   0  0  0  0  0  0  0  0  0  0  0  0
   41.6130   32.4670   38.0740 C   0  0  0  0  0  0  0  0  0  0  0  0
   42.7390   33.2240   38.3160 C   0  0  0  0  0  0  0  0  0  0  0  0
   42.6440   34.0750   38.9710 H   0  0  0  0  0  0  0  0  0  0  0  0
   43.8870   32.8000   37.6800 C   0  0  0  0  0  0  0  0  0  0  0  0
   44.7880   33.3720   37.8480 H   0  0  0  0  0  0  0  0  0  0  0  0
   43.8540   31.6880   36.8660 C   0  0  0  0  0  3  0  0  0  0  0  0
   42.6970   30.9370   36.6380 C   0  0  0  0  0  3  0  0  0  0  0  0
   41.5980   31.3860   37.2790 N   0  0  0  0  0  0  0  0  0  0  0  0
   37.4920   30.2460   38.5120 O   0  0  0  0  0  0  0  0  0  0  0  0
   36.2510   28.5610   41.3940 C   0  0  0  0  0  0  0  0  0  0  0  0
   37.2890   27.7080   41.7490 C   0  0  0  0  0  0  0  0  0  0  0  0
   38.4430   27.7310   40.9560 C   0  0  0  0  0  0  0  0  0  0  0  0
   38.4980   28.5640   39.9020 N   0  0  0  0  0  0  0  0  0  0  0  0
   37.4580   29.3780   39.5940 C   0  0  0  0  0  0  0  0  0  0  0  0
   36.3540   29.3720   40.3340 N   0  0  0  0  0  0  0  0  0  0  0  0
   35.3380   28.5690   41.9880 H   0  0  0  0  0  0  0  0  0  0  0  0
   39.2320   27.0590   41.2540 H   0  0  0  0  0  0  0  0  0  0  0  0
   37.1120   26.8240   42.9470 C   0  0  0  0  0  0  0  0  0  0  0  0
   36.7580   25.6000   42.4300 F   0  0  0  0  0  0  0  0  0  0  0  0
   36.0380   27.3670   43.6680 F   0  0  0  0  0  0  0  0  0  0  0  0
   38.2590   26.8230   43.6770 F   0  0  0  0  0  0  0  0  0  0  0  0
  1  4  1  0  0  0  0
  1  2  1  0  0  0  0
  3  1  1  0  0  0  0
  4  5  1  0  0  0  0
  5  6  2  0  0  0  0
  5 10  1  0  0  0  0
  6 11  1  0  0  0  0
  7  6  1  0  0  0  0
  8  7  2  0  0  0  0
  9  8  1  0  0  0  0
  9  4  2  0  0  0  0
 12 13  1  0  0  0  0
 12  8  1  0  0  0  0
 13 14  1  0  0  0  0
 15 16  1  0  0  0  0
 15 13  2  0  0  0  0
 17 15  1  0  0  0  0
 18 17  2  0  0  0  0
 18 19  1  0  0  0  0
 19 12  2  0  0  0  0
 20  1  1  0  0  0  0
 20 25  1  0  0  0  0
 21 22  1  0  0  0  0
 21 27  1  0  0  0  0
 22 29  1  0  0  0  0
 23 28  1  0  0  0  0
 23 22  2  0  0  0  0
 24 23  1  0  0  0  0
 25 24  2  0  0  0  0
 25 26  1  0  0  0  0
 26 21  2  0  0  0  0
 29 31  1  0  0  0  0
 29 32  1  0  0  0  0
 30 29  1  0  0  0  0
M  END
>  <minimizedAffinity>
-5.35060072

$$$$

 OpenBabel03252505553D

 32 34  0  0  0  0  0  0  0  0999 V2000
   36.7400   31.5340   40.0680 C   0  0  0  0  0  0  0  0  0  0  0  0
   35.9230   32.2680   40.0270 H   0  0  0  0  0  0  0  0  0  0  0  0
   36.5520   30.7630   39.2760 H   0  0  0  0  0  0  0  0  0  0  0  0
   38.0420   32.1640   39.8360 C   0  0  0  0  0  0  0  0  0  0  0  0
   38.5550   33.3550   40.2890 C   0  0  0  0  0  0  0  0  0  0  0  0
   39.8070   33.7370   39.9380 C   0  0  0  0  0  0  0  0  0  0  0  0
   40.5650   32.9610   39.1460 N   0  0  0  0  0  0  0  0  0  0  0  0
   40.0760   31.7930   38.6960 C   0  0  0  0  0  0  0  0  0  0  0  0
   38.8240   31.3940   39.0370 N   0  0  0  0  0  0  0  0  0  0  0  0
   37.8520   33.8950   40.9190 H   0  0  0  0  0  0  0  0  0  0  0  0
   40.1630   34.6840   40.3200 H   0  0  0  0  0  0  0  0  0  0  0  0
   40.9260   30.9520   37.8240 C   0  0  0  0  0  0  0  0  0  0  0  0
   40.6250   29.6190   37.6460 C   0  0  0  0  0  0  0  0  0  0  0  0
   39.7620   29.2230   38.1570 H   0  0  0  0  0  0  0  0  0  0  0  0
   41.4780   28.9240   36.8150 C   0  0  0  0  0  0  0  0  0  0  0  0
   41.2710   27.8760   36.6530 H   0  0  0  0  0  0  0  0  0  0  0  0
   42.5460   29.5680   36.2280 C   0  0  0  0  0  3  0  0  0  0  0  0
   42.8290   30.9220   36.4250 C   0  0  0  0  0  3  0  0  0  0  0  0
   41.9700   31.5640   37.2440 N   0  0  0  0  0  0  0  0  0  0  0  0
   36.7750   30.9220   41.3360 O   0  0  0  0  0  0  0  0  0  0  0  0
   37.7390   27.7980   42.7480 C   0  0  0  0  0  0  0  0  0  0  0  0
   37.3020   26.8660   41.8150 C   0  0  0  0  0  0  0  0  0  0  0  0
   36.6590   27.3520   40.6700 C   0  0  0  0  0  0  0  0  0  0  0  0
   36.4920   28.6780   40.5240 N   0  0  0  0  0  0  0  0  0  0  0  0
   36.9350   29.5500   41.4640 C   0  0  0  0  0  0  0  0  0  0  0  0
   37.5480   29.1090   42.5570 N   0  0  0  0  0  0  0  0  0  0  0  0
   38.2430   27.4550   43.6510 H   0  0  0  0  0  0  0  0  0  0  0  0
   36.3300   26.6070   39.9630 H   0  0  0  0  0  0  0  0  0  0  0  0
   37.5450   25.4120   42.0860 C   0  0  0  0  0  0  0  0  0  0  0  0
   37.6780   24.8410   40.8430 F   0  0  0  0  0  0  0  0  0  0  0  0
   36.3790   24.9390   42.7080 F   0  0  0  0  0  0  0  0  0  0  0  0
   38.6330   25.2810   42.8910 F   0  0  0  0  0  0  0  0  0  0  0  0
  1 20  1  0  0  0  0
  2  1  1  0  0  0  0
  3  1  1  0  0  0  0
  4  1  1  0  0  0  0
  4  5  1  0  0  0  0
  5 10  1  0  0  0  0
  6  5  2  0  0  0  0
  6 11  1  0  0  0  0
  7  6  1  0  0  0  0
  8  9  1  0  0  0  0
  8  7  2  0  0  0  0
  9  4  2  0  0  0  0
 12  8  1  0  0  0  0
 13 12  1  0  0  0  0
 13 14  1  0  0  0  0
 15 13  2  0  0  0  0
 16 15  1  0  0  0  0
 17 18  2  0  0  0  0
 17 15  1  0  0  0  0
 18 19  1  0  0  0  0
 19 12  2  0  0  0  0
 20 25  1  0  0  0  0
 21 27  1  0  0  0  0
 22 29  1  0  0  0  0
 22 21  2  0  0  0  0
 23 22  1  0  0  0  0
 24 23  2  0  0  0  0
 24 25  1  0  0  0  0
 25 26  2  0  0  0  0
 26 21  1  0  0  0  0
 28 23  1  0  0  0  0
 29 31  1  0  0  0  0
 29 32  1  0  0  0  0
 30 29  1  0  0  0  0
M  END
>  <minimizedAffinity>
-5.3251009

$$$$

 OpenBabel03252505553D

 32 34  0  0  0  0  0  0  0  0999 V2000
   37.7940   31.7750   38.6170 C   0  0  0  0  0  0  0  0  0  0  0  0
   37.0350   32.0570   39.3610 H   0  0  0  0  0  0  0  0  0  0  0  0
   37.4870   32.2070   37.6290 H   0  0  0  0  0  0  0  0  0  0  0  0
   39.1200   32.2810   38.9810 C   0  0  0  0  0  0  0  0  0  0  0  0
   39.5070   33.1490   39.9720 C   0  0  0  0  0  0  0  0  0  0  0  0
   40.8130   33.4770   40.1210 C   0  0  0  0  0  0  0  0  0  0  0  0
   41.7480   32.9600   39.3070 N   0  0  0  0  0  0  0  0  0  0  0  0
   41.3830   32.1080   38.3340 C   0  0  0  0  0  0  0  0  0  0  0  0
   40.0800   31.7690   38.1680 N   0  0  0  0  0  0  0  0  0  0  0  0
   38.6660   33.5020   40.5650 H   0  0  0  0  0  0  0  0  0  0  0  0
   41.0650   34.1660   40.9160 H   0  0  0  0  0  0  0  0  0  0  0  0
   42.4280   31.5490   37.4470 C   0  0  0  0  0  0  0  0  0  0  0  0
   42.1200   30.5200   36.5830 C   0  0  0  0  0  0  0  0  0  0  0  0
   41.1080   30.1470   36.5810 H   0  0  0  0  0  0  0  0  0  0  0  0
   43.1630   30.0710   35.8000 C   0  0  0  0  0  0  0  0  0  0  0  0
   42.9570   29.2650   35.1120 H   0  0  0  0  0  0  0  0  0  0  0  0
   44.4100   30.6490   35.9150 C   0  0  0  0  0  3  0  0  0  0  0  0
   44.6950   31.6930   36.7990 C   0  0  0  0  0  3  0  0  0  0  0  0
   43.6480   32.1010   37.5450 N   0  0  0  0  0  0  0  0  0  0  0  0
   37.8770   30.3720   38.5240 O   0  0  0  0  0  0  0  0  0  0  0  0
   38.3960   28.1580   41.2650 C   0  0  0  0  0  0  0  0  0  0  0  0
   37.1170   27.9470   41.7640 C   0  0  0  0  0  0  0  0  0  0  0  0
   36.0570   28.5980   41.1210 C   0  0  0  0  0  0  0  0  0  0  0  0
   36.3180   29.3880   40.0640 N   0  0  0  0  0  0  0  0  0  0  0  0
   37.5840   29.5630   39.6130 C   0  0  0  0  0  0  0  0  0  0  0  0
   38.6030   28.9540   40.2090 N   0  0  0  0  0  0  0  0  0  0  0  0
   39.2440   27.6670   41.7410 H   0  0  0  0  0  0  0  0  0  0  0  0
   35.0770   28.4170   41.5300 H   0  0  0  0  0  0  0  0  0  0  0  0
   36.9510   27.0450   42.9500 C   0  0  0  0  0  0  0  0  0  0  0  0
   38.1420   27.1380   43.6310 F   0  0  0  0  0  0  0  0  0  0  0  0
   36.7980   25.7520   42.4270 F   0  0  0  0  0  0  0  0  0  0  0  0
   35.8580   27.4330   43.6600 F   0  0  0  0  0  0  0  0  0  0  0  0
  1  4  1  0  0  0  0
  1  2  1  0  0  0  0
  3  1  1  0  0  0  0
  4  5  1  0  0  0  0
  5  6  2  0  0  0  0
  5 10  1  0  0  0  0
  6 11  1  0  0  0  0
  7  6  1  0  0  0  0
  8  7  2  0  0  0  0
  9  8  1  0  0  0  0
  9  4  2  0  0  0  0
 12 19  1  0  0  0  0
 12  8  1  0  0  0  0
 13 12  2  0  0  0  0
 14 13  1  0  0  0  0
 15 17  2  0  0  0  0
 15 13  1  0  0  0  0
 16 15  1  0  0  0  0
 17 18  1  0  0  0  0
 18 19  2  0  0  0  0
 20  1  1  0  0  0  0
 20 25  1  0  0  0  0
 21 27  1  0  0  0  0
 21 22  1  0  0  0  0
 22 29  1  0  0  0  0
 23 28  1  0  0  0  0
 23 22  2  0  0  0  0
 24 23  1  0  0  0  0
 25 24  2  0  0  0  0
 25 26  1  0  0  0  0
 26 21  2  0  0  0  0
 29 30  1  0  0  0  0
 29 32  1  0  0  0  0
 31 29  1  0  0  0  0
M  END
>  <minimizedAffinity>
-5.20787525

$$$$
