
 OpenBabel03252508333D

 31 33  0  0  1  0  0  0  0  0999 V2000
   38.2660   30.5500   41.0370 N   0  0  0  0  0  0  0  0  0  0  0  0
   36.9990   31.1370   40.7360 C   0  0  1  0  0  0  0  0  0  0  0  0
   37.0550   32.5130   40.1890 C   0  0  0  0  0  0  0  0  0  0  0  0
   38.0880   33.3530   40.6080 N   0  0  0  0  0  0  0  0  0  0  0  0
   39.2930   32.7650   41.0450 C   0  0  0  0  0  0  0  0  0  0  0  0
   39.3960   31.3170   40.6060 C   0  0  0  0  0  0  0  0  0  0  0  0
   36.3890   31.1220   41.6880 H   0  0  0  0  0  0  0  0  0  0  0  0
   37.0320   32.4690   39.0790 H   0  0  0  0  0  0  0  0  0  0  0  0
   36.0760   33.0050   40.4620 H   0  0  0  0  0  0  0  0  0  0  0  0
   38.3000   34.0700   39.8740 H   0  0  0  0  0  0  0  0  0  0  0  0
   40.2280   33.2520   40.6480 H   0  0  0  0  0  0  0  0  0  0  0  0
   39.3490   32.7980   42.1430 H   0  0  0  0  0  0  0  0  0  0  0  0
   39.4620   31.3720   39.4770 H   0  0  0  0  0  0  0  0  0  0  0  0
   40.3770   30.9750   40.9190 H   0  0  0  0  0  0  0  0  0  0  0  0
   37.7200   29.2800   42.9740 C   0  0  0  0  0  0  0  0  0  0  0  0
   38.2890   29.3080   41.7060 C   0  0  0  0  0  0  0  0  0  0  0  0
   38.8280   28.1300   41.2230 C   0  0  0  0  0  0  0  0  0  0  0  0
   38.8070   26.9860   41.9530 N   0  0  0  0  0  0  0  0  0  0  0  0
   38.2410   26.9900   43.1960 C   0  0  0  0  0  0  0  0  0  0  0  0
   37.7160   28.1140   43.6800 N   0  0  0  0  0  0  0  0  0  0  0  0
   37.2530   30.0780   43.5280 H   0  0  0  0  0  0  0  0  0  0  0  0
   39.2610   28.1430   40.2530 H   0  0  0  0  0  0  0  0  0  0  0  0
   38.2530   26.0530   43.7300 H   0  0  0  0  0  0  0  0  0  0  0  0
   36.2350   30.3200   39.7560 C   0  0  0  0  0  0  0  0  0  0  0  0
   36.5920   30.2680   38.4230 C   0  0  0  0  0  0  0  0  0  0  0  0
   37.4310   30.8060   38.0420 H   0  0  0  0  0  0  0  0  0  0  0  0
   35.9150   29.5300   37.4650 C   0  0  0  0  0  0  0  0  0  0  0  0
   36.2100   29.5020   36.4260 H   0  0  0  0  0  0  0  0  0  0  0  0
   34.8200   28.7960   37.8300 C   0  0  0  0  0  3  0  0  0  0  0  0
   34.4640   28.8470   39.1610 C   0  0  0  0  0  3  0  0  0  0  0  0
   35.1360   29.5630   40.0450 N   0  0  0  0  0  0  0  0  0  0  0  0
  1 16  1  0  0  0  0
  2  1  1  0  0  0  0
  2  7  1  1  0  0  0
  3  9  1  0  0  0  0
  3  4  1  0  0  0  0
  3  2  1  0  0  0  0
  4  5  1  0  0  0  0
  5 12  1  0  0  0  0
  6 14  1  0  0  0  0
  6  1  1  0  0  0  0
  6  5  1  0  0  0  0
  8  3  1  0  0  0  0
 10  4  1  0  0  0  0
 11  5  1  0  0  0  0
 13  6  1  0  0  0  0
 15 21  1  0  0  0  0
 15 20  1  0  0  0  0
 16 15  2  0  0  0  0
 17 16  1  0  0  0  0
 17 18  2  0  0  0  0
 18 19  1  0  0  0  0
 19 20  2  0  0  0  0
 19 23  1  0  0  0  0
 22 17  1  0  0  0  0
 24 31  1  0  0  0  0
 24  2  1  0  0  0  0
 25 24  2  0  0  0  0
 26 25  1  0  0  0  0
 27 29  2  0  0  0  0
 27 25  1  0  0  0  0
 28 27  1  0  0  0  0
 29 30  1  0  0  0  0
 30 31  2  0  0  0  0
M  END
>  <minimizedAffinity>
-4.89729452

$$$$

 OpenBabel03252508333D

 31 33  0  0  1  0  0  0  0  0999 V2000
   38.0780   30.8990   40.1570 N   0  0  0  0  0  0  0  0  0  0  0  0
   38.9740   30.1530   40.9820 C   0  0  1  0  0  0  0  0  0  0  0  0
   39.6700   30.9360   42.0290 C   0  0  0  0  0  0  0  0  0  0  0  0
   39.9750   32.2720   41.7650 N   0  0  0  0  0  0  0  0  0  0  0  0
   39.1760   32.9710   40.8360 C   0  0  0  0  0  0  0  0  0  0  0  0
   37.8660   32.2510   40.5780 C   0  0  0  0  0  0  0  0  0  0  0  0
   39.7280   29.6620   40.2980 H   0  0  0  0  0  0  0  0  0  0  0  0
   39.1050   30.8600   42.9820 H   0  0  0  0  0  0  0  0  0  0  0  0
   40.6370   30.3950   42.2420 H   0  0  0  0  0  0  0  0  0  0  0  0
   40.0280   32.8210   42.6560 H   0  0  0  0  0  0  0  0  0  0  0  0
   38.8740   34.0080   41.1570 H   0  0  0  0  0  0  0  0  0  0  0  0
   39.7110   33.0680   39.8800 H   0  0  0  0  0  0  0  0  0  0  0  0
   37.3200   32.3030   41.5680 H   0  0  0  0  0  0  0  0  0  0  0  0
   37.2940   32.8930   39.9170 H   0  0  0  0  0  0  0  0  0  0  0  0
   38.3790   29.8170   38.0590 C   0  0  0  0  0  0  0  0  0  0  0  0
   37.5000   30.2580   39.0410 C   0  0  0  0  0  0  0  0  0  0  0  0
   36.1500   30.0380   38.8340 C   0  0  0  0  0  0  0  0  0  0  0  0
   35.6940   29.4170   37.7170 N   0  0  0  0  0  0  0  0  0  0  0  0
   36.5830   28.9950   36.7700 C   0  0  0  0  0  0  0  0  0  0  0  0
   37.8870   29.1960   36.9500 N   0  0  0  0  0  0  0  0  0  0  0  0
   39.4540   29.8890   38.0260 H   0  0  0  0  0  0  0  0  0  0  0  0
   35.4730   30.3700   39.5820 H   0  0  0  0  0  0  0  0  0  0  0  0
   36.1640   28.5070   35.9030 H   0  0  0  0  0  0  0  0  0  0  0  0
   38.2770   29.0370   41.6770 C   0  0  0  0  0  0  0  0  0  0  0  0
   37.7850   29.1790   42.9600 C   0  0  0  0  0  0  0  0  0  0  0  0
   37.8790   30.0930   43.5020 H   0  0  0  0  0  0  0  0  0  0  0  0
   37.1350   28.1750   43.6580 C   0  0  0  0  0  0  0  0  0  0  0  0
   36.7560   28.3050   44.6610 H   0  0  0  0  0  0  0  0  0  0  0  0
   36.9520   26.9540   43.0690 C   0  0  0  0  0  3  0  0  0  0  0  0
   37.4440   26.8110   41.7890 C   0  0  0  0  0  3  0  0  0  0  0  0
   38.0590   27.7950   41.1550 N   0  0  0  0  0  0  0  0  0  0  0  0
  1  6  1  0  0  0  0
  1  2  1  0  0  0  0
  2  7  1  6  0  0  0
  2 24  1  0  0  0  0
  2  3  1  0  0  0  0
  3  9  1  0  0  0  0
  3  8  1  0  0  0  0
  4  3  1  0  0  0  0
  4 10  1  0  0  0  0
  5 11  1  0  0  0  0
  5  4  1  0  0  0  0
  6  5  1  0  0  0  0
  6 13  1  0  0  0  0
 12  5  1  0  0  0  0
 14  6  1  0  0  0  0
 15 16  1  0  0  0  0
 16  1  1  0  0  0  0
 17 16  2  0  0  0  0
 17 22  1  0  0  0  0
 18 17  1  0  0  0  0
 19 20  1  0  0  0  0
 19 18  2  0  0  0  0
 20 15  2  0  0  0  0
 21 15  1  0  0  0  0
 23 19  1  0  0  0  0
 24 25  1  0  0  0  0
 25 26  1  0  0  0  0
 25 27  2  0  0  0  0
 27 28  1  0  0  0  0
 29 27  1  0  0  0  0
 30 29  2  0  0  0  0
 31 24  2  0  0  0  0
 31 30  1  0  0  0  0
M  END
>  <minimizedAffinity>
-4.8005476

$$$$

 OpenBabel03252508333D

 31 33  0  0  1  0  0  0  0  0999 V2000
   36.7460   30.0390   39.1290 N   0  0  0  0  0  0  0  0  0  0  0  0
   35.8860   29.7740   40.2370 C   0  0  1  0  0  0  0  0  0  0  0  0
   34.7320   28.8930   39.9440 C   0  0  0  0  0  0  0  0  0  0  0  0
   34.1670   28.9400   38.6680 N   0  0  0  0  0  0  0  0  0  0  0  0
   34.9830   29.3440   37.5910 C   0  0  0  0  0  0  0  0  0  0  0  0
   36.4550   29.2780   37.9520 C   0  0  0  0  0  0  0  0  0  0  0  0
   35.5240   30.7720   40.6260 H   0  0  0  0  0  0  0  0  0  0  0  0
   34.9950   27.8450   40.2010 H   0  0  0  0  0  0  0  0  0  0  0  0
   33.9270   29.1620   40.6890 H   0  0  0  0  0  0  0  0  0  0  0  0
   33.7130   28.0260   38.4330 H   0  0  0  0  0  0  0  0  0  0  0  0
   34.8870   28.7130   36.6630 H   0  0  0  0  0  0  0  0  0  0  0  0
   34.7430   30.3790   37.3070 H   0  0  0  0  0  0  0  0  0  0  0  0
   36.6540   28.1740   38.1030 H   0  0  0  0  0  0  0  0  0  0  0  0
   36.9990   29.5310   37.0480 H   0  0  0  0  0  0  0  0  0  0  0  0
   37.3710   32.2930   39.5720 C   0  0  0  0  0  0  0  0  0  0  0  0
   37.7740   30.9920   39.2890 C   0  0  0  0  0  0  0  0  0  0  0  0
   39.1320   30.7550   39.1830 C   0  0  0  0  0  0  0  0  0  0  0  0
   40.0430   31.7480   39.3460 N   0  0  0  0  0  0  0  0  0  0  0  0
   39.6160   33.0150   39.6240 C   0  0  0  0  0  0  0  0  0  0  0  0
   38.3120   33.2650   39.7310 N   0  0  0  0  0  0  0  0  0  0  0  0
   36.3740   32.6850   39.6940 H   0  0  0  0  0  0  0  0  0  0  0  0
   39.4480   29.7630   38.9700 H   0  0  0  0  0  0  0  0  0  0  0  0
   40.3840   33.7640   39.7440 H   0  0  0  0  0  0  0  0  0  0  0  0
   36.6240   29.1470   41.3660 C   0  0  0  0  0  0  0  0  0  0  0  0
   36.5630   27.7880   41.6060 C   0  0  0  0  0  0  0  0  0  0  0  0
   35.9890   27.1320   40.9900 H   0  0  0  0  0  0  0  0  0  0  0  0
   37.2230   27.1510   42.6440 C   0  0  0  0  0  0  0  0  0  0  0  0
   37.1620   26.0860   42.8150 H   0  0  0  0  0  0  0  0  0  0  0  0
   37.9930   27.8860   43.5040 C   0  0  0  0  0  3  0  0  0  0  0  0
   38.0540   29.2420   43.2660 C   0  0  0  0  0  3  0  0  0  0  0  0
   37.4090   29.8130   42.2630 N   0  0  0  0  0  0  0  0  0  0  0  0
  1 16  1  0  0  0  0
  1  2  1  0  0  0  0
  2  7  1  1  0  0  0
  2 24  1  0  0  0  0
  3  8  1  0  0  0  0
  3  2  1  0  0  0  0
  3  9  1  0  0  0  0
  4  3  1  0  0  0  0
  5  6  1  0  0  0  0
  5  4  1  0  0  0  0
  6 13  1  0  0  0  0
  6  1  1  0  0  0  0
 10  4  1  0  0  0  0
 11  5  1  0  0  0  0
 12  5  1  0  0  0  0
 14  6  1  0  0  0  0
 15 21  1  0  0  0  0
 15 20  1  0  0  0  0
 16 15  2  0  0  0  0
 17 16  1  0  0  0  0
 17 18  2  0  0  0  0
 18 19  1  0  0  0  0
 19 20  2  0  0  0  0
 19 23  1  0  0  0  0
 22 17  1  0  0  0  0
 24 25  2  0  0  0  0
 24 31  1  0  0  0  0
 25 27  1  0  0  0  0
 26 25  1  0  0  0  0
 27 28  1  0  0  0  0
 27 29  2  0  0  0  0
 30 29  1  0  0  0  0
 31 30  2  0  0  0  0
M  END
>  <minimizedAffinity>
-4.76204443

$$$$

 OpenBabel03252508333D

 31 33  0  0  1  0  0  0  0  0999 V2000
   38.1650   29.2790   41.0370 N   0  0  0  0  0  0  0  0  0  0  0  0
   37.0240   28.6740   41.6480 C   0  0  1  0  0  0  0  0  0  0  0  0
   35.7200   29.2750   41.2830 C   0  0  0  0  0  0  0  0  0  0  0  0
   35.6730   30.6430   41.0070 N   0  0  0  0  0  0  0  0  0  0  0  0
   36.8470   31.2720   40.5400 C   0  0  0  0  0  0  0  0  0  0  0  0
   37.8590   30.2590   40.0400 C   0  0  0  0  0  0  0  0  0  0  0  0
   37.1770   28.7270   42.7670 H   0  0  0  0  0  0  0  0  0  0  0  0
   35.2760   28.7050   40.4390 H   0  0  0  0  0  0  0  0  0  0  0  0
   35.0230   29.0720   42.1470 H   0  0  0  0  0  0  0  0  0  0  0  0
   34.8830   30.8600   40.3540 H   0  0  0  0  0  0  0  0  0  0  0  0
   36.6940   31.9750   39.6740 H   0  0  0  0  0  0  0  0  0  0  0  0
   37.3100   31.8510   41.3530 H   0  0  0  0  0  0  0  0  0  0  0  0
   37.3650   29.7970   39.1330 H   0  0  0  0  0  0  0  0  0  0  0  0
   38.6870   30.8330   39.6370 H   0  0  0  0  0  0  0  0  0  0  0  0
   40.3300   28.4820   40.4510 C   0  0  0  0  0  0  0  0  0  0  0  0
   39.4480   28.8660   41.4550 C   0  0  0  0  0  0  0  0  0  0  0  0
   39.9010   28.8010   42.7600 C   0  0  0  0  0  0  0  0  0  0  0  0
   41.1560   28.3800   43.0580 N   0  0  0  0  0  0  0  0  0  0  0  0
   41.9990   28.0090   42.0490 C   0  0  0  0  0  0  0  0  0  0  0  0
   41.5830   28.0640   40.7860 N   0  0  0  0  0  0  0  0  0  0  0  0
   40.1780   28.4570   39.3850 H   0  0  0  0  0  0  0  0  0  0  0  0
   39.2340   29.0970   43.5320 H   0  0  0  0  0  0  0  0  0  0  0  0
   42.9850   27.6820   42.3450 H   0  0  0  0  0  0  0  0  0  0  0  0
   36.9310   27.2260   41.3230 C   0  0  0  0  0  0  0  0  0  0  0  0
   37.0720   26.2540   42.2950 C   0  0  0  0  0  0  0  0  0  0  0  0
   37.2490   26.5020   43.3170 H   0  0  0  0  0  0  0  0  0  0  0  0
   37.0020   24.8930   42.0490 C   0  0  0  0  0  0  0  0  0  0  0  0
   37.1160   24.1480   42.8230 H   0  0  0  0  0  0  0  0  0  0  0  0
   36.7790   24.4490   40.7740 C   0  0  0  0  0  3  0  0  0  0  0  0
   36.6380   25.4180   39.8040 C   0  0  0  0  0  3  0  0  0  0  0  0
   36.7120   26.7080   40.0790 N   0  0  0  0  0  0  0  0  0  0  0  0
  1 16  1  0  0  0  0
  1  2  1  0  0  0  0
  2  7  1  1  0  0  0
  3  2  1  0  0  0  0
  3  9  1  0  0  0  0
  4  3  1  0  0  0  0
  5  4  1  0  0  0  0
  5 12  1  0  0  0  0
  6  5  1  0  0  0  0
  6  1  1  0  0  0  0
  8  3  1  0  0  0  0
 10  4  1  0  0  0  0
 11  5  1  0  0  0  0
 13  6  1  0  0  0  0
 14  6  1  0  0  0  0
 15 20  2  0  0  0  0
 15 16  1  0  0  0  0
 16 17  2  0  0  0  0
 17 18  1  0  0  0  0
 17 22  1  0  0  0  0
 19 23  1  0  0  0  0
 19 18  2  0  0  0  0
 20 19  1  0  0  0  0
 21 15  1  0  0  0  0
 24  2  1  0  0  0  0
 24 25  1  0  0  0  0
 25 26  1  0  0  0  0
 27 25  2  0  0  0  0
 27 28  1  0  0  0  0
 29 27  1  0  0  0  0
 30 31  1  0  0  0  0
 30 29  2  0  0  0  0
 31 24  2  0  0  0  0
M  END
>  <minimizedAffinity>
-4.6773653

$$$$

 OpenBabel03252508333D

 31 33  0  0  1  0  0  0  0  0999 V2000
   39.0380   30.3140   39.0420 N   0  0  0  0  0  0  0  0  0  0  0  0
   37.8980   31.0880   38.6650 C   0  0  1  0  0  0  0  0  0  0  0  0
   38.0160   31.7970   37.3690 C   0  0  0  0  0  0  0  0  0  0  0  0
   39.2770   32.2430   36.9690 N   0  0  0  0  0  0  0  0  0  0  0  0
   40.4130   31.5660   37.4610 C   0  0  0  0  0  0  0  0  0  0  0  0
   40.0480   30.2090   38.0320 C   0  0  0  0  0  0  0  0  0  0  0  0
   37.7060   31.8280   39.4970 H   0  0  0  0  0  0  0  0  0  0  0  0
   37.5650   31.1750   36.5670 H   0  0  0  0  0  0  0  0  0  0  0  0
   37.3360   32.6950   37.4340 H   0  0  0  0  0  0  0  0  0  0  0  0
   39.3340   32.2980   35.9250 H   0  0  0  0  0  0  0  0  0  0  0  0
   41.2040   31.3480   36.6890 H   0  0  0  0  0  0  0  0  0  0  0  0
   40.8880   32.1590   38.2560 H   0  0  0  0  0  0  0  0  0  0  0  0
   39.6890   29.6180   37.1370 H   0  0  0  0  0  0  0  0  0  0  0  0
   40.9840   29.7380   38.3130 H   0  0  0  0  0  0  0  0  0  0  0  0
   39.0410   30.6250   41.4020 C   0  0  0  0  0  0  0  0  0  0  0  0
   39.0630   29.7390   40.3300 C   0  0  0  0  0  0  0  0  0  0  0  0
   39.1160   28.3880   40.6210 C   0  0  0  0  0  0  0  0  0  0  0  0
   39.1460   27.9370   41.9010 N   0  0  0  0  0  0  0  0  0  0  0  0
   39.1230   28.8320   42.9320 C   0  0  0  0  0  0  0  0  0  0  0  0
   39.0720   30.1370   42.6740 N   0  0  0  0  0  0  0  0  0  0  0  0
   39.0020   31.7020   41.3930 H   0  0  0  0  0  0  0  0  0  0  0  0
   39.1300   27.7060   39.8070 H   0  0  0  0  0  0  0  0  0  0  0  0
   39.1490   28.4160   43.9270 H   0  0  0  0  0  0  0  0  0  0  0  0
   36.6710   30.2510   38.5810 C   0  0  0  0  0  0  0  0  0  0  0  0
   36.2610   29.6850   37.3900 C   0  0  0  0  0  0  0  0  0  0  0  0
   36.8070   29.8200   36.4830 H   0  0  0  0  0  0  0  0  0  0  0  0
   35.1260   28.9030   37.2510 C   0  0  0  0  0  0  0  0  0  0  0  0
   34.8200   28.4690   36.3100 H   0  0  0  0  0  0  0  0  0  0  0  0
   34.3400   28.6560   38.3430 C   0  0  0  0  0  3  0  0  0  0  0  0
   34.7490   29.2210   39.5330 C   0  0  0  0  0  3  0  0  0  0  0  0
   35.8390   29.9610   39.6240 N   0  0  0  0  0  0  0  0  0  0  0  0
  1 16  1  0  0  0  0
  2  1  1  0  0  0  0
  2  7  1  1  0  0  0
  3  9  1  0  0  0  0
  3  2  1  0  0  0  0
  4  3  1  0  0  0  0
  4  5  1  0  0  0  0
  5  6  1  0  0  0  0
  5 12  1  0  0  0  0
  6 14  1  0  0  0  0
  6  1  1  0  0  0  0
  8  3  1  0  0  0  0
 10  4  1  0  0  0  0
 11  5  1  0  0  0  0
 13  6  1  0  0  0  0
 15 20  1  0  0  0  0
 16 17  1  0  0  0  0
 16 15  2  0  0  0  0
 17 18  2  0  0  0  0
 18 19  1  0  0  0  0
 19 23  1  0  0  0  0
 20 19  2  0  0  0  0
 21 15  1  0  0  0  0
 22 17  1  0  0  0  0
 24  2  1  0  0  0  0
 24 31  1  0  0  0  0
 25 24  2  0  0  0  0
 26 25  1  0  0  0  0
 27 25  1  0  0  0  0
 27 29  2  0  0  0  0
 28 27  1  0  0  0  0
 29 30  1  0  0  0  0
 30 31  2  0  0  0  0
M  END
>  <minimizedAffinity>
-4.59744692

$$$$

 OpenBabel03252508333D

 31 33  0  0  1  0  0  0  0  0999 V2000
   39.1480   27.4380   42.4790 N   0  0  0  0  0  0  0  0  0  0  0  0
   37.9690   26.7340   42.8730 C   0  0  1  0  0  0  0  0  0  0  0  0
   36.7650   27.5750   43.0630 C   0  0  0  0  0  0  0  0  0  0  0  0
   36.9340   28.8840   43.5180 N   0  0  0  0  0  0  0  0  0  0  0  0
   38.1600   29.5310   43.2540 C   0  0  0  0  0  0  0  0  0  0  0  0
   38.9410   28.8200   42.1660 C   0  0  0  0  0  0  0  0  0  0  0  0
   38.2130   26.1830   43.8290 H   0  0  0  0  0  0  0  0  0  0  0  0
   36.1660   27.5770   42.1280 H   0  0  0  0  0  0  0  0  0  0  0  0
   36.1100   27.0330   43.8050 H   0  0  0  0  0  0  0  0  0  0  0  0
   36.1460   29.4930   43.1920 H   0  0  0  0  0  0  0  0  0  0  0  0
   38.0660   30.5930   42.8910 H   0  0  0  0  0  0  0  0  0  0  0  0
   38.7770   29.5510   44.1650 H   0  0  0  0  0  0  0  0  0  0  0  0
   38.3070   28.9510   41.2380 H   0  0  0  0  0  0  0  0  0  0  0  0
   39.8220   29.4250   41.9820 H   0  0  0  0  0  0  0  0  0  0  0  0
   40.8780   26.2970   43.6500 C   0  0  0  0  0  0  0  0  0  0  0  0
   40.3680   26.7310   42.4310 C   0  0  0  0  0  0  0  0  0  0  0  0
   41.1000   26.4410   41.2950 C   0  0  0  0  0  0  0  0  0  0  0  0
   42.2720   25.7600   41.3580 N   0  0  0  0  0  0  0  0  0  0  0  0
   42.7470   25.3470   42.5700 C   0  0  0  0  0  0  0  0  0  0  0  0
   42.0570   25.6160   43.6770 N   0  0  0  0  0  0  0  0  0  0  0  0
   40.4690   26.4190   44.6400 H   0  0  0  0  0  0  0  0  0  0  0  0
   40.7150   26.7660   40.3600 H   0  0  0  0  0  0  0  0  0  0  0  0
   43.6830   24.8100   42.5600 H   0  0  0  0  0  0  0  0  0  0  0  0
   37.6030   25.6830   41.8860 C   0  0  0  0  0  0  0  0  0  0  0  0
   36.9750   25.9960   40.6950 C   0  0  0  0  0  0  0  0  0  0  0  0
   36.7310   27.0010   40.4330 H   0  0  0  0  0  0  0  0  0  0  0  0
   36.6050   25.0600   39.7430 C   0  0  0  0  0  0  0  0  0  0  0  0
   36.1130   25.3240   38.8180 H   0  0  0  0  0  0  0  0  0  0  0  0
   36.8630   23.7350   39.9640 C   0  0  0  0  0  3  0  0  0  0  0  0
   37.4900   23.4230   41.1520 C   0  0  0  0  0  3  0  0  0  0  0  0
   37.8280   24.3450   42.0360 N   0  0  0  0  0  0  0  0  0  0  0  0
  1  2  1  0  0  0  0
  2  3  1  0  0  0  0
  2  7  1  1  0  0  0
  3  4  1  0  0  0  0
  3  9  1  0  0  0  0
  5  4  1  0  0  0  0
  5 12  1  0  0  0  0
  6  1  1  0  0  0  0
  6  5  1  0  0  0  0
  8  3  1  0  0  0  0
 10  4  1  0  0  0  0
 11  5  1  0  0  0  0
 13  6  1  0  0  0  0
 14  6  1  0  0  0  0
 15 20  1  0  0  0  0
 15 21  1  0  0  0  0
 16  1  1  0  0  0  0
 16 15  2  0  0  0  0
 17 18  2  0  0  0  0
 17 16  1  0  0  0  0
 18 19  1  0  0  0  0
 19 20  2  0  0  0  0
 22 17  1  0  0  0  0
 23 19  1  0  0  0  0
 24 31  1  0  0  0  0
 24  2  1  0  0  0  0
 25 24  2  0  0  0  0
 26 25  1  0  0  0  0
 27 29  2  0  0  0  0
 27 25  1  0  0  0  0
 28 27  1  0  0  0  0
 29 30  1  0  0  0  0
 30 31  2  0  0  0  0
M  END
>  <minimizedAffinity>
-4.51941586

$$$$

 OpenBabel03252508333D

 31 33  0  0  1  0  0  0  0  0999 V2000
   38.7330   30.5220   41.1790 N   0  0  0  0  0  0  0  0  0  0  0  0
   37.9360   29.7640   42.0910 C   0  0  1  0  0  0  0  0  0  0  0  0
   36.4850   29.7440   41.7960 C   0  0  0  0  0  0  0  0  0  0  0  0
   35.9130   30.8690   41.2000 N   0  0  0  0  0  0  0  0  0  0  0  0
   36.7370   31.7030   40.4150 C   0  0  0  0  0  0  0  0  0  0  0  0
   38.0270   31.0050   40.0300 C   0  0  0  0  0  0  0  0  0  0  0  0
   38.1170   30.1850   43.1240 H   0  0  0  0  0  0  0  0  0  0  0  0
   36.2430   28.8390   41.2000 H   0  0  0  0  0  0  0  0  0  0  0  0
   35.9620   29.5700   42.7810 H   0  0  0  0  0  0  0  0  0  0  0  0
   35.0650   30.6020   40.6460 H   0  0  0  0  0  0  0  0  0  0  0  0
   36.2850   32.0290   39.4370 H   0  0  0  0  0  0  0  0  0  0  0  0
   36.9910   32.6140   40.9770 H   0  0  0  0  0  0  0  0  0  0  0  0
   37.6960   30.1600   39.3540 H   0  0  0  0  0  0  0  0  0  0  0  0
   38.5560   31.6880   39.3740 H   0  0  0  0  0  0  0  0  0  0  0  0
   40.9990   30.4550   40.4570 C   0  0  0  0  0  0  0  0  0  0  0  0
   40.0970   30.7180   41.4810 C   0  0  0  0  0  0  0  0  0  0  0  0
   40.6140   31.1350   42.6940 C   0  0  0  0  0  0  0  0  0  0  0  0
   41.9490   31.2840   42.8850 N   0  0  0  0  0  0  0  0  0  0  0  0
   42.8100   31.0180   41.8590 C   0  0  0  0  0  0  0  0  0  0  0  0
   42.3330   30.6150   40.6830 N   0  0  0  0  0  0  0  0  0  0  0  0
   40.8070   30.1240   39.4490 H   0  0  0  0  0  0  0  0  0  0  0  0
   39.9300   31.3420   43.4800 H   0  0  0  0  0  0  0  0  0  0  0  0
   43.8600   31.1530   42.0680 H   0  0  0  0  0  0  0  0  0  0  0  0
   38.3770   28.3440   42.1530 C   0  0  0  0  0  0  0  0  0  0  0  0
   38.8270   27.7760   43.3290 C   0  0  0  0  0  0  0  0  0  0  0  0
   38.8720   28.3280   44.2410 H   0  0  0  0  0  0  0  0  0  0  0  0
   39.2550   26.4640   43.4440 C   0  0  0  0  0  0  0  0  0  0  0  0
   39.6040   26.0370   44.3730 H   0  0  0  0  0  0  0  0  0  0  0  0
   39.2450   25.6530   42.3420 C   0  0  0  0  0  3  0  0  0  0  0  0
   38.7960   26.2190   41.1680 C   0  0  0  0  0  3  0  0  0  0  0  0
   38.3950   27.4760   41.0990 N   0  0  0  0  0  0  0  0  0  0  0  0
  1 16  1  0  0  0  0
  1  2  1  0  0  0  0
  2 24  1  0  0  0  0
  2  7  1  1  0  0  0
  3  2  1  0  0  0  0
  3  9  1  0  0  0  0
  4  3  1  0  0  0  0
  5 12  1  0  0  0  0
  5  4  1  0  0  0  0
  6  5  1  0  0  0  0
  6  1  1  0  0  0  0
  8  3  1  0  0  0  0
 10  4  1  0  0  0  0
 11  5  1  0  0  0  0
 13  6  1  0  0  0  0
 14  6  1  0  0  0  0
 15 20  2  0  0  0  0
 15 16  1  0  0  0  0
 16 17  2  0  0  0  0
 17 18  1  0  0  0  0
 17 22  1  0  0  0  0
 19 23  1  0  0  0  0
 19 18  2  0  0  0  0
 20 19  1  0  0  0  0
 21 15  1  0  0  0  0
 24 25  1  0  0  0  0
 25 27  2  0  0  0  0
 25 26  1  0  0  0  0
 27 28  1  0  0  0  0
 29 27  1  0  0  0  0
 30 29  2  0  0  0  0
 31 30  1  0  0  0  0
 31 24  2  0  0  0  0
M  END
>  <minimizedAffinity>
-4.50057602

$$$$

 OpenBabel03252508333D

 31 33  0  0  1  0  0  0  0  0999 V2000
   39.4430   31.8320   39.0580 N   0  0  0  0  0  0  0  0  0  0  0  0
   39.7500   32.8440   40.0180 C   0  0  1  0  0  0  0  0  0  0  0  0
   38.5840   33.3990   40.7450 C   0  0  0  0  0  0  0  0  0  0  0  0
   37.3600   33.4710   40.0800 N   0  0  0  0  0  0  0  0  0  0  0  0
   37.1130   32.5620   39.0300 C   0  0  0  0  0  0  0  0  0  0  0  0
   38.0800   31.3930   39.0690 C   0  0  0  0  0  0  0  0  0  0  0  0
   40.2950   33.6690   39.4710 H   0  0  0  0  0  0  0  0  0  0  0  0
   38.4590   32.8570   41.7070 H   0  0  0  0  0  0  0  0  0  0  0  0
   38.8720   34.4450   41.0570 H   0  0  0  0  0  0  0  0  0  0  0  0
   36.5660   33.4320   40.7630 H   0  0  0  0  0  0  0  0  0  0  0  0
   36.0910   32.0890   39.0440 H   0  0  0  0  0  0  0  0  0  0  0  0
   37.2250   33.0700   38.0600 H   0  0  0  0  0  0  0  0  0  0  0  0
   37.8200   30.8490   40.0260 H   0  0  0  0  0  0  0  0  0  0  0  0
   37.7690   30.7180   38.2790 H   0  0  0  0  0  0  0  0  0  0  0  0
   41.1960   32.3400   37.5310 C   0  0  0  0  0  0  0  0  0  0  0  0
   40.4760   31.3680   38.2170 C   0  0  0  0  0  0  0  0  0  0  0  0
   40.8290   30.0480   38.0070 C   0  0  0  0  0  0  0  0  0  0  0  0
   41.8370   29.7050   37.1660 N   0  0  0  0  0  0  0  0  0  0  0  0
   42.5260   30.6830   36.5070 C   0  0  0  0  0  0  0  0  0  0  0  0
   42.2030   31.9610   36.6950 N   0  0  0  0  0  0  0  0  0  0  0  0
   41.0830   33.4120   37.5520 H   0  0  0  0  0  0  0  0  0  0  0  0
   40.2850   29.3000   38.5300 H   0  0  0  0  0  0  0  0  0  0  0  0
   43.3170   30.3530   35.8520 H   0  0  0  0  0  0  0  0  0  0  0  0
   40.7000   32.3500   41.0500 C   0  0  0  0  0  0  0  0  0  0  0  0
   40.3410   31.3690   41.9540 C   0  0  0  0  0  0  0  0  0  0  0  0
   39.3720   30.9230   41.9470 H   0  0  0  0  0  0  0  0  0  0  0  0
   41.1800   30.8750   42.9400 C   0  0  0  0  0  0  0  0  0  0  0  0
   40.8810   30.1080   43.6380 H   0  0  0  0  0  0  0  0  0  0  0  0
   42.4510   31.3690   43.0510 C   0  0  0  0  0  3  0  0  0  0  0  0
   42.8100   32.3470   42.1490 C   0  0  0  0  0  3  0  0  0  0  0  0
   41.9800   32.7920   41.2220 N   0  0  0  0  0  0  0  0  0  0  0  0
  1  6  1  0  0  0  0
  1  2  1  0  0  0  0
  2  7  1  6  0  0  0
  2  3  1  0  0  0  0
  2 24  1  0  0  0  0
  3  9  1  0  0  0  0
  3  8  1  0  0  0  0
  4  3  1  0  0  0  0
  4 10  1  0  0  0  0
  5 11  1  0  0  0  0
  5  6  1  0  0  0  0
  5  4  1  0  0  0  0
  6 13  1  0  0  0  0
 12  5  1  0  0  0  0
 14  6  1  0  0  0  0
 15 21  1  0  0  0  0
 15 16  1  0  0  0  0
 16  1  1  0  0  0  0
 17 16  2  0  0  0  0
 17 22  1  0  0  0  0
 18 17  1  0  0  0  0
 19 20  1  0  0  0  0
 19 18  2  0  0  0  0
 20 15  2  0  0  0  0
 23 19  1  0  0  0  0
 24 31  2  0  0  0  0
 24 25  1  0  0  0  0
 25 27  2  0  0  0  0
 26 25  1  0  0  0  0
 27 29  1  0  0  0  0
 27 28  1  0  0  0  0
 30 29  2  0  0  0  0
 31 30  1  0  0  0  0
M  END
>  <minimizedAffinity>
-4.46641874

$$$$

 OpenBabel03252508333D

 31 33  0  0  1  0  0  0  0  0999 V2000
   38.8080   30.5940   40.0050 N   0  0  0  0  0  0  0  0  0  0  0  0
   38.0090   30.6630   41.1870 C   0  0  1  0  0  0  0  0  0  0  0  0
   36.7250   31.3880   41.0410 C   0  0  0  0  0  0  0  0  0  0  0  0
   36.6650   32.4540   40.1410 N   0  0  0  0  0  0  0  0  0  0  0  0
   37.5580   32.4590   39.0490 C   0  0  0  0  0  0  0  0  0  0  0  0
   38.1690   31.0900   38.8240 C   0  0  0  0  0  0  0  0  0  0  0  0
   38.6400   31.1470   41.9900 H   0  0  0  0  0  0  0  0  0  0  0  0
   35.9150   30.6620   40.8190 H   0  0  0  0  0  0  0  0  0  0  0  0
   36.4640   31.7850   42.0650 H   0  0  0  0  0  0  0  0  0  0  0  0
   35.6860   32.5820   39.7870 H   0  0  0  0  0  0  0  0  0  0  0  0
   37.0930   32.7320   38.0590 H   0  0  0  0  0  0  0  0  0  0  0  0
   38.3720   33.1750   39.2340 H   0  0  0  0  0  0  0  0  0  0  0  0
   37.2940   30.4420   38.5140 H   0  0  0  0  0  0  0  0  0  0  0  0
   38.7760   31.1730   37.9290 H   0  0  0  0  0  0  0  0  0  0  0  0
   40.9960   30.7400   40.9310 C   0  0  0  0  0  0  0  0  0  0  0  0
   40.1090   30.0580   40.1050 C   0  0  0  0  0  0  0  0  0  0  0  0
   40.5810   28.9320   39.4550 C   0  0  0  0  0  0  0  0  0  0  0  0
   41.8590   28.5030   39.6120 N   0  0  0  0  0  0  0  0  0  0  0  0
   42.7060   29.1950   40.4300 C   0  0  0  0  0  0  0  0  0  0  0  0
   42.2720   30.2810   41.0660 N   0  0  0  0  0  0  0  0  0  0  0  0
   40.8310   31.6280   41.5190 H   0  0  0  0  0  0  0  0  0  0  0  0
   39.9080   28.4040   38.8250 H   0  0  0  0  0  0  0  0  0  0  0  0
   43.7100   28.8080   40.5170 H   0  0  0  0  0  0  0  0  0  0  0  0
   37.6740   29.3070   41.7020 C   0  0  0  0  0  0  0  0  0  0  0  0
   37.8000   28.9900   43.0410 C   0  0  0  0  0  0  0  0  0  0  0  0
   38.1370   29.7020   43.7600 H   0  0  0  0  0  0  0  0  0  0  0  0
   37.5100   27.7450   43.5740 C   0  0  0  0  0  0  0  0  0  0  0  0
   37.6150   27.5160   44.6250 H   0  0  0  0  0  0  0  0  0  0  0  0
   37.0690   26.7450   42.7520 C   0  0  0  0  0  3  0  0  0  0  0  0
   36.9430   27.0610   41.4160 C   0  0  0  0  0  3  0  0  0  0  0  0
   37.2300   28.2620   40.9450 N   0  0  0  0  0  0  0  0  0  0  0  0
  1 16  1  0  0  0  0
  1  2  1  0  0  0  0
  2 24  1  0  0  0  0
  2  7  1  1  0  0  0
  3  2  1  0  0  0  0
  3  9  1  0  0  0  0
  4  3  1  0  0  0  0
  5 12  1  0  0  0  0
  5  4  1  0  0  0  0
  6  5  1  0  0  0  0
  6  1  1  0  0  0  0
  8  3  1  0  0  0  0
 10  4  1  0  0  0  0
 11  5  1  0  0  0  0
 13  6  1  0  0  0  0
 14  6  1  0  0  0  0
 15 20  1  0  0  0  0
 15 21  1  0  0  0  0
 16 15  2  0  0  0  0
 17 18  2  0  0  0  0
 17 16  1  0  0  0  0
 18 19  1  0  0  0  0
 19 23  1  0  0  0  0
 19 20  2  0  0  0  0
 22 17  1  0  0  0  0
 24 25  1  0  0  0  0
 25 27  2  0  0  0  0
 25 26  1  0  0  0  0
 27 28  1  0  0  0  0
 29 27  1  0  0  0  0
 30 29  2  0  0  0  0
 31 30  1  0  0  0  0
 31 24  2  0  0  0  0
M  END
>  <minimizedAffinity>
-4.46468925

$$$$
