
 OpenBabel03242513193D

 36 39  0  0  0  0  0  0  0  0999 V2000
   39.3410   30.3410   42.7400 Cl  0  0  0  0  0  0  0  0  0  0  0  0
   37.9350   30.0810   41.7020 C   0  0  0  0  0  0  0  0  0  0  0  0
   37.0650   29.0480   41.9750 C   0  0  0  0  0  0  0  0  0  0  0  0
   35.9890   28.8870   41.1560 C   0  0  0  0  0  0  0  0  0  0  0  0
   35.7810   29.7320   40.0900 C   0  0  0  0  0  0  0  0  0  0  0  0
   36.6560   30.7680   39.8150 C   0  0  0  0  0  0  0  0  0  0  0  0
   37.7510   30.9290   40.6520 C   0  0  0  0  0  0  0  0  0  0  0  0
   35.3220   28.0640   41.4000 H   0  0  0  0  0  0  0  0  0  0  0  0
   34.9030   29.5320   39.4920 H   0  0  0  0  0  0  0  0  0  0  0  0
   36.4460   31.3880   38.9810 H   0  0  0  0  0  0  0  0  0  0  0  0
   38.6130   32.0450   40.2760 C   0  0  0  0  0  0  0  0  0  0  0  0
   38.4690   33.4000   40.5290 C   0  0  0  0  0  0  0  0  0  0  0  0
   39.5090   34.1390   40.0010 C   0  0  0  0  0  0  0  0  0  0  0  0
   40.2830   33.1510   39.4170 C   0  0  0  0  0  0  0  0  0  0  0  0
   39.7270   31.9910   39.6050 O   0  0  0  0  0  0  0  0  0  0  0  0
   37.6140   33.8130   41.0910 H   0  0  0  0  0  0  0  0  0  0  0  0
   39.6630   35.2050   40.0410 H   0  0  0  0  0  0  0  0  0  0  0  0
   41.2270   33.3230   38.8760 H   0  0  0  0  0  0  0  0  0  0  0  0
   37.3420   28.1780   43.1170 C   0  0  0  0  0  0  0  0  0  0  0  0
   36.9450   28.5510   44.2420 O   0  0  0  0  0  0  0  0  0  0  0  0
   39.9000   25.6230   43.4380 C   0  0  0  0  0  0  0  0  0  0  0  0
   39.4990   24.5700   42.6050 C   0  0  0  0  0  0  0  0  0  0  0  0
   38.3140   24.7890   41.9370 C   0  0  0  0  0  0  0  0  0  0  0  0
   37.6340   25.9590   42.1170 N   0  0  0  0  0  0  0  0  0  0  0  0
   38.0590   26.9300   42.9210 C   0  0  0  0  0  0  0  0  0  0  0  0
   39.2030   26.7450   43.5810 N   0  0  0  0  0  0  0  0  0  0  0  0
   40.8410   25.4540   43.9710 H   0  0  0  0  0  0  0  0  0  0  0  0
   40.0090   23.6550   42.4510 H   0  0  0  0  0  0  0  0  0  0  0  0
   37.6900   23.8450   41.0150 C   0  0  0  0  0  0  0  0  0  0  0  0
   36.4270   24.0410   40.4950 C   0  0  0  0  0  0  0  0  0  0  0  0
   35.8510   24.9150   40.7610 H   0  0  0  0  0  0  0  0  0  0  0  0
   35.7820   23.1910   39.6200 C   0  0  0  0  0  0  0  0  0  0  0  0
   34.7970   23.3810   39.2410 H   0  0  0  0  0  0  0  0  0  0  0  0
   36.4430   22.0460   39.2230 C   0  0  0  0  0  3  0  0  0  0  0  0
   37.7050   21.8560   39.7460 C   0  0  0  0  0  3  0  0  0  0  0  0
   38.2710   22.7100   40.5830 N   0  0  0  0  0  0  0  0  0  0  0  0
  2  3  1  0  0  0  0
  2  1  1  0  0  0  0
  3 19  1  0  0  0  0
  4  8  1  0  0  0  0
  4  3  2  0  0  0  0
  5  4  1  0  0  0  0
  6  5  2  0  0  0  0
  6  7  1  0  0  0  0
  7  2  2  0  0  0  0
  9  5  1  0  0  0  0
 10  6  1  0  0  0  0
 11 12  2  0  0  0  0
 11  7  1  0  0  0  0
 12 16  1  0  0  0  0
 13 17  1  0  0  0  0
 13 12  1  0  0  0  0
 14 15  1  0  0  0  0
 14 13  2  0  0  0  0
 15 11  1  0  0  0  0
 18 14  1  0  0  0  0
 19 20  2  0  0  0  0
 21 26  1  0  0  0  0
 21 27  1  0  0  0  0
 22 21  2  0  0  0  0
 23 24  2  0  0  0  0
 23 22  1  0  0  0  0
 24 25  1  0  0  0  0
 25 19  1  0  0  0  0
 25 26  2  0  0  0  0
 28 22  1  0  0  0  0
 29 23  1  0  0  0  0
 30 31  1  0  0  0  0
 30 29  2  0  0  0  0
 32 30  1  0  0  0  0
 33 32  1  0  0  0  0
 34 32  2  0  0  0  0
 34 35  1  0  0  0  0
 35 36  2  0  0  0  0
 36 29  1  0  0  0  0
M  END
>  <minimizedAffinity>
-6.59259319

$$$$

 OpenBabel03242513193D

 36 39  0  0  0  0  0  0  0  0999 V2000
   38.9780   30.1700   42.8770 Cl  0  0  0  0  0  0  0  0  0  0  0  0
   37.5890   29.8710   41.8260 C   0  0  0  0  0  0  0  0  0  0  0  0
   36.8160   28.7450   42.0160 C   0  0  0  0  0  0  0  0  0  0  0  0
   35.7510   28.5570   41.1910 C   0  0  0  0  0  0  0  0  0  0  0  0
   35.4560   29.4640   40.1990 C   0  0  0  0  0  0  0  0  0  0  0  0
   36.2330   30.5930   40.0070 C   0  0  0  0  0  0  0  0  0  0  0  0
   37.3190   30.7830   40.8500 C   0  0  0  0  0  0  0  0  0  0  0  0
   35.1620   27.6600   41.3690 H   0  0  0  0  0  0  0  0  0  0  0  0
   34.5930   29.2360   39.5900 H   0  0  0  0  0  0  0  0  0  0  0  0
   35.9600   31.2580   39.2270 H   0  0  0  0  0  0  0  0  0  0  0  0
   38.0750   31.9980   40.5630 C   0  0  0  0  0  0  0  0  0  0  0  0
   37.6550   33.1870   39.9880 C   0  0  0  0  0  0  0  0  0  0  0  0
   38.6820   34.1050   39.8880 C   0  0  0  0  0  0  0  0  0  0  0  0
   39.7390   33.3980   40.4350 C   0  0  0  0  0  0  0  0  0  0  0  0
   39.3360   32.2170   40.7980 O   0  0  0  0  0  0  0  0  0  0  0  0
   36.6160   33.3540   39.6580 H   0  0  0  0  0  0  0  0  0  0  0  0
   38.6520   35.1050   39.4870 H   0  0  0  0  0  0  0  0  0  0  0  0
   40.7670   33.7810   40.5470 H   0  0  0  0  0  0  0  0  0  0  0  0
   37.1830   27.8140   43.0810 C   0  0  0  0  0  0  0  0  0  0  0  0
   36.6520   27.9740   44.2020 O   0  0  0  0  0  0  0  0  0  0  0  0
   38.5160   24.6200   41.9870 C   0  0  0  0  0  0  0  0  0  0  0  0
   39.8860   24.6550   42.2770 C   0  0  0  0  0  0  0  0  0  0  0  0
   40.3170   25.8250   42.8630 C   0  0  0  0  0  0  0  0  0  0  0  0
   39.4290   26.8320   43.1130 N   0  0  0  0  0  0  0  0  0  0  0  0
   38.1340   26.7490   42.8180 C   0  0  0  0  0  0  0  0  0  0  0  0
   37.6890   25.6270   42.2500 N   0  0  0  0  0  0  0  0  0  0  0  0
   38.1680   23.6920   41.5220 H   0  0  0  0  0  0  0  0  0  0  0  0
   40.5920   23.8880   42.0930 H   0  0  0  0  0  0  0  0  0  0  0  0
   41.6950   26.1020   43.2590 C   0  0  0  0  0  0  0  0  0  0  0  0
   42.0740   27.2950   43.8400 C   0  0  0  0  0  0  0  0  0  0  0  0
   41.3490   28.0740   44.0220 H   0  0  0  0  0  0  0  0  0  0  0  0
   43.3550   27.6180   44.2370 C   0  0  0  0  0  0  0  0  0  0  0  0
   43.6070   28.5590   44.6850 H   0  0  0  0  0  0  0  0  0  0  0  0
   44.3500   26.6810   44.0430 C   0  0  0  0  0  3  0  0  0  0  0  0
   43.9640   25.4920   43.4620 C   0  0  0  0  0  3  0  0  0  0  0  0
   42.7170   25.2400   43.1020 N   0  0  0  0  0  0  0  0  0  0  0  0
  2  3  1  0  0  0  0
  2  1  1  0  0  0  0
  3 19  1  0  0  0  0
  4  8  1  0  0  0  0
  4  3  2  0  0  0  0
  5  4  1  0  0  0  0
  6  5  2  0  0  0  0
  6  7  1  0  0  0  0
  7  2  2  0  0  0  0
  9  5  1  0  0  0  0
 10  6  1  0  0  0  0
 11 15  1  0  0  0  0
 11  7  1  0  0  0  0
 12 11  2  0  0  0  0
 13 12  1  0  0  0  0
 13 14  2  0  0  0  0
 14 18  1  0  0  0  0
 14 15  1  0  0  0  0
 16 12  1  0  0  0  0
 17 13  1  0  0  0  0
 19 20  2  0  0  0  0
 21 26  2  0  0  0  0
 21 22  1  0  0  0  0
 22 23  2  0  0  0  0
 23 24  1  0  0  0  0
 23 29  1  0  0  0  0
 25 19  1  0  0  0  0
 25 24  2  0  0  0  0
 26 25  1  0  0  0  0
 27 21  1  0  0  0  0
 28 22  1  0  0  0  0
 29 30  1  0  0  0  0
 30 31  1  0  0  0  0
 30 32  2  0  0  0  0
 32 33  1  0  0  0  0
 34 32  1  0  0  0  0
 35 34  2  0  0  0  0
 36 29  2  0  0  0  0
 36 35  1  0  0  0  0
M  END
>  <minimizedAffinity>
-6.40602112

$$$$

 OpenBabel03242513193D

 36 39  0  0  0  0  0  0  0  0999 V2000
   36.1770   26.5770   38.7880 Cl  0  0  0  0  0  0  0  0  0  0  0  0
   36.5910   27.0370   40.4430 C   0  0  0  0  0  0  0  0  0  0  0  0
   36.2620   28.2920   40.9080 C   0  0  0  0  0  0  0  0  0  0  0  0
   36.5920   28.6030   42.1910 C   0  0  0  0  0  0  0  0  0  0  0  0
   37.2340   27.6920   42.9960 C   0  0  0  0  0  0  0  0  0  0  0  0
   37.5670   26.4320   42.5290 C   0  0  0  0  0  0  0  0  0  0  0  0
   37.2290   26.1170   41.2200 C   0  0  0  0  0  0  0  0  0  0  0  0
   36.3170   29.6010   42.5260 H   0  0  0  0  0  0  0  0  0  0  0  0
   37.4590   28.0220   44.0000 H   0  0  0  0  0  0  0  0  0  0  0  0
   38.0620   25.7700   43.1930 H   0  0  0  0  0  0  0  0  0  0  0  0
   37.6260   24.7700   40.8230 C   0  0  0  0  0  0  0  0  0  0  0  0
   36.8750   23.6060   40.7690 C   0  0  0  0  0  0  0  0  0  0  0  0
   37.6220   22.5280   40.3370 C   0  0  0  0  0  0  0  0  0  0  0  0
   38.8620   23.1120   40.1370 C   0  0  0  0  0  0  0  0  0  0  0  0
   38.8010   24.3780   40.4280 O   0  0  0  0  0  0  0  0  0  0  0  0
   35.8070   23.5730   41.0440 H   0  0  0  0  0  0  0  0  0  0  0  0
   37.3080   21.5060   40.1980 H   0  0  0  0  0  0  0  0  0  0  0  0
   39.7610   22.5830   39.7830 H   0  0  0  0  0  0  0  0  0  0  0  0
   35.5870   29.2210   40.0030 C   0  0  0  0  0  0  0  0  0  0  0  0
   34.3400   29.2760   40.0510 O   0  0  0  0  0  0  0  0  0  0  0  0
   36.9810   30.4980   36.9040 C   0  0  0  0  0  0  0  0  0  0  0  0
   37.8240   31.5560   37.2690 C   0  0  0  0  0  0  0  0  0  0  0  0
   37.8840   31.7990   38.6230 C   0  0  0  0  0  0  0  0  0  0  0  0
   37.1540   31.0350   39.4880 N   0  0  0  0  0  0  0  0  0  0  0  0
   36.3660   30.0400   39.0900 C   0  0  0  0  0  0  0  0  0  0  0  0
   36.2890   29.7810   37.7840 N   0  0  0  0  0  0  0  0  0  0  0  0
   36.9310   30.3000   35.8290 H   0  0  0  0  0  0  0  0  0  0  0  0
   38.3990   32.1610   36.6160 H   0  0  0  0  0  0  0  0  0  0  0  0
   38.6890   32.8440   39.2480 C   0  0  0  0  0  0  0  0  0  0  0  0
   38.1310   33.8800   39.9690 C   0  0  0  0  0  0  0  0  0  0  0  0
   37.0600   33.9500   40.0940 H   0  0  0  0  0  0  0  0  0  0  0  0
   38.8340   34.8950   40.5840 C   0  0  0  0  0  0  0  0  0  0  0  0
   38.3590   35.6830   41.1350 H   0  0  0  0  0  0  0  0  0  0  0  0
   40.2100   34.8880   40.4780 C   0  0  0  0  0  3  0  0  0  0  0  0
   40.7610   33.8510   39.7560 C   0  0  0  0  0  3  0  0  0  0  0  0
   40.0330   32.9040   39.1880 N   0  0  0  0  0  0  0  0  0  0  0  0
  1  2  1  0  0  0  0
  2  3  2  0  0  0  0
  2  7  1  0  0  0  0
  3  4  1  0  0  0  0
  4  8  1  0  0  0  0
  4  5  2  0  0  0  0
  5  9  1  0  0  0  0
  6  5  1  0  0  0  0
  6 10  1  0  0  0  0
  7  6  2  0  0  0  0
 11  7  1  0  0  0  0
 12 11  2  0  0  0  0
 12 16  1  0  0  0  0
 13 12  1  0  0  0  0
 14 13  2  0  0  0  0
 14 15  1  0  0  0  0
 15 11  1  0  0  0  0
 17 13  1  0  0  0  0
 18 14  1  0  0  0  0
 19 20  2  0  0  0  0
 19  3  1  0  0  0  0
 21 22  2  0  0  0  0
 21 26  1  0  0  0  0
 22 23  1  0  0  0  0
 23 29  1  0  0  0  0
 23 24  2  0  0  0  0
 25 24  1  0  0  0  0
 25 19  1  0  0  0  0
 26 25  2  0  0  0  0
 27 21  1  0  0  0  0
 28 22  1  0  0  0  0
 29 30  1  0  0  0  0
 30 31  1  0  0  0  0
 30 32  2  0  0  0  0
 32 33  1  0  0  0  0
 34 32  1  0  0  0  0
 35 34  2  0  0  0  0
 36 29  2  0  0  0  0
 36 35  1  0  0  0  0
M  END
>  <minimizedAffinity>
-6.40430355

$$$$

 OpenBabel03242513193D

 36 39  0  0  0  0  0  0  0  0999 V2000
   36.5730   30.7550   40.9340 Cl  0  0  0  0  0  0  0  0  0  0  0  0
   36.8240   30.7330   39.1850 C   0  0  0  0  0  0  0  0  0  0  0  0
   36.2320   29.7500   38.4210 C   0  0  0  0  0  0  0  0  0  0  0  0
   36.4430   29.7740   37.0760 C   0  0  0  0  0  0  0  0  0  0  0  0
   37.2230   30.7500   36.5010 C   0  0  0  0  0  0  0  0  0  0  0  0
   37.8190   31.7360   37.2680 C   0  0  0  0  0  0  0  0  0  0  0  0
   37.6030   31.7090   38.6390 C   0  0  0  0  0  0  0  0  0  0  0  0
   35.9610   28.9860   36.5030 H   0  0  0  0  0  0  0  0  0  0  0  0
   37.3390   30.6930   35.4280 H   0  0  0  0  0  0  0  0  0  0  0  0
   38.4110   32.4620   36.7730 H   0  0  0  0  0  0  0  0  0  0  0  0
   38.2760   32.7850   39.3580 C   0  0  0  0  0  0  0  0  0  0  0  0
   37.7670   33.9800   39.8440 C   0  0  0  0  0  0  0  0  0  0  0  0
   38.7350   34.7380   40.4720 C   0  0  0  0  0  0  0  0  0  0  0  0
   39.8510   33.9300   40.3350 C   0  0  0  0  0  0  0  0  0  0  0  0
   39.5300   32.8440   39.6980 O   0  0  0  0  0  0  0  0  0  0  0  0
   36.7080   34.2660   39.7280 H   0  0  0  0  0  0  0  0  0  0  0  0
   38.6320   35.7020   40.9410 H   0  0  0  0  0  0  0  0  0  0  0  0
   40.8590   34.1740   40.7100 H   0  0  0  0  0  0  0  0  0  0  0  0
   35.4190   28.7350   39.0890 C   0  0  0  0  0  0  0  0  0  0  0  0
   34.2460   29.0380   39.3960 O   0  0  0  0  0  0  0  0  0  0  0  0
   36.0990   25.1790   38.8260 C   0  0  0  0  0  0  0  0  0  0  0  0
   37.0120   24.8850   39.8490 C   0  0  0  0  0  0  0  0  0  0  0  0
   37.3720   25.9670   40.6220 C   0  0  0  0  0  0  0  0  0  0  0  0
   36.8480   27.2000   40.3600 N   0  0  0  0  0  0  0  0  0  0  0  0
   35.9830   27.4270   39.3740 C   0  0  0  0  0  0  0  0  0  0  0  0
   35.6160   26.3980   38.6100 N   0  0  0  0  0  0  0  0  0  0  0  0
   35.8090   24.3230   38.2100 H   0  0  0  0  0  0  0  0  0  0  0  0
   37.4300   23.9380   40.0700 H   0  0  0  0  0  0  0  0  0  0  0  0
   38.3040   25.9160   41.7440 C   0  0  0  0  0  0  0  0  0  0  0  0
   38.4360   26.9520   42.6470 C   0  0  0  0  0  0  0  0  0  0  0  0
   37.8420   27.8490   42.5460 H   0  0  0  0  0  0  0  0  0  0  0  0
   39.2940   26.9670   43.7260 C   0  0  0  0  0  0  0  0  0  0  0  0
   39.3660   27.7950   44.4040 H   0  0  0  0  0  0  0  0  0  0  0  0
   40.0940   25.8610   43.9340 C   0  0  0  0  0  3  0  0  0  0  0  0
   39.9570   24.8300   43.0290 C   0  0  0  0  0  3  0  0  0  0  0  0
   39.1140   24.8750   42.0110 N   0  0  0  0  0  0  0  0  0  0  0  0
  2  1  1  0  0  0  0
  3 19  1  0  0  0  0
  3  2  2  0  0  0  0
  4  3  1  0  0  0  0
  5  4  2  0  0  0  0
  5  6  1  0  0  0  0
  6  7  2  0  0  0  0
  7  2  1  0  0  0  0
  7 11  1  0  0  0  0
  8  4  1  0  0  0  0
  9  5  1  0  0  0  0
 10  6  1  0  0  0  0
 11 15  1  0  0  0  0
 11 12  2  0  0  0  0
 12 13  1  0  0  0  0
 13 17  1  0  0  0  0
 14 13  2  0  0  0  0
 14 18  1  0  0  0  0
 15 14  1  0  0  0  0
 16 12  1  0  0  0  0
 19 25  1  0  0  0  0
 19 20  2  0  0  0  0
 21 22  1  0  0  0  0
 22 28  1  0  0  0  0
 22 23  2  0  0  0  0
 23 29  1  0  0  0  0
 24 23  1  0  0  0  0
 25 24  2  0  0  0  0
 26 21  2  0  0  0  0
 26 25  1  0  0  0  0
 27 21  1  0  0  0  0
 29 36  2  0  0  0  0
 29 30  1  0  0  0  0
 30 32  2  0  0  0  0
 31 30  1  0  0  0  0
 32 34  1  0  0  0  0
 32 33  1  0  0  0  0
 35 34  2  0  0  0  0
 36 35  1  0  0  0  0
M  END
>  <minimizedAffinity>
-6.3852849

$$$$

 OpenBabel03242513193D

 36 39  0  0  0  0  0  0  0  0999 V2000
   40.4370   31.1290   38.2450 Cl  0  0  0  0  0  0  0  0  0  0  0  0
   39.6650   32.5240   39.0070 C   0  0  0  0  0  0  0  0  0  0  0  0
   38.3050   32.5140   39.2340 C   0  0  0  0  0  0  0  0  0  0  0  0
   37.7510   33.6050   39.8300 C   0  0  0  0  0  0  0  0  0  0  0  0
   38.5260   34.6810   40.1940 C   0  0  0  0  0  0  0  0  0  0  0  0
   39.8910   34.6920   39.9640 C   0  0  0  0  0  0  0  0  0  0  0  0
   40.4530   33.5790   39.3560 C   0  0  0  0  0  0  0  0  0  0  0  0
   36.6770   33.5640   39.9960 H   0  0  0  0  0  0  0  0  0  0  0  0
   38.0040   35.5040   40.6620 H   0  0  0  0  0  0  0  0  0  0  0  0
   40.4390   35.5490   40.2650 H   0  0  0  0  0  0  0  0  0  0  0  0
   41.8940   33.6900   39.1540 C   0  0  0  0  0  0  0  0  0  0  0  0
   42.6040   34.0970   38.0350 C   0  0  0  0  0  0  0  0  0  0  0  0
   43.9680   34.0640   38.2460 C   0  0  0  0  0  0  0  0  0  0  0  0
   44.0350   33.6130   39.5540 C   0  0  0  0  0  0  0  0  0  0  0  0
   42.8340   33.4200   40.0120 O   0  0  0  0  0  0  0  0  0  0  0  0
   42.1100   34.4070   37.0980 H   0  0  0  0  0  0  0  0  0  0  0  0
   44.7590   34.3230   37.5620 H   0  0  0  0  0  0  0  0  0  0  0  0
   44.9660   33.4460   40.1180 H   0  0  0  0  0  0  0  0  0  0  0  0
   37.5320   31.3450   38.8180 C   0  0  0  0  0  0  0  0  0  0  0  0
   37.2040   31.2630   37.6150 O   0  0  0  0  0  0  0  0  0  0  0  0
   35.5050   29.0510   40.7690 C   0  0  0  0  0  0  0  0  0  0  0  0
   36.3910   28.3940   41.6330 C   0  0  0  0  0  0  0  0  0  0  0  0
   37.7070   28.7820   41.5060 C   0  0  0  0  0  0  0  0  0  0  0  0
   38.0540   29.7350   40.5910 N   0  0  0  0  0  0  0  0  0  0  0  0
   37.1720   30.3300   39.7920 C   0  0  0  0  0  0  0  0  0  0  0  0
   35.8900   29.9740   39.8940 N   0  0  0  0  0  0  0  0  0  0  0  0
   34.4580   28.7480   40.8660 H   0  0  0  0  0  0  0  0  0  0  0  0
   36.1450   27.6540   42.3480 H   0  0  0  0  0  0  0  0  0  0  0  0
   38.8140   28.2450   42.2920 C   0  0  0  0  0  0  0  0  0  0  0  0
   38.6580   27.1920   43.1710 C   0  0  0  0  0  0  0  0  0  0  0  0
   37.6930   26.7260   43.3060 H   0  0  0  0  0  0  0  0  0  0  0  0
   39.6610   26.6390   43.9400 C   0  0  0  0  0  0  0  0  0  0  0  0
   39.4960   25.8210   44.6130 H   0  0  0  0  0  0  0  0  0  0  0  0
   40.9290   27.1720   43.8330 C   0  0  0  0  0  3  0  0  0  0  0  0
   41.0780   28.2230   42.9520 C   0  0  0  0  0  3  0  0  0  0  0  0
   40.0760   28.7110   42.2400 N   0  0  0  0  0  0  0  0  0  0  0  0
  1  2  1  0  0  0  0
  2  3  2  0  0  0  0
  2  7  1  0  0  0  0
  3  4  1  0  0  0  0
  4  8  1  0  0  0  0
  4  5  2  0  0  0  0
  5  9  1  0  0  0  0
  6  5  1  0  0  0  0
  6 10  1  0  0  0  0
  7  6  2  0  0  0  0
 11  7  1  0  0  0  0
 11 15  1  0  0  0  0
 12 13  1  0  0  0  0
 12 11  2  0  0  0  0
 13 14  2  0  0  0  0
 14 15  1  0  0  0  0
 14 18  1  0  0  0  0
 16 12  1  0  0  0  0
 17 13  1  0  0  0  0
 19  3  1  0  0  0  0
 19 25  1  0  0  0  0
 20 19  2  0  0  0  0
 21 27  1  0  0  0  0
 21 22  1  0  0  0  0
 22 28  1  0  0  0  0
 23 22  2  0  0  0  0
 23 29  1  0  0  0  0
 24 23  1  0  0  0  0
 25 26  1  0  0  0  0
 25 24  2  0  0  0  0
 26 21  2  0  0  0  0
 29 30  1  0  0  0  0
 30 31  1  0  0  0  0
 30 32  2  0  0  0  0
 32 33  1  0  0  0  0
 34 32  1  0  0  0  0
 35 34  2  0  0  0  0
 36 29  2  0  0  0  0
 36 35  1  0  0  0  0
M  END
>  <minimizedAffinity>
-6.33845711

$$$$

 OpenBabel03242513193D

 36 39  0  0  0  0  0  0  0  0999 V2000
   36.9240   26.3830   41.1450 Cl  0  0  0  0  0  0  0  0  0  0  0  0
   38.3150   26.0900   42.1950 C   0  0  0  0  0  0  0  0  0  0  0  0
   38.6080   26.9790   43.2070 C   0  0  0  0  0  0  0  0  0  0  0  0
   39.6820   26.7120   43.9980 C   0  0  0  0  0  0  0  0  0  0  0  0
   40.4500   25.5890   43.7920 C   0  0  0  0  0  0  0  0  0  0  0  0
   40.1570   24.6970   42.7750 C   0  0  0  0  0  0  0  0  0  0  0  0
   39.0610   24.9720   41.9690 C   0  0  0  0  0  0  0  0  0  0  0  0
   39.8850   27.4320   44.7870 H   0  0  0  0  0  0  0  0  0  0  0  0
   41.2840   25.4550   44.4660 H   0  0  0  0  0  0  0  0  0  0  0  0
   40.7820   23.8490   42.6610 H   0  0  0  0  0  0  0  0  0  0  0  0
   38.8390   23.9770   40.9260 C   0  0  0  0  0  0  0  0  0  0  0  0
   37.9470   22.9160   40.8890 C   0  0  0  0  0  0  0  0  0  0  0  0
   38.0450   22.1980   39.7140 C   0  0  0  0  0  0  0  0  0  0  0  0
   39.0450   22.8880   39.0500 C   0  0  0  0  0  0  0  0  0  0  0  0
   39.4530   23.8800   39.7830 O   0  0  0  0  0  0  0  0  0  0  0  0
   37.2520   22.6940   41.7170 H   0  0  0  0  0  0  0  0  0  0  0  0
   37.4830   21.3300   39.4090 H   0  0  0  0  0  0  0  0  0  0  0  0
   39.4330   22.6330   38.0510 H   0  0  0  0  0  0  0  0  0  0  0  0
   37.7610   28.1590   43.3720 C   0  0  0  0  0  0  0  0  0  0  0  0
   36.8630   28.1130   44.2410 O   0  0  0  0  0  0  0  0  0  0  0  0
   37.1120   30.8360   41.0080 C   0  0  0  0  0  0  0  0  0  0  0  0
   38.3050   31.5670   40.9180 C   0  0  0  0  0  0  0  0  0  0  0  0
   39.3280   31.0900   41.7060 C   0  0  0  0  0  0  0  0  0  0  0  0
   39.1320   29.9900   42.4910 N   0  0  0  0  0  0  0  0  0  0  0  0
   37.9780   29.3300   42.5420 C   0  0  0  0  0  0  0  0  0  0  0  0
   36.9690   29.7700   41.7880 N   0  0  0  0  0  0  0  0  0  0  0  0
   36.2950   31.2100   40.3840 H   0  0  0  0  0  0  0  0  0  0  0  0
   38.4790   32.4210   40.3170 H   0  0  0  0  0  0  0  0  0  0  0  0
   40.6630   31.6770   41.7850 C   0  0  0  0  0  0  0  0  0  0  0  0
   41.6280   31.2110   42.6540 C   0  0  0  0  0  0  0  0  0  0  0  0
   41.4200   30.3820   43.3160 H   0  0  0  0  0  0  0  0  0  0  0  0
   42.9050   31.7190   42.7770 C   0  0  0  0  0  0  0  0  0  0  0  0
   43.6250   31.3260   43.4680 H   0  0  0  0  0  0  0  0  0  0  0  0
   43.2610   32.7810   41.9710 C   0  0  0  0  0  3  0  0  0  0  0  0
   42.2920   33.2410   41.1040 C   0  0  0  0  0  3  0  0  0  0  0  0
   41.0820   32.7120   41.0320 N   0  0  0  0  0  0  0  0  0  0  0  0
  1  2  1  0  0  0  0
  2  3  1  0  0  0  0
  3 19  1  0  0  0  0
  3  4  2  0  0  0  0
  4  8  1  0  0  0  0
  5  4  1  0  0  0  0
  5  9  1  0  0  0  0
  6  5  2  0  0  0  0
  7  2  2  0  0  0  0
  7  6  1  0  0  0  0
 10  6  1  0  0  0  0
 11  7  1  0  0  0  0
 12 11  2  0  0  0  0
 12 16  1  0  0  0  0
 13 12  1  0  0  0  0
 14 13  2  0  0  0  0
 14 15  1  0  0  0  0
 15 11  1  0  0  0  0
 17 13  1  0  0  0  0
 18 14  1  0  0  0  0
 19 20  2  0  0  0  0
 21 26  1  0  0  0  0
 22 21  2  0  0  0  0
 22 23  1  0  0  0  0
 23 29  1  0  0  0  0
 23 24  2  0  0  0  0
 24 25  1  0  0  0  0
 25 19  1  0  0  0  0
 26 25  2  0  0  0  0
 27 21  1  0  0  0  0
 28 22  1  0  0  0  0
 29 30  1  0  0  0  0
 30 32  2  0  0  0  0
 30 31  1  0  0  0  0
 32 33  1  0  0  0  0
 34 32  1  0  0  0  0
 35 34  2  0  0  0  0
 36 35  1  0  0  0  0
 36 29  2  0  0  0  0
M  END
>  <minimizedAffinity>
-6.3071599

$$$$

 OpenBabel03242513193D

 36 39  0  0  0  0  0  0  0  0999 V2000
   37.4500   31.0190   37.1670 Cl  0  0  0  0  0  0  0  0  0  0  0  0
   36.6890   30.3080   38.5940 C   0  0  0  0  0  0  0  0  0  0  0  0
   36.0080   29.1140   38.4840 C   0  0  0  0  0  0  0  0  0  0  0  0
   35.4440   28.5960   39.6090 C   0  0  0  0  0  0  0  0  0  0  0  0
   35.5510   29.2450   40.8160 C   0  0  0  0  0  0  0  0  0  0  0  0
   36.2320   30.4450   40.9270 C   0  0  0  0  0  0  0  0  0  0  0  0
   36.8060   30.9720   39.7780 C   0  0  0  0  0  0  0  0  0  0  0  0
   34.9170   27.6520   39.4870 H   0  0  0  0  0  0  0  0  0  0  0  0
   35.0730   28.7640   41.6570 H   0  0  0  0  0  0  0  0  0  0  0  0
   36.2830   30.9030   41.8820 H   0  0  0  0  0  0  0  0  0  0  0  0
   37.4970   32.2380   39.9980 C   0  0  0  0  0  0  0  0  0  0  0  0
   37.2120   33.5000   39.5010 C   0  0  0  0  0  0  0  0  0  0  0  0
   38.1110   34.4480   39.9480 C   0  0  0  0  0  0  0  0  0  0  0  0
   38.9500   33.6820   40.7410 C   0  0  0  0  0  0  0  0  0  0  0  0
   38.5530   32.4450   40.7300 O   0  0  0  0  0  0  0  0  0  0  0  0
   36.3600   33.6960   38.8280 H   0  0  0  0  0  0  0  0  0  0  0  0
   38.1390   35.5030   39.7290 H   0  0  0  0  0  0  0  0  0  0  0  0
   39.8210   34.0660   41.2960 H   0  0  0  0  0  0  0  0  0  0  0  0
   35.9220   28.4730   37.1720 C   0  0  0  0  0  0  0  0  0  0  0  0
   36.9460   27.9080   36.7330 O   0  0  0  0  0  0  0  0  0  0  0  0
   33.4560   27.7620   34.6050 C   0  0  0  0  0  0  0  0  0  0  0  0
   32.3240   28.5180   34.9390 C   0  0  0  0  0  0  0  0  0  0  0  0
   32.4590   29.2750   36.0820 C   0  0  0  0  0  0  0  0  0  0  0  0
   33.6270   29.2460   36.7880 N   0  0  0  0  0  0  0  0  0  0  0  0
   34.6750   28.5100   36.4280 C   0  0  0  0  0  0  0  0  0  0  0  0
   34.5730   27.7670   35.3250 N   0  0  0  0  0  0  0  0  0  0  0  0
   33.3540   27.1600   33.6970 H   0  0  0  0  0  0  0  0  0  0  0  0
   31.4090   28.5570   34.4070 H   0  0  0  0  0  0  0  0  0  0  0  0
   31.4230   30.1440   36.6340 C   0  0  0  0  0  0  0  0  0  0  0  0
   30.9890   31.2840   35.9890 C   0  0  0  0  0  0  0  0  0  0  0  0
   31.4130   31.5740   35.0380 H   0  0  0  0  0  0  0  0  0  0  0  0
   30.0170   32.1450   36.4540 C   0  0  0  0  0  0  0  0  0  0  0  0
   29.7100   33.0230   35.9200 H   0  0  0  0  0  0  0  0  0  0  0  0
   29.4190   31.8550   37.6640 C   0  0  0  0  0  3  0  0  0  0  0  0
   29.8570   30.7140   38.3030 C   0  0  0  0  0  3  0  0  0  0  0  0
   30.7960   29.9260   37.8050 N   0  0  0  0  0  0  0  0  0  0  0  0
  1  2  1  0  0  0  0
  2  7  1  0  0  0  0
  3  2  2  0  0  0  0
  3  4  1  0  0  0  0
  4  5  2  0  0  0  0
  5  6  1  0  0  0  0
  5  9  1  0  0  0  0
  6 10  1  0  0  0  0
  7 11  1  0  0  0  0
  7  6  2  0  0  0  0
  8  4  1  0  0  0  0
 11 15  1  0  0  0  0
 12 13  1  0  0  0  0
 12 11  2  0  0  0  0
 13 14  2  0  0  0  0
 14 18  1  0  0  0  0
 15 14  1  0  0  0  0
 16 12  1  0  0  0  0
 17 13  1  0  0  0  0
 19  3  1  0  0  0  0
 20 19  2  0  0  0  0
 21 22  2  0  0  0  0
 21 26  1  0  0  0  0
 22 23  1  0  0  0  0
 23 29  1  0  0  0  0
 23 24  2  0  0  0  0
 25 24  1  0  0  0  0
 25 19  1  0  0  0  0
 26 25  2  0  0  0  0
 27 21  1  0  0  0  0
 28 22  1  0  0  0  0
 29 36  1  0  0  0  0
 30 32  1  0  0  0  0
 30 29  2  0  0  0  0
 31 30  1  0  0  0  0
 32 34  2  0  0  0  0
 33 32  1  0  0  0  0
 34 35  1  0  0  0  0
 36 35  2  0  0  0  0
M  END
>  <minimizedAffinity>
-6.28479815

$$$$

 OpenBabel03242513193D

 36 39  0  0  0  0  0  0  0  0999 V2000
   39.8880   31.3710   42.1820 Cl  0  0  0  0  0  0  0  0  0  0  0  0
   38.5520   31.2620   41.0310 C   0  0  0  0  0  0  0  0  0  0  0  0
   38.3330   32.2890   40.1380 C   0  0  0  0  0  0  0  0  0  0  0  0
   37.2980   32.1620   39.2620 C   0  0  0  0  0  0  0  0  0  0  0  0
   36.5000   31.0420   39.2710 C   0  0  0  0  0  0  0  0  0  0  0  0
   36.7190   30.0120   40.1680 C   0  0  0  0  0  0  0  0  0  0  0  0
   37.7740   30.1440   41.0600 C   0  0  0  0  0  0  0  0  0  0  0  0
   37.1540   32.9890   38.5710 H   0  0  0  0  0  0  0  0  0  0  0  0
   35.7020   31.0240   38.5420 H   0  0  0  0  0  0  0  0  0  0  0  0
   36.0720   29.1720   40.1300 H   0  0  0  0  0  0  0  0  0  0  0  0
   37.9180   29.0090   41.9650 C   0  0  0  0  0  0  0  0  0  0  0  0
   37.5220   28.8730   43.2870 C   0  0  0  0  0  0  0  0  0  0  0  0
   37.8420   27.6310   43.7990 C   0  0  0  0  0  0  0  0  0  0  0  0
   38.4540   27.0320   42.7100 C   0  0  0  0  0  0  0  0  0  0  0  0
   38.4670   27.8580   41.7070 O   0  0  0  0  0  0  0  0  0  0  0  0
   37.0100   29.6790   43.8400 H   0  0  0  0  0  0  0  0  0  0  0  0
   37.6590   27.2450   44.7880 H   0  0  0  0  0  0  0  0  0  0  0  0
   38.8660   26.0100   42.6990 H   0  0  0  0  0  0  0  0  0  0  0  0
   39.2100   33.4570   40.1820 C   0  0  0  0  0  0  0  0  0  0  0  0
   38.9240   34.3690   40.9880 O   0  0  0  0  0  0  0  0  0  0  0  0
   42.0650   34.8200   38.4010 C   0  0  0  0  0  0  0  0  0  0  0  0
   42.5920   33.7590   37.6520 C   0  0  0  0  0  0  0  0  0  0  0  0
   41.9170   32.5670   37.7940 C   0  0  0  0  0  0  0  0  0  0  0  0
   40.8290   32.4910   38.6150 N   0  0  0  0  0  0  0  0  0  0  0  0
   40.3670   33.5290   39.3070 C   0  0  0  0  0  0  0  0  0  0  0  0
   41.0010   34.6970   39.1890 N   0  0  0  0  0  0  0  0  0  0  0  0
   42.5970   35.7690   38.2910 H   0  0  0  0  0  0  0  0  0  0  0  0
   43.4330   33.7960   37.0090 H   0  0  0  0  0  0  0  0  0  0  0  0
   42.2720   31.3220   37.1190 C   0  0  0  0  0  0  0  0  0  0  0  0
   41.5380   30.1620   37.2670 C   0  0  0  0  0  0  0  0  0  0  0  0
   40.6630   30.1410   37.9010 H   0  0  0  0  0  0  0  0  0  0  0  0
   41.8180   28.9570   36.6590 C   0  0  0  0  0  0  0  0  0  0  0  0
   41.2210   28.0780   36.8030 H   0  0  0  0  0  0  0  0  0  0  0  0
   42.9190   28.8890   35.8290 C   0  0  0  0  0  3  0  0  0  0  0  0
   43.6480   30.0510   35.6850 C   0  0  0  0  0  3  0  0  0  0  0  0
   43.3280   31.1800   36.2970 N   0  0  0  0  0  0  0  0  0  0  0  0
  2  7  1  0  0  0  0
  2  1  1  0  0  0  0
  3 19  1  0  0  0  0
  3  2  2  0  0  0  0
  4  5  2  0  0  0  0
  4  3  1  0  0  0  0
  5  6  1  0  0  0  0
  6  7  2  0  0  0  0
  7 11  1  0  0  0  0
  8  4  1  0  0  0  0
  9  5  1  0  0  0  0
 10  6  1  0  0  0  0
 11 12  2  0  0  0  0
 12 13  1  0  0  0  0
 12 16  1  0  0  0  0
 13 17  1  0  0  0  0
 14 13  2  0  0  0  0
 15 11  1  0  0  0  0
 15 14  1  0  0  0  0
 18 14  1  0  0  0  0
 19 20  2  0  0  0  0
 21 26  1  0  0  0  0
 22 23  1  0  0  0  0
 22 21  2  0  0  0  0
 23 24  2  0  0  0  0
 24 25  1  0  0  0  0
 25 19  1  0  0  0  0
 26 25  2  0  0  0  0
 27 21  1  0  0  0  0
 28 22  1  0  0  0  0
 29 30  1  0  0  0  0
 29 23  1  0  0  0  0
 30 31  1  0  0  0  0
 32 33  1  0  0  0  0
 32 30  2  0  0  0  0
 34 32  1  0  0  0  0
 35 34  2  0  0  0  0
 35 36  1  0  0  0  0
 36 29  2  0  0  0  0
M  END
>  <minimizedAffinity>
-6.26032734

$$$$

 OpenBabel03242513193D

 36 39  0  0  0  0  0  0  0  0999 V2000
   39.4050   27.5120   40.3800 Cl  0  0  0  0  0  0  0  0  0  0  0  0
   38.3870   27.6400   41.8180 C   0  0  0  0  0  0  0  0  0  0  0  0
   38.2840   28.8450   42.4790 C   0  0  0  0  0  0  0  0  0  0  0  0
   37.4830   28.9030   43.5780 C   0  0  0  0  0  0  0  0  0  0  0  0
   36.7980   27.7920   44.0120 C   0  0  0  0  0  0  0  0  0  0  0  0
   36.9030   26.5810   43.3500 C   0  0  0  0  0  0  0  0  0  0  0  0
   37.7210   26.5250   42.2300 C   0  0  0  0  0  0  0  0  0  0  0  0
   37.4230   29.8690   44.0750 H   0  0  0  0  0  0  0  0  0  0  0  0
   36.1850   27.9270   44.8920 H   0  0  0  0  0  0  0  0  0  0  0  0
   36.3530   25.7570   43.7290 H   0  0  0  0  0  0  0  0  0  0  0  0
   37.7670   25.2060   41.6070 C   0  0  0  0  0  0  0  0  0  0  0  0
   36.7580   24.4830   40.9880 C   0  0  0  0  0  0  0  0  0  0  0  0
   37.2070   23.2640   40.5210 C   0  0  0  0  0  0  0  0  0  0  0  0
   38.5400   23.2980   40.8940 C   0  0  0  0  0  0  0  0  0  0  0  0
   38.7960   24.4180   41.5020 O   0  0  0  0  0  0  0  0  0  0  0  0
   35.7260   24.8620   40.8950 H   0  0  0  0  0  0  0  0  0  0  0  0
   36.6530   22.4980   40.0030 H   0  0  0  0  0  0  0  0  0  0  0  0
   39.2720   22.4960   40.7020 H   0  0  0  0  0  0  0  0  0  0  0  0
   39.0420   29.9890   41.9750 C   0  0  0  0  0  0  0  0  0  0  0  0
   40.1630   30.2120   42.4810 O   0  0  0  0  0  0  0  0  0  0  0  0
   38.1220   32.9530   40.0930 C   0  0  0  0  0  0  0  0  0  0  0  0
   37.4490   32.4920   38.9540 C   0  0  0  0  0  0  0  0  0  0  0  0
   37.3330   31.1220   38.8740 C   0  0  0  0  0  0  0  0  0  0  0  0
   37.8540   30.3320   39.8590 N   0  0  0  0  0  0  0  0  0  0  0  0
   38.4860   30.8210   40.9230 C   0  0  0  0  0  0  0  0  0  0  0  0
   38.6130   32.1450   41.0270 N   0  0  0  0  0  0  0  0  0  0  0  0
   38.2170   34.0410   40.1620 H   0  0  0  0  0  0  0  0  0  0  0  0
   37.0370   33.0840   38.1790 H   0  0  0  0  0  0  0  0  0  0  0  0
   36.6750   30.4020   37.7870 C   0  0  0  0  0  0  0  0  0  0  0  0
   35.5860   29.5800   37.9930 C   0  0  0  0  0  0  0  0  0  0  0  0
   35.1800   29.4420   38.9850 H   0  0  0  0  0  0  0  0  0  0  0  0
   34.9200   28.8750   37.0120 C   0  0  0  0  0  0  0  0  0  0  0  0
   34.0760   28.2450   37.2160 H   0  0  0  0  0  0  0  0  0  0  0  0
   35.3690   28.9910   35.7120 C   0  0  0  0  0  3  0  0  0  0  0  0
   36.4570   29.8140   35.5130 C   0  0  0  0  0  3  0  0  0  0  0  0
   37.0550   30.4660   36.4970 N   0  0  0  0  0  0  0  0  0  0  0  0
  1  2  1  0  0  0  0
  2  7  2  0  0  0  0
  2  3  1  0  0  0  0
  3  4  2  0  0  0  0
  4  5  1  0  0  0  0
  4  8  1  0  0  0  0
  5  9  1  0  0  0  0
  6 10  1  0  0  0  0
  6  5  2  0  0  0  0
  7  6  1  0  0  0  0
 11  7  1  0  0  0  0
 12 11  2  0  0  0  0
 13 14  2  0  0  0  0
 13 12  1  0  0  0  0
 14 15  1  0  0  0  0
 15 11  1  0  0  0  0
 16 12  1  0  0  0  0
 17 13  1  0  0  0  0
 18 14  1  0  0  0  0
 19  3  1  0  0  0  0
 19 20  2  0  0  0  0
 21 27  1  0  0  0  0
 21 26  1  0  0  0  0
 22 21  2  0  0  0  0
 23 22  1  0  0  0  0
 23 24  2  0  0  0  0
 24 25  1  0  0  0  0
 25 26  2  0  0  0  0
 25 19  1  0  0  0  0
 28 22  1  0  0  0  0
 29 30  1  0  0  0  0
 29 23  1  0  0  0  0
 30 31  1  0  0  0  0
 32 33  1  0  0  0  0
 32 30  2  0  0  0  0
 34 32  1  0  0  0  0
 35 34  2  0  0  0  0
 35 36  1  0  0  0  0
 36 29  2  0  0  0  0
M  END
>  <minimizedAffinity>
-6.21337795

$$$$
