
 OpenBabel03252504563D

 30 32  0  0  1  0  0  0  0  0999 V2000
   47.0920   34.1120   41.4550 N   0  0  0  0  0  0  0  0  0  0  0  0
   47.3590   34.1880   40.0580 C   0  0  0  0  0  0  0  0  0  0  0  0
   48.5090   35.1530   40.0090 C   0  0  0  0  0  0  0  0  0  0  0  0
   48.8920   35.5250   41.4230 C   0  0  0  0  0  0  0  0  0  0  0  0
   48.1900   34.4150   42.2390 C   0  0  2  0  0  0  0  0  0  0  0  0
   47.0070   33.7940   39.1510 H   0  0  0  0  0  0  0  0  0  0  0  0
   49.0410   35.5120   39.1180 H   0  0  0  0  0  0  0  0  0  0  0  0
   48.4510   36.5080   41.6460 H   0  0  0  0  0  0  0  0  0  0  0  0
   49.9750   35.5100   41.5440 H   0  0  0  0  0  0  0  0  0  0  0  0
   48.0480   34.8690   43.2180 H   0  0  0  0  0  0  0  0  0  0  0  0
   49.1410   33.2900   42.3750 C   0  0  0  0  0  0  0  0  0  0  0  0
   50.5000   33.3540   42.2090 C   0  0  0  0  0  0  0  0  0  0  0  0
   50.9420   34.2930   41.9590 H   0  0  0  0  0  0  0  0  0  0  0  0
   51.3520   32.2790   42.3440 C   0  0  0  0  0  0  0  0  0  0  0  0
   52.4210   32.3990   42.1970 H   0  0  0  0  0  0  0  0  0  0  0  0
   50.8480   31.0390   42.6660 C   0  0  0  0  0  0  0  0  0  0  0  0
   49.4900   30.9980   42.8280 C   0  0  0  0  0  0  0  0  0  0  0  0
   48.6880   32.0420   42.6940 N   0  0  0  0  0  0  0  0  0  0  0  0
   45.8180   33.8670   41.8650 C   0  0  0  0  0  0  0  0  0  0  0  0
   44.9750   34.0740   41.1480 H   0  0  0  0  0  0  0  0  0  0  0  0
   45.6780   32.7460   42.0260 H   0  0  0  0  0  0  0  0  0  0  0  0
   44.4950   36.1150   44.5980 C   0  0  0  0  0  0  0  0  0  0  0  0
   44.8590   35.7140   43.2870 C   0  0  0  0  0  0  0  0  0  0  0  0
   45.4220   34.4580   43.1440 C   0  0  0  0  0  0  0  0  0  0  0  0
   45.5940   33.6930   44.2470 N   0  0  0  0  0  0  0  0  0  0  0  0
   45.2390   34.0980   45.5080 C   0  0  0  0  0  0  0  0  0  0  0  0
   44.6860   35.3150   45.6750 N   0  0  0  0  0  0  0  0  0  0  0  0
   44.0630   37.0940   44.6540 H   0  0  0  0  0  0  0  0  0  0  0  0
   44.7200   36.3250   42.4210 H   0  0  0  0  0  0  0  0  0  0  0  0
   45.4310   33.3930   46.3000 H   0  0  0  0  0  0  0  0  0  0  0  0
  1 19  1  0  0  0  0
  1  5  1  0  0  0  0
  2  1  1  0  0  0  0
  3  2  2  0  0  0  0
  3  4  1  0  0  0  0
  4  9  1  0  0  0  0
  4  8  1  0  0  0  0
  4  5  1  0  0  0  0
  5 11  1  0  0  0  0
  5 10  1  1  0  0  0
  6  2  1  0  0  0  0
  7  3  1  0  0  0  0
 11 18  1  0  0  0  0
 12 14  1  0  0  0  0
 12 11  2  0  0  0  0
 13 12  1  0  0  0  0
 14 16  2  0  0  0  0
 15 14  1  0  0  0  0
 16 17  1  0  0  0  0
 18 17  2  0  0  0  0
 19 21  1  0  0  0  0
 19 24  1  0  0  0  0
 20 19  1  0  0  0  0
 22 28  1  0  0  0  0
 22 27  1  0  0  0  0
 23 22  2  0  0  0  0
 24 23  1  0  0  0  0
 24 25  2  0  0  0  0
 25 26  1  0  0  0  0
 26 27  2  0  0  0  0
 26 30  1  0  0  0  0
 29 23  1  0  0  0  0
M  END
>  <minimizedAffinity>
-4.98278427

>  <minimizedRMSD>
1.1280514

$$$$
