
 OpenBabel03252507073D

 23 24  0  0  0  0  0  0  0  0999 V2000
   44.6610   35.5330   44.7950 C   0  0  0  0  0  0  0  0  0  0  0  0
   45.2220   35.7350   43.5230 C   0  0  0  0  0  0  0  0  0  0  0  0
   46.2310   34.8560   43.1170 C   0  0  0  0  0  0  0  0  0  0  0  0
   46.6050   33.8680   43.9670 N   0  0  0  0  0  0  0  0  0  0  0  0
   46.0440   33.6980   45.1870 C   0  0  0  0  0  0  0  0  0  0  0  0
   45.0780   34.5310   45.5910 N   0  0  0  0  0  0  0  0  0  0  0  0
   43.8850   36.2530   45.0420 H   0  0  0  0  0  0  0  0  0  0  0  0
   44.8860   36.5460   42.8800 H   0  0  0  0  0  0  0  0  0  0  0  0
   46.5000   32.6100   46.0470 C   0  0  0  0  0  0  0  0  0  0  0  0
   46.3750   31.3030   45.6300 C   0  0  0  0  0  0  0  0  0  0  0  0
   45.9350   31.0840   44.6550 H   0  0  0  0  0  0  0  0  0  0  0  0
   46.7760   30.2330   46.3750 C   0  0  0  0  0  0  0  0  0  0  0  0
   46.6600   29.2090   46.0100 H   0  0  0  0  0  0  0  0  0  0  0  0
   47.3320   30.4840   47.6060 C   0  0  0  0  0  3  0  0  0  0  0  0
   47.4610   31.8040   48.0340 C   0  0  0  0  0  3  0  0  0  0  0  0
   47.0470   32.8390   47.2570 N   0  0  0  0  0  0  0  0  0  0  0  0
   46.7850   35.0530   41.8670 O   0  0  0  0  0  0  0  0  0  0  0  0
   48.5700   33.2960   41.0180 O   0  0  0  0  0  0  0  0  0  0  0  0
   48.4350   34.6940   41.6020 P   0  0  0  0  0  0  0  0  0  0  0  0
   49.0820   35.8590   40.5980 O   0  0  0  0  0  0  0  0  0  0  0  0
   49.1500   35.4800   39.6730 H   0  0  0  0  0  0  0  0  0  0  0  0
   49.1900   34.6980   43.1340 O   0  0  0  0  0  0  0  0  0  0  0  0
   49.2130   35.6510   43.4090 H   0  0  0  0  0  0  0  0  0  0  0  0
  1  7  1  0  0  0  0
  1  6  1  0  0  0  0
  2  1  2  0  0  0  0
  3  2  1  0  0  0  0
  3  4  2  0  0  0  0
  4  5  1  0  0  0  0
  5  6  2  0  0  0  0
  5  9  1  0  0  0  0
  8  2  1  0  0  0  0
  9 16  1  0  0  0  0
 10  9  2  0  0  0  0
 10 12  1  0  0  0  0
 11 10  1  0  0  0  0
 12 14  2  0  0  0  0
 13 12  1  0  0  0  0
 14 15  1  0  0  0  0
 16 15  2  0  0  0  0
 17  3  1  0  0  0  0
 18 19  2  0  0  0  0
 19 17  1  0  0  0  0
 19 22  1  0  0  0  0
 20 19  1  0  0  0  0
 21 20  1  0  0  0  0
 22 23  1  0  0  0  0
M  END
>  <minimizedAffinity>
-5.44203472

>  <minimizedRMSD>
0.578397512

$$$$
