
 OpenBabel03242518223D

 38 41  0  0  0  0  0  0  0  0999 V2000
   39.7500   30.7320   42.0410 C   0  0  0  0  0  0  0  0  0  0  0  0
   40.8310   30.6390   42.2690 H   0  0  0  0  0  0  0  0  0  0  0  0
   39.3470   31.5260   42.6710 H   0  0  0  0  0  0  0  0  0  0  0  0
   39.0660   29.4330   42.3270 C   0  0  0  0  0  0  0  0  0  0  0  0
   38.1770   29.2530   43.3700 C   0  0  0  0  0  0  0  0  0  0  0  0
   37.7440   27.9430   43.3350 C   0  0  0  0  0  0  0  0  0  0  0  0
   38.4110   27.3830   42.2440 C   0  0  0  0  0  0  0  0  0  0  0  0
   39.1430   28.2890   41.7230 O   0  0  0  0  0  0  0  0  0  0  0  0
   37.8240   29.9620   44.1300 H   0  0  0  0  0  0  0  0  0  0  0  0
   37.0360   27.4440   44.0050 H   0  0  0  0  0  0  0  0  0  0  0  0
   38.2440   25.9980   41.8390 C   0  0  0  0  0  0  0  0  0  0  0  0
   36.9710   25.4550   41.7590 C   0  0  0  0  0  0  0  0  0  0  0  0
   36.7010   24.1450   41.3860 C   0  0  0  0  0  0  0  0  0  0  0  0
   37.8500   23.4160   41.0970 C   0  0  0  0  0  0  0  0  0  0  0  0
   39.1130   23.9170   41.1650 C   0  0  0  0  0  0  0  0  0  0  0  0
   39.2780   25.2020   41.5370 N   0  0  0  0  0  0  0  0  0  0  0  0
   36.1330   26.0990   42.0030 H   0  0  0  0  0  0  0  0  0  0  0  0
   35.6910   23.7640   41.3360 H   0  0  0  0  0  0  0  0  0  0  0  0
   37.7270   22.3790   40.7960 H   0  0  0  0  0  0  0  0  0  0  0  0
   39.9810   23.2890   40.9240 H   0  0  0  0  0  0  0  0  0  0  0  0
   40.2470   32.3960   38.8130 C   0  0  0  0  0  0  0  0  0  0  0  0
   39.2250   31.8610   38.0090 C   0  0  0  0  0  0  0  0  0  0  0  0
   38.3900   30.9400   38.5920 C   0  0  0  0  0  0  0  0  0  0  0  0
   38.5900   30.5970   39.9000 N   0  0  0  0  0  0  0  0  0  0  0  0
   39.5760   31.1360   40.6250 C   0  0  0  0  0  0  0  0  0  0  0  0
   40.4060   32.0390   40.0740 N   0  0  0  0  0  0  0  0  0  0  0  0
   40.9350   33.1300   38.3920 H   0  0  0  0  0  0  0  0  0  0  0  0
   37.2920   30.2890   37.9200 C   0  0  0  0  0  0  0  0  0  0  0  0
   36.0790   29.9140   38.4140 C   0  0  0  0  0  0  0  0  0  0  0  0
   35.8680   30.1110   39.4410 H   0  0  0  0  0  0  0  0  0  0  0  0
   35.0610   29.2940   37.7290 C   0  0  0  0  0  0  0  0  0  0  0  0
   34.1290   29.0330   38.2010 H   0  0  0  0  0  0  0  0  0  0  0  0
   35.2390   29.0000   36.3990 C   0  0  0  0  0  3  0  0  0  0  0  0
   36.4610   29.3710   35.8810 C   0  0  0  0  0  3  0  0  0  0  0  0
   37.3870   29.9680   36.6180 N   0  0  0  0  0  0  0  0  0  0  0  0
   39.1200   32.2920   36.6810 N   0  0  0  0  0  0  0  0  0  0  0  0
   39.7300   31.5800   36.2450 H   0  0  0  0  0  0  0  0  0  0  0  0
   38.4850   33.1430   36.6380 H   0  0  0  0  0  0  0  0  0  0  0  0
  1  2  1  0  0  0  0
  1  4  1  0  0  0  0
  1  3  1  0  0  0  0
  4  5  2  0  0  0  0
  5  9  1  0  0  0  0
  6  5  1  0  0  0  0
  6 10  1  0  0  0  0
  7  6  2  0  0  0  0
  8  7  1  0  0  0  0
  8  4  1  0  0  0  0
 11  7  1  0  0  0  0
 12 11  1  0  0  0  0
 12 17  1  0  0  0  0
 13 12  2  0  0  0  0
 14 15  2  0  0  0  0
 14 13  1  0  0  0  0
 15 16  1  0  0  0  0
 16 11  2  0  0  0  0
 18 13  1  0  0  0  0
 19 14  1  0  0  0  0
 20 15  1  0  0  0  0
 21 26  1  0  0  0  0
 22 23  1  0  0  0  0
 22 21  2  0  0  0  0
 23 24  2  0  0  0  0
 24 25  1  0  0  0  0
 25  1  1  0  0  0  0
 26 25  2  0  0  0  0
 27 21  1  0  0  0  0
 28 29  1  0  0  0  0
 28 23  1  0  0  0  0
 29 30  1  0  0  0  0
 31 32  1  0  0  0  0
 31 29  2  0  0  0  0
 33 31  1  0  0  0  0
 34 33  2  0  0  0  0
 34 35  1  0  0  0  0
 35 28  2  0  0  0  0
 36 22  1  0  0  0  0
 37 36  1  0  0  0  0
 38 36  1  0  0  0  0
M  END
>  <minimizedAffinity>
-6.23349333

$$$$

 OpenBabel03242518223D

 38 41  0  0  0  0  0  0  0  0999 V2000
   36.6140   30.7240   41.3310 C   0  0  0  0  0  0  0  0  0  0  0  0
   36.7490   31.4750   42.1350 H   0  0  0  0  0  0  0  0  0  0  0  0
   35.5530   30.7030   41.0760 H   0  0  0  0  0  0  0  0  0  0  0  0
   37.0670   29.3850   41.8170 C   0  0  0  0  0  0  0  0  0  0  0  0
   37.6200   29.1730   43.0660 C   0  0  0  0  0  0  0  0  0  0  0  0
   37.9180   27.8300   43.1740 C   0  0  0  0  0  0  0  0  0  0  0  0
   37.5190   27.2830   41.9530 C   0  0  0  0  0  0  0  0  0  0  0  0
   37.0460   28.2260   41.2350 O   0  0  0  0  0  0  0  0  0  0  0  0
   37.8220   29.8810   43.8800 H   0  0  0  0  0  0  0  0  0  0  0  0
   38.3660   27.3000   44.0210 H   0  0  0  0  0  0  0  0  0  0  0  0
   37.6530   25.8720   41.6360 C   0  0  0  0  0  0  0  0  0  0  0  0
   36.7600   25.2760   40.7590 C   0  0  0  0  0  0  0  0  0  0  0  0
   36.7980   23.9390   40.3920 C   0  0  0  0  0  0  0  0  0  0  0  0
   37.8360   23.2390   40.9980 C   0  0  0  0  0  0  0  0  0  0  0  0
   38.7310   23.7910   41.8620 C   0  0  0  0  0  0  0  0  0  0  0  0
   38.6150   25.1010   42.1600 N   0  0  0  0  0  0  0  0  0  0  0  0
   35.9810   25.9000   40.3340 H   0  0  0  0  0  0  0  0  0  0  0  0
   36.0790   23.5160   39.7030 H   0  0  0  0  0  0  0  0  0  0  0  0
   37.9370   22.1830   40.7630 H   0  0  0  0  0  0  0  0  0  0  0  0
   39.5300   23.1850   42.3080 H   0  0  0  0  0  0  0  0  0  0  0  0
   37.5210   31.3400   37.8330 C   0  0  0  0  0  0  0  0  0  0  0  0
   38.7890   31.9410   37.9260 C   0  0  0  0  0  0  0  0  0  0  0  0
   39.3030   32.1220   39.1860 C   0  0  0  0  0  0  0  0  0  0  0  0
   38.5710   31.7160   40.2660 N   0  0  0  0  0  0  0  0  0  0  0  0
   37.3680   31.1480   40.1270 C   0  0  0  0  0  0  0  0  0  0  0  0
   36.8450   30.9620   38.9020 N   0  0  0  0  0  0  0  0  0  0  0  0
   37.0720   31.1780   36.8530 H   0  0  0  0  0  0  0  0  0  0  0  0
   40.5850   32.7190   39.4700 C   0  0  0  0  0  0  0  0  0  0  0  0
   40.9240   33.6180   40.4370 C   0  0  0  0  0  0  0  0  0  0  0  0
   40.1610   33.9550   41.1030 H   0  0  0  0  0  0  0  0  0  0  0  0
   42.1660   34.1590   40.6670 C   0  0  0  0  0  0  0  0  0  0  0  0
   42.3440   34.8660   41.4590 H   0  0  0  0  0  0  0  0  0  0  0  0
   43.2130   33.7840   39.8600 C   0  0  0  0  0  3  0  0  0  0  0  0
   42.8900   32.8760   38.8760 C   0  0  0  0  0  3  0  0  0  0  0  0
   41.6600   32.4040   38.7260 N   0  0  0  0  0  0  0  0  0  0  0  0
   39.4440   32.3120   36.7460 N   0  0  0  0  0  0  0  0  0  0  0  0
   39.0790   33.2770   36.6710 H   0  0  0  0  0  0  0  0  0  0  0  0
   40.0340   31.5000   36.4010 H   0  0  0  0  0  0  0  0  0  0  0  0
  1  4  1  0  0  0  0
  1  2  1  0  0  0  0
  3  1  1  0  0  0  0
  4  5  2  0  0  0  0
  5  6  1  0  0  0  0
  5  9  1  0  0  0  0
  6 10  1  0  0  0  0
  7  6  2  0  0  0  0
  8  4  1  0  0  0  0
  8  7  1  0  0  0  0
 11  7  1  0  0  0  0
 11 16  1  0  0  0  0
 12 11  2  0  0  0  0
 13 12  1  0  0  0  0
 13 14  2  0  0  0  0
 14 15  1  0  0  0  0
 15 16  2  0  0  0  0
 15 20  1  0  0  0  0
 17 12  1  0  0  0  0
 18 13  1  0  0  0  0
 19 14  1  0  0  0  0
 21 22  2  0  0  0  0
 21 26  1  0  0  0  0
 22 23  1  0  0  0  0
 23 28  1  0  0  0  0
 23 24  2  0  0  0  0
 25 24  1  0  0  0  0
 25  1  1  0  0  0  0
 26 25  2  0  0  0  0
 27 21  1  0  0  0  0
 28 29  1  0  0  0  0
 29 31  2  0  0  0  0
 29 30  1  0  0  0  0
 31 32  1  0  0  0  0
 33 31  1  0  0  0  0
 34 33  2  0  0  0  0
 35 34  1  0  0  0  0
 35 28  2  0  0  0  0
 36 22  1  0  0  0  0
 37 36  1  0  0  0  0
 38 36  1  0  0  0  0
M  END
>  <minimizedAffinity>
-6.11391687

$$$$

 OpenBabel03242518223D

 38 41  0  0  0  0  0  0  0  0999 V2000
   37.4120   30.5560   37.3170 C   0  0  0  0  0  0  0  0  0  0  0  0
   36.6860   31.0500   36.6400 H   0  0  0  0  0  0  0  0  0  0  0  0
   38.2940   30.3030   36.7250 H   0  0  0  0  0  0  0  0  0  0  0  0
   36.7960   29.3230   37.8970 C   0  0  0  0  0  0  0  0  0  0  0  0
   35.5500   28.8490   37.5320 C   0  0  0  0  0  0  0  0  0  0  0  0
   35.3040   27.7040   38.2610 C   0  0  0  0  0  0  0  0  0  0  0  0
   36.4430   27.5390   39.0520 C   0  0  0  0  0  0  0  0  0  0  0  0
   37.2440   28.4970   38.7900 O   0  0  0  0  0  0  0  0  0  0  0  0
   34.8260   29.2440   36.8080 H   0  0  0  0  0  0  0  0  0  0  0  0
   34.4190   27.0600   38.2350 H   0  0  0  0  0  0  0  0  0  0  0  0
   36.6070   26.4400   39.9860 C   0  0  0  0  0  0  0  0  0  0  0  0
   36.9500   26.7010   41.3030 C   0  0  0  0  0  0  0  0  0  0  0  0
   37.1330   25.7260   42.2730 C   0  0  0  0  0  0  0  0  0  0  0  0
   36.9370   24.4360   41.7890 C   0  0  0  0  0  0  0  0  0  0  0  0
   36.5990   24.1430   40.5040 C   0  0  0  0  0  0  0  0  0  0  0  0
   36.4420   25.1580   39.6310 N   0  0  0  0  0  0  0  0  0  0  0  0
   37.0830   27.7390   41.5910 H   0  0  0  0  0  0  0  0  0  0  0  0
   37.4010   25.9770   43.2900 H   0  0  0  0  0  0  0  0  0  0  0  0
   37.0610   23.6120   42.4860 H   0  0  0  0  0  0  0  0  0  0  0  0
   36.4580   23.1030   40.1830 H   0  0  0  0  0  0  0  0  0  0  0  0
   37.3240   32.7350   40.2630 C   0  0  0  0  0  0  0  0  0  0  0  0
   38.6250   33.2650   40.3160 C   0  0  0  0  0  0  0  0  0  0  0  0
   39.5030   32.8620   39.3410 C   0  0  0  0  0  0  0  0  0  0  0  0
   39.0760   31.9830   38.3850 N   0  0  0  0  0  0  0  0  0  0  0  0
   37.8260   31.5060   38.3760 C   0  0  0  0  0  0  0  0  0  0  0  0
   36.9500   31.8870   39.3220 N   0  0  0  0  0  0  0  0  0  0  0  0
   36.5920   33.0250   41.0170 H   0  0  0  0  0  0  0  0  0  0  0  0
   40.8730   33.3020   39.2390 C   0  0  0  0  0  0  0  0  0  0  0  0
   41.5940   33.6300   38.1310 C   0  0  0  0  0  0  0  0  0  0  0  0
   41.1160   33.5670   37.1790 H   0  0  0  0  0  0  0  0  0  0  0  0
   42.9030   34.0460   38.0870 C   0  0  0  0  0  0  0  0  0  0  0  0
   43.3970   34.2870   37.1600 H   0  0  0  0  0  0  0  0  0  0  0  0
   43.6030   34.1600   39.2640 C   0  0  0  0  0  3  0  0  0  0  0  0
   42.8910   33.8320   40.3970 C   0  0  0  0  0  3  0  0  0  0  0  0
   41.6250   33.4390   40.3450 N   0  0  0  0  0  0  0  0  0  0  0  0
   38.9430   34.1610   41.3430 N   0  0  0  0  0  0  0  0  0  0  0  0
   39.2790   33.4740   42.0390 H   0  0  0  0  0  0  0  0  0  0  0  0
   38.7280   35.1510   41.0250 H   0  0  0  0  0  0  0  0  0  0  0  0
  1  4  1  0  0  0  0
  1 25  1  0  0  0  0
  2  1  1  0  0  0  0
  3  1  1  0  0  0  0
  4  8  1  0  0  0  0
  5  4  2  0  0  0  0
  5  6  1  0  0  0  0
  6  7  2  0  0  0  0
  7 11  1  0  0  0  0
  8  7  1  0  0  0  0
  9  5  1  0  0  0  0
 10  6  1  0  0  0  0
 11 12  1  0  0  0  0
 12 17  1  0  0  0  0
 12 13  2  0  0  0  0
 13 18  1  0  0  0  0
 14 13  1  0  0  0  0
 14 19  1  0  0  0  0
 15 14  2  0  0  0  0
 16 11  2  0  0  0  0
 16 15  1  0  0  0  0
 20 15  1  0  0  0  0
 21 22  1  0  0  0  0
 21 27  1  0  0  0  0
 22 36  1  0  0  0  0
 23 22  2  0  0  0  0
 24 23  1  0  0  0  0
 25 24  2  0  0  0  0
 25 26  1  0  0  0  0
 26 21  2  0  0  0  0
 28 23  1  0  0  0  0
 28 35  1  0  0  0  0
 29 28  2  0  0  0  0
 30 29  1  0  0  0  0
 31 29  1  0  0  0  0
 31 33  2  0  0  0  0
 32 31  1  0  0  0  0
 33 34  1  0  0  0  0
 35 34  2  0  0  0  0
 36 37  1  0  0  0  0
 38 36  1  0  0  0  0
M  END
>  <minimizedAffinity>
-6.02166271

$$$$

 OpenBabel03242518223D

 38 41  0  0  0  0  0  0  0  0999 V2000
   38.6360   27.8620   43.6500 C   0  0  0  0  0  0  0  0  0  0  0  0
   39.6460   28.1810   43.9800 H   0  0  0  0  0  0  0  0  0  0  0  0
   37.9930   27.8460   44.5310 H   0  0  0  0  0  0  0  0  0  0  0  0
   38.7190   26.5040   43.0320 C   0  0  0  0  0  0  0  0  0  0  0  0
   39.7270   25.6000   43.3080 C   0  0  0  0  0  0  0  0  0  0  0  0
   39.4870   24.4600   42.5670 C   0  0  0  0  0  0  0  0  0  0  0  0
   38.3150   24.7400   41.8620 C   0  0  0  0  0  0  0  0  0  0  0  0
   37.9390   25.9180   42.1770 O   0  0  0  0  0  0  0  0  0  0  0  0
   40.5930   25.6870   43.9760 H   0  0  0  0  0  0  0  0  0  0  0  0
   40.0760   23.5370   42.5320 H   0  0  0  0  0  0  0  0  0  0  0  0
   37.6970   23.7980   40.9470 C   0  0  0  0  0  0  0  0  0  0  0  0
   36.4150   24.0350   40.4770 C   0  0  0  0  0  0  0  0  0  0  0  0
   35.7330   23.1990   39.6040 C   0  0  0  0  0  0  0  0  0  0  0  0
   36.4720   22.0780   39.2390 C   0  0  0  0  0  0  0  0  0  0  0  0
   37.7320   21.8140   39.6800 C   0  0  0  0  0  0  0  0  0  0  0  0
   38.3140   22.6850   40.5270 N   0  0  0  0  0  0  0  0  0  0  0  0
   35.9140   24.9360   40.8160 H   0  0  0  0  0  0  0  0  0  0  0  0
   34.7330   23.4250   39.2630 H   0  0  0  0  0  0  0  0  0  0  0  0
   36.0100   21.3700   38.5560 H   0  0  0  0  0  0  0  0  0  0  0  0
   38.2640   20.9100   39.3540 H   0  0  0  0  0  0  0  0  0  0  0  0
   36.3430   29.6380   41.4090 C   0  0  0  0  0  0  0  0  0  0  0  0
   37.1130   30.7180   40.9420 C   0  0  0  0  0  0  0  0  0  0  0  0
   38.4010   30.8130   41.4080 C   0  0  0  0  0  0  0  0  0  0  0  0
   38.8610   29.8700   42.2850 N   0  0  0  0  0  0  0  0  0  0  0  0
   38.0890   28.8590   42.7000 C   0  0  0  0  0  0  0  0  0  0  0  0
   36.8250   28.7470   42.2570 N   0  0  0  0  0  0  0  0  0  0  0  0
   35.3140   29.5230   41.0670 H   0  0  0  0  0  0  0  0  0  0  0  0
   39.3320   31.8510   41.0380 C   0  0  0  0  0  0  0  0  0  0  0  0
   40.6730   31.7680   40.8130 C   0  0  0  0  0  0  0  0  0  0  0  0
   41.1440   30.8160   40.9140 H   0  0  0  0  0  0  0  0  0  0  0  0
   41.5190   32.7910   40.4610 C   0  0  0  0  0  0  0  0  0  0  0  0
   42.5730   32.6340   40.3010 H   0  0  0  0  0  0  0  0  0  0  0  0
   41.0040   34.0550   40.3060 C   0  0  0  0  0  3  0  0  0  0  0  0
   39.6480   34.1600   40.5300 C   0  0  0  0  0  3  0  0  0  0  0  0
   38.9060   33.1140   40.8670 N   0  0  0  0  0  0  0  0  0  0  0  0
   36.5320   31.6180   40.0420 N   0  0  0  0  0  0  0  0  0  0  0  0
   36.1500   32.2890   40.7300 H   0  0  0  0  0  0  0  0  0  0  0  0
   36.6990   31.2800   39.0500 H   0  0  0  0  0  0  0  0  0  0  0  0
  1  2  1  0  0  0  0
  1  3  1  0  0  0  0
  4  5  2  0  0  0  0
  4  1  1  0  0  0  0
  5  9  1  0  0  0  0
  6  5  1  0  0  0  0
  7  8  1  0  0  0  0
  7  6  2  0  0  0  0
  8  4  1  0  0  0  0
 10  6  1  0  0  0  0
 11  7  1  0  0  0  0
 12 17  1  0  0  0  0
 12 11  2  0  0  0  0
 13 12  1  0  0  0  0
 14 13  2  0  0  0  0
 14 15  1  0  0  0  0
 15 16  2  0  0  0  0
 16 11  1  0  0  0  0
 18 13  1  0  0  0  0
 19 14  1  0  0  0  0
 20 15  1  0  0  0  0
 21 26  1  0  0  0  0
 22 23  1  0  0  0  0
 22 21  2  0  0  0  0
 23 24  2  0  0  0  0
 24 25  1  0  0  0  0
 25  1  1  0  0  0  0
 26 25  2  0  0  0  0
 27 21  1  0  0  0  0
 28 23  1  0  0  0  0
 29 30  1  0  0  0  0
 29 28  2  0  0  0  0
 31 29  1  0  0  0  0
 32 31  1  0  0  0  0
 33 31  2  0  0  0  0
 33 34  1  0  0  0  0
 34 35  2  0  0  0  0
 35 28  1  0  0  0  0
 36 37  1  0  0  0  0
 36 22  1  0  0  0  0
 38 36  1  0  0  0  0
M  END
>  <minimizedAffinity>
-6.01257658

$$$$

 OpenBabel03242518223D

 38 41  0  0  0  0  0  0  0  0999 V2000
   39.6200   30.8570   42.0880 C   0  0  0  0  0  0  0  0  0  0  0  0
   40.6750   30.8290   42.4290 H   0  0  0  0  0  0  0  0  0  0  0  0
   39.1100   31.6330   42.6600 H   0  0  0  0  0  0  0  0  0  0  0  0
   38.9840   29.5240   42.3240 C   0  0  0  0  0  0  0  0  0  0  0  0
   38.1070   29.2700   43.3610 C   0  0  0  0  0  0  0  0  0  0  0  0
   37.7210   27.9480   43.2740 C   0  0  0  0  0  0  0  0  0  0  0  0
   38.4030   27.4560   42.1590 C   0  0  0  0  0  0  0  0  0  0  0  0
   39.0990   28.4090   41.6730 O   0  0  0  0  0  0  0  0  0  0  0  0
   37.7320   29.9340   44.1510 H   0  0  0  0  0  0  0  0  0  0  0  0
   37.0350   27.3960   43.9250 H   0  0  0  0  0  0  0  0  0  0  0  0
   38.2830   26.0840   41.6990 C   0  0  0  0  0  0  0  0  0  0  0  0
   37.1140   25.3800   41.9350 C   0  0  0  0  0  0  0  0  0  0  0  0
   36.8970   24.0660   41.5420 C   0  0  0  0  0  0  0  0  0  0  0  0
   37.9860   23.5140   40.8750 C   0  0  0  0  0  0  0  0  0  0  0  0
   39.1480   24.1760   40.6250 C   0  0  0  0  0  0  0  0  0  0  0  0
   39.2670   25.4510   41.0460 N   0  0  0  0  0  0  0  0  0  0  0  0
   36.3160   25.8910   42.4640 H   0  0  0  0  0  0  0  0  0  0  0  0
   35.9670   23.5550   41.7480 H   0  0  0  0  0  0  0  0  0  0  0  0
   37.8990   22.4860   40.5320 H   0  0  0  0  0  0  0  0  0  0  0  0
   39.9730   23.6840   40.0930 H   0  0  0  0  0  0  0  0  0  0  0  0
   38.3830   31.9840   38.8270 C   0  0  0  0  0  0  0  0  0  0  0  0
   39.5230   31.9240   38.0070 C   0  0  0  0  0  0  0  0  0  0  0  0
   40.6900   31.4980   38.5910 C   0  0  0  0  0  0  0  0  0  0  0  0
   40.6850   31.1610   39.9160 N   0  0  0  0  0  0  0  0  0  0  0  0
   39.5730   31.2350   40.6560 C   0  0  0  0  0  0  0  0  0  0  0  0
   38.4190   31.6490   40.1040 N   0  0  0  0  0  0  0  0  0  0  0  0
   37.4330   32.3180   38.4070 H   0  0  0  0  0  0  0  0  0  0  0  0
   41.9520   31.3740   37.9040 C   0  0  0  0  0  0  0  0  0  0  0  0
   43.1590   31.9280   38.2090 C   0  0  0  0  0  0  0  0  0  0  0  0
   43.2260   32.5510   39.0730 H   0  0  0  0  0  0  0  0  0  0  0  0
   44.3380   31.7770   37.5190 C   0  0  0  0  0  0  0  0  0  0  0  0
   45.2510   32.2550   37.8340 H   0  0  0  0  0  0  0  0  0  0  0  0
   44.3520   30.9930   36.3920 C   0  0  0  0  0  3  0  0  0  0  0  0
   43.1400   30.4230   36.0660 C   0  0  0  0  0  3  0  0  0  0  0  0
   42.0490   30.6230   36.7930 N   0  0  0  0  0  0  0  0  0  0  0  0
   39.4030   32.2930   36.6620 N   0  0  0  0  0  0  0  0  0  0  0  0
   39.6250   33.2970   36.7640 H   0  0  0  0  0  0  0  0  0  0  0  0
   39.1420   31.4400   36.0860 H   0  0  0  0  0  0  0  0  0  0  0  0
  1  4  1  0  0  0  0
  1  2  1  0  0  0  0
  1  3  1  0  0  0  0
  4  5  2  0  0  0  0
  5  9  1  0  0  0  0
  6  5  1  0  0  0  0
  6 10  1  0  0  0  0
  7  6  2  0  0  0  0
  8  7  1  0  0  0  0
  8  4  1  0  0  0  0
 11 12  1  0  0  0  0
 11  7  1  0  0  0  0
 12 17  1  0  0  0  0
 13 18  1  0  0  0  0
 13 12  2  0  0  0  0
 14 13  1  0  0  0  0
 15 14  2  0  0  0  0
 15 16  1  0  0  0  0
 16 11  2  0  0  0  0
 19 14  1  0  0  0  0
 20 15  1  0  0  0  0
 21 26  1  0  0  0  0
 22 23  1  0  0  0  0
 22 21  2  0  0  0  0
 23 24  2  0  0  0  0
 24 25  1  0  0  0  0
 25  1  1  0  0  0  0
 26 25  2  0  0  0  0
 27 21  1  0  0  0  0
 28 29  1  0  0  0  0
 28 23  1  0  0  0  0
 29 30  1  0  0  0  0
 31 32  1  0  0  0  0
 31 29  2  0  0  0  0
 33 31  1  0  0  0  0
 34 33  2  0  0  0  0
 34 35  1  0  0  0  0
 35 28  2  0  0  0  0
 36 37  1  0  0  0  0
 36 22  1  0  0  0  0
 38 36  1  0  0  0  0
M  END
>  <minimizedAffinity>
-5.9861722

$$$$

 OpenBabel03242518223D

 38 41  0  0  0  0  0  0  0  0999 V2000
   35.9080   28.0450   38.8070 C   0  0  0  0  0  0  0  0  0  0  0  0
   34.8220   28.2100   38.9590 H   0  0  0  0  0  0  0  0  0  0  0  0
   36.0220   27.1410   38.2080 H   0  0  0  0  0  0  0  0  0  0  0  0
   36.5790   27.8870   40.1340 C   0  0  0  0  0  0  0  0  0  0  0  0
   35.9880   28.2340   41.3340 C   0  0  0  0  0  0  0  0  0  0  0  0
   36.8870   27.9550   42.3440 C   0  0  0  0  0  0  0  0  0  0  0  0
   38.0060   27.4410   41.6850 C   0  0  0  0  0  0  0  0  0  0  0  0
   37.7560   27.4340   40.4340 O   0  0  0  0  0  0  0  0  0  0  0  0
   34.9970   28.6580   41.5390 H   0  0  0  0  0  0  0  0  0  0  0  0
   36.7630   28.1000   43.4220 H   0  0  0  0  0  0  0  0  0  0  0  0
   39.2060   27.0110   42.3800 C   0  0  0  0  0  0  0  0  0  0  0  0
   39.4230   25.6610   42.6060 C   0  0  0  0  0  0  0  0  0  0  0  0
   40.5320   25.1450   43.2610 C   0  0  0  0  0  0  0  0  0  0  0  0
   41.4220   26.1300   43.6780 C   0  0  0  0  0  0  0  0  0  0  0  0
   41.2410   27.4630   43.4730 C   0  0  0  0  0  0  0  0  0  0  0  0
   40.1320   27.8710   42.8260 N   0  0  0  0  0  0  0  0  0  0  0  0
   38.6740   24.9640   42.2450 H   0  0  0  0  0  0  0  0  0  0  0  0
   40.6610   24.0830   43.4150 H   0  0  0  0  0  0  0  0  0  0  0  0
   42.3200   25.8100   44.2010 H   0  0  0  0  0  0  0  0  0  0  0  0
   41.9820   28.1920   43.8270 H   0  0  0  0  0  0  0  0  0  0  0  0
   36.8790   30.2250   36.0250 C   0  0  0  0  0  0  0  0  0  0  0  0
   37.5420   31.2900   36.6610 C   0  0  0  0  0  0  0  0  0  0  0  0
   37.6400   31.2360   38.0290 C   0  0  0  0  0  0  0  0  0  0  0  0
   37.0990   30.1700   38.6920 N   0  0  0  0  0  0  0  0  0  0  0  0
   36.4770   29.1800   38.0420 C   0  0  0  0  0  0  0  0  0  0  0  0
   36.3690   29.2130   36.7020 N   0  0  0  0  0  0  0  0  0  0  0  0
   36.7760   30.2260   34.9400 H   0  0  0  0  0  0  0  0  0  0  0  0
   38.2840   32.2360   38.8440 C   0  0  0  0  0  0  0  0  0  0  0  0
   37.7400   33.0840   39.7610 C   0  0  0  0  0  0  0  0  0  0  0  0
   36.6880   33.0350   39.9330 H   0  0  0  0  0  0  0  0  0  0  0  0
   38.4010   34.0240   40.5160 C   0  0  0  0  0  0  0  0  0  0  0  0
   37.8870   34.6550   41.2220 H   0  0  0  0  0  0  0  0  0  0  0  0
   39.7590   34.1610   40.3650 C   0  0  0  0  0  3  0  0  0  0  0  0
   40.3290   33.3120   39.4410 C   0  0  0  0  0  3  0  0  0  0  0  0
   39.6110   32.4320   38.7550 N   0  0  0  0  0  0  0  0  0  0  0  0
   38.0580   32.3250   35.8730 N   0  0  0  0  0  0  0  0  0  0  0  0
   37.2280   32.9420   35.8780 H   0  0  0  0  0  0  0  0  0  0  0  0
   39.0530   32.0880   35.5890 H   0  0  0  0  0  0  0  0  0  0  0  0
  1  2  1  0  0  0  0
  1  4  1  0  0  0  0
  3  1  1  0  0  0  0
  4  8  1  0  0  0  0
  4  5  2  0  0  0  0
  5  9  1  0  0  0  0
  5  6  1  0  0  0  0
  6 10  1  0  0  0  0
  7  6  2  0  0  0  0
  7 11  1  0  0  0  0
  8  7  1  0  0  0  0
 11 12  2  0  0  0  0
 11 16  1  0  0  0  0
 12 13  1  0  0  0  0
 13 18  1  0  0  0  0
 13 14  2  0  0  0  0
 14 19  1  0  0  0  0
 15 14  1  0  0  0  0
 15 20  1  0  0  0  0
 16 15  2  0  0  0  0
 17 12  1  0  0  0  0
 21 22  2  0  0  0  0
 21 26  1  0  0  0  0
 22 23  1  0  0  0  0
 23 24  2  0  0  0  0
 23 28  1  0  0  0  0
 25 24  1  0  0  0  0
 25  1  1  0  0  0  0
 26 25  2  0  0  0  0
 27 21  1  0  0  0  0
 28 29  1  0  0  0  0
 29 30  1  0  0  0  0
 29 31  2  0  0  0  0
 31 32  1  0  0  0  0
 33 31  1  0  0  0  0
 34 33  2  0  0  0  0
 35 28  2  0  0  0  0
 35 34  1  0  0  0  0
 36 37  1  0  0  0  0
 36 22  1  0  0  0  0
 38 36  1  0  0  0  0
M  END
>  <minimizedAffinity>
-5.98112297

$$$$

 OpenBabel03242518223D

 38 41  0  0  0  0  0  0  0  0999 V2000
   36.6660   30.3880   41.4190 C   0  0  0  0  0  0  0  0  0  0  0  0
   36.7340   31.1470   42.2240 H   0  0  0  0  0  0  0  0  0  0  0  0
   35.6110   30.2580   41.1760 H   0  0  0  0  0  0  0  0  0  0  0  0
   37.2590   29.1010   41.8960 C   0  0  0  0  0  0  0  0  0  0  0  0
   36.5050   27.9960   42.2440 C   0  0  0  0  0  0  0  0  0  0  0  0
   37.3740   26.9970   42.6340 C   0  0  0  0  0  0  0  0  0  0  0  0
   38.6430   27.5640   42.4990 C   0  0  0  0  0  0  0  0  0  0  0  0
   38.4970   28.7590   42.0760 O   0  0  0  0  0  0  0  0  0  0  0  0
   35.4170   27.8520   42.2420 H   0  0  0  0  0  0  0  0  0  0  0  0
   37.1350   25.9840   42.9750 H   0  0  0  0  0  0  0  0  0  0  0  0
   39.8680   26.8470   42.8080 C   0  0  0  0  0  0  0  0  0  0  0  0
   40.9450   27.5280   43.3510 C   0  0  0  0  0  0  0  0  0  0  0  0
   42.1590   26.9410   43.6800 C   0  0  0  0  0  0  0  0  0  0  0  0
   42.1920   25.5770   43.4060 C   0  0  0  0  0  0  0  0  0  0  0  0
   41.1540   24.8770   42.8740 C   0  0  0  0  0  0  0  0  0  0  0  0
   40.0130   25.5340   42.5870 N   0  0  0  0  0  0  0  0  0  0  0  0
   40.8290   28.5920   43.5310 H   0  0  0  0  0  0  0  0  0  0  0  0
   42.9730   27.5130   44.1030 H   0  0  0  0  0  0  0  0  0  0  0  0
   43.1080   25.0390   43.6350 H   0  0  0  0  0  0  0  0  0  0  0  0
   41.2430   23.7990   42.6810 H   0  0  0  0  0  0  0  0  0  0  0  0
   37.4130   31.1940   37.9220 C   0  0  0  0  0  0  0  0  0  0  0  0
   38.6670   31.8240   37.9930 C   0  0  0  0  0  0  0  0  0  0  0  0
   39.2280   31.9590   39.2390 C   0  0  0  0  0  0  0  0  0  0  0  0
   38.5520   31.4820   40.3270 N   0  0  0  0  0  0  0  0  0  0  0  0
   37.3590   30.8890   40.2080 C   0  0  0  0  0  0  0  0  0  0  0  0
   36.7910   30.7460   38.9980 N   0  0  0  0  0  0  0  0  0  0  0  0
   36.9280   31.0660   36.9540 H   0  0  0  0  0  0  0  0  0  0  0  0
   40.5050   32.5770   39.5000 C   0  0  0  0  0  0  0  0  0  0  0  0
   40.8110   33.6070   40.3380 C   0  0  0  0  0  0  0  0  0  0  0  0
   40.0220   34.0490   40.9040 H   0  0  0  0  0  0  0  0  0  0  0  0
   42.0500   34.1610   40.5520 C   0  0  0  0  0  0  0  0  0  0  0  0
   42.2010   34.9780   41.2380 H   0  0  0  0  0  0  0  0  0  0  0  0
   43.1300   33.6570   39.8690 C   0  0  0  0  0  3  0  0  0  0  0  0
   42.8410   32.6150   39.0150 C   0  0  0  0  0  3  0  0  0  0  0  0
   41.6110   32.1410   38.8710 N   0  0  0  0  0  0  0  0  0  0  0  0
   39.2640   32.2690   36.8070 N   0  0  0  0  0  0  0  0  0  0  0  0
   38.8710   33.2250   36.7940 H   0  0  0  0  0  0  0  0  0  0  0  0
   39.8590   31.4900   36.4000 H   0  0  0  0  0  0  0  0  0  0  0  0
  1  4  1  0  0  0  0
  1  2  1  0  0  0  0
  3  1  1  0  0  0  0
  4  8  1  0  0  0  0
  4  5  2  0  0  0  0
  5  6  1  0  0  0  0
  6 10  1  0  0  0  0
  7  6  2  0  0  0  0
  7 11  1  0  0  0  0
  8  7  1  0  0  0  0
  9  5  1  0  0  0  0
 11 12  1  0  0  0  0
 12 17  1  0  0  0  0
 12 13  2  0  0  0  0
 13 18  1  0  0  0  0
 14 19  1  0  0  0  0
 14 13  1  0  0  0  0
 15 14  2  0  0  0  0
 16 11  2  0  0  0  0
 16 15  1  0  0  0  0
 20 15  1  0  0  0  0
 21 22  2  0  0  0  0
 21 26  1  0  0  0  0
 22 23  1  0  0  0  0
 23 28  1  0  0  0  0
 23 24  2  0  0  0  0
 25 24  1  0  0  0  0
 25  1  1  0  0  0  0
 26 25  2  0  0  0  0
 27 21  1  0  0  0  0
 28 29  1  0  0  0  0
 29 31  2  0  0  0  0
 29 30  1  0  0  0  0
 31 32  1  0  0  0  0
 33 31  1  0  0  0  0
 34 33  2  0  0  0  0
 35 34  1  0  0  0  0
 35 28  2  0  0  0  0
 36 22  1  0  0  0  0
 37 36  1  0  0  0  0
 38 36  1  0  0  0  0
M  END
>  <minimizedAffinity>
-5.91163826

$$$$

 OpenBabel03242518223D

 38 41  0  0  0  0  0  0  0  0999 V2000
   36.1500   29.0300   36.2580 C   0  0  0  0  0  0  0  0  0  0  0  0
   36.8330   28.2360   35.8940 H   0  0  0  0  0  0  0  0  0  0  0  0
   36.2250   29.8700   35.5660 H   0  0  0  0  0  0  0  0  0  0  0  0
   36.5550   29.4440   37.6360 C   0  0  0  0  0  0  0  0  0  0  0  0
   36.9600   30.7250   37.9600 C   0  0  0  0  0  0  0  0  0  0  0  0
   37.2560   30.7460   39.3080 C   0  0  0  0  0  0  0  0  0  0  0  0
   37.0100   29.4420   39.7420 C   0  0  0  0  0  0  0  0  0  0  0  0
   36.6160   28.7610   38.7370 O   0  0  0  0  0  0  0  0  0  0  0  0
   37.0560   31.6180   37.3300 H   0  0  0  0  0  0  0  0  0  0  0  0
   37.6050   31.5890   39.9130 H   0  0  0  0  0  0  0  0  0  0  0  0
   37.1950   29.0170   41.1180 C   0  0  0  0  0  0  0  0  0  0  0  0
   36.5240   27.8990   41.5880 C   0  0  0  0  0  0  0  0  0  0  0  0
   36.6280   27.4110   42.8830 C   0  0  0  0  0  0  0  0  0  0  0  0
   37.4860   28.1630   43.6790 C   0  0  0  0  0  0  0  0  0  0  0  0
   38.1610   29.2650   43.2500 C   0  0  0  0  0  0  0  0  0  0  0  0
   37.9960   29.6650   41.9740 N   0  0  0  0  0  0  0  0  0  0  0  0
   35.8750   27.3740   40.8960 H   0  0  0  0  0  0  0  0  0  0  0  0
   36.0860   26.5340   43.2070 H   0  0  0  0  0  0  0  0  0  0  0  0
   37.6240   27.8480   44.7100 H   0  0  0  0  0  0  0  0  0  0  0  0
   38.8240   29.8170   43.9290 H   0  0  0  0  0  0  0  0  0  0  0  0
   33.2540   26.8140   35.8870 C   0  0  0  0  0  0  0  0  0  0  0  0
   32.1630   27.6510   36.1810 C   0  0  0  0  0  0  0  0  0  0  0  0
   32.4460   28.9560   36.5000 C   0  0  0  0  0  0  0  0  0  0  0  0
   33.7490   29.3680   36.5150 N   0  0  0  0  0  0  0  0  0  0  0  0
   34.7540   28.5340   36.2280 C   0  0  0  0  0  0  0  0  0  0  0  0
   34.5000   27.2510   35.9130 N   0  0  0  0  0  0  0  0  0  0  0  0
   33.0770   25.7700   35.6300 H   0  0  0  0  0  0  0  0  0  0  0  0
   31.4560   29.9530   36.8270 C   0  0  0  0  0  0  0  0  0  0  0  0
   31.1010   31.0750   36.1400 C   0  0  0  0  0  0  0  0  0  0  0  0
   31.6020   31.2860   35.2230 H   0  0  0  0  0  0  0  0  0  0  0  0
   30.1460   31.9970   36.4970 C   0  0  0  0  0  0  0  0  0  0  0  0
   29.9290   32.8600   35.8900 H   0  0  0  0  0  0  0  0  0  0  0  0
   29.4460   31.8110   37.6640 C   0  0  0  0  0  3  0  0  0  0  0  0
   29.7900   30.6810   38.3730 C   0  0  0  0  0  3  0  0  0  0  0  0
   30.7280   29.8430   37.9520 N   0  0  0  0  0  0  0  0  0  0  0  0
   30.8710   27.1140   36.1290 N   0  0  0  0  0  0  0  0  0  0  0  0
   30.8000   26.8070   37.1130 H   0  0  0  0  0  0  0  0  0  0  0  0
   30.4840   27.2250   35.1460 H   0  0  0  0  0  0  0  0  0  0  0  0
  1  4  1  0  0  0  0
  2  1  1  0  0  0  0
  3  1  1  0  0  0  0
  4  5  2  0  0  0  0
  4  8  1  0  0  0  0
  5  6  1  0  0  0  0
  6  7  2  0  0  0  0
  6 10  1  0  0  0  0
  7 11  1  0  0  0  0
  8  7  1  0  0  0  0
  9  5  1  0  0  0  0
 11 12  2  0  0  0  0
 11 16  1  0  0  0  0
 12 13  1  0  0  0  0
 13 18  1  0  0  0  0
 13 14  2  0  0  0  0
 14 19  1  0  0  0  0
 15 14  1  0  0  0  0
 15 20  1  0  0  0  0
 16 15  2  0  0  0  0
 17 12  1  0  0  0  0
 21 26  2  0  0  0  0
 21 22  1  0  0  0  0
 22 23  2  0  0  0  0
 23 24  1  0  0  0  0
 23 28  1  0  0  0  0
 25  1  1  0  0  0  0
 25 24  2  0  0  0  0
 26 25  1  0  0  0  0
 27 21  1  0  0  0  0
 28 35  1  0  0  0  0
 29 31  1  0  0  0  0
 29 28  2  0  0  0  0
 30 29  1  0  0  0  0
 31 33  2  0  0  0  0
 32 31  1  0  0  0  0
 33 34  1  0  0  0  0
 35 34  2  0  0  0  0
 36 22  1  0  0  0  0
 36 37  1  0  0  0  0
 38 36  1  0  0  0  0
M  END
>  <minimizedAffinity>
-5.82705879

$$$$

 OpenBabel03242518223D

 38 41  0  0  0  0  0  0  0  0999 V2000
   37.2260   32.4770   39.9350 C   0  0  0  0  0  0  0  0  0  0  0  0
   36.8270   33.2150   40.6600 H   0  0  0  0  0  0  0  0  0  0  0  0
   36.6640   32.5910   39.0070 H   0  0  0  0  0  0  0  0  0  0  0  0
   37.0630   31.0970   40.4850 C   0  0  0  0  0  0  0  0  0  0  0  0
   35.8680   30.4020   40.4620 C   0  0  0  0  0  0  0  0  0  0  0  0
   36.0820   29.1730   41.0500 C   0  0  0  0  0  0  0  0  0  0  0  0
   37.4310   29.1860   41.4100 C   0  0  0  0  0  0  0  0  0  0  0  0
   37.9210   30.3110   41.0570 O   0  0  0  0  0  0  0  0  0  0  0  0
   34.8860   30.6960   40.0690 H   0  0  0  0  0  0  0  0  0  0  0  0
   35.3650   28.3600   41.2050 H   0  0  0  0  0  0  0  0  0  0  0  0
   38.0860   28.0700   42.0670 C   0  0  0  0  0  0  0  0  0  0  0  0
   39.1690   28.3020   42.9000 C   0  0  0  0  0  0  0  0  0  0  0  0
   39.8670   27.3090   43.5730 C   0  0  0  0  0  0  0  0  0  0  0  0
   39.3670   26.0340   43.3280 C   0  0  0  0  0  0  0  0  0  0  0  0
   38.3070   25.7700   42.5180 C   0  0  0  0  0  0  0  0  0  0  0  0
   37.6910   26.8000   41.9050 N   0  0  0  0  0  0  0  0  0  0  0  0
   39.4910   29.3300   43.0330 H   0  0  0  0  0  0  0  0  0  0  0  0
   40.7070   27.5370   44.2140 H   0  0  0  0  0  0  0  0  0  0  0  0
   39.8580   25.1970   43.8180 H   0  0  0  0  0  0  0  0  0  0  0  0
   37.9590   24.7400   42.3640 H   0  0  0  0  0  0  0  0  0  0  0  0
   40.4830   34.1600   39.9020 C   0  0  0  0  0  0  0  0  0  0  0  0
   41.2770   33.3190   39.1020 C   0  0  0  0  0  0  0  0  0  0  0  0
   40.6770   32.1930   38.5940 C   0  0  0  0  0  0  0  0  0  0  0  0
   39.3640   31.9520   38.8840 N   0  0  0  0  0  0  0  0  0  0  0  0
   38.6480   32.7830   39.6500 C   0  0  0  0  0  0  0  0  0  0  0  0
   39.2160   33.8910   40.1590 N   0  0  0  0  0  0  0  0  0  0  0  0
   40.9170   35.0640   40.3290 H   0  0  0  0  0  0  0  0  0  0  0  0
   41.3360   31.2210   37.7560 C   0  0  0  0  0  0  0  0  0  0  0  0
   41.1220   29.8790   37.6580 C   0  0  0  0  0  0  0  0  0  0  0  0
   40.3660   29.4420   38.2720 H   0  0  0  0  0  0  0  0  0  0  0  0
   41.7800   28.9930   36.8410 C   0  0  0  0  0  0  0  0  0  0  0  0
   41.5440   27.9420   36.8280 H   0  0  0  0  0  0  0  0  0  0  0  0
   42.7710   29.4630   36.0130 C   0  0  0  0  0  3  0  0  0  0  0  0
   43.0030   30.8180   36.0970 C   0  0  0  0  0  3  0  0  0  0  0  0
   42.3160   31.6010   36.9180 N   0  0  0  0  0  0  0  0  0  0  0  0
   42.6110   33.6740   38.8730 N   0  0  0  0  0  0  0  0  0  0  0  0
   43.0350   33.1800   39.6770 H   0  0  0  0  0  0  0  0  0  0  0  0
   42.6680   34.2830   38.0050 H   0  0  0  0  0  0  0  0  0  0  0  0
  1  4  1  0  0  0  0
  1  2  1  0  0  0  0
  3  1  1  0  0  0  0
  4  8  1  0  0  0  0
  5  4  2  0  0  0  0
  5  6  1  0  0  0  0
  6 10  1  0  0  0  0
  6  7  2  0  0  0  0
  7 11  1  0  0  0  0
  8  7  1  0  0  0  0
  9  5  1  0  0  0  0
 11 12  1  0  0  0  0
 12 17  1  0  0  0  0
 12 13  2  0  0  0  0
 13 18  1  0  0  0  0
 14 13  1  0  0  0  0
 14 19  1  0  0  0  0
 15 14  2  0  0  0  0
 16 11  2  0  0  0  0
 16 15  1  0  0  0  0
 20 15  1  0  0  0  0
 21 26  1  0  0  0  0
 21 27  1  0  0  0  0
 22 21  2  0  0  0  0
 23 24  2  0  0  0  0
 23 22  1  0  0  0  0
 24 25  1  0  0  0  0
 25  1  1  0  0  0  0
 25 26  2  0  0  0  0
 28 23  1  0  0  0  0
 29 28  1  0  0  0  0
 29 30  1  0  0  0  0
 31 29  2  0  0  0  0
 32 31  1  0  0  0  0
 33 34  2  0  0  0  0
 33 31  1  0  0  0  0
 34 35  1  0  0  0  0
 35 28  2  0  0  0  0
 36 22  1  0  0  0  0
 36 37  1  0  0  0  0
 38 36  1  0  0  0  0
M  END
>  <minimizedAffinity>
-5.80494928

$$$$
