
 OpenBabel03252507073D

 23 24  0  0  0  0  0  0  0  0999 V2000
   44.5380   36.0290   44.4730 C   0  0  0  0  0  0  0  0  0  0  0  0
   45.1730   35.9500   43.2220 C   0  0  0  0  0  0  0  0  0  0  0  0
   46.0740   34.9000   43.0220 C   0  0  0  0  0  0  0  0  0  0  0  0
   46.2810   34.0270   44.0390 N   0  0  0  0  0  0  0  0  0  0  0  0
   45.6530   34.1290   45.2340 C   0  0  0  0  0  0  0  0  0  0  0  0
   44.7880   35.1270   45.4410 N   0  0  0  0  0  0  0  0  0  0  0  0
   43.8530   36.8690   44.5550 H   0  0  0  0  0  0  0  0  0  0  0  0
   44.9710   36.6790   42.4400 H   0  0  0  0  0  0  0  0  0  0  0  0
   45.9270   33.1490   46.2800 C   0  0  0  0  0  0  0  0  0  0  0  0
   46.9640   32.2520   46.1320 C   0  0  0  0  0  0  0  0  0  0  0  0
   47.5780   32.2770   45.2290 H   0  0  0  0  0  0  0  0  0  0  0  0
   47.2820   31.3100   47.0640 C   0  0  0  0  0  0  0  0  0  0  0  0
   48.1120   30.6150   46.9100 H   0  0  0  0  0  0  0  0  0  0  0  0
   46.5230   31.2600   48.2080 C   0  0  0  0  0  3  0  0  0  0  0  0
   45.4750   32.1630   48.3650 C   0  0  0  0  0  3  0  0  0  0  0  0
   45.1940   33.0880   47.4080 N   0  0  0  0  0  0  0  0  0  0  0  0
   46.7000   34.8210   41.7930 O   0  0  0  0  0  0  0  0  0  0  0  0
   48.6910   33.2250   41.0980 O   0  0  0  0  0  0  0  0  0  0  0  0
   48.3920   34.5820   41.7150 P   0  0  0  0  0  0  0  0  0  0  0  0
   49.0680   35.8320   40.8410 O   0  0  0  0  0  0  0  0  0  0  0  0
   49.2700   35.5020   39.9170 H   0  0  0  0  0  0  0  0  0  0  0  0
   48.9590   34.5650   43.3260 O   0  0  0  0  0  0  0  0  0  0  0  0
   48.8830   35.5030   43.6380 H   0  0  0  0  0  0  0  0  0  0  0  0
  1  7  1  0  0  0  0
  1  6  1  0  0  0  0
  2  1  2  0  0  0  0
  3  2  1  0  0  0  0
  3  4  2  0  0  0  0
  4  5  1  0  0  0  0
  5  6  2  0  0  0  0
  5  9  1  0  0  0  0
  8  2  1  0  0  0  0
  9 16  1  0  0  0  0
 10  9  2  0  0  0  0
 10 12  1  0  0  0  0
 11 10  1  0  0  0  0
 12 14  2  0  0  0  0
 13 12  1  0  0  0  0
 14 15  1  0  0  0  0
 16 15  2  0  0  0  0
 17  3  1  0  0  0  0
 18 19  2  0  0  0  0
 19 17  1  0  0  0  0
 19 22  1  0  0  0  0
 20 19  1  0  0  0  0
 21 20  1  0  0  0  0
 22 23  1  0  0  0  0
M  END
>  <minimizedAffinity>
-5.75746775

>  <minimizedRMSD>
0.550317764

$$$$
