
 OpenBabel03242519213D

 33 35  0  0  0  0  0  0  0  0999 V2000
   45.6670   33.8290   42.8580 C   0  0  0  0  0  0  0  0  0  0  0  0
   44.8460   35.0060   42.5070 C   0  0  0  0  0  0  0  0  0  0  0  0
   44.9730   36.1340   43.4900 C   0  0  0  0  0  0  0  0  0  0  0  0
   44.6370   35.6860   44.9030 C   0  0  0  0  0  0  0  0  0  0  0  0
   45.2480   34.3580   45.2700 C   0  0  0  0  0  0  0  0  0  0  0  0
   46.2740   33.9060   44.2530 C   0  0  0  0  0  0  0  0  0  0  0  0
   45.0620   32.8860   42.8570 H   0  0  0  0  0  0  0  0  0  0  0  0
   43.7600   34.7020   42.5430 H   0  0  0  0  0  0  0  0  0  0  0  0
   44.9890   35.4060   41.4950 H   0  0  0  0  0  0  0  0  0  0  0  0
   44.2260   36.9210   43.2280 H   0  0  0  0  0  0  0  0  0  0  0  0
   45.9380   36.6260   43.5440 H   0  0  0  0  0  0  0  0  0  0  0  0
   43.5180   35.6540   44.9550 H   0  0  0  0  0  0  0  0  0  0  0  0
   45.0340   36.4220   45.6180 H   0  0  0  0  0  0  0  0  0  0  0  0
   45.7720   34.3570   46.2470 H   0  0  0  0  0  0  0  0  0  0  0  0
   44.4250   33.6060   45.2590 H   0  0  0  0  0  0  0  0  0  0  0  0
   46.5920   32.8940   44.5230 H   0  0  0  0  0  0  0  0  0  0  0  0
   47.1710   34.5580   44.2840 H   0  0  0  0  0  0  0  0  0  0  0  0
   46.7860   33.6190   41.9190 C   0  0  0  0  0  0  0  0  0  0  0  0
   46.7070   34.3190   40.6960 C   0  0  0  0  0  0  0  0  0  0  0  0
   47.7300   34.1770   39.7550 C   0  0  0  0  0  0  0  0  0  0  0  0
   48.7650   33.3500   40.0840 N   0  0  0  0  0  0  0  0  0  0  0  0
   48.8180   32.6860   41.2710 C   0  0  0  0  0  0  0  0  0  0  0  0
   47.8380   32.8240   42.1690 N   0  0  0  0  0  0  0  0  0  0  0  0
   45.9450   34.9740   40.3660 H   0  0  0  0  0  0  0  0  0  0  0  0
   47.7380   34.6800   38.8000 H   0  0  0  0  0  0  0  0  0  0  0  0
   49.9640   31.8220   41.5410 C   0  0  0  0  0  0  0  0  0  0  0  0
   49.9600   31.0270   42.6680 C   0  0  0  0  0  0  0  0  0  0  0  0
   49.1040   31.0610   43.3300 H   0  0  0  0  0  0  0  0  0  0  0  0
   51.0340   30.2040   42.9380 C   0  0  0  0  0  0  0  0  0  0  0  0
   51.0070   29.5850   43.8340 H   0  0  0  0  0  0  0  0  0  0  0  0
   52.1110   30.2050   42.0440 C   0  0  0  0  0  0  0  0  0  0  0  0
   52.0790   31.0250   40.9130 C   0  0  0  0  0  0  0  0  0  0  0  0
   51.0080   31.8090   40.6930 N   0  0  0  0  0  0  0  0  0  0  0  0
  1  6  1  0  0  0  0
  2  8  1  0  0  0  0
  2  1  1  0  0  0  0
  2  3  1  0  0  0  0
  3 11  1  0  0  0  0
  3  4  1  0  0  0  0
  4 12  1  0  0  0  0
  4  5  1  0  0  0  0
  4 13  1  0  0  0  0
  5 14  1  0  0  0  0
  6 17  1  0  0  0  0
  6 16  1  0  0  0  0
  6  5  1  0  0  0  0
  7  1  1  0  0  0  0
  9  2  1  0  0  0  0
 10  3  1  0  0  0  0
 15  5  1  0  0  0  0
 18 23  1  0  0  0  0
 18  1  1  0  0  0  0
 19 18  2  0  0  0  0
 20 21  2  0  0  0  0
 20 19  1  0  0  0  0
 21 22  1  0  0  0  0
 22 26  1  0  0  0  0
 22 23  2  0  0  0  0
 24 19  1  0  0  0  0
 25 20  1  0  0  0  0
 26 27  1  0  0  0  0
 27 29  2  0  0  0  0
 27 28  1  0  0  0  0
 29 30  1  0  0  0  0
 31 29  1  0  0  0  0
 32 31  2  0  0  0  0
 33 32  1  0  0  0  0
 33 26  2  0  0  0  0
M  END
>  <minimizedAffinity>
-4.54451752

>  <minimizedRMSD>
3.01130772

$$$$
