
 OpenBabel03242518433D

 18 19  0  0  0  0  0  0  0  0999 V2000
   37.7900   33.2310   39.9290 C   0  0  0  0  0  0  0  0  0  0  0  0
   39.1410   33.6580   39.9920 C   0  0  0  0  0  0  0  0  0  0  0  0
   40.0410   32.8120   40.6720 C   0  0  0  0  0  0  0  0  0  0  0  0
   39.5770   31.6610   41.2160 N   0  0  0  0  0  0  0  0  0  0  0  0
   38.2800   31.3070   41.1240 C   0  0  0  0  0  0  0  0  0  0  0  0
   37.4010   32.0860   40.4860 N   0  0  0  0  0  0  0  0  0  0  0  0
   39.4330   34.6010   39.5270 H   0  0  0  0  0  0  0  0  0  0  0  0
   41.0720   33.1210   40.7300 H   0  0  0  0  0  0  0  0  0  0  0  0
   37.7790   30.0570   41.7160 C   0  0  0  0  0  0  0  0  0  0  0  0
   38.3260   29.5390   42.8810 C   0  0  0  0  0  0  0  0  0  0  0  0
   39.1470   30.0550   43.3850 H   0  0  0  0  0  0  0  0  0  0  0  0
   37.8490   28.3750   43.4180 C   0  0  0  0  0  0  0  0  0  0  0  0
   38.2230   27.9060   44.3260 H   0  0  0  0  0  0  0  0  0  0  0  0
   36.8120   27.6750   42.8290 C   0  0  0  0  0  3  0  0  0  0  0  0
   36.2790   28.2140   41.6590 C   0  0  0  0  0  3  0  0  0  0  0  0
   36.7780   29.3590   41.1660 N   0  0  0  0  0  0  0  0  0  0  0  0
   36.9010   34.0390   39.2720 O   0  0  0  0  0  0  0  0  0  0  0  0
   36.7840   35.0210   39.4850 H   0  0  0  0  0  0  0  0  0  0  0  0
  1  2  2  0  0  0  0
  1  6  1  0  0  0  0
  2  3  1  0  0  0  0
  3  8  1  0  0  0  0
  3  4  2  0  0  0  0
  5  4  1  0  0  0  0
  5  9  1  0  0  0  0
  6  5  2  0  0  0  0
  7  2  1  0  0  0  0
  9 10  1  0  0  0  0
 10 11  1  0  0  0  0
 10 12  2  0  0  0  0
 12 13  1  0  0  0  0
 14 12  1  0  0  0  0
 15 14  2  0  0  0  0
 16 15  1  0  0  0  0
 16  9  2  0  0  0  0
 17 18  1  0  0  0  0
 17  1  1  0  0  0  0
M  END
>  <minimizedAffinity>
-4.67717409

$$$$

 OpenBabel03242518433D

 18 19  0  0  0  0  0  0  0  0999 V2000
   37.1740   32.3440   39.6590 C   0  0  0  0  0  0  0  0  0  0  0  0
   37.3050   31.9710   38.2980 C   0  0  0  0  0  0  0  0  0  0  0  0
   37.5410   30.6050   38.0350 C   0  0  0  0  0  0  0  0  0  0  0  0
   37.6270   29.7420   39.0770 N   0  0  0  0  0  0  0  0  0  0  0  0
   37.4930   30.1560   40.3520 C   0  0  0  0  0  0  0  0  0  0  0  0
   37.2690   31.4430   40.6350 N   0  0  0  0  0  0  0  0  0  0  0  0
   37.2230   32.7290   37.5180 H   0  0  0  0  0  0  0  0  0  0  0  0
   37.6430   30.3040   37.0060 H   0  0  0  0  0  0  0  0  0  0  0  0
   37.5870   29.2160   41.4800 C   0  0  0  0  0  0  0  0  0  0  0  0
   36.5250   28.3930   41.8260 C   0  0  0  0  0  0  0  0  0  0  0  0
   35.5890   28.4280   41.2620 H   0  0  0  0  0  0  0  0  0  0  0  0
   36.6290   27.5250   42.8780 C   0  0  0  0  0  0  0  0  0  0  0  0
   35.8440   26.8490   43.2100 H   0  0  0  0  0  0  0  0  0  0  0  0
   37.7850   27.4320   43.6310 C   0  0  0  0  0  3  0  0  0  0  0  0
   38.8380   28.2690   43.2650 C   0  0  0  0  0  3  0  0  0  0  0  0
   38.6930   29.1070   42.2250 N   0  0  0  0  0  0  0  0  0  0  0  0
   36.9440   33.6660   39.9330 O   0  0  0  0  0  0  0  0  0  0  0  0
   37.5290   34.4130   39.5840 H   0  0  0  0  0  0  0  0  0  0  0  0
  1 17  1  0  0  0  0
  1  6  1  0  0  0  0
  2  1  2  0  0  0  0
  3  2  1  0  0  0  0
  3  4  2  0  0  0  0
  4  5  1  0  0  0  0
  5  6  2  0  0  0  0
  5  9  1  0  0  0  0
  7  2  1  0  0  0  0
  8  3  1  0  0  0  0
  9 10  2  0  0  0  0
  9 16  1  0  0  0  0
 10 12  1  0  0  0  0
 11 10  1  0  0  0  0
 12 13  1  0  0  0  0
 12 14  2  0  0  0  0
 15 14  1  0  0  0  0
 16 15  2  0  0  0  0
 18 17  1  0  0  0  0
M  END
>  <minimizedAffinity>
-4.59098005

$$$$

 OpenBabel03242518433D

 18 19  0  0  0  0  0  0  0  0999 V2000
   36.0840   29.8780   41.0220 C   0  0  0  0  0  0  0  0  0  0  0  0
   35.4040   29.4030   39.8730 C   0  0  0  0  0  0  0  0  0  0  0  0
   35.6850   28.0800   39.4710 C   0  0  0  0  0  0  0  0  0  0  0  0
   36.5710   27.3500   40.1920 N   0  0  0  0  0  0  0  0  0  0  0  0
   37.1880   27.8560   41.2780 C   0  0  0  0  0  0  0  0  0  0  0  0
   36.9440   29.1060   41.6840 N   0  0  0  0  0  0  0  0  0  0  0  0
   34.7050   30.0570   39.3490 H   0  0  0  0  0  0  0  0  0  0  0  0
   35.1760   27.7030   38.6000 H   0  0  0  0  0  0  0  0  0  0  0  0
   38.1490   27.0600   42.0570 C   0  0  0  0  0  0  0  0  0  0  0  0
   39.0140   27.6560   42.9630 C   0  0  0  0  0  0  0  0  0  0  0  0
   38.9980   28.7380   43.1160 H   0  0  0  0  0  0  0  0  0  0  0  0
   39.9020   26.9020   43.6790 C   0  0  0  0  0  0  0  0  0  0  0  0
   40.6110   27.2930   44.4070 H   0  0  0  0  0  0  0  0  0  0  0  0
   39.9730   25.5290   43.5310 C   0  0  0  0  0  3  0  0  0  0  0  0
   39.0950   24.9520   42.6150 C   0  0  0  0  0  3  0  0  0  0  0  0
   38.2390   25.7310   41.9330 N   0  0  0  0  0  0  0  0  0  0  0  0
   35.8240   31.1590   41.4270 O   0  0  0  0  0  0  0  0  0  0  0  0
   35.9000   31.9600   40.8140 H   0  0  0  0  0  0  0  0  0  0  0  0
  1 17  1  0  0  0  0
  1  6  1  0  0  0  0
  2  1  2  0  0  0  0
  3  2  1  0  0  0  0
  3  4  2  0  0  0  0
  4  5  1  0  0  0  0
  5  6  2  0  0  0  0
  5  9  1  0  0  0  0
  7  2  1  0  0  0  0
  8  3  1  0  0  0  0
  9 10  1  0  0  0  0
 10 11  1  0  0  0  0
 10 12  2  0  0  0  0
 12 13  1  0  0  0  0
 14 12  1  0  0  0  0
 15 14  2  0  0  0  0
 16  9  2  0  0  0  0
 16 15  1  0  0  0  0
 18 17  1  0  0  0  0
M  END
>  <minimizedAffinity>
-4.53971338

$$$$

 OpenBabel03242518433D

 18 19  0  0  0  0  0  0  0  0999 V2000
   36.6060   30.2830   41.2220 C   0  0  0  0  0  0  0  0  0  0  0  0
   37.9050   30.8260   41.0580 C   0  0  0  0  0  0  0  0  0  0  0  0
   38.9560   29.9070   40.8580 C   0  0  0  0  0  0  0  0  0  0  0  0
   38.6730   28.5810   40.8350 N   0  0  0  0  0  0  0  0  0  0  0  0
   37.4160   28.1230   40.9970 C   0  0  0  0  0  0  0  0  0  0  0  0
   36.3980   28.9680   41.1880 N   0  0  0  0  0  0  0  0  0  0  0  0
   38.0470   31.9070   41.0900 H   0  0  0  0  0  0  0  0  0  0  0  0
   39.9500   30.3030   40.7310 H   0  0  0  0  0  0  0  0  0  0  0  0
   37.1130   26.6840   40.9720 C   0  0  0  0  0  0  0  0  0  0  0  0
   37.2110   25.9040   42.1140 C   0  0  0  0  0  0  0  0  0  0  0  0
   37.5190   26.3480   43.0650 H   0  0  0  0  0  0  0  0  0  0  0  0
   36.9260   24.5670   42.0730 C   0  0  0  0  0  0  0  0  0  0  0  0
   36.9780   23.8900   42.9240 H   0  0  0  0  0  0  0  0  0  0  0  0
   36.5320   23.9450   40.9040 C   0  0  0  0  0  3  0  0  0  0  0  0
   36.4400   24.7480   39.7680 C   0  0  0  0  0  3  0  0  0  0  0  0
   36.7300   26.0570   39.8530 N   0  0  0  0  0  0  0  0  0  0  0  0
   35.5730   31.1600   41.4160 O   0  0  0  0  0  0  0  0  0  0  0  0
   35.5780   31.8700   42.1370 H   0  0  0  0  0  0  0  0  0  0  0  0
  1 17  1  0  0  0  0
  2  7  1  0  0  0  0
  2  1  2  0  0  0  0
  3  2  1  0  0  0  0
  4  3  2  0  0  0  0
  4  5  1  0  0  0  0
  5  6  2  0  0  0  0
  6  1  1  0  0  0  0
  8  3  1  0  0  0  0
  9  5  1  0  0  0  0
  9 10  1  0  0  0  0
 10 11  1  0  0  0  0
 12 10  2  0  0  0  0
 12 13  1  0  0  0  0
 14 12  1  0  0  0  0
 15 16  1  0  0  0  0
 15 14  2  0  0  0  0
 16  9  2  0  0  0  0
 17 18  1  0  0  0  0
M  END
>  <minimizedAffinity>
-4.5031991

$$$$

 OpenBabel03242518433D

 18 19  0  0  0  0  0  0  0  0999 V2000
   35.8010   29.6340   40.8050 C   0  0  0  0  0  0  0  0  0  0  0  0
   35.2400   29.4700   39.5140 C   0  0  0  0  0  0  0  0  0  0  0  0
   35.4820   28.2380   38.8700 C   0  0  0  0  0  0  0  0  0  0  0  0
   36.2220   27.2980   39.5070 N   0  0  0  0  0  0  0  0  0  0  0  0
   36.7310   27.5120   40.7370 C   0  0  0  0  0  0  0  0  0  0  0  0
   36.5200   28.6680   41.3740 N   0  0  0  0  0  0  0  0  0  0  0  0
   34.6550   30.2770   39.0710 H   0  0  0  0  0  0  0  0  0  0  0  0
   35.0620   28.0960   37.8870 H   0  0  0  0  0  0  0  0  0  0  0  0
   37.5340   26.4900   41.4250 C   0  0  0  0  0  0  0  0  0  0  0  0
   37.0860   25.1840   41.5540 C   0  0  0  0  0  0  0  0  0  0  0  0
   36.1180   24.8860   41.1420 H   0  0  0  0  0  0  0  0  0  0  0  0
   37.8450   24.2460   42.1970 C   0  0  0  0  0  0  0  0  0  0  0  0
   37.5650   23.2030   42.3380 H   0  0  0  0  0  0  0  0  0  0  0  0
   39.0780   24.5570   42.7390 C   0  0  0  0  0  3  0  0  0  0  0  0
   39.5080   25.8760   42.5980 C   0  0  0  0  0  3  0  0  0  0  0  0
   38.7300   26.7650   41.9590 N   0  0  0  0  0  0  0  0  0  0  0  0
   35.5760   30.8220   41.4460 O   0  0  0  0  0  0  0  0  0  0  0  0
   35.7790   31.7220   41.0310 H   0  0  0  0  0  0  0  0  0  0  0  0
  1  6  1  0  0  0  0
  1 17  1  0  0  0  0
  2  1  2  0  0  0  0
  3  4  2  0  0  0  0
  3  2  1  0  0  0  0
  4  5  1  0  0  0  0
  5  6  2  0  0  0  0
  5  9  1  0  0  0  0
  7  2  1  0  0  0  0
  8  3  1  0  0  0  0
  9 10  2  0  0  0  0
  9 16  1  0  0  0  0
 10 12  1  0  0  0  0
 11 10  1  0  0  0  0
 12 13  1  0  0  0  0
 12 14  2  0  0  0  0
 15 14  1  0  0  0  0
 16 15  2  0  0  0  0
 18 17  1  0  0  0  0
M  END
>  <minimizedAffinity>
-4.45362186

$$$$

 OpenBabel03242518433D

 18 19  0  0  0  0  0  0  0  0999 V2000
   37.7480   30.7230   38.0420 C   0  0  0  0  0  0  0  0  0  0  0  0
   37.4800   32.1120   38.1320 C   0  0  0  0  0  0  0  0  0  0  0  0
   37.1340   32.6090   39.4070 C   0  0  0  0  0  0  0  0  0  0  0  0
   37.0790   31.7490   40.4540 N   0  0  0  0  0  0  0  0  0  0  0  0
   37.3450   30.4360   40.3060 C   0  0  0  0  0  0  0  0  0  0  0  0
   37.6750   29.9340   39.1120 N   0  0  0  0  0  0  0  0  0  0  0  0
   37.5460   32.7350   37.2400 H   0  0  0  0  0  0  0  0  0  0  0  0
   36.9270   33.6630   39.4940 H   0  0  0  0  0  0  0  0  0  0  0  0
   37.2840   29.5070   41.4450 C   0  0  0  0  0  0  0  0  0  0  0  0
   36.4170   28.4240   41.4480 C   0  0  0  0  0  0  0  0  0  0  0  0
   35.7570   28.2390   40.5970 H   0  0  0  0  0  0  0  0  0  0  0  0
   36.3730   27.5690   42.5150 C   0  0  0  0  0  0  0  0  0  0  0  0
   35.7230   26.6990   42.5930 H   0  0  0  0  0  0  0  0  0  0  0  0
   37.1820   27.7470   43.6220 C   0  0  0  0  0  3  0  0  0  0  0  0
   38.0440   28.8420   43.5960 C   0  0  0  0  0  3  0  0  0  0  0  0
   38.0550   29.6560   42.5280 N   0  0  0  0  0  0  0  0  0  0  0  0
   38.0850   30.2220   36.8130 O   0  0  0  0  0  0  0  0  0  0  0  0
   37.5240   30.3650   35.9840 H   0  0  0  0  0  0  0  0  0  0  0  0
  1  2  2  0  0  0  0
  1  6  1  0  0  0  0
  2  3  1  0  0  0  0
  3  8  1  0  0  0  0
  3  4  2  0  0  0  0
  5  4  1  0  0  0  0
  5  9  1  0  0  0  0
  6  5  2  0  0  0  0
  7  2  1  0  0  0  0
  9 10  2  0  0  0  0
  9 16  1  0  0  0  0
 10 12  1  0  0  0  0
 11 10  1  0  0  0  0
 12 13  1  0  0  0  0
 12 14  2  0  0  0  0
 15 14  1  0  0  0  0
 16 15  2  0  0  0  0
 17  1  1  0  0  0  0
 18 17  1  0  0  0  0
M  END
>  <minimizedAffinity>
-4.31657267

$$$$

 OpenBabel03242518433D

 18 19  0  0  0  0  0  0  0  0999 V2000
   38.6090   24.7440   42.2960 C   0  0  0  0  0  0  0  0  0  0  0  0
   39.6480   24.8960   43.2480 C   0  0  0  0  0  0  0  0  0  0  0  0
   39.9260   26.2100   43.6800 C   0  0  0  0  0  0  0  0  0  0  0  0
   39.1980   27.2350   43.1710 N   0  0  0  0  0  0  0  0  0  0  0  0
   38.2200   27.0290   42.2670 C   0  0  0  0  0  0  0  0  0  0  0  0
   37.9330   25.7960   41.8380 N   0  0  0  0  0  0  0  0  0  0  0  0
   40.1860   24.0180   43.6070 H   0  0  0  0  0  0  0  0  0  0  0  0
   40.7130   26.3440   44.4040 H   0  0  0  0  0  0  0  0  0  0  0  0
   37.4340   28.1440   41.7170 C   0  0  0  0  0  0  0  0  0  0  0  0
   36.2620   27.9220   41.0090 C   0  0  0  0  0  0  0  0  0  0  0  0
   35.8990   26.9040   40.8430 H   0  0  0  0  0  0  0  0  0  0  0  0
   35.5430   28.9690   40.5040 C   0  0  0  0  0  0  0  0  0  0  0  0
   34.6160   28.8780   39.9400 H   0  0  0  0  0  0  0  0  0  0  0  0
   35.9480   30.2800   40.6790 C   0  0  0  0  0  3  0  0  0  0  0  0
   37.1280   30.4780   41.3940 C   0  0  0  0  0  3  0  0  0  0  0  0
   37.8040   29.4210   41.8710 N   0  0  0  0  0  0  0  0  0  0  0  0
   38.3250   23.4760   41.8660 O   0  0  0  0  0  0  0  0  0  0  0  0
   39.0250   22.8500   41.4900 H   0  0  0  0  0  0  0  0  0  0  0  0
  1  2  1  0  0  0  0
  2  7  1  0  0  0  0
  2  3  2  0  0  0  0
  3  8  1  0  0  0  0
  4  3  1  0  0  0  0
  5  4  2  0  0  0  0
  6  5  1  0  0  0  0
  6  1  2  0  0  0  0
  9 16  1  0  0  0  0
  9  5  1  0  0  0  0
 10  9  2  0  0  0  0
 11 10  1  0  0  0  0
 12 14  2  0  0  0  0
 12 10  1  0  0  0  0
 13 12  1  0  0  0  0
 14 15  1  0  0  0  0
 15 16  2  0  0  0  0
 17  1  1  0  0  0  0
 18 17  1  0  0  0  0
M  END
>  <minimizedAffinity>
-4.24625969

$$$$

 OpenBabel03242518433D

 18 19  0  0  0  0  0  0  0  0999 V2000
   37.0000   27.2130   41.3640 C   0  0  0  0  0  0  0  0  0  0  0  0
   37.0710   26.9370   42.7520 C   0  0  0  0  0  0  0  0  0  0  0  0
   37.3870   28.0210   43.5990 C   0  0  0  0  0  0  0  0  0  0  0  0
   37.6000   29.2420   43.0500 N   0  0  0  0  0  0  0  0  0  0  0  0
   37.5180   29.4440   41.7200 C   0  0  0  0  0  0  0  0  0  0  0  0
   37.2210   28.4390   40.8910 N   0  0  0  0  0  0  0  0  0  0  0  0
   36.8860   25.9250   43.1130 H   0  0  0  0  0  0  0  0  0  0  0  0
   37.4450   27.8290   44.6570 H   0  0  0  0  0  0  0  0  0  0  0  0
   37.7500   30.7710   41.1280 C   0  0  0  0  0  0  0  0  0  0  0  0
   36.8410   31.3390   40.2480 C   0  0  0  0  0  0  0  0  0  0  0  0
   35.9260   30.8070   39.9760 H   0  0  0  0  0  0  0  0  0  0  0  0
   37.0720   32.5740   39.7070 C   0  0  0  0  0  0  0  0  0  0  0  0
   36.4090   33.0860   39.0120 H   0  0  0  0  0  0  0  0  0  0  0  0
   38.2090   33.2980   40.0110 C   0  0  0  0  0  3  0  0  0  0  0  0
   39.1090   32.7070   40.8970 C   0  0  0  0  0  3  0  0  0  0  0  0
   38.8420   31.4930   41.4050 N   0  0  0  0  0  0  0  0  0  0  0  0
   36.6940   26.1740   40.5270 O   0  0  0  0  0  0  0  0  0  0  0  0
   37.2000   25.2990   40.5240 H   0  0  0  0  0  0  0  0  0  0  0  0
  1  2  1  0  0  0  0
  2  7  1  0  0  0  0
  2  3  2  0  0  0  0
  3  8  1  0  0  0  0
  4  3  1  0  0  0  0
  5  4  2  0  0  0  0
  6  1  2  0  0  0  0
  6  5  1  0  0  0  0
  9 16  1  0  0  0  0
  9  5  1  0  0  0  0
 10  9  2  0  0  0  0
 11 10  1  0  0  0  0
 12 14  2  0  0  0  0
 12 10  1  0  0  0  0
 13 12  1  0  0  0  0
 14 15  1  0  0  0  0
 15 16  2  0  0  0  0
 17  1  1  0  0  0  0
 18 17  1  0  0  0  0
M  END
>  <minimizedAffinity>
-4.21005154

$$$$

 OpenBabel03242518433D

 18 19  0  0  0  0  0  0  0  0999 V2000
   42.6880   25.8290   43.5160 C   0  0  0  0  0  0  0  0  0  0  0  0
   43.5860   26.9180   43.6480 C   0  0  0  0  0  0  0  0  0  0  0  0
   43.0270   28.2120   43.5920 C   0  0  0  0  0  0  0  0  0  0  0  0
   41.6890   28.3410   43.4190 N   0  0  0  0  0  0  0  0  0  0  0  0
   40.8830   27.2670   43.3000 C   0  0  0  0  0  0  0  0  0  0  0  0
   41.3820   26.0280   43.3480 N   0  0  0  0  0  0  0  0  0  0  0  0
   44.6520   26.7270   43.7840 H   0  0  0  0  0  0  0  0  0  0  0  0
   43.6960   29.0510   43.6900 H   0  0  0  0  0  0  0  0  0  0  0  0
   39.4310   27.4120   43.1120 C   0  0  0  0  0  0  0  0  0  0  0  0
   38.6300   26.3220   42.8060 C   0  0  0  0  0  0  0  0  0  0  0  0
   39.0660   25.3260   42.6970 H   0  0  0  0  0  0  0  0  0  0  0  0
   37.2820   26.4740   42.6340 C   0  0  0  0  0  0  0  0  0  0  0  0
   36.5870   25.6710   42.3940 H   0  0  0  0  0  0  0  0  0  0  0  0
   36.6680   27.7070   42.7580 C   0  0  0  0  0  3  0  0  0  0  0  0
   37.4940   28.7870   43.0660 C   0  0  0  0  0  3  0  0  0  0  0  0
   38.8130   28.5930   43.2260 N   0  0  0  0  0  0  0  0  0  0  0  0
   43.2120   24.5660   43.5690 O   0  0  0  0  0  0  0  0  0  0  0  0
   43.9760   24.2590   42.9800 H   0  0  0  0  0  0  0  0  0  0  0  0
  1 17  1  0  0  0  0
  1  2  1  0  0  0  0
  2  7  1  0  0  0  0
  3  2  2  0  0  0  0
  3  8  1  0  0  0  0
  4  3  1  0  0  0  0
  5  6  1  0  0  0  0
  5  4  2  0  0  0  0
  6  1  2  0  0  0  0
  9 16  1  0  0  0  0
  9  5  1  0  0  0  0
 10  9  2  0  0  0  0
 11 10  1  0  0  0  0
 12 14  2  0  0  0  0
 12 10  1  0  0  0  0
 13 12  1  0  0  0  0
 14 15  1  0  0  0  0
 15 16  2  0  0  0  0
 18 17  1  0  0  0  0
M  END
>  <minimizedAffinity>
-4.18159485

$$$$
