
 OpenBabel03252506563D

 37 41  0  0  0  0  0  0  0  0999 V2000
   47.2960   31.3240   45.1960 C   0  0  0  0  0  0  0  0  0  0  0  0
   46.9050   32.6560   45.1150 C   0  0  0  0  0  0  0  0  0  0  0  0
   46.2730   33.3070   46.1460 C   0  0  0  0  0  0  0  0  0  0  0  0
   45.9980   32.6360   47.3330 C   0  0  0  0  0  0  0  0  0  0  0  0
   45.4100   32.9430   48.5210 N   0  0  0  0  0  0  0  0  0  0  0  0
   45.4350   31.8380   49.3100 C   0  0  0  0  0  0  0  0  0  0  0  0
   46.0430   30.8540   48.5970 N   0  0  0  0  0  0  0  0  0  0  0  0
   46.3930   31.3180   47.3880 C   0  0  0  0  0  0  0  0  0  0  0  0
   47.0260   30.6380   46.3790 C   0  0  0  0  0  0  0  0  0  0  0  0
   47.7960   30.8310   44.3630 H   0  0  0  0  0  0  0  0  0  0  0  0
   45.9600   34.3410   46.1110 H   0  0  0  0  0  0  0  0  0  0  0  0
   45.0190   33.8760   48.7480 H   0  0  0  0  0  0  0  0  0  0  0  0
   45.0420   31.7530   50.3300 H   0  0  0  0  0  0  0  0  0  0  0  0
   46.6240   35.1000   42.3860 C   0  0  0  0  0  0  0  0  0  0  0  0
   47.6970   34.7860   41.5670 C   0  0  0  0  0  0  0  0  0  0  0  0
   48.5230   33.7220   41.9610 C   0  0  0  0  0  0  0  0  0  0  0  0
   48.2410   33.0520   43.1160 N   0  0  0  0  0  0  0  0  0  0  0  0
   47.1770   33.3950   43.8880 C   0  0  0  0  0  0  0  0  0  0  0  0
   46.3700   34.4110   43.5290 N   0  0  0  0  0  0  0  0  0  0  0  0
   45.9580   35.9180   42.1150 H   0  0  0  0  0  0  0  0  0  0  0  0
   47.9040   35.3240   40.6620 H   0  0  0  0  0  0  0  0  0  0  0  0
   49.3780   33.4130   41.3850 H   0  0  0  0  0  0  0  0  0  0  0  0
   47.4080   29.2340   46.5350 C   0  0  0  0  0  0  0  0  0  0  0  0
   48.5610   28.6740   45.9910 C   0  0  0  0  0  0  0  0  0  0  0  0
   48.4890   27.3370   46.4050 C   0  0  0  0  0  0  0  0  0  0  0  0
   47.3420   27.1650   47.1490 C   0  0  0  0  0  0  0  0  0  0  0  0
   46.7280   28.3410   47.1960 O   0  0  0  0  0  0  0  0  0  0  0  0
   49.3080   29.1730   45.4000 H   0  0  0  0  0  0  0  0  0  0  0  0
   49.2280   26.5830   46.1650 H   0  0  0  0  0  0  0  0  0  0  0  0
   46.8650   25.9380   47.7780 C   0  0  0  0  0  0  0  0  0  0  0  0
   45.7000   25.3620   47.3080 C   0  0  0  0  0  0  0  0  0  0  0  0
   45.1260   25.7830   46.4940 H   0  0  0  0  0  0  0  0  0  0  0  0
   45.2620   24.2020   47.9130 C   0  0  0  0  0  0  0  0  0  0  0  0
   44.3550   23.6780   47.6100 H   0  0  0  0  0  0  0  0  0  0  0  0
   46.0220   23.6970   48.9490 C   0  0  0  0  0  0  0  0  0  0  0  0
   47.1860   24.2700   49.4190 C   0  0  0  0  0  0  0  0  0  0  0  0
   47.5840   25.4160   48.7930 N   0  0  0  0  0  0  0  0  0  0  0  0
  1  9  1  0  0  0  0
  2  1  2  0  0  0  0
  2  3  1  0  0  0  0
  3  4  2  0  0  0  0
  4  8  1  0  0  0  0
  4  5  1  0  0  0  0
  5 12  1  0  0  0  0
  5  6  1  0  0  0  0
  6 13  1  0  0  0  0
  7  6  2  0  0  0  0
  8  7  1  0  0  0  0
  9 23  1  0  0  0  0
  9  8  2  0  0  0  0
 10  1  1  0  0  0  0
 11  3  1  0  0  0  0
 14 19  1  0  0  0  0
 15 16  1  0  0  0  0
 15 14  2  0  0  0  0
 16 17  2  0  0  0  0
 17 18  1  0  0  0  0
 18  2  1  0  0  0  0
 19 18  2  0  0  0  0
 20 14  1  0  0  0  0
 21 15  1  0  0  0  0
 22 16  1  0  0  0  0
 23 27  1  0  0  0  0
 24 25  1  0  0  0  0
 24 23  2  0  0  0  0
 25 26  2  0  0  0  0
 26 27  1  0  0  0  0
 26 30  1  0  0  0  0
 28 24  1  0  0  0  0
 29 25  1  0  0  0  0
 30 37  1  0  0  0  0
 31 30  2  0  0  0  0
 31 33  1  0  0  0  0
 32 31  1  0  0  0  0
 33 35  2  0  0  0  0
 34 33  1  0  0  0  0
 35 36  1  0  0  0  0
 37 36  2  0  0  0  0
M  END
>  <minimizedAffinity>
-5.90063953

>  <minimizedRMSD>
1.1188637

$$$$
