
 OpenBabel03252503483D

 43 46  0  0  1  0  0  0  0  0999 V2000
   37.4790   29.9020   38.2070 C   0  0  0  0  0  0  0  0  0  0  0  0
   36.7880   29.8630   39.4130 C   0  0  0  0  0  0  0  0  0  0  0  0
   37.3080   30.6020   40.4700 C   0  0  0  0  0  0  0  0  0  0  0  0
   38.4320   31.3230   40.3270 N   0  0  0  0  0  0  0  0  0  0  0  0
   39.0830   31.3390   39.1370 C   0  0  0  0  0  0  0  0  0  0  0  0
   38.6190   30.6360   38.0750 N   0  0  0  0  0  0  0  0  0  0  0  0
   37.1100   29.3430   37.3580 H   0  0  0  0  0  0  0  0  0  0  0  0
   36.9310   30.6760   41.4610 H   0  0  0  0  0  0  0  0  0  0  0  0
   40.8570   32.1390   37.5820 C   0  0  2  0  0  0  0  0  0  0  0  0
   40.2960   32.1460   39.0360 C   0  0  1  0  0  0  0  0  0  0  0  0
   40.1380   33.4820   39.1840 O   0  0  0  0  0  0  0  0  0  0  0  0
   41.2840   34.0840   38.7460 C   0  0  0  0  0  0  0  0  0  0  0  0
   42.0030   33.1310   37.8190 C   0  0  2  0  0  0  0  0  0  0  0  0
   41.2310   31.1400   37.3180 H   0  0  0  0  0  0  0  0  0  0  0  0
   41.0950   31.7560   39.7130 H   0  0  0  0  0  0  0  0  0  0  0  0
   41.0110   34.9750   38.1370 H   0  0  0  0  0  0  0  0  0  0  0  0
   41.9550   34.4490   39.5650 H   0  0  0  0  0  0  0  0  0  0  0  0
   42.7700   32.6110   38.4040 H   0  0  0  0  0  0  0  0  0  0  0  0
   39.9780   32.7090   36.7420 O   0  0  0  0  0  0  0  0  0  0  0  0
   39.9790   32.2520   35.8560 H   0  0  0  0  0  0  0  0  0  0  0  0
   42.4410   33.7220   36.6560 O   0  0  0  0  0  0  0  0  0  0  0  0
   43.2720   34.1810   36.8600 H   0  0  0  0  0  0  0  0  0  0  0  0
   35.5700   29.0630   39.5140 C   0  0  0  0  0  0  0  0  0  0  0  0
   34.7560   29.5750   39.0260 H   0  0  0  0  0  0  0  0  0  0  0  0
   35.2730   29.0530   40.6060 H   0  0  0  0  0  0  0  0  0  0  0  0
   35.8290   27.6720   39.1530 C   0  0  0  0  0  0  0  0  0  0  0  0
   35.3380   27.0920   37.9840 C   0  0  0  0  0  0  0  0  0  0  0  0
   35.5100   25.7800   37.6160 C   0  0  0  0  0  0  0  0  0  0  0  0
   36.2220   24.9860   38.4740 C   0  0  0  0  0  0  0  0  0  0  0  0
   36.7220   25.5490   39.6490 C   0  0  0  0  0  0  0  0  0  0  0  0
   36.5460   26.9090   40.0270 C   0  0  0  0  0  0  0  0  0  0  0  0
   34.7770   27.8010   37.3530 H   0  0  0  0  0  0  0  0  0  0  0  0
   35.0580   25.5160   36.6750 H   0  0  0  0  0  0  0  0  0  0  0  0
   36.3510   23.9590   38.1810 H   0  0  0  0  0  0  0  0  0  0  0  0
   37.2580   24.7870   40.2160 H   0  0  0  0  0  0  0  0  0  0  0  0
   37.2280   27.1220   41.2730 C   0  0  0  0  0  0  0  0  0  0  0  0
   36.6680   27.3350   42.5100 C   0  0  0  0  0  0  0  0  0  0  0  0
   35.6240   27.3300   42.6920 H   0  0  0  0  0  0  0  0  0  0  0  0
   37.3350   27.6140   43.6770 C   0  0  0  0  0  0  0  0  0  0  0  0
   36.8980   27.7790   44.6360 H   0  0  0  0  0  0  0  0  0  0  0  0
   38.7070   27.6950   43.6170 C   0  0  0  0  0  3  0  0  0  0  0  0
   39.2850   27.4870   42.3950 C   0  0  0  0  0  3  0  0  0  0  0  0
   38.5530   27.2190   41.3090 N   0  0  0  0  0  0  0  0  0  0  0  0
  1  2  1  0  0  0  0
  2 23  1  0  0  0  0
  2  3  2  0  0  0  0
  3  8  1  0  0  0  0
  4  3  1  0  0  0  0
  5  4  2  0  0  0  0
  6  1  2  0  0  0  0
  6  5  1  0  0  0  0
  7  1  1  0  0  0  0
  9 14  1  6  0  0  0
  9 13  1  0  0  0  0
  9 10  1  0  0  0  0
 10  5  1  0  0  0  0
 10 11  1  0  0  0  0
 10 15  1  1  0  0  0
 12 11  1  0  0  0  0
 12 17  1  0  0  0  0
 13 18  1  1  0  0  0
 13 12  1  0  0  0  0
 16 12  1  0  0  0  0
 19  9  1  0  0  0  0
 20 19  1  0  0  0  0
 21 22  1  0  0  0  0
 21 13  1  0  0  0  0
 23 25  1  0  0  0  0
 24 23  1  0  0  0  0
 26 23  1  0  0  0  0
 26 31  1  0  0  0  0
 27 26  2  0  0  0  0
 28 27  1  0  0  0  0
 28 29  2  0  0  0  0
 29 30  1  0  0  0  0
 30 31  2  0  0  0  0
 30 35  1  0  0  0  0
 31 36  1  0  0  0  0
 32 27  1  0  0  0  0
 33 28  1  0  0  0  0
 34 29  1  0  0  0  0
 36 43  2  0  0  0  0
 36 37  1  0  0  0  0
 37 38  1  0  0  0  0
 37 39  2  0  0  0  0
 39 40  1  0  0  0  0
 41 39  1  0  0  0  0
 42 41  2  0  0  0  0
 43 42  1  0  0  0  0
M  END
>  <minimizedAffinity>
-6.8032546

$$$$

 OpenBabel03252503483D

 43 46  0  0  1  0  0  0  0  0999 V2000
   37.3290   29.6660   42.1690 C   0  0  0  0  0  0  0  0  0  0  0  0
   36.5780   28.9060   41.2780 C   0  0  0  0  0  0  0  0  0  0  0  0
   36.9490   27.5770   41.1030 C   0  0  0  0  0  0  0  0  0  0  0  0
   37.9910   27.0540   41.7700 N   0  0  0  0  0  0  0  0  0  0  0  0
   38.7030   27.8230   42.6320 C   0  0  0  0  0  0  0  0  0  0  0  0
   38.3830   29.1240   42.8380 N   0  0  0  0  0  0  0  0  0  0  0  0
   37.0750   30.7040   42.3360 H   0  0  0  0  0  0  0  0  0  0  0  0
   36.5100   26.8580   40.4560 H   0  0  0  0  0  0  0  0  0  0  0  0
   40.2380   25.8620   42.6520 C   0  0  2  0  0  0  0  0  0  0  0  0
   39.8210   27.1990   43.3350 C   0  0  1  0  0  0  0  0  0  0  0  0
   41.0090   27.8440   43.2570 O   0  0  0  0  0  0  0  0  0  0  0  0
   41.9770   26.9760   43.6790 C   0  0  0  0  0  0  0  0  0  0  0  0
   41.4500   25.5650   43.5450 C   0  0  2  0  0  0  0  0  0  0  0  0
   39.4500   25.1060   42.7710 H   0  0  0  0  0  0  0  0  0  0  0  0
   39.5520   26.9720   44.3960 H   0  0  0  0  0  0  0  0  0  0  0  0
   42.8520   27.0550   42.9960 H   0  0  0  0  0  0  0  0  0  0  0  0
   42.3580   27.1790   44.7120 H   0  0  0  0  0  0  0  0  0  0  0  0
   41.0670   25.2580   44.5240 H   0  0  0  0  0  0  0  0  0  0  0  0
   40.6840   26.0950   41.4070 O   0  0  0  0  0  0  0  0  0  0  0  0
   40.4150   25.3620   40.7860 H   0  0  0  0  0  0  0  0  0  0  0  0
   42.3420   24.7000   42.9570 O   0  0  0  0  0  0  0  0  0  0  0  0
   42.9700   24.4210   43.6440 H   0  0  0  0  0  0  0  0  0  0  0  0
   35.4550   29.5250   40.5790 C   0  0  0  0  0  0  0  0  0  0  0  0
   35.2200   30.4740   41.0350 H   0  0  0  0  0  0  0  0  0  0  0  0
   34.5440   28.8860   40.7870 H   0  0  0  0  0  0  0  0  0  0  0  0
   35.6550   29.4840   39.1330 C   0  0  0  0  0  0  0  0  0  0  0  0
   34.9830   28.5880   38.3030 C   0  0  0  0  0  0  0  0  0  0  0  0
   35.1660   28.4720   36.9470 C   0  0  0  0  0  0  0  0  0  0  0  0
   36.0840   29.3080   36.3730 C   0  0  0  0  0  0  0  0  0  0  0  0
   36.7670   30.2130   37.1870 C   0  0  0  0  0  0  0  0  0  0  0  0
   36.5740   30.3340   38.5910 C   0  0  0  0  0  0  0  0  0  0  0  0
   34.2650   27.9520   38.8460 H   0  0  0  0  0  0  0  0  0  0  0  0
   34.5530   27.7220   36.4750 H   0  0  0  0  0  0  0  0  0  0  0  0
   36.2240   29.2100   35.3110 H   0  0  0  0  0  0  0  0  0  0  0  0
   37.4570   30.7980   36.5790 H   0  0  0  0  0  0  0  0  0  0  0  0
   37.4230   31.3880   39.0730 C   0  0  0  0  0  0  0  0  0  0  0  0
   37.0550   32.6590   39.4450 C   0  0  0  0  0  0  0  0  0  0  0  0
   36.0530   33.0040   39.4490 H   0  0  0  0  0  0  0  0  0  0  0  0
   37.8910   33.6780   39.8290 C   0  0  0  0  0  0  0  0  0  0  0  0
   37.6020   34.6630   40.1170 H   0  0  0  0  0  0  0  0  0  0  0  0
   39.2410   33.4140   39.8470 C   0  0  0  0  0  3  0  0  0  0  0  0
   39.6300   32.1550   39.4790 C   0  0  0  0  0  3  0  0  0  0  0  0
   38.7420   31.2240   39.1190 N   0  0  0  0  0  0  0  0  0  0  0  0
  1  7  1  0  0  0  0
  1  6  1  0  0  0  0
  2  1  2  0  0  0  0
  3  2  1  0  0  0  0
  3  4  2  0  0  0  0
  4  5  1  0  0  0  0
  5  6  2  0  0  0  0
  5 10  1  0  0  0  0
  8  3  1  0  0  0  0
  9 14  1  1  0  0  0
  9 10  1  0  0  0  0
  9 13  1  0  0  0  0
 10 15  1  1  0  0  0
 11 10  1  0  0  0  0
 11 12  1  0  0  0  0
 12 17  1  0  0  0  0
 13 12  1  0  0  0  0
 13 18  1  1  0  0  0
 16 12  1  0  0  0  0
 19  9  1  0  0  0  0
 20 19  1  0  0  0  0
 21 13  1  0  0  0  0
 21 22  1  0  0  0  0
 23 25  1  0  0  0  0
 23 24  1  0  0  0  0
 23  2  1  0  0  0  0
 26 23  1  0  0  0  0
 27 32  1  0  0  0  0
 27 26  2  0  0  0  0
 28 27  1  0  0  0  0
 29 28  2  0  0  0  0
 29 30  1  0  0  0  0
 30 31  2  0  0  0  0
 31 36  1  0  0  0  0
 31 26  1  0  0  0  0
 33 28  1  0  0  0  0
 34 29  1  0  0  0  0
 35 30  1  0  0  0  0
 36 43  2  0  0  0  0
 36 37  1  0  0  0  0
 37 38  1  0  0  0  0
 37 39  2  0  0  0  0
 39 41  1  0  0  0  0
 39 40  1  0  0  0  0
 42 41  2  0  0  0  0
 43 42  1  0  0  0  0
M  END
>  <minimizedAffinity>
-6.53726101

$$$$

 OpenBabel03252503483D

 43 46  0  0  1  0  0  0  0  0999 V2000
   38.1250   27.9810   42.6410 C   0  0  0  0  0  0  0  0  0  0  0  0
   37.2800   27.1540   41.9090 C   0  0  0  0  0  0  0  0  0  0  0  0
   36.8180   27.6350   40.6880 C   0  0  0  0  0  0  0  0  0  0  0  0
   37.1780   28.8480   40.2380 N   0  0  0  0  0  0  0  0  0  0  0  0
   38.0040   29.6300   40.9780 C   0  0  0  0  0  0  0  0  0  0  0  0
   38.4820   29.2100   42.1750 N   0  0  0  0  0  0  0  0  0  0  0  0
   38.5080   27.6480   43.5950 H   0  0  0  0  0  0  0  0  0  0  0  0
   36.1560   27.1570   40.0080 H   0  0  0  0  0  0  0  0  0  0  0  0
   37.1260   31.6600   39.8320 C   0  0  2  0  0  0  0  0  0  0  0  0
   38.3680   30.9370   40.4360 C   0  0  1  0  0  0  0  0  0  0  0  0
   38.7280   31.8780   41.3410 O   0  0  0  0  0  0  0  0  0  0  0  0
   38.7140   33.0880   40.7040 C   0  0  0  0  0  0  0  0  0  0  0  0
   37.8290   32.9790   39.4840 C   0  0  2  0  0  0  0  0  0  0  0  0
   36.7750   31.1360   38.9330 H   0  0  0  0  0  0  0  0  0  0  0  0
   39.1330   30.8390   39.6280 H   0  0  0  0  0  0  0  0  0  0  0  0
   38.2420   33.8400   41.3750 H   0  0  0  0  0  0  0  0  0  0  0  0
   39.7290   33.4830   40.4450 H   0  0  0  0  0  0  0  0  0  0  0  0
   38.4740   32.7870   38.6200 H   0  0  0  0  0  0  0  0  0  0  0  0
   36.2210   31.9100   40.7920 O   0  0  0  0  0  0  0  0  0  0  0  0
   35.2910   31.8110   40.4450 H   0  0  0  0  0  0  0  0  0  0  0  0
   36.9490   34.0280   39.3490 O   0  0  0  0  0  0  0  0  0  0  0  0
   37.4390   34.7670   38.9520 H   0  0  0  0  0  0  0  0  0  0  0  0
   36.9200   25.8440   42.4440 C   0  0  0  0  0  0  0  0  0  0  0  0
   35.9340   25.8860   42.8790 H   0  0  0  0  0  0  0  0  0  0  0  0
   37.6020   25.6500   43.3260 H   0  0  0  0  0  0  0  0  0  0  0  0
   37.2030   24.7900   41.4740 C   0  0  0  0  0  0  0  0  0  0  0  0
   36.2000   24.0820   40.8140 C   0  0  0  0  0  0  0  0  0  0  0  0
   36.4060   23.0520   39.9290 C   0  0  0  0  0  0  0  0  0  0  0  0
   37.7050   22.6990   39.6830 C   0  0  0  0  0  0  0  0  0  0  0  0
   38.7230   23.3960   40.3340 C   0  0  0  0  0  0  0  0  0  0  0  0
   38.5080   24.4650   41.2470 C   0  0  0  0  0  0  0  0  0  0  0  0
   35.1860   24.4300   41.0700 H   0  0  0  0  0  0  0  0  0  0  0  0
   35.5050   22.6280   39.5170 H   0  0  0  0  0  0  0  0  0  0  0  0
   37.8590   21.8900   38.9910 H   0  0  0  0  0  0  0  0  0  0  0  0
   39.6900   22.9920   40.0320 H   0  0  0  0  0  0  0  0  0  0  0  0
   39.7890   24.9500   41.6820 C   0  0  0  0  0  0  0  0  0  0  0  0
   40.3750   24.7860   42.9140 C   0  0  0  0  0  0  0  0  0  0  0  0
   39.9400   24.2280   43.7030 H   0  0  0  0  0  0  0  0  0  0  0  0
   41.5650   25.3240   43.3370 C   0  0  0  0  0  0  0  0  0  0  0  0
   42.0180   25.1940   44.2940 H   0  0  0  0  0  0  0  0  0  0  0  0
   42.2540   26.1130   42.4440 C   0  0  0  0  0  3  0  0  0  0  0  0
   41.6880   26.2910   41.2120 C   0  0  0  0  0  3  0  0  0  0  0  0
   40.5210   25.7250   40.8880 N   0  0  0  0  0  0  0  0  0  0  0  0
  1  7  1  0  0  0  0
  2 23  1  0  0  0  0
  2  1  2  0  0  0  0
  3  2  1  0  0  0  0
  4  3  2  0  0  0  0
  4  5  1  0  0  0  0
  5  6  2  0  0  0  0
  6  1  1  0  0  0  0
  8  3  1  0  0  0  0
  9 14  1  6  0  0  0
  9 10  1  0  0  0  0
  9 19  1  0  0  0  0
 10 15  1  6  0  0  0
 10  5  1  0  0  0  0
 10 11  1  0  0  0  0
 12 11  1  0  0  0  0
 12 16  1  0  0  0  0
 13 18  1  6  0  0  0
 13  9  1  0  0  0  0
 13 12  1  0  0  0  0
 17 12  1  0  0  0  0
 20 19  1  0  0  0  0
 21 13  1  0  0  0  0
 22 21  1  0  0  0  0
 23 24  1  0  0  0  0
 23 25  1  0  0  0  0
 26 23  1  0  0  0  0
 27 32  1  0  0  0  0
 27 26  2  0  0  0  0
 28 27  1  0  0  0  0
 29 28  2  0  0  0  0
 29 30  1  0  0  0  0
 30 31  2  0  0  0  0
 31 26  1  0  0  0  0
 31 36  1  0  0  0  0
 33 28  1  0  0  0  0
 34 29  1  0  0  0  0
 35 30  1  0  0  0  0
 36 37  1  0  0  0  0
 37 39  2  0  0  0  0
 37 38  1  0  0  0  0
 39 40  1  0  0  0  0
 41 39  1  0  0  0  0
 42 41  2  0  0  0  0
 43 42  1  0  0  0  0
 43 36  2  0  0  0  0
M  END
>  <minimizedAffinity>
-6.47546196

$$$$

 OpenBabel03252503483D

 43 46  0  0  1  0  0  0  0  0999 V2000
   39.1280   28.7370   39.2280 C   0  0  0  0  0  0  0  0  0  0  0  0
   37.7830   29.0870   39.2240 C   0  0  0  0  0  0  0  0  0  0  0  0
   37.4760   30.4410   39.1360 C   0  0  0  0  0  0  0  0  0  0  0  0
   38.4440   31.3680   39.0570 N   0  0  0  0  0  0  0  0  0  0  0  0
   39.7480   30.9930   39.0640 C   0  0  0  0  0  0  0  0  0  0  0  0
   40.1010   29.6870   39.1480 N   0  0  0  0  0  0  0  0  0  0  0  0
   39.4130   27.6960   39.2940 H   0  0  0  0  0  0  0  0  0  0  0  0
   36.5140   30.8920   39.1390 H   0  0  0  0  0  0  0  0  0  0  0  0
   41.2370   32.2310   37.4980 C   0  0  2  0  0  0  0  0  0  0  0  0
   40.7580   32.0440   38.9690 C   0  0  1  0  0  0  0  0  0  0  0  0
   40.3280   33.3070   39.2020 O   0  0  0  0  0  0  0  0  0  0  0  0
   41.3000   34.1610   38.7600 C   0  0  0  0  0  0  0  0  0  0  0  0
   42.1590   33.4310   37.7520 C   0  0  2  0  0  0  0  0  0  0  0  0
   41.8000   31.3500   37.1610 H   0  0  0  0  0  0  0  0  0  0  0  0
   41.6520   31.8000   39.5920 H   0  0  0  0  0  0  0  0  0  0  0  0
   40.8160   35.0030   38.2160 H   0  0  0  0  0  0  0  0  0  0  0  0
   41.9160   34.6180   39.5750 H   0  0  0  0  0  0  0  0  0  0  0  0
   43.0440   33.0580   38.2780 H   0  0  0  0  0  0  0  0  0  0  0  0
   40.2190   32.6430   36.7250 O   0  0  0  0  0  0  0  0  0  0  0  0
   40.2740   32.2420   35.8140 H   0  0  0  0  0  0  0  0  0  0  0  0
   42.4060   34.1600   36.6120 O   0  0  0  0  0  0  0  0  0  0  0  0
   43.1310   34.7750   36.8140 H   0  0  0  0  0  0  0  0  0  0  0  0
   36.7700   28.0380   39.3110 C   0  0  0  0  0  0  0  0  0  0  0  0
   36.8450   27.3860   38.4550 H   0  0  0  0  0  0  0  0  0  0  0  0
   35.7640   28.5410   39.1880 H   0  0  0  0  0  0  0  0  0  0  0  0
   36.7590   27.4340   40.6410 C   0  0  0  0  0  0  0  0  0  0  0  0
   36.5230   28.1690   41.8020 C   0  0  0  0  0  0  0  0  0  0  0  0
   36.5480   27.6640   43.0790 C   0  0  0  0  0  0  0  0  0  0  0  0
   36.8280   26.3320   43.2120 C   0  0  0  0  0  0  0  0  0  0  0  0
   37.0660   25.5790   42.0620 C   0  0  0  0  0  0  0  0  0  0  0  0
   37.0370   26.1020   40.7390 C   0  0  0  0  0  0  0  0  0  0  0  0
   36.3080   29.2310   41.6040 H   0  0  0  0  0  0  0  0  0  0  0  0
   36.3390   28.3870   43.8500 H   0  0  0  0  0  0  0  0  0  0  0  0
   36.8470   25.9440   44.2160 H   0  0  0  0  0  0  0  0  0  0  0  0
   37.2730   24.5460   42.3410 H   0  0  0  0  0  0  0  0  0  0  0  0
   37.2950   25.0260   39.8230 C   0  0  0  0  0  0  0  0  0  0  0  0
   36.4030   24.0960   39.3480 C   0  0  0  0  0  0  0  0  0  0  0  0
   35.3710   24.0930   39.5890 H   0  0  0  0  0  0  0  0  0  0  0  0
   36.6840   23.0270   38.5340 C   0  0  0  0  0  0  0  0  0  0  0  0
   35.9890   22.3070   38.1660 H   0  0  0  0  0  0  0  0  0  0  0  0
   37.9940   22.8550   38.1470 C   0  0  0  0  0  3  0  0  0  0  0  0
   38.8990   23.7690   38.6110 C   0  0  0  0  0  3  0  0  0  0  0  0
   38.5320   24.7820   39.4010 N   0  0  0  0  0  0  0  0  0  0  0  0
  1  7  1  0  0  0  0
  2  1  1  0  0  0  0
  2 23  1  0  0  0  0
  3  8  1  0  0  0  0
  3  2  2  0  0  0  0
  4  5  2  0  0  0  0
  4  3  1  0  0  0  0
  5  6  1  0  0  0  0
  6  1  2  0  0  0  0
  9 14  1  6  0  0  0
  9 13  1  0  0  0  0
  9 10  1  0  0  0  0
 10  5  1  0  0  0  0
 10 11  1  0  0  0  0
 10 15  1  1  0  0  0
 12 11  1  0  0  0  0
 12 17  1  0  0  0  0
 13 18  1  1  0  0  0
 13 12  1  0  0  0  0
 16 12  1  0  0  0  0
 19  9  1  0  0  0  0
 20 19  1  0  0  0  0
 21 22  1  0  0  0  0
 21 13  1  0  0  0  0
 23 26  1  0  0  0  0
 24 23  1  0  0  0  0
 25 23  1  0  0  0  0
 26 31  2  0  0  0  0
 26 27  1  0  0  0  0
 27 28  2  0  0  0  0
 28 29  1  0  0  0  0
 28 33  1  0  0  0  0
 29 34  1  0  0  0  0
 30 35  1  0  0  0  0
 30 29  2  0  0  0  0
 31 30  1  0  0  0  0
 32 27  1  0  0  0  0
 36 31  1  0  0  0  0
 37 38  1  0  0  0  0
 37 36  2  0  0  0  0
 39 37  1  0  0  0  0
 40 39  1  0  0  0  0
 41 39  2  0  0  0  0
 41 42  1  0  0  0  0
 42 43  2  0  0  0  0
 43 36  1  0  0  0  0
M  END
>  <minimizedAffinity>
-6.42742348

$$$$

 OpenBabel03252503483D

 43 46  0  0  1  0  0  0  0  0999 V2000
   37.5830   31.2050   40.5580 C   0  0  0  0  0  0  0  0  0  0  0  0
   37.8230   30.0450   41.2860 C   0  0  0  0  0  0  0  0  0  0  0  0
   39.1490   29.6620   41.4560 C   0  0  0  0  0  0  0  0  0  0  0  0
   40.1530   30.3870   40.9360 N   0  0  0  0  0  0  0  0  0  0  0  0
   39.8850   31.5150   40.2300 C   0  0  0  0  0  0  0  0  0  0  0  0
   38.6100   31.9310   40.0350 N   0  0  0  0  0  0  0  0  0  0  0  0
   36.5670   31.5410   40.4020 H   0  0  0  0  0  0  0  0  0  0  0  0
   39.5200   28.8040   41.9600 H   0  0  0  0  0  0  0  0  0  0  0  0
   41.0270   32.2310   38.1370 C   0  0  2  0  0  0  0  0  0  0  0  0
   41.0160   32.2670   39.6940 C   0  0  1  0  0  0  0  0  0  0  0  0
   40.9730   33.6100   39.8650 O   0  0  0  0  0  0  0  0  0  0  0  0
   41.9150   34.1600   39.0400 C   0  0  0  0  0  0  0  0  0  0  0  0
   42.2220   33.1730   37.9360 C   0  0  2  0  0  0  0  0  0  0  0  0
   41.2430   31.2170   37.7750 H   0  0  0  0  0  0  0  0  0  0  0  0
   41.9860   31.8440   40.0530 H   0  0  0  0  0  0  0  0  0  0  0  0
   41.4800   35.0600   38.5510 H   0  0  0  0  0  0  0  0  0  0  0  0
   42.8450   34.4970   39.5630 H   0  0  0  0  0  0  0  0  0  0  0  0
   43.1240   32.6220   38.2230 H   0  0  0  0  0  0  0  0  0  0  0  0
   39.9320   32.8370   37.6500 O   0  0  0  0  0  0  0  0  0  0  0  0
   39.6020   32.3780   36.8280 H   0  0  0  0  0  0  0  0  0  0  0  0
   42.2450   33.7410   36.6840 O   0  0  0  0  0  0  0  0  0  0  0  0
   43.1120   34.1640   36.5730 H   0  0  0  0  0  0  0  0  0  0  0  0
   36.6940   29.2940   41.8290 C   0  0  0  0  0  0  0  0  0  0  0  0
   35.7730   29.8100   41.6080 H   0  0  0  0  0  0  0  0  0  0  0  0
   36.7760   29.3460   42.9570 H   0  0  0  0  0  0  0  0  0  0  0  0
   36.7950   27.8790   41.4820 C   0  0  0  0  0  0  0  0  0  0  0  0
   37.1460   26.8980   42.4060 C   0  0  0  0  0  0  0  0  0  0  0  0
   37.3020   25.5620   42.1270 C   0  0  0  0  0  0  0  0  0  0  0  0
   37.0920   25.1740   40.8310 C   0  0  0  0  0  0  0  0  0  0  0  0
   36.7390   26.1420   39.8910 C   0  0  0  0  0  0  0  0  0  0  0  0
   36.5750   27.5240   40.1830 C   0  0  0  0  0  0  0  0  0  0  0  0
   37.2970   27.2970   43.4230 H   0  0  0  0  0  0  0  0  0  0  0  0
   37.5750   24.9560   42.9740 H   0  0  0  0  0  0  0  0  0  0  0  0
   37.2180   24.1270   40.6190 H   0  0  0  0  0  0  0  0  0  0  0  0
   36.6130   25.6710   38.9160 H   0  0  0  0  0  0  0  0  0  0  0  0
   36.1790   28.1960   38.9760 C   0  0  0  0  0  0  0  0  0  0  0  0
   34.9060   28.5320   38.5820 C   0  0  0  0  0  0  0  0  0  0  0  0
   34.0420   28.3550   39.1690 H   0  0  0  0  0  0  0  0  0  0  0  0
   34.5390   29.1040   37.3890 C   0  0  0  0  0  0  0  0  0  0  0  0
   33.5500   29.3650   37.0860 H   0  0  0  0  0  0  0  0  0  0  0  0
   35.5390   29.3730   36.4830 C   0  0  0  0  0  3  0  0  0  0  0  0
   36.8140   29.0450   36.8550 C   0  0  0  0  0  3  0  0  0  0  0  0
   37.0780   28.4890   38.0420 N   0  0  0  0  0  0  0  0  0  0  0  0
  1  2  1  0  0  0  0
  2  3  2  0  0  0  0
  2 23  1  0  0  0  0
  3  8  1  0  0  0  0
  4  3  1  0  0  0  0
  5  4  2  0  0  0  0
  6  5  1  0  0  0  0
  6  1  2  0  0  0  0
  7  1  1  0  0  0  0
  9 14  1  6  0  0  0
  9 10  1  0  0  0  0
 10 11  1  0  0  0  0
 10 15  1  1  0  0  0
 10  5  1  0  0  0  0
 12 17  1  0  0  0  0
 12 11  1  0  0  0  0
 13  9  1  0  0  0  0
 13 18  1  1  0  0  0
 13 12  1  0  0  0  0
 16 12  1  0  0  0  0
 19  9  1  0  0  0  0
 20 19  1  0  0  0  0
 21 13  1  0  0  0  0
 22 21  1  0  0  0  0
 23 25  1  0  0  0  0
 24 23  1  0  0  0  0
 26 23  1  0  0  0  0
 26 27  1  0  0  0  0
 27 32  1  0  0  0  0
 28 27  2  0  0  0  0
 28 33  1  0  0  0  0
 29 28  1  0  0  0  0
 30 31  1  0  0  0  0
 30 29  2  0  0  0  0
 31 26  2  0  0  0  0
 34 29  1  0  0  0  0
 35 30  1  0  0  0  0
 36 31  1  0  0  0  0
 37 36  1  0  0  0  0
 37 38  1  0  0  0  0
 39 37  2  0  0  0  0
 40 39  1  0  0  0  0
 41 42  2  0  0  0  0
 41 39  1  0  0  0  0
 42 43  1  0  0  0  0
 43 36  2  0  0  0  0
M  END
>  <minimizedAffinity>
-6.29517269

$$$$

 OpenBabel03252503483D

 43 46  0  0  1  0  0  0  0  0999 V2000
   39.1880   31.1430   38.8960 C   0  0  0  0  0  0  0  0  0  0  0  0
   38.4720   31.8710   39.8400 C   0  0  0  0  0  0  0  0  0  0  0  0
   39.1550   32.8670   40.5290 C   0  0  0  0  0  0  0  0  0  0  0  0
   40.4540   33.1120   40.2890 N   0  0  0  0  0  0  0  0  0  0  0  0
   41.1230   32.3830   39.3610 C   0  0  0  0  0  0  0  0  0  0  0  0
   40.5040   31.4000   38.6620 N   0  0  0  0  0  0  0  0  0  0  0  0
   38.6960   30.3590   38.3360 H   0  0  0  0  0  0  0  0  0  0  0  0
   38.7820   33.5050   41.2930 H   0  0  0  0  0  0  0  0  0  0  0  0
   42.8890   32.6240   37.6210 C   0  0  2  0  0  0  0  0  0  0  0  0
   42.5320   32.6980   39.1360 C   0  0  1  0  0  0  0  0  0  0  0  0
   42.9010   33.9790   39.3680 O   0  0  0  0  0  0  0  0  0  0  0  0
   44.1340   34.1610   38.8080 C   0  0  0  0  0  0  0  0  0  0  0  0
   44.3410   33.1030   37.7470 C   0  0  2  0  0  0  0  0  0  0  0  0
   42.8320   31.5880   37.2610 H   0  0  0  0  0  0  0  0  0  0  0  0
   43.1950   31.9810   39.6790 H   0  0  0  0  0  0  0  0  0  0  0  0
   44.1490   35.1440   38.2850 H   0  0  0  0  0  0  0  0  0  0  0  0
   44.9770   34.1780   39.5450 H   0  0  0  0  0  0  0  0  0  0  0  0
   44.9160   32.2870   38.1980 H   0  0  0  0  0  0  0  0  0  0  0  0
   42.2010   33.5520   36.9360 O   0  0  0  0  0  0  0  0  0  0  0  0
   41.9350   33.2120   36.0370 H   0  0  0  0  0  0  0  0  0  0  0  0
   44.8390   33.6010   36.5660 O   0  0  0  0  0  0  0  0  0  0  0  0
   45.7990   33.7050   36.6770 H   0  0  0  0  0  0  0  0  0  0  0  0
   37.0610   31.5630   40.0620 C   0  0  0  0  0  0  0  0  0  0  0  0
   36.5070   31.7140   39.1490 H   0  0  0  0  0  0  0  0  0  0  0  0
   36.6580   32.3550   40.7630 H   0  0  0  0  0  0  0  0  0  0  0  0
   36.9100   30.2900   40.7610 C   0  0  0  0  0  0  0  0  0  0  0  0
   37.4430   30.0550   42.0270 C   0  0  0  0  0  0  0  0  0  0  0  0
   37.3720   28.8660   42.7100 C   0  0  0  0  0  0  0  0  0  0  0  0
   36.7240   27.8340   42.0880 C   0  0  0  0  0  0  0  0  0  0  0  0
   36.1830   28.0490   40.8210 C   0  0  0  0  0  0  0  0  0  0  0  0
   36.2540   29.2830   40.1160 C   0  0  0  0  0  0  0  0  0  0  0  0
   37.9480   30.9380   42.4530 H   0  0  0  0  0  0  0  0  0  0  0  0
   37.8430   28.8770   43.6790 H   0  0  0  0  0  0  0  0  0  0  0  0
   36.6750   26.9040   42.6280 H   0  0  0  0  0  0  0  0  0  0  0  0
   35.7070   27.1330   40.4690 H   0  0  0  0  0  0  0  0  0  0  0  0
   35.5590   29.1290   38.8680 C   0  0  0  0  0  0  0  0  0  0  0  0
   36.0760   29.2350   37.6000 C   0  0  0  0  0  0  0  0  0  0  0  0
   37.1010   29.4160   37.3960 H   0  0  0  0  0  0  0  0  0  0  0  0
   35.3810   29.1630   36.4180 C   0  0  0  0  0  0  0  0  0  0  0  0
   35.7860   29.2450   35.4350 H   0  0  0  0  0  0  0  0  0  0  0  0
   34.0210   28.9650   36.4970 C   0  0  0  0  0  3  0  0  0  0  0  0
   33.4850   28.8570   37.7510 C   0  0  0  0  0  3  0  0  0  0  0  0
   34.2430   28.9400   38.8480 N   0  0  0  0  0  0  0  0  0  0  0  0
  1  2  1  0  0  0  0
  2 23  1  0  0  0  0
  2  3  2  0  0  0  0
  3  8  1  0  0  0  0
  4  3  1  0  0  0  0
  5  4  2  0  0  0  0
  6  1  2  0  0  0  0
  6  5  1  0  0  0  0
  7  1  1  0  0  0  0
  9 14  1  6  0  0  0
  9 13  1  0  0  0  0
  9 10  1  0  0  0  0
 10  5  1  0  0  0  0
 10 11  1  0  0  0  0
 10 15  1  1  0  0  0
 12 11  1  0  0  0  0
 12 17  1  0  0  0  0
 13 18  1  1  0  0  0
 13 12  1  0  0  0  0
 16 12  1  0  0  0  0
 19  9  1  0  0  0  0
 20 19  1  0  0  0  0
 21 22  1  0  0  0  0
 21 13  1  0  0  0  0
 23 26  1  0  0  0  0
 23 25  1  0  0  0  0
 24 23  1  0  0  0  0
 26 27  1  0  0  0  0
 27 32  1  0  0  0  0
 27 28  2  0  0  0  0
 28 33  1  0  0  0  0
 29 34  1  0  0  0  0
 29 28  1  0  0  0  0
 30 29  2  0  0  0  0
 31 26  2  0  0  0  0
 31 30  1  0  0  0  0
 35 30  1  0  0  0  0
 36 31  1  0  0  0  0
 37 36  2  0  0  0  0
 38 37  1  0  0  0  0
 39 41  2  0  0  0  0
 39 37  1  0  0  0  0
 40 39  1  0  0  0  0
 41 42  1  0  0  0  0
 42 43  2  0  0  0  0
 43 36  1  0  0  0  0
M  END
>  <minimizedAffinity>
-6.24262714

$$$$

 OpenBabel03252503483D

 43 46  0  0  1  0  0  0  0  0999 V2000
   40.9160   28.7970   41.3740 C   0  0  0  0  0  0  0  0  0  0  0  0
   39.7130   29.3480   41.7990 C   0  0  0  0  0  0  0  0  0  0  0  0
   39.2290   30.4450   41.0940 C   0  0  0  0  0  0  0  0  0  0  0  0
   39.9010   30.9460   40.0440 N   0  0  0  0  0  0  0  0  0  0  0  0
   41.0730   30.3840   39.6550 C   0  0  0  0  0  0  0  0  0  0  0  0
   41.5880   29.3150   40.3090 N   0  0  0  0  0  0  0  0  0  0  0  0
   41.3290   27.9430   41.8930 H   0  0  0  0  0  0  0  0  0  0  0  0
   38.3460   31.0040   41.2840 H   0  0  0  0  0  0  0  0  0  0  0  0
   41.2000   32.3860   38.1780 C   0  0  2  0  0  0  0  0  0  0  0  0
   41.7560   30.9670   38.5030 C   0  0  1  0  0  0  0  0  0  0  0  0
   43.0560   31.2980   38.6850 O   0  0  0  0  0  0  0  0  0  0  0  0
   43.4260   32.1040   37.6450 C   0  0  0  0  0  0  0  0  0  0  0  0
   42.1810   32.7170   37.0460 C   0  0  2  0  0  0  0  0  0  0  0  0
   40.1650   32.3210   37.8140 H   0  0  0  0  0  0  0  0  0  0  0  0
   41.6240   30.3320   37.5940 H   0  0  0  0  0  0  0  0  0  0  0  0
   44.0360   32.9450   38.0440 H   0  0  0  0  0  0  0  0  0  0  0  0
   44.0510   31.5950   36.8680 H   0  0  0  0  0  0  0  0  0  0  0  0
   41.8960   32.1130   36.1790 H   0  0  0  0  0  0  0  0  0  0  0  0
   41.4410   33.2250   39.1990 O   0  0  0  0  0  0  0  0  0  0  0  0
   40.6890   33.8680   39.3210 H   0  0  0  0  0  0  0  0  0  0  0  0
   42.2900   34.0700   36.8190 O   0  0  0  0  0  0  0  0  0  0  0  0
   42.7730   34.1850   35.9840 H   0  0  0  0  0  0  0  0  0  0  0  0
   39.0230   28.7630   42.9470 C   0  0  0  0  0  0  0  0  0  0  0  0
   38.1410   29.3400   43.1740 H   0  0  0  0  0  0  0  0  0  0  0  0
   39.6930   28.9170   43.8460 H   0  0  0  0  0  0  0  0  0  0  0  0
   38.8830   27.3180   42.7890 C   0  0  0  0  0  0  0  0  0  0  0  0
   39.6520   26.4030   43.5050 C   0  0  0  0  0  0  0  0  0  0  0  0
   39.5960   25.0370   43.3640 C   0  0  0  0  0  0  0  0  0  0  0  0
   38.7110   24.5470   42.4430 C   0  0  0  0  0  0  0  0  0  0  0  0
   37.9320   25.4480   41.7170 C   0  0  0  0  0  0  0  0  0  0  0  0
   37.9880   26.8610   41.8660 C   0  0  0  0  0  0  0  0  0  0  0  0
   40.3380   26.8820   44.2220 H   0  0  0  0  0  0  0  0  0  0  0  0
   40.2670   24.4930   44.0070 H   0  0  0  0  0  0  0  0  0  0  0  0
   38.6740   23.4770   42.3360 H   0  0  0  0  0  0  0  0  0  0  0  0
   37.2870   24.8980   41.0310 H   0  0  0  0  0  0  0  0  0  0  0  0
   37.0210   27.4470   40.9800 C   0  0  0  0  0  0  0  0  0  0  0  0
   36.8880   27.2410   39.6280 C   0  0  0  0  0  0  0  0  0  0  0  0
   37.4920   26.5700   39.0730 H   0  0  0  0  0  0  0  0  0  0  0  0
   36.0080   27.8690   38.7830 C   0  0  0  0  0  0  0  0  0  0  0  0
   35.9070   27.7070   37.7340 H   0  0  0  0  0  0  0  0  0  0  0  0
   35.1640   28.8070   39.3330 C   0  0  0  0  0  3  0  0  0  0  0  0
   35.2800   29.0290   40.6780 C   0  0  0  0  0  3  0  0  0  0  0  0
   36.1700   28.3670   41.4240 N   0  0  0  0  0  0  0  0  0  0  0  0
  1  2  1  0  0  0  0
  1  7  1  0  0  0  0
  2 23  1  0  0  0  0
  3  8  1  0  0  0  0
  3  2  2  0  0  0  0
  4  3  1  0  0  0  0
  5  4  2  0  0  0  0
  5  6  1  0  0  0  0
  6  1  2  0  0  0  0
  9 14  1  6  0  0  0
  9 10  1  0  0  0  0
  9 19  1  0  0  0  0
 10 15  1  6  0  0  0
 10 11  1  0  0  0  0
 10  5  1  0  0  0  0
 12 16  1  0  0  0  0
 12 11  1  0  0  0  0
 13 18  1  6  0  0  0
 13 12  1  0  0  0  0
 13  9  1  0  0  0  0
 17 12  1  0  0  0  0
 19 20  1  0  0  0  0
 21 13  1  0  0  0  0
 22 21  1  0  0  0  0
 23 24  1  0  0  0  0
 23 25  1  0  0  0  0
 26 23  1  0  0  0  0
 26 27  1  0  0  0  0
 27 32  1  0  0  0  0
 28 27  2  0  0  0  0
 28 33  1  0  0  0  0
 29 28  1  0  0  0  0
 30 31  1  0  0  0  0
 30 29  2  0  0  0  0
 31 26  2  0  0  0  0
 34 29  1  0  0  0  0
 35 30  1  0  0  0  0
 36 43  1  0  0  0  0
 36 31  1  0  0  0  0
 37 36  2  0  0  0  0
 38 37  1  0  0  0  0
 39 41  2  0  0  0  0
 39 37  1  0  0  0  0
 40 39  1  0  0  0  0
 41 42  1  0  0  0  0
 42 43  2  0  0  0  0
M  END
>  <minimizedAffinity>
-6.13937664

$$$$

 OpenBabel03252503483D

 43 46  0  0  1  0  0  0  0  0999 V2000
   37.1810   31.6220   38.7440 C   0  0  0  0  0  0  0  0  0  0  0  0
   37.0200   31.0930   40.0200 C   0  0  0  0  0  0  0  0  0  0  0  0
   38.0440   31.3140   40.9360 C   0  0  0  0  0  0  0  0  0  0  0  0
   39.1410   32.0110   40.5960 N   0  0  0  0  0  0  0  0  0  0  0  0
   39.2660   32.5140   39.3420 C   0  0  0  0  0  0  0  0  0  0  0  0
   38.2980   32.3260   38.4120 N   0  0  0  0  0  0  0  0  0  0  0  0
   36.4100   31.4750   38.0010 H   0  0  0  0  0  0  0  0  0  0  0  0
   38.1050   30.9720   41.9400 H   0  0  0  0  0  0  0  0  0  0  0  0
   41.6970   32.7330   39.8380 C   0  0  2  0  0  0  0  0  0  0  0  0
   40.4770   33.2700   39.0310 C   0  0  1  0  0  0  0  0  0  0  0  0
   40.9750   33.1100   37.7820 O   0  0  0  0  0  0  0  0  0  0  0  0
   42.2450   33.6150   37.7780 C   0  0  0  0  0  0  0  0  0  0  0  0
   42.7570   33.6410   39.2000 C   0  0  2  0  0  0  0  0  0  0  0  0
   41.5740   32.9410   40.9090 H   0  0  0  0  0  0  0  0  0  0  0  0
   40.3500   34.3510   39.2820 H   0  0  0  0  0  0  0  0  0  0  0  0
   42.9050   32.9190   37.2140 H   0  0  0  0  0  0  0  0  0  0  0  0
   42.3410   34.6160   37.2860 H   0  0  0  0  0  0  0  0  0  0  0  0
   42.6000   34.6510   39.5930 H   0  0  0  0  0  0  0  0  0  0  0  0
   41.9670   31.4650   39.4850 O   0  0  0  0  0  0  0  0  0  0  0  0
   42.2710   30.9300   40.2690 H   0  0  0  0  0  0  0  0  0  0  0  0
   44.0320   33.1420   39.3340 O   0  0  0  0  0  0  0  0  0  0  0  0
   44.6480   33.8490   39.0790 H   0  0  0  0  0  0  0  0  0  0  0  0
   35.8080   30.3420   40.3370 C   0  0  0  0  0  0  0  0  0  0  0  0
   34.9520   30.9970   40.2920 H   0  0  0  0  0  0  0  0  0  0  0  0
   35.8760   30.0520   41.4280 H   0  0  0  0  0  0  0  0  0  0  0  0
   35.7600   29.0900   39.5880 C   0  0  0  0  0  0  0  0  0  0  0  0
   35.0410   28.9460   38.4030 C   0  0  0  0  0  0  0  0  0  0  0  0
   34.9220   27.7830   37.6820 C   0  0  0  0  0  0  0  0  0  0  0  0
   35.5660   26.6810   38.1770 C   0  0  0  0  0  0  0  0  0  0  0  0
   36.2920   26.8050   39.3620 C   0  0  0  0  0  0  0  0  0  0  0  0
   36.4170   28.0120   40.1050 C   0  0  0  0  0  0  0  0  0  0  0  0
   34.5540   29.8800   38.0770 H   0  0  0  0  0  0  0  0  0  0  0  0
   34.3260   27.8670   36.7890 H   0  0  0  0  0  0  0  0  0  0  0  0
   35.4670   25.7730   37.6090 H   0  0  0  0  0  0  0  0  0  0  0  0
   36.7370   25.8430   39.6160 H   0  0  0  0  0  0  0  0  0  0  0  0
   37.2630   27.7570   41.2380 C   0  0  0  0  0  0  0  0  0  0  0  0
   36.8900   27.6460   42.5560 C   0  0  0  0  0  0  0  0  0  0  0  0
   35.8860   27.7030   42.8900 H   0  0  0  0  0  0  0  0  0  0  0  0
   37.7220   27.4800   43.6350 C   0  0  0  0  0  0  0  0  0  0  0  0
   37.4300   27.3930   44.6570 H   0  0  0  0  0  0  0  0  0  0  0  0
   39.0740   27.4200   43.3860 C   0  0  0  0  0  3  0  0  0  0  0  0
   39.4680   27.5300   42.0810 C   0  0  0  0  0  3  0  0  0  0  0  0
   38.5830   27.6890   41.0920 N   0  0  0  0  0  0  0  0  0  0  0  0
  1  2  1  0  0  0  0
  2 23  1  0  0  0  0
  2  3  2  0  0  0  0
  3  8  1  0  0  0  0
  4  3  1  0  0  0  0
  5  4  2  0  0  0  0
  6  1  2  0  0  0  0
  6  5  1  0  0  0  0
  7  1  1  0  0  0  0
  9 14  1  1  0  0  0
 10 15  1  1  0  0  0
 10  5  1  0  0  0  0
 10  9  1  0  0  0  0
 11 10  1  0  0  0  0
 12 11  1  0  0  0  0
 12 13  1  0  0  0  0
 13 21  1  0  0  0  0
 13 18  1  1  0  0  0
 13  9  1  0  0  0  0
 16 12  1  0  0  0  0
 17 12  1  0  0  0  0
 19  9  1  0  0  0  0
 19 20  1  0  0  0  0
 22 21  1  0  0  0  0
 23 25  1  0  0  0  0
 24 23  1  0  0  0  0
 26 31  1  0  0  0  0
 26 23  1  0  0  0  0
 27 26  2  0  0  0  0
 28 29  2  0  0  0  0
 28 27  1  0  0  0  0
 29 30  1  0  0  0  0
 30 35  1  0  0  0  0
 30 31  2  0  0  0  0
 31 36  1  0  0  0  0
 32 27  1  0  0  0  0
 33 28  1  0  0  0  0
 34 29  1  0  0  0  0
 36 37  1  0  0  0  0
 37 38  1  0  0  0  0
 37 39  2  0  0  0  0
 39 40  1  0  0  0  0
 41 39  1  0  0  0  0
 42 41  2  0  0  0  0
 43 36  2  0  0  0  0
 43 42  1  0  0  0  0
M  END
>  <minimizedAffinity>
-5.97291088

$$$$

 OpenBabel03252503483D

 43 46  0  0  1  0  0  0  0  0999 V2000
   35.5110   28.8970   40.1870 C   0  0  0  0  0  0  0  0  0  0  0  0
   36.6200   29.6560   40.5450 C   0  0  0  0  0  0  0  0  0  0  0  0
   37.3360   30.2620   39.5180 C   0  0  0  0  0  0  0  0  0  0  0  0
   36.9670   30.1170   38.2350 N   0  0  0  0  0  0  0  0  0  0  0  0
   35.8790   29.3690   37.9200 C   0  0  0  0  0  0  0  0  0  0  0  0
   35.1470   28.7570   38.8830 N   0  0  0  0  0  0  0  0  0  0  0  0
   34.9250   28.4090   40.9530 H   0  0  0  0  0  0  0  0  0  0  0  0
   38.2130   30.8560   39.5980 H   0  0  0  0  0  0  0  0  0  0  0  0
   36.6550   29.8010   35.5930 C   0  0  2  0  0  0  0  0  0  0  0  0
   35.5200   29.2530   36.5090 C   0  0  1  0  0  0  0  0  0  0  0  0
   35.4510   27.9950   36.0130 O   0  0  0  0  0  0  0  0  0  0  0  0
   35.4290   28.0900   34.6500 C   0  0  0  0  0  0  0  0  0  0  0  0
   36.0110   29.4280   34.2520 C   0  0  2  0  0  0  0  0  0  0  0  0
   36.7530   30.8890   35.7090 H   0  0  0  0  0  0  0  0  0  0  0  0
   34.5900   29.8290   36.2820 H   0  0  0  0  0  0  0  0  0  0  0  0
   36.1020   27.3110   34.2250 H   0  0  0  0  0  0  0  0  0  0  0  0
   34.4200   27.9250   34.1930 H   0  0  0  0  0  0  0  0  0  0  0  0
   35.1770   30.1180   34.0870 H   0  0  0  0  0  0  0  0  0  0  0  0
   37.7690   29.0640   35.7410 O   0  0  0  0  0  0  0  0  0  0  0  0
   38.5860   29.6320   35.6840 H   0  0  0  0  0  0  0  0  0  0  0  0
   36.9260   29.3450   33.2280 O   0  0  0  0  0  0  0  0  0  0  0  0
   36.4270   29.2930   32.3970 H   0  0  0  0  0  0  0  0  0  0  0  0
   36.9780   29.7810   41.9560 C   0  0  0  0  0  0  0  0  0  0  0  0
   36.2390   29.2840   42.5640 H   0  0  0  0  0  0  0  0  0  0  0  0
   36.8690   30.8740   42.2270 H   0  0  0  0  0  0  0  0  0  0  0  0
   38.3850   29.4490   42.1670 C   0  0  0  0  0  0  0  0  0  0  0  0
   39.3430   30.4050   42.5000 C   0  0  0  0  0  0  0  0  0  0  0  0
   40.6850   30.1590   42.6640 C   0  0  0  0  0  0  0  0  0  0  0  0
   41.1030   28.8690   42.4840 C   0  0  0  0  0  0  0  0  0  0  0  0
   40.1590   27.8980   42.1520 C   0  0  0  0  0  0  0  0  0  0  0  0
   38.7690   28.1530   41.9850 C   0  0  0  0  0  0  0  0  0  0  0  0
   38.9210   31.4150   42.6240 H   0  0  0  0  0  0  0  0  0  0  0  0
   41.2700   31.0260   42.9230 H   0  0  0  0  0  0  0  0  0  0  0  0
   42.1560   28.6850   42.6130 H   0  0  0  0  0  0  0  0  0  0  0  0
   40.6530   26.9330   42.0430 H   0  0  0  0  0  0  0  0  0  0  0  0
   38.1160   26.9100   41.6810 C   0  0  0  0  0  0  0  0  0  0  0  0
   37.3630   26.1290   42.5240 C   0  0  0  0  0  0  0  0  0  0  0  0
   37.1430   26.3900   43.5280 H   0  0  0  0  0  0  0  0  0  0  0  0
   36.8110   24.9050   42.2390 C   0  0  0  0  0  0  0  0  0  0  0  0
   36.2270   24.3020   42.8950 H   0  0  0  0  0  0  0  0  0  0  0  0
   37.0290   24.3930   40.9800 C   0  0  0  0  0  3  0  0  0  0  0  0
   37.7780   25.1540   40.1250 C   0  0  0  0  0  3  0  0  0  0  0  0
   38.2750   26.3380   40.4920 N   0  0  0  0  0  0  0  0  0  0  0  0
  1  2  1  0  0  0  0
  1  7  1  0  0  0  0
  2 23  1  0  0  0  0
  3  8  1  0  0  0  0
  3  2  2  0  0  0  0
  4  3  1  0  0  0  0
  5  4  2  0  0  0  0
  5  6  1  0  0  0  0
  6  1  2  0  0  0  0
  9 14  1  1  0  0  0
  9 19  1  0  0  0  0
  9 10  1  0  0  0  0
 10 15  1  6  0  0  0
 10  5  1  0  0  0  0
 11 10  1  0  0  0  0
 12 11  1  0  0  0  0
 13 18  1  6  0  0  0
 13 12  1  0  0  0  0
 13  9  1  0  0  0  0
 16 12  1  0  0  0  0
 17 12  1  0  0  0  0
 20 19  1  0  0  0  0
 21 13  1  0  0  0  0
 22 21  1  0  0  0  0
 23 26  1  0  0  0  0
 23 25  1  0  0  0  0
 23 24  1  0  0  0  0
 26 27  1  0  0  0  0
 27 32  1  0  0  0  0
 27 28  2  0  0  0  0
 28 33  1  0  0  0  0
 29 34  1  0  0  0  0
 29 28  1  0  0  0  0
 30 29  2  0  0  0  0
 31 30  1  0  0  0  0
 31 26  2  0  0  0  0
 35 30  1  0  0  0  0
 36 31  1  0  0  0  0
 36 37  1  0  0  0  0
 37 38  1  0  0  0  0
 39 37  2  0  0  0  0
 39 40  1  0  0  0  0
 41 39  1  0  0  0  0
 42 43  1  0  0  0  0
 42 41  2  0  0  0  0
 43 36  2  0  0  0  0
M  END
>  <minimizedAffinity>
-5.95942879

$$$$
