
 OpenBabel03252507083D

 23 24  0  0  0  0  0  0  0  0999 V2000
   44.6380   35.6720   44.7890 C   0  0  0  0  0  0  0  0  0  0  0  0
   45.2240   35.8350   43.5220 C   0  0  0  0  0  0  0  0  0  0  0  0
   46.1670   34.8830   43.1210 C   0  0  0  0  0  0  0  0  0  0  0  0
   46.4570   33.8670   43.9710 N   0  0  0  0  0  0  0  0  0  0  0  0
   45.8740   33.7360   45.1850 C   0  0  0  0  0  0  0  0  0  0  0  0
   44.9710   34.6380   45.5840 N   0  0  0  0  0  0  0  0  0  0  0  0
   43.9170   36.4480   45.0320 H   0  0  0  0  0  0  0  0  0  0  0  0
   44.9560   36.6710   42.8790 H   0  0  0  0  0  0  0  0  0  0  0  0
   46.2380   32.6140   46.0450 C   0  0  0  0  0  0  0  0  0  0  0  0
   46.8900   32.8410   47.2380 C   0  0  0  0  0  0  0  0  0  0  0  0
   47.1330   33.8640   47.5360 H   0  0  0  0  0  0  0  0  0  0  0  0
   47.2630   31.8480   48.0940 C   0  0  0  0  0  0  0  0  0  0  0  0
   47.7780   32.0680   49.0320 H   0  0  0  0  0  0  0  0  0  0  0  0
   46.9670   30.5550   47.7390 C   0  0  0  0  0  3  0  0  0  0  0  0
   46.3090   30.3170   46.5340 C   0  0  0  0  0  3  0  0  0  0  0  0
   45.9560   31.3400   45.7120 N   0  0  0  0  0  0  0  0  0  0  0  0
   46.7450   35.0420   41.8770 O   0  0  0  0  0  0  0  0  0  0  0  0
   48.5470   33.3110   41.0110 O   0  0  0  0  0  0  0  0  0  0  0  0
   48.4020   34.6800   41.6570 P   0  0  0  0  0  0  0  0  0  0  0  0
   49.0950   35.8860   40.7350 O   0  0  0  0  0  0  0  0  0  0  0  0
   49.1940   35.5510   39.7960 H   0  0  0  0  0  0  0  0  0  0  0  0
   49.0970   34.6040   43.2140 O   0  0  0  0  0  0  0  0  0  0  0  0
   49.1180   35.5420   43.5360 H   0  0  0  0  0  0  0  0  0  0  0  0
  1  7  1  0  0  0  0
  1  6  1  0  0  0  0
  2  1  2  0  0  0  0
  3  2  1  0  0  0  0
  3  4  2  0  0  0  0
  4  5  1  0  0  0  0
  5  6  2  0  0  0  0
  5  9  1  0  0  0  0
  8  2  1  0  0  0  0
  9 10  1  0  0  0  0
 10 11  1  0  0  0  0
 10 12  2  0  0  0  0
 12 13  1  0  0  0  0
 14 12  1  0  0  0  0
 15 14  2  0  0  0  0
 16  9  2  0  0  0  0
 16 15  1  0  0  0  0
 17  3  1  0  0  0  0
 18 19  2  0  0  0  0
 19 17  1  0  0  0  0
 19 22  1  0  0  0  0
 20 19  1  0  0  0  0
 21 20  1  0  0  0  0
 22 23  1  0  0  0  0
M  END
>  <minimizedAffinity>
-5.51942301

>  <minimizedRMSD>
0.407777011

$$$$
