
 OpenBabel03242521263D

 41 44  0  0  0  0  0  0  0  0999 V2000
   37.7110   31.3180   39.4610 C   0  0  0  0  0  0  0  0  0  0  0  0
   37.1020   32.5430   39.4460 C   0  0  0  0  0  0  0  0  0  0  0  0
   37.6920   33.7020   39.8930 C   0  0  0  0  0  0  0  0  0  0  0  0
   38.9490   33.5740   40.3650 N   0  0  0  0  0  0  0  0  0  0  0  0
   39.5520   32.3760   40.3840 C   0  0  0  0  0  0  0  0  0  0  0  0
   38.9670   31.2390   39.9430 N   0  0  0  0  0  0  0  0  0  0  0  0
   36.0950   32.5810   39.0550 H   0  0  0  0  0  0  0  0  0  0  0  0
   37.2040   34.6550   39.8770 H   0  0  0  0  0  0  0  0  0  0  0  0
   40.9320   32.2530   40.9070 C   0  0  0  0  0  0  0  0  0  0  0  0
   41.1630   31.5290   42.0520 C   0  0  0  0  0  0  0  0  0  0  0  0
   42.4040   31.3490   42.6260 C   0  0  0  0  0  0  0  0  0  0  0  0
   43.4850   31.9520   41.9880 C   0  0  0  0  0  0  0  0  0  0  0  0
   43.2620   32.6740   40.8500 C   0  0  0  0  0  0  0  0  0  0  0  0
   42.0120   32.8450   40.2840 C   0  0  0  0  0  0  0  0  0  0  0  0
   40.3510   31.0420   42.5830 H   0  0  0  0  0  0  0  0  0  0  0  0
   42.5530   30.7690   43.5350 H   0  0  0  0  0  0  0  0  0  0  0  0
   44.4630   31.8330   42.4060 H   0  0  0  0  0  0  0  0  0  0  0  0
   44.0980   33.1450   40.3460 H   0  0  0  0  0  0  0  0  0  0  0  0
   41.7540   33.5630   39.1440 O   0  0  0  0  0  0  0  0  0  0  0  0
   42.8260   31.7910   37.5530 O   0  0  0  0  0  0  0  0  0  0  0  0
   41.8510   32.9690   37.5590 P   0  0  0  0  0  0  0  0  0  0  0  0
   40.3920   32.5220   36.8940 O   0  0  0  0  0  0  0  0  0  0  0  0
   39.8970   33.2990   36.5280 H   0  0  0  0  0  0  0  0  0  0  0  0
   42.5420   34.1610   36.5730 O   0  0  0  0  0  0  0  0  0  0  0  0
   42.1170   34.1440   35.6610 H   0  0  0  0  0  0  0  0  0  0  0  0
   35.7140   29.0880   37.3650 C   0  0  0  0  0  0  0  0  0  0  0  0
   35.7840   27.8790   38.0910 C   0  0  0  0  0  0  0  0  0  0  0  0
   36.4970   27.8360   39.2640 C   0  0  0  0  0  0  0  0  0  0  0  0
   37.1200   28.9750   39.6940 N   0  0  0  0  0  0  0  0  0  0  0  0
   37.0360   30.1270   38.9750 C   0  0  0  0  0  0  0  0  0  0  0  0
   36.3430   30.1700   37.8330 N   0  0  0  0  0  0  0  0  0  0  0  0
   35.1420   29.1010   36.4340 H   0  0  0  0  0  0  0  0  0  0  0  0
   35.3000   26.9930   37.7590 H   0  0  0  0  0  0  0  0  0  0  0  0
   36.6520   26.6610   40.1120 C   0  0  0  0  0  0  0  0  0  0  0  0
   37.0230   26.7470   41.4370 C   0  0  0  0  0  0  0  0  0  0  0  0
   37.2150   27.7060   41.8980 H   0  0  0  0  0  0  0  0  0  0  0  0
   37.1890   25.6810   42.2960 C   0  0  0  0  0  0  0  0  0  0  0  0
   37.4780   25.7890   43.3190 H   0  0  0  0  0  0  0  0  0  0  0  0
   36.9670   24.4100   41.7990 C   0  0  0  0  0  3  0  0  0  0  0  0
   36.5960   24.3290   40.4720 C   0  0  0  0  0  3  0  0  0  0  0  0
   36.4450   25.3970   39.6670 N   0  0  0  0  0  0  0  0  0  0  0  0
  1  6  1  0  0  0  0
  2  1  2  0  0  0  0
  2  3  1  0  0  0  0
  3  4  2  0  0  0  0
  4  5  1  0  0  0  0
  5  9  1  0  0  0  0
  6  5  2  0  0  0  0
  7  2  1  0  0  0  0
  8  3  1  0  0  0  0
  9 10  1  0  0  0  0
 10 15  1  0  0  0  0
 10 11  2  0  0  0  0
 11 16  1  0  0  0  0
 12 17  1  0  0  0  0
 12 11  1  0  0  0  0
 13 12  2  0  0  0  0
 14 13  1  0  0  0  0
 14  9  2  0  0  0  0
 18 13  1  0  0  0  0
 19 14  1  0  0  0  0
 20 21  2  0  0  0  0
 21 19  1  0  0  0  0
 22 21  1  0  0  0  0
 23 22  1  0  0  0  0
 24 21  1  0  0  0  0
 25 24  1  0  0  0  0
 26 31  2  0  0  0  0
 26 27  1  0  0  0  0
 27 28  2  0  0  0  0
 28 29  1  0  0  0  0
 28 34  1  0  0  0  0
 30  1  1  0  0  0  0
 30 29  2  0  0  0  0
 31 30  1  0  0  0  0
 32 26  1  0  0  0  0
 33 27  1  0  0  0  0
 34 35  1  0  0  0  0
 35 36  1  0  0  0  0
 35 37  2  0  0  0  0
 37 38  1  0  0  0  0
 39 37  1  0  0  0  0
 40 39  2  0  0  0  0
 41 34  2  0  0  0  0
 41 40  1  0  0  0  0
M  END
>  <minimizedAffinity>
-6.9163208

$$$$

 OpenBabel03242521263D

 41 44  0  0  0  0  0  0  0  0999 V2000
   38.4300   31.8080   40.6390 C   0  0  0  0  0  0  0  0  0  0  0  0
   37.7690   32.9610   40.3130 C   0  0  0  0  0  0  0  0  0  0  0  0
   38.3920   34.1590   40.0530 C   0  0  0  0  0  0  0  0  0  0  0  0
   39.7380   34.1480   40.1380 N   0  0  0  0  0  0  0  0  0  0  0  0
   40.3940   33.0220   40.4580 C   0  0  0  0  0  0  0  0  0  0  0  0
   39.7750   31.8460   40.7120 N   0  0  0  0  0  0  0  0  0  0  0  0
   36.6910   32.9050   40.2610 H   0  0  0  0  0  0  0  0  0  0  0  0
   37.8630   35.0540   39.7990 H   0  0  0  0  0  0  0  0  0  0  0  0
   41.8720   33.0290   40.5470 C   0  0  0  0  0  0  0  0  0  0  0  0
   42.4910   33.7890   41.5110 C   0  0  0  0  0  0  0  0  0  0  0  0
   43.8560   33.8700   41.6840 C   0  0  0  0  0  0  0  0  0  0  0  0
   44.6450   33.1230   40.8130 C   0  0  0  0  0  0  0  0  0  0  0  0
   44.0370   32.3660   39.8530 C   0  0  0  0  0  0  0  0  0  0  0  0
   42.6650   32.2940   39.6910 C   0  0  0  0  0  0  0  0  0  0  0  0
   41.9150   34.3870   42.2110 H   0  0  0  0  0  0  0  0  0  0  0  0
   44.3160   34.4820   42.4580 H   0  0  0  0  0  0  0  0  0  0  0  0
   45.7100   33.1630   40.9190 H   0  0  0  0  0  0  0  0  0  0  0  0
   44.6430   31.7820   39.1720 H   0  0  0  0  0  0  0  0  0  0  0  0
   42.0220   31.5440   38.7380 O   0  0  0  0  0  0  0  0  0  0  0  0
   42.2870   30.9820   36.2010 O   0  0  0  0  0  0  0  0  0  0  0  0
   41.7030   32.0330   37.1460 P   0  0  0  0  0  0  0  0  0  0  0  0
   40.0930   32.2910   36.8090 O   0  0  0  0  0  0  0  0  0  0  0  0
   39.7920   33.1890   37.1010 H   0  0  0  0  0  0  0  0  0  0  0  0
   42.5480   33.4690   36.8390 O   0  0  0  0  0  0  0  0  0  0  0  0
   42.0020   34.0700   36.2440 H   0  0  0  0  0  0  0  0  0  0  0  0
   35.7340   29.3520   40.8640 C   0  0  0  0  0  0  0  0  0  0  0  0
   36.4090   28.2390   41.4090 C   0  0  0  0  0  0  0  0  0  0  0  0
   37.7500   28.3340   41.6900 C   0  0  0  0  0  0  0  0  0  0  0  0
   38.3920   29.5130   41.4290 N   0  0  0  0  0  0  0  0  0  0  0  0
   37.7170   30.5710   40.9040 C   0  0  0  0  0  0  0  0  0  0  0  0
   36.4120   30.4790   40.6300 N   0  0  0  0  0  0  0  0  0  0  0  0
   34.6660   29.2570   40.6480 H   0  0  0  0  0  0  0  0  0  0  0  0
   35.9120   27.3220   41.6130 H   0  0  0  0  0  0  0  0  0  0  0  0
   38.5690   27.2680   42.2530 C   0  0  0  0  0  0  0  0  0  0  0  0
   38.4180   25.9460   41.8870 C   0  0  0  0  0  0  0  0  0  0  0  0
   37.6750   25.6540   41.1580 H   0  0  0  0  0  0  0  0  0  0  0  0
   39.1540   24.8880   42.3760 C   0  0  0  0  0  0  0  0  0  0  0  0
   39.0080   23.8760   42.0680 H   0  0  0  0  0  0  0  0  0  0  0  0
   40.1320   25.1610   43.3160 C   0  0  0  0  0  3  0  0  0  0  0  0
   40.2790   26.4840   43.6790 C   0  0  0  0  0  3  0  0  0  0  0  0
   39.5380   27.4890   43.1750 N   0  0  0  0  0  0  0  0  0  0  0  0
  1  6  1  0  0  0  0
  1 30  1  0  0  0  0
  2  1  2  0  0  0  0
  3  4  2  0  0  0  0
  3  2  1  0  0  0  0
  4  5  1  0  0  0  0
  5  9  1  0  0  0  0
  5  6  2  0  0  0  0
  7  2  1  0  0  0  0
  8  3  1  0  0  0  0
  9 10  1  0  0  0  0
 10 11  2  0  0  0  0
 10 15  1  0  0  0  0
 11 16  1  0  0  0  0
 12 17  1  0  0  0  0
 12 11  1  0  0  0  0
 13 12  2  0  0  0  0
 14 13  1  0  0  0  0
 14  9  2  0  0  0  0
 18 13  1  0  0  0  0
 19 14  1  0  0  0  0
 20 21  2  0  0  0  0
 21 19  1  0  0  0  0
 22 23  1  0  0  0  0
 22 21  1  0  0  0  0
 24 21  1  0  0  0  0
 25 24  1  0  0  0  0
 26 27  1  0  0  0  0
 27 33  1  0  0  0  0
 27 28  2  0  0  0  0
 28 34  1  0  0  0  0
 29 28  1  0  0  0  0
 30 29  2  0  0  0  0
 31 26  2  0  0  0  0
 31 30  1  0  0  0  0
 32 26  1  0  0  0  0
 34 41  1  0  0  0  0
 35 34  2  0  0  0  0
 35 37  1  0  0  0  0
 36 35  1  0  0  0  0
 37 39  2  0  0  0  0
 38 37  1  0  0  0  0
 39 40  1  0  0  0  0
 41 40  2  0  0  0  0
M  END
>  <minimizedAffinity>
-6.80331755

$$$$

 OpenBabel03242521263D

 41 44  0  0  0  0  0  0  0  0999 V2000
   35.8530   27.7000   37.5480 C   0  0  0  0  0  0  0  0  0  0  0  0
   36.9710   27.7990   36.7670 C   0  0  0  0  0  0  0  0  0  0  0  0
   38.2500   27.9000   37.2620 C   0  0  0  0  0  0  0  0  0  0  0  0
   38.3580   27.8970   38.6060 N   0  0  0  0  0  0  0  0  0  0  0  0
   37.2660   27.8010   39.3790 C   0  0  0  0  0  0  0  0  0  0  0  0
   36.0110   27.7010   38.8860 N   0  0  0  0  0  0  0  0  0  0  0  0
   36.8190   27.7950   35.6970 H   0  0  0  0  0  0  0  0  0  0  0  0
   39.1180   27.9770   36.6400 H   0  0  0  0  0  0  0  0  0  0  0  0
   37.4040   27.8000   40.8540 C   0  0  0  0  0  0  0  0  0  0  0  0
   37.1210   26.6560   41.5620 C   0  0  0  0  0  0  0  0  0  0  0  0
   37.2160   26.5430   42.9330 C   0  0  0  0  0  0  0  0  0  0  0  0
   37.6260   27.6760   43.6300 C   0  0  0  0  0  0  0  0  0  0  0  0
   37.9080   28.8160   42.9330 C   0  0  0  0  0  0  0  0  0  0  0  0
   37.8100   28.9160   41.5570 C   0  0  0  0  0  0  0  0  0  0  0  0
   36.7980   25.7500   41.0600 H   0  0  0  0  0  0  0  0  0  0  0  0
   36.9840   25.6210   43.4640 H   0  0  0  0  0  0  0  0  0  0  0  0
   37.7100   27.6240   44.6960 H   0  0  0  0  0  0  0  0  0  0  0  0
   38.2290   29.7020   43.4680 H   0  0  0  0  0  0  0  0  0  0  0  0
   38.0850   30.0440   40.8260 O   0  0  0  0  0  0  0  0  0  0  0  0
   36.7120   31.2410   38.9550 O   0  0  0  0  0  0  0  0  0  0  0  0
   36.9810   31.2780   40.4600 P   0  0  0  0  0  0  0  0  0  0  0  0
   35.5520   31.2050   41.3110 O   0  0  0  0  0  0  0  0  0  0  0  0
   35.6370   31.6060   42.2140 H   0  0  0  0  0  0  0  0  0  0  0  0
   37.7130   32.7730   40.7750 O   0  0  0  0  0  0  0  0  0  0  0  0
   37.0340   33.4190   41.1400 H   0  0  0  0  0  0  0  0  0  0  0  0
   32.9480   26.3630   35.7790 C   0  0  0  0  0  0  0  0  0  0  0  0
   32.0320   27.4310   35.8900 C   0  0  0  0  0  0  0  0  0  0  0  0
   32.4060   28.5740   36.5540 C   0  0  0  0  0  0  0  0  0  0  0  0
   33.6620   28.6410   37.0890 N   0  0  0  0  0  0  0  0  0  0  0  0
   34.5260   27.5960   36.9670 C   0  0  0  0  0  0  0  0  0  0  0  0
   34.1630   26.4830   36.3220 N   0  0  0  0  0  0  0  0  0  0  0  0
   32.6320   25.4610   35.2470 H   0  0  0  0  0  0  0  0  0  0  0  0
   31.0550   27.3820   35.4750 H   0  0  0  0  0  0  0  0  0  0  0  0
   31.5650   29.7490   36.7420 C   0  0  0  0  0  0  0  0  0  0  0  0
   31.4090   30.7130   35.7680 C   0  0  0  0  0  0  0  0  0  0  0  0
   31.9150   30.6260   34.8160 H   0  0  0  0  0  0  0  0  0  0  0  0
   30.6330   31.8470   35.8760 C   0  0  0  0  0  0  0  0  0  0  0  0
   30.5370   32.5730   35.0970 H   0  0  0  0  0  0  0  0  0  0  0  0
   29.9450   32.0490   37.0590 C   0  0  0  0  0  3  0  0  0  0  0  0
   30.1040   31.0830   38.0310 C   0  0  0  0  0  3  0  0  0  0  0  0
   30.8730   29.9880   37.8840 N   0  0  0  0  0  0  0  0  0  0  0  0
  1  6  1  0  0  0  0
  2  3  1  0  0  0  0
  2  1  2  0  0  0  0
  3  4  2  0  0  0  0
  4  5  1  0  0  0  0
  5  9  1  0  0  0  0
  6  5  2  0  0  0  0
  7  2  1  0  0  0  0
  8  3  1  0  0  0  0
  9 14  2  0  0  0  0
  9 10  1  0  0  0  0
 10 11  2  0  0  0  0
 11 16  1  0  0  0  0
 11 12  1  0  0  0  0
 12 17  1  0  0  0  0
 13 18  1  0  0  0  0
 13 12  2  0  0  0  0
 14 13  1  0  0  0  0
 15 10  1  0  0  0  0
 19 14  1  0  0  0  0
 20 21  2  0  0  0  0
 21 24  1  0  0  0  0
 21 19  1  0  0  0  0
 21 22  1  0  0  0  0
 22 23  1  0  0  0  0
 24 25  1  0  0  0  0
 26 27  2  0  0  0  0
 26 31  1  0  0  0  0
 27 28  1  0  0  0  0
 28 34  1  0  0  0  0
 28 29  2  0  0  0  0
 30 29  1  0  0  0  0
 30  1  1  0  0  0  0
 31 30  2  0  0  0  0
 32 26  1  0  0  0  0
 33 27  1  0  0  0  0
 34 41  1  0  0  0  0
 35 37  1  0  0  0  0
 35 34  2  0  0  0  0
 36 35  1  0  0  0  0
 37 39  2  0  0  0  0
 38 37  1  0  0  0  0
 39 40  1  0  0  0  0
 41 40  2  0  0  0  0
M  END
>  <minimizedAffinity>
-6.70835304

$$$$

 OpenBabel03242521263D

 41 44  0  0  0  0  0  0  0  0999 V2000
   35.9160   27.6730   36.4820 C   0  0  0  0  0  0  0  0  0  0  0  0
   37.0990   28.1230   35.9640 C   0  0  0  0  0  0  0  0  0  0  0  0
   38.2930   28.1110   36.6440 C   0  0  0  0  0  0  0  0  0  0  0  0
   38.2470   27.6140   37.8980 N   0  0  0  0  0  0  0  0  0  0  0  0
   37.0900   27.1710   38.4140 C   0  0  0  0  0  0  0  0  0  0  0  0
   35.9190   27.1860   37.7390 N   0  0  0  0  0  0  0  0  0  0  0  0
   37.0720   28.5080   34.9540 H   0  0  0  0  0  0  0  0  0  0  0  0
   39.2130   28.4670   36.2270 H   0  0  0  0  0  0  0  0  0  0  0  0
   37.0580   26.6310   39.7920 C   0  0  0  0  0  0  0  0  0  0  0  0
   36.9810   25.2720   39.9880 C   0  0  0  0  0  0  0  0  0  0  0  0
   36.9450   24.6610   41.2230 C   0  0  0  0  0  0  0  0  0  0  0  0
   36.9900   25.4940   42.3380 C   0  0  0  0  0  0  0  0  0  0  0  0
   37.0650   26.8450   42.1510 C   0  0  0  0  0  0  0  0  0  0  0  0
   37.1010   27.4450   40.9050 C   0  0  0  0  0  0  0  0  0  0  0  0
   36.9450   24.5850   39.1480 H   0  0  0  0  0  0  0  0  0  0  0  0
   36.8850   23.5810   41.3440 H   0  0  0  0  0  0  0  0  0  0  0  0
   36.9630   25.0530   43.3130 H   0  0  0  0  0  0  0  0  0  0  0  0
   37.1000   27.5010   43.0130 H   0  0  0  0  0  0  0  0  0  0  0  0
   37.1760   28.7970   40.6830 O   0  0  0  0  0  0  0  0  0  0  0  0
   34.5910   28.9710   40.3580 O   0  0  0  0  0  0  0  0  0  0  0  0
   35.8650   29.8170   40.3440 P   0  0  0  0  0  0  0  0  0  0  0  0
   35.7130   31.1170   41.3720 O   0  0  0  0  0  0  0  0  0  0  0  0
   36.3090   31.8670   41.1140 H   0  0  0  0  0  0  0  0  0  0  0  0
   36.0270   30.4040   38.7640 O   0  0  0  0  0  0  0  0  0  0  0  0
   35.7010   31.3550   38.7130 H   0  0  0  0  0  0  0  0  0  0  0  0
   33.2270   26.6950   34.2100 C   0  0  0  0  0  0  0  0  0  0  0  0
   32.3690   27.8130   34.2880 C   0  0  0  0  0  0  0  0  0  0  0  0
   32.7090   28.8690   35.0990 C   0  0  0  0  0  0  0  0  0  0  0  0
   33.8750   28.8020   35.8090 N   0  0  0  0  0  0  0  0  0  0  0  0
   34.6840   27.7110   35.7140 C   0  0  0  0  0  0  0  0  0  0  0  0
   34.3540   26.6840   34.9260 N   0  0  0  0  0  0  0  0  0  0  0  0
   32.9390   25.8650   33.5590 H   0  0  0  0  0  0  0  0  0  0  0  0
   31.4620   27.8690   33.7370 H   0  0  0  0  0  0  0  0  0  0  0  0
   31.9200   30.0820   35.2740 C   0  0  0  0  0  0  0  0  0  0  0  0
   31.2680   30.3780   36.4530 C   0  0  0  0  0  0  0  0  0  0  0  0
   31.3230   29.7080   37.3000 H   0  0  0  0  0  0  0  0  0  0  0  0
   30.5070   31.5030   36.6900 C   0  0  0  0  0  0  0  0  0  0  0  0
   30.0160   31.6970   37.6190 H   0  0  0  0  0  0  0  0  0  0  0  0
   30.3760   32.4220   35.6650 C   0  0  0  0  0  3  0  0  0  0  0  0
   31.0300   32.1220   34.4870 C   0  0  0  0  0  3  0  0  0  0  0  0
   31.7650   31.0100   34.2980 N   0  0  0  0  0  0  0  0  0  0  0  0
  1  6  1  0  0  0  0
  2  1  2  0  0  0  0
  2  3  1  0  0  0  0
  3  4  2  0  0  0  0
  4  5  1  0  0  0  0
  5  9  1  0  0  0  0
  6  5  2  0  0  0  0
  7  2  1  0  0  0  0
  8  3  1  0  0  0  0
  9 10  2  0  0  0  0
  9 14  1  0  0  0  0
 10 11  1  0  0  0  0
 11 16  1  0  0  0  0
 11 12  2  0  0  0  0
 12 17  1  0  0  0  0
 13 12  1  0  0  0  0
 13 18  1  0  0  0  0
 14 13  2  0  0  0  0
 15 10  1  0  0  0  0
 19 14  1  0  0  0  0
 21 20  2  0  0  0  0
 21 19  1  0  0  0  0
 21 22  1  0  0  0  0
 23 22  1  0  0  0  0
 24 21  1  0  0  0  0
 25 24  1  0  0  0  0
 26 27  2  0  0  0  0
 26 31  1  0  0  0  0
 27 28  1  0  0  0  0
 28 34  1  0  0  0  0
 28 29  2  0  0  0  0
 30 29  1  0  0  0  0
 30  1  1  0  0  0  0
 31 30  2  0  0  0  0
 32 26  1  0  0  0  0
 33 27  1  0  0  0  0
 34 35  1  0  0  0  0
 35 37  2  0  0  0  0
 35 36  1  0  0  0  0
 37 38  1  0  0  0  0
 39 37  1  0  0  0  0
 40 39  2  0  0  0  0
 41 40  1  0  0  0  0
 41 34  2  0  0  0  0
M  END
>  <minimizedAffinity>
-6.23627806

$$$$

 OpenBabel03242521263D

 41 44  0  0  0  0  0  0  0  0999 V2000
   38.1120   31.7250   40.2400 C   0  0  0  0  0  0  0  0  0  0  0  0
   37.4910   32.9420   40.3000 C   0  0  0  0  0  0  0  0  0  0  0  0
   38.0930   34.1310   39.9630 C   0  0  0  0  0  0  0  0  0  0  0  0
   39.3760   34.0420   39.5550 N   0  0  0  0  0  0  0  0  0  0  0  0
   39.9930   32.8520   39.4950 C   0  0  0  0  0  0  0  0  0  0  0  0
   39.3940   31.6850   39.8270 N   0  0  0  0  0  0  0  0  0  0  0  0
   36.4630   32.9480   40.6330 H   0  0  0  0  0  0  0  0  0  0  0  0
   37.5960   35.0780   40.0140 H   0  0  0  0  0  0  0  0  0  0  0  0
   41.4010   32.7730   39.0460 C   0  0  0  0  0  0  0  0  0  0  0  0
   41.6820   32.6950   37.7030 C   0  0  0  0  0  0  0  0  0  0  0  0
   42.9540   32.6180   37.1740 C   0  0  0  0  0  0  0  0  0  0  0  0
   44.0120   32.6200   38.0790 C   0  0  0  0  0  0  0  0  0  0  0  0
   43.7390   32.6960   39.4150 C   0  0  0  0  0  0  0  0  0  0  0  0
   42.4590   32.7740   39.9320 C   0  0  0  0  0  0  0  0  0  0  0  0
   40.8890   32.6910   36.9610 H   0  0  0  0  0  0  0  0  0  0  0  0
   43.1430   32.5580   36.1030 H   0  0  0  0  0  0  0  0  0  0  0  0
   45.0120   32.5610   37.7020 H   0  0  0  0  0  0  0  0  0  0  0  0
   44.5570   32.6990   40.1260 H   0  0  0  0  0  0  0  0  0  0  0  0
   42.1510   32.8520   41.2670 O   0  0  0  0  0  0  0  0  0  0  0  0
   42.2660   30.2560   41.5290 O   0  0  0  0  0  0  0  0  0  0  0  0
   41.9810   31.5340   42.3200 P   0  0  0  0  0  0  0  0  0  0  0  0
   42.9380   31.6050   43.6800 O   0  0  0  0  0  0  0  0  0  0  0  0
   42.5360   32.1690   44.3890 H   0  0  0  0  0  0  0  0  0  0  0  0
   40.3630   31.4360   42.8120 O   0  0  0  0  0  0  0  0  0  0  0  0
   40.3120   31.1360   43.7710 H   0  0  0  0  0  0  0  0  0  0  0  0
   35.4630   29.2470   40.6830 C   0  0  0  0  0  0  0  0  0  0  0  0
   36.1610   28.1940   41.3130 C   0  0  0  0  0  0  0  0  0  0  0  0
   37.5030   28.3360   41.5750 C   0  0  0  0  0  0  0  0  0  0  0  0
   38.1210   29.5010   41.2150 N   0  0  0  0  0  0  0  0  0  0  0  0
   37.4240   30.5010   40.6100 C   0  0  0  0  0  0  0  0  0  0  0  0
   36.1190   30.3630   40.3540 N   0  0  0  0  0  0  0  0  0  0  0  0
   34.3960   29.1150   40.4830 H   0  0  0  0  0  0  0  0  0  0  0  0
   35.6830   27.2880   41.5940 H   0  0  0  0  0  0  0  0  0  0  0  0
   38.3440   27.3350   42.2180 C   0  0  0  0  0  0  0  0  0  0  0  0
   39.3990   27.6710   43.0400 C   0  0  0  0  0  0  0  0  0  0  0  0
   39.6400   28.7060   43.2380 H   0  0  0  0  0  0  0  0  0  0  0  0
   40.2350   26.7800   43.6790 C   0  0  0  0  0  0  0  0  0  0  0  0
   41.0440   27.0800   44.3100 H   0  0  0  0  0  0  0  0  0  0  0  0
   40.0080   25.4290   43.4880 C   0  0  0  0  0  3  0  0  0  0  0  0
   38.9510   25.0980   42.6650 C   0  0  0  0  0  3  0  0  0  0  0  0
   38.1580   26.0010   42.0600 N   0  0  0  0  0  0  0  0  0  0  0  0
  1  2  1  0  0  0  0
  1 30  1  0  0  0  0
  2  7  1  0  0  0  0
  3  8  1  0  0  0  0
  3  2  2  0  0  0  0
  4  3  1  0  0  0  0
  5  4  2  0  0  0  0
  5  6  1  0  0  0  0
  6  1  2  0  0  0  0
  9  5  1  0  0  0  0
  9 14  1  0  0  0  0
 10  9  2  0  0  0  0
 11 10  1  0  0  0  0
 11 12  2  0  0  0  0
 12 13  1  0  0  0  0
 13 14  2  0  0  0  0
 13 18  1  0  0  0  0
 14 19  1  0  0  0  0
 15 10  1  0  0  0  0
 16 11  1  0  0  0  0
 17 12  1  0  0  0  0
 19 21  1  0  0  0  0
 20 21  2  0  0  0  0
 21 24  1  0  0  0  0
 21 22  1  0  0  0  0
 22 23  1  0  0  0  0
 24 25  1  0  0  0  0
 26 27  1  0  0  0  0
 27 28  2  0  0  0  0
 27 33  1  0  0  0  0
 28 34  1  0  0  0  0
 29 28  1  0  0  0  0
 30 29  2  0  0  0  0
 31 30  1  0  0  0  0
 31 26  2  0  0  0  0
 32 26  1  0  0  0  0
 34 35  1  0  0  0  0
 35 36  1  0  0  0  0
 35 37  2  0  0  0  0
 37 38  1  0  0  0  0
 39 37  1  0  0  0  0
 40 39  2  0  0  0  0
 41 34  2  0  0  0  0
 41 40  1  0  0  0  0
M  END
>  <minimizedAffinity>
-6.19857407

$$$$

 OpenBabel03242521263D

 41 44  0  0  0  0  0  0  0  0999 V2000
   38.0620   30.5090   40.7690 C   0  0  0  0  0  0  0  0  0  0  0  0
   37.1870   31.5510   40.6290 C   0  0  0  0  0  0  0  0  0  0  0  0
   37.4540   32.6880   39.9040 C   0  0  0  0  0  0  0  0  0  0  0  0
   38.6650   32.7330   39.3120 N   0  0  0  0  0  0  0  0  0  0  0  0
   39.5290   31.7150   39.4450 C   0  0  0  0  0  0  0  0  0  0  0  0
   39.2600   30.5990   40.1590 N   0  0  0  0  0  0  0  0  0  0  0  0
   36.2330   31.4550   41.1270 H   0  0  0  0  0  0  0  0  0  0  0  0
   36.7610   33.4980   39.8020 H   0  0  0  0  0  0  0  0  0  0  0  0
   40.8540   31.7820   38.7880 C   0  0  0  0  0  0  0  0  0  0  0  0
   40.9990   31.3220   37.5010 C   0  0  0  0  0  0  0  0  0  0  0  0
   42.1830   31.3370   36.7950 C   0  0  0  0  0  0  0  0  0  0  0  0
   43.2980   31.8560   37.4480 C   0  0  0  0  0  0  0  0  0  0  0  0
   43.1610   32.3150   38.7270 C   0  0  0  0  0  0  0  0  0  0  0  0
   41.9670   32.2950   39.4240 C   0  0  0  0  0  0  0  0  0  0  0  0
   40.1570   30.9090   36.9540 H   0  0  0  0  0  0  0  0  0  0  0  0
   42.2640   30.9640   35.7750 H   0  0  0  0  0  0  0  0  0  0  0  0
   44.2340   31.8820   36.9290 H   0  0  0  0  0  0  0  0  0  0  0  0
   44.0230   32.7210   39.2420 H   0  0  0  0  0  0  0  0  0  0  0  0
   41.7950   32.7470   40.7080 O   0  0  0  0  0  0  0  0  0  0  0  0
   42.8330   30.5680   41.7060 O   0  0  0  0  0  0  0  0  0  0  0  0
   42.1660   31.8810   42.1180 P   0  0  0  0  0  0  0  0  0  0  0  0
   43.1190   32.7040   43.2060 O   0  0  0  0  0  0  0  0  0  0  0  0
   42.5890   33.3190   43.7740 H   0  0  0  0  0  0  0  0  0  0  0  0
   40.7200   31.4560   42.8910 O   0  0  0  0  0  0  0  0  0  0  0  0
   40.8370   31.4990   43.8890 H   0  0  0  0  0  0  0  0  0  0  0  0
   37.3370   28.3420   43.6210 C   0  0  0  0  0  0  0  0  0  0  0  0
   37.0880   27.1080   42.9840 C   0  0  0  0  0  0  0  0  0  0  0  0
   37.1670   27.0270   41.6150 C   0  0  0  0  0  0  0  0  0  0  0  0
   37.4880   28.1540   40.9090 N   0  0  0  0  0  0  0  0  0  0  0  0
   37.7240   29.3310   41.5490 C   0  0  0  0  0  0  0  0  0  0  0  0
   37.6460   29.4110   42.8810 N   0  0  0  0  0  0  0  0  0  0  0  0
   37.2690   28.3860   44.7120 H   0  0  0  0  0  0  0  0  0  0  0  0
   36.8390   26.2310   43.5300 H   0  0  0  0  0  0  0  0  0  0  0  0
   36.9360   25.8220   40.8290 C   0  0  0  0  0  0  0  0  0  0  0  0
   37.2030   24.5580   41.3150 C   0  0  0  0  0  0  0  0  0  0  0  0
   37.5990   24.4200   42.3110 H   0  0  0  0  0  0  0  0  0  0  0  0
   37.0100   23.3770   40.6310 C   0  0  0  0  0  0  0  0  0  0  0  0
   37.2290   22.4150   41.0410 H   0  0  0  0  0  0  0  0  0  0  0  0
   36.5060   23.4500   39.3440 C   0  0  0  0  0  3  0  0  0  0  0  0
   36.2400   24.7160   38.8630 C   0  0  0  0  0  3  0  0  0  0  0  0
   36.4440   25.8450   39.5660 N   0  0  0  0  0  0  0  0  0  0  0  0
  1 30  1  0  0  0  0
  2  1  1  0  0  0  0
  2  7  1  0  0  0  0
  3  2  2  0  0  0  0
  4  5  2  0  0  0  0
  4  3  1  0  0  0  0
  5  6  1  0  0  0  0
  6  1  2  0  0  0  0
  8  3  1  0  0  0  0
  9 14  1  0  0  0  0
  9  5  1  0  0  0  0
 10  9  2  0  0  0  0
 11 12  2  0  0  0  0
 11 10  1  0  0  0  0
 12 13  1  0  0  0  0
 13 18  1  0  0  0  0
 13 14  2  0  0  0  0
 14 19  1  0  0  0  0
 15 10  1  0  0  0  0
 16 11  1  0  0  0  0
 17 12  1  0  0  0  0
 19 21  1  0  0  0  0
 20 21  2  0  0  0  0
 21 24  1  0  0  0  0
 21 22  1  0  0  0  0
 22 23  1  0  0  0  0
 24 25  1  0  0  0  0
 26 32  1  0  0  0  0
 27 33  1  0  0  0  0
 27 26  1  0  0  0  0
 28 27  2  0  0  0  0
 29 30  2  0  0  0  0
 29 28  1  0  0  0  0
 30 31  1  0  0  0  0
 31 26  2  0  0  0  0
 34 35  1  0  0  0  0
 34 28  1  0  0  0  0
 35 36  1  0  0  0  0
 37 38  1  0  0  0  0
 37 35  2  0  0  0  0
 39 37  1  0  0  0  0
 40 39  2  0  0  0  0
 40 41  1  0  0  0  0
 41 34  2  0  0  0  0
M  END
>  <minimizedAffinity>
-6.12414122

$$$$

 OpenBabel03242521263D

 41 44  0  0  0  0  0  0  0  0999 V2000
   35.7760   28.6990   39.7090 C   0  0  0  0  0  0  0  0  0  0  0  0
   35.6220   29.9900   40.1340 C   0  0  0  0  0  0  0  0  0  0  0  0
   36.2770   30.5280   41.2170 C   0  0  0  0  0  0  0  0  0  0  0  0
   37.1120   29.6930   41.8690 N   0  0  0  0  0  0  0  0  0  0  0  0
   37.2680   28.4250   41.4590 C   0  0  0  0  0  0  0  0  0  0  0  0
   36.6220   27.9020   40.3930 N   0  0  0  0  0  0  0  0  0  0  0  0
   34.9390   30.6090   39.5700 H   0  0  0  0  0  0  0  0  0  0  0  0
   36.1470   31.5400   41.5400 H   0  0  0  0  0  0  0  0  0  0  0  0
   38.1890   27.5230   42.1880 C   0  0  0  0  0  0  0  0  0  0  0  0
   37.9950   26.1630   42.1310 C   0  0  0  0  0  0  0  0  0  0  0  0
   38.7890   25.2340   42.7680 C   0  0  0  0  0  0  0  0  0  0  0  0
   39.8550   25.7250   43.5160 C   0  0  0  0  0  0  0  0  0  0  0  0
   40.0540   27.0740   43.5770 C   0  0  0  0  0  0  0  0  0  0  0  0
   39.2500   27.9970   42.9320 C   0  0  0  0  0  0  0  0  0  0  0  0
   37.1760   25.7360   41.5600 H   0  0  0  0  0  0  0  0  0  0  0  0
   38.6070   24.1620   42.7030 H   0  0  0  0  0  0  0  0  0  0  0  0
   40.4920   25.0310   44.0240 H   0  0  0  0  0  0  0  0  0  0  0  0
   40.8820   27.4650   44.1560 H   0  0  0  0  0  0  0  0  0  0  0  0
   39.4220   29.3580   42.9720 O   0  0  0  0  0  0  0  0  0  0  0  0
   41.9390   30.0420   43.0800 O   0  0  0  0  0  0  0  0  0  0  0  0
   40.6800   30.2180   42.2300 P   0  0  0  0  0  0  0  0  0  0  0  0
   40.9780   29.7870   40.6500 O   0  0  0  0  0  0  0  0  0  0  0  0
   40.3570   30.2340   40.0200 H   0  0  0  0  0  0  0  0  0  0  0  0
   40.3080   31.8690   42.2710 O   0  0  0  0  0  0  0  0  0  0  0  0
   40.6290   32.3160   41.4280 H   0  0  0  0  0  0  0  0  0  0  0  0
   34.6550   26.4550   37.0510 C   0  0  0  0  0  0  0  0  0  0  0  0
   33.6910   27.2510   36.3960 C   0  0  0  0  0  0  0  0  0  0  0  0
   33.4370   28.5200   36.8580 C   0  0  0  0  0  0  0  0  0  0  0  0
   34.1320   28.9740   37.9450 N   0  0  0  0  0  0  0  0  0  0  0  0
   35.0570   28.1850   38.5570 C   0  0  0  0  0  0  0  0  0  0  0  0
   35.3040   26.9510   38.1090 N   0  0  0  0  0  0  0  0  0  0  0  0
   34.8440   25.4490   36.6690 H   0  0  0  0  0  0  0  0  0  0  0  0
   33.1500   26.9020   35.5510 H   0  0  0  0  0  0  0  0  0  0  0  0
   32.4720   29.4470   36.2800 C   0  0  0  0  0  0  0  0  0  0  0  0
   32.5080   29.8230   34.9540 C   0  0  0  0  0  0  0  0  0  0  0  0
   33.2680   29.4350   34.2880 H   0  0  0  0  0  0  0  0  0  0  0  0
   31.6320   30.6920   34.3410 C   0  0  0  0  0  0  0  0  0  0  0  0
   31.6930   30.9600   33.3080 H   0  0  0  0  0  0  0  0  0  0  0  0
   30.6230   31.2430   35.1110 C   0  0  0  0  0  3  0  0  0  0  0  0
   30.5910   30.8640   36.4370 C   0  0  0  0  0  3  0  0  0  0  0  0
   31.4680   30.0100   36.9960 N   0  0  0  0  0  0  0  0  0  0  0  0
  1  2  2  0  0  0  0
  1  6  1  0  0  0  0
  2  3  1  0  0  0  0
  3  8  1  0  0  0  0
  3  4  2  0  0  0  0
  5  4  1  0  0  0  0
  5  9  1  0  0  0  0
  6  5  2  0  0  0  0
  7  2  1  0  0  0  0
  9 14  1  0  0  0  0
 10  9  2  0  0  0  0
 10 11  1  0  0  0  0
 11 12  2  0  0  0  0
 12 13  1  0  0  0  0
 12 17  1  0  0  0  0
 13 18  1  0  0  0  0
 14 19  1  0  0  0  0
 14 13  2  0  0  0  0
 15 10  1  0  0  0  0
 16 11  1  0  0  0  0
 21 24  1  0  0  0  0
 21 19  1  0  0  0  0
 21 20  2  0  0  0  0
 22 21  1  0  0  0  0
 23 22  1  0  0  0  0
 25 24  1  0  0  0  0
 26 31  1  0  0  0  0
 27 28  1  0  0  0  0
 27 26  2  0  0  0  0
 28 29  2  0  0  0  0
 29 30  1  0  0  0  0
 30  1  1  0  0  0  0
 31 30  2  0  0  0  0
 32 26  1  0  0  0  0
 33 27  1  0  0  0  0
 34 28  1  0  0  0  0
 34 41  1  0  0  0  0
 35 34  2  0  0  0  0
 36 35  1  0  0  0  0
 37 35  1  0  0  0  0
 37 39  2  0  0  0  0
 38 37  1  0  0  0  0
 39 40  1  0  0  0  0
 40 41  2  0  0  0  0
M  END
>  <minimizedAffinity>
-6.05710506

$$$$

 OpenBabel03242521263D

 41 44  0  0  0  0  0  0  0  0999 V2000
   37.7490   25.3320   40.9330 C   0  0  0  0  0  0  0  0  0  0  0  0
   37.0990   24.1290   40.9040 C   0  0  0  0  0  0  0  0  0  0  0  0
   36.0920   23.8180   40.0210 C   0  0  0  0  0  0  0  0  0  0  0  0
   35.7590   24.7920   39.1480 N   0  0  0  0  0  0  0  0  0  0  0  0
   36.3910   25.9750   39.1710 C   0  0  0  0  0  0  0  0  0  0  0  0
   37.3820   26.2740   40.0430 N   0  0  0  0  0  0  0  0  0  0  0  0
   37.4120   23.3890   41.6280 H   0  0  0  0  0  0  0  0  0  0  0  0
   35.5910   22.8720   40.0080 H   0  0  0  0  0  0  0  0  0  0  0  0
   36.0120   27.0320   38.2070 C   0  0  0  0  0  0  0  0  0  0  0  0
   36.1120   26.7890   36.8580 C   0  0  0  0  0  0  0  0  0  0  0  0
   35.7860   27.6980   35.8730 C   0  0  0  0  0  0  0  0  0  0  0  0
   35.3280   28.9430   36.2950 C   0  0  0  0  0  0  0  0  0  0  0  0
   35.2270   29.1920   37.6340 C   0  0  0  0  0  0  0  0  0  0  0  0
   35.5560   28.2700   38.6110 C   0  0  0  0  0  0  0  0  0  0  0  0
   36.4640   25.8320   36.4830 H   0  0  0  0  0  0  0  0  0  0  0  0
   35.8760   27.4730   34.8120 H   0  0  0  0  0  0  0  0  0  0  0  0
   35.0670   29.6730   35.5570 H   0  0  0  0  0  0  0  0  0  0  0  0
   34.8710   30.1580   37.9710 H   0  0  0  0  0  0  0  0  0  0  0  0
   35.4670   28.4880   39.9630 O   0  0  0  0  0  0  0  0  0  0  0  0
   37.5990   29.9970   39.9840 O   0  0  0  0  0  0  0  0  0  0  0  0
   36.4100   29.5810   40.8520 P   0  0  0  0  0  0  0  0  0  0  0  0
   35.5890   30.9220   41.3980 O   0  0  0  0  0  0  0  0  0  0  0  0
   35.0890   30.7370   42.2350 H   0  0  0  0  0  0  0  0  0  0  0  0
   37.0610   28.7730   42.1910 O   0  0  0  0  0  0  0  0  0  0  0  0
   37.0950   29.3920   42.9840 H   0  0  0  0  0  0  0  0  0  0  0  0
   40.2400   24.8450   43.5620 C   0  0  0  0  0  0  0  0  0  0  0  0
   40.7900   26.1400   43.6760 C   0  0  0  0  0  0  0  0  0  0  0  0
   40.3150   27.1470   42.8710 C   0  0  0  0  0  0  0  0  0  0  0  0
   39.3190   26.8600   41.9800 N   0  0  0  0  0  0  0  0  0  0  0  0
   38.8070   25.6020   41.8910 C   0  0  0  0  0  0  0  0  0  0  0  0
   39.2680   24.6220   42.6740 N   0  0  0  0  0  0  0  0  0  0  0  0
   40.6310   24.0570   44.2120 H   0  0  0  0  0  0  0  0  0  0  0  0
   41.5630   26.3660   44.3680 H   0  0  0  0  0  0  0  0  0  0  0  0
   40.7890   28.5260   42.8820 C   0  0  0  0  0  0  0  0  0  0  0  0
   42.0880   28.8600   43.2020 C   0  0  0  0  0  0  0  0  0  0  0  0
   42.8100   28.0970   43.4600 H   0  0  0  0  0  0  0  0  0  0  0  0
   42.6040   30.1380   43.2340 C   0  0  0  0  0  0  0  0  0  0  0  0
   43.6190   30.3580   43.4870 H   0  0  0  0  0  0  0  0  0  0  0  0
   41.7570   31.1850   42.9190 C   0  0  0  0  0  3  0  0  0  0  0  0
   40.4580   30.8460   42.6000 C   0  0  0  0  0  3  0  0  0  0  0  0
   39.9950   29.5820   42.5810 N   0  0  0  0  0  0  0  0  0  0  0  0
  1 30  1  0  0  0  0
  2  1  1  0  0  0  0
  2  7  1  0  0  0  0
  3  2  2  0  0  0  0
  4  5  2  0  0  0  0
  4  3  1  0  0  0  0
  5  6  1  0  0  0  0
  6  1  2  0  0  0  0
  8  3  1  0  0  0  0
  9 14  1  0  0  0  0
  9  5  1  0  0  0  0
 10  9  2  0  0  0  0
 11 12  2  0  0  0  0
 11 10  1  0  0  0  0
 12 13  1  0  0  0  0
 13 18  1  0  0  0  0
 13 14  2  0  0  0  0
 14 19  1  0  0  0  0
 15 10  1  0  0  0  0
 16 11  1  0  0  0  0
 17 12  1  0  0  0  0
 19 21  1  0  0  0  0
 20 21  2  0  0  0  0
 21 22  1  0  0  0  0
 21 24  1  0  0  0  0
 22 23  1  0  0  0  0
 24 25  1  0  0  0  0
 26 27  1  0  0  0  0
 26 32  1  0  0  0  0
 27 33  1  0  0  0  0
 28 34  1  0  0  0  0
 28 27  2  0  0  0  0
 29 28  1  0  0  0  0
 30 29  2  0  0  0  0
 30 31  1  0  0  0  0
 31 26  2  0  0  0  0
 34 35  1  0  0  0  0
 35 37  2  0  0  0  0
 35 36  1  0  0  0  0
 37 38  1  0  0  0  0
 39 37  1  0  0  0  0
 40 39  2  0  0  0  0
 41 40  1  0  0  0  0
 41 34  2  0  0  0  0
M  END
>  <minimizedAffinity>
-6.01579142

$$$$

 OpenBabel03242521263D

 41 44  0  0  0  0  0  0  0  0999 V2000
   35.7800   28.5480   36.7160 C   0  0  0  0  0  0  0  0  0  0  0  0
   36.8050   27.8660   36.1200 C   0  0  0  0  0  0  0  0  0  0  0  0
   38.1360   28.0970   36.3750 C   0  0  0  0  0  0  0  0  0  0  0  0
   38.3990   29.0650   37.2770 N   0  0  0  0  0  0  0  0  0  0  0  0
   37.3990   29.7390   37.8660 C   0  0  0  0  0  0  0  0  0  0  0  0
   36.0920   29.5070   37.6100 N   0  0  0  0  0  0  0  0  0  0  0  0
   36.5300   27.1020   35.4070 H   0  0  0  0  0  0  0  0  0  0  0  0
   38.9290   27.5560   35.9010 H   0  0  0  0  0  0  0  0  0  0  0  0
   37.7070   30.8000   38.8530 C   0  0  0  0  0  0  0  0  0  0  0  0
   37.7310   32.1140   38.4520 C   0  0  0  0  0  0  0  0  0  0  0  0
   38.0040   33.1790   39.2840 C   0  0  0  0  0  0  0  0  0  0  0  0
   38.2720   32.8830   40.6180 C   0  0  0  0  0  0  0  0  0  0  0  0
   38.2500   31.5780   41.0230 C   0  0  0  0  0  0  0  0  0  0  0  0
   37.9730   30.5190   40.1770 C   0  0  0  0  0  0  0  0  0  0  0  0
   37.5290   32.3920   37.4220 H   0  0  0  0  0  0  0  0  0  0  0  0
   38.0160   34.2110   38.9350 H   0  0  0  0  0  0  0  0  0  0  0  0
   38.4880   33.6860   41.2920 H   0  0  0  0  0  0  0  0  0  0  0  0
   38.4560   31.3380   42.0590 H   0  0  0  0  0  0  0  0  0  0  0  0
   37.9430   29.1990   40.5500 O   0  0  0  0  0  0  0  0  0  0  0  0
   35.3940   28.8310   40.9810 O   0  0  0  0  0  0  0  0  0  0  0  0
   36.7720   28.4790   41.5430 P   0  0  0  0  0  0  0  0  0  0  0  0
   36.9280   26.8310   41.7180 O   0  0  0  0  0  0  0  0  0  0  0  0
   37.6000   26.5930   42.4080 H   0  0  0  0  0  0  0  0  0  0  0  0
   36.8520   29.1880   43.0790 O   0  0  0  0  0  0  0  0  0  0  0  0
   36.6700   28.4970   43.7880 H   0  0  0  0  0  0  0  0  0  0  0  0
   32.8000   26.8490   35.4580 C   0  0  0  0  0  0  0  0  0  0  0  0
   31.7800   27.7470   35.8380 C   0  0  0  0  0  0  0  0  0  0  0  0
   32.1110   28.9000   36.5080 C   0  0  0  0  0  0  0  0  0  0  0  0
   33.4270   29.1420   36.7850 N   0  0  0  0  0  0  0  0  0  0  0  0
   34.3910   28.2600   36.4060 C   0  0  0  0  0  0  0  0  0  0  0  0
   34.0700   27.1370   35.7550 N   0  0  0  0  0  0  0  0  0  0  0  0
   32.5170   25.9370   34.9250 H   0  0  0  0  0  0  0  0  0  0  0  0
   30.7560   27.5610   35.6240 H   0  0  0  0  0  0  0  0  0  0  0  0
   31.1630   29.9110   36.9590 C   0  0  0  0  0  0  0  0  0  0  0  0
   30.9440   31.0830   36.2640 C   0  0  0  0  0  0  0  0  0  0  0  0
   31.4780   31.2920   35.3470 H   0  0  0  0  0  0  0  0  0  0  0  0
   30.0670   32.0820   36.6290 C   0  0  0  0  0  0  0  0  0  0  0  0
   29.9240   32.9770   36.0640 H   0  0  0  0  0  0  0  0  0  0  0  0
   29.3360   31.9070   37.7910 C   0  0  0  0  0  3  0  0  0  0  0  0
   29.5590   30.7340   38.4820 C   0  0  0  0  0  3  0  0  0  0  0  0
   30.4270   29.7830   38.0890 N   0  0  0  0  0  0  0  0  0  0  0  0
  1  6  1  0  0  0  0
  2  3  1  0  0  0  0
  2  1  2  0  0  0  0
  3  4  2  0  0  0  0
  4  5  1  0  0  0  0
  5  9  1  0  0  0  0
  6  5  2  0  0  0  0
  7  2  1  0  0  0  0
  8  3  1  0  0  0  0
  9 14  1  0  0  0  0
 10  9  2  0  0  0  0
 10 11  1  0  0  0  0
 11 12  2  0  0  0  0
 12 13  1  0  0  0  0
 12 17  1  0  0  0  0
 13 18  1  0  0  0  0
 14 19  1  0  0  0  0
 14 13  2  0  0  0  0
 15 10  1  0  0  0  0
 16 11  1  0  0  0  0
 19 21  1  0  0  0  0
 20 21  2  0  0  0  0
 21 22  1  0  0  0  0
 21 24  1  0  0  0  0
 22 23  1  0  0  0  0
 24 25  1  0  0  0  0
 26 31  2  0  0  0  0
 26 27  1  0  0  0  0
 27 28  2  0  0  0  0
 28 29  1  0  0  0  0
 28 34  1  0  0  0  0
 30  1  1  0  0  0  0
 30 29  2  0  0  0  0
 31 30  1  0  0  0  0
 32 26  1  0  0  0  0
 33 27  1  0  0  0  0
 34 41  1  0  0  0  0
 35 37  1  0  0  0  0
 35 34  2  0  0  0  0
 36 35  1  0  0  0  0
 37 39  2  0  0  0  0
 38 37  1  0  0  0  0
 39 40  1  0  0  0  0
 41 40  2  0  0  0  0
M  END
>  <minimizedAffinity>
-5.99403811

$$$$
