
 OpenBabel03242518143D

 30 32  0  0  0  0  0  0  0  0999 V2000
   36.9420   25.5890   42.5220 C   0  0  0  0  0  0  0  0  0  0  0  0
   36.0710   25.4110   41.8310 H   0  0  0  0  0  0  0  0  0  0  0  0
   36.5920   25.2850   43.5380 H   0  0  0  0  0  0  0  0  0  0  0  0
   37.2610   26.9750   42.4910 C   0  0  0  0  0  0  0  0  0  0  0  0
   37.7490   27.9620   43.4140 C   0  0  0  0  0  0  0  0  0  0  0  0
   37.9380   29.2430   43.0060 C   0  0  0  0  0  0  0  0  0  0  0  0
   37.6260   29.5450   41.6230 C   0  0  0  0  0  0  0  0  0  0  0  0
   37.0610   27.9870   40.9090 S   0  0  0  0  0  0  0  0  0  0  0  0
   37.9110   27.5280   44.3710 H   0  0  0  0  0  0  0  0  0  0  0  0
   38.3020   29.9750   43.6980 H   0  0  0  0  0  0  0  0  0  0  0  0
   37.7740   30.8510   41.0470 C   0  0  0  0  0  0  0  0  0  0  0  0
   36.8410   31.4360   40.2160 C   0  0  0  0  0  0  0  0  0  0  0  0
   35.9710   30.8470   40.0160 H   0  0  0  0  0  0  0  0  0  0  0  0
   37.1520   32.6970   39.7550 C   0  0  0  0  0  0  0  0  0  0  0  0
   36.3880   33.1310   39.0990 H   0  0  0  0  0  0  0  0  0  0  0  0
   38.3190   33.3470   40.0950 C   0  0  0  0  0  3  0  0  0  0  0  0
   39.2110   32.7060   40.9310 C   0  0  0  0  0  3  0  0  0  0  0  0
   38.9080   31.4600   41.3890 N   0  0  0  0  0  0  0  0  0  0  0  0
   38.0230   24.6360   42.1000 C   0  0  0  0  0  0  0  0  0  0  0  0
   38.8970   25.2280   41.7000 H   0  0  0  0  0  0  0  0  0  0  0  0
   38.3990   24.1130   42.9730 H   0  0  0  0  0  0  0  0  0  0  0  0
   37.5140   23.7460   41.0780 C   0  0  0  0  0  0  0  0  0  0  0  0
   36.2710   23.9390   40.4830 C   0  0  0  0  0  0  0  0  0  0  0  0
   35.8380   23.0510   39.5080 C   0  0  0  0  0  0  0  0  0  0  0  0
   36.6580   22.0280   39.1810 N   0  0  0  0  0  0  0  0  0  0  0  0
   37.8550   21.8590   39.7660 C   0  0  0  0  0  0  0  0  0  0  0  0
   38.2720   22.7020   40.6950 N   0  0  0  0  0  0  0  0  0  0  0  0
   35.6750   24.7910   40.8090 H   0  0  0  0  0  0  0  0  0  0  0  0
   34.8750   23.1960   39.0440 H   0  0  0  0  0  0  0  0  0  0  0  0
   38.5000   21.0230   39.4840 H   0  0  0  0  0  0  0  0  0  0  0  0
  1  3  1  0  0  0  0
  2  1  1  0  0  0  0
  4  1  1  0  0  0  0
  4  5  2  0  0  0  0
  5  9  1  0  0  0  0
  6  5  1  0  0  0  0
  6 10  1  0  0  0  0
  7  6  2  0  0  0  0
  8  7  1  0  0  0  0
  8  4  1  0  0  0  0
 11 18  1  0  0  0  0
 11  7  1  0  0  0  0
 12 11  2  0  0  0  0
 13 12  1  0  0  0  0
 14 16  2  0  0  0  0
 14 12  1  0  0  0  0
 15 14  1  0  0  0  0
 16 17  1  0  0  0  0
 17 18  2  0  0  0  0
 19  1  1  0  0  0  0
 19 21  1  0  0  0  0
 20 19  1  0  0  0  0
 22 19  1  0  0  0  0
 23 28  1  0  0  0  0
 23 22  2  0  0  0  0
 24 23  1  0  0  0  0
 25 24  2  0  0  0  0
 25 26  1  0  0  0  0
 26 27  2  0  0  0  0
 27 22  1  0  0  0  0
 29 24  1  0  0  0  0
 30 26  1  0  0  0  0
M  END
>  <minimizedAffinity>
-5.03785658

$$$$

 OpenBabel03242518143D

 30 32  0  0  0  0  0  0  0  0999 V2000
   36.2240   28.2110   41.6400 C   0  0  0  0  0  0  0  0  0  0  0  0
   36.4960   27.3860   40.9230 H   0  0  0  0  0  0  0  0  0  0  0  0
   35.1070   28.2280   41.6740 H   0  0  0  0  0  0  0  0  0  0  0  0
   36.7320   29.4360   41.1240 C   0  0  0  0  0  0  0  0  0  0  0  0
   36.2110   30.7310   40.7890 C   0  0  0  0  0  0  0  0  0  0  0  0
   37.0360   31.6930   40.3000 C   0  0  0  0  0  0  0  0  0  0  0  0
   38.4330   31.3420   40.1400 C   0  0  0  0  0  0  0  0  0  0  0  0
   38.5610   29.6290   40.6950 S   0  0  0  0  0  0  0  0  0  0  0  0
   35.1660   30.7730   40.9820 H   0  0  0  0  0  0  0  0  0  0  0  0
   36.6420   32.6580   40.0510 H   0  0  0  0  0  0  0  0  0  0  0  0
   39.4230   32.2490   39.6370 C   0  0  0  0  0  0  0  0  0  0  0  0
   39.8020   33.4100   40.2790 C   0  0  0  0  0  0  0  0  0  0  0  0
   39.3020   33.6060   41.2040 H   0  0  0  0  0  0  0  0  0  0  0  0
   40.7700   34.1600   39.6470 C   0  0  0  0  0  0  0  0  0  0  0  0
   41.0460   35.0740   40.1870 H   0  0  0  0  0  0  0  0  0  0  0  0
   41.3360   33.7850   38.4470 C   0  0  0  0  0  3  0  0  0  0  0  0
   40.9130   32.6120   37.8570 C   0  0  0  0  0  3  0  0  0  0  0  0
   39.9570   31.8670   38.4770 N   0  0  0  0  0  0  0  0  0  0  0  0
   36.7230   27.7850   42.9900 C   0  0  0  0  0  0  0  0  0  0  0  0
   37.2890   28.6420   43.4580 H   0  0  0  0  0  0  0  0  0  0  0  0
   35.8760   27.6020   43.6420 H   0  0  0  0  0  0  0  0  0  0  0  0
   37.5910   26.6350   42.8460 C   0  0  0  0  0  0  0  0  0  0  0  0
   37.1870   25.4850   42.1750 C   0  0  0  0  0  0  0  0  0  0  0  0
   38.0660   24.4150   42.0710 C   0  0  0  0  0  0  0  0  0  0  0  0
   39.2860   24.5450   42.6350 N   0  0  0  0  0  0  0  0  0  0  0  0
   39.6570   25.6640   43.2800 C   0  0  0  0  0  0  0  0  0  0  0  0
   38.8240   26.6860   43.3820 N   0  0  0  0  0  0  0  0  0  0  0  0
   36.1850   25.4660   41.7500 H   0  0  0  0  0  0  0  0  0  0  0  0
   37.7580   23.5210   41.5510 H   0  0  0  0  0  0  0  0  0  0  0  0
   40.6500   25.7450   43.7290 H   0  0  0  0  0  0  0  0  0  0  0  0
  1  3  1  0  0  0  0
  1 19  1  0  0  0  0
  2  1  1  0  0  0  0
  4  1  1  0  0  0  0
  5  9  1  0  0  0  0
  5  4  2  0  0  0  0
  6  5  1  0  0  0  0
  7  6  2  0  0  0  0
  7  8  1  0  0  0  0
  8  4  1  0  0  0  0
 10  6  1  0  0  0  0
 11  7  1  0  0  0  0
 11 12  1  0  0  0  0
 12 13  1  0  0  0  0
 14 15  1  0  0  0  0
 14 12  2  0  0  0  0
 16 14  1  0  0  0  0
 17 16  2  0  0  0  0
 17 18  1  0  0  0  0
 18 11  2  0  0  0  0
 19 20  1  0  0  0  0
 19 21  1  0  0  0  0
 22 19  1  0  0  0  0
 22 27  1  0  0  0  0
 23 22  2  0  0  0  0
 24 23  1  0  0  0  0
 24 25  2  0  0  0  0
 25 26  1  0  0  0  0
 26 27  2  0  0  0  0
 26 30  1  0  0  0  0
 28 23  1  0  0  0  0
 29 24  1  0  0  0  0
M  END
>  <minimizedAffinity>
-5.02639675

$$$$

 OpenBabel03242518143D

 30 32  0  0  0  0  0  0  0  0999 V2000
   36.8800   25.7970   42.5660 C   0  0  0  0  0  0  0  0  0  0  0  0
   35.7720   25.7110   42.3900 H   0  0  0  0  0  0  0  0  0  0  0  0
   37.0560   25.4120   43.5990 H   0  0  0  0  0  0  0  0  0  0  0  0
   37.2420   27.1710   42.4700 C   0  0  0  0  0  0  0  0  0  0  0  0
   37.8710   28.1520   43.3090 C   0  0  0  0  0  0  0  0  0  0  0  0
   38.0550   29.4190   42.8570 C   0  0  0  0  0  0  0  0  0  0  0  0
   37.5900   29.7120   41.5160 C   0  0  0  0  0  0  0  0  0  0  0  0
   36.8890   28.1660   40.9040 S   0  0  0  0  0  0  0  0  0  0  0  0
   38.1320   27.7260   44.2480 H   0  0  0  0  0  0  0  0  0  0  0  0
   38.5250   30.1470   43.4860 H   0  0  0  0  0  0  0  0  0  0  0  0
   37.7140   31.0020   40.9010 C   0  0  0  0  0  0  0  0  0  0  0  0
   36.8410   31.4890   39.9490 C   0  0  0  0  0  0  0  0  0  0  0  0
   36.0400   30.8330   39.6840 H   0  0  0  0  0  0  0  0  0  0  0  0
   37.1160   32.7510   39.4690 C   0  0  0  0  0  0  0  0  0  0  0  0
   36.4020   33.1050   38.7150 H   0  0  0  0  0  0  0  0  0  0  0  0
   38.1940   33.4940   39.9030 C   0  0  0  0  0  3  0  0  0  0  0  0
   39.0280   32.9490   40.8570 C   0  0  0  0  0  3  0  0  0  0  0  0
   38.7610   31.7030   41.3350 N   0  0  0  0  0  0  0  0  0  0  0  0
   37.5400   24.8550   41.6010 C   0  0  0  0  0  0  0  0  0  0  0  0
   37.2350   23.7980   41.8540 H   0  0  0  0  0  0  0  0  0  0  0  0
   37.1570   25.0390   40.6030 H   0  0  0  0  0  0  0  0  0  0  0  0
   38.9790   24.9930   41.6940 C   0  0  0  0  0  0  0  0  0  0  0  0
   39.6700   24.7360   42.8740 C   0  0  0  0  0  0  0  0  0  0  0  0
   41.0500   24.8870   42.9000 C   0  0  0  0  0  0  0  0  0  0  0  0
   41.6610   25.2820   41.7620 N   0  0  0  0  0  0  0  0  0  0  0  0
   40.9760   25.5260   40.6330 C   0  0  0  0  0  0  0  0  0  0  0  0
   39.6610   25.3840   40.6020 N   0  0  0  0  0  0  0  0  0  0  0  0
   39.0960   24.4210   43.7440 H   0  0  0  0  0  0  0  0  0  0  0  0
   41.5910   24.6880   43.8120 H   0  0  0  0  0  0  0  0  0  0  0  0
   41.4930   25.8460   39.7250 H   0  0  0  0  0  0  0  0  0  0  0  0
  1  3  1  0  0  0  0
  2  1  1  0  0  0  0
  4  1  1  0  0  0  0
  4  5  2  0  0  0  0
  5  9  1  0  0  0  0
  6  5  1  0  0  0  0
  6 10  1  0  0  0  0
  7  6  2  0  0  0  0
  8  7  1  0  0  0  0
  8  4  1  0  0  0  0
 11 18  1  0  0  0  0
 11  7  1  0  0  0  0
 12 11  2  0  0  0  0
 13 12  1  0  0  0  0
 14 16  2  0  0  0  0
 14 12  1  0  0  0  0
 15 14  1  0  0  0  0
 16 17  1  0  0  0  0
 17 18  2  0  0  0  0
 19 22  1  0  0  0  0
 19 20  1  0  0  0  0
 19  1  1  0  0  0  0
 21 19  1  0  0  0  0
 22 23  1  0  0  0  0
 23 24  2  0  0  0  0
 23 28  1  0  0  0  0
 24 29  1  0  0  0  0
 25 24  1  0  0  0  0
 26 25  2  0  0  0  0
 27 26  1  0  0  0  0
 27 22  2  0  0  0  0
 30 26  1  0  0  0  0
M  END
>  <minimizedAffinity>
-4.96306229

$$$$

 OpenBabel03242518143D

 30 32  0  0  0  0  0  0  0  0999 V2000
   36.9320   31.8000   40.5940 C   0  0  0  0  0  0  0  0  0  0  0  0
   37.6340   32.4030   41.2360 H   0  0  0  0  0  0  0  0  0  0  0  0
   35.9100   32.2030   40.7980 H   0  0  0  0  0  0  0  0  0  0  0  0
   37.0250   30.4360   40.9890 C   0  0  0  0  0  0  0  0  0  0  0  0
   36.1480   29.3020   41.0620 C   0  0  0  0  0  0  0  0  0  0  0  0
   36.6130   28.1080   41.5110 C   0  0  0  0  0  0  0  0  0  0  0  0
   38.0080   28.0490   41.8990 C   0  0  0  0  0  0  0  0  0  0  0  0
   38.6520   29.7120   41.6190 S   0  0  0  0  0  0  0  0  0  0  0  0
   35.1720   29.5640   40.7310 H   0  0  0  0  0  0  0  0  0  0  0  0
   35.9550   27.2640   41.5640 H   0  0  0  0  0  0  0  0  0  0  0  0
   38.6430   26.8610   42.3910 C   0  0  0  0  0  0  0  0  0  0  0  0
   39.6600   26.8600   43.3240 C   0  0  0  0  0  0  0  0  0  0  0  0
   39.9620   27.8240   43.6740 H   0  0  0  0  0  0  0  0  0  0  0  0
   40.1500   25.6220   43.6800 C   0  0  0  0  0  0  0  0  0  0  0  0
   40.9560   25.6610   44.4220 H   0  0  0  0  0  0  0  0  0  0  0  0
   39.6640   24.4470   43.1460 C   0  0  0  0  0  3  0  0  0  0  0  0
   38.6450   24.5180   42.2180 C   0  0  0  0  0  3  0  0  0  0  0  0
   38.1570   25.7380   41.8630 N   0  0  0  0  0  0  0  0  0  0  0  0
   37.2790   32.1180   39.1680 C   0  0  0  0  0  0  0  0  0  0  0  0
   37.1250   31.1940   38.5390 H   0  0  0  0  0  0  0  0  0  0  0  0
   36.5800   32.8530   38.7860 H   0  0  0  0  0  0  0  0  0  0  0  0
   38.6600   32.5480   39.0890 C   0  0  0  0  0  0  0  0  0  0  0  0
   39.5640   31.9690   38.2060 C   0  0  0  0  0  0  0  0  0  0  0  0
   40.8750   32.4260   38.1770 C   0  0  0  0  0  0  0  0  0  0  0  0
   41.2110   33.4240   39.0220 N   0  0  0  0  0  0  0  0  0  0  0  0
   40.3230   33.9710   39.8680 C   0  0  0  0  0  0  0  0  0  0  0  0
   39.0730   33.5400   39.8990 N   0  0  0  0  0  0  0  0  0  0  0  0
   39.2070   31.1680   37.5600 H   0  0  0  0  0  0  0  0  0  0  0  0
   41.5810   31.9800   37.4940 H   0  0  0  0  0  0  0  0  0  0  0  0
   40.6200   34.7790   40.5430 H   0  0  0  0  0  0  0  0  0  0  0  0
  1  3  1  0  0  0  0
  1  4  1  0  0  0  0
  1  2  1  0  0  0  0
  4  5  2  0  0  0  0
  4  8  1  0  0  0  0
  5  6  1  0  0  0  0
  6 10  1  0  0  0  0
  6  7  2  0  0  0  0
  7 11  1  0  0  0  0
  8  7  1  0  0  0  0
  9  5  1  0  0  0  0
 11 12  1  0  0  0  0
 12 13  1  0  0  0  0
 12 14  2  0  0  0  0
 14 15  1  0  0  0  0
 16 14  1  0  0  0  0
 17 16  2  0  0  0  0
 18 17  1  0  0  0  0
 18 11  2  0  0  0  0
 19  1  1  0  0  0  0
 20 19  1  0  0  0  0
 21 19  1  0  0  0  0
 22 19  1  0  0  0  0
 22 27  1  0  0  0  0
 23 22  2  0  0  0  0
 24 23  1  0  0  0  0
 24 25  2  0  0  0  0
 25 26  1  0  0  0  0
 26 27  2  0  0  0  0
 26 30  1  0  0  0  0
 28 23  1  0  0  0  0
 29 24  1  0  0  0  0
M  END
>  <minimizedAffinity>
-4.91043615

$$$$

 OpenBabel03242518143D

 30 32  0  0  0  0  0  0  0  0999 V2000
   37.0350   31.7310   38.7910 C   0  0  0  0  0  0  0  0  0  0  0  0
   36.1500   32.0330   38.1640 H   0  0  0  0  0  0  0  0  0  0  0  0
   37.8720   31.5590   38.0730 H   0  0  0  0  0  0  0  0  0  0  0  0
   36.7040   30.5300   39.4800 C   0  0  0  0  0  0  0  0  0  0  0  0
   35.7580   30.1190   40.4800 C   0  0  0  0  0  0  0  0  0  0  0  0
   35.7390   28.8320   40.9120 C   0  0  0  0  0  0  0  0  0  0  0  0
   36.7020   27.9250   40.3200 C   0  0  0  0  0  0  0  0  0  0  0  0
   37.6360   28.9230   39.1420 S   0  0  0  0  0  0  0  0  0  0  0  0
   35.1500   30.9400   40.7750 H   0  0  0  0  0  0  0  0  0  0  0  0
   35.0310   28.5310   41.6580 H   0  0  0  0  0  0  0  0  0  0  0  0
   36.8020   26.5390   40.6730 C   0  0  0  0  0  0  0  0  0  0  0  0
   37.0940   26.0870   41.9430 C   0  0  0  0  0  0  0  0  0  0  0  0
   37.2480   26.8480   42.6770 H   0  0  0  0  0  0  0  0  0  0  0  0
   37.1500   24.7180   42.0980 C   0  0  0  0  0  0  0  0  0  0  0  0
   37.3840   24.3960   43.1200 H   0  0  0  0  0  0  0  0  0  0  0  0
   36.9280   23.8420   41.0570 C   0  0  0  0  0  3  0  0  0  0  0  0
   36.6400   24.3600   39.8100 C   0  0  0  0  0  3  0  0  0  0  0  0
   36.5840   25.7110   39.6520 N   0  0  0  0  0  0  0  0  0  0  0  0
   37.3850   32.9220   39.6360 C   0  0  0  0  0  0  0  0  0  0  0  0
   36.8530   33.8300   39.2270 H   0  0  0  0  0  0  0  0  0  0  0  0
   36.9910   32.7780   40.6360 H   0  0  0  0  0  0  0  0  0  0  0  0
   38.8170   33.1300   39.6110 C   0  0  0  0  0  0  0  0  0  0  0  0
   39.4520   34.0030   40.4900 C   0  0  0  0  0  0  0  0  0  0  0  0
   40.8290   34.1600   40.4160 C   0  0  0  0  0  0  0  0  0  0  0  0
   41.4940   33.4470   39.4820 N   0  0  0  0  0  0  0  0  0  0  0  0
   40.8640   32.6100   38.6420 C   0  0  0  0  0  0  0  0  0  0  0  0
   39.5520   32.4560   38.7070 N   0  0  0  0  0  0  0  0  0  0  0  0
   38.8370   34.5370   41.2130 H   0  0  0  0  0  0  0  0  0  0  0  0
   41.3260   34.8350   41.0960 H   0  0  0  0  0  0  0  0  0  0  0  0
   41.4250   32.0450   37.8930 H   0  0  0  0  0  0  0  0  0  0  0  0
  1  4  1  0  0  0  0
  1 19  1  0  0  0  0
  2  1  1  0  0  0  0
  3  1  1  0  0  0  0
  4  5  2  0  0  0  0
  5  9  1  0  0  0  0
  5  6  1  0  0  0  0
  6 10  1  0  0  0  0
  7 11  1  0  0  0  0
  7  6  2  0  0  0  0
  8  4  1  0  0  0  0
  8  7  1  0  0  0  0
 11 12  1  0  0  0  0
 12 14  2  0  0  0  0
 12 13  1  0  0  0  0
 14 15  1  0  0  0  0
 16 14  1  0  0  0  0
 17 16  2  0  0  0  0
 18 17  1  0  0  0  0
 18 11  2  0  0  0  0
 19 21  1  0  0  0  0
 20 19  1  0  0  0  0
 22 19  1  0  0  0  0
 22 23  1  0  0  0  0
 23 28  1  0  0  0  0
 24 23  2  0  0  0  0
 24 29  1  0  0  0  0
 25 24  1  0  0  0  0
 26 27  1  0  0  0  0
 26 25  2  0  0  0  0
 27 22  2  0  0  0  0
 30 26  1  0  0  0  0
M  END
>  <minimizedAffinity>
-4.90423203

$$$$

 OpenBabel03242518143D

 30 32  0  0  0  0  0  0  0  0999 V2000
   36.2820   30.4340   41.3850 C   0  0  0  0  0  0  0  0  0  0  0  0
   36.8360   31.0240   42.1680 H   0  0  0  0  0  0  0  0  0  0  0  0
   35.1970   30.6040   41.5870 H   0  0  0  0  0  0  0  0  0  0  0  0
   36.6160   29.0600   41.5410 C   0  0  0  0  0  0  0  0  0  0  0  0
   36.8430   28.1520   42.6310 C   0  0  0  0  0  0  0  0  0  0  0  0
   37.1570   26.8540   42.3820 C   0  0  0  0  0  0  0  0  0  0  0  0
   37.2450   26.4530   40.9930 C   0  0  0  0  0  0  0  0  0  0  0  0
   36.8770   27.9420   40.0420 S   0  0  0  0  0  0  0  0  0  0  0  0
   36.7290   28.6520   43.5620 H   0  0  0  0  0  0  0  0  0  0  0  0
   37.3260   26.1810   43.1980 H   0  0  0  0  0  0  0  0  0  0  0  0
   37.5660   25.1190   40.5740 C   0  0  0  0  0  0  0  0  0  0  0  0
   36.6950   24.0530   40.6660 C   0  0  0  0  0  0  0  0  0  0  0  0
   35.7360   24.2790   41.0800 H   0  0  0  0  0  0  0  0  0  0  0  0
   37.1750   22.8430   40.2130 C   0  0  0  0  0  0  0  0  0  0  0  0
   36.4560   22.0190   40.3010 H   0  0  0  0  0  0  0  0  0  0  0  0
   38.4440   22.6910   39.6970 C   0  0  0  0  0  3  0  0  0  0  0  0
   39.2650   23.7990   39.6320 C   0  0  0  0  0  3  0  0  0  0  0  0
   38.7970   24.9970   40.0780 N   0  0  0  0  0  0  0  0  0  0  0  0
   36.6120   31.0650   40.0630 C   0  0  0  0  0  0  0  0  0  0  0  0
   36.8840   30.2530   39.3280 H   0  0  0  0  0  0  0  0  0  0  0  0
   35.7220   31.5380   39.6610 H   0  0  0  0  0  0  0  0  0  0  0  0
   37.7200   31.9820   40.2260 C   0  0  0  0  0  0  0  0  0  0  0  0
   37.6150   33.3320   39.9040 C   0  0  0  0  0  0  0  0  0  0  0  0
   38.7150   34.1610   40.0820 C   0  0  0  0  0  0  0  0  0  0  0  0
   39.8480   33.6070   40.5650 N   0  0  0  0  0  0  0  0  0  0  0  0
   39.9290   32.3020   40.8700 C   0  0  0  0  0  0  0  0  0  0  0  0
   38.8850   31.5080   40.7030 N   0  0  0  0  0  0  0  0  0  0  0  0
   36.6620   33.6930   39.5190 H   0  0  0  0  0  0  0  0  0  0  0  0
   38.6380   35.2080   39.8340 H   0  0  0  0  0  0  0  0  0  0  0  0
   40.8590   31.8780   41.2600 H   0  0  0  0  0  0  0  0  0  0  0  0
  1  4  1  0  0  0  0
  1  3  1  0  0  0  0
  1  2  1  0  0  0  0
  4  5  2  0  0  0  0
  5  9  1  0  0  0  0
  6  5  1  0  0  0  0
  6 10  1  0  0  0  0
  7  6  2  0  0  0  0
  8  7  1  0  0  0  0
  8  4  1  0  0  0  0
 11 12  1  0  0  0  0
 11  7  1  0  0  0  0
 12 13  1  0  0  0  0
 14 15  1  0  0  0  0
 14 12  2  0  0  0  0
 16 14  1  0  0  0  0
 17 16  2  0  0  0  0
 17 18  1  0  0  0  0
 18 11  2  0  0  0  0
 19 22  1  0  0  0  0
 19  1  1  0  0  0  0
 20 19  1  0  0  0  0
 21 19  1  0  0  0  0
 22 27  1  0  0  0  0
 23 24  1  0  0  0  0
 23 22  2  0  0  0  0
 24 25  2  0  0  0  0
 25 26  1  0  0  0  0
 26 30  1  0  0  0  0
 27 26  2  0  0  0  0
 28 23  1  0  0  0  0
 29 24  1  0  0  0  0
M  END
>  <minimizedAffinity>
-4.76345921

$$$$

 OpenBabel03242518143D

 30 32  0  0  0  0  0  0  0  0999 V2000
   37.6710   28.9950   42.5630 C   0  0  0  0  0  0  0  0  0  0  0  0
   37.5050   29.8000   43.3330 H   0  0  0  0  0  0  0  0  0  0  0  0
   38.7750   28.8270   42.5310 H   0  0  0  0  0  0  0  0  0  0  0  0
   37.1950   29.4720   41.3090 C   0  0  0  0  0  0  0  0  0  0  0  0
   36.9350   30.7460   40.7000 C   0  0  0  0  0  0  0  0  0  0  0  0
   36.4640   30.8110   39.4290 C   0  0  0  0  0  0  0  0  0  0  0  0
   36.2460   29.5530   38.7430 C   0  0  0  0  0  0  0  0  0  0  0  0
   36.7190   28.2760   39.9270 S   0  0  0  0  0  0  0  0  0  0  0  0
   37.1620   31.5340   41.3770 H   0  0  0  0  0  0  0  0  0  0  0  0
   36.2720   31.7640   38.9790 H   0  0  0  0  0  0  0  0  0  0  0  0
   35.7530   29.4600   37.3990 C   0  0  0  0  0  0  0  0  0  0  0  0
   34.4880   29.0200   37.0720 C   0  0  0  0  0  0  0  0  0  0  0  0
   33.8710   28.7410   37.8990 H   0  0  0  0  0  0  0  0  0  0  0  0
   34.1870   28.9970   35.7270 C   0  0  0  0  0  0  0  0  0  0  0  0
   33.1730   28.6420   35.5050 H   0  0  0  0  0  0  0  0  0  0  0  0
   35.0850   29.3880   34.7570 C   0  0  0  0  0  3  0  0  0  0  0  0
   36.3350   29.8190   35.1520 C   0  0  0  0  0  3  0  0  0  0  0  0
   36.6370   29.8430   36.4790 N   0  0  0  0  0  0  0  0  0  0  0  0
   37.0280   27.7500   43.1020 C   0  0  0  0  0  0  0  0  0  0  0  0
   36.7110   27.9350   44.1700 H   0  0  0  0  0  0  0  0  0  0  0  0
   36.1120   27.5560   42.5550 H   0  0  0  0  0  0  0  0  0  0  0  0
   37.9700   26.6530   43.0450 C   0  0  0  0  0  0  0  0  0  0  0  0
   37.6920   25.4760   42.3560 C   0  0  0  0  0  0  0  0  0  0  0  0
   38.6370   24.4590   42.3380 C   0  0  0  0  0  0  0  0  0  0  0  0
   39.7960   24.6650   43.0000 N   0  0  0  0  0  0  0  0  0  0  0  0
   40.0460   25.8090   43.6590 C   0  0  0  0  0  0  0  0  0  0  0  0
   39.1500   26.7810   43.6800 N   0  0  0  0  0  0  0  0  0  0  0  0
   36.7310   25.3950   41.8500 H   0  0  0  0  0  0  0  0  0  0  0  0
   38.4260   23.5450   41.8050 H   0  0  0  0  0  0  0  0  0  0  0  0
   40.9920   25.9510   44.1880 H   0  0  0  0  0  0  0  0  0  0  0  0
  1 19  1  0  0  0  0
  1  2  1  0  0  0  0
  3  1  1  0  0  0  0
  4  1  1  0  0  0  0
  5  4  2  0  0  0  0
  5  9  1  0  0  0  0
  6  5  1  0  0  0  0
  7  6  2  0  0  0  0
  7  8  1  0  0  0  0
  8  4  1  0  0  0  0
 10  6  1  0  0  0  0
 11  7  1  0  0  0  0
 12 11  1  0  0  0  0
 12 13  1  0  0  0  0
 14 12  2  0  0  0  0
 15 14  1  0  0  0  0
 16 17  2  0  0  0  0
 16 14  1  0  0  0  0
 17 18  1  0  0  0  0
 18 11  2  0  0  0  0
 19 20  1  0  0  0  0
 21 19  1  0  0  0  0
 22 19  1  0  0  0  0
 22 27  1  0  0  0  0
 23 22  2  0  0  0  0
 24 23  1  0  0  0  0
 24 25  2  0  0  0  0
 25 26  1  0  0  0  0
 26 27  2  0  0  0  0
 26 30  1  0  0  0  0
 28 23  1  0  0  0  0
 29 24  1  0  0  0  0
M  END
>  <minimizedAffinity>
-4.71945429

$$$$

 OpenBabel03242518143D

 30 32  0  0  0  0  0  0  0  0999 V2000
   36.0390   29.4710   39.3280 C   0  0  0  0  0  0  0  0  0  0  0  0
   36.5580   28.5320   38.9860 H   0  0  0  0  0  0  0  0  0  0  0  0
   35.1800   29.6150   38.6290 H   0  0  0  0  0  0  0  0  0  0  0  0
   36.9590   30.5520   39.2270 C   0  0  0  0  0  0  0  0  0  0  0  0
   36.9490   31.9670   39.4760 C   0  0  0  0  0  0  0  0  0  0  0  0
   38.0660   32.7060   39.2540 C   0  0  0  0  0  0  0  0  0  0  0  0
   39.2340   32.0020   38.7650 C   0  0  0  0  0  0  0  0  0  0  0  0
   38.7270   30.2760   38.6240 S   0  0  0  0  0  0  0  0  0  0  0  0
   35.9950   32.2750   39.8280 H   0  0  0  0  0  0  0  0  0  0  0  0
   38.0530   33.7610   39.4410 H   0  0  0  0  0  0  0  0  0  0  0  0
   40.4850   32.6450   38.4840 C   0  0  0  0  0  0  0  0  0  0  0  0
   41.2080   32.4510   37.3250 C   0  0  0  0  0  0  0  0  0  0  0  0
   40.7740   31.7740   36.6220 H   0  0  0  0  0  0  0  0  0  0  0  0
   42.3900   33.1540   37.2280 C   0  0  0  0  0  0  0  0  0  0  0  0
   42.9370   32.9760   36.2940 H   0  0  0  0  0  0  0  0  0  0  0  0
   42.8350   34.0040   38.2180 C   0  0  0  0  0  3  0  0  0  0  0  0
   42.0630   34.1530   39.3530 C   0  0  0  0  0  3  0  0  0  0  0  0
   40.8950   33.4610   39.4550 N   0  0  0  0  0  0  0  0  0  0  0  0
   35.4830   29.1800   40.6910 C   0  0  0  0  0  0  0  0  0  0  0  0
   35.1090   30.1420   41.1480 H   0  0  0  0  0  0  0  0  0  0  0  0
   34.6110   28.5440   40.5930 H   0  0  0  0  0  0  0  0  0  0  0  0
   36.5180   28.6040   41.5240 C   0  0  0  0  0  0  0  0  0  0  0  0
   36.9260   27.2810   41.3860 C   0  0  0  0  0  0  0  0  0  0  0  0
   37.9230   26.7860   42.2150 C   0  0  0  0  0  0  0  0  0  0  0  0
   38.4550   27.6260   43.1290 N   0  0  0  0  0  0  0  0  0  0  0  0
   38.0470   28.9010   43.2480 C   0  0  0  0  0  0  0  0  0  0  0  0
   37.0980   29.3770   42.4600 N   0  0  0  0  0  0  0  0  0  0  0  0
   36.4420   26.6740   40.6210 H   0  0  0  0  0  0  0  0  0  0  0  0
   38.2440   25.7610   42.1110 H   0  0  0  0  0  0  0  0  0  0  0  0
   38.4930   29.5610   43.9960 H   0  0  0  0  0  0  0  0  0  0  0  0
  1 19  1  0  0  0  0
  2  1  1  0  0  0  0
  3  1  1  0  0  0  0
  4  1  1  0  0  0  0
  4  5  2  0  0  0  0
  5  9  1  0  0  0  0
  6 10  1  0  0  0  0
  6  5  1  0  0  0  0
  7  6  2  0  0  0  0
  8  7  1  0  0  0  0
  8  4  1  0  0  0  0
 11  7  1  0  0  0  0
 11 18  1  0  0  0  0
 12 11  2  0  0  0  0
 13 12  1  0  0  0  0
 14 12  1  0  0  0  0
 14 16  2  0  0  0  0
 15 14  1  0  0  0  0
 16 17  1  0  0  0  0
 17 18  2  0  0  0  0
 19 20  1  0  0  0  0
 19 22  1  0  0  0  0
 21 19  1  0  0  0  0
 22 27  1  0  0  0  0
 23 22  2  0  0  0  0
 23 24  1  0  0  0  0
 24 25  2  0  0  0  0
 25 26  1  0  0  0  0
 26 30  1  0  0  0  0
 27 26  2  0  0  0  0
 28 23  1  0  0  0  0
 29 24  1  0  0  0  0
M  END
>  <minimizedAffinity>
-4.71425104

$$$$

 OpenBabel03242518143D

 30 32  0  0  0  0  0  0  0  0999 V2000
   34.0630   28.9470   36.9060 C   0  0  0  0  0  0  0  0  0  0  0  0
   34.6830   28.3350   36.1920 H   0  0  0  0  0  0  0  0  0  0  0  0
   34.1290   30.0000   36.5420 H   0  0  0  0  0  0  0  0  0  0  0  0
   34.6280   28.8250   38.2060 C   0  0  0  0  0  0  0  0  0  0  0  0
   34.3570   29.3340   39.5220 C   0  0  0  0  0  0  0  0  0  0  0  0
   35.1500   28.9820   40.5660 C   0  0  0  0  0  0  0  0  0  0  0  0
   36.2540   28.0890   40.2810 C   0  0  0  0  0  0  0  0  0  0  0  0
   36.1530   27.7530   38.5110 S   0  0  0  0  0  0  0  0  0  0  0  0
   33.5050   29.9700   39.5060 H   0  0  0  0  0  0  0  0  0  0  0  0
   34.9430   29.3650   41.5450 H   0  0  0  0  0  0  0  0  0  0  0  0
   37.1770   27.6290   41.2790 C   0  0  0  0  0  0  0  0  0  0  0  0
   37.3140   26.3070   41.6500 C   0  0  0  0  0  0  0  0  0  0  0  0
   36.6760   25.6180   41.1380 H   0  0  0  0  0  0  0  0  0  0  0  0
   38.2520   26.0490   42.6270 C   0  0  0  0  0  0  0  0  0  0  0  0
   38.3340   24.9890   42.8950 H   0  0  0  0  0  0  0  0  0  0  0  0
   39.0150   27.0410   43.2060 C   0  0  0  0  0  3  0  0  0  0  0  0
   38.8280   28.3440   42.7890 C   0  0  0  0  0  3  0  0  0  0  0  0
   37.9030   28.6040   41.8250 N   0  0  0  0  0  0  0  0  0  0  0  0
   32.6430   28.4870   36.7390 C   0  0  0  0  0  0  0  0  0  0  0  0
   32.5440   27.9580   35.7470 H   0  0  0  0  0  0  0  0  0  0  0  0
   32.4190   27.7400   37.4920 H   0  0  0  0  0  0  0  0  0  0  0  0
   31.7540   29.6290   36.7860 C   0  0  0  0  0  0  0  0  0  0  0  0
   30.9930   29.9250   37.9120 C   0  0  0  0  0  0  0  0  0  0  0  0
   30.1580   31.0350   37.8950 C   0  0  0  0  0  0  0  0  0  0  0  0
   30.1260   31.7810   36.7710 N   0  0  0  0  0  0  0  0  0  0  0  0
   30.8700   31.4780   35.6930 C   0  0  0  0  0  0  0  0  0  0  0  0
   31.6660   30.4230   35.7040 N   0  0  0  0  0  0  0  0  0  0  0  0
   31.0800   29.2680   38.7760 H   0  0  0  0  0  0  0  0  0  0  0  0
   29.5660   31.2690   38.7660 H   0  0  0  0  0  0  0  0  0  0  0  0
   30.8260   32.0980   34.7940 H   0  0  0  0  0  0  0  0  0  0  0  0
  1  4  1  0  0  0  0
  2  1  1  0  0  0  0
  3  1  1  0  0  0  0
  4  8  1  0  0  0  0
  4  5  2  0  0  0  0
  5  6  1  0  0  0  0
  6 10  1  0  0  0  0
  7  6  2  0  0  0  0
  7 11  1  0  0  0  0
  8  7  1  0  0  0  0
  9  5  1  0  0  0  0
 11 12  2  0  0  0  0
 11 18  1  0  0  0  0
 12 14  1  0  0  0  0
 13 12  1  0  0  0  0
 14 15  1  0  0  0  0
 14 16  2  0  0  0  0
 17 16  1  0  0  0  0
 18 17  2  0  0  0  0
 19 22  1  0  0  0  0
 19  1  1  0  0  0  0
 19 21  1  0  0  0  0
 20 19  1  0  0  0  0
 22 23  1  0  0  0  0
 23 28  1  0  0  0  0
 24 23  2  0  0  0  0
 24 29  1  0  0  0  0
 25 24  1  0  0  0  0
 26 27  1  0  0  0  0
 26 25  2  0  0  0  0
 27 22  2  0  0  0  0
 30 26  1  0  0  0  0
M  END
>  <minimizedAffinity>
-4.60948753

$$$$
