
 OpenBabel03252503413D

 20 21  0  0  0  0  0  0  0  0999 V2000
   44.5960   35.4020   45.0470 C   0  0  0  0  0  0  0  0  0  0  0  0
   45.2640   35.2750   43.8280 C   0  0  0  0  0  0  0  0  0  0  0  0
   46.2260   34.2590   43.7190 C   0  0  0  0  0  0  0  0  0  0  0  0
   46.4460   33.4650   44.8020 N   0  0  0  0  0  0  0  0  0  0  0  0
   45.7770   33.6290   45.9520 C   0  0  0  0  0  0  0  0  0  0  0  0
   44.8440   34.5870   46.1130 N   0  0  0  0  0  0  0  0  0  0  0  0
   43.8310   36.1550   45.2460 H   0  0  0  0  0  0  0  0  0  0  0  0
   46.6970   34.2160   42.7680 H   0  0  0  0  0  0  0  0  0  0  0  0
   46.0620   32.7450   47.0720 C   0  0  0  0  0  0  0  0  0  0  0  0
   45.0820   32.3720   47.9680 C   0  0  0  0  0  0  0  0  0  0  0  0
   44.0810   32.7780   47.7860 H   0  0  0  0  0  0  0  0  0  0  0  0
   45.2940   31.5450   49.0370 C   0  0  0  0  0  0  0  0  0  0  0  0
   44.4360   31.3230   49.6760 H   0  0  0  0  0  0  0  0  0  0  0  0
   46.5860   31.0560   49.2230 C   0  0  0  0  0  0  0  0  0  0  0  0
   47.5660   31.4290   48.3280 C   0  0  0  0  0  0  0  0  0  0  0  0
   47.2910   32.2490   47.2920 N   0  0  0  0  0  0  0  0  0  0  0  0
   44.8740   36.2400   42.7810 C   0  0  0  0  0  0  0  0  0  0  0  0
   44.8410   37.2840   43.1810 H   0  0  0  0  0  0  0  0  0  0  0  0
   43.8640   36.0600   42.3730 H   0  0  0  0  0  0  0  0  0  0  0  0
   45.6550   36.2120   41.9950 H   0  0  0  0  0  0  0  0  0  0  0  0
  1  7  1  0  0  0  0
  1  6  1  0  0  0  0
  2  1  2  0  0  0  0
  3  2  1  0  0  0  0
  3  4  2  0  0  0  0
  4  5  1  0  0  0  0
  5  6  2  0  0  0  0
  5  9  1  0  0  0  0
  8  3  1  0  0  0  0
  9 16  2  0  0  0  0
  9 10  1  0  0  0  0
 10 12  2  0  0  0  0
 11 10  1  0  0  0  0
 12 14  1  0  0  0  0
 12 13  1  0  0  0  0
 15 14  2  0  0  0  0
 16 15  1  0  0  0  0
 17 18  1  0  0  0  0
 17  2  1  0  0  0  0
 19 17  1  0  0  0  0
 20 17  1  0  0  0  0
M  END
>  <minimizedAffinity>
-4.80862474

>  <minimizedRMSD>
1.09124744

$$$$
