
 OpenBabel03252507083D

 23 24  0  0  0  0  0  0  0  0999 V2000
   44.5490   35.9420   44.5400 C   0  0  0  0  0  0  0  0  0  0  0  0
   45.1710   35.8940   43.2810 C   0  0  0  0  0  0  0  0  0  0  0  0
   46.0960   34.8680   43.0580 C   0  0  0  0  0  0  0  0  0  0  0  0
   46.3360   33.9890   44.0620 N   0  0  0  0  0  0  0  0  0  0  0  0
   45.7200   34.0610   45.2650 C   0  0  0  0  0  0  0  0  0  0  0  0
   44.8330   35.0360   45.4940 N   0  0  0  0  0  0  0  0  0  0  0  0
   43.8450   36.7640   44.6400 H   0  0  0  0  0  0  0  0  0  0  0  0
   44.9430   36.6270   42.5100 H   0  0  0  0  0  0  0  0  0  0  0  0
   46.0300   33.0770   46.2960 C   0  0  0  0  0  0  0  0  0  0  0  0
   45.2590   33.0070   47.4370 C   0  0  0  0  0  0  0  0  0  0  0  0
   44.4170   33.6900   47.5660 H   0  0  0  0  0  0  0  0  0  0  0  0
   45.4850   32.1150   48.4450 C   0  0  0  0  0  0  0  0  0  0  0  0
   44.8510   32.0910   49.3350 H   0  0  0  0  0  0  0  0  0  0  0  0
   46.5390   31.2470   48.3040 C   0  0  0  0  0  3  0  0  0  0  0  0
   47.3210   31.3110   47.1540 C   0  0  0  0  0  3  0  0  0  0  0  0
   47.0590   32.2170   46.1750 N   0  0  0  0  0  0  0  0  0  0  0  0
   46.7090   34.8200   41.8210 O   0  0  0  0  0  0  0  0  0  0  0  0
   48.6910   33.2190   41.1110 O   0  0  0  0  0  0  0  0  0  0  0  0
   48.3990   34.5810   41.7200 P   0  0  0  0  0  0  0  0  0  0  0  0
   49.0610   35.8240   40.8230 O   0  0  0  0  0  0  0  0  0  0  0  0
   49.2490   35.4850   39.9000 H   0  0  0  0  0  0  0  0  0  0  0  0
   48.9910   34.5790   43.3210 O   0  0  0  0  0  0  0  0  0  0  0  0
   48.9190   35.5210   43.6260 H   0  0  0  0  0  0  0  0  0  0  0  0
  1  7  1  0  0  0  0
  1  6  1  0  0  0  0
  2  1  2  0  0  0  0
  3  2  1  0  0  0  0
  3  4  2  0  0  0  0
  4  5  1  0  0  0  0
  5  6  2  0  0  0  0
  5  9  1  0  0  0  0
  8  2  1  0  0  0  0
  9 10  1  0  0  0  0
 10 11  1  0  0  0  0
 10 12  2  0  0  0  0
 12 13  1  0  0  0  0
 14 12  1  0  0  0  0
 15 14  2  0  0  0  0
 16  9  2  0  0  0  0
 16 15  1  0  0  0  0
 17  3  1  0  0  0  0
 18 19  2  0  0  0  0
 19 17  1  0  0  0  0
 19 22  1  0  0  0  0
 20 19  1  0  0  0  0
 21 20  1  0  0  0  0
 22 23  1  0  0  0  0
M  END
>  <minimizedAffinity>
-5.77796698

>  <minimizedRMSD>
0.36791718

$$$$
