
 OpenBabel03252502443D

 30 32  0  0  1  0  0  0  0  0999 V2000
   47.6410   35.4770   41.9450 C   0  0  0  0  0  0  0  0  0  0  0  0
   47.8870   35.8960   42.9730 H   0  0  0  0  0  0  0  0  0  0  0  0
   47.3140   36.2960   41.3090 H   0  0  0  0  0  0  0  0  0  0  0  0
   48.9010   34.8070   41.5090 C   0  0  1  0  0  0  0  0  0  0  0  0
   50.0160   34.7250   42.5050 C   0  0  0  0  0  0  0  0  0  0  0  0
   49.2280   33.5250   42.1400 C   0  0  2  0  0  0  0  0  0  0  0  0
   49.1340   35.0280   40.4310 H   0  0  0  0  0  0  0  0  0  0  0  0
   49.9660   35.2270   43.4900 H   0  0  0  0  0  0  0  0  0  0  0  0
   51.0200   34.9020   42.0660 H   0  0  0  0  0  0  0  0  0  0  0  0
   48.6340   32.8670   42.7430 H   0  0  0  0  0  0  0  0  0  0  0  0
   49.9690   32.6240   41.2010 C   0  0  0  0  0  0  0  0  0  0  0  0
   51.2700   32.2380   41.4870 C   0  0  0  0  0  0  0  0  0  0  0  0
   51.7980   32.5710   42.3930 H   0  0  0  0  0  0  0  0  0  0  0  0
   52.0400   31.4250   40.7110 C   0  0  0  0  0  0  0  0  0  0  0  0
   53.0440   31.1290   40.9330 H   0  0  0  0  0  0  0  0  0  0  0  0
   51.4930   30.9440   39.5500 C   0  0  0  0  0  0  0  0  0  0  0  0
   50.2020   31.3070   39.2360 C   0  0  0  0  0  0  0  0  0  0  0  0
   49.4980   32.1050   40.0330 N   0  0  0  0  0  0  0  0  0  0  0  0
   46.6160   34.3710   42.1240 C   0  0  0  0  0  0  0  0  0  0  0  0
   47.2030   33.4700   42.4940 H   0  0  0  0  0  0  0  0  0  0  0  0
   45.9870   34.1770   41.2680 H   0  0  0  0  0  0  0  0  0  0  0  0
   44.4790   35.9200   44.7990 C   0  0  0  0  0  0  0  0  0  0  0  0
   45.1070   35.7070   43.5330 C   0  0  0  0  0  0  0  0  0  0  0  0
   45.9010   34.5990   43.4110 C   0  0  0  0  0  0  0  0  0  0  0  0
   46.0560   33.7600   44.4750 N   0  0  0  0  0  0  0  0  0  0  0  0
   45.4670   33.9770   45.6370 C   0  0  0  0  0  0  0  0  0  0  0  0
   44.6830   35.0480   45.8020 N   0  0  0  0  0  0  0  0  0  0  0  0
   43.8380   36.7600   44.9990 H   0  0  0  0  0  0  0  0  0  0  0  0
   44.8390   36.4770   42.8330 H   0  0  0  0  0  0  0  0  0  0  0  0
   45.6910   33.2210   46.3790 H   0  0  0  0  0  0  0  0  0  0  0  0
  1 19  1  0  0  0  0
  1  2  1  0  0  0  0
  3  1  1  0  0  0  0
  4  7  1  6  0  0  0
  4  1  1  0  0  0  0
  4  6  1  0  0  0  0
  4  5  1  0  0  0  0
  5  8  1  0  0  0  0
  6  5  1  0  0  0  0
  6 10  1  1  0  0  0
  9  5  1  0  0  0  0
 11 12  1  0  0  0  0
 11  6  1  0  0  0  0
 12 13  1  0  0  0  0
 14 15  1  0  0  0  0
 14 12  2  0  0  0  0
 16 14  1  0  0  0  0
 17 16  2  0  0  0  0
 17 18  1  0  0  0  0
 18 11  2  0  0  0  0
 19 20  1  0  0  0  0
 19 24  1  0  0  0  0
 21 19  1  0  0  0  0
 22 28  1  0  0  0  0
 22 27  1  0  0  0  0
 23 22  2  0  0  0  0
 24 23  1  0  0  0  0
 24 25  2  0  0  0  0
 25 26  1  0  0  0  0
 26 27  2  0  0  0  0
 26 30  1  0  0  0  0
 29 23  1  0  0  0  0
M  END
>  <minimizedAffinity>
-4.92288065

>  <minimizedRMSD>
1.20780349

$$$$
