
 OpenBabel03242521243D

 41 44  0  0  0  0  0  0  0  0999 V2000
   45.3450   33.7630   45.6510 C   0  0  0  0  0  0  0  0  0  0  0  0
   44.8050   34.9840   45.9500 C   0  0  0  0  0  0  0  0  0  0  0  0
   44.3760   35.8870   45.0060 C   0  0  0  0  0  0  0  0  0  0  0  0
   44.5160   35.5020   43.7210 N   0  0  0  0  0  0  0  0  0  0  0  0
   45.0460   34.3060   43.4210 C   0  0  0  0  0  0  0  0  0  0  0  0
   45.4660   33.4220   44.3530 N   0  0  0  0  0  0  0  0  0  0  0  0
   44.7190   35.2340   46.9970 H   0  0  0  0  0  0  0  0  0  0  0  0
   43.9550   36.8400   45.2530 H   0  0  0  0  0  0  0  0  0  0  0  0
   45.1930   33.9000   42.0040 C   0  0  0  0  0  0  0  0  0  0  0  0
   44.1590   33.2500   41.3730 C   0  0  0  0  0  0  0  0  0  0  0  0
   44.1870   32.8280   40.0610 C   0  0  0  0  0  0  0  0  0  0  0  0
   45.3510   33.0870   39.3420 C   0  0  0  0  0  0  0  0  0  0  0  0
   46.3820   33.7320   39.9630 C   0  0  0  0  0  0  0  0  0  0  0  0
   46.3400   34.1510   41.2810 C   0  0  0  0  0  0  0  0  0  0  0  0
   43.2330   33.0270   41.8940 H   0  0  0  0  0  0  0  0  0  0  0  0
   43.3500   32.3140   39.5900 H   0  0  0  0  0  0  0  0  0  0  0  0
   45.4070   32.7730   38.3200 H   0  0  0  0  0  0  0  0  0  0  0  0
   47.2910   33.9390   39.4110 H   0  0  0  0  0  0  0  0  0  0  0  0
   47.3570   34.8010   41.9340 O   0  0  0  0  0  0  0  0  0  0  0  0
   49.8050   35.4270   42.5930 O   0  0  0  0  0  0  0  0  0  0  0  0
   48.9810   34.8360   41.4480 P   0  0  0  0  0  0  0  0  0  0  0  0
   49.5980   33.3620   40.9850 O   0  0  0  0  0  0  0  0  0  0  0  0
   49.3660   33.1400   40.0470 H   0  0  0  0  0  0  0  0  0  0  0  0
   49.1360   35.9110   40.1490 O   0  0  0  0  0  0  0  0  0  0  0  0
   49.8190   35.5660   39.4950 H   0  0  0  0  0  0  0  0  0  0  0  0
   45.5850   32.0490   48.8700 C   0  0  0  0  0  0  0  0  0  0  0  0
   46.6220   31.1240   48.6220 C   0  0  0  0  0  0  0  0  0  0  0  0
   47.2170   31.0930   47.3850 C   0  0  0  0  0  0  0  0  0  0  0  0
   46.7830   31.9670   46.4260 N   0  0  0  0  0  0  0  0  0  0  0  0
   45.7820   32.8490   46.6920 C   0  0  0  0  0  0  0  0  0  0  0  0
   45.2010   32.8790   47.8960 N   0  0  0  0  0  0  0  0  0  0  0  0
   45.1230   32.0580   49.8610 H   0  0  0  0  0  0  0  0  0  0  0  0
   46.9610   30.4440   49.3650 H   0  0  0  0  0  0  0  0  0  0  0  0
   48.2950   30.1940   46.9920 C   0  0  0  0  0  0  0  0  0  0  0  0
   49.2040   29.6870   47.8980 C   0  0  0  0  0  0  0  0  0  0  0  0
   49.1440   29.9460   48.9470 H   0  0  0  0  0  0  0  0  0  0  0  0
   50.2450   28.8340   47.6000 C   0  0  0  0  0  0  0  0  0  0  0  0
   50.9300   28.4620   48.3310 H   0  0  0  0  0  0  0  0  0  0  0  0
   50.4050   28.4450   46.2820 C   0  0  0  0  0  0  0  0  0  0  0  0
   49.4940   28.9550   45.3800 C   0  0  0  0  0  0  0  0  0  0  0  0
   48.4890   29.7860   45.7140 N   0  0  0  0  0  0  0  0  0  0  0  0
  1  2  1  0  0  0  0
  1 30  1  0  0  0  0
  2  7  1  0  0  0  0
  3  8  1  0  0  0  0
  3  2  2  0  0  0  0
  4  3  1  0  0  0  0
  5  4  2  0  0  0  0
  5  6  1  0  0  0  0
  6  1  2  0  0  0  0
  9  5  1  0  0  0  0
 10 15  1  0  0  0  0
 10  9  1  0  0  0  0
 11 10  2  0  0  0  0
 12 13  2  0  0  0  0
 12 11  1  0  0  0  0
 13 14  1  0  0  0  0
 14 19  1  0  0  0  0
 14  9  2  0  0  0  0
 16 11  1  0  0  0  0
 17 12  1  0  0  0  0
 18 13  1  0  0  0  0
 21 19  1  0  0  0  0
 21 20  2  0  0  0  0
 22 21  1  0  0  0  0
 23 22  1  0  0  0  0
 24 21  1  0  0  0  0
 25 24  1  0  0  0  0
 26 32  1  0  0  0  0
 27 26  1  0  0  0  0
 27 33  1  0  0  0  0
 28 27  2  0  0  0  0
 29 30  2  0  0  0  0
 29 28  1  0  0  0  0
 30 31  1  0  0  0  0
 31 26  2  0  0  0  0
 34 28  1  0  0  0  0
 34 35  1  0  0  0  0
 35 36  1  0  0  0  0
 37 35  2  0  0  0  0
 37 38  1  0  0  0  0
 39 37  1  0  0  0  0
 40 41  1  0  0  0  0
 40 39  2  0  0  0  0
 41 34  2  0  0  0  0
M  END
>  <minimizedAffinity>
-6.42235804

>  <minimizedRMSD>
0.602540076

$$$$
