
 OpenBabel03252507073D

 23 24  0  0  0  0  0  0  0  0999 V2000
   44.6240   35.6280   44.8010 C   0  0  0  0  0  0  0  0  0  0  0  0
   45.1990   35.7890   43.5290 C   0  0  0  0  0  0  0  0  0  0  0  0
   46.1790   34.8670   43.1440 C   0  0  0  0  0  0  0  0  0  0  0  0
   46.5120   33.8820   44.0140 N   0  0  0  0  0  0  0  0  0  0  0  0
   45.9390   33.7530   45.2330 C   0  0  0  0  0  0  0  0  0  0  0  0
   45.0010   34.6260   45.6170 N   0  0  0  0  0  0  0  0  0  0  0  0
   43.8730   36.3790   45.0310 H   0  0  0  0  0  0  0  0  0  0  0  0
   44.8950   36.5990   42.8700 H   0  0  0  0  0  0  0  0  0  0  0  0
   46.3510   32.6650   46.1140 C   0  0  0  0  0  0  0  0  0  0  0  0
   46.0470   31.3600   45.7890 C   0  0  0  0  0  0  0  0  0  0  0  0
   45.4970   31.1450   44.8700 H   0  0  0  0  0  0  0  0  0  0  0  0
   46.3960   30.2910   46.5600 C   0  0  0  0  0  0  0  0  0  0  0  0
   46.1370   29.2700   46.2670 H   0  0  0  0  0  0  0  0  0  0  0  0
   47.0870   30.5380   47.7190 C   0  0  0  0  0  3  0  0  0  0  0  0
   47.3980   31.8540   48.0550 C   0  0  0  0  0  3  0  0  0  0  0  0
   47.0290   32.8900   47.2560 N   0  0  0  0  0  0  0  0  0  0  0  0
   46.7460   35.0240   41.8950 O   0  0  0  0  0  0  0  0  0  0  0  0
   48.5480   33.2790   41.0570 O   0  0  0  0  0  0  0  0  0  0  0  0
   48.4020   34.6660   41.6630 P   0  0  0  0  0  0  0  0  0  0  0  0
   49.0740   35.8480   40.6950 O   0  0  0  0  0  0  0  0  0  0  0  0
   49.1630   35.4850   39.7650 H   0  0  0  0  0  0  0  0  0  0  0  0
   49.1200   34.6410   43.2120 O   0  0  0  0  0  0  0  0  0  0  0  0
   49.1380   35.5890   43.5040 H   0  0  0  0  0  0  0  0  0  0  0  0
  1  7  1  0  0  0  0
  1  6  1  0  0  0  0
  2  1  2  0  0  0  0
  3  2  1  0  0  0  0
  3  4  2  0  0  0  0
  4  5  1  0  0  0  0
  5  6  2  0  0  0  0
  5  9  1  0  0  0  0
  8  2  1  0  0  0  0
  9 16  1  0  0  0  0
 10  9  2  0  0  0  0
 10 12  1  0  0  0  0
 11 10  1  0  0  0  0
 12 14  2  0  0  0  0
 13 12  1  0  0  0  0
 14 15  1  0  0  0  0
 16 15  2  0  0  0  0
 17  3  1  0  0  0  0
 18 19  2  0  0  0  0
 19 17  1  0  0  0  0
 19 22  1  0  0  0  0
 20 19  1  0  0  0  0
 21 20  1  0  0  0  0
 22 23  1  0  0  0  0
M  END
>  <minimizedAffinity>
-5.45667553

>  <minimizedRMSD>
0.520956457

$$$$
