
 OpenBabel03242516513D

 42 45  0  0  1  0  0  0  0  0999 V2000
   36.6120   30.5280   39.1600 C   0  0  1  0  0  0  0  0  0  0  0  0
   36.8080   29.6060   38.0200 C   0  0  0  0  0  0  0  0  0  0  0  0
   35.4150   29.3940   37.4200 C   0  0  0  0  0  0  0  0  0  0  0  0
   34.6470   28.5540   38.4280 C   0  0  0  0  0  0  0  0  0  0  0  0
   34.5990   29.1530   39.7980 C   0  0  0  0  0  0  0  0  0  0  0  0
   35.7720   29.9120   40.2600 C   0  0  1  0  0  0  0  0  0  0  0  0
   35.9790   31.3970   38.8070 H   0  0  0  0  0  0  0  0  0  0  0  0
   37.2420   28.6370   38.2890 H   0  0  0  0  0  0  0  0  0  0  0  0
   37.4090   30.1400   37.2450 H   0  0  0  0  0  0  0  0  0  0  0  0
   35.4280   28.8580   36.4750 H   0  0  0  0  0  0  0  0  0  0  0  0
   34.9320   30.3870   37.3860 H   0  0  0  0  0  0  0  0  0  0  0  0
   33.6400   28.4280   38.0200 H   0  0  0  0  0  0  0  0  0  0  0  0
   35.1160   27.5390   38.4220 H   0  0  0  0  0  0  0  0  0  0  0  0
   33.6680   29.7870   39.8250 H   0  0  0  0  0  0  0  0  0  0  0  0
   34.3960   28.3290   40.5160 H   0  0  0  0  0  0  0  0  0  0  0  0
   35.4020   30.7900   40.8690 H   0  0  0  0  0  0  0  0  0  0  0  0
   38.9150   32.9510   40.9210 C   0  0  0  0  0  0  0  0  0  0  0  0
   37.7870   32.3370   40.3760 C   0  0  0  0  0  0  0  0  0  0  0  0
   37.8230   31.1160   39.7170 C   0  0  0  0  0  0  0  0  0  0  0  0
   39.0310   30.5330   39.6250 N   0  0  0  0  0  0  0  0  0  0  0  0
   40.1380   31.1130   40.1490 C   0  0  0  0  0  0  0  0  0  0  0  0
   40.0940   32.2910   40.7840 N   0  0  0  0  0  0  0  0  0  0  0  0
   38.8630   33.8980   41.4280 H   0  0  0  0  0  0  0  0  0  0  0  0
   36.8700   32.9030   40.5110 H   0  0  0  0  0  0  0  0  0  0  0  0
   41.0450   30.5230   39.9980 H   0  0  0  0  0  0  0  0  0  0  0  0
   36.6060   29.1460   41.2020 C   0  0  0  0  0  0  0  0  0  0  0  0
   37.2110   29.6330   42.3690 C   0  0  0  0  0  0  0  0  0  0  0  0
   37.9380   28.6920   43.1110 C   0  0  0  0  0  0  0  0  0  0  0  0
   38.0000   27.3940   42.6470 C   0  0  0  0  0  0  0  0  0  0  0  0
   37.4030   26.9370   41.5040 C   0  0  0  0  0  0  0  0  0  0  0  0
   36.6980   27.8500   40.7840 N   0  0  0  0  0  0  0  0  0  0  0  0
   37.0610   30.6520   42.5720 H   0  0  0  0  0  0  0  0  0  0  0  0
   38.4000   29.0620   44.0020 H   0  0  0  0  0  0  0  0  0  0  0  0
   38.5790   26.7340   43.2780 H   0  0  0  0  0  0  0  0  0  0  0  0
   37.4940   25.5520   41.0480 C   0  0  0  0  0  0  0  0  0  0  0  0
   36.5200   24.9500   40.3080 C   0  0  0  0  0  0  0  0  0  0  0  0
   35.6250   25.4790   40.0200 H   0  0  0  0  0  0  0  0  0  0  0  0
   36.6300   23.6310   39.8860 C   0  0  0  0  0  0  0  0  0  0  0  0
   35.8800   23.1180   39.2980 H   0  0  0  0  0  0  0  0  0  0  0  0
   37.7490   22.9090   40.2240 C   0  0  0  0  0  3  0  0  0  0  0  0
   38.7210   23.5260   40.9700 C   0  0  0  0  0  3  0  0  0  0  0  0
   38.5850   24.8240   41.3690 N   0  0  0  0  0  0  0  0  0  0  0  0
  1  7  1  6  0  0  0
  1 19  1  0  0  0  0
  1  6  1  0  0  0  0
  2  8  1  0  0  0  0
  2  1  1  0  0  0  0
  3  2  1  0  0  0  0
  3  4  1  0  0  0  0
  4  5  1  0  0  0  0
  5 14  1  0  0  0  0
  5  6  1  0  0  0  0
  5 15  1  0  0  0  0
  6 16  1  1  0  0  0
  6 26  1  0  0  0  0
  9  2  1  0  0  0  0
 10  3  1  0  0  0  0
 11  3  1  0  0  0  0
 12  4  1  0  0  0  0
 13  4  1  0  0  0  0
 17 23  1  0  0  0  0
 18 24  1  0  0  0  0
 18 17  2  0  0  0  0
 19 18  1  0  0  0  0
 20 19  2  0  0  0  0
 20 21  1  0  0  0  0
 21 22  2  0  0  0  0
 22 17  1  0  0  0  0
 25 21  1  0  0  0  0
 26 27  1  0  0  0  0
 27 32  1  0  0  0  0
 27 28  2  0  0  0  0
 28 33  1  0  0  0  0
 29 28  1  0  0  0  0
 29 34  1  0  0  0  0
 30 29  2  0  0  0  0
 31 26  2  0  0  0  0
 31 30  1  0  0  0  0
 35 42  1  0  0  0  0
 35 30  1  0  0  0  0
 36 35  2  0  0  0  0
 37 36  1  0  0  0  0
 38 40  2  0  0  0  0
 38 36  1  0  0  0  0
 39 38  1  0  0  0  0
 40 41  1  0  0  0  0
 41 42  2  0  0  0  0
M  END
>  <minimizedAffinity>
-6.20897579

$$$$

 OpenBabel03242516513D

 42 45  0  0  1  0  0  0  0  0999 V2000
   38.9360   24.9030   40.9250 C   0  0  1  0  0  0  0  0  0  0  0  0
   38.3490   23.7520   41.6450 C   0  0  0  0  0  0  0  0  0  0  0  0
   37.5080   23.0040   40.6050 C   0  0  0  0  0  0  0  0  0  0  0  0
   36.3080   23.8930   40.3190 C   0  0  0  0  0  0  0  0  0  0  0  0
   36.6740   25.2750   39.8770 C   0  0  0  0  0  0  0  0  0  0  0  0
   37.8820   25.8850   40.4550 C   0  0  1  0  0  0  0  0  0  0  0  0
   39.3860   24.5240   39.9590 H   0  0  0  0  0  0  0  0  0  0  0  0
   37.7180   24.0230   42.4990 H   0  0  0  0  0  0  0  0  0  0  0  0
   39.1810   23.0650   41.9310 H   0  0  0  0  0  0  0  0  0  0  0  0
   37.1400   22.0440   40.9560 H   0  0  0  0  0  0  0  0  0  0  0  0
   38.1130   22.9630   39.6820 H   0  0  0  0  0  0  0  0  0  0  0  0
   35.7210   23.3790   39.5510 H   0  0  0  0  0  0  0  0  0  0  0  0
   35.6800   23.8930   41.2440 H   0  0  0  0  0  0  0  0  0  0  0  0
   36.7370   25.2330   38.7540 H   0  0  0  0  0  0  0  0  0  0  0  0
   35.8020   25.9340   40.0830 H   0  0  0  0  0  0  0  0  0  0  0  0
   38.3900   26.4900   39.6450 H   0  0  0  0  0  0  0  0  0  0  0  0
   41.3240   25.9590   43.6550 C   0  0  0  0  0  0  0  0  0  0  0  0
   40.3150   25.3140   42.9400 C   0  0  0  0  0  0  0  0  0  0  0  0
   40.0080   25.6050   41.6180 C   0  0  0  0  0  0  0  0  0  0  0  0
   40.7500   26.5650   41.0400 N   0  0  0  0  0  0  0  0  0  0  0  0
   41.7350   27.2030   41.7180 C   0  0  0  0  0  0  0  0  0  0  0  0
   42.0250   26.9160   42.9930 N   0  0  0  0  0  0  0  0  0  0  0  0
   41.5450   25.7160   44.6790 H   0  0  0  0  0  0  0  0  0  0  0  0
   39.7850   24.5590   43.5120 H   0  0  0  0  0  0  0  0  0  0  0  0
   42.2510   27.9570   41.1190 H   0  0  0  0  0  0  0  0  0  0  0  0
   37.5700   26.8750   41.5010 C   0  0  0  0  0  0  0  0  0  0  0  0
   37.1030   26.6050   42.7940 C   0  0  0  0  0  0  0  0  0  0  0  0
   36.9060   27.7250   43.6130 C   0  0  0  0  0  0  0  0  0  0  0  0
   37.1800   28.9750   43.0950 C   0  0  0  0  0  0  0  0  0  0  0  0
   37.6360   29.2190   41.8270 C   0  0  0  0  0  0  0  0  0  0  0  0
   37.8270   28.1310   41.0340 N   0  0  0  0  0  0  0  0  0  0  0  0
   36.9460   25.5920   43.0230 H   0  0  0  0  0  0  0  0  0  0  0  0
   36.5490   27.5210   44.6010 H   0  0  0  0  0  0  0  0  0  0  0  0
   37.0020   29.7830   43.7900 H   0  0  0  0  0  0  0  0  0  0  0  0
   37.9150   30.5590   41.3180 C   0  0  0  0  0  0  0  0  0  0  0  0
   37.0250   31.2660   40.5660 C   0  0  0  0  0  0  0  0  0  0  0  0
   36.0580   30.8590   40.3100 H   0  0  0  0  0  0  0  0  0  0  0  0
   37.3120   32.5400   40.0930 C   0  0  0  0  0  0  0  0  0  0  0  0
   36.6330   33.1320   39.4940 H   0  0  0  0  0  0  0  0  0  0  0  0
   38.5290   33.1070   40.3880 C   0  0  0  0  0  3  0  0  0  0  0  0
   39.4160   32.3850   41.1460 C   0  0  0  0  0  3  0  0  0  0  0  0
   39.1050   31.1350   41.5970 N   0  0  0  0  0  0  0  0  0  0  0  0
  1  7  1  6  0  0  0
  1 19  1  0  0  0  0
  1  2  1  0  0  0  0
  2  9  1  0  0  0  0
  2  8  1  0  0  0  0
  3 10  1  0  0  0  0
  3  2  1  0  0  0  0
  4  3  1  0  0  0  0
  4 13  1  0  0  0  0
  5 15  1  0  0  0  0
  5  4  1  0  0  0  0
  5  6  1  0  0  0  0
  6 16  1  6  0  0  0
  6  1  1  0  0  0  0
  6 26  1  0  0  0  0
 11  3  1  0  0  0  0
 12  4  1  0  0  0  0
 14  5  1  0  0  0  0
 17 23  1  0  0  0  0
 18 24  1  0  0  0  0
 18 17  2  0  0  0  0
 19 18  1  0  0  0  0
 20 19  2  0  0  0  0
 20 21  1  0  0  0  0
 21 22  2  0  0  0  0
 22 17  1  0  0  0  0
 25 21  1  0  0  0  0
 26 27  1  0  0  0  0
 27 32  1  0  0  0  0
 27 28  2  0  0  0  0
 28 33  1  0  0  0  0
 29 28  1  0  0  0  0
 29 34  1  0  0  0  0
 30 29  2  0  0  0  0
 31 26  2  0  0  0  0
 31 30  1  0  0  0  0
 35 42  1  0  0  0  0
 35 30  1  0  0  0  0
 36 35  2  0  0  0  0
 37 36  1  0  0  0  0
 38 40  2  0  0  0  0
 38 36  1  0  0  0  0
 39 38  1  0  0  0  0
 40 41  1  0  0  0  0
 41 42  2  0  0  0  0
M  END
>  <minimizedAffinity>
-6.10411119

$$$$

 OpenBabel03242516513D

 42 45  0  0  1  0  0  0  0  0999 V2000
   37.3490   30.3570   38.6680 C   0  0  1  0  0  0  0  0  0  0  0  0
   36.9340   28.9430   38.5450 C   0  0  0  0  0  0  0  0  0  0  0  0
   35.4210   28.9380   38.7830 C   0  0  0  0  0  0  0  0  0  0  0  0
   35.2280   29.2370   40.2620 C   0  0  0  0  0  0  0  0  0  0  0  0
   35.8770   30.5090   40.7080 C   0  0  0  0  0  0  0  0  0  0  0  0
   37.1440   30.8960   40.0700 C   0  0  1  0  0  0  0  0  0  0  0  0
   36.6480   30.9880   38.0430 H   0  0  0  0  0  0  0  0  0  0  0  0
   37.4180   28.2630   39.2540 H   0  0  0  0  0  0  0  0  0  0  0  0
   37.0880   28.6310   37.4840 H   0  0  0  0  0  0  0  0  0  0  0  0
   34.9520   27.9820   38.5680 H   0  0  0  0  0  0  0  0  0  0  0  0
   35.0100   29.7960   38.2200 H   0  0  0  0  0  0  0  0  0  0  0  0
   34.1470   29.2690   40.4310 H   0  0  0  0  0  0  0  0  0  0  0  0
   35.6060   28.3450   40.8210 H   0  0  0  0  0  0  0  0  0  0  0  0
   35.0970   31.3120   40.5850 H   0  0  0  0  0  0  0  0  0  0  0  0
   36.0330   30.4370   41.8070 H   0  0  0  0  0  0  0  0  0  0  0  0
   37.1460   32.0220   39.9510 H   0  0  0  0  0  0  0  0  0  0  0  0
   40.9440   29.9070   37.5960 C   0  0  0  0  0  0  0  0  0  0  0  0
   39.6410   29.6680   38.0340 C   0  0  0  0  0  0  0  0  0  0  0  0
   38.6920   30.6680   38.1980 C   0  0  0  0  0  0  0  0  0  0  0  0
   39.0970   31.9160   37.9050 N   0  0  0  0  0  0  0  0  0  0  0  0
   40.3580   32.1690   37.4780 C   0  0  0  0  0  0  0  0  0  0  0  0
   41.2670   31.1980   37.3220 N   0  0  0  0  0  0  0  0  0  0  0  0
   41.6620   29.1160   37.4760 H   0  0  0  0  0  0  0  0  0  0  0  0
   39.4320   28.6230   38.2400 H   0  0  0  0  0  0  0  0  0  0  0  0
   40.5410   33.2270   37.2780 H   0  0  0  0  0  0  0  0  0  0  0  0
   38.3150   30.6220   40.9220 C   0  0  0  0  0  0  0  0  0  0  0  0
   39.2570   31.5560   41.3730 C   0  0  0  0  0  0  0  0  0  0  0  0
   40.2690   31.0460   42.1970 C   0  0  0  0  0  0  0  0  0  0  0  0
   40.2580   29.6970   42.4930 C   0  0  0  0  0  0  0  0  0  0  0  0
   39.3280   28.8000   42.0420 C   0  0  0  0  0  0  0  0  0  0  0  0
   38.3470   29.2960   41.2430 N   0  0  0  0  0  0  0  0  0  0  0  0
   39.1130   32.5450   41.0500 H   0  0  0  0  0  0  0  0  0  0  0  0
   40.9890   31.7570   42.5430 H   0  0  0  0  0  0  0  0  0  0  0  0
   41.0710   29.3860   43.1340 H   0  0  0  0  0  0  0  0  0  0  0  0
   39.3540   27.3780   42.3800 C   0  0  0  0  0  0  0  0  0  0  0  0
   40.1310   26.8680   43.3760 C   0  0  0  0  0  0  0  0  0  0  0  0
   40.7720   27.5020   43.9700 H   0  0  0  0  0  0  0  0  0  0  0  0
   40.1380   25.5120   43.6790 C   0  0  0  0  0  0  0  0  0  0  0  0
   40.7400   25.0680   44.4620 H   0  0  0  0  0  0  0  0  0  0  0  0
   39.3410   24.6580   42.9550 C   0  0  0  0  0  3  0  0  0  0  0  0
   38.5640   25.1850   41.9540 C   0  0  0  0  0  3  0  0  0  0  0  0
   38.5790   26.5220   41.6800 N   0  0  0  0  0  0  0  0  0  0  0  0
  1  7  1  6  0  0  0
  1  6  1  0  0  0  0
  2  1  1  0  0  0  0
  2  3  1  0  0  0  0
  2  8  1  0  0  0  0
  3  4  1  0  0  0  0
  4 12  1  0  0  0  0
  4  5  1  0  0  0  0
  4 13  1  0  0  0  0
  5 15  1  0  0  0  0
  6 16  1  6  0  0  0
  6  5  1  0  0  0  0
  6 26  1  0  0  0  0
  9  2  1  0  0  0  0
 10  3  1  0  0  0  0
 11  3  1  0  0  0  0
 14  5  1  0  0  0  0
 17 18  1  0  0  0  0
 18 19  2  0  0  0  0
 18 24  1  0  0  0  0
 19  1  1  0  0  0  0
 20 19  1  0  0  0  0
 21 20  2  0  0  0  0
 22 21  1  0  0  0  0
 22 17  2  0  0  0  0
 23 17  1  0  0  0  0
 25 21  1  0  0  0  0
 26 31  2  0  0  0  0
 26 27  1  0  0  0  0
 27 28  2  0  0  0  0
 28 29  1  0  0  0  0
 28 33  1  0  0  0  0
 29 34  1  0  0  0  0
 30 35  1  0  0  0  0
 30 29  2  0  0  0  0
 31 30  1  0  0  0  0
 32 27  1  0  0  0  0
 35 36  1  0  0  0  0
 36 38  2  0  0  0  0
 36 37  1  0  0  0  0
 38 39  1  0  0  0  0
 40 38  1  0  0  0  0
 41 40  2  0  0  0  0
 42 41  1  0  0  0  0
 42 35  2  0  0  0  0
M  END
>  <minimizedAffinity>
-5.76048899

$$$$

 OpenBabel03242516513D

 42 45  0  0  1  0  0  0  0  0999 V2000
   37.6760   30.9190   39.6520 C   0  0  1  0  0  0  0  0  0  0  0  0
   37.3860   32.1460   40.4240 C   0  0  0  0  0  0  0  0  0  0  0  0
   38.6730   32.9760   40.3720 C   0  0  0  0  0  0  0  0  0  0  0  0
   39.6810   32.2400   41.2410 C   0  0  0  0  0  0  0  0  0  0  0  0
   39.8970   30.8160   40.8360 C   0  0  0  0  0  0  0  0  0  0  0  0
   38.7470   30.0690   40.3040 C   0  0  1  0  0  0  0  0  0  0  0  0
   38.1470   31.2220   38.6690 H   0  0  0  0  0  0  0  0  0  0  0  0
   37.1050   31.9710   41.4690 H   0  0  0  0  0  0  0  0  0  0  0  0
   36.6130   32.7280   39.8680 H   0  0  0  0  0  0  0  0  0  0  0  0
   38.5560   33.9810   40.7690 H   0  0  0  0  0  0  0  0  0  0  0  0
   39.0390   32.9250   39.3310 H   0  0  0  0  0  0  0  0  0  0  0  0
   40.6140   32.8100   41.1800 H   0  0  0  0  0  0  0  0  0  0  0  0
   39.3250   32.3350   42.2960 H   0  0  0  0  0  0  0  0  0  0  0  0
   40.7490   30.8300   40.1000 H   0  0  0  0  0  0  0  0  0  0  0  0
   40.3020   30.2750   41.7200 H   0  0  0  0  0  0  0  0  0  0  0  0
   39.1220   29.3910   39.4790 H   0  0  0  0  0  0  0  0  0  0  0  0
   35.3720   28.6490   37.6990 C   0  0  0  0  0  0  0  0  0  0  0  0
   36.4540   29.4380   38.0870 C   0  0  0  0  0  0  0  0  0  0  0  0
   36.5220   30.1000   39.3060 C   0  0  0  0  0  0  0  0  0  0  0  0
   35.4640   29.9400   40.1200 N   0  0  0  0  0  0  0  0  0  0  0  0
   34.4030   29.1770   39.7610 C   0  0  0  0  0  0  0  0  0  0  0  0
   34.3480   28.5410   38.5840 N   0  0  0  0  0  0  0  0  0  0  0  0
   35.3420   28.1450   36.7490 H   0  0  0  0  0  0  0  0  0  0  0  0
   37.2470   29.4930   37.3470 H   0  0  0  0  0  0  0  0  0  0  0  0
   33.6220   29.1400   40.5240 H   0  0  0  0  0  0  0  0  0  0  0  0
   38.1660   29.1440   41.2930 C   0  0  0  0  0  0  0  0  0  0  0  0
   37.8350   29.4420   42.6220 C   0  0  0  0  0  0  0  0  0  0  0  0
   37.2700   28.3900   43.3540 C   0  0  0  0  0  0  0  0  0  0  0  0
   37.0880   27.1740   42.7270 C   0  0  0  0  0  0  0  0  0  0  0  0
   37.4180   26.9020   41.4270 C   0  0  0  0  0  0  0  0  0  0  0  0
   37.9670   27.9230   40.7170 N   0  0  0  0  0  0  0  0  0  0  0  0
   38.0430   30.4210   42.9380 H   0  0  0  0  0  0  0  0  0  0  0  0
   37.0160   28.6150   44.3690 H   0  0  0  0  0  0  0  0  0  0  0  0
   36.6460   26.4180   43.3610 H   0  0  0  0  0  0  0  0  0  0  0  0
   37.2080   25.5990   40.8000 C   0  0  0  0  0  0  0  0  0  0  0  0
   36.4990   25.4370   39.6480 C   0  0  0  0  0  0  0  0  0  0  0  0
   36.0550   26.2790   39.1380 H   0  0  0  0  0  0  0  0  0  0  0  0
   36.3140   24.1880   39.0700 C   0  0  0  0  0  0  0  0  0  0  0  0
   35.7580   24.0170   38.1570 H   0  0  0  0  0  0  0  0  0  0  0  0
   36.8580   23.0800   39.6760 C   0  0  0  0  0  3  0  0  0  0  0  0
   37.5690   23.2570   40.8360 C   0  0  0  0  0  3  0  0  0  0  0  0
   37.7340   24.4980   41.3790 N   0  0  0  0  0  0  0  0  0  0  0  0
  1  7  1  6  0  0  0
  1  6  1  0  0  0  0
  1  2  1  0  0  0  0
  2  8  1  0  0  0  0
  3  2  1  0  0  0  0
  3 10  1  0  0  0  0
  3  4  1  0  0  0  0
  4 13  1  0  0  0  0
  5  4  1  0  0  0  0
  5 15  1  0  0  0  0
  6 16  1  6  0  0  0
  6  5  1  0  0  0  0
  6 26  1  0  0  0  0
  9  2  1  0  0  0  0
 11  3  1  0  0  0  0
 12  4  1  0  0  0  0
 14  5  1  0  0  0  0
 17 18  2  0  0  0  0
 17 22  1  0  0  0  0
 18 19  1  0  0  0  0
 19  1  1  0  0  0  0
 19 20  2  0  0  0  0
 21 20  1  0  0  0  0
 21 25  1  0  0  0  0
 22 21  2  0  0  0  0
 23 17  1  0  0  0  0
 24 18  1  0  0  0  0
 26 27  1  0  0  0  0
 27 32  1  0  0  0  0
 27 28  2  0  0  0  0
 28 33  1  0  0  0  0
 29 28  1  0  0  0  0
 29 34  1  0  0  0  0
 30 29  2  0  0  0  0
 31 26  2  0  0  0  0
 31 30  1  0  0  0  0
 35 42  1  0  0  0  0
 35 30  1  0  0  0  0
 36 35  2  0  0  0  0
 37 36  1  0  0  0  0
 38 36  1  0  0  0  0
 38 40  2  0  0  0  0
 39 38  1  0  0  0  0
 40 41  1  0  0  0  0
 41 42  2  0  0  0  0
M  END
>  <minimizedAffinity>
-5.73338795

$$$$

 OpenBabel03242516513D

 42 45  0  0  1  0  0  0  0  0999 V2000
   38.9260   30.0900   37.8890 C   0  0  1  0  0  0  0  0  0  0  0  0
   40.1640   29.3560   38.2270 C   0  0  0  0  0  0  0  0  0  0  0  0
   40.4750   28.4910   37.0010 C   0  0  0  0  0  0  0  0  0  0  0  0
   39.4140   27.4030   36.9750 C   0  0  0  0  0  0  0  0  0  0  0  0
   38.0130   27.9300   36.9680 C   0  0  0  0  0  0  0  0  0  0  0  0
   37.7380   29.1660   37.7170 C   0  0  1  0  0  0  0  0  0  0  0  0
   39.0530   30.5430   36.8600 H   0  0  0  0  0  0  0  0  0  0  0  0
   40.0870   28.7180   39.1150 H   0  0  0  0  0  0  0  0  0  0  0  0
   40.9930   30.0990   38.3080 H   0  0  0  0  0  0  0  0  0  0  0  0
   41.4490   28.0110   37.0470 H   0  0  0  0  0  0  0  0  0  0  0  0
   40.3110   29.1300   36.1150 H   0  0  0  0  0  0  0  0  0  0  0  0
   39.6100   26.8020   36.0820 H   0  0  0  0  0  0  0  0  0  0  0  0
   39.6150   26.7370   37.8510 H   0  0  0  0  0  0  0  0  0  0  0  0
   37.7300   28.0400   35.8830 H   0  0  0  0  0  0  0  0  0  0  0  0
   37.3500   27.1220   37.3490 H   0  0  0  0  0  0  0  0  0  0  0  0
   36.9830   29.7700   37.1290 H   0  0  0  0  0  0  0  0  0  0  0  0
   37.2850   33.2330   39.1950 C   0  0  0  0  0  0  0  0  0  0  0  0
   37.6470   32.1490   38.3950 C   0  0  0  0  0  0  0  0  0  0  0  0
   38.5830   31.1960   38.7730 C   0  0  0  0  0  0  0  0  0  0  0  0
   39.1420   31.3700   39.9830 N   0  0  0  0  0  0  0  0  0  0  0  0
   38.8040   32.4160   40.7750 C   0  0  0  0  0  0  0  0  0  0  0  0
   37.8990   33.3300   40.4030 N   0  0  0  0  0  0  0  0  0  0  0  0
   36.5560   33.9590   38.8820 H   0  0  0  0  0  0  0  0  0  0  0  0
   37.1290   32.1150   37.4410 H   0  0  0  0  0  0  0  0  0  0  0  0
   39.3400   32.4260   41.7280 H   0  0  0  0  0  0  0  0  0  0  0  0
   37.0700   28.9100   39.0050 C   0  0  0  0  0  0  0  0  0  0  0  0
   35.7990   29.3560   39.3900 C   0  0  0  0  0  0  0  0  0  0  0  0
   35.3780   28.9560   40.6650 C   0  0  0  0  0  0  0  0  0  0  0  0
   36.2260   28.1750   41.4240 C   0  0  0  0  0  0  0  0  0  0  0  0
   37.4660   27.7490   41.0300 C   0  0  0  0  0  0  0  0  0  0  0  0
   37.8740   28.1380   39.7930 N   0  0  0  0  0  0  0  0  0  0  0  0
   35.2870   29.9450   38.6870 H   0  0  0  0  0  0  0  0  0  0  0  0
   34.4070   29.2950   40.9610 H   0  0  0  0  0  0  0  0  0  0  0  0
   35.8250   27.9100   42.3920 H   0  0  0  0  0  0  0  0  0  0  0  0
   38.3330   26.9210   41.8650 C   0  0  0  0  0  0  0  0  0  0  0  0
   39.0640   27.4230   42.8990 C   0  0  0  0  0  0  0  0  0  0  0  0
   39.0330   28.4720   43.1530 H   0  0  0  0  0  0  0  0  0  0  0  0
   39.8820   26.6160   43.6790 C   0  0  0  0  0  0  0  0  0  0  0  0
   40.4770   26.9760   44.5090 H   0  0  0  0  0  0  0  0  0  0  0  0
   39.9600   25.2720   43.4020 C   0  0  0  0  0  3  0  0  0  0  0  0
   39.2200   24.7790   42.3570 C   0  0  0  0  0  3  0  0  0  0  0  0
   38.4250   25.5980   41.6090 N   0  0  0  0  0  0  0  0  0  0  0  0
  1  7  1  6  0  0  0
  1  2  1  0  0  0  0
  1 19  1  0  0  0  0
  2  9  1  0  0  0  0
  2  8  1  0  0  0  0
  3 10  1  0  0  0  0
  3  2  1  0  0  0  0
  4  3  1  0  0  0  0
  4 13  1  0  0  0  0
  5  4  1  0  0  0  0
  5 15  1  0  0  0  0
  5  6  1  0  0  0  0
  6 16  1  6  0  0  0
  6  1  1  0  0  0  0
  6 26  1  0  0  0  0
 11  3  1  0  0  0  0
 12  4  1  0  0  0  0
 14  5  1  0  0  0  0
 17 22  1  0  0  0  0
 18 19  1  0  0  0  0
 18 17  2  0  0  0  0
 19 20  2  0  0  0  0
 20 21  1  0  0  0  0
 21 25  1  0  0  0  0
 22 21  2  0  0  0  0
 23 17  1  0  0  0  0
 24 18  1  0  0  0  0
 26 27  2  0  0  0  0
 26 31  1  0  0  0  0
 27 28  1  0  0  0  0
 28 33  1  0  0  0  0
 28 29  2  0  0  0  0
 29 34  1  0  0  0  0
 30 29  1  0  0  0  0
 30 35  1  0  0  0  0
 31 30  2  0  0  0  0
 32 27  1  0  0  0  0
 35 36  1  0  0  0  0
 36 37  1  0  0  0  0
 36 38  2  0  0  0  0
 38 39  1  0  0  0  0
 40 38  1  0  0  0  0
 41 40  2  0  0  0  0
 42 35  2  0  0  0  0
 42 41  1  0  0  0  0
M  END
>  <minimizedAffinity>
-5.67278576

$$$$

 OpenBabel03242516513D

 42 45  0  0  1  0  0  0  0  0999 V2000
   36.4430   27.4500   40.2100 C   0  0  1  0  0  0  0  0  0  0  0  0
   37.6790   26.6620   40.4070 C   0  0  0  0  0  0  0  0  0  0  0  0
   37.4190   25.7940   41.6420 C   0  0  0  0  0  0  0  0  0  0  0  0
   37.4120   26.7450   42.8290 C   0  0  0  0  0  0  0  0  0  0  0  0
   36.4290   27.8660   42.6950 C   0  0  0  0  0  0  0  0  0  0  0  0
   36.1870   28.4130   41.3510 C   0  0  1  0  0  0  0  0  0  0  0  0
   35.5610   26.7440   40.2640 H   0  0  0  0  0  0  0  0  0  0  0  0
   38.5810   27.2630   40.5650 H   0  0  0  0  0  0  0  0  0  0  0  0
   37.7810   25.9600   39.5440 H   0  0  0  0  0  0  0  0  0  0  0  0
   38.1870   25.0460   41.8150 H   0  0  0  0  0  0  0  0  0  0  0  0
   36.3940   25.3950   41.5370 H   0  0  0  0  0  0  0  0  0  0  0  0
   37.1920   26.1360   43.7110 H   0  0  0  0  0  0  0  0  0  0  0  0
   38.4610   27.1100   42.9540 H   0  0  0  0  0  0  0  0  0  0  0  0
   35.4740   27.4960   43.1620 H   0  0  0  0  0  0  0  0  0  0  0  0
   36.7670   28.6880   43.3640 H   0  0  0  0  0  0  0  0  0  0  0  0
   35.0880   28.6720   41.2710 H   0  0  0  0  0  0  0  0  0  0  0  0
   34.9100   29.0890   37.1700 C   0  0  0  0  0  0  0  0  0  0  0  0
   35.0820   28.4400   38.3930 C   0  0  0  0  0  0  0  0  0  0  0  0
   36.3260   28.1370   38.9310 C   0  0  0  0  0  0  0  0  0  0  0  0
   37.3890   28.5090   38.1970 N   0  0  0  0  0  0  0  0  0  0  0  0
   37.2430   29.1400   37.0070 C   0  0  0  0  0  0  0  0  0  0  0  0
   36.0390   29.4300   36.4970 N   0  0  0  0  0  0  0  0  0  0  0  0
   33.9360   29.3140   36.7740 H   0  0  0  0  0  0  0  0  0  0  0  0
   34.1520   28.1890   38.8930 H   0  0  0  0  0  0  0  0  0  0  0  0
   38.1940   29.3810   36.5270 H   0  0  0  0  0  0  0  0  0  0  0  0
   36.8760   29.6970   41.1290 C   0  0  0  0  0  0  0  0  0  0  0  0
   36.3260   30.8530   40.5590 C   0  0  0  0  0  0  0  0  0  0  0  0
   37.1850   31.9560   40.4810 C   0  0  0  0  0  0  0  0  0  0  0  0
   38.4740   31.8230   40.9590 C   0  0  0  0  0  0  0  0  0  0  0  0
   38.9930   30.6840   41.5120 C   0  0  0  0  0  0  0  0  0  0  0  0
   38.1590   29.6140   41.5880 N   0  0  0  0  0  0  0  0  0  0  0  0
   35.3260   30.7790   40.2470 H   0  0  0  0  0  0  0  0  0  0  0  0
   36.7670   32.8400   40.0470 H   0  0  0  0  0  0  0  0  0  0  0  0
   39.0690   32.7190   40.8620 H   0  0  0  0  0  0  0  0  0  0  0  0
   40.3650   30.5850   42.0070 C   0  0  0  0  0  0  0  0  0  0  0  0
   40.8750   29.4450   42.5520 C   0  0  0  0  0  0  0  0  0  0  0  0
   40.2780   28.5500   42.6430 H   0  0  0  0  0  0  0  0  0  0  0  0
   42.1820   29.3740   43.0150 C   0  0  0  0  0  0  0  0  0  0  0  0
   42.6240   28.4890   43.4540 H   0  0  0  0  0  0  0  0  0  0  0  0
   42.9880   30.4850   42.9240 C   0  0  0  0  0  3  0  0  0  0  0  0
   42.4620   31.6260   42.3730 C   0  0  0  0  0  3  0  0  0  0  0  0
   41.1730   31.6640   41.9270 N   0  0  0  0  0  0  0  0  0  0  0  0
  1  7  1  1  0  0  0
  1  2  1  0  0  0  0
  1  6  1  0  0  0  0
  2  8  1  0  0  0  0
  2  3  1  0  0  0  0
  3 10  1  0  0  0  0
  3  4  1  0  0  0  0
  4 13  1  0  0  0  0
  4 12  1  0  0  0  0
  5  4  1  0  0  0  0
  5 14  1  0  0  0  0
  5 15  1  0  0  0  0
  6 16  1  6  0  0  0
  6  5  1  0  0  0  0
  9  2  1  0  0  0  0
 11  3  1  0  0  0  0
 17 18  1  0  0  0  0
 18 24  1  0  0  0  0
 18 19  2  0  0  0  0
 19  1  1  0  0  0  0
 20 19  1  0  0  0  0
 21 20  2  0  0  0  0
 22 21  1  0  0  0  0
 22 17  2  0  0  0  0
 23 17  1  0  0  0  0
 25 21  1  0  0  0  0
 26  6  1  0  0  0  0
 26 31  1  0  0  0  0
 27 26  2  0  0  0  0
 28 27  1  0  0  0  0
 28 29  2  0  0  0  0
 29 30  1  0  0  0  0
 30 31  2  0  0  0  0
 30 35  1  0  0  0  0
 32 27  1  0  0  0  0
 33 28  1  0  0  0  0
 34 29  1  0  0  0  0
 35 36  1  0  0  0  0
 36 37  1  0  0  0  0
 36 38  2  0  0  0  0
 38 39  1  0  0  0  0
 40 38  1  0  0  0  0
 41 40  2  0  0  0  0
 42 35  2  0  0  0  0
 42 41  1  0  0  0  0
M  END
>  <minimizedAffinity>
-5.66959333

$$$$

 OpenBabel03242516513D

 42 45  0  0  1  0  0  0  0  0999 V2000
   38.7650   25.6390   41.8880 C   0  0  1  0  0  0  0  0  0  0  0  0
   39.5720   26.8260   42.2430 C   0  0  0  0  0  0  0  0  0  0  0  0
   39.1730   27.1780   43.6790 C   0  0  0  0  0  0  0  0  0  0  0  0
   37.7560   27.7240   43.5990 C   0  0  0  0  0  0  0  0  0  0  0  0
   36.7880   26.7900   42.9440 C   0  0  0  0  0  0  0  0  0  0  0  0
   37.2810   25.9450   41.8460 C   0  0  1  0  0  0  0  0  0  0  0  0
   38.8510   24.8870   42.7290 H   0  0  0  0  0  0  0  0  0  0  0  0
   39.4130   27.6950   41.5950 H   0  0  0  0  0  0  0  0  0  0  0  0
   40.6440   26.5140   42.2810 H   0  0  0  0  0  0  0  0  0  0  0  0
   39.8030   27.9400   44.1290 H   0  0  0  0  0  0  0  0  0  0  0  0
   39.1250   26.2240   44.2360 H   0  0  0  0  0  0  0  0  0  0  0  0
   37.4530   27.9460   44.6260 H   0  0  0  0  0  0  0  0  0  0  0  0
   37.8220   28.7090   43.0730 H   0  0  0  0  0  0  0  0  0  0  0  0
   36.3520   26.1660   43.7740 H   0  0  0  0  0  0  0  0  0  0  0  0
   35.9330   27.3990   42.5750 H   0  0  0  0  0  0  0  0  0  0  0  0
   36.7750   24.9360   41.9260 H   0  0  0  0  0  0  0  0  0  0  0  0
   40.3790   24.9290   38.5460 C   0  0  0  0  0  0  0  0  0  0  0  0
   39.9680   25.5520   39.7250 C   0  0  0  0  0  0  0  0  0  0  0  0
   39.1700   24.9340   40.6790 C   0  0  0  0  0  0  0  0  0  0  0  0
   38.8020   23.6700   40.4080 N   0  0  0  0  0  0  0  0  0  0  0  0
   39.1910   23.0480   39.2680 C   0  0  0  0  0  0  0  0  0  0  0  0
   39.9610   23.6520   38.3540 N   0  0  0  0  0  0  0  0  0  0  0  0
   40.9980   25.4280   37.8210 H   0  0  0  0  0  0  0  0  0  0  0  0
   40.3270   26.5700   39.8320 H   0  0  0  0  0  0  0  0  0  0  0  0
   38.8160   22.0250   39.1860 H   0  0  0  0  0  0  0  0  0  0  0  0
   36.8770   26.4450   40.5200 C   0  0  0  0  0  0  0  0  0  0  0  0
   36.3480   25.6880   39.4670 C   0  0  0  0  0  0  0  0  0  0  0  0
   36.0190   26.4070   38.3100 C   0  0  0  0  0  0  0  0  0  0  0  0
   36.2360   27.7700   38.2990 C   0  0  0  0  0  0  0  0  0  0  0  0
   36.7550   28.4930   39.3390 C   0  0  0  0  0  0  0  0  0  0  0  0
   37.0740   27.7940   40.4600 N   0  0  0  0  0  0  0  0  0  0  0  0
   36.2500   24.6580   39.6470 H   0  0  0  0  0  0  0  0  0  0  0  0
   35.6140   25.8300   37.5050 H   0  0  0  0  0  0  0  0  0  0  0  0
   35.9550   28.2470   37.3710 H   0  0  0  0  0  0  0  0  0  0  0  0
   36.9690   29.9370   39.2850 C   0  0  0  0  0  0  0  0  0  0  0  0
   36.8640   30.7420   40.3790 C   0  0  0  0  0  0  0  0  0  0  0  0
   36.6150   30.3420   41.3500 H   0  0  0  0  0  0  0  0  0  0  0  0
   37.0730   32.1140   40.3040 C   0  0  0  0  0  0  0  0  0  0  0  0
   36.9990   32.7860   41.1480 H   0  0  0  0  0  0  0  0  0  0  0  0
   37.3920   32.6780   39.0920 C   0  0  0  0  0  3  0  0  0  0  0  0
   37.4940   31.8570   37.9980 C   0  0  0  0  0  3  0  0  0  0  0  0
   37.2830   30.5130   38.1040 N   0  0  0  0  0  0  0  0  0  0  0  0
  1  2  1  0  0  0  0
  1  7  1  1  0  0  0
  2  9  1  0  0  0  0
  2  3  1  0  0  0  0
  3 10  1  0  0  0  0
  3 11  1  0  0  0  0
  4  3  1  0  0  0  0
  4 12  1  0  0  0  0
  5  4  1  0  0  0  0
  5 14  1  0  0  0  0
  6  1  1  0  0  0  0
  6 16  1  1  0  0  0
  6  5  1  0  0  0  0
  8  2  1  0  0  0  0
 13  4  1  0  0  0  0
 15  5  1  0  0  0  0
 17 18  1  0  0  0  0
 18 24  1  0  0  0  0
 18 19  2  0  0  0  0
 19  1  1  0  0  0  0
 20 19  1  0  0  0  0
 21 20  2  0  0  0  0
 22 17  2  0  0  0  0
 22 21  1  0  0  0  0
 23 17  1  0  0  0  0
 25 21  1  0  0  0  0
 26  6  1  0  0  0  0
 27 32  1  0  0  0  0
 27 26  2  0  0  0  0
 28 27  1  0  0  0  0
 29 28  2  0  0  0  0
 29 30  1  0  0  0  0
 30 31  2  0  0  0  0
 31 26  1  0  0  0  0
 33 28  1  0  0  0  0
 34 29  1  0  0  0  0
 35 30  1  0  0  0  0
 35 36  1  0  0  0  0
 36 37  1  0  0  0  0
 38 36  2  0  0  0  0
 38 39  1  0  0  0  0
 40 38  1  0  0  0  0
 41 42  1  0  0  0  0
 41 40  2  0  0  0  0
 42 35  2  0  0  0  0
M  END
>  <minimizedAffinity>
-5.66128731

$$$$

 OpenBabel03242516513D

 42 45  0  0  1  0  0  0  0  0999 V2000
   40.3390   30.2600   41.1520 C   0  0  1  0  0  0  0  0  0  0  0  0
   40.6320   31.1810   42.2710 C   0  0  0  0  0  0  0  0  0  0  0  0
   42.1060   30.9500   42.6160 C   0  0  0  0  0  0  0  0  0  0  0  0
   42.1760   29.5750   43.2610 C   0  0  0  0  0  0  0  0  0  0  0  0
   41.6050   28.4830   42.4120 C   0  0  0  0  0  0  0  0  0  0  0  0
   40.4490   28.8050   41.5610 C   0  0  1  0  0  0  0  0  0  0  0  0
   41.1540   30.3740   40.3760 H   0  0  0  0  0  0  0  0  0  0  0  0
   40.0180   31.0220   43.1640 H   0  0  0  0  0  0  0  0  0  0  0  0
   40.5580   32.2260   41.8850 H   0  0  0  0  0  0  0  0  0  0  0  0
   42.5040   31.6740   43.3220 H   0  0  0  0  0  0  0  0  0  0  0  0
   42.6490   30.8890   41.6550 H   0  0  0  0  0  0  0  0  0  0  0  0
   43.2320   29.3900   43.4780 H   0  0  0  0  0  0  0  0  0  0  0  0
   41.6630   29.6580   44.2510 H   0  0  0  0  0  0  0  0  0  0  0  0
   42.4640   28.0870   41.8000 H   0  0  0  0  0  0  0  0  0  0  0  0
   41.3330   27.6420   43.0870 H   0  0  0  0  0  0  0  0  0  0  0  0
   40.5630   28.2380   40.5880 H   0  0  0  0  0  0  0  0  0  0  0  0
   36.8850   31.5750   40.3640 C   0  0  0  0  0  0  0  0  0  0  0  0
   38.1070   31.3210   40.9870 C   0  0  0  0  0  0  0  0  0  0  0  0
   39.0840   30.4940   40.4500 C   0  0  0  0  0  0  0  0  0  0  0  0
   38.7900   29.9310   39.2650 N   0  0  0  0  0  0  0  0  0  0  0  0
   37.6080   30.1650   38.6440 C   0  0  0  0  0  0  0  0  0  0  0  0
   36.6720   30.9650   39.1690 N   0  0  0  0  0  0  0  0  0  0  0  0
   36.1440   32.2200   40.8000 H   0  0  0  0  0  0  0  0  0  0  0  0
   38.2300   31.8300   41.9380 H   0  0  0  0  0  0  0  0  0  0  0  0
   37.5110   29.6400   37.6900 H   0  0  0  0  0  0  0  0  0  0  0  0
   39.1790   28.3100   42.1190 C   0  0  0  0  0  0  0  0  0  0  0  0
   38.5720   28.7260   43.3120 C   0  0  0  0  0  0  0  0  0  0  0  0
   37.3470   28.1160   43.6120 C   0  0  0  0  0  0  0  0  0  0  0  0
   36.8460   27.1770   42.7330 C   0  0  0  0  0  0  0  0  0  0  0  0
   37.4550   26.7830   41.5720 C   0  0  0  0  0  0  0  0  0  0  0  0
   38.6440   27.3750   41.2820 N   0  0  0  0  0  0  0  0  0  0  0  0
   39.0930   29.4530   43.8630 H   0  0  0  0  0  0  0  0  0  0  0  0
   36.8820   28.4330   44.5220 H   0  0  0  0  0  0  0  0  0  0  0  0
   35.8990   26.7560   43.0380 H   0  0  0  0  0  0  0  0  0  0  0  0
   36.8900   25.7830   40.6680 C   0  0  0  0  0  0  0  0  0  0  0  0
   36.7280   24.4760   41.0160 C   0  0  0  0  0  0  0  0  0  0  0  0
   37.0140   24.1150   41.9930 H   0  0  0  0  0  0  0  0  0  0  0  0
   36.1880   23.5440   40.1400 C   0  0  0  0  0  0  0  0  0  0  0  0
   36.0430   22.4990   40.3780 H   0  0  0  0  0  0  0  0  0  0  0  0
   35.8070   23.9480   38.8820 C   0  0  0  0  0  3  0  0  0  0  0  0
   35.9750   25.2670   38.5430 C   0  0  0  0  0  3  0  0  0  0  0  0
   36.5090   26.1590   39.4280 N   0  0  0  0  0  0  0  0  0  0  0  0
  1  7  1  6  0  0  0
  1  6  1  0  0  0  0
  1  2  1  0  0  0  0
  2  3  1  0  0  0  0
  2  8  1  0  0  0  0
  3  4  1  0  0  0  0
  3 10  1  0  0  0  0
  4 12  1  0  0  0  0
  4 13  1  0  0  0  0
  5 15  1  0  0  0  0
  5  4  1  0  0  0  0
  6 16  1  6  0  0  0
  6 26  1  0  0  0  0
  6  5  1  0  0  0  0
  9  2  1  0  0  0  0
 11  3  1  0  0  0  0
 14  5  1  0  0  0  0
 17 23  1  0  0  0  0
 17 18  1  0  0  0  0
 18 24  1  0  0  0  0
 19 18  2  0  0  0  0
 19  1  1  0  0  0  0
 20 19  1  0  0  0  0
 21 22  1  0  0  0  0
 21 20  2  0  0  0  0
 22 17  2  0  0  0  0
 25 21  1  0  0  0  0
 26 27  1  0  0  0  0
 27 28  2  0  0  0  0
 27 32  1  0  0  0  0
 28 33  1  0  0  0  0
 29 34  1  0  0  0  0
 29 28  1  0  0  0  0
 30 29  2  0  0  0  0
 31 30  1  0  0  0  0
 31 26  2  0  0  0  0
 35 36  1  0  0  0  0
 35 30  1  0  0  0  0
 36 37  1  0  0  0  0
 38 39  1  0  0  0  0
 38 36  2  0  0  0  0
 40 38  1  0  0  0  0
 41 40  2  0  0  0  0
 41 42  1  0  0  0  0
 42 35  2  0  0  0  0
M  END
>  <minimizedAffinity>
-5.64622355

$$$$

 OpenBabel03242516513D

 42 45  0  0  1  0  0  0  0  0999 V2000
   38.9790   30.6710   40.1740 C   0  0  1  0  0  0  0  0  0  0  0  0
   38.9370   29.9630   38.8760 C   0  0  0  0  0  0  0  0  0  0  0  0
   37.9260   30.7330   38.0210 C   0  0  0  0  0  0  0  0  0  0  0  0
   36.5600   30.4460   38.6260 C   0  0  0  0  0  0  0  0  0  0  0  0
   36.4640   30.7860   40.0810 C   0  0  0  0  0  0  0  0  0  0  0  0
   37.6600   30.5920   40.9140 C   0  0  1  0  0  0  0  0  0  0  0  0
   39.0950   31.7780   39.9690 H   0  0  0  0  0  0  0  0  0  0  0  0
   38.6360   28.9120   38.9410 H   0  0  0  0  0  0  0  0  0  0  0  0
   39.9300   30.0910   38.3820 H   0  0  0  0  0  0  0  0  0  0  0  0
   37.9070   30.4170   36.9820 H   0  0  0  0  0  0  0  0  0  0  0  0
   38.1340   31.8070   38.1780 H   0  0  0  0  0  0  0  0  0  0  0  0
   35.8370   31.0210   38.0410 H   0  0  0  0  0  0  0  0  0  0  0  0
   36.3410   29.3680   38.4250 H   0  0  0  0  0  0  0  0  0  0  0  0
   36.1050   31.8530   40.1240 H   0  0  0  0  0  0  0  0  0  0  0  0
   35.6250   30.1920   40.5070 H   0  0  0  0  0  0  0  0  0  0  0  0
   37.7000   31.4340   41.6690 H   0  0  0  0  0  0  0  0  0  0  0  0
   41.6070   30.9160   42.8770 C   0  0  0  0  0  0  0  0  0  0  0  0
   40.5530   31.2030   42.0100 C   0  0  0  0  0  0  0  0  0  0  0  0
   40.0790   30.3110   41.0580 C   0  0  0  0  0  0  0  0  0  0  0  0
   40.7000   29.1200   41.0090 N   0  0  0  0  0  0  0  0  0  0  0  0
   41.7260   28.8210   41.8430 C   0  0  0  0  0  0  0  0  0  0  0  0
   42.1760   29.6880   42.7580 N   0  0  0  0  0  0  0  0  0  0  0  0
   41.9570   31.6230   43.6070 H   0  0  0  0  0  0  0  0  0  0  0  0
   40.1320   32.1950   42.1430 H   0  0  0  0  0  0  0  0  0  0  0  0
   42.1300   27.8180   41.6870 H   0  0  0  0  0  0  0  0  0  0  0  0
   37.5840   29.3730   41.7390 C   0  0  0  0  0  0  0  0  0  0  0  0
   37.7720   29.2890   43.1250 C   0  0  0  0  0  0  0  0  0  0  0  0
   37.6210   28.0110   43.6800 C   0  0  0  0  0  0  0  0  0  0  0  0
   37.3070   26.9620   42.8390 C   0  0  0  0  0  0  0  0  0  0  0  0
   37.1280   27.0640   41.4860 C   0  0  0  0  0  0  0  0  0  0  0  0
   37.2740   28.3040   40.9490 N   0  0  0  0  0  0  0  0  0  0  0  0
   38.0060   30.1900   43.6120 H   0  0  0  0  0  0  0  0  0  0  0  0
   37.7630   27.9450   44.7380 H   0  0  0  0  0  0  0  0  0  0  0  0
   37.2080   26.0130   43.3460 H   0  0  0  0  0  0  0  0  0  0  0  0
   36.7960   25.9260   40.6320 C   0  0  0  0  0  0  0  0  0  0  0  0
   36.8250   24.6370   41.0710 C   0  0  0  0  0  0  0  0  0  0  0  0
   37.0980   24.3950   42.0870 H   0  0  0  0  0  0  0  0  0  0  0  0
   36.5050   23.5710   40.2400 C   0  0  0  0  0  0  0  0  0  0  0  0
   36.5160   22.5340   40.5500 H   0  0  0  0  0  0  0  0  0  0  0  0
   36.1500   23.8200   38.9350 C   0  0  0  0  0  3  0  0  0  0  0  0
   36.1250   25.1230   38.5050 C   0  0  0  0  0  3  0  0  0  0  0  0
   36.4440   26.1490   39.3470 N   0  0  0  0  0  0  0  0  0  0  0  0
  1  7  1  6  0  0  0
  1  6  1  0  0  0  0
  1 19  1  0  0  0  0
  2  8  1  0  0  0  0
  2  1  1  0  0  0  0
  3 11  1  0  0  0  0
  3  4  1  0  0  0  0
  3  2  1  0  0  0  0
  4  5  1  0  0  0  0
  5 14  1  0  0  0  0
  5 15  1  0  0  0  0
  5  6  1  0  0  0  0
  6 16  1  1  0  0  0
  6 26  1  0  0  0  0
  9  2  1  0  0  0  0
 10  3  1  0  0  0  0
 12  4  1  0  0  0  0
 13  4  1  0  0  0  0
 17 23  1  0  0  0  0
 18 24  1  0  0  0  0
 18 17  2  0  0  0  0
 19 18  1  0  0  0  0
 20 19  2  0  0  0  0
 20 21  1  0  0  0  0
 21 22  2  0  0  0  0
 22 17  1  0  0  0  0
 25 21  1  0  0  0  0
 26 27  1  0  0  0  0
 27 32  1  0  0  0  0
 27 28  2  0  0  0  0
 28 33  1  0  0  0  0
 29 34  1  0  0  0  0
 29 28  1  0  0  0  0
 30 29  2  0  0  0  0
 31 30  1  0  0  0  0
 31 26  2  0  0  0  0
 35 36  1  0  0  0  0
 35 30  1  0  0  0  0
 36 37  1  0  0  0  0
 38 39  1  0  0  0  0
 38 36  2  0  0  0  0
 40 38  1  0  0  0  0
 41 40  2  0  0  0  0
 41 42  1  0  0  0  0
 42 35  2  0  0  0  0
M  END
>  <minimizedAffinity>
-5.61845493

$$$$
