
 OpenBabel03252506193D

 22 23  0  0  0  0  0  0  0  0999 V2000
   37.9050   28.4350   42.3700 C   0  0  0  0  0  0  0  0  0  0  0  0
   36.6910   27.8550   41.9580 C   0  0  0  0  0  0  0  0  0  0  0  0
   35.8490   28.5980   41.1240 C   0  0  0  0  0  0  0  0  0  0  0  0
   36.2570   29.8490   40.7580 N   0  0  0  0  0  0  0  0  0  0  0  0
   37.4310   30.3780   41.1720 C   0  0  0  0  0  0  0  0  0  0  0  0
   38.2410   29.6620   41.9750 N   0  0  0  0  0  0  0  0  0  0  0  0
   36.3670   26.8610   42.2480 H   0  0  0  0  0  0  0  0  0  0  0  0
   34.9110   28.2500   40.7580 H   0  0  0  0  0  0  0  0  0  0  0  0
   37.7970   31.7190   40.7400 C   0  0  0  0  0  0  0  0  0  0  0  0
   36.9660   32.4260   39.8960 C   0  0  0  0  0  0  0  0  0  0  0  0
   36.0340   31.9570   39.5640 H   0  0  0  0  0  0  0  0  0  0  0  0
   37.3110   33.7040   39.4820 C   0  0  0  0  0  0  0  0  0  0  0  0
   36.6860   34.2690   38.8310 H   0  0  0  0  0  0  0  0  0  0  0  0
   38.5150   34.1610   39.9850 C   0  0  0  0  0  3  0  0  0  0  0  0
   39.3420   33.4720   40.8180 C   0  0  0  0  0  3  0  0  0  0  0  0
   38.9740   32.2230   41.2040 N   0  0  0  0  0  0  0  0  0  0  0  0
   38.7820   27.6560   43.2400 C   0  0  0  0  0  3  0  0  0  0  0  0
   39.1680   26.4620   42.8410 C   0  0  0  0  0  3  0  0  0  0  0  0
   40.0630   25.6090   43.6780 C   0  0  0  0  0  0  0  0  0  0  0  0
   40.8990   26.2790   44.0170 H   0  0  0  0  0  0  0  0  0  0  0  0
   39.5750   25.2380   44.5970 H   0  0  0  0  0  0  0  0  0  0  0  0
   40.5080   24.8250   43.0500 H   0  0  0  0  0  0  0  0  0  0  0  0
  1 17  1  0  0  0  0
  2  7  1  0  0  0  0
  2  1  2  0  0  0  0
  3  2  1  0  0  0  0
  4  3  2  0  0  0  0
  4  5  1  0  0  0  0
  5  6  2  0  0  0  0
  6  1  1  0  0  0  0
  8  3  1  0  0  0  0
  9  5  1  0  0  0  0
  9 16  1  0  0  0  0
 10  9  2  0  0  0  0
 11 10  1  0  0  0  0
 12 10  1  0  0  0  0
 12 14  2  0  0  0  0
 13 12  1  0  0  0  0
 14 15  1  0  0  0  0
 15 16  2  0  0  0  0
 18 17  2  0  0  0  0
 18 19  1  0  0  0  0
 19 20  1  0  0  0  0
 19 21  1  0  0  0  0
 22 19  1  0  0  0  0
M  END
>  <minimizedAffinity>
-4.79303265

$$$$

 OpenBabel03252506193D

 22 23  0  0  0  0  0  0  0  0999 V2000
   37.2160   27.1580   41.5080 C   0  0  0  0  0  0  0  0  0  0  0  0
   37.3150   27.0120   42.9050 C   0  0  0  0  0  0  0  0  0  0  0  0
   37.5790   28.1500   43.6750 C   0  0  0  0  0  0  0  0  0  0  0  0
   37.7260   29.3410   43.0230 N   0  0  0  0  0  0  0  0  0  0  0  0
   37.6240   29.4470   41.6780 C   0  0  0  0  0  0  0  0  0  0  0  0
   37.3700   28.3510   40.9370 N   0  0  0  0  0  0  0  0  0  0  0  0
   37.1980   26.0660   43.4240 H   0  0  0  0  0  0  0  0  0  0  0  0
   37.6730   28.1450   44.7360 H   0  0  0  0  0  0  0  0  0  0  0  0
   37.7940   30.7510   41.0550 C   0  0  0  0  0  0  0  0  0  0  0  0
   36.8790   31.1990   40.1240 C   0  0  0  0  0  0  0  0  0  0  0  0
   36.0320   30.5540   39.8700 H   0  0  0  0  0  0  0  0  0  0  0  0
   37.0360   32.4410   39.5280 C   0  0  0  0  0  0  0  0  0  0  0  0
   36.3440   32.8080   38.8070 H   0  0  0  0  0  0  0  0  0  0  0  0
   38.1530   33.1390   39.9510 C   0  0  0  0  0  3  0  0  0  0  0  0
   39.0610   32.7080   40.8680 C   0  0  0  0  0  3  0  0  0  0  0  0
   38.8770   31.4860   41.4320 N   0  0  0  0  0  0  0  0  0  0  0  0
   36.9400   25.9680   40.7080 C   0  0  0  0  0  3  0  0  0  0  0  0
   36.9430   24.7930   41.3030 C   0  0  0  0  0  3  0  0  0  0  0  0
   36.6690   23.5340   40.5480 C   0  0  0  0  0  0  0  0  0  0  0  0
   35.7560   23.7390   39.9260 H   0  0  0  0  0  0  0  0  0  0  0  0
   37.4730   23.2720   39.8360 H   0  0  0  0  0  0  0  0  0  0  0  0
   36.4090   22.7360   41.2560 H   0  0  0  0  0  0  0  0  0  0  0  0
  1  2  1  0  0  0  0
  2  7  1  0  0  0  0
  2  3  2  0  0  0  0
  3  8  1  0  0  0  0
  4  3  1  0  0  0  0
  5  4  2  0  0  0  0
  6  1  2  0  0  0  0
  6  5  1  0  0  0  0
  9 16  1  0  0  0  0
  9  5  1  0  0  0  0
 10  9  2  0  0  0  0
 11 10  1  0  0  0  0
 12 14  2  0  0  0  0
 12 10  1  0  0  0  0
 13 12  1  0  0  0  0
 14 15  1  0  0  0  0
 15 16  2  0  0  0  0
 17 18  2  0  0  0  0
 17  1  1  0  0  0  0
 19 22  1  0  0  0  0
 19 18  1  0  0  0  0
 20 19  1  0  0  0  0
 21 19  1  0  0  0  0
M  END
>  <minimizedAffinity>
-4.65811062

$$$$

 OpenBabel03252506193D

 22 23  0  0  0  0  0  0  0  0999 V2000
   37.1760   26.9590   41.7940 C   0  0  0  0  0  0  0  0  0  0  0  0
   37.3370   27.2720   43.1560 C   0  0  0  0  0  0  0  0  0  0  0  0
   37.5000   28.6130   43.5160 C   0  0  0  0  0  0  0  0  0  0  0  0
   37.4940   29.5460   42.5190 N   0  0  0  0  0  0  0  0  0  0  0  0
   37.3370   29.2130   41.2170 C   0  0  0  0  0  0  0  0  0  0  0  0
   37.1790   27.9210   40.8710 N   0  0  0  0  0  0  0  0  0  0  0  0
   37.3410   26.5310   43.9500 H   0  0  0  0  0  0  0  0  0  0  0  0
   37.6290   28.9520   44.5180 H   0  0  0  0  0  0  0  0  0  0  0  0
   37.3420   30.2640   40.2100 C   0  0  0  0  0  0  0  0  0  0  0  0
   37.2160   31.5850   40.5860 C   0  0  0  0  0  0  0  0  0  0  0  0
   37.1130   31.8190   41.6510 H   0  0  0  0  0  0  0  0  0  0  0  0
   37.2200   32.5900   39.6300 C   0  0  0  0  0  0  0  0  0  0  0  0
   37.1240   33.6160   39.8960 H   0  0  0  0  0  0  0  0  0  0  0  0
   37.3580   32.1380   38.3300 C   0  0  0  0  0  3  0  0  0  0  0  0
   37.4840   30.8380   37.9480 C   0  0  0  0  0  3  0  0  0  0  0  0
   37.4750   29.8800   38.9100 N   0  0  0  0  0  0  0  0  0  0  0  0
   37.0050   25.5580   41.4220 C   0  0  0  0  0  3  0  0  0  0  0  0
   38.0680   24.7820   41.3830 C   0  0  0  0  0  3  0  0  0  0  0  0
   37.9690   23.3390   41.0110 C   0  0  0  0  0  0  0  0  0  0  0  0
   37.1110   22.9240   41.6070 H   0  0  0  0  0  0  0  0  0  0  0  0
   37.7080   23.1810   39.9490 H   0  0  0  0  0  0  0  0  0  0  0  0
   38.8770   22.8160   41.3400 H   0  0  0  0  0  0  0  0  0  0  0  0
  1  2  1  0  0  0  0
  2  3  2  0  0  0  0
  2  7  1  0  0  0  0
  3  8  1  0  0  0  0
  4  3  1  0  0  0  0
  5  4  2  0  0  0  0
  6  5  1  0  0  0  0
  6  1  2  0  0  0  0
  9 10  1  0  0  0  0
  9  5  1  0  0  0  0
 10 11  1  0  0  0  0
 12 13  1  0  0  0  0
 12 10  2  0  0  0  0
 14 12  1  0  0  0  0
 15 14  2  0  0  0  0
 15 16  1  0  0  0  0
 16  9  2  0  0  0  0
 17  1  1  0  0  0  0
 18 17  2  0  0  0  0
 19 22  1  0  0  0  0
 19 18  1  0  0  0  0
 19 20  1  0  0  0  0
 21 19  1  0  0  0  0
M  END
>  <minimizedAffinity>
-4.5236187

$$$$

 OpenBabel03252506193D

 22 23  0  0  0  0  0  0  0  0999 V2000
   37.2550   30.9010   38.1940 C   0  0  0  0  0  0  0  0  0  0  0  0
   37.2940   32.2820   38.4610 C   0  0  0  0  0  0  0  0  0  0  0  0
   37.3050   32.7020   39.7950 C   0  0  0  0  0  0  0  0  0  0  0  0
   37.2760   31.7410   40.7660 N   0  0  0  0  0  0  0  0  0  0  0  0
   37.2380   30.4200   40.4760 C   0  0  0  0  0  0  0  0  0  0  0  0
   37.2280   30.0170   39.1900 N   0  0  0  0  0  0  0  0  0  0  0  0
   37.3170   33.0460   37.6900 H   0  0  0  0  0  0  0  0  0  0  0  0
   37.3330   33.7220   40.1010 H   0  0  0  0  0  0  0  0  0  0  0  0
   37.2090   29.4560   41.5650 C   0  0  0  0  0  0  0  0  0  0  0  0
   36.3430   28.3830   41.5180 C   0  0  0  0  0  0  0  0  0  0  0  0
   35.6860   28.2780   40.6490 H   0  0  0  0  0  0  0  0  0  0  0  0
   36.3120   27.4610   42.5540 C   0  0  0  0  0  0  0  0  0  0  0  0
   35.6520   26.6260   42.5400 H   0  0  0  0  0  0  0  0  0  0  0  0
   37.2000   27.7270   43.5800 C   0  0  0  0  0  3  0  0  0  0  0  0
   38.0590   28.7810   43.6370 C   0  0  0  0  0  3  0  0  0  0  0  0
   38.0630   29.6660   42.6060 N   0  0  0  0  0  0  0  0  0  0  0  0
   37.2440   30.4670   36.8000 C   0  0  0  0  0  3  0  0  0  0  0  0
   36.8840   29.2300   36.5280 C   0  0  0  0  0  3  0  0  0  0  0  0
   36.8500   28.7170   35.1260 C   0  0  0  0  0  0  0  0  0  0  0  0
   36.3170   29.5010   34.5220 H   0  0  0  0  0  0  0  0  0  0  0  0
   37.8540   28.6150   34.6760 H   0  0  0  0  0  0  0  0  0  0  0  0
   36.2390   27.8050   35.0880 H   0  0  0  0  0  0  0  0  0  0  0  0
  1  2  2  0  0  0  0
  1  6  1  0  0  0  0
  2  3  1  0  0  0  0
  3  8  1  0  0  0  0
  3  4  2  0  0  0  0
  5  4  1  0  0  0  0
  5  9  1  0  0  0  0
  6  5  2  0  0  0  0
  7  2  1  0  0  0  0
  9 16  1  0  0  0  0
 10  9  2  0  0  0  0
 10 12  1  0  0  0  0
 11 10  1  0  0  0  0
 12 14  2  0  0  0  0
 13 12  1  0  0  0  0
 14 15  1  0  0  0  0
 16 15  2  0  0  0  0
 17  1  1  0  0  0  0
 18 17  2  0  0  0  0
 19 18  1  0  0  0  0
 20 19  1  0  0  0  0
 21 19  1  0  0  0  0
 22 19  1  0  0  0  0
M  END
>  <minimizedAffinity>
-4.49831867

$$$$

 OpenBabel03252506193D

 22 23  0  0  0  0  0  0  0  0999 V2000
   36.7120   30.0080   40.4790 C   0  0  0  0  0  0  0  0  0  0  0  0
   35.8330   29.4060   39.5600 C   0  0  0  0  0  0  0  0  0  0  0  0
   35.8170   28.0100   39.4720 C   0  0  0  0  0  0  0  0  0  0  0  0
   36.6610   27.3100   40.2870 N   0  0  0  0  0  0  0  0  0  0  0  0
   37.4950   27.9200   41.1610 C   0  0  0  0  0  0  0  0  0  0  0  0
   37.5090   29.2650   41.2450 N   0  0  0  0  0  0  0  0  0  0  0  0
   35.1620   29.9610   38.9120 H   0  0  0  0  0  0  0  0  0  0  0  0
   35.1900   27.4590   38.8090 H   0  0  0  0  0  0  0  0  0  0  0  0
   38.3650   27.1070   41.9970 C   0  0  0  0  0  0  0  0  0  0  0  0
   39.2420   27.7080   42.8760 C   0  0  0  0  0  0  0  0  0  0  0  0
   39.2650   28.8010   42.9270 H   0  0  0  0  0  0  0  0  0  0  0  0
   40.0730   26.9360   43.6740 C   0  0  0  0  0  0  0  0  0  0  0  0
   40.7580   27.3770   44.3600 H   0  0  0  0  0  0  0  0  0  0  0  0
   39.9280   25.5730   43.4970 C   0  0  0  0  0  3  0  0  0  0  0  0
   39.0670   24.9690   42.6340 C   0  0  0  0  0  3  0  0  0  0  0  0
   38.2680   25.7540   41.8660 N   0  0  0  0  0  0  0  0  0  0  0  0
   36.7250   31.4660   40.5690 C   0  0  0  0  0  3  0  0  0  0  0  0
   37.4520   32.1440   39.7050 C   0  0  0  0  0  3  0  0  0  0  0  0
   37.5130   33.6360   39.7360 C   0  0  0  0  0  0  0  0  0  0  0  0
   36.4490   33.9870   39.8280 H   0  0  0  0  0  0  0  0  0  0  0  0
   38.0430   34.0300   40.6220 H   0  0  0  0  0  0  0  0  0  0  0  0
   37.8970   34.0030   38.7750 H   0  0  0  0  0  0  0  0  0  0  0  0
  1 17  1  0  0  0  0
  1  6  1  0  0  0  0
  2  1  2  0  0  0  0
  3  2  1  0  0  0  0
  3  4  2  0  0  0  0
  4  5  1  0  0  0  0
  5  6  2  0  0  0  0
  5  9  1  0  0  0  0
  7  2  1  0  0  0  0
  8  3  1  0  0  0  0
  9 10  1  0  0  0  0
 10 11  1  0  0  0  0
 10 12  2  0  0  0  0
 12 13  1  0  0  0  0
 14 12  1  0  0  0  0
 15 14  2  0  0  0  0
 16  9  2  0  0  0  0
 16 15  1  0  0  0  0
 18 19  1  0  0  0  0
 18 17  2  0  0  0  0
 19 20  1  0  0  0  0
 19 21  1  0  0  0  0
 22 19  1  0  0  0  0
M  END
>  <minimizedAffinity>
-4.36632586

$$$$

 OpenBabel03252506193D

 22 23  0  0  0  0  0  0  0  0999 V2000
   39.5450   32.9050   40.5660 C   0  0  0  0  0  0  0  0  0  0  0  0
   38.5750   33.5940   39.8150 C   0  0  0  0  0  0  0  0  0  0  0  0
   37.2920   33.0450   39.7230 C   0  0  0  0  0  0  0  0  0  0  0  0
   37.0550   31.8660   40.3700 N   0  0  0  0  0  0  0  0  0  0  0  0
   38.0100   31.2280   41.0850 C   0  0  0  0  0  0  0  0  0  0  0  0
   39.2460   31.7580   41.1730 N   0  0  0  0  0  0  0  0  0  0  0  0
   38.7630   34.5310   39.3000 H   0  0  0  0  0  0  0  0  0  0  0  0
   36.4890   33.4880   39.1790 H   0  0  0  0  0  0  0  0  0  0  0  0
   37.6820   29.9750   41.7480 C   0  0  0  0  0  0  0  0  0  0  0  0
   38.4200   29.5510   42.8330 C   0  0  0  0  0  0  0  0  0  0  0  0
   39.2500   30.1750   43.1790 H   0  0  0  0  0  0  0  0  0  0  0  0
   38.1110   28.3570   43.4680 C   0  0  0  0  0  0  0  0  0  0  0  0
   38.6660   28.0090   44.3070 H   0  0  0  0  0  0  0  0  0  0  0  0
   37.0380   27.6800   42.9170 C   0  0  0  0  0  3  0  0  0  0  0  0
   36.3030   28.0890   41.8480 C   0  0  0  0  0  3  0  0  0  0  0  0
   36.6330   29.2630   41.2490 N   0  0  0  0  0  0  0  0  0  0  0  0
   40.8830   33.4820   40.6600 C   0  0  0  0  0  3  0  0  0  0  0  0
   41.8810   32.7030   41.0230 C   0  0  0  0  0  3  0  0  0  0  0  0
   43.2760   33.2240   41.1410 C   0  0  0  0  0  0  0  0  0  0  0  0
   43.4640   33.8180   40.2050 H   0  0  0  0  0  0  0  0  0  0  0  0
   43.4070   33.9280   41.9820 H   0  0  0  0  0  0  0  0  0  0  0  0
   43.9790   32.3800   41.1390 H   0  0  0  0  0  0  0  0  0  0  0  0
  1 17  1  0  0  0  0
  1  6  1  0  0  0  0
  2  1  2  0  0  0  0
  3  2  1  0  0  0  0
  3  4  2  0  0  0  0
  4  5  1  0  0  0  0
  5  6  2  0  0  0  0
  5  9  1  0  0  0  0
  7  2  1  0  0  0  0
  8  3  1  0  0  0  0
  9 10  1  0  0  0  0
 10 11  1  0  0  0  0
 10 12  2  0  0  0  0
 12 13  1  0  0  0  0
 14 12  1  0  0  0  0
 15 14  2  0  0  0  0
 16  9  2  0  0  0  0
 16 15  1  0  0  0  0
 17 18  2  0  0  0  0
 18 19  1  0  0  0  0
 19 21  1  0  0  0  0
 20 19  1  0  0  0  0
 22 19  1  0  0  0  0
M  END
>  <minimizedAffinity>
-4.36400032

$$$$

 OpenBabel03252506193D

 22 23  0  0  0  0  0  0  0  0999 V2000
   36.4010   29.0950   40.2890 C   0  0  0  0  0  0  0  0  0  0  0  0
   35.8650   28.7730   39.0280 C   0  0  0  0  0  0  0  0  0  0  0  0
   36.2180   29.5680   37.9320 C   0  0  0  0  0  0  0  0  0  0  0  0
   37.0650   30.6160   38.1520 N   0  0  0  0  0  0  0  0  0  0  0  0
   37.5620   30.9010   39.3780 C   0  0  0  0  0  0  0  0  0  0  0  0
   37.2230   30.1340   40.4320 N   0  0  0  0  0  0  0  0  0  0  0  0
   35.1930   27.9390   38.8520 H   0  0  0  0  0  0  0  0  0  0  0  0
   35.8670   29.4070   36.9390 H   0  0  0  0  0  0  0  0  0  0  0  0
   38.4590   32.0360   39.5330 C   0  0  0  0  0  0  0  0  0  0  0  0
   38.1210   33.0770   40.3720 C   0  0  0  0  0  0  0  0  0  0  0  0
   37.1690   33.0270   40.9120 H   0  0  0  0  0  0  0  0  0  0  0  0
   38.9730   34.1610   40.5240 C   0  0  0  0  0  0  0  0  0  0  0  0
   38.7330   34.9760   41.1650 H   0  0  0  0  0  0  0  0  0  0  0  0
   40.1350   34.0800   39.7790 C   0  0  0  0  0  3  0  0  0  0  0  0
   40.4790   33.0580   38.9490 C   0  0  0  0  0  3  0  0  0  0  0  0
   39.6220   32.0130   38.8230 N   0  0  0  0  0  0  0  0  0  0  0  0
   36.0310   28.2630   41.4300 C   0  0  0  0  0  3  0  0  0  0  0  0
   36.8600   28.1880   42.4500 C   0  0  0  0  0  3  0  0  0  0  0  0
   36.5480   27.3560   43.6510 C   0  0  0  0  0  0  0  0  0  0  0  0
   35.4870   27.6000   43.9290 H   0  0  0  0  0  0  0  0  0  0  0  0
   36.5690   26.2700   43.4440 H   0  0  0  0  0  0  0  0  0  0  0  0
   37.1860   27.6730   44.4870 H   0  0  0  0  0  0  0  0  0  0  0  0
  1  6  1  0  0  0  0
  1 17  1  0  0  0  0
  2  1  2  0  0  0  0
  3  4  2  0  0  0  0
  3  2  1  0  0  0  0
  4  5  1  0  0  0  0
  5  9  1  0  0  0  0
  5  6  2  0  0  0  0
  7  2  1  0  0  0  0
  8  3  1  0  0  0  0
  9 10  1  0  0  0  0
 10 12  2  0  0  0  0
 10 11  1  0  0  0  0
 12 13  1  0  0  0  0
 14 12  1  0  0  0  0
 15 14  2  0  0  0  0
 16 15  1  0  0  0  0
 16  9  2  0  0  0  0
 17 18  2  0  0  0  0
 18 19  1  0  0  0  0
 19 20  1  0  0  0  0
 19 22  1  0  0  0  0
 21 19  1  0  0  0  0
M  END
>  <minimizedAffinity>
-4.26589298

$$$$

 OpenBabel03252506193D

 22 23  0  0  0  0  0  0  0  0999 V2000
   36.7900   30.0350   38.2990 C   0  0  0  0  0  0  0  0  0  0  0  0
   36.1110   29.6690   37.1220 C   0  0  0  0  0  0  0  0  0  0  0  0
   35.6310   28.3600   37.0110 C   0  0  0  0  0  0  0  0  0  0  0  0
   35.8520   27.5090   38.0560 N   0  0  0  0  0  0  0  0  0  0  0  0
   36.5090   27.8920   39.1750 C   0  0  0  0  0  0  0  0  0  0  0  0
   36.9700   29.1530   39.2820 N   0  0  0  0  0  0  0  0  0  0  0  0
   35.9340   30.3450   36.2910 H   0  0  0  0  0  0  0  0  0  0  0  0
   35.1060   27.9850   36.1620 H   0  0  0  0  0  0  0  0  0  0  0  0
   36.7060   26.9270   40.2470 C   0  0  0  0  0  0  0  0  0  0  0  0
   36.9290   27.3620   41.5370 C   0  0  0  0  0  0  0  0  0  0  0  0
   36.9550   28.4390   41.7310 H   0  0  0  0  0  0  0  0  0  0  0  0
   37.1180   26.4460   42.5620 C   0  0  0  0  0  0  0  0  0  0  0  0
   37.2920   26.7570   43.5650 H   0  0  0  0  0  0  0  0  0  0  0  0
   37.0580   25.1230   42.1630 C   0  0  0  0  0  3  0  0  0  0  0  0
   36.8380   24.6840   40.8940 C   0  0  0  0  0  3  0  0  0  0  0  0
   36.6580   25.6070   39.9140 N   0  0  0  0  0  0  0  0  0  0  0  0
   37.2880   31.4020   38.4120 C   0  0  0  0  0  3  0  0  0  0  0  0
   37.0320   32.0780   39.5130 C   0  0  0  0  0  3  0  0  0  0  0  0
   37.5090   33.4810   39.6980 C   0  0  0  0  0  0  0  0  0  0  0  0
   38.5910   33.4820   39.3920 H   0  0  0  0  0  0  0  0  0  0  0  0
   37.0020   34.2030   39.0340 H   0  0  0  0  0  0  0  0  0  0  0  0
   37.4720   33.7380   40.7650 H   0  0  0  0  0  0  0  0  0  0  0  0
  1 17  1  0  0  0  0
  1  6  1  0  0  0  0
  2  1  2  0  0  0  0
  3  2  1  0  0  0  0
  3  4  2  0  0  0  0
  4  5  1  0  0  0  0
  5  6  2  0  0  0  0
  5  9  1  0  0  0  0
  7  2  1  0  0  0  0
  8  3  1  0  0  0  0
  9 10  1  0  0  0  0
 10 11  1  0  0  0  0
 10 12  2  0  0  0  0
 12 13  1  0  0  0  0
 14 12  1  0  0  0  0
 15 14  2  0  0  0  0
 16  9  2  0  0  0  0
 16 15  1  0  0  0  0
 17 18  2  0  0  0  0
 18 19  1  0  0  0  0
 19 22  1  0  0  0  0
 20 19  1  0  0  0  0
 21 19  1  0  0  0  0
M  END
>  <minimizedAffinity>
-4.25668526

$$$$

 OpenBabel03252506193D

 22 23  0  0  0  0  0  0  0  0999 V2000
   38.6060   25.3190   42.3920 C   0  0  0  0  0  0  0  0  0  0  0  0
   39.6280   25.5630   43.3280 C   0  0  0  0  0  0  0  0  0  0  0  0
   39.9060   26.8880   43.6800 C   0  0  0  0  0  0  0  0  0  0  0  0
   39.1660   27.8730   43.0900 N   0  0  0  0  0  0  0  0  0  0  0  0
   38.1890   27.6050   42.1930 C   0  0  0  0  0  0  0  0  0  0  0  0
   37.9220   26.3290   41.8550 N   0  0  0  0  0  0  0  0  0  0  0  0
   40.2170   24.7800   43.7970 H   0  0  0  0  0  0  0  0  0  0  0  0
   40.6590   27.1760   44.3770 H   0  0  0  0  0  0  0  0  0  0  0  0
   37.4430   28.7090   41.6070 C   0  0  0  0  0  0  0  0  0  0  0  0
   37.9900   29.9740   41.5720 C   0  0  0  0  0  0  0  0  0  0  0  0
   38.9890   30.1250   41.9930 H   0  0  0  0  0  0  0  0  0  0  0  0
   37.2820   31.0290   41.0150 C   0  0  0  0  0  0  0  0  0  0  0  0
   37.6830   32.0140   40.9770 H   0  0  0  0  0  0  0  0  0  0  0  0
   36.0370   30.6830   40.5240 C   0  0  0  0  0  3  0  0  0  0  0  0
   35.4880   29.4380   40.5520 C   0  0  0  0  0  3  0  0  0  0  0  0
   36.2070   28.4280   41.1060 N   0  0  0  0  0  0  0  0  0  0  0  0
   38.3180   23.9350   42.0280 C   0  0  0  0  0  3  0  0  0  0  0  0
   38.1880   23.6320   40.7530 C   0  0  0  0  0  3  0  0  0  0  0  0
   37.8930   22.2380   40.3070 C   0  0  0  0  0  0  0  0  0  0  0  0
   38.6040   21.5760   40.8730 H   0  0  0  0  0  0  0  0  0  0  0  0
   36.8770   21.9000   40.5800 H   0  0  0  0  0  0  0  0  0  0  0  0
   38.1350   22.1400   39.2400 H   0  0  0  0  0  0  0  0  0  0  0  0
  1  2  1  0  0  0  0
  2  3  2  0  0  0  0
  2  7  1  0  0  0  0
  3  8  1  0  0  0  0
  4  3  1  0  0  0  0
  5  4  2  0  0  0  0
  6  5  1  0  0  0  0
  6  1  2  0  0  0  0
  9  5  1  0  0  0  0
 10  9  1  0  0  0  0
 10 11  1  0  0  0  0
 12 10  2  0  0  0  0
 13 12  1  0  0  0  0
 14 15  2  0  0  0  0
 14 12  1  0  0  0  0
 15 16  1  0  0  0  0
 16  9  2  0  0  0  0
 17  1  1  0  0  0  0
 18 17  2  0  0  0  0
 19 21  1  0  0  0  0
 19 18  1  0  0  0  0
 19 20  1  0  0  0  0
 22 19  1  0  0  0  0
M  END
>  <minimizedAffinity>
-4.23581886

$$$$
