
 OpenBabel03252507433D

 30 32  0  0  0  0  0  0  0  0999 V2000
   45.8910   34.6770   41.9650 C   0  0  0  0  0  0  0  0  0  0  0  0
   45.9060   33.8860   42.7490 H   0  0  0  0  0  0  0  0  0  0  0  0
   46.2040   35.6060   42.5120 H   0  0  0  0  0  0  0  0  0  0  0  0
   44.4750   34.7540   41.5170 C   0  0  0  0  0  0  0  0  0  0  0  0
   43.6330   35.8090   42.0050 C   0  0  0  0  0  0  0  0  0  0  0  0
   42.0260   35.4270   41.1490 S   0  0  0  0  0  0  0  0  0  0  0  0
   42.8020   33.9310   40.3060 C   0  0  0  0  0  0  0  0  0  0  0  0
   43.8700   33.9350   40.6900 N   0  0  0  0  0  0  0  0  0  0  0  0
   43.9200   36.5900   42.6910 H   0  0  0  0  0  0  0  0  0  0  0  0
   42.0190   33.0590   39.3760 C   0  0  0  0  0  0  0  0  0  0  0  0
   40.8000   33.5300   38.9360 C   0  0  0  0  0  0  0  0  0  0  0  0
   40.4890   34.4960   39.2890 H   0  0  0  0  0  0  0  0  0  0  0  0
   40.1130   32.7000   38.0830 C   0  0  0  0  0  0  0  0  0  0  0  0
   39.1470   33.0920   37.7450 H   0  0  0  0  0  0  0  0  0  0  0  0
   40.6430   31.4860   37.7180 C   0  0  0  0  0  3  0  0  0  0  0  0
   41.8690   31.0550   38.1850 C   0  0  0  0  0  3  0  0  0  0  0  0
   42.5250   31.8850   39.0190 N   0  0  0  0  0  0  0  0  0  0  0  0
   46.8670   34.2840   40.9150 C   0  0  0  0  0  0  0  0  0  0  0  0
   46.9560   35.1700   40.2180 H   0  0  0  0  0  0  0  0  0  0  0  0
   46.4840   33.4100   40.3990 H   0  0  0  0  0  0  0  0  0  0  0  0
   48.2420   34.0790   41.4230 C   0  0  0  0  0  0  0  0  0  0  0  0
   48.8700   32.8670   41.0920 C   0  0  0  0  0  0  0  0  0  0  0  0
   50.1500   32.6130   41.5320 C   0  0  0  0  0  0  0  0  0  0  0  0
   50.7670   33.5660   42.2860 N   0  0  0  0  0  0  0  0  0  0  0  0
   50.1370   34.7230   42.5900 C   0  0  0  0  0  0  0  0  0  0  0  0
   48.8960   34.9680   42.1610 N   0  0  0  0  0  0  0  0  0  0  0  0
   50.6730   31.6900   41.3000 H   0  0  0  0  0  0  0  0  0  0  0  0
   50.7100   35.4160   43.1930 H   0  0  0  0  0  0  0  0  0  0  0  0
   48.0050   31.6460   40.0920 S   0  0  0  0  0  0  0  0  0  0  0  0
   47.8430   32.0800   38.7680 H   0  0  0  0  0  0  0  0  0  0  0  0
  1  3  1  0  0  0  0
  1  2  1  0  0  0  0
  4  1  1  0  0  0  0
  4  5  2  0  0  0  0
  5  9  1  0  0  0  0
  6  5  1  0  0  0  0
  7  8  2  0  0  0  0
  7  6  1  0  0  0  0
  8  4  1  0  0  0  0
 10  7  1  0  0  0  0
 11 12  1  0  0  0  0
 11 10  2  0  0  0  0
 13 11  1  0  0  0  0
 14 13  1  0  0  0  0
 15 13  2  0  0  0  0
 15 16  1  0  0  0  0
 16 17  2  0  0  0  0
 17 10  1  0  0  0  0
 18 21  1  0  0  0  0
 18  1  1  0  0  0  0
 19 18  1  0  0  0  0
 20 18  1  0  0  0  0
 21 26  1  0  0  0  0
 22 21  2  0  0  0  0
 22 23  1  0  0  0  0
 23 24  2  0  0  0  0
 24 25  1  0  0  0  0
 25 28  1  0  0  0  0
 26 25  2  0  0  0  0
 27 23  1  0  0  0  0
 29 22  1  0  0  0  0
 30 29  1  0  0  0  0
M  END
>  <minimizedAffinity>
-4.24037886

>  <minimizedRMSD>
0.974344969

$$$$
