
 OpenBabel03252506183D

 22 23  0  0  0  0  0  0  0  0999 V2000
   45.0410   34.9110   44.3920 C   0  0  0  0  0  0  0  0  0  0  0  0
   44.9290   34.1910   43.1880 C   0  0  0  0  0  0  0  0  0  0  0  0
   45.2120   32.8210   43.2020 C   0  0  0  0  0  0  0  0  0  0  0  0
   45.5840   32.2600   44.3910 N   0  0  0  0  0  0  0  0  0  0  0  0
   45.6840   32.9800   45.5320 C   0  0  0  0  0  0  0  0  0  0  0  0
   45.4100   34.2990   45.5170 N   0  0  0  0  0  0  0  0  0  0  0  0
   44.6320   34.6360   42.2430 H   0  0  0  0  0  0  0  0  0  0  0  0
   45.1570   32.1900   42.3460 H   0  0  0  0  0  0  0  0  0  0  0  0
   46.0870   32.3120   46.7600 C   0  0  0  0  0  0  0  0  0  0  0  0
   47.1620   31.4480   46.7580 C   0  0  0  0  0  0  0  0  0  0  0  0
   47.6990   31.2810   45.8200 H   0  0  0  0  0  0  0  0  0  0  0  0
   47.5500   30.8090   47.9280 C   0  0  0  0  0  0  0  0  0  0  0  0
   48.3760   30.1390   47.9520 H   0  0  0  0  0  0  0  0  0  0  0  0
   46.7760   31.1220   49.0310 C   0  0  0  0  0  3  0  0  0  0  0  0
   45.7140   31.9720   49.0440 C   0  0  0  0  0  3  0  0  0  0  0  0
   45.3600   32.5800   47.8820 N   0  0  0  0  0  0  0  0  0  0  0  0
   44.7440   36.3400   44.3730 C   0  0  0  0  0  3  0  0  0  0  0  0
   45.3820   37.1050   43.5120 C   0  0  0  0  0  3  0  0  0  0  0  0
   45.1300   38.5750   43.4360 C   0  0  0  0  0  0  0  0  0  0  0  0
   44.0120   38.6960   43.4280 H   0  0  0  0  0  0  0  0  0  0  0  0
   45.4900   39.1240   44.3250 H   0  0  0  0  0  0  0  0  0  0  0  0
   45.5070   38.9590   42.4790 H   0  0  0  0  0  0  0  0  0  0  0  0
  1  6  1  0  0  0  0
  2  3  1  0  0  0  0
  2  1  2  0  0  0  0
  3  4  2  0  0  0  0
  4  5  1  0  0  0  0
  5  9  1  0  0  0  0
  6  5  2  0  0  0  0
  7  2  1  0  0  0  0
  8  3  1  0  0  0  0
  9 16  1  0  0  0  0
 10  9  2  0  0  0  0
 10 12  1  0  0  0  0
 11 10  1  0  0  0  0
 12 13  1  0  0  0  0
 12 14  2  0  0  0  0
 14 15  1  0  0  0  0
 16 15  2  0  0  0  0
 17  1  1  0  0  0  0
 18 17  2  0  0  0  0
 19 18  1  0  0  0  0
 19 21  1  0  0  0  0
 20 19  1  0  0  0  0
 22 19  1  0  0  0  0
M  END
>  <minimizedAffinity>
-3.98267174

>  <minimizedRMSD>
2.48188567

$$$$
