
 OpenBabel03252506183D

 22 23  0  0  0  0  0  0  0  0999 V2000
   45.0410   34.9120   44.3910 C   0  0  0  0  0  0  0  0  0  0  0  0
   44.9290   34.1920   43.1870 C   0  0  0  0  0  0  0  0  0  0  0  0
   45.2120   32.8230   43.2020 C   0  0  0  0  0  0  0  0  0  0  0  0
   45.5840   32.2610   44.3900 N   0  0  0  0  0  0  0  0  0  0  0  0
   45.6830   32.9820   45.5310 C   0  0  0  0  0  0  0  0  0  0  0  0
   45.4090   34.3010   45.5160 N   0  0  0  0  0  0  0  0  0  0  0  0
   44.6320   34.6370   42.2420 H   0  0  0  0  0  0  0  0  0  0  0  0
   45.1570   32.1910   42.3450 H   0  0  0  0  0  0  0  0  0  0  0  0
   46.0870   32.3130   46.7590 C   0  0  0  0  0  0  0  0  0  0  0  0
   47.1620   31.4500   46.7580 C   0  0  0  0  0  0  0  0  0  0  0  0
   47.6990   31.2820   45.8200 H   0  0  0  0  0  0  0  0  0  0  0  0
   47.5490   30.8120   47.9280 C   0  0  0  0  0  0  0  0  0  0  0  0
   48.3760   30.1410   47.9520 H   0  0  0  0  0  0  0  0  0  0  0  0
   46.7760   31.1240   49.0300 C   0  0  0  0  0  3  0  0  0  0  0  0
   45.7120   31.9730   49.0440 C   0  0  0  0  0  3  0  0  0  0  0  0
   45.3590   32.5820   47.8810 N   0  0  0  0  0  0  0  0  0  0  0  0
   44.7430   36.3410   44.3720 C   0  0  0  0  0  3  0  0  0  0  0  0
   45.3830   37.1070   43.5120 C   0  0  0  0  0  3  0  0  0  0  0  0
   45.1300   38.5770   43.4360 C   0  0  0  0  0  0  0  0  0  0  0  0
   44.0130   38.6980   43.4260 H   0  0  0  0  0  0  0  0  0  0  0  0
   45.4900   39.1260   44.3260 H   0  0  0  0  0  0  0  0  0  0  0  0
   45.5090   38.9610   42.4800 H   0  0  0  0  0  0  0  0  0  0  0  0
  1  6  1  0  0  0  0
  2  3  1  0  0  0  0
  2  1  2  0  0  0  0
  3  4  2  0  0  0  0
  4  5  1  0  0  0  0
  5  9  1  0  0  0  0
  6  5  2  0  0  0  0
  7  2  1  0  0  0  0
  8  3  1  0  0  0  0
  9 16  1  0  0  0  0
 10  9  2  0  0  0  0
 10 12  1  0  0  0  0
 11 10  1  0  0  0  0
 12 13  1  0  0  0  0
 12 14  2  0  0  0  0
 14 15  1  0  0  0  0
 16 15  2  0  0  0  0
 17  1  1  0  0  0  0
 18 17  2  0  0  0  0
 19 18  1  0  0  0  0
 19 21  1  0  0  0  0
 20 19  1  0  0  0  0
 22 19  1  0  0  0  0
M  END
>  <minimizedAffinity>
-3.98231339

>  <minimizedRMSD>
2.4606595

$$$$
