
 OpenBabel03252507433D

 30 32  0  0  0  0  0  0  0  0999 V2000
   45.8580   34.5700   41.9540 C   0  0  0  0  0  0  0  0  0  0  0  0
   45.8820   33.7250   42.6790 H   0  0  0  0  0  0  0  0  0  0  0  0
   46.1350   35.4660   42.5740 H   0  0  0  0  0  0  0  0  0  0  0  0
   44.4480   34.6420   41.4860 C   0  0  0  0  0  0  0  0  0  0  0  0
   43.6660   35.8130   41.7660 C   0  0  0  0  0  0  0  0  0  0  0  0
   42.0390   35.3700   40.9790 S   0  0  0  0  0  0  0  0  0  0  0  0
   42.7300   33.7050   40.4310 C   0  0  0  0  0  0  0  0  0  0  0  0
   43.7970   33.7210   40.8170 N   0  0  0  0  0  0  0  0  0  0  0  0
   43.9960   36.6890   42.3010 H   0  0  0  0  0  0  0  0  0  0  0  0
   41.8990   32.7220   39.6680 C   0  0  0  0  0  0  0  0  0  0  0  0
   41.2060   33.1890   38.5720 C   0  0  0  0  0  0  0  0  0  0  0  0
   41.3050   34.2330   38.3350 H   0  0  0  0  0  0  0  0  0  0  0  0
   40.4540   32.2560   37.8990 C   0  0  0  0  0  0  0  0  0  0  0  0
   39.9100   32.6470   37.0320 H   0  0  0  0  0  0  0  0  0  0  0  0
   40.4260   30.9490   38.3250 C   0  0  0  0  0  3  0  0  0  0  0  0
   41.1380   30.5260   39.4290 C   0  0  0  0  0  3  0  0  0  0  0  0
   41.8660   31.4570   40.0740 N   0  0  0  0  0  0  0  0  0  0  0  0
   46.8620   34.2830   40.8970 C   0  0  0  0  0  0  0  0  0  0  0  0
   46.9350   35.2190   40.2660 H   0  0  0  0  0  0  0  0  0  0  0  0
   46.5140   33.4370   40.3140 H   0  0  0  0  0  0  0  0  0  0  0  0
   48.2340   34.0820   41.4140 C   0  0  0  0  0  0  0  0  0  0  0  0
   48.8670   32.8710   41.0900 C   0  0  0  0  0  0  0  0  0  0  0  0
   50.1450   32.6220   41.5390 C   0  0  0  0  0  0  0  0  0  0  0  0
   50.7560   33.5780   42.2940 N   0  0  0  0  0  0  0  0  0  0  0  0
   50.1210   34.7350   42.5900 C   0  0  0  0  0  0  0  0  0  0  0  0
   48.8810   34.9750   42.1530 N   0  0  0  0  0  0  0  0  0  0  0  0
   50.6720   31.6990   41.3130 H   0  0  0  0  0  0  0  0  0  0  0  0
   50.6880   35.4310   43.1950 H   0  0  0  0  0  0  0  0  0  0  0  0
   48.0110   31.6450   40.0900 S   0  0  0  0  0  0  0  0  0  0  0  0
   47.8560   32.0740   38.7630 H   0  0  0  0  0  0  0  0  0  0  0  0
  1  3  1  0  0  0  0
  1  2  1  0  0  0  0
  4  5  2  0  0  0  0
  4  1  1  0  0  0  0
  5  9  1  0  0  0  0
  6  5  1  0  0  0  0
  7  8  2  0  0  0  0
  7  6  1  0  0  0  0
  8  4  1  0  0  0  0
 10 17  1  0  0  0  0
 10  7  1  0  0  0  0
 11 10  2  0  0  0  0
 12 11  1  0  0  0  0
 13 15  2  0  0  0  0
 13 11  1  0  0  0  0
 14 13  1  0  0  0  0
 15 16  1  0  0  0  0
 16 17  2  0  0  0  0
 18 21  1  0  0  0  0
 18  1  1  0  0  0  0
 19 18  1  0  0  0  0
 20 18  1  0  0  0  0
 21 26  1  0  0  0  0
 22 21  2  0  0  0  0
 22 23  1  0  0  0  0
 23 24  2  0  0  0  0
 24 25  1  0  0  0  0
 25 28  1  0  0  0  0
 26 25  2  0  0  0  0
 27 23  1  0  0  0  0
 29 22  1  0  0  0  0
 30 29  1  0  0  0  0
M  END
>  <minimizedAffinity>
-4.19823837

>  <minimizedRMSD>
1.31449354

$$$$
