
 OpenBabel03252506183D

 22 23  0  0  0  0  0  0  0  0999 V2000
   44.8820   35.6270   44.0100 C   0  0  0  0  0  0  0  0  0  0  0  0
   44.4040   35.1980   42.7570 C   0  0  0  0  0  0  0  0  0  0  0  0
   44.4840   33.8370   42.4450 C   0  0  0  0  0  0  0  0  0  0  0  0
   45.0250   33.0000   43.3790 N   0  0  0  0  0  0  0  0  0  0  0  0
   45.4760   33.4440   44.5740 C   0  0  0  0  0  0  0  0  0  0  0  0
   45.3980   34.7550   44.8740 N   0  0  0  0  0  0  0  0  0  0  0  0
   43.9730   35.8630   42.0150 H   0  0  0  0  0  0  0  0  0  0  0  0
   44.1500   33.4140   41.5260 H   0  0  0  0  0  0  0  0  0  0  0  0
   46.0410   32.4900   45.5180 C   0  0  0  0  0  0  0  0  0  0  0  0
   46.6680   32.9380   46.6630 C   0  0  0  0  0  0  0  0  0  0  0  0
   46.7290   34.0150   46.8410 H   0  0  0  0  0  0  0  0  0  0  0  0
   47.2080   32.0310   47.5650 C   0  0  0  0  0  0  0  0  0  0  0  0
   47.6960   32.3520   48.4550 H   0  0  0  0  0  0  0  0  0  0  0  0
   47.0530   30.7060   47.2030 C   0  0  0  0  0  3  0  0  0  0  0  0
   46.4360   30.2540   46.0770 C   0  0  0  0  0  3  0  0  0  0  0  0
   45.9180   31.1680   45.2150 N   0  0  0  0  0  0  0  0  0  0  0  0
   44.7960   37.0480   44.3320 C   0  0  0  0  0  3  0  0  0  0  0  0
   45.4180   37.9100   43.5550 C   0  0  0  0  0  3  0  0  0  0  0  0
   45.3740   39.3780   43.8240 C   0  0  0  0  0  0  0  0  0  0  0  0
   44.2950   39.6240   44.0220 H   0  0  0  0  0  0  0  0  0  0  0  0
   45.9270   39.6700   44.7350 H   0  0  0  0  0  0  0  0  0  0  0  0
   45.6710   39.9220   42.9170 H   0  0  0  0  0  0  0  0  0  0  0  0
  1 17  1  0  0  0  0
  1  6  1  0  0  0  0
  2  1  2  0  0  0  0
  3  2  1  0  0  0  0
  3  4  2  0  0  0  0
  4  5  1  0  0  0  0
  5  6  2  0  0  0  0
  5  9  1  0  0  0  0
  7  2  1  0  0  0  0
  8  3  1  0  0  0  0
  9 10  1  0  0  0  0
 10 11  1  0  0  0  0
 10 12  2  0  0  0  0
 12 13  1  0  0  0  0
 14 12  1  0  0  0  0
 15 14  2  0  0  0  0
 16  9  2  0  0  0  0
 16 15  1  0  0  0  0
 18 19  1  0  0  0  0
 18 17  2  0  0  0  0
 19 20  1  0  0  0  0
 19 21  1  0  0  0  0
 22 19  1  0  0  0  0
M  END
>  <minimizedAffinity>
-3.6827786

>  <minimizedRMSD>
1.57069731

$$$$
