
 OpenBabel03252506183D

 22 23  0  0  0  0  0  0  0  0999 V2000
   44.8520   35.7650   43.9590 C   0  0  0  0  0  0  0  0  0  0  0  0
   44.3190   35.3950   42.7100 C   0  0  0  0  0  0  0  0  0  0  0  0
   44.3540   34.0460   42.3440 C   0  0  0  0  0  0  0  0  0  0  0  0
   44.9070   33.1610   43.2260 N   0  0  0  0  0  0  0  0  0  0  0  0
   45.4110   33.5480   44.4200 C   0  0  0  0  0  0  0  0  0  0  0  0
   45.3760   34.8480   44.7710 N   0  0  0  0  0  0  0  0  0  0  0  0
   43.8790   36.0980   42.0090 H   0  0  0  0  0  0  0  0  0  0  0  0
   43.9780   33.6660   41.4220 H   0  0  0  0  0  0  0  0  0  0  0  0
   45.9850   32.5460   45.3070 C   0  0  0  0  0  0  0  0  0  0  0  0
   46.6110   32.9320   46.4740 C   0  0  0  0  0  0  0  0  0  0  0  0
   46.6640   33.9980   46.7140 H   0  0  0  0  0  0  0  0  0  0  0  0
   47.1590   31.9800   47.3220 C   0  0  0  0  0  0  0  0  0  0  0  0
   47.6470   32.2520   48.2280 H   0  0  0  0  0  0  0  0  0  0  0  0
   47.0130   30.6760   46.8850 C   0  0  0  0  0  3  0  0  0  0  0  0
   46.3970   30.2850   45.7370 C   0  0  0  0  0  3  0  0  0  0  0  0
   45.8710   31.2420   44.9290 N   0  0  0  0  0  0  0  0  0  0  0  0
   44.8120   37.1740   44.3370 C   0  0  0  0  0  3  0  0  0  0  0  0
   45.4130   38.0520   43.5610 C   0  0  0  0  0  3  0  0  0  0  0  0
   45.4140   39.5100   43.8850 C   0  0  0  0  0  0  0  0  0  0  0  0
   44.3520   39.7690   44.1470 H   0  0  0  0  0  0  0  0  0  0  0  0
   46.0180   39.7560   44.7770 H   0  0  0  0  0  0  0  0  0  0  0  0
   45.6760   40.0810   42.9840 H   0  0  0  0  0  0  0  0  0  0  0  0
  1 17  1  0  0  0  0
  1  6  1  0  0  0  0
  2  1  2  0  0  0  0
  3  2  1  0  0  0  0
  3  4  2  0  0  0  0
  4  5  1  0  0  0  0
  5  6  2  0  0  0  0
  5  9  1  0  0  0  0
  7  2  1  0  0  0  0
  8  3  1  0  0  0  0
  9 10  1  0  0  0  0
 10 11  1  0  0  0  0
 10 12  2  0  0  0  0
 12 13  1  0  0  0  0
 14 12  1  0  0  0  0
 15 14  2  0  0  0  0
 16  9  2  0  0  0  0
 16 15  1  0  0  0  0
 18 19  1  0  0  0  0
 18 17  2  0  0  0  0
 19 20  1  0  0  0  0
 19 21  1  0  0  0  0
 22 19  1  0  0  0  0
M  END
>  <minimizedAffinity>
-3.67216563

>  <minimizedRMSD>
1.35647964

$$$$
