
 OpenBabel03252506183D

 22 23  0  0  0  0  0  0  0  0999 V2000
   44.8830   35.6470   44.0180 C   0  0  0  0  0  0  0  0  0  0  0  0
   44.3960   35.2000   42.7760 C   0  0  0  0  0  0  0  0  0  0  0  0
   44.4860   33.8370   42.4770 C   0  0  0  0  0  0  0  0  0  0  0  0
   45.0450   33.0150   43.4130 N   0  0  0  0  0  0  0  0  0  0  0  0
   45.5050   33.4760   44.5990 C   0  0  0  0  0  0  0  0  0  0  0  0
   45.4170   34.7890   44.8860 N   0  0  0  0  0  0  0  0  0  0  0  0
   43.9500   35.8530   42.0310 H   0  0  0  0  0  0  0  0  0  0  0  0
   44.1470   33.4010   41.5660 H   0  0  0  0  0  0  0  0  0  0  0  0
   46.0890   32.5380   45.5460 C   0  0  0  0  0  0  0  0  0  0  0  0
   46.0760   31.1840   45.2780 C   0  0  0  0  0  0  0  0  0  0  0  0
   45.6220   30.8380   44.3460 H   0  0  0  0  0  0  0  0  0  0  0  0
   46.6320   30.2860   46.1790 C   0  0  0  0  0  0  0  0  0  0  0  0
   46.6360   29.2380   45.9950 H   0  0  0  0  0  0  0  0  0  0  0  0
   47.1680   30.8730   47.3110 C   0  0  0  0  0  3  0  0  0  0  0  0
   47.1850   32.2070   47.5850 C   0  0  0  0  0  3  0  0  0  0  0  0
   46.6330   33.0570   46.6830 N   0  0  0  0  0  0  0  0  0  0  0  0
   44.7860   37.0700   44.3270 C   0  0  0  0  0  3  0  0  0  0  0  0
   45.4280   37.9270   43.5600 C   0  0  0  0  0  3  0  0  0  0  0  0
   45.3750   39.3970   43.8160 C   0  0  0  0  0  0  0  0  0  0  0  0
   44.2910   39.6430   43.9830 H   0  0  0  0  0  0  0  0  0  0  0  0
   45.9020   39.6970   44.7400 H   0  0  0  0  0  0  0  0  0  0  0  0
   45.6960   39.9340   42.9130 H   0  0  0  0  0  0  0  0  0  0  0  0
  1 17  1  0  0  0  0
  1  6  1  0  0  0  0
  2  1  2  0  0  0  0
  3  2  1  0  0  0  0
  3  4  2  0  0  0  0
  4  5  1  0  0  0  0
  5  6  2  0  0  0  0
  5  9  1  0  0  0  0
  7  2  1  0  0  0  0
  8  3  1  0  0  0  0
  9 16  1  0  0  0  0
 10  9  2  0  0  0  0
 10 12  1  0  0  0  0
 11 10  1  0  0  0  0
 12 14  2  0  0  0  0
 13 12  1  0  0  0  0
 14 15  1  0  0  0  0
 16 15  2  0  0  0  0
 18 19  1  0  0  0  0
 18 17  2  0  0  0  0
 19 20  1  0  0  0  0
 19 21  1  0  0  0  0
 22 19  1  0  0  0  0
M  END
>  <minimizedAffinity>
-3.64024353

>  <minimizedRMSD>
1.48804533

$$$$
