
 OpenBabel03252507433D

 30 32  0  0  0  0  0  0  0  0999 V2000
   45.6300   34.6340   41.6850 C   0  0  0  0  0  0  0  0  0  0  0  0
   45.6320   33.8860   42.5100 H   0  0  0  0  0  0  0  0  0  0  0  0
   45.8570   35.6060   42.1990 H   0  0  0  0  0  0  0  0  0  0  0  0
   44.2450   34.6120   41.1420 C   0  0  0  0  0  0  0  0  0  0  0  0
   43.3300   35.6620   41.4890 C   0  0  0  0  0  0  0  0  0  0  0  0
   41.8010   35.1420   40.5650 S   0  0  0  0  0  0  0  0  0  0  0  0
   42.6920   33.6220   39.8960 C   0  0  0  0  0  0  0  0  0  0  0  0
   43.7310   33.7050   40.3460 N   0  0  0  0  0  0  0  0  0  0  0  0
   43.5380   36.5050   42.1270 H   0  0  0  0  0  0  0  0  0  0  0  0
   42.0090   32.6460   38.9900 C   0  0  0  0  0  0  0  0  0  0  0  0
   42.7850   31.9960   38.0540 C   0  0  0  0  0  0  0  0  0  0  0  0
   43.8340   32.2310   38.0350 H   0  0  0  0  0  0  0  0  0  0  0  0
   42.1210   31.1080   37.2420 C   0  0  0  0  0  0  0  0  0  0  0  0
   42.7550   30.6020   36.5050 H   0  0  0  0  0  0  0  0  0  0  0  0
   40.7690   30.9130   37.3880 C   0  0  0  0  0  3  0  0  0  0  0  0
   40.0310   31.5870   38.3410 C   0  0  0  0  0  3  0  0  0  0  0  0
   40.7030   32.4510   39.1240 N   0  0  0  0  0  0  0  0  0  0  0  0
   46.6930   34.2420   40.7230 C   0  0  0  0  0  0  0  0  0  0  0  0
   46.7590   35.0780   39.9640 H   0  0  0  0  0  0  0  0  0  0  0  0
   46.4070   33.3050   40.2570 H   0  0  0  0  0  0  0  0  0  0  0  0
   48.0460   34.1810   41.3200 C   0  0  0  0  0  0  0  0  0  0  0  0
   48.7530   32.9760   41.1770 C   0  0  0  0  0  0  0  0  0  0  0  0
   50.0180   32.8540   41.7080 C   0  0  0  0  0  0  0  0  0  0  0  0
   50.5430   33.9270   42.3630 N   0  0  0  0  0  0  0  0  0  0  0  0
   49.8380   35.0750   42.4850 C   0  0  0  0  0  0  0  0  0  0  0  0
   48.6110   35.1920   41.9690 N   0  0  0  0  0  0  0  0  0  0  0  0
   50.6000   31.9410   41.6220 H   0  0  0  0  0  0  0  0  0  0  0  0
   50.3390   35.8700   43.0230 H   0  0  0  0  0  0  0  0  0  0  0  0
   48.0090   31.5920   40.3010 S   0  0  0  0  0  0  0  0  0  0  0  0
   47.8990   31.8470   38.9250 H   0  0  0  0  0  0  0  0  0  0  0  0
  1  3  1  0  0  0  0
  1  2  1  0  0  0  0
  4  5  2  0  0  0  0
  4  1  1  0  0  0  0
  5  9  1  0  0  0  0
  6  5  1  0  0  0  0
  7  8  2  0  0  0  0
  7  6  1  0  0  0  0
  8  4  1  0  0  0  0
 10 17  1  0  0  0  0
 10  7  1  0  0  0  0
 11 10  2  0  0  0  0
 12 11  1  0  0  0  0
 13 15  2  0  0  0  0
 13 11  1  0  0  0  0
 14 13  1  0  0  0  0
 15 16  1  0  0  0  0
 16 17  2  0  0  0  0
 18 21  1  0  0  0  0
 18  1  1  0  0  0  0
 19 18  1  0  0  0  0
 20 18  1  0  0  0  0
 21 26  1  0  0  0  0
 22 21  2  0  0  0  0
 22 23  1  0  0  0  0
 23 24  2  0  0  0  0
 24 25  1  0  0  0  0
 25 28  1  0  0  0  0
 26 25  2  0  0  0  0
 27 23  1  0  0  0  0
 29 22  1  0  0  0  0
 30 29  1  0  0  0  0
M  END
>  <minimizedAffinity>
-4.30366039

>  <minimizedRMSD>
0.919181287

$$$$
