
 OpenBabel03252507433D

 30 32  0  0  0  0  0  0  0  0999 V2000
   45.8400   34.5860   41.7140 C   0  0  0  0  0  0  0  0  0  0  0  0
   45.8480   33.7930   42.4950 H   0  0  0  0  0  0  0  0  0  0  0  0
   46.0750   35.5270   42.2810 H   0  0  0  0  0  0  0  0  0  0  0  0
   44.4500   34.5990   41.1850 C   0  0  0  0  0  0  0  0  0  0  0  0
   43.5630   35.6690   41.5430 C   0  0  0  0  0  0  0  0  0  0  0  0
   42.0130   35.1880   40.6330 S   0  0  0  0  0  0  0  0  0  0  0  0
   42.8610   33.6490   39.9520 C   0  0  0  0  0  0  0  0  0  0  0  0
   43.9060   33.7060   40.3920 N   0  0  0  0  0  0  0  0  0  0  0  0
   43.7980   36.5060   42.1810 H   0  0  0  0  0  0  0  0  0  0  0  0
   42.1470   32.6920   39.0510 C   0  0  0  0  0  0  0  0  0  0  0  0
   40.7930   32.5220   39.2470 C   0  0  0  0  0  0  0  0  0  0  0  0
   40.3350   33.0890   40.0370 H   0  0  0  0  0  0  0  0  0  0  0  0
   40.1740   31.6350   38.4000 C   0  0  0  0  0  0  0  0  0  0  0  0
   39.0980   31.5130   38.5730 H   0  0  0  0  0  0  0  0  0  0  0  0
   40.8980   30.9800   37.4320 C   0  0  0  0  0  3  0  0  0  0  0  0
   42.2540   31.1830   37.2710 C   0  0  0  0  0  3  0  0  0  0  0  0
   42.8400   32.0560   38.1120 N   0  0  0  0  0  0  0  0  0  0  0  0
   46.8920   34.2470   40.7210 C   0  0  0  0  0  0  0  0  0  0  0  0
   46.9970   35.1500   40.0480 H   0  0  0  0  0  0  0  0  0  0  0  0
   46.5710   33.3730   40.1650 H   0  0  0  0  0  0  0  0  0  0  0  0
   48.2380   34.0740   41.3120 C   0  0  0  0  0  0  0  0  0  0  0  0
   48.9050   32.8690   41.0360 C   0  0  0  0  0  0  0  0  0  0  0  0
   50.1610   32.6440   41.5550 C   0  0  0  0  0  0  0  0  0  0  0  0
   50.7170   33.6180   42.3290 N   0  0  0  0  0  0  0  0  0  0  0  0
   50.0500   34.7690   42.5770 C   0  0  0  0  0  0  0  0  0  0  0  0
   48.8320   34.9850   42.0740 N   0  0  0  0  0  0  0  0  0  0  0  0
   50.7130   31.7280   41.3680 H   0  0  0  0  0  0  0  0  0  0  0  0
   50.5740   35.4800   43.2030 H   0  0  0  0  0  0  0  0  0  0  0  0
   48.1220   31.6180   40.0070 S   0  0  0  0  0  0  0  0  0  0  0  0
   48.0310   32.0310   38.6680 H   0  0  0  0  0  0  0  0  0  0  0  0
  1  3  1  0  0  0  0
  1  2  1  0  0  0  0
  4  5  2  0  0  0  0
  4  1  1  0  0  0  0
  5  9  1  0  0  0  0
  6  5  1  0  0  0  0
  7  8  2  0  0  0  0
  7  6  1  0  0  0  0
  8  4  1  0  0  0  0
 10 11  1  0  0  0  0
 10  7  1  0  0  0  0
 11 12  1  0  0  0  0
 13 14  1  0  0  0  0
 13 11  2  0  0  0  0
 15 13  1  0  0  0  0
 16 15  2  0  0  0  0
 16 17  1  0  0  0  0
 17 10  2  0  0  0  0
 18 21  1  0  0  0  0
 18  1  1  0  0  0  0
 19 18  1  0  0  0  0
 20 18  1  0  0  0  0
 21 26  1  0  0  0  0
 22 21  2  0  0  0  0
 22 23  1  0  0  0  0
 23 24  2  0  0  0  0
 24 25  1  0  0  0  0
 25 28  1  0  0  0  0
 26 25  2  0  0  0  0
 27 23  1  0  0  0  0
 29 22  1  0  0  0  0
 30 29  1  0  0  0  0
M  END
>  <minimizedAffinity>
-4.30580521

>  <minimizedRMSD>
0.940027177

$$$$
