
 OpenBabel03252509193D

 42 45  0  0  1  0  0  0  0  0999 V2000
   48.1890   25.6730   46.5920 C   0  0  1  0  0  0  0  0  0  0  0  0
   48.1060   24.8930   45.3120 C   0  0  0  0  0  0  0  0  0  0  0  0
   49.1100   23.7840   45.1840 C   0  0  0  0  0  0  0  0  0  0  0  0
   49.2770   22.9860   46.4640 C   0  0  0  0  0  0  0  0  0  0  0  0
   49.3770   23.8660   47.6730 C   0  0  0  0  0  0  0  0  0  0  0  0
   49.5340   25.3340   47.2570 C   0  0  2  0  0  0  0  0  0  0  0  0
   47.4120   25.3330   47.2720 H   0  0  0  0  0  0  0  0  0  0  0  0
   48.2920   25.6040   44.4840 H   0  0  0  0  0  0  0  0  0  0  0  0
   47.0910   24.4550   45.2060 H   0  0  0  0  0  0  0  0  0  0  0  0
   48.7140   23.0770   44.4330 H   0  0  0  0  0  0  0  0  0  0  0  0
   50.0740   24.1900   44.8270 H   0  0  0  0  0  0  0  0  0  0  0  0
   50.2000   22.3840   46.3390 H   0  0  0  0  0  0  0  0  0  0  0  0
   48.4410   22.2640   46.5180 H   0  0  0  0  0  0  0  0  0  0  0  0
   48.4480   23.7250   48.2450 H   0  0  0  0  0  0  0  0  0  0  0  0
   50.2360   23.5460   48.2870 H   0  0  0  0  0  0  0  0  0  0  0  0
   50.3620   25.4090   46.5340 H   0  0  0  0  0  0  0  0  0  0  0  0
   47.2350   29.6690   46.3890 C   0  0  0  0  0  0  0  0  0  0  0  0
   48.3590   29.3310   45.6380 C   0  0  0  0  0  0  0  0  0  0  0  0
   48.7610   28.0610   45.6330 C   0  0  0  0  0  0  0  0  0  0  0  0
   48.0560   27.0820   46.3730 C   0  0  0  0  0  0  0  0  0  0  0  0
   46.7220   28.0570   47.1350 S   0  0  0  0  0  0  0  0  0  0  0  0
   48.8870   30.0880   45.0750 H   0  0  0  0  0  0  0  0  0  0  0  0
   49.6040   27.6370   45.1120 H   0  0  0  0  0  0  0  0  0  0  0  0
   46.2510   33.2270   45.9050 C   0  0  0  0  0  0  0  0  0  0  0  0
   45.4370   33.4080   47.0220 C   0  0  0  0  0  0  0  0  0  0  0  0
   45.2530   32.3270   47.8930 C   0  0  0  0  0  0  0  0  0  0  0  0
   45.8850   31.1450   47.5970 N   0  0  0  0  0  0  0  0  0  0  0  0
   46.6590   31.0240   46.5080 C   0  0  0  0  0  0  0  0  0  0  0  0
   46.8450   32.0640   45.6560 N   0  0  0  0  0  0  0  0  0  0  0  0
   46.4020   34.0530   45.2240 H   0  0  0  0  0  0  0  0  0  0  0  0
   44.9410   34.3220   47.2600 H   0  0  0  0  0  0  0  0  0  0  0  0
   44.6390   32.3920   48.7760 H   0  0  0  0  0  0  0  0  0  0  0  0
   49.7030   26.1540   48.4560 C   0  0  0  0  0  0  0  0  0  0  0  0
   49.0990   25.9510   49.4790 O   0  0  0  0  0  0  0  0  0  0  0  0
   50.4490   27.2880   48.9650 C   0  0  0  0  0  0  0  0  0  0  0  0
   49.9440   28.5900   49.1300 C   0  0  0  0  0  0  0  0  0  0  0  0
   48.8910   28.7220   48.9010 H   0  0  0  0  0  0  0  0  0  0  0  0
   50.6220   29.7130   49.5450 C   0  0  0  0  0  0  0  0  0  0  0  0
   50.1140   30.6510   49.6280 H   0  0  0  0  0  0  0  0  0  0  0  0
   51.9460   29.5100   49.8260 C   0  0  0  0  0  3  0  0  0  0  0  0
   52.4740   28.2580   49.6800 C   0  0  0  0  0  3  0  0  0  0  0  0
   51.7480   27.2300   49.2730 N   0  0  0  0  0  0  0  0  0  0  0  0
  1  6  1  0  0  0  0
  1  7  1  1  0  0  0
  2  1  1  0  0  0  0
  3  2  1  0  0  0  0
  3  4  1  0  0  0  0
  4 13  1  0  0  0  0
  4  5  1  0  0  0  0
  5 14  1  0  0  0  0
  5 15  1  0  0  0  0
  6 16  1  6  0  0  0
  6  5  1  0  0  0  0
  6 33  1  0  0  0  0
  8  2  1  0  0  0  0
  9  2  1  0  0  0  0
 10  3  1  0  0  0  0
 11  3  1  0  0  0  0
 12  4  1  0  0  0  0
 17 28  1  0  0  0  0
 17 21  1  0  0  0  0
 18 17  2  0  0  0  0
 19 18  1  0  0  0  0
 19 20  2  0  0  0  0
 20  1  1  0  0  0  0
 20 21  1  0  0  0  0
 22 18  1  0  0  0  0
 23 19  1  0  0  0  0
 24 25  1  0  0  0  0
 25 31  1  0  0  0  0
 25 26  2  0  0  0  0
 26 32  1  0  0  0  0
 27 26  1  0  0  0  0
 28 27  2  0  0  0  0
 29 24  2  0  0  0  0
 29 28  1  0  0  0  0
 30 24  1  0  0  0  0
 33 35  1  0  0  0  0
 33 34  2  0  0  0  0
 35 36  2  0  0  0  0
 35 42  1  0  0  0  0
 36 38  1  0  0  0  0
 37 36  1  0  0  0  0
 38 39  1  0  0  0  0
 38 40  2  0  0  0  0
 41 40  1  0  0  0  0
 42 41  2  0  0  0  0
M  END
>  <minimizedAffinity>
-3.02831101

>  <minimizedRMSD>
5.30482769

$$$$
