
 OpenBabel03252509193D

 42 45  0  0  1  0  0  0  0  0999 V2000
   45.9860   31.0930   46.1520 C   0  0  1  0  0  0  0  0  0  0  0  0
   46.3820   30.2910   47.3580 C   0  0  0  0  0  0  0  0  0  0  0  0
   46.7460   31.1060   48.5650 C   0  0  0  0  0  0  0  0  0  0  0  0
   45.8030   32.2720   48.7970 C   0  0  0  0  0  0  0  0  0  0  0  0
   45.5000   33.0170   47.5330 C   0  0  0  0  0  0  0  0  0  0  0  0
   46.4190   32.5480   46.3980 C   0  0  2  0  0  0  0  0  0  0  0  0
   44.9020   31.1010   46.0660 H   0  0  0  0  0  0  0  0  0  0  0  0
   47.2760   29.6990   47.0770 H   0  0  0  0  0  0  0  0  0  0  0  0
   45.5560   29.6050   47.6400 H   0  0  0  0  0  0  0  0  0  0  0  0
   46.6360   30.4460   49.4440 H   0  0  0  0  0  0  0  0  0  0  0  0
   47.7980   31.4390   48.4910 H   0  0  0  0  0  0  0  0  0  0  0  0
   46.3020   32.9350   49.5330 H   0  0  0  0  0  0  0  0  0  0  0  0
   44.9000   31.8770   49.2980 H   0  0  0  0  0  0  0  0  0  0  0  0
   44.4470   32.8070   47.2870 H   0  0  0  0  0  0  0  0  0  0  0  0
   45.6240   34.0990   47.7070 H   0  0  0  0  0  0  0  0  0  0  0  0
   47.4630   32.5950   46.7490 H   0  0  0  0  0  0  0  0  0  0  0  0
   48.2360   29.5460   43.0770 C   0  0  0  0  0  0  0  0  0  0  0  0
   46.9200   29.8210   42.7130 C   0  0  0  0  0  0  0  0  0  0  0  0
   46.0990   30.3250   43.6340 C   0  0  0  0  0  0  0  0  0  0  0  0
   46.5610   30.5740   44.9480 C   0  0  0  0  0  0  0  0  0  0  0  0
   48.2990   30.0420   44.8570 S   0  0  0  0  0  0  0  0  0  0  0  0
   46.5800   29.6290   41.7050 H   0  0  0  0  0  0  0  0  0  0  0  0
   45.0600   30.5900   43.5180 H   0  0  0  0  0  0  0  0  0  0  0  0
   51.3980   28.3020   41.5530 C   0  0  0  0  0  0  0  0  0  0  0  0
   50.9250   27.9010   40.3040 C   0  0  0  0  0  0  0  0  0  0  0  0
   49.5630   28.0670   40.0240 C   0  0  0  0  0  0  0  0  0  0  0  0
   48.7660   28.6150   40.9990 N   0  0  0  0  0  0  0  0  0  0  0  0
   49.2720   28.9840   42.1860 C   0  0  0  0  0  0  0  0  0  0  0  0
   50.5900   28.8290   42.4690 N   0  0  0  0  0  0  0  0  0  0  0  0
   52.4470   28.1790   41.7830 H   0  0  0  0  0  0  0  0  0  0  0  0
   51.5360   27.4750   39.5410 H   0  0  0  0  0  0  0  0  0  0  0  0
   49.1250   27.7820   39.0820 H   0  0  0  0  0  0  0  0  0  0  0  0
   46.1460   33.3440   45.2030 C   0  0  0  0  0  0  0  0  0  0  0  0
   45.0690   33.8330   44.9730 O   0  0  0  0  0  0  0  0  0  0  0  0
   46.7850   33.8610   44.0080 C   0  0  0  0  0  0  0  0  0  0  0  0
   48.0780   33.5280   43.5650 C   0  0  0  0  0  0  0  0  0  0  0  0
   48.6020   32.7790   44.1510 H   0  0  0  0  0  0  0  0  0  0  0  0
   48.7550   34.0330   42.4800 C   0  0  0  0  0  0  0  0  0  0  0  0
   49.7430   33.6910   42.2510 H   0  0  0  0  0  0  0  0  0  0  0  0
   48.0650   34.9740   41.7630 C   0  0  0  0  0  3  0  0  0  0  0  0
   46.8050   35.3240   42.1610 C   0  0  0  0  0  3  0  0  0  0  0  0
   46.2270   34.7850   43.2220 N   0  0  0  0  0  0  0  0  0  0  0  0
  1  7  1  6  0  0  0
  1  6  1  0  0  0  0
  1  2  1  0  0  0  0
  2  9  1  0  0  0  0
  2  3  1  0  0  0  0
  3  4  1  0  0  0  0
  3 10  1  0  0  0  0
  4 13  1  0  0  0  0
  4 12  1  0  0  0  0
  5 15  1  0  0  0  0
  5  4  1  0  0  0  0
  6 16  1  1  0  0  0
  6  5  1  0  0  0  0
  8  2  1  0  0  0  0
 11  3  1  0  0  0  0
 14  5  1  0  0  0  0
 17 21  1  0  0  0  0
 18 17  2  0  0  0  0
 18 19  1  0  0  0  0
 19 20  2  0  0  0  0
 20  1  1  0  0  0  0
 21 20  1  0  0  0  0
 22 18  1  0  0  0  0
 23 19  1  0  0  0  0
 24 30  1  0  0  0  0
 24 29  1  0  0  0  0
 25 24  2  0  0  0  0
 26 25  1  0  0  0  0
 26 27  2  0  0  0  0
 27 28  1  0  0  0  0
 28 29  2  0  0  0  0
 28 17  1  0  0  0  0
 31 25  1  0  0  0  0
 32 26  1  0  0  0  0
 33  6  1  0  0  0  0
 34 33  2  0  0  0  0
 35 33  1  0  0  0  0
 36 35  1  0  0  0  0
 36 37  1  0  0  0  0
 38 36  2  0  0  0  0
 39 38  1  0  0  0  0
 40 41  2  0  0  0  0
 40 38  1  0  0  0  0
 41 42  1  0  0  0  0
 42 35  2  0  0  0  0
M  END
>  <minimizedAffinity>
-4.32366896

>  <minimizedRMSD>
6.53089762

$$$$
