
 OpenBabel03252507593D

 28 30  0  0  1  0  0  0  0  0999 V2000
   46.2850   34.7680   43.2330 C   0  0  0  0  0  0  0  0  0  0  0  0
   45.3430   35.8030   43.5110 C   0  0  0  0  0  0  0  0  0  0  0  0
   44.6420   35.6840   44.7080 C   0  0  0  0  0  0  0  0  0  0  0  0
   44.8880   34.6240   45.5130 N   0  0  0  0  0  0  0  0  0  0  0  0
   45.8130   33.6620   45.1790 C   0  0  0  0  0  0  0  0  0  0  0  0
   46.5080   33.7210   44.0590 N   0  0  0  0  0  0  0  0  0  0  0  0
   45.2120   36.6150   42.8090 H   0  0  0  0  0  0  0  0  0  0  0  0
   43.9180   36.4410   44.9630 H   0  0  0  0  0  0  0  0  0  0  0  0
   46.0400   32.5340   46.1300 C   0  0  1  0  0  0  0  0  0  0  0  0
   46.8250   32.7910   47.3960 C   0  0  0  0  0  0  0  0  0  0  0  0
   45.3270   32.6620   47.4170 C   0  0  1  0  0  0  0  0  0  0  0  0
   46.1310   31.5300   45.6770 H   0  0  0  0  0  0  0  0  0  0  0  0
   47.3300   33.7500   47.5300 H   0  0  0  0  0  0  0  0  0  0  0  0
   47.3430   31.9050   47.8120 H   0  0  0  0  0  0  0  0  0  0  0  0
   44.8620   31.8020   47.9180 H   0  0  0  0  0  0  0  0  0  0  0  0
   44.6920   33.9420   47.7630 N   0  0  0  0  0  0  0  0  0  0  0  0
   45.1850   34.3540   48.5740 H   0  0  0  0  0  0  0  0  0  0  0  0
   43.6610   33.8290   47.8790 H   0  0  0  0  0  0  0  0  0  0  0  0
   47.0120   34.9210   41.9880 C   0  0  0  0  0  0  0  0  0  0  0  0
   48.0670   35.6430   41.8800 O   0  0  0  0  0  0  0  0  0  0  0  0
   46.5580   34.2400   40.7760 C   0  0  0  0  0  0  0  0  0  0  0  0
   45.2270   33.9060   40.6310 C   0  0  0  0  0  0  0  0  0  0  0  0
   44.5040   34.1430   41.4120 H   0  0  0  0  0  0  0  0  0  0  0  0
   44.7020   33.2670   39.5310 C   0  0  0  0  0  0  0  0  0  0  0  0
   43.6580   33.0150   39.4400 H   0  0  0  0  0  0  0  0  0  0  0  0
   45.6220   32.9600   38.5280 C   0  0  0  0  0  3  0  0  0  0  0  0
   46.9470   33.3050   38.6960 C   0  0  0  0  0  3  0  0  0  0  0  0
   47.4230   33.9360   39.7970 N   0  0  0  0  0  0  0  0  0  0  0  0
  1  2  2  0  0  0  0
  1  6  1  0  0  0  0
  2  3  1  0  0  0  0
  3  8  1  0  0  0  0
  3  4  2  0  0  0  0
  5  4  1  0  0  0  0
  5  9  1  0  0  0  0
  6  5  2  0  0  0  0
  7  2  1  0  0  0  0
  9 12  1  6  0  0  0
  9 10  1  0  0  0  0
  9 11  1  0  0  0  0
 10 11  1  0  0  0  0
 10 13  1  0  0  0  0
 10 14  1  0  0  0  0
 11 16  1  0  0  0  0
 11 15  1  1  0  0  0
 16 18  1  0  0  0  0
 16 17  1  0  0  0  0
 19  1  1  0  0  0  0
 20 19  2  0  0  0  0
 21 19  1  0  0  0  0
 22 21  1  0  0  0  0
 22 23  1  0  0  0  0
 24 22  2  0  0  0  0
 25 24  1  0  0  0  0
 26 27  2  0  0  0  0
 26 24  1  0  0  0  0
 27 28  1  0  0  0  0
 28 21  2  0  0  0  0
M  END
>  <minimizedAffinity>
-5.55710936

>  <minimizedRMSD>
0.62228334

$$$$
