
 OpenBabel03252503593D

 33 36  0  0  1  0  0  0  0  0999 V2000
   47.1380   34.9210   42.6740 C   0  0  0  0  0  0  0  0  0  0  0  0
   46.1410   35.8440   42.4220 C   0  0  0  0  0  0  0  0  0  0  0  0
   45.0060   35.7880   43.2200 C   0  0  0  0  0  0  0  0  0  0  0  0
   44.9270   34.8480   44.1960 N   0  0  0  0  0  0  0  0  0  0  0  0
   45.9240   33.9680   44.4080 C   0  0  0  0  0  0  0  0  0  0  0  0
   47.0350   33.9960   43.6520 N   0  0  0  0  0  0  0  0  0  0  0  0
   46.1360   36.6080   41.6750 H   0  0  0  0  0  0  0  0  0  0  0  0
   44.1830   36.4800   43.0780 H   0  0  0  0  0  0  0  0  0  0  0  0
   46.0540   31.6210   45.1010 C   0  0  0  0  0  0  0  0  0  0  0  0
   45.8430   32.9520   45.4610 C   0  0  0  0  0  0  0  0  0  0  0  0
   45.5690   33.2820   46.7840 C   0  0  0  0  0  0  0  0  0  0  0  0
   45.5150   32.2620   47.7100 C   0  0  0  0  0  0  0  0  0  0  0  0
   45.2830   32.2470   49.0270 N   0  0  0  0  0  0  0  0  0  0  0  0
   45.3300   31.0110   49.5310 C   0  0  0  0  0  0  0  0  0  0  0  0
   45.6080   30.1500   48.5040 C   0  0  0  0  0  0  0  0  0  0  0  0
   45.7250   30.9310   47.3650 C   0  0  0  0  0  0  0  0  0  0  0  0
   45.9970   30.6200   46.0400 C   0  0  0  0  0  0  0  0  0  0  0  0
   46.2670   31.4050   44.0560 H   0  0  0  0  0  0  0  0  0  0  0  0
   45.4050   34.3060   47.0620 H   0  0  0  0  0  0  0  0  0  0  0  0
   45.0890   33.1250   49.5710 H   0  0  0  0  0  0  0  0  0  0  0  0
   45.1880   30.6730   50.5410 H   0  0  0  0  0  0  0  0  0  0  0  0
   45.7370   29.0620   48.4570 H   0  0  0  0  0  0  0  0  0  0  0  0
   46.1680   29.6060   45.7070 H   0  0  0  0  0  0  0  0  0  0  0  0
   48.3170   35.0050   41.8230 C   0  0  1  0  0  3  0  0  0  0  0  0
   49.2360   35.8930   41.9660 O   0  0  0  0  0  1  0  0  0  0  0  0
   48.5240   34.0560   40.7300 C   0  0  0  0  0  0  0  0  0  0  0  0
   48.0550   34.3180   39.4800 C   0  0  0  0  0  0  0  0  0  0  0  0
   47.5290   35.2280   39.2850 H   0  0  0  0  0  0  0  0  0  0  0  0
   48.2600   33.4110   38.4580 C   0  0  0  0  0  0  0  0  0  0  0  0
   47.8850   33.6200   37.4550 H   0  0  0  0  0  0  0  0  0  0  0  0
   48.9350   32.2210   38.6620 C   0  0  0  0  0  3  0  0  0  0  0  0
   49.3720   32.0380   39.9530 C   0  0  0  0  0  3  0  0  0  0  0  0
   49.1980   32.8970   40.9930 N   0  0  0  0  0  0  0  0  0  0  0  0
  1  6  1  0  0  0  0
  2  1  2  0  0  0  0
  2  3  1  0  0  0  0
  3  4  2  0  0  0  0
  4  5  1  0  0  0  0
  5 10  1  0  0  0  0
  6  5  2  0  0  0  0
  7  2  1  0  0  0  0
  8  3  1  0  0  0  0
  9 10  2  0  0  0  0
  9 17  1  0  0  0  0
 10 11  1  0  0  0  0
 11 19  1  0  0  0  0
 11 12  2  0  0  0  0
 12 13  1  0  0  0  0
 13 14  1  0  0  0  0
 13 20  1  0  0  0  0
 14 21  1  0  0  0  0
 15 14  2  0  0  0  0
 16 12  1  0  0  0  0
 16 15  1  0  0  0  0
 17 16  2  0  0  0  0
 18  9  1  0  0  0  0
 22 15  1  0  0  0  0
 23 17  1  0  0  0  0
 24 25  1  1  0  0  0
 24  1  1  0  0  0  0
 26 33  1  0  0  0  0
 26 24  1  0  0  0  0
 27 26  2  0  0  0  0
 28 27  1  0  0  0  0
 29 31  2  0  0  0  0
 29 27  1  0  0  0  0
 30 29  1  0  0  0  0
 31 32  1  0  0  0  0
 32 33  2  0  0  0  0
M  END
>  <minimizedAffinity>
-6.17796946

>  <minimizedRMSD>
0.413300902

$$$$
