
 OpenBabel03242521453D

 37 39  0  0  1  0  0  0  0  0999 V2000
   38.8990   31.1150   41.5730 C   0  0  0  0  0  0  0  0  0  0  0  0
   39.8490   31.8500   40.8440 C   0  0  0  0  0  0  0  0  0  0  0  0
   39.4320   32.5590   39.7050 C   0  0  0  0  0  0  0  0  0  0  0  0
   38.1440   32.4940   39.3780 N   0  0  0  0  0  0  0  0  0  0  0  0
   37.2430   31.7830   40.0920 C   0  0  0  0  0  0  0  0  0  0  0  0
   37.6150   31.0880   41.1950 N   0  0  0  0  0  0  0  0  0  0  0  0
   40.8650   31.8250   41.2110 H   0  0  0  0  0  0  0  0  0  0  0  0
   36.1970   31.7390   39.8130 H   0  0  0  0  0  0  0  0  0  0  0  0
   41.0110   32.6310   37.7870 C   0  0  2  0  0  0  0  0  0  0  0  0
   40.4590   33.3010   38.9960 C   0  0  2  0  0  0  0  0  0  0  0  0
   41.6480   33.5190   39.7500 O   0  0  0  0  0  0  0  0  0  0  0  0
   42.4640   34.1330   38.8160 C   0  0  0  0  0  0  0  0  0  0  0  0
   42.1140   33.6560   37.4480 C   0  0  1  0  0  0  0  0  0  0  0  0
   41.5920   31.7040   38.0320 H   0  0  0  0  0  0  0  0  0  0  0  0
   40.0380   34.2900   38.6980 H   0  0  0  0  0  0  0  0  0  0  0  0
   43.5300   34.0210   39.0730 H   0  0  0  0  0  0  0  0  0  0  0  0
   42.2330   35.2270   38.8570 H   0  0  0  0  0  0  0  0  0  0  0  0
   41.6970   34.4210   36.7720 H   0  0  0  0  0  0  0  0  0  0  0  0
   40.1170   32.4330   36.7810 O   0  0  0  0  0  0  0  0  0  0  0  0
   39.1880   32.5220   37.1170 H   0  0  0  0  0  0  0  0  0  0  0  0
   43.1430   33.0060   36.7770 O   0  0  0  0  0  0  0  0  0  0  0  0
   42.8930   32.9440   35.8330 H   0  0  0  0  0  0  0  0  0  0  0  0
   39.3630   30.3530   42.7830 C   0  0  0  0  0  0  0  0  0  0  0  0
   38.7280   30.6000   43.6700 H   0  0  0  0  0  0  0  0  0  0  0  0
   40.4040   30.5940   42.9950 H   0  0  0  0  0  0  0  0  0  0  0  0
   38.1680   28.0830   43.0650 C   0  0  0  0  0  0  0  0  0  0  0  0
   37.3580   28.6290   43.8670 O   0  0  0  0  0  0  0  0  0  0  0  0
   39.1380   28.9490   42.5030 N   0  0  0  0  0  0  0  0  0  0  0  0
   39.7910   28.5210   41.7810 H   0  0  0  0  0  0  0  0  0  0  0  0
   38.1440   26.6660   42.7120 C   0  0  0  0  0  0  0  0  0  0  0  0
   36.9790   26.1020   42.2790 C   0  0  0  0  0  0  0  0  0  0  0  0
   36.0630   26.6320   42.1760 H   0  0  0  0  0  0  0  0  0  0  0  0
   37.0420   24.7430   41.9620 C   0  0  0  0  0  0  0  0  0  0  0  0
   36.1380   24.2660   41.6160 H   0  0  0  0  0  0  0  0  0  0  0  0
   38.1930   23.9620   42.0640 C   0  0  0  0  0  3  0  0  0  0  0  0
   39.3100   24.6220   42.5080 C   0  0  0  0  0  3  0  0  0  0  0  0
   39.2870   25.9260   42.8220 N   0  0  0  0  0  0  0  0  0  0  0  0
  1 23  1  0  0  0  0
  2  7  1  0  0  0  0
  2  1  2  0  0  0  0
  3  2  1  0  0  0  0
  4  3  2  0  0  0  0
  4  5  1  0  0  0  0
  5  6  2  0  0  0  0
  6  1  1  0  0  0  0
  8  5  1  0  0  0  0
  9 14  1  1  0  0  0
  9 10  1  0  0  0  0
 10 15  1  6  0  0  0
 10  3  1  0  0  0  0
 10 11  1  0  0  0  0
 12 17  1  0  0  0  0
 12 16  1  0  0  0  0
 12 11  1  0  0  0  0
 13 18  1  6  0  0  0
 13  9  1  0  0  0  0
 13 12  1  0  0  0  0
 19 20  1  0  0  0  0
 19  9  1  0  0  0  0
 21 13  1  0  0  0  0
 22 21  1  0  0  0  0
 23 25  1  0  0  0  0
 23 24  1  0  0  0  0
 26 27  2  0  0  0  0
 28 23  1  0  0  0  0
 28 26  1  0  0  0  0
 29 28  1  0  0  0  0
 30 37  1  0  0  0  0
 30 26  1  0  0  0  0
 31 30  2  0  0  0  0
 32 31  1  0  0  0  0
 33 35  2  0  0  0  0
 33 31  1  0  0  0  0
 34 33  1  0  0  0  0
 35 36  1  0  0  0  0
 36 37  2  0  0  0  0
M  END
>  <minimizedAffinity>
-6.27057171

$$$$

 OpenBabel03242521453D

 37 39  0  0  1  0  0  0  0  0999 V2000
   38.5010   32.6260   39.1650 C   0  0  0  0  0  0  0  0  0  0  0  0
   39.8450   32.4250   38.8110 C   0  0  0  0  0  0  0  0  0  0  0  0
   40.8120   33.3390   39.2620 C   0  0  0  0  0  0  0  0  0  0  0  0
   40.3940   34.3580   40.0080 N   0  0  0  0  0  0  0  0  0  0  0  0
   39.0950   34.5360   40.3410 C   0  0  0  0  0  0  0  0  0  0  0  0
   38.1410   33.6710   39.9210 N   0  0  0  0  0  0  0  0  0  0  0  0
   40.0600   31.5590   38.2000 H   0  0  0  0  0  0  0  0  0  0  0  0
   38.7700   35.3700   40.9500 H   0  0  0  0  0  0  0  0  0  0  0  0
   42.4200   32.9880   37.3980 C   0  0  2  0  0  0  0  0  0  0  0  0
   42.1840   33.0760   38.8650 C   0  0  2  0  0  0  0  0  0  0  0  0
   42.6830   31.8110   39.2940 O   0  0  0  0  0  0  0  0  0  0  0  0
   43.9330   31.7870   38.7000 C   0  0  0  0  0  0  0  0  0  0  0  0
   43.9060   32.5760   37.4350 C   0  0  1  0  0  0  0  0  0  0  0  0
   41.9200   32.1000   36.9310 H   0  0  0  0  0  0  0  0  0  0  0  0
   42.8340   33.8780   39.2870 H   0  0  0  0  0  0  0  0  0  0  0  0
   44.3050   30.7560   38.5800 H   0  0  0  0  0  0  0  0  0  0  0  0
   44.6330   32.3060   39.4020 H   0  0  0  0  0  0  0  0  0  0  0  0
   44.5310   33.4850   37.4300 H   0  0  0  0  0  0  0  0  0  0  0  0
   42.1850   34.1380   36.7100 O   0  0  0  0  0  0  0  0  0  0  0  0
   41.6410   34.7650   37.2530 H   0  0  0  0  0  0  0  0  0  0  0  0
   44.2010   31.8480   36.2890 O   0  0  0  0  0  0  0  0  0  0  0  0
   44.3820   32.4840   35.5680 H   0  0  0  0  0  0  0  0  0  0  0  0
   37.4780   31.6440   38.6660 C   0  0  0  0  0  0  0  0  0  0  0  0
   37.7560   31.2710   37.6490 H   0  0  0  0  0  0  0  0  0  0  0  0
   36.4980   32.1170   38.6320 H   0  0  0  0  0  0  0  0  0  0  0  0
   36.8180   30.2700   40.7490 C   0  0  0  0  0  0  0  0  0  0  0  0
   35.9720   31.1600   41.0460 O   0  0  0  0  0  0  0  0  0  0  0  0
   37.5370   30.4960   39.5490 N   0  0  0  0  0  0  0  0  0  0  0  0
   38.2110   29.7300   39.2510 H   0  0  0  0  0  0  0  0  0  0  0  0
   37.0710   29.0760   41.5520 C   0  0  0  0  0  0  0  0  0  0  0  0
   36.8260   27.8440   41.0170 C   0  0  0  0  0  0  0  0  0  0  0  0
   36.4560   27.6850   40.0330 H   0  0  0  0  0  0  0  0  0  0  0  0
   37.0950   26.7550   41.8500 C   0  0  0  0  0  0  0  0  0  0  0  0
   36.9130   25.7660   41.4580 H   0  0  0  0  0  0  0  0  0  0  0  0
   37.5810   26.8600   43.1530 C   0  0  0  0  0  3  0  0  0  0  0  0
   37.7940   28.1400   43.5960 C   0  0  0  0  0  3  0  0  0  0  0  0
   37.5480   29.2100   42.8240 N   0  0  0  0  0  0  0  0  0  0  0  0
  1  6  1  0  0  0  0
  2  1  2  0  0  0  0
  2  3  1  0  0  0  0
  3  4  2  0  0  0  0
  4  5  1  0  0  0  0
  5  8  1  0  0  0  0
  6  5  2  0  0  0  0
  7  2  1  0  0  0  0
  9 14  1  6  0  0  0
  9 13  1  0  0  0  0
  9 10  1  0  0  0  0
 10  3  1  0  0  0  0
 10 15  1  1  0  0  0
 10 11  1  0  0  0  0
 12 11  1  0  0  0  0
 12 17  1  0  0  0  0
 13 18  1  1  0  0  0
 13 12  1  0  0  0  0
 16 12  1  0  0  0  0
 19 20  1  0  0  0  0
 19  9  1  0  0  0  0
 21 13  1  0  0  0  0
 22 21  1  0  0  0  0
 23  1  1  0  0  0  0
 23 28  1  0  0  0  0
 24 23  1  0  0  0  0
 25 23  1  0  0  0  0
 26 27  2  0  0  0  0
 26 30  1  0  0  0  0
 28 26  1  0  0  0  0
 29 28  1  0  0  0  0
 30 37  1  0  0  0  0
 31 30  2  0  0  0  0
 31 33  1  0  0  0  0
 32 31  1  0  0  0  0
 33 35  2  0  0  0  0
 34 33  1  0  0  0  0
 35 36  1  0  0  0  0
 37 36  2  0  0  0  0
M  END
>  <minimizedAffinity>
-6.17827463

$$$$

 OpenBabel03242521453D

 37 39  0  0  1  0  0  0  0  0999 V2000
   36.2540   29.7450   39.5990 C   0  0  0  0  0  0  0  0  0  0  0  0
   37.2690   30.7000   39.7670 C   0  0  0  0  0  0  0  0  0  0  0  0
   37.9130   31.2170   38.6290 C   0  0  0  0  0  0  0  0  0  0  0  0
   37.5190   30.7650   37.4420 N   0  0  0  0  0  0  0  0  0  0  0  0
   36.5380   29.8440   37.2980 C   0  0  0  0  0  0  0  0  0  0  0  0
   35.9000   29.3290   38.3760 N   0  0  0  0  0  0  0  0  0  0  0  0
   37.4990   30.9880   40.7830 H   0  0  0  0  0  0  0  0  0  0  0  0
   36.2280   29.4860   36.3240 H   0  0  0  0  0  0  0  0  0  0  0  0
   40.1220   32.1340   37.9510 C   0  0  2  0  0  0  0  0  0  0  0  0
   38.9510   32.2030   38.8680 C   0  0  2  0  0  0  0  0  0  0  0  0
   39.5940   32.0790   40.1340 O   0  0  0  0  0  0  0  0  0  0  0  0
   40.5780   33.0480   40.0450 C   0  0  0  0  0  0  0  0  0  0  0  0
   40.9960   33.2140   38.6230 C   0  0  1  0  0  0  0  0  0  0  0  0
   40.7230   31.1980   38.0870 H   0  0  0  0  0  0  0  0  0  0  0  0
   38.4970   33.2190   38.7960 H   0  0  0  0  0  0  0  0  0  0  0  0
   41.4110   32.8440   40.7380 H   0  0  0  0  0  0  0  0  0  0  0  0
   40.1130   34.0120   40.3710 H   0  0  0  0  0  0  0  0  0  0  0  0
   40.7640   34.1940   38.1730 H   0  0  0  0  0  0  0  0  0  0  0  0
   39.8420   32.3880   36.6440 O   0  0  0  0  0  0  0  0  0  0  0  0
   38.8680   32.3130   36.4750 H   0  0  0  0  0  0  0  0  0  0  0  0
   42.3330   32.9320   38.3730 O   0  0  0  0  0  0  0  0  0  0  0  0
   42.5530   33.2860   37.4870 H   0  0  0  0  0  0  0  0  0  0  0  0
   35.5820   29.1950   40.8260 C   0  0  0  0  0  0  0  0  0  0  0  0
   34.5700   28.7910   40.5720 H   0  0  0  0  0  0  0  0  0  0  0  0
   35.4900   29.9760   41.5790 H   0  0  0  0  0  0  0  0  0  0  0  0
   37.2570   27.9740   42.3650 C   0  0  0  0  0  0  0  0  0  0  0  0
   37.3090   29.0040   43.0950 O   0  0  0  0  0  0  0  0  0  0  0  0
   36.3730   28.0600   41.2610 N   0  0  0  0  0  0  0  0  0  0  0  0
   36.2710   27.1840   40.6690 H   0  0  0  0  0  0  0  0  0  0  0  0
   38.0330   26.7600   42.6010 C   0  0  0  0  0  0  0  0  0  0  0  0
   37.6190   25.5820   42.0500 C   0  0  0  0  0  0  0  0  0  0  0  0
   36.7510   25.4800   41.4440 H   0  0  0  0  0  0  0  0  0  0  0  0
   38.4170   24.4680   42.3240 C   0  0  0  0  0  0  0  0  0  0  0  0
   38.1190   23.5210   41.9020 H   0  0  0  0  0  0  0  0  0  0  0  0
   39.5720   24.4990   43.1050 C   0  0  0  0  0  3  0  0  0  0  0  0
   39.9020   25.7290   43.6120 C   0  0  0  0  0  3  0  0  0  0  0  0
   39.1600   26.8210   43.3700 N   0  0  0  0  0  0  0  0  0  0  0  0
  1  2  1  0  0  0  0
  1 23  1  0  0  0  0
  2  7  1  0  0  0  0
  3 10  1  0  0  0  0
  3  2  2  0  0  0  0
  4  3  1  0  0  0  0
  5  4  2  0  0  0  0
  5  6  1  0  0  0  0
  6  1  2  0  0  0  0
  8  5  1  0  0  0  0
  9 14  1  1  0  0  0
  9 13  1  0  0  0  0
  9 10  1  0  0  0  0
 10 15  1  6  0  0  0
 10 11  1  0  0  0  0
 12 11  1  0  0  0  0
 12 17  1  0  0  0  0
 12 16  1  0  0  0  0
 13 18  1  6  0  0  0
 13 12  1  0  0  0  0
 19  9  1  0  0  0  0
 20 19  1  0  0  0  0
 21 13  1  0  0  0  0
 22 21  1  0  0  0  0
 23 28  1  0  0  0  0
 23 25  1  0  0  0  0
 24 23  1  0  0  0  0
 26 30  1  0  0  0  0
 26 27  2  0  0  0  0
 28 26  1  0  0  0  0
 29 28  1  0  0  0  0
 30 37  1  0  0  0  0
 31 33  1  0  0  0  0
 31 30  2  0  0  0  0
 32 31  1  0  0  0  0
 33 35  2  0  0  0  0
 34 33  1  0  0  0  0
 35 36  1  0  0  0  0
 37 36  2  0  0  0  0
M  END
>  <minimizedAffinity>
-5.96715212

$$$$

 OpenBabel03242521453D

 37 39  0  0  1  0  0  0  0  0999 V2000
   40.1550   33.3780   40.2790 C   0  0  0  0  0  0  0  0  0  0  0  0
   39.6210   32.0850   40.3990 C   0  0  0  0  0  0  0  0  0  0  0  0
   38.2330   31.9070   40.2680 C   0  0  0  0  0  0  0  0  0  0  0  0
   37.4940   32.9880   40.0350 N   0  0  0  0  0  0  0  0  0  0  0  0
   38.0250   34.2260   39.9210 C   0  0  0  0  0  0  0  0  0  0  0  0
   39.3600   34.4290   40.0420 N   0  0  0  0  0  0  0  0  0  0  0  0
   40.3250   31.2870   40.5880 H   0  0  0  0  0  0  0  0  0  0  0  0
   37.4100   35.0980   39.7310 H   0  0  0  0  0  0  0  0  0  0  0  0
   36.7600   30.3250   41.4960 C   0  0  2  0  0  0  0  0  0  0  0  0
   37.7430   30.5470   40.4010 C   0  0  2  0  0  0  0  0  0  0  0  0
   38.7460   29.5940   40.7420 O   0  0  0  0  0  0  0  0  0  0  0  0
   37.9970   28.4420   40.9020 C   0  0  0  0  0  0  0  0  0  0  0  0
   36.6250   28.7930   41.3680 C   0  0  1  0  0  0  0  0  0  0  0  0
   37.2100   30.4570   42.5150 H   0  0  0  0  0  0  0  0  0  0  0  0
   37.2770   30.2440   39.4330 H   0  0  0  0  0  0  0  0  0  0  0  0
   38.5150   27.7070   41.5410 H   0  0  0  0  0  0  0  0  0  0  0  0
   37.8970   27.9790   39.8890 H   0  0  0  0  0  0  0  0  0  0  0  0
   35.8110   28.5630   40.6600 H   0  0  0  0  0  0  0  0  0  0  0  0
   35.5840   30.9940   41.3570 O   0  0  0  0  0  0  0  0  0  0  0  0
   35.6750   31.7250   40.6930 H   0  0  0  0  0  0  0  0  0  0  0  0
   36.2780   28.2650   42.6060 O   0  0  0  0  0  0  0  0  0  0  0  0
   35.3090   28.3560   42.7090 H   0  0  0  0  0  0  0  0  0  0  0  0
   41.6400   33.5530   40.4310 C   0  0  0  0  0  0  0  0  0  0  0  0
   41.9800   33.1730   41.4260 H   0  0  0  0  0  0  0  0  0  0  0  0
   41.9010   34.6050   40.3280 H   0  0  0  0  0  0  0  0  0  0  0  0
   42.6160   33.0170   38.1020 C   0  0  0  0  0  0  0  0  0  0  0  0
   42.4130   34.2160   37.7600 O   0  0  0  0  0  0  0  0  0  0  0  0
   42.2640   32.7010   39.4380 N   0  0  0  0  0  0  0  0  0  0  0  0
   42.4820   31.7130   39.7620 H   0  0  0  0  0  0  0  0  0  0  0  0
   43.1700   31.9940   37.2190 C   0  0  0  0  0  0  0  0  0  0  0  0
   42.3490   31.0260   36.7160 C   0  0  0  0  0  0  0  0  0  0  0  0
   41.3080   30.9610   36.9240 H   0  0  0  0  0  0  0  0  0  0  0  0
   42.9570   30.0860   35.8800 C   0  0  0  0  0  0  0  0  0  0  0  0
   42.3360   29.3080   35.4650 H   0  0  0  0  0  0  0  0  0  0  0  0
   44.3110   30.0870   35.5470 C   0  0  0  0  0  3  0  0  0  0  0  0
   45.0490   31.1000   36.1030 C   0  0  0  0  0  3  0  0  0  0  0  0
   44.5000   32.0200   36.9100 N   0  0  0  0  0  0  0  0  0  0  0  0
  1  2  1  0  0  0  0
  1 23  1  0  0  0  0
  2  7  1  0  0  0  0
  3  2  2  0  0  0  0
  3 10  1  0  0  0  0
  4  3  1  0  0  0  0
  5  4  2  0  0  0  0
  5  6  1  0  0  0  0
  6  1  2  0  0  0  0
  8  5  1  0  0  0  0
  9 14  1  1  0  0  0
 10 15  1  6  0  0  0
 10 11  1  0  0  0  0
 10  9  1  0  0  0  0
 11 12  1  0  0  0  0
 12 13  1  0  0  0  0
 12 16  1  0  0  0  0
 13 18  1  6  0  0  0
 13  9  1  0  0  0  0
 13 21  1  0  0  0  0
 17 12  1  0  0  0  0
 19  9  1  0  0  0  0
 20 19  1  0  0  0  0
 21 22  1  0  0  0  0
 23 24  1  0  0  0  0
 25 23  1  0  0  0  0
 26 28  1  0  0  0  0
 27 26  2  0  0  0  0
 28 29  1  0  0  0  0
 28 23  1  0  0  0  0
 30 26  1  0  0  0  0
 31 32  1  0  0  0  0
 31 30  2  0  0  0  0
 33 31  1  0  0  0  0
 34 33  1  0  0  0  0
 35 33  2  0  0  0  0
 35 36  1  0  0  0  0
 36 37  2  0  0  0  0
 37 30  1  0  0  0  0
M  END
>  <minimizedAffinity>
-5.93122625

$$$$

 OpenBabel03242521453D

 37 39  0  0  1  0  0  0  0  0999 V2000
   36.8580   28.5470   42.0750 C   0  0  0  0  0  0  0  0  0  0  0  0
   37.7600   29.6230   42.0290 C   0  0  0  0  0  0  0  0  0  0  0  0
   37.5220   30.6730   41.1260 C   0  0  0  0  0  0  0  0  0  0  0  0
   36.4420   30.5870   40.3550 N   0  0  0  0  0  0  0  0  0  0  0  0
   35.5830   29.5440   40.4120 C   0  0  0  0  0  0  0  0  0  0  0  0
   35.7870   28.5170   41.2730 N   0  0  0  0  0  0  0  0  0  0  0  0
   38.6010   29.5780   42.7070 H   0  0  0  0  0  0  0  0  0  0  0  0
   34.7070   29.4880   39.7780 H   0  0  0  0  0  0  0  0  0  0  0  0
   38.2760   32.8050   40.0940 C   0  0  2  0  0  0  0  0  0  0  0  0
   38.4890   31.7570   41.1280 C   0  0  2  0  0  0  0  0  0  0  0  0
   39.8220   31.3510   40.8300 O   0  0  0  0  0  0  0  0  0  0  0  0
   40.4840   32.5650   40.7960 C   0  0  0  0  0  0  0  0  0  0  0  0
   39.5470   33.6390   40.3560 C   0  0  1  0  0  0  0  0  0  0  0  0
   38.4310   32.4230   39.0510 H   0  0  0  0  0  0  0  0  0  0  0  0
   38.4780   32.2370   42.1350 H   0  0  0  0  0  0  0  0  0  0  0  0
   41.4110   32.5050   40.2030 H   0  0  0  0  0  0  0  0  0  0  0  0
   40.7860   32.7970   41.8480 H   0  0  0  0  0  0  0  0  0  0  0  0
   39.3220   34.4100   41.1110 H   0  0  0  0  0  0  0  0  0  0  0  0
   37.1200   33.5110   40.2210 O   0  0  0  0  0  0  0  0  0  0  0  0
   36.4850   33.0360   40.8170 H   0  0  0  0  0  0  0  0  0  0  0  0
   39.9140   34.2850   39.1810 O   0  0  0  0  0  0  0  0  0  0  0  0
   39.3780   35.1010   39.1080 H   0  0  0  0  0  0  0  0  0  0  0  0
   37.1320   27.4270   43.0390 C   0  0  0  0  0  0  0  0  0  0  0  0
   36.3580   27.4060   43.8460 H   0  0  0  0  0  0  0  0  0  0  0  0
   38.1210   27.5510   43.4780 H   0  0  0  0  0  0  0  0  0  0  0  0
   37.9820   25.3900   41.7000 C   0  0  0  0  0  0  0  0  0  0  0  0
   39.1680   25.7780   41.8980 O   0  0  0  0  0  0  0  0  0  0  0  0
   36.9770   26.1910   42.2970 N   0  0  0  0  0  0  0  0  0  0  0  0
   35.9760   25.8490   42.1930 H   0  0  0  0  0  0  0  0  0  0  0  0
   37.6230   24.2090   40.9190 C   0  0  0  0  0  0  0  0  0  0  0  0
   36.4100   24.1620   40.2950 C   0  0  0  0  0  0  0  0  0  0  0  0
   35.6880   24.9430   40.3350 H   0  0  0  0  0  0  0  0  0  0  0  0
   36.1440   22.9990   39.5690 C   0  0  0  0  0  0  0  0  0  0  0  0
   35.1940   22.9290   39.0620 H   0  0  0  0  0  0  0  0  0  0  0  0
   37.0240   21.9220   39.4560 C   0  0  0  0  0  3  0  0  0  0  0  0
   38.2150   22.0680   40.1190 C   0  0  0  0  0  3  0  0  0  0  0  0
   38.5050   23.1710   40.8260 N   0  0  0  0  0  0  0  0  0  0  0  0
  1 23  1  0  0  0  0
  2  1  1  0  0  0  0
  2  7  1  0  0  0  0
  3 10  1  0  0  0  0
  3  2  2  0  0  0  0
  4  5  2  0  0  0  0
  4  3  1  0  0  0  0
  5  6  1  0  0  0  0
  6  1  2  0  0  0  0
  8  5  1  0  0  0  0
  9 14  1  6  0  0  0
  9 19  1  0  0  0  0
  9 13  1  0  0  0  0
  9 10  1  0  0  0  0
 10 15  1  1  0  0  0
 11 10  1  0  0  0  0
 12 11  1  0  0  0  0
 12 17  1  0  0  0  0
 13 12  1  0  0  0  0
 13 18  1  1  0  0  0
 16 12  1  0  0  0  0
 19 20  1  0  0  0  0
 21 13  1  0  0  0  0
 22 21  1  0  0  0  0
 23 25  1  0  0  0  0
 23 24  1  0  0  0  0
 26 27  2  0  0  0  0
 26 28  1  0  0  0  0
 28 23  1  0  0  0  0
 29 28  1  0  0  0  0
 30 26  1  0  0  0  0
 31 32  1  0  0  0  0
 31 30  2  0  0  0  0
 33 31  1  0  0  0  0
 34 33  1  0  0  0  0
 35 33  2  0  0  0  0
 35 36  1  0  0  0  0
 36 37  2  0  0  0  0
 37 30  1  0  0  0  0
M  END
>  <minimizedAffinity>
-5.79650927

$$$$

 OpenBabel03242521453D

 37 39  0  0  1  0  0  0  0  0999 V2000
   35.3670   27.7820   37.6640 C   0  0  0  0  0  0  0  0  0  0  0  0
   35.9810   28.9390   38.1700 C   0  0  0  0  0  0  0  0  0  0  0  0
   36.8210   28.8290   39.2910 C   0  0  0  0  0  0  0  0  0  0  0  0
   36.9900   27.6180   39.8160 N   0  0  0  0  0  0  0  0  0  0  0  0
   36.3920   26.5130   39.3140 C   0  0  0  0  0  0  0  0  0  0  0  0
   35.5770   26.5890   38.2340 N   0  0  0  0  0  0  0  0  0  0  0  0
   35.7660   29.8650   37.6560 H   0  0  0  0  0  0  0  0  0  0  0  0
   36.5390   25.5340   39.7520 H   0  0  0  0  0  0  0  0  0  0  0  0
   36.4760   31.1550   40.0960 C   0  0  2  0  0  0  0  0  0  0  0  0
   37.4270   30.0590   39.7660 C   0  0  2  0  0  0  0  0  0  0  0  0
   38.2620   30.7060   38.8100 O   0  0  0  0  0  0  0  0  0  0  0  0
   38.6050   31.8690   39.4770 C   0  0  0  0  0  0  0  0  0  0  0  0
   37.5070   32.2610   40.4070 C   0  0  1  0  0  0  0  0  0  0  0  0
   35.9410   31.5510   39.1940 H   0  0  0  0  0  0  0  0  0  0  0  0
   38.0360   29.8260   40.6720 H   0  0  0  0  0  0  0  0  0  0  0  0
   38.9070   32.6650   38.7760 H   0  0  0  0  0  0  0  0  0  0  0  0
   39.5010   31.6290   40.1020 H   0  0  0  0  0  0  0  0  0  0  0  0
   37.7590   32.2250   41.4800 H   0  0  0  0  0  0  0  0  0  0  0  0
   35.6290   30.8890   41.1270 O   0  0  0  0  0  0  0  0  0  0  0  0
   35.6010   29.9150   41.3130 H   0  0  0  0  0  0  0  0  0  0  0  0
   36.9350   33.4990   40.1420 O   0  0  0  0  0  0  0  0  0  0  0  0
   36.4040   33.7560   40.9230 H   0  0  0  0  0  0  0  0  0  0  0  0
   34.4640   27.9180   36.4700 C   0  0  0  0  0  0  0  0  0  0  0  0
   34.0800   26.9170   36.1520 H   0  0  0  0  0  0  0  0  0  0  0  0
   35.0040   28.3850   35.6480 H   0  0  0  0  0  0  0  0  0  0  0  0
   32.4450   29.4920   36.1350 C   0  0  0  0  0  0  0  0  0  0  0  0
   32.6870   29.5080   34.8950 O   0  0  0  0  0  0  0  0  0  0  0  0
   33.3070   28.6750   36.9080 N   0  0  0  0  0  0  0  0  0  0  0  0
   33.0840   28.6020   37.9440 H   0  0  0  0  0  0  0  0  0  0  0  0
   31.3680   30.2450   36.7720 C   0  0  0  0  0  0  0  0  0  0  0  0
   30.8990   31.3790   36.1740 C   0  0  0  0  0  0  0  0  0  0  0  0
   31.2690   31.7650   35.2550 H   0  0  0  0  0  0  0  0  0  0  0  0
   29.8690   32.0410   36.8470 C   0  0  0  0  0  0  0  0  0  0  0  0
   29.4740   32.9410   36.4020 H   0  0  0  0  0  0  0  0  0  0  0  0
   29.3170   31.6160   38.0560 C   0  0  0  0  0  3  0  0  0  0  0  0
   29.8570   30.4670   38.5730 C   0  0  0  0  0  3  0  0  0  0  0  0
   30.8470   29.8050   37.9550 N   0  0  0  0  0  0  0  0  0  0  0  0
  1  2  2  0  0  0  0
  1  6  1  0  0  0  0
  2  3  1  0  0  0  0
  3 10  1  0  0  0  0
  3  4  2  0  0  0  0
  5  8  1  0  0  0  0
  5  4  1  0  0  0  0
  6  5  2  0  0  0  0
  7  2  1  0  0  0  0
  9 14  1  6  0  0  0
  9 13  1  0  0  0  0
  9 19  1  0  0  0  0
 10  9  1  0  0  0  0
 10 15  1  1  0  0  0
 11 12  1  0  0  0  0
 11 10  1  0  0  0  0
 12 17  1  0  0  0  0
 12 13  1  0  0  0  0
 13 18  1  1  0  0  0
 16 12  1  0  0  0  0
 19 20  1  0  0  0  0
 21 13  1  0  0  0  0
 21 22  1  0  0  0  0
 23 28  1  0  0  0  0
 23  1  1  0  0  0  0
 24 23  1  0  0  0  0
 25 23  1  0  0  0  0
 26 30  1  0  0  0  0
 26 28  1  0  0  0  0
 27 26  2  0  0  0  0
 28 29  1  0  0  0  0
 30 37  1  0  0  0  0
 31 30  2  0  0  0  0
 31 33  1  0  0  0  0
 32 31  1  0  0  0  0
 33 35  2  0  0  0  0
 34 33  1  0  0  0  0
 35 36  1  0  0  0  0
 37 36  2  0  0  0  0
M  END
>  <minimizedAffinity>
-5.7857933

$$$$

 OpenBabel03242521453D

 37 39  0  0  1  0  0  0  0  0999 V2000
   37.8160   30.6800   41.1660 C   0  0  0  0  0  0  0  0  0  0  0  0
   39.0710   30.6950   40.5360 C   0  0  0  0  0  0  0  0  0  0  0  0
   39.3000   31.6150   39.4990 C   0  0  0  0  0  0  0  0  0  0  0  0
   38.3020   32.4290   39.1670 N   0  0  0  0  0  0  0  0  0  0  0  0
   37.0990   32.4020   39.7860 C   0  0  0  0  0  0  0  0  0  0  0  0
   36.8490   31.5270   40.7890 N   0  0  0  0  0  0  0  0  0  0  0  0
   39.8010   29.9840   40.8960 H   0  0  0  0  0  0  0  0  0  0  0  0
   36.2960   33.0720   39.5050 H   0  0  0  0  0  0  0  0  0  0  0  0
   40.6340   31.4190   37.4090 C   0  0  2  0  0  0  0  0  0  0  0  0
   40.6170   31.5830   38.8890 C   0  0  2  0  0  0  0  0  0  0  0  0
   41.4210   30.4770   39.2910 O   0  0  0  0  0  0  0  0  0  0  0  0
   42.5410   30.6400   38.4960 C   0  0  0  0  0  0  0  0  0  0  0  0
   42.1600   31.3000   37.2140 C   0  0  1  0  0  0  0  0  0  0  0  0
   40.2560   30.4160   37.0810 H   0  0  0  0  0  0  0  0  0  0  0  0
   41.1510   32.5270   39.1520 H   0  0  0  0  0  0  0  0  0  0  0  0
   43.0890   29.6920   38.3680 H   0  0  0  0  0  0  0  0  0  0  0  0
   43.2240   31.3390   39.0410 H   0  0  0  0  0  0  0  0  0  0  0  0
   42.5800   32.3070   37.0570 H   0  0  0  0  0  0  0  0  0  0  0  0
   40.0680   32.4410   36.7120 O   0  0  0  0  0  0  0  0  0  0  0  0
   39.5020   32.9970   37.3060 H   0  0  0  0  0  0  0  0  0  0  0  0
   42.4120   30.5470   36.0740 O   0  0  0  0  0  0  0  0  0  0  0  0
   42.3460   31.1430   35.3010 H   0  0  0  0  0  0  0  0  0  0  0  0
   37.5830   29.6840   42.2680 C   0  0  0  0  0  0  0  0  0  0  0  0
   36.6020   29.8760   42.7690 H   0  0  0  0  0  0  0  0  0  0  0  0
   38.3890   29.7440   42.9970 H   0  0  0  0  0  0  0  0  0  0  0  0
   36.9720   27.1770   42.1890 C   0  0  0  0  0  0  0  0  0  0  0  0
   36.5170   27.2700   43.3650 O   0  0  0  0  0  0  0  0  0  0  0  0
   37.4670   28.3840   41.6360 N   0  0  0  0  0  0  0  0  0  0  0  0
   37.7990   28.3400   40.6280 H   0  0  0  0  0  0  0  0  0  0  0  0
   37.0060   25.9380   41.4170 C   0  0  0  0  0  0  0  0  0  0  0  0
   37.3440   24.7700   42.0390 C   0  0  0  0  0  0  0  0  0  0  0  0
   37.5900   24.6940   43.0710 H   0  0  0  0  0  0  0  0  0  0  0  0
   37.3530   23.6310   41.2300 C   0  0  0  0  0  0  0  0  0  0  0  0
   37.6160   22.6910   41.6900 H   0  0  0  0  0  0  0  0  0  0  0  0
   37.0470   23.6280   39.8690 C   0  0  0  0  0  3  0  0  0  0  0  0
   36.7200   24.8500   39.3410 C   0  0  0  0  0  3  0  0  0  0  0  0
   36.7010   25.9650   40.0870 N   0  0  0  0  0  0  0  0  0  0  0  0
  1 23  1  0  0  0  0
  2  7  1  0  0  0  0
  2  1  2  0  0  0  0
  3  2  1  0  0  0  0
  4  3  2  0  0  0  0
  4  5  1  0  0  0  0
  5  6  2  0  0  0  0
  6  1  1  0  0  0  0
  8  5  1  0  0  0  0
  9 14  1  6  0  0  0
  9 10  1  0  0  0  0
 10 15  1  1  0  0  0
 10 11  1  0  0  0  0
 10  3  1  0  0  0  0
 12 17  1  0  0  0  0
 12 11  1  0  0  0  0
 13 18  1  6  0  0  0
 13  9  1  0  0  0  0
 13 12  1  0  0  0  0
 16 12  1  0  0  0  0
 19 20  1  0  0  0  0
 19  9  1  0  0  0  0
 21 13  1  0  0  0  0
 22 21  1  0  0  0  0
 23 24  1  0  0  0  0
 23 25  1  0  0  0  0
 26 27  2  0  0  0  0
 28 26  1  0  0  0  0
 28 23  1  0  0  0  0
 29 28  1  0  0  0  0
 30 31  1  0  0  0  0
 30 26  1  0  0  0  0
 31 32  1  0  0  0  0
 33 34  1  0  0  0  0
 33 31  2  0  0  0  0
 35 33  1  0  0  0  0
 36 35  2  0  0  0  0
 36 37  1  0  0  0  0
 37 30  2  0  0  0  0
M  END
>  <minimizedAffinity>
-5.62026501

$$$$

 OpenBabel03242521453D

 37 39  0  0  1  0  0  0  0  0999 V2000
   36.7510   28.9410   41.6360 C   0  0  0  0  0  0  0  0  0  0  0  0
   36.5820   27.6050   41.2400 C   0  0  0  0  0  0  0  0  0  0  0  0
   37.2540   26.5950   41.9500 C   0  0  0  0  0  0  0  0  0  0  0  0
   38.0220   26.9670   42.9700 N   0  0  0  0  0  0  0  0  0  0  0  0
   38.1730   28.2590   43.3380 C   0  0  0  0  0  0  0  0  0  0  0  0
   37.5380   29.2550   42.6730 N   0  0  0  0  0  0  0  0  0  0  0  0
   35.9310   27.4290   40.3950 H   0  0  0  0  0  0  0  0  0  0  0  0
   38.8010   28.5470   44.1720 H   0  0  0  0  0  0  0  0  0  0  0  0
   38.2390   24.3560   41.5050 C   0  0  2  0  0  0  0  0  0  0  0  0
   37.0370   25.2330   41.4940 C   0  0  2  0  0  0  0  0  0  0  0  0
   36.6410   25.1310   40.1290 O   0  0  0  0  0  0  0  0  0  0  0  0
   36.6130   23.7590   39.9470 C   0  0  0  0  0  0  0  0  0  0  0  0
   37.6130   23.1100   40.8430 C   0  0  1  0  0  0  0  0  0  0  0  0
   39.0150   24.6760   40.7620 H   0  0  0  0  0  0  0  0  0  0  0  0
   36.2470   24.7690   42.1310 H   0  0  0  0  0  0  0  0  0  0  0  0
   36.7190   23.4890   38.8830 H   0  0  0  0  0  0  0  0  0  0  0  0
   35.6000   23.4120   40.2710 H   0  0  0  0  0  0  0  0  0  0  0  0
   37.1930   22.4600   41.6290 H   0  0  0  0  0  0  0  0  0  0  0  0
   38.7650   24.1180   42.7370 O   0  0  0  0  0  0  0  0  0  0  0  0
   38.4270   24.7790   43.3940 H   0  0  0  0  0  0  0  0  0  0  0  0
   38.6090   22.3990   40.1850 O   0  0  0  0  0  0  0  0  0  0  0  0
   39.0620   21.8370   40.8460 H   0  0  0  0  0  0  0  0  0  0  0  0
   36.0340   30.0110   40.8600 C   0  0  0  0  0  0  0  0  0  0  0  0
   35.1830   30.4240   41.4570 H   0  0  0  0  0  0  0  0  0  0  0  0
   35.6640   29.6020   39.9220 H   0  0  0  0  0  0  0  0  0  0  0  0
   37.9100   31.3000   39.6420 C   0  0  0  0  0  0  0  0  0  0  0  0
   37.8700   30.4450   38.7130 O   0  0  0  0  0  0  0  0  0  0  0  0
   36.9740   31.1010   40.6880 N   0  0  0  0  0  0  0  0  0  0  0  0
   36.9520   31.8430   41.4490 H   0  0  0  0  0  0  0  0  0  0  0  0
   38.8360   32.4290   39.6800 C   0  0  0  0  0  0  0  0  0  0  0  0
   38.5850   33.4740   40.5220 C   0  0  0  0  0  0  0  0  0  0  0  0
   37.7430   33.5280   41.1700 H   0  0  0  0  0  0  0  0  0  0  0  0
   39.5190   34.5130   40.4980 C   0  0  0  0  0  0  0  0  0  0  0  0
   39.3500   35.3540   41.1520 H   0  0  0  0  0  0  0  0  0  0  0  0
   40.6520   34.5350   39.6850 C   0  0  0  0  0  3  0  0  0  0  0  0
   40.8130   33.4400   38.8770 C   0  0  0  0  0  3  0  0  0  0  0  0
   39.9370   32.4230   38.8730 N   0  0  0  0  0  0  0  0  0  0  0  0
  1  6  1  0  0  0  0
  2  1  2  0  0  0  0
  2  3  1  0  0  0  0
  3  4  2  0  0  0  0
  4  5  1  0  0  0  0
  5  8  1  0  0  0  0
  6  5  2  0  0  0  0
  7  2  1  0  0  0  0
  9 14  1  6  0  0  0
  9 19  1  0  0  0  0
 10  9  1  0  0  0  0
 10  3  1  0  0  0  0
 10 15  1  1  0  0  0
 11 10  1  0  0  0  0
 12 11  1  0  0  0  0
 12 17  1  0  0  0  0
 12 13  1  0  0  0  0
 13  9  1  0  0  0  0
 13 18  1  1  0  0  0
 16 12  1  0  0  0  0
 19 20  1  0  0  0  0
 21 13  1  0  0  0  0
 21 22  1  0  0  0  0
 23 24  1  0  0  0  0
 23  1  1  0  0  0  0
 25 23  1  0  0  0  0
 26 30  1  0  0  0  0
 26 28  1  0  0  0  0
 27 26  2  0  0  0  0
 28 23  1  0  0  0  0
 28 29  1  0  0  0  0
 30 31  1  0  0  0  0
 31 32  1  0  0  0  0
 33 31  2  0  0  0  0
 33 34  1  0  0  0  0
 35 33  1  0  0  0  0
 36 35  2  0  0  0  0
 37 36  1  0  0  0  0
 37 30  2  0  0  0  0
M  END
>  <minimizedAffinity>
-5.56818867

$$$$

 OpenBabel03242521453D

 37 39  0  0  1  0  0  0  0  0999 V2000
   37.6790   31.6080   38.3030 C   0  0  0  0  0  0  0  0  0  0  0  0
   37.4280   30.3480   38.8720 C   0  0  0  0  0  0  0  0  0  0  0  0
   36.9450   30.2810   40.1900 C   0  0  0  0  0  0  0  0  0  0  0  0
   36.7510   31.4300   40.8330 N   0  0  0  0  0  0  0  0  0  0  0  0
   36.9980   32.6340   40.2690 C   0  0  0  0  0  0  0  0  0  0  0  0
   37.4640   32.7300   39.0010 N   0  0  0  0  0  0  0  0  0  0  0  0
   37.6240   29.4880   38.2480 H   0  0  0  0  0  0  0  0  0  0  0  0
   36.8350   33.5610   40.8050 H   0  0  0  0  0  0  0  0  0  0  0  0
   37.3690   28.6490   42.0160 C   0  0  2  0  0  0  0  0  0  0  0  0
   36.7020   28.9520   40.7210 C   0  0  2  0  0  0  0  0  0  0  0  0
   37.2050   27.8970   39.9050 O   0  0  0  0  0  0  0  0  0  0  0  0
   36.9350   26.7860   40.6860 C   0  0  0  0  0  0  0  0  0  0  0  0
   36.9730   27.1610   42.1290 C   0  0  1  0  0  0  0  0  0  0  0  0
   38.4860   28.6100   41.9300 H   0  0  0  0  0  0  0  0  0  0  0  0
   35.6010   28.8160   40.8420 H   0  0  0  0  0  0  0  0  0  0  0  0
   37.5890   25.9380   40.4230 H   0  0  0  0  0  0  0  0  0  0  0  0
   35.8870   26.4740   40.4500 H   0  0  0  0  0  0  0  0  0  0  0  0
   36.0120   27.0850   42.6630 H   0  0  0  0  0  0  0  0  0  0  0  0
   36.9550   29.4080   43.0670 O   0  0  0  0  0  0  0  0  0  0  0  0
   36.4760   30.2150   42.7460 H   0  0  0  0  0  0  0  0  0  0  0  0
   37.9350   26.4940   42.8780 O   0  0  0  0  0  0  0  0  0  0  0  0
   37.7270   26.6340   43.8240 H   0  0  0  0  0  0  0  0  0  0  0  0
   38.2050   31.6620   36.8960 C   0  0  0  0  0  0  0  0  0  0  0  0
   37.6080   32.3810   36.2820 H   0  0  0  0  0  0  0  0  0  0  0  0
   38.1660   30.6710   36.4480 H   0  0  0  0  0  0  0  0  0  0  0  0
   40.7540   31.5430   37.2850 C   0  0  0  0  0  0  0  0  0  0  0  0
   40.6520   30.2950   37.4560 O   0  0  0  0  0  0  0  0  0  0  0  0
   39.5450   32.2120   36.9730 N   0  0  0  0  0  0  0  0  0  0  0  0
   39.6200   33.2520   36.7670 H   0  0  0  0  0  0  0  0  0  0  0  0
   42.0070   32.2860   37.3920 C   0  0  0  0  0  0  0  0  0  0  0  0
   41.9710   33.6250   37.6540 C   0  0  0  0  0  0  0  0  0  0  0  0
   41.0760   34.1820   37.7910 H   0  0  0  0  0  0  0  0  0  0  0  0
   43.2120   34.2620   37.7400 C   0  0  0  0  0  0  0  0  0  0  0  0
   43.2200   35.3210   37.9470 H   0  0  0  0  0  0  0  0  0  0  0  0
   44.4400   33.6200   37.5760 C   0  0  0  0  0  3  0  0  0  0  0  0
   44.3670   32.2760   37.3160 C   0  0  0  0  0  3  0  0  0  0  0  0
   43.1940   31.6310   37.2260 N   0  0  0  0  0  0  0  0  0  0  0  0
  1  2  2  0  0  0  0
  1  6  1  0  0  0  0
  2  3  1  0  0  0  0
  3 10  1  0  0  0  0
  3  4  2  0  0  0  0
  5  8  1  0  0  0  0
  5  4  1  0  0  0  0
  6  5  2  0  0  0  0
  7  2  1  0  0  0  0
  9 14  1  6  0  0  0
  9 13  1  0  0  0  0
  9 19  1  0  0  0  0
 10 15  1  1  0  0  0
 10  9  1  0  0  0  0
 11 12  1  0  0  0  0
 11 10  1  0  0  0  0
 12 13  1  0  0  0  0
 13 18  1  1  0  0  0
 13 21  1  0  0  0  0
 16 12  1  0  0  0  0
 17 12  1  0  0  0  0
 20 19  1  0  0  0  0
 21 22  1  0  0  0  0
 23 28  1  0  0  0  0
 23  1  1  0  0  0  0
 24 23  1  0  0  0  0
 25 23  1  0  0  0  0
 26 30  1  0  0  0  0
 26 27  2  0  0  0  0
 28 26  1  0  0  0  0
 29 28  1  0  0  0  0
 30 31  1  0  0  0  0
 31 33  2  0  0  0  0
 31 32  1  0  0  0  0
 33 34  1  0  0  0  0
 35 33  1  0  0  0  0
 36 35  2  0  0  0  0
 37 36  1  0  0  0  0
 37 30  2  0  0  0  0
M  END
>  <minimizedAffinity>
-5.49591208

$$$$
