
 OpenBabel03252503583D

 33 36  0  0  1  0  0  0  0  0999 V2000
   47.2340   34.7360   42.6420 C   0  0  0  0  0  0  0  0  0  0  0  0
   46.2760   35.6950   42.3740 C   0  0  0  0  0  0  0  0  0  0  0  0
   45.1420   35.7030   43.1760 C   0  0  0  0  0  0  0  0  0  0  0  0
   45.0280   34.7860   44.1710 N   0  0  0  0  0  0  0  0  0  0  0  0
   45.9870   33.8690   44.3970 C   0  0  0  0  0  0  0  0  0  0  0  0
   47.0950   33.8360   43.6380 N   0  0  0  0  0  0  0  0  0  0  0  0
   46.3000   36.4440   41.6120 H   0  0  0  0  0  0  0  0  0  0  0  0
   44.3490   36.4270   43.0230 H   0  0  0  0  0  0  0  0  0  0  0  0
   46.0380   31.5340   45.1390 C   0  0  0  0  0  0  0  0  0  0  0  0
   45.8670   32.8780   45.4710 C   0  0  0  0  0  0  0  0  0  0  0  0
   45.5960   33.2440   46.7840 C   0  0  0  0  0  0  0  0  0  0  0  0
   45.5030   32.2460   47.7310 C   0  0  0  0  0  0  0  0  0  0  0  0
   45.2620   32.2650   49.0460 N   0  0  0  0  0  0  0  0  0  0  0  0
   45.2670   31.0390   49.5750 C   0  0  0  0  0  0  0  0  0  0  0  0
   45.5240   30.1490   48.5680 C   0  0  0  0  0  0  0  0  0  0  0  0
   45.6730   30.9010   47.4140 C   0  0  0  0  0  0  0  0  0  0  0  0
   45.9430   30.5550   46.0980 C   0  0  0  0  0  0  0  0  0  0  0  0
   46.2500   31.2900   44.1000 H   0  0  0  0  0  0  0  0  0  0  0  0
   45.4630   34.2780   47.0410 H   0  0  0  0  0  0  0  0  0  0  0  0
   45.0940   33.1610   49.5700 H   0  0  0  0  0  0  0  0  0  0  0  0
   45.1080   30.7270   50.5910 H   0  0  0  0  0  0  0  0  0  0  0  0
   45.6190   29.0570   48.5440 H   0  0  0  0  0  0  0  0  0  0  0  0
   46.0840   29.5290   45.7870 H   0  0  0  0  0  0  0  0  0  0  0  0
   48.4130   34.7530   41.7860 C   0  0  1  0  0  3  0  0  0  0  0  0
   49.4950   35.3840   42.0780 O   0  0  0  0  0  1  0  0  0  0  0  0
   48.4280   34.0330   40.5140 C   0  0  0  0  0  0  0  0  0  0  0  0
   48.2540   34.6910   39.3350 C   0  0  0  0  0  0  0  0  0  0  0  0
   48.1040   35.7490   39.3320 H   0  0  0  0  0  0  0  0  0  0  0  0
   48.2720   33.9950   38.1430 C   0  0  0  0  0  0  0  0  0  0  0  0
   48.1330   34.5220   37.1980 H   0  0  0  0  0  0  0  0  0  0  0  0
   48.4620   32.6260   38.0990 C   0  0  0  0  0  3  0  0  0  0  0  0
   48.6290   32.0420   39.3330 C   0  0  0  0  0  3  0  0  0  0  0  0
   48.6210   32.6800   40.5340 N   0  0  0  0  0  0  0  0  0  0  0  0
  1  6  1  0  0  0  0
  2  1  2  0  0  0  0
  2  3  1  0  0  0  0
  3  4  2  0  0  0  0
  4  5  1  0  0  0  0
  5 10  1  0  0  0  0
  6  5  2  0  0  0  0
  7  2  1  0  0  0  0
  8  3  1  0  0  0  0
  9 10  2  0  0  0  0
  9 17  1  0  0  0  0
 10 11  1  0  0  0  0
 11 19  1  0  0  0  0
 11 12  2  0  0  0  0
 12 13  1  0  0  0  0
 13 20  1  0  0  0  0
 13 14  1  0  0  0  0
 14 21  1  0  0  0  0
 15 14  2  0  0  0  0
 16 12  1  0  0  0  0
 16 15  1  0  0  0  0
 17 16  2  0  0  0  0
 18  9  1  0  0  0  0
 22 15  1  0  0  0  0
 23 17  1  0  0  0  0
 24 25  1  1  0  0  0
 24  1  1  0  0  0  0
 26 33  1  0  0  0  0
 26 24  1  0  0  0  0
 27 26  2  0  0  0  0
 28 27  1  0  0  0  0
 29 27  1  0  0  0  0
 30 29  1  0  0  0  0
 31 29  2  0  0  0  0
 31 32  1  0  0  0  0
 32 33  2  0  0  0  0
M  END
>  <minimizedAffinity>
-6.08999252

>  <minimizedRMSD>
0.550839067

$$$$
