
 OpenBabel03252509193D

 42 45  0  0  1  0  0  0  0  0999 V2000
   52.3200   25.2600   42.4010 C   0  0  1  0  0  0  0  0  0  0  0  0
   52.5030   24.6130   41.0590 C   0  0  0  0  0  0  0  0  0  0  0  0
   53.7610   23.8050   40.9150 C   0  0  0  0  0  0  0  0  0  0  0  0
   54.0580   22.9520   42.1350 C   0  0  0  0  0  0  0  0  0  0  0  0
   53.8710   23.7070   43.4150 C   0  0  0  0  0  0  0  0  0  0  0  0
   53.6710   25.2010   43.1340 C   0  0  2  0  0  0  0  0  0  0  0  0
   51.6200   24.6730   42.9910 H   0  0  0  0  0  0  0  0  0  0  0  0
   52.5450   25.4250   40.3080 H   0  0  0  0  0  0  0  0  0  0  0  0
   51.6400   23.9490   40.8420 H   0  0  0  0  0  0  0  0  0  0  0  0
   53.5970   23.0990   40.0820 H   0  0  0  0  0  0  0  0  0  0  0  0
   54.6080   24.4710   40.6650 H   0  0  0  0  0  0  0  0  0  0  0  0
   55.1090   22.6130   42.0290 H   0  0  0  0  0  0  0  0  0  0  0  0
   53.4320   22.0440   42.0680 H   0  0  0  0  0  0  0  0  0  0  0  0
   52.9790   23.2840   43.9040 H   0  0  0  0  0  0  0  0  0  0  0  0
   54.7500   23.5510   44.0640 H   0  0  0  0  0  0  0  0  0  0  0  0
   54.4890   25.5500   42.4830 H   0  0  0  0  0  0  0  0  0  0  0  0
   50.4500   28.9200   42.5380 C   0  0  0  0  0  0  0  0  0  0  0  0
   51.5560   28.8970   41.6910 C   0  0  0  0  0  0  0  0  0  0  0  0
   52.2400   27.7600   41.5720 C   0  0  0  0  0  0  0  0  0  0  0  0
   51.8450   26.6060   42.2890 C   0  0  0  0  0  0  0  0  0  0  0  0
   50.3880   27.1970   43.2050 S   0  0  0  0  0  0  0  0  0  0  0  0
   51.8450   29.7850   41.1470 H   0  0  0  0  0  0  0  0  0  0  0  0
   53.1130   27.5760   40.9670 H   0  0  0  0  0  0  0  0  0  0  0  0
   48.7250   32.2190   42.4410 C   0  0  0  0  0  0  0  0  0  0  0  0
   47.8520   32.0680   43.5170 C   0  0  0  0  0  0  0  0  0  0  0  0
   47.8790   30.8640   44.2320 C   0  0  0  0  0  0  0  0  0  0  0  0
   48.7660   29.8960   43.8310 N   0  0  0  0  0  0  0  0  0  0  0  0
   49.5860   30.0920   42.7880 C   0  0  0  0  0  0  0  0  0  0  0  0
   49.5690   31.2540   42.0880 N   0  0  0  0  0  0  0  0  0  0  0  0
   48.7150   33.1430   41.8800 H   0  0  0  0  0  0  0  0  0  0  0  0
   47.1590   32.8140   43.8350 H   0  0  0  0  0  0  0  0  0  0  0  0
   47.2340   30.6760   45.0750 H   0  0  0  0  0  0  0  0  0  0  0  0
   53.5650   25.9160   44.4060 C   0  0  0  0  0  0  0  0  0  0  0  0
   52.9630   25.4790   45.3550 O   0  0  0  0  0  0  0  0  0  0  0  0
   53.9860   27.1360   45.0660 C   0  0  0  0  0  0  0  0  0  0  0  0
   54.1980   27.2860   46.4480 C   0  0  0  0  0  0  0  0  0  0  0  0
   54.0820   26.3860   47.0450 H   0  0  0  0  0  0  0  0  0  0  0  0
   54.5340   28.4300   47.1320 C   0  0  0  0  0  0  0  0  0  0  0  0
   54.6660   28.4080   48.1930 H   0  0  0  0  0  0  0  0  0  0  0  0
   54.6730   29.5450   46.3480 C   0  0  0  0  0  3  0  0  0  0  0  0
   54.4770   29.4400   44.9990 C   0  0  0  0  0  3  0  0  0  0  0  0
   54.1540   28.2940   44.4220 N   0  0  0  0  0  0  0  0  0  0  0  0
  1  7  1  1  0  0  0
  1  6  1  0  0  0  0
  2  1  1  0  0  0  0
  3  2  1  0  0  0  0
  3  4  1  0  0  0  0
  4  5  1  0  0  0  0
  5 14  1  0  0  0  0
  5 15  1  0  0  0  0
  6 16  1  6  0  0  0
  6  5  1  0  0  0  0
  6 33  1  0  0  0  0
  8  2  1  0  0  0  0
  9  2  1  0  0  0  0
 10  3  1  0  0  0  0
 11  3  1  0  0  0  0
 12  4  1  0  0  0  0
 13  4  1  0  0  0  0
 17 28  1  0  0  0  0
 17 21  1  0  0  0  0
 18 17  2  0  0  0  0
 19 18  1  0  0  0  0
 19 20  2  0  0  0  0
 20  1  1  0  0  0  0
 20 21  1  0  0  0  0
 22 18  1  0  0  0  0
 23 19  1  0  0  0  0
 24 25  1  0  0  0  0
 25 31  1  0  0  0  0
 25 26  2  0  0  0  0
 26 32  1  0  0  0  0
 27 26  1  0  0  0  0
 28 27  2  0  0  0  0
 29 24  2  0  0  0  0
 29 28  1  0  0  0  0
 30 24  1  0  0  0  0
 33 35  1  0  0  0  0
 33 34  2  0  0  0  0
 35 36  1  0  0  0  0
 36 37  1  0  0  0  0
 36 38  2  0  0  0  0
 38 39  1  0  0  0  0
 40 38  1  0  0  0  0
 41 40  2  0  0  0  0
 42 41  1  0  0  0  0
 42 35  2  0  0  0  0
M  END
>  <minimizedAffinity>
-1.23000193

>  <minimizedRMSD>
8.29563046

$$$$
