
 OpenBabel03252509193D

 42 45  0  0  1  0  0  0  0  0999 V2000
   46.9680   26.7240   47.7570 C   0  0  1  0  0  0  0  0  0  0  0  0
   46.9850   25.2650   48.1100 C   0  0  0  0  0  0  0  0  0  0  0  0
   48.3550   24.6650   48.2430 C   0  0  0  0  0  0  0  0  0  0  0  0
   49.3240   25.5630   48.9890 C   0  0  0  0  0  0  0  0  0  0  0  0
   49.2410   26.9890   48.5360 C   0  0  0  0  0  0  0  0  0  0  0  0
   48.3780   27.1020   47.2730 C   0  0  2  0  0  0  0  0  0  0  0  0
   46.7790   27.3090   48.6530 H   0  0  0  0  0  0  0  0  0  0  0  0
   46.4660   24.7250   47.2950 H   0  0  0  0  0  0  0  0  0  0  0  0
   46.4440   25.1050   49.0670 H   0  0  0  0  0  0  0  0  0  0  0  0
   48.2490   23.7540   48.8580 H   0  0  0  0  0  0  0  0  0  0  0  0
   48.7410   24.3870   47.2450 H   0  0  0  0  0  0  0  0  0  0  0  0
   50.3370   25.1510   48.8040 H   0  0  0  0  0  0  0  0  0  0  0  0
   49.1320   25.4370   50.0700 H   0  0  0  0  0  0  0  0  0  0  0  0
   48.7890   27.5580   49.3630 H   0  0  0  0  0  0  0  0  0  0  0  0
   50.2580   27.3720   48.3430 H   0  0  0  0  0  0  0  0  0  0  0  0
   48.7470   26.3790   46.5280 H   0  0  0  0  0  0  0  0  0  0  0  0
   43.8320   27.9990   45.4210 C   0  0  0  0  0  0  0  0  0  0  0  0
   44.6900   27.1220   44.7610 C   0  0  0  0  0  0  0  0  0  0  0  0
   45.7440   26.6470   45.4240 C   0  0  0  0  0  0  0  0  0  0  0  0
   45.9780   27.0260   46.7670 C   0  0  0  0  0  0  0  0  0  0  0  0
   44.5870   28.1500   47.1020 S   0  0  0  0  0  0  0  0  0  0  0  0
   44.4990   26.8380   43.7360 H   0  0  0  0  0  0  0  0  0  0  0  0
   46.4990   25.9670   45.0620 H   0  0  0  0  0  0  0  0  0  0  0  0
   40.3910   29.2320   44.7120 C   0  0  0  0  0  0  0  0  0  0  0  0
   40.6080   29.8710   43.4910 C   0  0  0  0  0  0  0  0  0  0  0  0
   41.9020   29.8600   42.9560 C   0  0  0  0  0  0  0  0  0  0  0  0
   42.8880   29.2200   43.6650 N   0  0  0  0  0  0  0  0  0  0  0  0
   42.6260   28.6200   44.8360 C   0  0  0  0  0  0  0  0  0  0  0  0
   41.3760   28.6240   45.3650 N   0  0  0  0  0  0  0  0  0  0  0  0
   39.3970   29.2330   45.1360 H   0  0  0  0  0  0  0  0  0  0  0  0
   39.8490   30.3710   42.9330 H   0  0  0  0  0  0  0  0  0  0  0  0
   42.1460   30.3310   42.0180 H   0  0  0  0  0  0  0  0  0  0  0  0
   48.3790   28.4920   46.8180 C   0  0  0  0  0  0  0  0  0  0  0  0
   48.8390   28.8340   45.7580 O   0  0  0  0  0  0  0  0  0  0  0  0
   47.9570   29.8210   47.2150 C   0  0  0  0  0  0  0  0  0  0  0  0
   47.3290   30.7620   46.3790 C   0  0  0  0  0  0  0  0  0  0  0  0
   47.1030   30.4250   45.3720 H   0  0  0  0  0  0  0  0  0  0  0  0
   46.9680   32.0540   46.6840 C   0  0  0  0  0  0  0  0  0  0  0  0
   46.4930   32.6700   45.9490 H   0  0  0  0  0  0  0  0  0  0  0  0
   47.2660   32.4440   47.9610 C   0  0  0  0  0  3  0  0  0  0  0  0
   47.8760   31.5580   48.8050 C   0  0  0  0  0  3  0  0  0  0  0  0
   48.1900   30.3290   48.4280 N   0  0  0  0  0  0  0  0  0  0  0  0
  1  2  1  0  0  0  0
  1  7  1  1  0  0  0
  2  3  1  0  0  0  0
  2  9  1  0  0  0  0
  3 10  1  0  0  0  0
  3  4  1  0  0  0  0
  4 13  1  0  0  0  0
  5  4  1  0  0  0  0
  5 14  1  0  0  0  0
  6 16  1  6  0  0  0
  6  1  1  0  0  0  0
  6  5  1  0  0  0  0
  8  2  1  0  0  0  0
 11  3  1  0  0  0  0
 12  4  1  0  0  0  0
 15  5  1  0  0  0  0
 17 21  1  0  0  0  0
 18 17  2  0  0  0  0
 18 19  1  0  0  0  0
 19 20  2  0  0  0  0
 20 21  1  0  0  0  0
 20  1  1  0  0  0  0
 22 18  1  0  0  0  0
 23 19  1  0  0  0  0
 24 30  1  0  0  0  0
 24 29  1  0  0  0  0
 25 24  2  0  0  0  0
 26 25  1  0  0  0  0
 26 27  2  0  0  0  0
 27 28  1  0  0  0  0
 28 29  2  0  0  0  0
 28 17  1  0  0  0  0
 31 25  1  0  0  0  0
 32 26  1  0  0  0  0
 33 35  1  0  0  0  0
 33  6  1  0  0  0  0
 34 33  2  0  0  0  0
 35 42  1  0  0  0  0
 36 38  1  0  0  0  0
 36 35  2  0  0  0  0
 37 36  1  0  0  0  0
 38 40  2  0  0  0  0
 39 38  1  0  0  0  0
 40 41  1  0  0  0  0
 42 41  2  0  0  0  0
M  END
>  <minimizedAffinity>
-3.89638472

>  <minimizedRMSD>
5.05194664

$$$$
