
 OpenBabel03242523383D

 18 19  0  0  0  0  0  0  0  0999 V2000
   44.6550   35.4040   45.0300 C   0  0  0  0  0  0  0  0  0  0  0  0
   45.2460   35.5420   43.7550 C   0  0  0  0  0  0  0  0  0  0  0  0
   46.2470   34.6190   43.4170 C   0  0  0  0  0  0  0  0  0  0  0  0
   46.5900   33.6570   44.3170 N   0  0  0  0  0  0  0  0  0  0  0  0
   45.9910   33.5710   45.5230 C   0  0  0  0  0  0  0  0  0  0  0  0
   45.0290   34.4390   45.8800 N   0  0  0  0  0  0  0  0  0  0  0  0
   43.8870   36.1120   45.2910 H   0  0  0  0  0  0  0  0  0  0  0  0
   44.9860   36.2920   43.0390 H   0  0  0  0  0  0  0  0  0  0  0  0
   46.4090   32.5150   46.4380 C   0  0  0  0  0  0  0  0  0  0  0  0
   46.0070   31.2040   46.1940 C   0  0  0  0  0  0  0  0  0  0  0  0
   45.3900   31.0000   45.3270 H   0  0  0  0  0  0  0  0  0  0  0  0
   46.4120   30.2050   47.0740 C   0  0  0  0  0  0  0  0  0  0  0  0
   46.1210   29.1960   46.9130 H   0  0  0  0  0  0  0  0  0  0  0  0
   47.1930   30.6020   48.1350 C   0  0  0  0  0  3  0  0  0  0  0  0
   47.6020   31.9090   48.3910 C   0  0  0  0  0  3  0  0  0  0  0  0
   47.1750   32.8180   47.5030 N   0  0  0  0  0  0  0  0  0  0  0  0
   47.0470   34.7280   41.8120 S   0  0  0  0  0  0  0  0  0  0  0  0
   48.4260   34.9530   42.0790 H   0  0  0  0  0  0  0  0  0  0  0  0
  1  7  1  0  0  0  0
  1  6  1  0  0  0  0
  2  1  2  0  0  0  0
  3  2  1  0  0  0  0
  3  4  2  0  0  0  0
  4  5  1  0  0  0  0
  5  6  2  0  0  0  0
  5  9  1  0  0  0  0
  8  2  1  0  0  0  0
  9 16  1  0  0  0  0
 10  9  2  0  0  0  0
 10 12  1  0  0  0  0
 11 10  1  0  0  0  0
 12 14  2  0  0  0  0
 13 12  1  0  0  0  0
 14 15  1  0  0  0  0
 16 15  2  0  0  0  0
 17 18  1  0  0  0  0
 17  3  1  0  0  0  0
M  END
>  <minimizedAffinity>
-4.25411367

>  <minimizedRMSD>
0.963355243

$$$$
