
 OpenBabel03242523373D

 18 19  0  0  0  0  0  0  0  0999 V2000
   44.6350   35.4470   45.0240 C   0  0  0  0  0  0  0  0  0  0  0  0
   45.2450   35.5740   43.7580 C   0  0  0  0  0  0  0  0  0  0  0  0
   46.2260   34.6270   43.4280 C   0  0  0  0  0  0  0  0  0  0  0  0
   46.5330   33.6530   44.3290 N   0  0  0  0  0  0  0  0  0  0  0  0
   45.9170   33.5790   45.5270 C   0  0  0  0  0  0  0  0  0  0  0  0
   44.9730   34.4690   45.8760 N   0  0  0  0  0  0  0  0  0  0  0  0
   43.8830   36.1730   45.2790 H   0  0  0  0  0  0  0  0  0  0  0  0
   45.0140   36.3330   43.0420 H   0  0  0  0  0  0  0  0  0  0  0  0
   46.2960   32.5090   46.4430 C   0  0  0  0  0  0  0  0  0  0  0  0
   47.1200   32.8000   47.5280 C   0  0  0  0  0  0  0  0  0  0  0  0
   47.4610   33.8200   47.6660 H   0  0  0  0  0  0  0  0  0  0  0  0
   47.4750   31.7720   48.3960 C   0  0  0  0  0  0  0  0  0  0  0  0
   48.1020   31.9650   49.2310 H   0  0  0  0  0  0  0  0  0  0  0  0
   46.9720   30.5240   48.1030 C   0  0  0  0  0  3  0  0  0  0  0  0
   46.1490   30.2190   47.0240 C   0  0  0  0  0  3  0  0  0  0  0  0
   45.8470   31.2580   46.2310 N   0  0  0  0  0  0  0  0  0  0  0  0
   47.0490   34.7210   41.8350 S   0  0  0  0  0  0  0  0  0  0  0  0
   48.4300   34.9090   42.1190 H   0  0  0  0  0  0  0  0  0  0  0  0
  1  7  1  0  0  0  0
  1  6  1  0  0  0  0
  2  1  2  0  0  0  0
  3  2  1  0  0  0  0
  3  4  2  0  0  0  0
  4  5  1  0  0  0  0
  5  6  2  0  0  0  0
  5  9  1  0  0  0  0
  8  2  1  0  0  0  0
  9 10  1  0  0  0  0
 10 11  1  0  0  0  0
 10 12  2  0  0  0  0
 12 13  1  0  0  0  0
 14 12  1  0  0  0  0
 15 14  2  0  0  0  0
 16  9  2  0  0  0  0
 16 15  1  0  0  0  0
 17 18  1  0  0  0  0
 17  3  1  0  0  0  0
M  END
>  <minimizedAffinity>
-4.25131798

>  <minimizedRMSD>
0.865574002

$$$$
