
 OpenBabel03242523383D

 18 19  0  0  0  0  0  0  0  0999 V2000
   44.5330   35.6900   44.8150 C   0  0  0  0  0  0  0  0  0  0  0  0
   45.2020   35.6450   43.5730 C   0  0  0  0  0  0  0  0  0  0  0  0
   46.1680   34.6400   43.4090 C   0  0  0  0  0  0  0  0  0  0  0  0
   46.4050   33.7780   44.4350 N   0  0  0  0  0  0  0  0  0  0  0  0
   45.7340   33.8670   45.6020 C   0  0  0  0  0  0  0  0  0  0  0  0
   44.8030   34.8160   45.7950 N   0  0  0  0  0  0  0  0  0  0  0  0
   43.7920   36.4600   44.9430 H   0  0  0  0  0  0  0  0  0  0  0  0
   45.0260   36.3150   42.7590 H   0  0  0  0  0  0  0  0  0  0  0  0
   46.0400   32.9090   46.6600 C   0  0  0  0  0  0  0  0  0  0  0  0
   45.1920   32.8160   47.7610 C   0  0  0  0  0  0  0  0  0  0  0  0
   44.3220   33.4610   47.8060 H   0  0  0  0  0  0  0  0  0  0  0  0
   45.4940   31.8990   48.7630 C   0  0  0  0  0  0  0  0  0  0  0  0
   44.8650   31.8060   49.6150 H   0  0  0  0  0  0  0  0  0  0  0  0
   46.6290   31.1420   48.5790 C   0  0  0  0  0  3  0  0  0  0  0  0
   47.4850   31.2260   47.4850 C   0  0  0  0  0  3  0  0  0  0  0  0
   47.1320   32.1300   46.5580 N   0  0  0  0  0  0  0  0  0  0  0  0
   47.0630   34.5170   41.8570 S   0  0  0  0  0  0  0  0  0  0  0  0
   48.4350   34.7060   42.1810 H   0  0  0  0  0  0  0  0  0  0  0  0
  1  7  1  0  0  0  0
  1  6  1  0  0  0  0
  2  1  2  0  0  0  0
  3  2  1  0  0  0  0
  3  4  2  0  0  0  0
  4  5  1  0  0  0  0
  5  6  2  0  0  0  0
  5  9  1  0  0  0  0
  8  2  1  0  0  0  0
  9 10  1  0  0  0  0
 10 11  1  0  0  0  0
 10 12  2  0  0  0  0
 12 13  1  0  0  0  0
 14 12  1  0  0  0  0
 15 14  2  0  0  0  0
 16  9  2  0  0  0  0
 16 15  1  0  0  0  0
 17 18  1  0  0  0  0
 17  3  1  0  0  0  0
M  END
>  <minimizedAffinity>
-4.74470139

>  <minimizedRMSD>
0.463342816

$$$$
