
 OpenBabel03252507033D

 37 39  0  0  0  0  0  0  0  0999 V2000
   37.5010   27.7970   43.1930 C   0  0  0  0  0  0  0  0  0  0  0  0
   36.8040   26.9810   43.4290 H   0  0  0  0  0  0  0  0  0  0  0  0
   37.6710   28.4000   44.1110 H   0  0  0  0  0  0  0  0  0  0  0  0
   37.0000   28.7110   42.1300 C   0  0  0  0  0  0  0  0  0  0  0  0
   35.8540   28.4420   41.3990 C   0  0  0  0  0  0  0  0  0  0  0  0
   35.4860   29.3530   40.4200 C   0  0  0  0  0  0  0  0  0  0  0  0
   36.2540   30.4580   40.2210 N   0  0  0  0  0  0  0  0  0  0  0  0
   37.3470   30.6820   40.9440 C   0  0  0  0  0  0  0  0  0  0  0  0
   37.7080   29.8070   41.8890 N   0  0  0  0  0  0  0  0  0  0  0  0
   35.2940   27.5470   41.6100 H   0  0  0  0  0  0  0  0  0  0  0  0
   34.5990   29.1690   39.8340 H   0  0  0  0  0  0  0  0  0  0  0  0
   38.1190   31.8930   40.6700 C   0  0  0  0  0  0  0  0  0  0  0  0
   37.5170   33.0280   40.1650 C   0  0  0  0  0  0  0  0  0  0  0  0
   36.4500   33.0620   39.9550 H   0  0  0  0  0  0  0  0  0  0  0  0
   38.2660   34.1590   39.9140 C   0  0  0  0  0  0  0  0  0  0  0  0
   37.8830   35.0890   39.5220 H   0  0  0  0  0  0  0  0  0  0  0  0
   39.6040   34.0370   40.2060 C   0  0  0  0  0  3  0  0  0  0  0  0
   40.2620   32.9250   40.7120 C   0  0  0  0  0  3  0  0  0  0  0  0
   39.4450   31.8650   40.9260 N   0  0  0  0  0  0  0  0  0  0  0  0
   38.8370   27.2930   42.7350 C   0  0  0  0  0  0  0  0  0  0  0  0
   39.3410   28.1110   42.1450 H   0  0  0  0  0  0  0  0  0  0  0  0
   39.4900   27.2900   43.6700 H   0  0  0  0  0  0  0  0  0  0  0  0
   38.7580   26.1840   42.0100 N   0  0  0  0  0  0  0  0  0  0  0  0
   38.5630   24.8500   42.4490 C   0  0  0  0  0  0  0  0  0  0  0  0
   37.0690   24.6940   42.0890 C   0  0  0  0  0  0  0  0  0  0  0  0
   36.7940   24.8570   40.6600 C   0  0  0  0  0  0  0  0  0  0  0  0
   37.7500   25.6080   39.8440 C   0  0  0  0  0  0  0  0  0  0  0  0
   38.8370   26.3700   40.5550 C   0  0  0  0  0  0  0  0  0  0  0  0
   39.1850   24.0580   42.0810 H   0  0  0  0  0  0  0  0  0  0  0  0
   38.5630   24.8290   43.5790 H   0  0  0  0  0  0  0  0  0  0  0  0
   36.5660   25.4800   42.6900 H   0  0  0  0  0  0  0  0  0  0  0  0
   36.6910   23.7120   42.4670 H   0  0  0  0  0  0  0  0  0  0  0  0
   36.7190   23.8360   40.1860 H   0  0  0  0  0  0  0  0  0  0  0  0
   35.7450   25.2660   40.5590 H   0  0  0  0  0  0  0  0  0  0  0  0
   37.7610   25.7030   38.7910 H   0  0  0  0  0  0  0  0  0  0  0  0
   39.9910   27.3760   39.6850 S   0  0  0  0  0  0  0  0  0  0  0  0
   39.4290   28.5000   39.0810 H   0  0  0  0  0  0  0  0  0  0  0  0
  1  2  1  0  0  0  0
  1  3  1  0  0  0  0
  4  1  1  0  0  0  0
  5 10  1  0  0  0  0
  5  4  2  0  0  0  0
  6  5  1  0  0  0  0
  7  6  2  0  0  0  0
  7  8  1  0  0  0  0
  8  9  2  0  0  0  0
  9  4  1  0  0  0  0
 11  6  1  0  0  0  0
 12 19  1  0  0  0  0
 12  8  1  0  0  0  0
 13 12  2  0  0  0  0
 14 13  1  0  0  0  0
 15 13  1  0  0  0  0
 15 17  2  0  0  0  0
 16 15  1  0  0  0  0
 17 18  1  0  0  0  0
 18 19  2  0  0  0  0
 20  1  1  0  0  0  0
 20 22  1  0  0  0  0
 21 20  1  0  0  0  0
 23 24  1  0  0  0  0
 23 20  1  0  0  0  0
 24 30  1  0  0  0  0
 25 24  1  0  0  0  0
 25 32  1  0  0  0  0
 25 31  1  0  0  0  0
 26 25  1  0  0  0  0
 27 28  2  0  0  0  0
 27 26  1  0  0  0  0
 28 23  1  0  0  0  0
 29 24  1  0  0  0  0
 33 26  1  0  0  0  0
 34 26  1  0  0  0  0
 35 27  1  0  0  0  0
 36 28  1  0  0  0  0
 37 36  1  0  0  0  0
M  END
>  <minimizedAffinity>
-5.28836393

$$$$

 OpenBabel03252507033D

 37 39  0  0  0  0  0  0  0  0999 V2000
   38.3140   27.6460   43.5270 C   0  0  0  0  0  0  0  0  0  0  0  0
   37.8850   27.9700   44.4860 H   0  0  0  0  0  0  0  0  0  0  0  0
   38.9080   26.7220   43.6950 H   0  0  0  0  0  0  0  0  0  0  0  0
   39.2090   28.6620   42.9080 C   0  0  0  0  0  0  0  0  0  0  0  0
   40.5900   28.5860   42.9960 C   0  0  0  0  0  0  0  0  0  0  0  0
   41.3290   29.5950   42.3970 C   0  0  0  0  0  0  0  0  0  0  0  0
   40.6780   30.6020   41.7560 N   0  0  0  0  0  0  0  0  0  0  0  0
   39.3510   30.6400   41.6920 C   0  0  0  0  0  0  0  0  0  0  0  0
   38.6310   29.6700   42.2690 N   0  0  0  0  0  0  0  0  0  0  0  0
   41.0390   27.7600   43.5200 H   0  0  0  0  0  0  0  0  0  0  0  0
   42.4070   29.5630   42.4500 H   0  0  0  0  0  0  0  0  0  0  0  0
   38.7250   31.7560   40.9850 C   0  0  0  0  0  0  0  0  0  0  0  0
   37.5690   31.5800   40.2500 C   0  0  0  0  0  0  0  0  0  0  0  0
   37.0850   30.6100   40.1730 H   0  0  0  0  0  0  0  0  0  0  0  0
   36.9960   32.6490   39.5910 C   0  0  0  0  0  0  0  0  0  0  0  0
   36.0960   32.6070   38.9960 H   0  0  0  0  0  0  0  0  0  0  0  0
   37.6670   33.8400   39.7380 C   0  0  0  0  0  3  0  0  0  0  0  0
   38.8290   34.0730   40.4610 C   0  0  0  0  0  3  0  0  0  0  0  0
   39.3160   32.9680   41.0720 N   0  0  0  0  0  0  0  0  0  0  0  0
   37.2600   27.3220   42.5100 C   0  0  0  0  0  0  0  0  0  0  0  0
   36.3140   27.0450   43.0560 H   0  0  0  0  0  0  0  0  0  0  0  0
   36.9510   28.3280   42.0710 H   0  0  0  0  0  0  0  0  0  0  0  0
   37.6160   26.3470   41.6810 N   0  0  0  0  0  0  0  0  0  0  0  0
   38.3900   25.1920   41.9520 C   0  0  0  0  0  0  0  0  0  0  0  0
   37.2520   24.1500   42.0220 C   0  0  0  0  0  0  0  0  0  0  0  0
   36.4920   24.0330   40.7750 C   0  0  0  0  0  0  0  0  0  0  0  0
   36.5050   25.1590   39.8400 C   0  0  0  0  0  0  0  0  0  0  0  0
   37.0990   26.4600   40.3110 C   0  0  0  0  0  0  0  0  0  0  0  0
   39.1980   24.9110   41.3060 H   0  0  0  0  0  0  0  0  0  0  0  0
   38.7650   25.2390   43.0170 H   0  0  0  0  0  0  0  0  0  0  0  0
   36.6110   24.5100   42.8540 H   0  0  0  0  0  0  0  0  0  0  0  0
   37.6640   23.1620   42.3420 H   0  0  0  0  0  0  0  0  0  0  0  0
   36.8790   23.1460   40.1960 H   0  0  0  0  0  0  0  0  0  0  0  0
   35.4380   23.7240   41.0450 H   0  0  0  0  0  0  0  0  0  0  0  0
   36.1180   25.1810   38.8560 H   0  0  0  0  0  0  0  0  0  0  0  0
   37.0920   27.9050   39.3060 S   0  0  0  0  0  0  0  0  0  0  0  0
   35.8220   28.4310   39.0660 H   0  0  0  0  0  0  0  0  0  0  0  0
  1  3  1  0  0  0  0
  1  2  1  0  0  0  0
  4  5  1  0  0  0  0
  4  1  1  0  0  0  0
  5 10  1  0  0  0  0
  6 11  1  0  0  0  0
  6  5  2  0  0  0  0
  7  6  1  0  0  0  0
  8  7  2  0  0  0  0
  8  9  1  0  0  0  0
  9  4  2  0  0  0  0
 12 19  1  0  0  0  0
 12  8  1  0  0  0  0
 13 12  2  0  0  0  0
 14 13  1  0  0  0  0
 15 17  2  0  0  0  0
 15 13  1  0  0  0  0
 16 15  1  0  0  0  0
 17 18  1  0  0  0  0
 18 19  2  0  0  0  0
 20 21  1  0  0  0  0
 20  1  1  0  0  0  0
 22 20  1  0  0  0  0
 23 24  1  0  0  0  0
 23 20  1  0  0  0  0
 24 25  1  0  0  0  0
 24 30  1  0  0  0  0
 25 32  1  0  0  0  0
 25 31  1  0  0  0  0
 26 34  1  0  0  0  0
 26 25  1  0  0  0  0
 27 28  2  0  0  0  0
 27 26  1  0  0  0  0
 28 23  1  0  0  0  0
 29 24  1  0  0  0  0
 33 26  1  0  0  0  0
 35 27  1  0  0  0  0
 36 28  1  0  0  0  0
 37 36  1  0  0  0  0
M  END
>  <minimizedAffinity>
-5.24922228

$$$$

 OpenBabel03252507033D

 37 39  0  0  0  0  0  0  0  0999 V2000
   37.0970   27.7870   42.9650 C   0  0  0  0  0  0  0  0  0  0  0  0
   36.2950   27.0720   43.1980 H   0  0  0  0  0  0  0  0  0  0  0  0
   37.3340   28.3690   43.8820 H   0  0  0  0  0  0  0  0  0  0  0  0
   36.7340   28.7500   41.8900 C   0  0  0  0  0  0  0  0  0  0  0  0
   35.6290   28.5710   41.0740 C   0  0  0  0  0  0  0  0  0  0  0  0
   35.3920   29.5210   40.0920 C   0  0  0  0  0  0  0  0  0  0  0  0
   36.2430   30.5760   39.9720 N   0  0  0  0  0  0  0  0  0  0  0  0
   37.2930   30.7140   40.7750 C   0  0  0  0  0  0  0  0  0  0  0  0
   37.5280   29.8010   41.7240 N   0  0  0  0  0  0  0  0  0  0  0  0
   34.9980   27.7120   41.2250 H   0  0  0  0  0  0  0  0  0  0  0  0
   34.5390   29.4080   39.4410 H   0  0  0  0  0  0  0  0  0  0  0  0
   38.1600   31.8760   40.5830 C   0  0  0  0  0  0  0  0  0  0  0  0
   37.6570   33.0770   40.1250 C   0  0  0  0  0  0  0  0  0  0  0  0
   36.6030   33.2030   39.8940 H   0  0  0  0  0  0  0  0  0  0  0  0
   38.4960   34.1600   39.9510 C   0  0  0  0  0  0  0  0  0  0  0  0
   38.1930   35.1350   39.6010 H   0  0  0  0  0  0  0  0  0  0  0  0
   39.8130   33.9220   40.2660 C   0  0  0  0  0  3  0  0  0  0  0  0
   40.3720   32.7390   40.7270 C   0  0  0  0  0  3  0  0  0  0  0  0
   39.4740   31.7350   40.8670 N   0  0  0  0  0  0  0  0  0  0  0  0
   38.3600   27.1070   42.5280 C   0  0  0  0  0  0  0  0  0  0  0  0
   38.7600   27.6490   41.6250 H   0  0  0  0  0  0  0  0  0  0  0  0
   39.1420   27.4060   43.3020 H   0  0  0  0  0  0  0  0  0  0  0  0
   38.1930   25.8180   42.2550 N   0  0  0  0  0  0  0  0  0  0  0  0
   36.9870   25.0780   42.1770 C   0  0  0  0  0  0  0  0  0  0  0  0
   36.8570   24.9910   40.6400 C   0  0  0  0  0  0  0  0  0  0  0  0
   37.9790   24.3010   39.9990 C   0  0  0  0  0  0  0  0  0  0  0  0
   39.2560   24.2310   40.7110 C   0  0  0  0  0  0  0  0  0  0  0  0
   39.4200   25.0700   41.9500 C   0  0  0  0  0  0  0  0  0  0  0  0
   36.8920   24.1340   42.6760 H   0  0  0  0  0  0  0  0  0  0  0  0
   36.1240   25.7450   42.4730 H   0  0  0  0  0  0  0  0  0  0  0  0
   36.7970   26.0510   40.3170 H   0  0  0  0  0  0  0  0  0  0  0  0
   35.8810   24.5190   40.3700 H   0  0  0  0  0  0  0  0  0  0  0  0
   37.6790   23.2320   39.7970 H   0  0  0  0  0  0  0  0  0  0  0  0
   38.0990   24.7350   38.9620 H   0  0  0  0  0  0  0  0  0  0  0  0
   40.1110   23.6670   40.4440 H   0  0  0  0  0  0  0  0  0  0  0  0
   40.9380   25.1340   42.8390 S   0  0  0  0  0  0  0  0  0  0  0  0
   41.9850   25.7380   42.1430 H   0  0  0  0  0  0  0  0  0  0  0  0
  1  2  1  0  0  0  0
  1  3  1  0  0  0  0
  4  1  1  0  0  0  0
  5 10  1  0  0  0  0
  5  4  2  0  0  0  0
  6  5  1  0  0  0  0
  7  6  2  0  0  0  0
  7  8  1  0  0  0  0
  8  9  2  0  0  0  0
  9  4  1  0  0  0  0
 11  6  1  0  0  0  0
 12  8  1  0  0  0  0
 12 19  1  0  0  0  0
 13 12  2  0  0  0  0
 14 13  1  0  0  0  0
 15 13  1  0  0  0  0
 15 17  2  0  0  0  0
 16 15  1  0  0  0  0
 17 18  1  0  0  0  0
 18 19  2  0  0  0  0
 20  1  1  0  0  0  0
 20 22  1  0  0  0  0
 21 20  1  0  0  0  0
 23 20  1  0  0  0  0
 24 23  1  0  0  0  0
 24 30  1  0  0  0  0
 24 29  1  0  0  0  0
 25 24  1  0  0  0  0
 26 25  1  0  0  0  0
 26 27  1  0  0  0  0
 27 28  2  0  0  0  0
 28 23  1  0  0  0  0
 28 36  1  0  0  0  0
 31 25  1  0  0  0  0
 32 25  1  0  0  0  0
 33 26  1  0  0  0  0
 34 26  1  0  0  0  0
 35 27  1  0  0  0  0
 37 36  1  0  0  0  0
M  END
>  <minimizedAffinity>
-5.24574566

$$$$

 OpenBabel03252507033D

 37 39  0  0  0  0  0  0  0  0999 V2000
   37.3580   27.9780   43.4300 C   0  0  0  0  0  0  0  0  0  0  0  0
   37.2660   28.1730   44.5070 H   0  0  0  0  0  0  0  0  0  0  0  0
   36.3400   27.8860   42.9940 H   0  0  0  0  0  0  0  0  0  0  0  0
   38.1060   26.7290   43.1180 C   0  0  0  0  0  0  0  0  0  0  0  0
   39.3400   26.4430   43.6800 C   0  0  0  0  0  0  0  0  0  0  0  0
   39.9580   25.2580   43.3080 C   0  0  0  0  0  0  0  0  0  0  0  0
   39.3350   24.4370   42.4200 N   0  0  0  0  0  0  0  0  0  0  0  0
   38.1500   24.7460   41.9030 C   0  0  0  0  0  0  0  0  0  0  0  0
   37.5490   25.8880   42.2580 N   0  0  0  0  0  0  0  0  0  0  0  0
   39.7750   27.1390   44.3760 H   0  0  0  0  0  0  0  0  0  0  0  0
   40.9200   25.0090   43.7280 H   0  0  0  0  0  0  0  0  0  0  0  0
   37.5460   23.8110   40.9560 C   0  0  0  0  0  0  0  0  0  0  0  0
   36.2430   23.9700   40.5250 C   0  0  0  0  0  0  0  0  0  0  0  0
   35.6240   24.7930   40.8720 H   0  0  0  0  0  0  0  0  0  0  0  0
   35.6940   23.0740   39.6290 C   0  0  0  0  0  0  0  0  0  0  0  0
   34.6890   23.1190   39.2380 H   0  0  0  0  0  0  0  0  0  0  0  0
   36.5390   22.0630   39.2370 C   0  0  0  0  0  3  0  0  0  0  0  0
   37.8520   21.8550   39.6370 C   0  0  0  0  0  3  0  0  0  0  0  0
   38.3030   22.7830   40.5150 N   0  0  0  0  0  0  0  0  0  0  0  0
   38.0560   29.0910   42.7060 C   0  0  0  0  0  0  0  0  0  0  0  0
   37.9590   30.0300   43.3210 H   0  0  0  0  0  0  0  0  0  0  0  0
   39.1680   28.8790   42.8360 H   0  0  0  0  0  0  0  0  0  0  0  0
   37.5850   29.2940   41.4800 N   0  0  0  0  0  0  0  0  0  0  0  0
   36.2390   29.4470   41.0620 C   0  0  0  0  0  0  0  0  0  0  0  0
   36.2190   30.9800   40.8730 C   0  0  0  0  0  0  0  0  0  0  0  0
   37.1730   31.4550   39.8680 C   0  0  0  0  0  0  0  0  0  0  0  0
   38.3260   30.6130   39.5450 C   0  0  0  0  0  0  0  0  0  0  0  0
   38.5980   29.4210   40.4250 C   0  0  0  0  0  0  0  0  0  0  0  0
   35.8630   28.8990   40.2210 H   0  0  0  0  0  0  0  0  0  0  0  0
   35.5560   29.2850   41.9480 H   0  0  0  0  0  0  0  0  0  0  0  0
   36.4610   31.3770   41.8800 H   0  0  0  0  0  0  0  0  0  0  0  0
   35.1790   31.3170   40.6380 H   0  0  0  0  0  0  0  0  0  0  0  0
   36.6260   31.6160   38.8950 H   0  0  0  0  0  0  0  0  0  0  0  0
   37.4870   32.5000   40.1630 H   0  0  0  0  0  0  0  0  0  0  0  0
   39.0250   30.7520   38.7630 H   0  0  0  0  0  0  0  0  0  0  0  0
   40.0020   28.3870   40.1850 S   0  0  0  0  0  0  0  0  0  0  0  0
   41.2230   29.0100   40.4430 H   0  0  0  0  0  0  0  0  0  0  0  0
  1  2  1  0  0  0  0
  3  1  1  0  0  0  0
  4  1  1  0  0  0  0
  4  5  1  0  0  0  0
  5 10  1  0  0  0  0
  6  5  2  0  0  0  0
  6 11  1  0  0  0  0
  7  6  1  0  0  0  0
  8  9  1  0  0  0  0
  8  7  2  0  0  0  0
  9  4  2  0  0  0  0
 12  8  1  0  0  0  0
 13 14  1  0  0  0  0
 13 12  1  0  0  0  0
 15 13  2  0  0  0  0
 16 15  1  0  0  0  0
 17 15  1  0  0  0  0
 17 18  2  0  0  0  0
 18 19  1  0  0  0  0
 19 12  2  0  0  0  0
 20 22  1  0  0  0  0
 20 21  1  0  0  0  0
 20  1  1  0  0  0  0
 23 20  1  0  0  0  0
 24 23  1  0  0  0  0
 24 30  1  0  0  0  0
 25 24  1  0  0  0  0
 25 31  1  0  0  0  0
 26 34  1  0  0  0  0
 26 25  1  0  0  0  0
 27 26  1  0  0  0  0
 27 28  2  0  0  0  0
 28 23  1  0  0  0  0
 29 24  1  0  0  0  0
 32 25  1  0  0  0  0
 33 26  1  0  0  0  0
 35 27  1  0  0  0  0
 36 28  1  0  0  0  0
 36 37  1  0  0  0  0
M  END
>  <minimizedAffinity>
-5.1104207

$$$$

 OpenBabel03252507033D

 37 39  0  0  0  0  0  0  0  0999 V2000
   37.2570   27.6900   39.7140 C   0  0  0  0  0  0  0  0  0  0  0  0
   37.0960   27.3900   38.6690 H   0  0  0  0  0  0  0  0  0  0  0  0
   36.4640   27.2320   40.3440 H   0  0  0  0  0  0  0  0  0  0  0  0
   37.2130   29.1630   39.9180 C   0  0  0  0  0  0  0  0  0  0  0  0
   36.1600   29.7920   40.5620 C   0  0  0  0  0  0  0  0  0  0  0  0
   36.2130   31.1730   40.6840 C   0  0  0  0  0  0  0  0  0  0  0  0
   37.2810   31.8430   40.1740 N   0  0  0  0  0  0  0  0  0  0  0  0
   38.2730   31.2040   39.5630 C   0  0  0  0  0  0  0  0  0  0  0  0
   38.2280   29.8720   39.4410 N   0  0  0  0  0  0  0  0  0  0  0  0
   35.3470   29.1990   40.9420 H   0  0  0  0  0  0  0  0  0  0  0  0
   35.4070   31.6910   41.1810 H   0  0  0  0  0  0  0  0  0  0  0  0
   39.3860   31.9950   39.0410 C   0  0  0  0  0  0  0  0  0  0  0  0
   39.8730   33.0890   39.7290 C   0  0  0  0  0  0  0  0  0  0  0  0
   39.4480   33.3980   40.6810 H   0  0  0  0  0  0  0  0  0  0  0  0
   40.9250   33.8210   39.2170 C   0  0  0  0  0  0  0  0  0  0  0  0
   41.3700   34.6860   39.6830 H   0  0  0  0  0  0  0  0  0  0  0  0
   41.4060   33.3660   38.0120 C   0  0  0  0  0  3  0  0  0  0  0  0
   40.9570   32.2780   37.2770 C   0  0  0  0  0  3  0  0  0  0  0  0
   39.9240   31.6220   37.8590 N   0  0  0  0  0  0  0  0  0  0  0  0
   38.5780   27.2190   40.2460 C   0  0  0  0  0  0  0  0  0  0  0  0
   38.8340   26.2420   39.7460 H   0  0  0  0  0  0  0  0  0  0  0  0
   39.3540   27.9010   39.7620 H   0  0  0  0  0  0  0  0  0  0  0  0
   38.5900   27.0770   41.5660 N   0  0  0  0  0  0  0  0  0  0  0  0
   39.4800   27.6480   42.5110 C   0  0  0  0  0  0  0  0  0  0  0  0
   38.5650   28.7660   43.0580 C   0  0  0  0  0  0  0  0  0  0  0  0
   37.3380   28.2620   43.6800 C   0  0  0  0  0  0  0  0  0  0  0  0
   36.8570   26.9330   43.3010 C   0  0  0  0  0  0  0  0  0  0  0  0
   37.5100   26.2550   42.1260 C   0  0  0  0  0  0  0  0  0  0  0  0
   39.9310   27.0430   43.2720 H   0  0  0  0  0  0  0  0  0  0  0  0
   40.2870   28.2180   41.9610 H   0  0  0  0  0  0  0  0  0  0  0  0
   38.3410   29.3880   42.1660 H   0  0  0  0  0  0  0  0  0  0  0  0
   39.1420   29.4140   43.7620 H   0  0  0  0  0  0  0  0  0  0  0  0
   37.4850   28.2310   44.7980 H   0  0  0  0  0  0  0  0  0  0  0  0
   36.5390   29.0510   43.5470 H   0  0  0  0  0  0  0  0  0  0  0  0
   36.0710   26.3830   43.7470 H   0  0  0  0  0  0  0  0  0  0  0  0
   36.9590   24.6940   41.5260 S   0  0  0  0  0  0  0  0  0  0  0  0
   35.6840   24.7150   40.9610 H   0  0  0  0  0  0  0  0  0  0  0  0
  1  4  1  0  0  0  0
  1 20  1  0  0  0  0
  1  3  1  0  0  0  0
  2  1  1  0  0  0  0
  4  5  1  0  0  0  0
  5  6  2  0  0  0  0
  5 10  1  0  0  0  0
  6 11  1  0  0  0  0
  7  6  1  0  0  0  0
  8  7  2  0  0  0  0
  9  8  1  0  0  0  0
  9  4  2  0  0  0  0
 12  8  1  0  0  0  0
 12 13  1  0  0  0  0
 13 14  1  0  0  0  0
 15 16  1  0  0  0  0
 15 13  2  0  0  0  0
 17 15  1  0  0  0  0
 18 19  1  0  0  0  0
 18 17  2  0  0  0  0
 19 12  2  0  0  0  0
 20 23  1  0  0  0  0
 21 20  1  0  0  0  0
 22 20  1  0  0  0  0
 23 28  1  0  0  0  0
 23 24  1  0  0  0  0
 24 25  1  0  0  0  0
 24 29  1  0  0  0  0
 25 26  1  0  0  0  0
 25 32  1  0  0  0  0
 26 33  1  0  0  0  0
 27 26  1  0  0  0  0
 27 35  1  0  0  0  0
 28 27  2  0  0  0  0
 30 24  1  0  0  0  0
 31 25  1  0  0  0  0
 34 26  1  0  0  0  0
 36 28  1  0  0  0  0
 37 36  1  0  0  0  0
M  END
>  <minimizedAffinity>
-5.09142303

$$$$

 OpenBabel03252507033D

 37 39  0  0  0  0  0  0  0  0999 V2000
   39.3130   30.4880   42.4490 C   0  0  0  0  0  0  0  0  0  0  0  0
   38.7280   30.5550   43.3770 H   0  0  0  0  0  0  0  0  0  0  0  0
   40.2970   30.9790   42.6110 H   0  0  0  0  0  0  0  0  0  0  0  0
   38.6560   31.1470   41.2880 C   0  0  0  0  0  0  0  0  0  0  0  0
   38.8550   32.4840   40.9830 C   0  0  0  0  0  0  0  0  0  0  0  0
   38.1800   33.0010   39.8870 C   0  0  0  0  0  0  0  0  0  0  0  0
   37.3630   32.1870   39.1670 N   0  0  0  0  0  0  0  0  0  0  0  0
   37.1980   30.9080   39.4900 C   0  0  0  0  0  0  0  0  0  0  0  0
   37.8460   30.4020   40.5470 N   0  0  0  0  0  0  0  0  0  0  0  0
   39.5160   33.0710   41.5970 H   0  0  0  0  0  0  0  0  0  0  0  0
   38.3140   34.0400   39.6260 H   0  0  0  0  0  0  0  0  0  0  0  0
   36.3030   30.0970   38.6660 C   0  0  0  0  0  0  0  0  0  0  0  0
   35.2260   29.4340   39.2190 C   0  0  0  0  0  0  0  0  0  0  0  0
   35.0050   29.4920   40.2820 H   0  0  0  0  0  0  0  0  0  0  0  0
   34.3940   28.6740   38.4210 C   0  0  0  0  0  0  0  0  0  0  0  0
   33.5310   28.1230   38.7640 H   0  0  0  0  0  0  0  0  0  0  0  0
   34.7390   28.6510   37.0910 C   0  0  0  0  0  3  0  0  0  0  0  0
   35.8070   29.2960   36.4830 C   0  0  0  0  0  3  0  0  0  0  0  0
   36.5650   30.0170   37.3440 N   0  0  0  0  0  0  0  0  0  0  0  0
   39.5830   29.0690   42.0450 C   0  0  0  0  0  0  0  0  0  0  0  0
   39.2760   28.9430   40.9680 H   0  0  0  0  0  0  0  0  0  0  0  0
   40.7160   29.0000   41.9390 H   0  0  0  0  0  0  0  0  0  0  0  0
   38.9580   28.1800   42.8080 N   0  0  0  0  0  0  0  0  0  0  0  0
   37.7940   28.3510   43.5970 C   0  0  0  0  0  0  0  0  0  0  0  0
   36.7720   27.6530   42.6730 C   0  0  0  0  0  0  0  0  0  0  0  0
   37.0780   26.2410   42.4280 C   0  0  0  0  0  0  0  0  0  0  0  0
   38.4560   25.7830   42.6060 C   0  0  0  0  0  0  0  0  0  0  0  0
   39.5260   26.8250   42.7980 C   0  0  0  0  0  0  0  0  0  0  0  0
   37.7660   28.0100   44.6130 H   0  0  0  0  0  0  0  0  0  0  0  0
   37.4790   29.4360   43.5610 H   0  0  0  0  0  0  0  0  0  0  0  0
   36.8130   28.2440   41.7350 H   0  0  0  0  0  0  0  0  0  0  0  0
   35.7410   27.7810   43.0860 H   0  0  0  0  0  0  0  0  0  0  0  0
   36.4500   25.6090   43.1210 H   0  0  0  0  0  0  0  0  0  0  0  0
   36.6760   25.9780   41.4050 H   0  0  0  0  0  0  0  0  0  0  0  0
   38.8080   24.7860   42.5930 H   0  0  0  0  0  0  0  0  0  0  0  0
   41.2280   26.3980   42.9360 S   0  0  0  0  0  0  0  0  0  0  0  0
   41.7820   25.8680   41.7700 H   0  0  0  0  0  0  0  0  0  0  0  0
  1  3  1  0  0  0  0
  1  2  1  0  0  0  0
  4  1  1  0  0  0  0
  5  4  1  0  0  0  0
  5 10  1  0  0  0  0
  6  5  2  0  0  0  0
  7  8  2  0  0  0  0
  7  6  1  0  0  0  0
  8  9  1  0  0  0  0
  9  4  2  0  0  0  0
 11  6  1  0  0  0  0
 12 13  1  0  0  0  0
 12  8  1  0  0  0  0
 13 14  1  0  0  0  0
 15 16  1  0  0  0  0
 15 13  2  0  0  0  0
 17 15  1  0  0  0  0
 18 17  2  0  0  0  0
 18 19  1  0  0  0  0
 19 12  2  0  0  0  0
 20  1  1  0  0  0  0
 20 23  1  0  0  0  0
 21 20  1  0  0  0  0
 22 20  1  0  0  0  0
 23 24  1  0  0  0  0
 24 29  1  0  0  0  0
 25 32  1  0  0  0  0
 25 24  1  0  0  0  0
 26 27  1  0  0  0  0
 26 25  1  0  0  0  0
 26 33  1  0  0  0  0
 27 28  2  0  0  0  0
 28 23  1  0  0  0  0
 28 36  1  0  0  0  0
 30 24  1  0  0  0  0
 31 25  1  0  0  0  0
 34 26  1  0  0  0  0
 35 27  1  0  0  0  0
 37 36  1  0  0  0  0
M  END
>  <minimizedAffinity>
-5.08065367

$$$$

 OpenBabel03252507033D

 37 39  0  0  0  0  0  0  0  0999 V2000
   37.7460   30.3570   38.9780 C   0  0  0  0  0  0  0  0  0  0  0  0
   37.9670   30.0470   37.9470 H   0  0  0  0  0  0  0  0  0  0  0  0
   36.6450   30.3430   39.1280 H   0  0  0  0  0  0  0  0  0  0  0  0
   38.2370   31.7240   39.3010 C   0  0  0  0  0  0  0  0  0  0  0  0
   37.4030   32.7160   39.7920 C   0  0  0  0  0  0  0  0  0  0  0  0
   37.9610   33.9600   40.0430 C   0  0  0  0  0  0  0  0  0  0  0  0
   39.2860   34.1540   39.8020 N   0  0  0  0  0  0  0  0  0  0  0  0
   40.0540   33.1770   39.3310 C   0  0  0  0  0  0  0  0  0  0  0  0
   39.5220   31.9740   39.0850 N   0  0  0  0  0  0  0  0  0  0  0  0
   36.3630   32.4930   39.9600 H   0  0  0  0  0  0  0  0  0  0  0  0
   37.3360   34.7530   40.4260 H   0  0  0  0  0  0  0  0  0  0  0  0
   41.4690   33.4630   39.0970 C   0  0  0  0  0  0  0  0  0  0  0  0
   42.3930   33.3920   40.1200 C   0  0  0  0  0  0  0  0  0  0  0  0
   42.1030   33.1200   41.1320 H   0  0  0  0  0  0  0  0  0  0  0  0
   43.7230   33.6660   39.8760 C   0  0  0  0  0  0  0  0  0  0  0  0
   44.5130   33.6350   40.6100 H   0  0  0  0  0  0  0  0  0  0  0  0
   44.0100   34.0010   38.5730 C   0  0  0  0  0  3  0  0  0  0  0  0
   43.1240   34.0890   37.5080 C   0  0  0  0  0  3  0  0  0  0  0  0
   41.8440   33.8020   37.8440 N   0  0  0  0  0  0  0  0  0  0  0  0
   38.3460   29.4310   39.9950 C   0  0  0  0  0  0  0  0  0  0  0  0
   38.3560   28.3900   39.5640 H   0  0  0  0  0  0  0  0  0  0  0  0
   39.4630   29.6630   39.9840 H   0  0  0  0  0  0  0  0  0  0  0  0
   37.7040   29.4430   41.1570 N   0  0  0  0  0  0  0  0  0  0  0  0
   36.3210   29.2570   41.4070 C   0  0  0  0  0  0  0  0  0  0  0  0
   36.3630   27.8010   41.9200 C   0  0  0  0  0  0  0  0  0  0  0  0
   37.1770   27.6320   43.1270 C   0  0  0  0  0  0  0  0  0  0  0  0
   38.2130   28.6240   43.4170 C   0  0  0  0  0  0  0  0  0  0  0  0
   38.5460   29.6280   42.3460 C   0  0  0  0  0  0  0  0  0  0  0  0
   35.7870   29.9290   42.0480 H   0  0  0  0  0  0  0  0  0  0  0  0
   35.7750   29.1700   40.4210 H   0  0  0  0  0  0  0  0  0  0  0  0
   36.7820   27.2290   41.0670 H   0  0  0  0  0  0  0  0  0  0  0  0
   35.3220   27.4260   42.0750 H   0  0  0  0  0  0  0  0  0  0  0  0
   36.4950   27.6250   44.0250 H   0  0  0  0  0  0  0  0  0  0  0  0
   37.5940   26.5810   43.1120 H   0  0  0  0  0  0  0  0  0  0  0  0
   38.7890   28.7130   44.2990 H   0  0  0  0  0  0  0  0  0  0  0  0
   39.8320   30.8140   42.5480 S   0  0  0  0  0  0  0  0  0  0  0  0
   41.1130   30.2650   42.6040 H   0  0  0  0  0  0  0  0  0  0  0  0
  1  3  1  0  0  0  0
  1  4  1  0  0  0  0
  1 20  1  0  0  0  0
  2  1  1  0  0  0  0
  4  5  1  0  0  0  0
  5 10  1  0  0  0  0
  5  6  2  0  0  0  0
  6 11  1  0  0  0  0
  7  6  1  0  0  0  0
  8  7  2  0  0  0  0
  9  4  2  0  0  0  0
  9  8  1  0  0  0  0
 12  8  1  0  0  0  0
 12 13  1  0  0  0  0
 13 14  1  0  0  0  0
 15 13  2  0  0  0  0
 15 16  1  0  0  0  0
 17 15  1  0  0  0  0
 18 19  1  0  0  0  0
 18 17  2  0  0  0  0
 19 12  2  0  0  0  0
 20 23  1  0  0  0  0
 21 20  1  0  0  0  0
 22 20  1  0  0  0  0
 23 24  1  0  0  0  0
 23 28  1  0  0  0  0
 24 25  1  0  0  0  0
 24 29  1  0  0  0  0
 25 32  1  0  0  0  0
 25 26  1  0  0  0  0
 26 27  1  0  0  0  0
 26 33  1  0  0  0  0
 27 35  1  0  0  0  0
 28 36  1  0  0  0  0
 28 27  2  0  0  0  0
 30 24  1  0  0  0  0
 31 25  1  0  0  0  0
 34 26  1  0  0  0  0
 36 37  1  0  0  0  0
M  END
>  <minimizedAffinity>
-5.06475258

$$$$

 OpenBabel03252507033D

 37 39  0  0  0  0  0  0  0  0999 V2000
   36.6560   30.2770   41.1950 C   0  0  0  0  0  0  0  0  0  0  0  0
   37.0810   31.1790   41.6580 H   0  0  0  0  0  0  0  0  0  0  0  0
   35.5470   30.3350   41.2480 H   0  0  0  0  0  0  0  0  0  0  0  0
   37.0820   29.0160   41.8610 C   0  0  0  0  0  0  0  0  0  0  0  0
   37.6340   28.9980   43.1320 C   0  0  0  0  0  0  0  0  0  0  0  0
   38.0120   27.7680   43.6520 C   0  0  0  0  0  0  0  0  0  0  0  0
   37.8280   26.6480   42.9040 N   0  0  0  0  0  0  0  0  0  0  0  0
   37.2950   26.7060   41.6880 C   0  0  0  0  0  0  0  0  0  0  0  0
   36.9280   27.8890   41.1800 N   0  0  0  0  0  0  0  0  0  0  0  0
   37.7510   29.9240   43.6680 H   0  0  0  0  0  0  0  0  0  0  0  0
   38.4450   27.7230   44.6390 H   0  0  0  0  0  0  0  0  0  0  0  0
   37.1290   25.4570   40.9460 C   0  0  0  0  0  0  0  0  0  0  0  0
   37.6480   24.2680   41.4200 C   0  0  0  0  0  0  0  0  0  0  0  0
   38.1940   24.2190   42.3590 H   0  0  0  0  0  0  0  0  0  0  0  0
   37.4790   23.1010   40.7020 C   0  0  0  0  0  0  0  0  0  0  0  0
   37.8470   22.1290   40.9940 H   0  0  0  0  0  0  0  0  0  0  0  0
   36.7780   23.2460   39.5290 C   0  0  0  0  0  3  0  0  0  0  0  0
   36.2360   24.4120   39.0050 C   0  0  0  0  0  3  0  0  0  0  0  0
   36.4520   25.5030   39.7780 N   0  0  0  0  0  0  0  0  0  0  0  0
   37.0280   30.1480   39.7480 C   0  0  0  0  0  0  0  0  0  0  0  0
   37.5750   29.1730   39.6080 H   0  0  0  0  0  0  0  0  0  0  0  0
   36.0520   29.9090   39.2100 H   0  0  0  0  0  0  0  0  0  0  0  0
   37.7690   31.1580   39.3060 N   0  0  0  0  0  0  0  0  0  0  0  0
   37.3990   32.2120   38.4330 C   0  0  0  0  0  0  0  0  0  0  0  0
   37.2300   33.3400   39.4750 C   0  0  0  0  0  0  0  0  0  0  0  0
   38.4580   33.6340   40.2190 C   0  0  0  0  0  0  0  0  0  0  0  0
   39.4900   32.6000   40.3030 C   0  0  0  0  0  0  0  0  0  0  0  0
   39.1410   31.2150   39.8270 C   0  0  0  0  0  0  0  0  0  0  0  0
   38.0220   32.4780   37.6020 H   0  0  0  0  0  0  0  0  0  0  0  0
   36.3450   32.0370   38.0670 H   0  0  0  0  0  0  0  0  0  0  0  0
   36.4310   32.9650   40.1470 H   0  0  0  0  0  0  0  0  0  0  0  0
   36.8260   34.2550   38.9780 H   0  0  0  0  0  0  0  0  0  0  0  0
   38.9570   34.5320   39.7530 H   0  0  0  0  0  0  0  0  0  0  0  0
   38.1560   34.0090   41.2420 H   0  0  0  0  0  0  0  0  0  0  0  0
   40.4710   32.7000   40.6870 H   0  0  0  0  0  0  0  0  0  0  0  0
   40.2710   29.8710   39.9590 S   0  0  0  0  0  0  0  0  0  0  0  0
   40.5500   29.4840   41.2690 H   0  0  0  0  0  0  0  0  0  0  0  0
  1  3  1  0  0  0  0
  1  2  1  0  0  0  0
  1  4  1  0  0  0  0
  4  5  1  0  0  0  0
  5  6  2  0  0  0  0
  5 10  1  0  0  0  0
  6 11  1  0  0  0  0
  7  6  1  0  0  0  0
  8  7  2  0  0  0  0
  9  8  1  0  0  0  0
  9  4  2  0  0  0  0
 12 13  1  0  0  0  0
 12  8  1  0  0  0  0
 13 14  1  0  0  0  0
 15 16  1  0  0  0  0
 15 13  2  0  0  0  0
 17 15  1  0  0  0  0
 18 17  2  0  0  0  0
 18 19  1  0  0  0  0
 19 12  2  0  0  0  0
 20  1  1  0  0  0  0
 21 20  1  0  0  0  0
 22 20  1  0  0  0  0
 23 20  1  0  0  0  0
 23 28  1  0  0  0  0
 24 23  1  0  0  0  0
 24 25  1  0  0  0  0
 25 31  1  0  0  0  0
 25 26  1  0  0  0  0
 26 27  1  0  0  0  0
 26 34  1  0  0  0  0
 27 35  1  0  0  0  0
 28 36  1  0  0  0  0
 28 27  2  0  0  0  0
 29 24  1  0  0  0  0
 30 24  1  0  0  0  0
 32 25  1  0  0  0  0
 33 26  1  0  0  0  0
 36 37  1  0  0  0  0
M  END
>  <minimizedAffinity>
-5.05868769

$$$$

 OpenBabel03252507033D

 37 39  0  0  0  0  0  0  0  0999 V2000
   40.2450   27.4330   42.2780 C   0  0  0  0  0  0  0  0  0  0  0  0
   41.1220   26.7780   42.3710 H   0  0  0  0  0  0  0  0  0  0  0  0
   39.7270   27.2050   41.3220 H   0  0  0  0  0  0  0  0  0  0  0  0
   40.5890   28.8820   42.2800 C   0  0  0  0  0  0  0  0  0  0  0  0
   41.7070   29.3790   42.9300 C   0  0  0  0  0  0  0  0  0  0  0  0
   41.9240   30.7480   42.8820 C   0  0  0  0  0  0  0  0  0  0  0  0
   41.0430   31.5350   42.2090 N   0  0  0  0  0  0  0  0  0  0  0  0
   39.9810   31.0210   41.5970 C   0  0  0  0  0  0  0  0  0  0  0  0
   39.7650   29.7010   41.6400 N   0  0  0  0  0  0  0  0  0  0  0  0
   42.3630   28.6970   43.4440 H   0  0  0  0  0  0  0  0  0  0  0  0
   42.7870   31.1640   43.3800 H   0  0  0  0  0  0  0  0  0  0  0  0
   39.0810   31.9330   40.8940 C   0  0  0  0  0  0  0  0  0  0  0  0
   39.3710   33.2790   40.7780 C   0  0  0  0  0  0  0  0  0  0  0  0
   40.2760   33.7050   41.2030 H   0  0  0  0  0  0  0  0  0  0  0  0
   38.5050   34.1210   40.1100 C   0  0  0  0  0  0  0  0  0  0  0  0
   38.6490   35.1810   39.9690 H   0  0  0  0  0  0  0  0  0  0  0  0
   37.3850   33.5070   39.6010 C   0  0  0  0  0  3  0  0  0  0  0  0
   37.0430   32.1640   39.6880 C   0  0  0  0  0  3  0  0  0  0  0  0
   37.9520   31.4170   40.3610 N   0  0  0  0  0  0  0  0  0  0  0  0
   39.2550   27.2230   43.3850 C   0  0  0  0  0  0  0  0  0  0  0  0
   39.6390   26.3990   44.0510 H   0  0  0  0  0  0  0  0  0  0  0  0
   39.3880   28.1180   44.0780 H   0  0  0  0  0  0  0  0  0  0  0  0
   38.0360   26.9310   42.9480 N   0  0  0  0  0  0  0  0  0  0  0  0
   36.8100   27.5800   43.2420 C   0  0  0  0  0  0  0  0  0  0  0  0
   36.6380   28.3750   41.9290 C   0  0  0  0  0  0  0  0  0  0  0  0
   36.5480   27.5220   40.7400 C   0  0  0  0  0  0  0  0  0  0  0  0
   37.1080   26.1720   40.8030 C   0  0  0  0  0  0  0  0  0  0  0  0
   37.9530   25.8140   41.9980 C   0  0  0  0  0  0  0  0  0  0  0  0
   35.9460   27.0130   43.5240 H   0  0  0  0  0  0  0  0  0  0  0  0
   36.9940   28.3870   44.0120 H   0  0  0  0  0  0  0  0  0  0  0  0
   37.5340   29.0270   41.8910 H   0  0  0  0  0  0  0  0  0  0  0  0
   35.7530   29.0520   42.0120 H   0  0  0  0  0  0  0  0  0  0  0  0
   35.4610   27.3930   40.4680 H   0  0  0  0  0  0  0  0  0  0  0  0
   36.9640   28.1090   39.8680 H   0  0  0  0  0  0  0  0  0  0  0  0
   37.0110   25.4020   40.0850 H   0  0  0  0  0  0  0  0  0  0  0  0
   38.7490   24.2510   42.1410 S   0  0  0  0  0  0  0  0  0  0  0  0
   39.7620   24.0350   41.2070 H   0  0  0  0  0  0  0  0  0  0  0  0
  1  4  1  0  0  0  0
  1  2  1  0  0  0  0
  1 20  1  0  0  0  0
  3  1  1  0  0  0  0
  4  5  1  0  0  0  0
  5 10  1  0  0  0  0
  6  5  2  0  0  0  0
  6 11  1  0  0  0  0
  7  6  1  0  0  0  0
  8  9  1  0  0  0  0
  8  7  2  0  0  0  0
  9  4  2  0  0  0  0
 12  8  1  0  0  0  0
 13 12  1  0  0  0  0
 13 14  1  0  0  0  0
 15 13  2  0  0  0  0
 16 15  1  0  0  0  0
 17 18  2  0  0  0  0
 17 15  1  0  0  0  0
 18 19  1  0  0  0  0
 19 12  2  0  0  0  0
 20 21  1  0  0  0  0
 20 22  1  0  0  0  0
 23 24  1  0  0  0  0
 23 20  1  0  0  0  0
 24 29  1  0  0  0  0
 24 30  1  0  0  0  0
 25 32  1  0  0  0  0
 25 24  1  0  0  0  0
 26 27  1  0  0  0  0
 26 25  1  0  0  0  0
 27 28  2  0  0  0  0
 28 36  1  0  0  0  0
 28 23  1  0  0  0  0
 31 25  1  0  0  0  0
 33 26  1  0  0  0  0
 34 26  1  0  0  0  0
 35 27  1  0  0  0  0
 37 36  1  0  0  0  0
M  END
>  <minimizedAffinity>
-5.02343416

$$$$
