
 OpenBabel03252503293D

 24 25  0  0  0  0  0  0  0  0999 V2000
   39.3020   28.0260   41.9420 C   0  0  0  0  0  0  0  0  0  0  0  0
   38.4050   27.0370   41.4910 C   0  0  0  0  0  0  0  0  0  0  0  0
   38.3810   25.8390   42.2270 C   0  0  0  0  0  0  0  0  0  0  0  0
   39.2010   25.7210   43.2930 N   0  0  0  0  0  0  0  0  0  0  0  0
   40.0390   26.7010   43.6790 C   0  0  0  0  0  0  0  0  0  0  0  0
   40.0950   27.8620   43.0020 N   0  0  0  0  0  0  0  0  0  0  0  0
   38.2880   30.1150   41.5490 C   0  0  0  0  0  0  0  0  0  0  0  0
   37.3940   29.6680   42.3470 O   0  0  0  0  0  0  0  0  0  0  0  0
   39.4010   29.2770   41.2620 N   0  0  0  0  0  0  0  0  0  0  0  0
   37.8380   27.3070   40.6340 H   0  0  0  0  0  0  0  0  0  0  0  0
   40.6880   26.5790   44.5380 H   0  0  0  0  0  0  0  0  0  0  0  0
   40.1480   29.6530   40.6080 H   0  0  0  0  0  0  0  0  0  0  0  0
   38.1780   31.4510   40.9410 C   0  0  0  0  0  0  0  0  0  0  0  0
   37.1290   31.6740   40.0710 C   0  0  0  0  0  0  0  0  0  0  0  0
   36.3740   30.9510   39.7950 H   0  0  0  0  0  0  0  0  0  0  0  0
   37.1200   32.9590   39.5580 C   0  0  0  0  0  0  0  0  0  0  0  0
   36.3250   33.2330   38.8580 H   0  0  0  0  0  0  0  0  0  0  0  0
   38.0310   33.9530   39.8460 C   0  0  0  0  0  3  0  0  0  0  0  0
   39.0560   33.6370   40.7330 C   0  0  0  0  0  3  0  0  0  0  0  0
   39.0810   32.3820   41.2460 N   0  0  0  0  0  0  0  0  0  0  0  0
   37.4390   24.8340   41.7330 C   0  0  0  0  0  0  0  0  0  0  0  0
   36.3950   24.7200   42.6550 F   0  0  0  0  0  0  0  0  0  0  0  0
   38.0880   23.6110   41.7630 F   0  0  0  0  0  0  0  0  0  0  0  0
   36.8990   25.1410   40.5230 F   0  0  0  0  0  0  0  0  0  0  0  0
  1  6  1  0  0  0  0
  2  1  2  0  0  0  0
  2  3  1  0  0  0  0
  3  4  2  0  0  0  0
  4  5  1  0  0  0  0
  5 11  1  0  0  0  0
  6  5  2  0  0  0  0
  7  8  2  0  0  0  0
  9  7  1  0  0  0  0
  9  1  1  0  0  0  0
 10  2  1  0  0  0  0
 12  9  1  0  0  0  0
 13 20  1  0  0  0  0
 13  7  1  0  0  0  0
 14 13  2  0  0  0  0
 15 14  1  0  0  0  0
 16 18  2  0  0  0  0
 16 14  1  0  0  0  0
 17 16  1  0  0  0  0
 18 19  1  0  0  0  0
 19 20  2  0  0  0  0
 21 23  1  0  0  0  0
 21  3  1  0  0  0  0
 21 22  1  0  0  0  0
 24 21  1  0  0  0  0
M  END
>  <minimizedAffinity>
-5.45840168

$$$$

 OpenBabel03252503293D

 24 25  0  0  0  0  0  0  0  0999 V2000
   36.5280   27.7820   39.8620 C   0  0  0  0  0  0  0  0  0  0  0  0
   36.9570   27.0040   40.9570 C   0  0  0  0  0  0  0  0  0  0  0  0
   36.9730   25.6120   40.7600 C   0  0  0  0  0  0  0  0  0  0  0  0
   36.5850   25.1260   39.5610 N   0  0  0  0  0  0  0  0  0  0  0  0
   36.1850   25.9180   38.5500 C   0  0  0  0  0  0  0  0  0  0  0  0
   36.1530   27.2550   38.6960 N   0  0  0  0  0  0  0  0  0  0  0  0
   37.7750   29.7790   39.8990 C   0  0  0  0  0  0  0  0  0  0  0  0
   38.7710   28.9890   39.7550 O   0  0  0  0  0  0  0  0  0  0  0  0
   36.4760   29.2050   39.9620 N   0  0  0  0  0  0  0  0  0  0  0  0
   37.2240   27.5600   41.8210 H   0  0  0  0  0  0  0  0  0  0  0  0
   35.8780   25.5010   37.5980 H   0  0  0  0  0  0  0  0  0  0  0  0
   35.6490   29.8610   40.0710 H   0  0  0  0  0  0  0  0  0  0  0  0
   37.9580   31.2360   39.9970 C   0  0  0  0  0  0  0  0  0  0  0  0
   37.0390   32.0420   39.3540 C   0  0  0  0  0  0  0  0  0  0  0  0
   36.1890   31.6970   38.7820 H   0  0  0  0  0  0  0  0  0  0  0  0
   37.3040   33.3900   39.5100 C   0  0  0  0  0  0  0  0  0  0  0  0
   36.6300   34.1110   39.0360 H   0  0  0  0  0  0  0  0  0  0  0  0
   38.3560   33.9340   40.2170 C   0  0  0  0  0  3  0  0  0  0  0  0
   39.2340   33.0450   40.8310 C   0  0  0  0  0  3  0  0  0  0  0  0
   38.9890   31.7180   40.6890 N   0  0  0  0  0  0  0  0  0  0  0  0
   37.4230   24.8340   41.9150 C   0  0  0  0  0  0  0  0  0  0  0  0
   37.6990   23.5320   41.4860 F   0  0  0  0  0  0  0  0  0  0  0  0
   36.3460   24.7140   42.7770 F   0  0  0  0  0  0  0  0  0  0  0  0
   38.5450   25.3300   42.5020 F   0  0  0  0  0  0  0  0  0  0  0  0
  1  9  1  0  0  0  0
  1  2  1  0  0  0  0
  2 10  1  0  0  0  0
  3  2  2  0  0  0  0
  3 21  1  0  0  0  0
  4  3  1  0  0  0  0
  5  6  1  0  0  0  0
  5  4  2  0  0  0  0
  6  1  2  0  0  0  0
  7  9  1  0  0  0  0
  7 13  1  0  0  0  0
  8  7  2  0  0  0  0
  9 12  1  0  0  0  0
 11  5  1  0  0  0  0
 13 20  1  0  0  0  0
 14 16  1  0  0  0  0
 14 13  2  0  0  0  0
 15 14  1  0  0  0  0
 16 18  2  0  0  0  0
 17 16  1  0  0  0  0
 18 19  1  0  0  0  0
 20 19  2  0  0  0  0
 21 24  1  0  0  0  0
 21 23  1  0  0  0  0
 22 21  1  0  0  0  0
M  END
>  <minimizedAffinity>
-5.0092454

$$$$

 OpenBabel03252503293D

 24 25  0  0  0  0  0  0  0  0999 V2000
   38.1130   29.7380   41.7200 C   0  0  0  0  0  0  0  0  0  0  0  0
   37.7050   30.6940   40.7670 C   0  0  0  0  0  0  0  0  0  0  0  0
   38.4270   31.8990   40.7500 C   0  0  0  0  0  0  0  0  0  0  0  0
   39.4400   32.0570   41.6290 N   0  0  0  0  0  0  0  0  0  0  0  0
   39.7870   31.1080   42.5180 C   0  0  0  0  0  0  0  0  0  0  0  0
   39.1220   29.9400   42.5690 N   0  0  0  0  0  0  0  0  0  0  0  0
   37.8060   27.6140   40.7490 C   0  0  0  0  0  0  0  0  0  0  0  0
   38.6510   28.0450   39.8900 O   0  0  0  0  0  0  0  0  0  0  0  0
   37.4430   28.4810   41.8160 N   0  0  0  0  0  0  0  0  0  0  0  0
   36.8870   30.3950   40.1580 H   0  0  0  0  0  0  0  0  0  0  0  0
   40.6040   31.2610   43.2130 H   0  0  0  0  0  0  0  0  0  0  0  0
   36.7500   28.1190   42.5340 H   0  0  0  0  0  0  0  0  0  0  0  0
   37.2220   26.2680   40.6430 C   0  0  0  0  0  0  0  0  0  0  0  0
   37.2490   25.4680   41.7690 C   0  0  0  0  0  0  0  0  0  0  0  0
   37.6620   25.7430   42.7280 H   0  0  0  0  0  0  0  0  0  0  0  0
   36.6760   24.2260   41.5590 C   0  0  0  0  0  0  0  0  0  0  0  0
   36.6490   23.5190   42.3940 H   0  0  0  0  0  0  0  0  0  0  0  0
   36.1210   23.7770   40.3790 C   0  0  0  0  0  3  0  0  0  0  0  0
   36.1400   24.6520   39.2960 C   0  0  0  0  0  3  0  0  0  0  0  0
   36.6980   25.8740   39.4830 N   0  0  0  0  0  0  0  0  0  0  0  0
   37.9790   32.8690   39.7500 C   0  0  0  0  0  0  0  0  0  0  0  0
   36.6820   32.5260   39.3560 F   0  0  0  0  0  0  0  0  0  0  0  0
   38.7630   32.6910   38.6230 F   0  0  0  0  0  0  0  0  0  0  0  0
   37.9550   34.1510   40.2060 F   0  0  0  0  0  0  0  0  0  0  0  0
  1  9  1  0  0  0  0
  1  6  1  0  0  0  0
  2  1  2  0  0  0  0
  3  2  1  0  0  0  0
  3  4  2  0  0  0  0
  4  5  1  0  0  0  0
  5  6  2  0  0  0  0
  5 11  1  0  0  0  0
  7  9  1  0  0  0  0
  8  7  2  0  0  0  0
  9 12  1  0  0  0  0
 10  2  1  0  0  0  0
 13  7  1  0  0  0  0
 13 14  1  0  0  0  0
 14 15  1  0  0  0  0
 16 14  2  0  0  0  0
 16 17  1  0  0  0  0
 18 16  1  0  0  0  0
 19 20  1  0  0  0  0
 19 18  2  0  0  0  0
 20 13  2  0  0  0  0
 21 24  1  0  0  0  0
 21  3  1  0  0  0  0
 22 21  1  0  0  0  0
 23 21  1  0  0  0  0
M  END
>  <minimizedAffinity>
-4.95040321

$$$$

 OpenBabel03252503293D

 24 25  0  0  0  0  0  0  0  0999 V2000
   38.6870   29.8040   39.2940 C   0  0  0  0  0  0  0  0  0  0  0  0
   38.8310   31.0640   39.9100 C   0  0  0  0  0  0  0  0  0  0  0  0
   38.2210   32.1470   39.2550 C   0  0  0  0  0  0  0  0  0  0  0  0
   37.5530   31.9130   38.1050 N   0  0  0  0  0  0  0  0  0  0  0  0
   37.4470   30.6860   37.5620 C   0  0  0  0  0  0  0  0  0  0  0  0
   38.0170   29.6210   38.1550 N   0  0  0  0  0  0  0  0  0  0  0  0
   38.5320   28.2040   41.0140 C   0  0  0  0  0  0  0  0  0  0  0  0
   37.4870   28.8660   41.3390 O   0  0  0  0  0  0  0  0  0  0  0  0
   39.2710   28.6400   39.8800 N   0  0  0  0  0  0  0  0  0  0  0  0
   39.3920   31.0570   40.8120 H   0  0  0  0  0  0  0  0  0  0  0  0
   36.9050   30.5260   36.6370 H   0  0  0  0  0  0  0  0  0  0  0  0
   40.1310   28.0840   39.6060 H   0  0  0  0  0  0  0  0  0  0  0  0
   38.9640   27.0250   41.7830 C   0  0  0  0  0  0  0  0  0  0  0  0
   39.4860   27.2400   43.0440 C   0  0  0  0  0  0  0  0  0  0  0  0
   39.6060   28.2020   43.5220 H   0  0  0  0  0  0  0  0  0  0  0  0
   39.8600   26.0680   43.6770 C   0  0  0  0  0  0  0  0  0  0  0  0
   40.2860   26.1340   44.6830 H   0  0  0  0  0  0  0  0  0  0  0  0
   39.7480   24.7940   43.1580 C   0  0  0  0  0  3  0  0  0  0  0  0
   39.2120   24.6750   41.8800 C   0  0  0  0  0  3  0  0  0  0  0  0
   38.8390   25.8130   41.2440 N   0  0  0  0  0  0  0  0  0  0  0  0
   38.3890   33.4400   39.9200 C   0  0  0  0  0  0  0  0  0  0  0  0
   38.5340   33.2130   41.2910 F   0  0  0  0  0  0  0  0  0  0  0  0
   37.1950   34.1300   39.7880 F   0  0  0  0  0  0  0  0  0  0  0  0
   39.4760   34.1360   39.4920 F   0  0  0  0  0  0  0  0  0  0  0  0
  1  9  1  0  0  0  0
  1  2  1  0  0  0  0
  2 10  1  0  0  0  0
  3  2  2  0  0  0  0
  3 21  1  0  0  0  0
  4  3  1  0  0  0  0
  5  4  2  0  0  0  0
  5  6  1  0  0  0  0
  6  1  2  0  0  0  0
  7  8  2  0  0  0  0
  7 13  1  0  0  0  0
  9  7  1  0  0  0  0
 11  5  1  0  0  0  0
 12  9  1  0  0  0  0
 13 14  1  0  0  0  0
 14 15  1  0  0  0  0
 14 16  2  0  0  0  0
 16 17  1  0  0  0  0
 18 16  1  0  0  0  0
 19 18  2  0  0  0  0
 20 13  2  0  0  0  0
 20 19  1  0  0  0  0
 21 22  1  0  0  0  0
 23 21  1  0  0  0  0
 24 21  1  0  0  0  0
M  END
>  <minimizedAffinity>
-4.8832345

$$$$

 OpenBabel03252503293D

 24 25  0  0  0  0  0  0  0  0999 V2000
   36.9660   29.1150   39.9280 C   0  0  0  0  0  0  0  0  0  0  0  0
   36.8870   27.9970   40.7840 C   0  0  0  0  0  0  0  0  0  0  0  0
   37.4430   28.1550   42.0640 C   0  0  0  0  0  0  0  0  0  0  0  0
   38.0040   29.3420   42.3810 N   0  0  0  0  0  0  0  0  0  0  0  0
   38.0510   30.3780   41.5230 C   0  0  0  0  0  0  0  0  0  0  0  0
   37.5310   30.2680   40.2870 N   0  0  0  0  0  0  0  0  0  0  0  0
   35.0100   29.1260   38.6170 C   0  0  0  0  0  0  0  0  0  0  0  0
   34.4260   29.2420   39.7490 O   0  0  0  0  0  0  0  0  0  0  0  0
   36.4300   29.0540   38.6060 N   0  0  0  0  0  0  0  0  0  0  0  0
   36.4100   27.1460   40.3620 H   0  0  0  0  0  0  0  0  0  0  0  0
   38.5070   31.3200   41.8030 H   0  0  0  0  0  0  0  0  0  0  0  0
   36.9150   28.9680   37.6660 H   0  0  0  0  0  0  0  0  0  0  0  0
   34.2460   29.0670   37.3600 C   0  0  0  0  0  0  0  0  0  0  0  0
   32.8750   29.2160   37.4370 C   0  0  0  0  0  0  0  0  0  0  0  0
   32.3070   29.3750   38.3430 H   0  0  0  0  0  0  0  0  0  0  0  0
   32.2570   29.1440   36.2010 C   0  0  0  0  0  0  0  0  0  0  0  0
   31.1680   29.2510   36.1570 H   0  0  0  0  0  0  0  0  0  0  0  0
   32.8860   28.9460   34.9900 C   0  0  0  0  0  3  0  0  0  0  0  0
   34.2700   28.8040   35.0100 C   0  0  0  0  0  3  0  0  0  0  0  0
   34.8940   28.8730   36.2120 N   0  0  0  0  0  0  0  0  0  0  0  0
   37.3440   26.9770   42.9270 C   0  0  0  0  0  0  0  0  0  0  0  0
   37.1410   25.8560   42.1180 F   0  0  0  0  0  0  0  0  0  0  0  0
   36.1820   27.1070   43.6700 F   0  0  0  0  0  0  0  0  0  0  0  0
   38.4560   26.7570   43.6790 F   0  0  0  0  0  0  0  0  0  0  0  0
  1  6  2  0  0  0  0
  1  2  1  0  0  0  0
  2  3  2  0  0  0  0
  3  4  1  0  0  0  0
  3 21  1  0  0  0  0
  5 11  1  0  0  0  0
  5  4  2  0  0  0  0
  6  5  1  0  0  0  0
  7  8  2  0  0  0  0
  9  7  1  0  0  0  0
  9  1  1  0  0  0  0
 10  2  1  0  0  0  0
 12  9  1  0  0  0  0
 13 14  1  0  0  0  0
 13  7  1  0  0  0  0
 14 15  1  0  0  0  0
 16 14  2  0  0  0  0
 17 16  1  0  0  0  0
 18 19  2  0  0  0  0
 18 16  1  0  0  0  0
 19 20  1  0  0  0  0
 20 13  2  0  0  0  0
 21 23  1  0  0  0  0
 21 24  1  0  0  0  0
 22 21  1  0  0  0  0
M  END
>  <minimizedAffinity>
-4.86161852

$$$$

 OpenBabel03252503293D

 24 25  0  0  0  0  0  0  0  0999 V2000
   37.3260   31.0920   37.6150 C   0  0  0  0  0  0  0  0  0  0  0  0
   36.7330   30.6750   38.8240 C   0  0  0  0  0  0  0  0  0  0  0  0
   35.7650   29.6620   38.7220 C   0  0  0  0  0  0  0  0  0  0  0  0
   35.4760   29.1660   37.4990 N   0  0  0  0  0  0  0  0  0  0  0  0
   36.0760   29.6020   36.3770 C   0  0  0  0  0  0  0  0  0  0  0  0
   37.0070   30.5720   36.4290 N   0  0  0  0  0  0  0  0  0  0  0  0
   39.5680   31.6320   38.0920 C   0  0  0  0  0  0  0  0  0  0  0  0
   39.6400   30.4020   38.4350 O   0  0  0  0  0  0  0  0  0  0  0  0
   38.3200   32.1170   37.6120 N   0  0  0  0  0  0  0  0  0  0  0  0
   37.0850   31.1790   39.6900 H   0  0  0  0  0  0  0  0  0  0  0  0
   35.8250   29.1870   35.4080 H   0  0  0  0  0  0  0  0  0  0  0  0
   38.2640   33.1350   37.3180 H   0  0  0  0  0  0  0  0  0  0  0  0
   40.7340   32.5260   38.1880 C   0  0  0  0  0  0  0  0  0  0  0  0
   40.8090   33.3660   39.2820 C   0  0  0  0  0  0  0  0  0  0  0  0
   40.0840   33.4260   40.0810 H   0  0  0  0  0  0  0  0  0  0  0  0
   41.9410   34.1610   39.2720 C   0  0  0  0  0  0  0  0  0  0  0  0
   42.0910   34.8620   40.0990 H   0  0  0  0  0  0  0  0  0  0  0  0
   42.9240   34.1600   38.3050 C   0  0  0  0  0  3  0  0  0  0  0  0
   42.7640   33.2810   37.2380 C   0  0  0  0  0  3  0  0  0  0  0  0
   41.6600   32.4930   37.2300 N   0  0  0  0  0  0  0  0  0  0  0  0
   35.1680   29.2520   39.9940 C   0  0  0  0  0  0  0  0  0  0  0  0
   35.5410   30.1780   40.9720 F   0  0  0  0  0  0  0  0  0  0  0  0
   35.7720   28.0630   40.3680 F   0  0  0  0  0  0  0  0  0  0  0  0
   33.8100   29.1940   39.9660 F   0  0  0  0  0  0  0  0  0  0  0  0
  1  2  1  0  0  0  0
  2 10  1  0  0  0  0
  3  2  2  0  0  0  0
  3 21  1  0  0  0  0
  4  3  1  0  0  0  0
  5  6  1  0  0  0  0
  5  4  2  0  0  0  0
  6  1  2  0  0  0  0
  7 13  1  0  0  0  0
  7  8  2  0  0  0  0
  9  1  1  0  0  0  0
  9  7  1  0  0  0  0
 11  5  1  0  0  0  0
 12  9  1  0  0  0  0
 13 14  1  0  0  0  0
 14 15  1  0  0  0  0
 16 14  2  0  0  0  0
 16 17  1  0  0  0  0
 18 16  1  0  0  0  0
 19 18  2  0  0  0  0
 20 19  1  0  0  0  0
 20 13  2  0  0  0  0
 21 23  1  0  0  0  0
 21 22  1  0  0  0  0
 24 21  1  0  0  0  0
M  END
>  <minimizedAffinity>
-4.84392881

$$$$

 OpenBabel03252503293D

 24 25  0  0  0  0  0  0  0  0999 V2000
   37.6570   29.6170   39.9480 C   0  0  0  0  0  0  0  0  0  0  0  0
   37.8020   29.2030   41.2880 C   0  0  0  0  0  0  0  0  0  0  0  0
   37.2220   27.9670   41.6200 C   0  0  0  0  0  0  0  0  0  0  0  0
   36.5790   27.2750   40.6550 N   0  0  0  0  0  0  0  0  0  0  0  0
   36.4720   27.7200   39.3900 C   0  0  0  0  0  0  0  0  0  0  0  0
   37.0110   28.8980   39.0280 N   0  0  0  0  0  0  0  0  0  0  0  0
   39.6230   30.7750   39.3620 C   0  0  0  0  0  0  0  0  0  0  0  0
   40.1850   29.6540   39.6150 O   0  0  0  0  0  0  0  0  0  0  0  0
   38.2110   30.8580   39.5100 N   0  0  0  0  0  0  0  0  0  0  0  0
   38.3400   29.8780   41.9060 H   0  0  0  0  0  0  0  0  0  0  0  0
   35.9490   27.1450   38.6340 H   0  0  0  0  0  0  0  0  0  0  0  0
   37.7440   31.7850   39.2900 H   0  0  0  0  0  0  0  0  0  0  0  0
   40.4030   31.9460   38.9320 C   0  0  0  0  0  0  0  0  0  0  0  0
   40.3120   33.0920   39.6970 C   0  0  0  0  0  0  0  0  0  0  0  0
   39.7160   33.2080   40.5910 H   0  0  0  0  0  0  0  0  0  0  0  0
   41.0830   34.1300   39.2040 C   0  0  0  0  0  0  0  0  0  0  0  0
   41.0780   35.0830   39.7420 H   0  0  0  0  0  0  0  0  0  0  0  0
   41.8770   34.0860   38.0770 C   0  0  0  0  0  3  0  0  0  0  0  0
   41.9060   32.8890   37.3670 C   0  0  0  0  0  3  0  0  0  0  0  0
   41.1560   31.8600   37.8360 N   0  0  0  0  0  0  0  0  0  0  0  0
   37.3910   27.5660   43.0180 C   0  0  0  0  0  0  0  0  0  0  0  0
   36.1240   27.4450   43.5960 F   0  0  0  0  0  0  0  0  0  0  0  0
   37.9960   28.6220   43.6790 F   0  0  0  0  0  0  0  0  0  0  0  0
   38.0370   26.3790   43.1700 F   0  0  0  0  0  0  0  0  0  0  0  0
  1  2  1  0  0  0  0
  2  3  2  0  0  0  0
  2 10  1  0  0  0  0
  3 21  1  0  0  0  0
  4  3  1  0  0  0  0
  5  4  2  0  0  0  0
  6  5  1  0  0  0  0
  6  1  2  0  0  0  0
  7  9  1  0  0  0  0
  7  8  2  0  0  0  0
  9  1  1  0  0  0  0
 11  5  1  0  0  0  0
 12  9  1  0  0  0  0
 13  7  1  0  0  0  0
 13 14  1  0  0  0  0
 14 15  1  0  0  0  0
 16 14  2  0  0  0  0
 16 17  1  0  0  0  0
 18 16  1  0  0  0  0
 19 20  1  0  0  0  0
 19 18  2  0  0  0  0
 20 13  2  0  0  0  0
 21 24  1  0  0  0  0
 21 22  1  0  0  0  0
 21 23  1  0  0  0  0
M  END
>  <minimizedAffinity>
-4.70824337

$$$$

 OpenBabel03252503293D

 24 25  0  0  0  0  0  0  0  0999 V2000
   38.1460   28.5860   42.3550 C   0  0  0  0  0  0  0  0  0  0  0  0
   38.2170   27.5010   41.4570 C   0  0  0  0  0  0  0  0  0  0  0  0
   37.4010   26.3960   41.7540 C   0  0  0  0  0  0  0  0  0  0  0  0
   36.6210   26.4480   42.8560 N   0  0  0  0  0  0  0  0  0  0  0  0
   36.5940   27.5120   43.6790 C   0  0  0  0  0  0  0  0  0  0  0  0
   37.3600   28.5900   43.4330 N   0  0  0  0  0  0  0  0  0  0  0  0
   38.4100   30.5540   41.0890 C   0  0  0  0  0  0  0  0  0  0  0  0
   37.3440   30.1500   40.5080 O   0  0  0  0  0  0  0  0  0  0  0  0
   38.9370   29.7550   42.1410 N   0  0  0  0  0  0  0  0  0  0  0  0
   38.8870   27.6390   40.6450 H   0  0  0  0  0  0  0  0  0  0  0  0
   35.9590   27.5270   44.5580 H   0  0  0  0  0  0  0  0  0  0  0  0
   39.8150   30.0960   42.6290 H   0  0  0  0  0  0  0  0  0  0  0  0
   39.0770   31.8030   40.6880 C   0  0  0  0  0  0  0  0  0  0  0  0
   40.4110   31.7330   40.3380 C   0  0  0  0  0  0  0  0  0  0  0  0
   41.0140   30.8370   40.3290 H   0  0  0  0  0  0  0  0  0  0  0  0
   40.9380   32.9610   39.9800 C   0  0  0  0  0  0  0  0  0  0  0  0
   41.9910   33.0090   39.6850 H   0  0  0  0  0  0  0  0  0  0  0  0
   40.2560   34.1600   39.9550 C   0  0  0  0  0  3  0  0  0  0  0  0
   38.9150   34.1350   40.3260 C   0  0  0  0  0  3  0  0  0  0  0  0
   38.3810   32.9400   40.6800 N   0  0  0  0  0  0  0  0  0  0  0  0
   37.4970   25.2880   40.8030 C   0  0  0  0  0  0  0  0  0  0  0  0
   36.6910   24.2430   41.2630 F   0  0  0  0  0  0  0  0  0  0  0  0
   38.7930   24.8040   40.8640 F   0  0  0  0  0  0  0  0  0  0  0  0
   37.0890   25.6120   39.5460 F   0  0  0  0  0  0  0  0  0  0  0  0
  1  6  1  0  0  0  0
  2  3  1  0  0  0  0
  2  1  2  0  0  0  0
  3  4  2  0  0  0  0
  4  5  1  0  0  0  0
  5 11  1  0  0  0  0
  6  5  2  0  0  0  0
  7  9  1  0  0  0  0
  8  7  2  0  0  0  0
  9  1  1  0  0  0  0
  9 12  1  0  0  0  0
 10  2  1  0  0  0  0
 13  7  1  0  0  0  0
 14 13  2  0  0  0  0
 15 14  1  0  0  0  0
 16 14  1  0  0  0  0
 17 16  1  0  0  0  0
 18 16  2  0  0  0  0
 18 19  1  0  0  0  0
 19 20  2  0  0  0  0
 20 13  1  0  0  0  0
 21 23  1  0  0  0  0
 21 22  1  0  0  0  0
 21  3  1  0  0  0  0
 24 21  1  0  0  0  0
M  END
>  <minimizedAffinity>
-4.69236088

$$$$

 OpenBabel03252503293D

 24 25  0  0  0  0  0  0  0  0999 V2000
   35.7490   29.7510   40.4000 C   0  0  0  0  0  0  0  0  0  0  0  0
   36.3650   30.9700   40.0500 C   0  0  0  0  0  0  0  0  0  0  0  0
   37.5120   31.3170   40.7850 C   0  0  0  0  0  0  0  0  0  0  0  0
   37.9350   30.4780   41.7550 N   0  0  0  0  0  0  0  0  0  0  0  0
   37.3050   29.3250   42.0460 C   0  0  0  0  0  0  0  0  0  0  0  0
   36.2040   28.9550   41.3680 N   0  0  0  0  0  0  0  0  0  0  0  0
   34.8910   28.8130   38.4170 C   0  0  0  0  0  0  0  0  0  0  0  0
   36.1190   28.8150   38.0570 O   0  0  0  0  0  0  0  0  0  0  0  0
   34.5780   29.3100   39.7120 N   0  0  0  0  0  0  0  0  0  0  0  0
   35.8910   31.4990   39.2610 H   0  0  0  0  0  0  0  0  0  0  0  0
   37.6660   28.6700   42.8300 H   0  0  0  0  0  0  0  0  0  0  0  0
   33.5610   29.2990   40.0140 H   0  0  0  0  0  0  0  0  0  0  0  0
   33.8300   28.3170   37.5260 C   0  0  0  0  0  0  0  0  0  0  0  0
   32.8350   29.2020   37.1590 C   0  0  0  0  0  0  0  0  0  0  0  0
   32.7660   30.2360   37.4680 H   0  0  0  0  0  0  0  0  0  0  0  0
   31.8910   28.6340   36.3230 C   0  0  0  0  0  0  0  0  0  0  0  0
   31.0610   29.2570   35.9770 H   0  0  0  0  0  0  0  0  0  0  0  0
   31.8880   27.3310   35.8700 C   0  0  0  0  0  3  0  0  0  0  0  0
   32.9300   26.5100   36.2930 C   0  0  0  0  0  3  0  0  0  0  0  0
   33.8650   27.0510   37.1130 N   0  0  0  0  0  0  0  0  0  0  0  0
   38.1280   32.5870   40.3980 C   0  0  0  0  0  0  0  0  0  0  0  0
   37.1230   33.4370   39.9270 F   0  0  0  0  0  0  0  0  0  0  0  0
   38.9370   32.3350   39.3030 F   0  0  0  0  0  0  0  0  0  0  0  0
   38.7660   33.2170   41.4200 F   0  0  0  0  0  0  0  0  0  0  0  0
  1  6  1  0  0  0  0
  2  1  2  0  0  0  0
  2  3  1  0  0  0  0
  3  4  2  0  0  0  0
  4  5  1  0  0  0  0
  5 11  1  0  0  0  0
  6  5  2  0  0  0  0
  7  9  1  0  0  0  0
  8  7  2  0  0  0  0
  9 12  1  0  0  0  0
  9  1  1  0  0  0  0
 10  2  1  0  0  0  0
 13  7  1  0  0  0  0
 14 15  1  0  0  0  0
 14 13  1  0  0  0  0
 16 14  2  0  0  0  0
 17 16  1  0  0  0  0
 18 19  2  0  0  0  0
 18 16  1  0  0  0  0
 19 20  1  0  0  0  0
 20 13  2  0  0  0  0
 21  3  1  0  0  0  0
 21 24  1  0  0  0  0
 22 21  1  0  0  0  0
 23 21  1  0  0  0  0
M  END
>  <minimizedAffinity>
-4.67539358

$$$$
