
 OpenBabel03252508493D

 27 29  0  0  0  0  0  0  0  0999 V2000
   45.9540   34.1900   41.0420 C   0  0  0  0  0  0  0  0  0  0  0  0
   46.5370   34.8050   42.1440 C   0  0  0  0  0  0  0  0  0  0  0  0
   47.8800   35.1680   42.0080 C   0  0  0  0  0  0  0  0  0  0  0  0
   48.5300   34.9130   40.8470 N   0  0  0  0  0  0  0  0  0  0  0  0
   47.9120   34.3120   39.8100 C   0  0  0  0  0  0  0  0  0  0  0  0
   46.6200   33.9490   39.9040 N   0  0  0  0  0  0  0  0  0  0  0  0
   48.3550   35.6460   42.8480 H   0  0  0  0  0  0  0  0  0  0  0  0
   48.5010   34.1450   38.9170 H   0  0  0  0  0  0  0  0  0  0  0  0
   45.7610   35.0400   43.3440 C   0  0  0  0  0  0  0  0  0  0  0  0
   45.0770   36.2340   43.5710 C   0  0  0  0  0  0  0  0  0  0  0  0
   44.4900   36.0360   44.7990 C   0  0  0  0  0  0  0  0  0  0  0  0
   44.7940   34.8040   45.2890 N   0  0  0  0  0  0  0  0  0  0  0  0
   45.5620   34.2390   44.3800 N   0  0  0  0  0  0  0  0  0  0  0  0
   44.9720   37.1440   42.9930 H   0  0  0  0  0  0  0  0  0  0  0  0
   43.8540   36.7010   45.3870 H   0  0  0  0  0  0  0  0  0  0  0  0
   44.5200   34.3350   46.1800 H   0  0  0  0  0  0  0  0  0  0  0  0
   44.6250   33.8120   41.1330 O   0  0  0  0  0  0  0  0  0  0  0  0
   43.5440   34.4440   40.5930 C   0  0  0  0  0  0  0  0  0  0  0  0
   43.2030   35.6700   40.7380 O   0  0  0  0  0  0  0  0  0  0  0  0
   42.5540   33.7560   39.7120 C   0  0  0  0  0  0  0  0  0  0  0  0
   42.9250   32.7140   38.8950 C   0  0  0  0  0  0  0  0  0  0  0  0
   43.9390   32.3440   38.8500 H   0  0  0  0  0  0  0  0  0  0  0  0
   42.0500   32.0370   38.0520 C   0  0  0  0  0  0  0  0  0  0  0  0
   42.3710   31.2230   37.4230 H   0  0  0  0  0  0  0  0  0  0  0  0
   40.7310   32.4290   38.0310 C   0  0  0  0  0  3  0  0  0  0  0  0
   40.3910   33.4740   38.8600 C   0  0  0  0  0  3  0  0  0  0  0  0
   41.2740   34.0810   39.6430 N   0  0  0  0  0  0  0  0  0  0  0  0
  1 17  1  0  0  0  0
  1  2  1  0  0  0  0
  2  9  1  0  0  0  0
  3  2  2  0  0  0  0
  3  7  1  0  0  0  0
  4  3  1  0  0  0  0
  5  6  1  0  0  0  0
  5  4  2  0  0  0  0
  6  1  2  0  0  0  0
  8  5  1  0  0  0  0
  9 10  1  0  0  0  0
  9 13  2  0  0  0  0
 10 11  2  0  0  0  0
 11 12  1  0  0  0  0
 11 15  1  0  0  0  0
 12 16  1  0  0  0  0
 13 12  1  0  0  0  0
 14 10  1  0  0  0  0
 18 19  2  0  0  0  0
 18 17  1  0  0  0  0
 20 18  1  0  0  0  0
 21 20  2  0  0  0  0
 22 21  1  0  0  0  0
 23 21  1  0  0  0  0
 24 23  1  0  0  0  0
 25 23  2  0  0  0  0
 25 26  1  0  0  0  0
 26 27  2  0  0  0  0
 27 20  1  0  0  0  0
M  END
>  <minimizedAffinity>
-5.20914936

>  <minimizedRMSD>
0.425696313

$$$$
