
 OpenBabel03242520183D

 34 36  0  0  0  0  0  0  0  0999 V2000
   41.0200   35.8630   39.3260 C   0  0  0  0  0  0  0  0  0  0  0  0
   41.2050   36.9550   39.2740 H   0  0  0  0  0  0  0  0  0  0  0  0
   40.8100   35.5320   38.3030 H   0  0  0  0  0  0  0  0  0  0  0  0
   43.9010   34.6720   41.4620 C   0  0  0  0  0  0  0  0  0  0  0  0
   42.7680   35.4000   41.0410 C   0  0  0  0  0  0  0  0  0  0  0  0
   42.2180   35.1280   39.8000 C   0  0  0  0  0  0  0  0  0  0  0  0
   42.8270   34.1490   39.0490 N   0  0  0  0  0  0  0  0  0  0  0  0
   43.9160   33.4790   39.5030 C   0  0  0  0  0  0  0  0  0  0  0  0
   44.4480   33.7360   40.6970 N   0  0  0  0  0  0  0  0  0  0  0  0
   42.3770   36.1370   41.6980 H   0  0  0  0  0  0  0  0  0  0  0  0
   44.2860   32.7280   38.7900 H   0  0  0  0  0  0  0  0  0  0  0  0
   44.4990   34.9670   42.7930 C   0  0  0  0  0  0  0  0  0  0  0  0
   46.0280   35.3230   42.6840 C   0  0  0  0  0  0  0  0  0  0  0  0
   44.9980   36.2330   43.1940 C   0  0  0  0  0  0  0  0  0  0  0  0
   44.3670   34.0680   43.4700 H   0  0  0  0  0  0  0  0  0  0  0  0
   46.6970   34.8590   43.4110 H   0  0  0  0  0  0  0  0  0  0  0  0
   46.4290   35.4840   41.6730 H   0  0  0  0  0  0  0  0  0  0  0  0
   45.0130   36.4550   44.3020 H   0  0  0  0  0  0  0  0  0  0  0  0
   44.6560   37.1450   42.6470 H   0  0  0  0  0  0  0  0  0  0  0  0
   39.8540   35.6300   40.2770 C   0  0  0  0  0  0  0  0  0  0  0  0
   39.1370   36.4960   40.2340 H   0  0  0  0  0  0  0  0  0  0  0  0
   40.2640   35.6360   41.2890 H   0  0  0  0  0  0  0  0  0  0  0  0
   39.2410   33.3470   40.8830 C   0  0  0  0  0  0  0  0  0  0  0  0
   39.8110   33.4190   42.0120 O   0  0  0  0  0  0  0  0  0  0  0  0
   39.1250   34.4190   39.9640 N   0  0  0  0  0  0  0  0  0  0  0  0
   38.5560   34.3800   39.0940 H   0  0  0  0  0  0  0  0  0  0  0  0
   38.6370   32.0600   40.4590 C   0  0  0  0  0  0  0  0  0  0  0  0
   38.8090   31.6330   39.1490 C   0  0  0  0  0  0  0  0  0  0  0  0
   39.3850   32.2710   38.4850 H   0  0  0  0  0  0  0  0  0  0  0  0
   38.3040   30.4620   38.6230 C   0  0  0  0  0  0  0  0  0  0  0  0
   38.4740   30.1860   37.5910 H   0  0  0  0  0  0  0  0  0  0  0  0
   37.5690   29.6700   39.5030 C   0  0  0  0  0  0  0  0  0  0  0  0
   37.4220   30.1280   40.7950 C   0  0  0  0  0  0  0  0  0  0  0  0
   37.9260   31.2760   41.2820 N   0  0  0  0  0  0  0  0  0  0  0  0
  1  6  1  0  0  0  0
  1 20  1  0  0  0  0
  2  1  1  0  0  0  0
  3  1  1  0  0  0  0
  4 12  1  0  0  0  0
  5  4  1  0  0  0  0
  5 10  1  0  0  0  0
  6  5  2  0  0  0  0
  7  8  2  0  0  0  0
  7  6  1  0  0  0  0
  8  9  1  0  0  0  0
  9  4  2  0  0  0  0
 11  8  1  0  0  0  0
 12 14  1  0  0  0  0
 12 15  1  0  0  0  0
 13 12  1  0  0  0  0
 13 14  1  0  0  0  0
 13 16  1  0  0  0  0
 14 18  1  0  0  0  0
 17 13  1  0  0  0  0
 19 14  1  0  0  0  0
 20 22  1  0  0  0  0
 21 20  1  0  0  0  0
 23 24  2  0  0  0  0
 25 20  1  0  0  0  0
 25 23  1  0  0  0  0
 26 25  1  0  0  0  0
 27 23  1  0  0  0  0
 27 34  1  0  0  0  0
 28 27  2  0  0  0  0
 29 28  1  0  0  0  0
 30 28  1  0  0  0  0
 30 32  2  0  0  0  0
 31 30  1  0  0  0  0
 32 33  1  0  0  0  0
 33 34  2  0  0  0  0
M  END
>  <minimizedAffinity>
-5.16051149

>  <minimizedRMSD>
0.510869324

$$$$
