
 OpenBabel03252508493D

 27 29  0  0  0  0  0  0  0  0999 V2000
   45.9460   34.2240   41.0300 C   0  0  0  0  0  0  0  0  0  0  0  0
   46.5390   34.7970   42.1500 C   0  0  0  0  0  0  0  0  0  0  0  0
   47.8960   35.1140   42.0330 C   0  0  0  0  0  0  0  0  0  0  0  0
   48.5480   34.8580   40.8730 N   0  0  0  0  0  0  0  0  0  0  0  0
   47.9190   34.3000   39.8190 C   0  0  0  0  0  0  0  0  0  0  0  0
   46.6140   33.9810   39.8940 N   0  0  0  0  0  0  0  0  0  0  0  0
   48.3790   35.5600   42.8870 H   0  0  0  0  0  0  0  0  0  0  0  0
   48.5110   34.1280   38.9290 H   0  0  0  0  0  0  0  0  0  0  0  0
   45.7610   35.0370   43.3460 C   0  0  0  0  0  0  0  0  0  0  0  0
   45.1060   36.2460   43.5830 C   0  0  0  0  0  0  0  0  0  0  0  0
   44.5040   36.0480   44.8040 C   0  0  0  0  0  0  0  0  0  0  0  0
   44.7720   34.8020   45.2810 N   0  0  0  0  0  0  0  0  0  0  0  0
   45.5320   34.2290   44.3700 N   0  0  0  0  0  0  0  0  0  0  0  0
   45.0300   37.1660   43.0170 H   0  0  0  0  0  0  0  0  0  0  0  0
   43.8810   36.7220   45.3950 H   0  0  0  0  0  0  0  0  0  0  0  0
   44.4780   34.3300   46.1630 H   0  0  0  0  0  0  0  0  0  0  0  0
   44.6030   33.8930   41.1020 O   0  0  0  0  0  0  0  0  0  0  0  0
   43.5470   34.6010   40.6110 C   0  0  0  0  0  0  0  0  0  0  0  0
   43.2710   35.8350   40.8160 O   0  0  0  0  0  0  0  0  0  0  0  0
   42.5080   34.0040   39.7200 C   0  0  0  0  0  0  0  0  0  0  0  0
   41.5950   34.7910   39.0570 C   0  0  0  0  0  0  0  0  0  0  0  0
   41.5840   35.8680   39.1440 H   0  0  0  0  0  0  0  0  0  0  0  0
   40.6030   34.2930   38.2180 C   0  0  0  0  0  0  0  0  0  0  0  0
   39.9020   34.9330   37.7120 H   0  0  0  0  0  0  0  0  0  0  0  0
   40.5280   32.9290   38.0370 C   0  0  0  0  0  3  0  0  0  0  0  0
   41.4540   32.1710   38.7130 C   0  0  0  0  0  3  0  0  0  0  0  0
   42.3780   32.7070   39.5020 N   0  0  0  0  0  0  0  0  0  0  0  0
  1 17  1  0  0  0  0
  1  2  1  0  0  0  0
  2  9  1  0  0  0  0
  3  2  2  0  0  0  0
  3  7  1  0  0  0  0
  4  3  1  0  0  0  0
  5  6  1  0  0  0  0
  5  4  2  0  0  0  0
  6  1  2  0  0  0  0
  8  5  1  0  0  0  0
  9 10  1  0  0  0  0
  9 13  2  0  0  0  0
 10 11  2  0  0  0  0
 11 12  1  0  0  0  0
 11 15  1  0  0  0  0
 12 16  1  0  0  0  0
 13 12  1  0  0  0  0
 14 10  1  0  0  0  0
 18 19  2  0  0  0  0
 18 17  1  0  0  0  0
 20 18  1  0  0  0  0
 21 22  1  0  0  0  0
 21 20  2  0  0  0  0
 23 21  1  0  0  0  0
 24 23  1  0  0  0  0
 25 23  2  0  0  0  0
 25 26  1  0  0  0  0
 26 27  2  0  0  0  0
 27 20  1  0  0  0  0
M  END
>  <minimizedAffinity>
-5.40581512

>  <minimizedRMSD>
0.625642717

$$$$
