
 OpenBabel03242518493D

 22 23  0  0  0  0  0  0  0  0999 V2000
   44.5570   36.1290   44.2690 C   0  0  0  0  0  0  0  0  0  0  0  0
   45.3790   35.9600   43.1290 C   0  0  0  0  0  0  0  0  0  0  0  0
   46.2460   34.8670   43.1760 C   0  0  0  0  0  0  0  0  0  0  0  0
   46.2640   34.0530   44.2610 N   0  0  0  0  0  0  0  0  0  0  0  0
   45.4460   34.2700   45.3260 C   0  0  0  0  0  0  0  0  0  0  0  0
   44.5940   35.3070   45.3300 N   0  0  0  0  0  0  0  0  0  0  0  0
   43.8580   36.9480   44.3180 H   0  0  0  0  0  0  0  0  0  0  0  0
   45.2950   36.6610   42.3110 H   0  0  0  0  0  0  0  0  0  0  0  0
   47.0770   34.6930   41.9860 C   0  0  0  0  0  0  0  0  0  0  0  0
   47.8810   33.5540   42.1410 F   0  0  0  0  0  0  0  0  0  0  0  0
   47.9570   35.7550   41.9410 F   0  0  0  0  0  0  0  0  0  0  0  0
   46.3660   34.5330   40.8290 F   0  0  0  0  0  0  0  0  0  0  0  0
   45.4520   33.3860   46.4750 C   0  0  0  0  0  0  0  0  0  0  0  0
   44.8040   33.6280   47.5120 O   0  0  0  0  0  0  0  0  0  0  0  0
   46.2450   32.1430   46.4480 C   0  0  0  0  0  0  0  0  0  0  0  0
   47.2360   31.9890   47.4040 C   0  0  0  0  0  0  0  0  0  0  0  0
   47.4340   32.7520   48.1570 H   0  0  0  0  0  0  0  0  0  0  0  0
   47.9770   30.8190   47.3730 C   0  0  0  0  0  0  0  0  0  0  0  0
   48.7460   30.7310   48.1370 H   0  0  0  0  0  0  0  0  0  0  0  0
   47.7320   29.8520   46.4270 C   0  0  0  0  0  0  0  0  0  0  0  0
   46.7250   30.0830   45.5070 C   0  0  0  0  0  0  0  0  0  0  0  0
   46.0070   31.2000   45.5260 N   0  0  0  0  0  0  0  0  0  0  0  0
  1  7  1  0  0  0  0
  1  6  1  0  0  0  0
  2  3  1  0  0  0  0
  2  1  2  0  0  0  0
  3  4  2  0  0  0  0
  4  5  1  0  0  0  0
  5  6  2  0  0  0  0
  5 13  1  0  0  0  0
  8  2  1  0  0  0  0
  9 10  1  0  0  0  0
  9  3  1  0  0  0  0
 11  9  1  0  0  0  0
 12  9  1  0  0  0  0
 13 14  2  0  0  0  0
 15 13  1  0  0  0  0
 15 16  1  0  0  0  0
 16 17  1  0  0  0  0
 18 16  2  0  0  0  0
 18 19  1  0  0  0  0
 20 18  1  0  0  0  0
 21 22  1  0  0  0  0
 21 20  2  0  0  0  0
 22 15  2  0  0  0  0
M  END
>  <minimizedAffinity>
-5.10805845

>  <minimizedRMSD>
0.56773454

$$$$
