
 OpenBabel03242510243D

 37 40  0  0  1  0  0  0  0  0999 V2000
   39.5440   31.4060   39.9510 N   0  0  0  0  0  0  0  0  0  0  0  0
   40.2280   31.4560   41.1650 C   0  0  0  0  0  0  0  0  0  0  0  0
   41.0920   32.2680   41.5840 O   0  0  0  0  0  0  0  0  0  0  0  0
   39.4730   30.4330   39.5790 H   0  0  0  0  0  0  0  0  0  0  0  0
   37.5540   32.5930   39.0970 C   0  0  1  0  0  0  0  0  0  0  0  0
   37.9960   33.3310   40.2010 C   0  0  0  0  0  0  0  0  0  0  0  0
   39.0180   32.5620   39.3120 C   0  0  1  0  0  0  0  0  0  0  0  0
   37.1610   33.0650   38.1680 H   0  0  0  0  0  0  0  0  0  0  0  0
   38.0010   33.0690   41.2770 H   0  0  0  0  0  0  0  0  0  0  0  0
   38.0080   34.4610   40.1050 H   0  0  0  0  0  0  0  0  0  0  0  0
   39.7230   33.2860   38.8530 H   0  0  0  0  0  0  0  0  0  0  0  0
   36.3820   30.8820   40.6750 C   0  0  0  0  0  0  0  0  0  0  0  0
   36.8140   31.2740   39.3640 C   0  0  0  0  0  0  0  0  0  0  0  0
   36.5600   30.4030   38.3250 C   0  0  0  0  0  0  0  0  0  0  0  0
   35.9280   29.2380   38.5830 N   0  0  0  0  0  0  0  0  0  0  0  0
   35.5250   28.8800   39.8300 C   0  0  0  0  0  0  0  0  0  0  0  0
   35.7660   29.7400   40.9070 N   0  0  0  0  0  0  0  0  0  0  0  0
   36.5700   31.5820   41.4650 H   0  0  0  0  0  0  0  0  0  0  0  0
   36.8620   30.6470   37.3140 H   0  0  0  0  0  0  0  0  0  0  0  0
   35.0380   27.9210   39.8560 H   0  0  0  0  0  0  0  0  0  0  0  0
   39.9450   30.4010   42.2180 C   0  0  2  0  0  0  0  0  0  0  0  0
   40.9970   29.2410   42.3460 C   0  0  0  0  0  0  0  0  0  0  0  0
   39.6160   29.0180   41.8470 C   0  0  1  0  0  0  0  0  0  0  0  0
   39.6780   30.7550   43.2330 H   0  0  0  0  0  0  0  0  0  0  0  0
   41.7880   29.3190   41.5580 H   0  0  0  0  0  0  0  0  0  0  0  0
   41.2470   28.8770   43.3370 H   0  0  0  0  0  0  0  0  0  0  0  0
   39.3860   28.8380   40.7770 H   0  0  0  0  0  0  0  0  0  0  0  0
   38.6400   28.2850   42.7380 C   0  0  0  0  0  0  0  0  0  0  0  0
   38.0180   28.9060   43.5900 O   0  0  0  0  0  0  0  0  0  0  0  0
   38.4320   26.8450   42.5910 C   0  0  0  0  0  0  0  0  0  0  0  0
   37.1870   26.3570   42.2570 C   0  0  0  0  0  0  0  0  0  0  0  0
   36.3880   27.0780   42.1140 H   0  0  0  0  0  0  0  0  0  0  0  0
   36.9130   25.0120   42.1010 C   0  0  0  0  0  0  0  0  0  0  0  0
   35.9370   24.6240   41.8400 H   0  0  0  0  0  0  0  0  0  0  0  0
   38.0120   24.1690   42.3090 C   0  0  0  0  0  3  0  0  0  0  0  0
   39.2720   24.6160   42.6430 C   0  0  0  0  0  3  0  0  0  0  0  0
   39.4150   25.9470   42.7670 N   0  0  0  0  0  0  0  0  0  0  0  0
  1  2  1  0  0  0  0
  2  3  2  0  0  0  0
  2 21  1  0  0  0  0
  4  1  1  0  0  0  0
  5  8  1  6  0  0  0
  5  7  1  0  0  0  0
  5 13  1  0  0  0  0
  5  6  1  0  0  0  0
  6  9  1  0  0  0  0
  7 11  1  6  0  0  0
  7  1  1  0  0  0  0
  7  6  1  0  0  0  0
 10  6  1  0  0  0  0
 12 17  1  0  0  0  0
 12 18  1  0  0  0  0
 13 12  2  0  0  0  0
 14 15  2  0  0  0  0
 14 13  1  0  0  0  0
 15 16  1  0  0  0  0
 16 20  1  0  0  0  0
 16 17  2  0  0  0  0
 19 14  1  0  0  0  0
 21 22  1  0  0  0  0
 21 24  1  1  0  0  0
 22 26  1  0  0  0  0
 23 27  1  6  0  0  0
 23 21  1  0  0  0  0
 23 22  1  0  0  0  0
 23 28  1  0  0  0  0
 25 22  1  0  0  0  0
 28 29  2  0  0  0  0
 30 28  1  0  0  0  0
 30 37  1  0  0  0  0
 31 30  2  0  0  0  0
 32 31  1  0  0  0  0
 33 31  1  0  0  0  0
 33 35  2  0  0  0  0
 34 33  1  0  0  0  0
 35 36  1  0  0  0  0
 36 37  2  0  0  0  0
M  END
>  <minimizedAffinity>
-5.55895996

$$$$

 OpenBabel03242510243D

 37 40  0  0  1  0  0  0  0  0999 V2000
   37.7850   25.8150   39.6410 N   0  0  0  0  0  0  0  0  0  0  0  0
   36.6170   26.2170   38.9930 C   0  0  0  0  0  0  0  0  0  0  0  0
   35.7820   25.5540   38.3260 O   0  0  0  0  0  0  0  0  0  0  0  0
   38.5670   26.4910   39.4990 H   0  0  0  0  0  0  0  0  0  0  0  0
   37.8610   24.7580   41.8710 C   0  0  1  0  0  0  0  0  0  0  0  0
   36.6330   24.3840   41.3120 C   0  0  0  0  0  0  0  0  0  0  0  0
   37.8740   24.6150   40.3980 C   0  0  1  0  0  0  0  0  0  0  0  0
   38.4870   24.0670   42.4800 H   0  0  0  0  0  0  0  0  0  0  0  0
   35.7410   24.9970   41.0780 H   0  0  0  0  0  0  0  0  0  0  0  0
   36.3060   23.3060   41.4400 H   0  0  0  0  0  0  0  0  0  0  0  0
   38.1240   23.6690   39.8740 H   0  0  0  0  0  0  0  0  0  0  0  0
   39.2690   26.8590   42.4950 C   0  0  0  0  0  0  0  0  0  0  0  0
   38.0020   26.1910   42.4030 C   0  0  0  0  0  0  0  0  0  0  0  0
   36.8890   26.8800   42.8350 C   0  0  0  0  0  0  0  0  0  0  0  0
   37.0360   28.1320   43.3200 N   0  0  0  0  0  0  0  0  0  0  0  0
   38.2430   28.7510   43.4030 C   0  0  0  0  0  0  0  0  0  0  0  0
   39.3940   28.0820   42.9720 N   0  0  0  0  0  0  0  0  0  0  0  0
   40.1200   26.3150   42.1350 H   0  0  0  0  0  0  0  0  0  0  0  0
   35.9060   26.4270   42.7880 H   0  0  0  0  0  0  0  0  0  0  0  0
   38.1790   29.7440   43.8130 H   0  0  0  0  0  0  0  0  0  0  0  0
   36.2040   27.6760   39.0510 C   0  0  2  0  0  0  0  0  0  0  0  0
   36.8620   28.6320   37.9910 C   0  0  0  0  0  0  0  0  0  0  0  0
   37.1520   28.7260   39.4440 C   0  0  1  0  0  0  0  0  0  0  0  0
   35.1190   27.8950   39.1050 H   0  0  0  0  0  0  0  0  0  0  0  0
   37.6300   28.0950   37.3800 H   0  0  0  0  0  0  0  0  0  0  0  0
   36.2490   29.4060   37.5420 H   0  0  0  0  0  0  0  0  0  0  0  0
   38.1090   28.3820   39.8900 H   0  0  0  0  0  0  0  0  0  0  0  0
   36.5930   29.8990   40.2150 C   0  0  0  0  0  0  0  0  0  0  0  0
   35.5080   29.7930   40.7720 O   0  0  0  0  0  0  0  0  0  0  0  0
   37.3340   31.1570   40.3010 C   0  0  0  0  0  0  0  0  0  0  0  0
   36.8980   32.2640   39.6050 C   0  0  0  0  0  0  0  0  0  0  0  0
   36.0000   32.1570   39.0050 H   0  0  0  0  0  0  0  0  0  0  0  0
   37.5440   33.4850   39.6370 C   0  0  0  0  0  0  0  0  0  0  0  0
   37.2060   34.3570   39.0920 H   0  0  0  0  0  0  0  0  0  0  0  0
   38.6910   33.5140   40.4400 C   0  0  0  0  0  3  0  0  0  0  0  0
   39.1590   32.4310   41.1510 C   0  0  0  0  0  3  0  0  0  0  0  0
   38.4460   31.2970   41.0410 N   0  0  0  0  0  0  0  0  0  0  0  0
  1  7  1  0  0  0  0
  2 21  1  0  0  0  0
  2  1  1  0  0  0  0
  3  2  2  0  0  0  0
  4  1  1  0  0  0  0
  5 13  1  0  0  0  0
  5  8  1  1  0  0  0
  6 10  1  0  0  0  0
  6  5  1  0  0  0  0
  7 11  1  6  0  0  0
  7  6  1  0  0  0  0
  7  5  1  0  0  0  0
  9  6  1  0  0  0  0
 12 17  1  0  0  0  0
 13 12  2  0  0  0  0
 13 14  1  0  0  0  0
 14 15  2  0  0  0  0
 15 16  1  0  0  0  0
 16 20  1  0  0  0  0
 17 16  2  0  0  0  0
 18 12  1  0  0  0  0
 19 14  1  0  0  0  0
 21 24  1  1  0  0  0
 21 23  1  0  0  0  0
 22 21  1  0  0  0  0
 22 23  1  0  0  0  0
 23 27  1  1  0  0  0
 23 28  1  0  0  0  0
 25 22  1  0  0  0  0
 26 22  1  0  0  0  0
 28 30  1  0  0  0  0
 28 29  2  0  0  0  0
 30 37  1  0  0  0  0
 31 33  1  0  0  0  0
 31 30  2  0  0  0  0
 32 31  1  0  0  0  0
 33 35  2  0  0  0  0
 34 33  1  0  0  0  0
 35 36  1  0  0  0  0
 37 36  2  0  0  0  0
M  END
>  <minimizedAffinity>
-5.24655247

$$$$

 OpenBabel03242510243D

 37 40  0  0  1  0  0  0  0  0999 V2000
   37.2110   28.2670   41.0880 N   0  0  0  0  0  0  0  0  0  0  0  0
   36.1620   29.0950   40.6890 C   0  0  0  0  0  0  0  0  0  0  0  0
   34.9210   28.8960   40.6830 O   0  0  0  0  0  0  0  0  0  0  0  0
   38.0180   28.3080   40.4280 H   0  0  0  0  0  0  0  0  0  0  0  0
   38.1970   27.7210   43.2850 C   0  0  1  0  0  0  0  0  0  0  0  0
   36.9540   28.3050   43.5580 C   0  0  0  0  0  0  0  0  0  0  0  0
   37.1590   27.4660   42.2610 C   0  0  1  0  0  0  0  0  0  0  0  0
   38.6030   26.8580   43.8610 H   0  0  0  0  0  0  0  0  0  0  0  0
   36.6090   29.3470   43.4080 H   0  0  0  0  0  0  0  0  0  0  0  0
   36.3160   27.8260   44.3630 H   0  0  0  0  0  0  0  0  0  0  0  0
   36.4780   26.5900   42.2810 H   0  0  0  0  0  0  0  0  0  0  0  0
   39.2340   30.0740   42.8630 C   0  0  0  0  0  0  0  0  0  0  0  0
   39.3460   28.6430   42.8540 C   0  0  0  0  0  0  0  0  0  0  0  0
   40.5370   28.1030   42.4140 C   0  0  0  0  0  0  0  0  0  0  0  0
   41.5280   28.9300   42.0170 N   0  0  0  0  0  0  0  0  0  0  0  0
   41.4070   30.2830   42.0310 C   0  0  0  0  0  0  0  0  0  0  0  0
   40.2130   30.8650   42.4710 N   0  0  0  0  0  0  0  0  0  0  0  0
   38.3080   30.4740   43.2270 H   0  0  0  0  0  0  0  0  0  0  0  0
   40.6790   27.0290   42.3860 H   0  0  0  0  0  0  0  0  0  0  0  0
   42.2900   30.7890   41.6820 H   0  0  0  0  0  0  0  0  0  0  0  0
   36.4750   30.4840   40.1660 C   0  0  2  0  0  0  0  0  0  0  0  0
   36.5740   30.6380   38.6050 C   0  0  0  0  0  0  0  0  0  0  0  0
   37.7490   30.7840   39.5020 C   0  0  1  0  0  0  0  0  0  0  0  0
   35.8780   31.3260   40.5700 H   0  0  0  0  0  0  0  0  0  0  0  0
   36.4800   29.6480   38.0920 H   0  0  0  0  0  0  0  0  0  0  0  0
   36.1680   31.5330   38.1470 H   0  0  0  0  0  0  0  0  0  0  0  0
   38.5410   30.0100   39.5850 H   0  0  0  0  0  0  0  0  0  0  0  0
   38.3240   32.1650   39.7140 C   0  0  0  0  0  0  0  0  0  0  0  0
   37.7620   32.9410   40.4760 O   0  0  0  0  0  0  0  0  0  0  0  0
   39.5420   32.5820   39.0200 C   0  0  0  0  0  0  0  0  0  0  0  0
   39.9790   31.8860   37.9140 C   0  0  0  0  0  0  0  0  0  0  0  0
   39.3890   31.0340   37.5920 H   0  0  0  0  0  0  0  0  0  0  0  0
   41.1180   32.2190   37.2060 C   0  0  0  0  0  0  0  0  0  0  0  0
   41.4660   31.6750   36.3380 H   0  0  0  0  0  0  0  0  0  0  0  0
   41.8060   33.3320   37.7050 C   0  0  0  0  0  3  0  0  0  0  0  0
   41.4020   34.0550   38.8070 C   0  0  0  0  0  3  0  0  0  0  0  0
   40.2780   33.6350   39.4120 N   0  0  0  0  0  0  0  0  0  0  0  0
  1  7  1  0  0  0  0
  2  1  1  0  0  0  0
  3  2  2  0  0  0  0
  4  1  1  0  0  0  0
  5  6  1  0  0  0  0
  5  8  1  1  0  0  0
  6 10  1  0  0  0  0
  7 11  1  6  0  0  0
  7  5  1  0  0  0  0
  7  6  1  0  0  0  0
  9  6  1  0  0  0  0
 12 18  1  0  0  0  0
 13 12  1  0  0  0  0
 13  5  1  0  0  0  0
 14 13  2  0  0  0  0
 15 16  2  0  0  0  0
 15 14  1  0  0  0  0
 16 17  1  0  0  0  0
 17 12  2  0  0  0  0
 19 14  1  0  0  0  0
 20 16  1  0  0  0  0
 21 24  1  1  0  0  0
 21  2  1  0  0  0  0
 22 23  1  0  0  0  0
 22 21  1  0  0  0  0
 23 27  1  6  0  0  0
 23 28  1  0  0  0  0
 23 21  1  0  0  0  0
 25 22  1  0  0  0  0
 26 22  1  0  0  0  0
 28 29  2  0  0  0  0
 30 37  1  0  0  0  0
 30 28  1  0  0  0  0
 31 30  2  0  0  0  0
 32 31  1  0  0  0  0
 33 35  2  0  0  0  0
 33 31  1  0  0  0  0
 34 33  1  0  0  0  0
 35 36  1  0  0  0  0
 36 37  2  0  0  0  0
M  END
>  <minimizedAffinity>
-5.14556837

$$$$

 OpenBabel03242510243D

 37 40  0  0  1  0  0  0  0  0999 V2000
   38.0340   29.8360   41.2090 N   0  0  0  0  0  0  0  0  0  0  0  0
   38.8820   29.9210   42.3120 C   0  0  0  0  0  0  0  0  0  0  0  0
   39.2960   30.9220   42.9520 O   0  0  0  0  0  0  0  0  0  0  0  0
   38.3700   29.1410   40.5060 H   0  0  0  0  0  0  0  0  0  0  0  0
   36.8740   31.6770   40.0420 C   0  0  1  0  0  0  0  0  0  0  0  0
   36.2060   30.5060   39.6670 C   0  0  0  0  0  0  0  0  0  0  0  0
   36.8560   30.6210   41.0790 C   0  0  1  0  0  0  0  0  0  0  0  0
   36.3490   32.6370   40.2480 H   0  0  0  0  0  0  0  0  0  0  0  0
   36.5520   29.6560   39.0460 H   0  0  0  0  0  0  0  0  0  0  0  0
   35.0730   30.5350   39.6400 H   0  0  0  0  0  0  0  0  0  0  0  0
   36.0670   30.5340   41.8540 H   0  0  0  0  0  0  0  0  0  0  0  0
   39.1860   32.8770   39.9760 C   0  0  0  0  0  0  0  0  0  0  0  0
   38.2410   31.9610   39.4040 C   0  0  0  0  0  0  0  0  0  0  0  0
   38.5940   31.3420   38.2230 C   0  0  0  0  0  0  0  0  0  0  0  0
   39.7920   31.6210   37.6650 N   0  0  0  0  0  0  0  0  0  0  0  0
   40.6750   32.4920   38.2180 C   0  0  0  0  0  0  0  0  0  0  0  0
   40.3510   33.1380   39.4170 N   0  0  0  0  0  0  0  0  0  0  0  0
   38.9020   33.3330   40.9050 H   0  0  0  0  0  0  0  0  0  0  0  0
   37.9210   30.6390   37.7460 H   0  0  0  0  0  0  0  0  0  0  0  0
   41.5790   32.5970   37.6430 H   0  0  0  0  0  0  0  0  0  0  0  0
   39.4470   28.6460   42.9110 C   0  0  2  0  0  0  0  0  0  0  0  0
   40.9580   28.3400   42.6080 C   0  0  0  0  0  0  0  0  0  0  0  0
   39.8480   27.5150   42.0650 C   0  0  1  0  0  0  0  0  0  0  0  0
   39.2540   28.4600   43.9860 H   0  0  0  0  0  0  0  0  0  0  0  0
   41.3910   29.0900   41.8990 H   0  0  0  0  0  0  0  0  0  0  0  0
   41.5680   27.9170   43.3980 H   0  0  0  0  0  0  0  0  0  0  0  0
   39.5310   27.5590   41.0020 H   0  0  0  0  0  0  0  0  0  0  0  0
   39.6400   26.1290   42.6300 C   0  0  0  0  0  0  0  0  0  0  0  0
   40.1880   25.8170   43.6790 O   0  0  0  0  0  0  0  0  0  0  0  0
   38.7910   25.1600   41.9380 C   0  0  0  0  0  0  0  0  0  0  0  0
   37.4190   25.2620   42.0180 C   0  0  0  0  0  0  0  0  0  0  0  0
   37.0100   26.0770   42.6070 H   0  0  0  0  0  0  0  0  0  0  0  0
   36.5530   24.3860   41.3920 C   0  0  0  0  0  0  0  0  0  0  0  0
   35.4750   24.4620   41.4530 H   0  0  0  0  0  0  0  0  0  0  0  0
   37.1830   23.3720   40.6590 C   0  0  0  0  0  3  0  0  0  0  0  0
   38.5490   23.2360   40.5540 C   0  0  0  0  0  3  0  0  0  0  0  0
   39.2890   24.1490   41.2070 N   0  0  0  0  0  0  0  0  0  0  0  0
  1  2  1  0  0  0  0
  2 21  1  0  0  0  0
  2  3  2  0  0  0  0
  4  1  1  0  0  0  0
  5  8  1  1  0  0  0
  5  7  1  0  0  0  0
  6  5  1  0  0  0  0
  6  7  1  0  0  0  0
  7  1  1  0  0  0  0
  7 11  1  1  0  0  0
  9  6  1  0  0  0  0
 10  6  1  0  0  0  0
 12 18  1  0  0  0  0
 13 12  2  0  0  0  0
 13  5  1  0  0  0  0
 14 13  1  0  0  0  0
 15 16  1  0  0  0  0
 15 14  2  0  0  0  0
 16 17  2  0  0  0  0
 17 12  1  0  0  0  0
 19 14  1  0  0  0  0
 20 16  1  0  0  0  0
 21 24  1  1  0  0  0
 22 21  1  0  0  0  0
 22 26  1  0  0  0  0
 23 27  1  6  0  0  0
 23 22  1  0  0  0  0
 23 28  1  0  0  0  0
 23 21  1  0  0  0  0
 25 22  1  0  0  0  0
 28 29  2  0  0  0  0
 30 31  1  0  0  0  0
 30 28  1  0  0  0  0
 31 32  1  0  0  0  0
 33 34  1  0  0  0  0
 33 31  2  0  0  0  0
 35 33  1  0  0  0  0
 36 35  2  0  0  0  0
 36 37  1  0  0  0  0
 37 30  2  0  0  0  0
M  END
>  <minimizedAffinity>
-5.10254574

$$$$

 OpenBabel03242510243D

 37 40  0  0  1  0  0  0  0  0999 V2000
   36.7570   28.6940   41.4250 N   0  0  0  0  0  0  0  0  0  0  0  0
   35.8760   29.4440   40.6460 C   0  0  0  0  0  0  0  0  0  0  0  0
   34.6870   29.2160   40.3060 O   0  0  0  0  0  0  0  0  0  0  0  0
   37.7210   28.6770   41.0240 H   0  0  0  0  0  0  0  0  0  0  0  0
   37.0350   26.7540   42.9270 C   0  0  1  0  0  0  0  0  0  0  0  0
   37.5350   27.8570   43.6300 C   0  0  0  0  0  0  0  0  0  0  0  0
   36.3610   28.0360   42.6210 C   0  0  1  0  0  0  0  0  0  0  0  0
   36.4450   25.9430   43.4100 H   0  0  0  0  0  0  0  0  0  0  0  0
   38.4330   28.4760   43.4370 H   0  0  0  0  0  0  0  0  0  0  0  0
   37.2640   27.9460   44.7270 H   0  0  0  0  0  0  0  0  0  0  0  0
   35.4660   28.4050   43.1630 H   0  0  0  0  0  0  0  0  0  0  0  0
   39.3060   26.4220   41.6930 C   0  0  0  0  0  0  0  0  0  0  0  0
   37.8970   26.1690   41.7990 C   0  0  0  0  0  0  0  0  0  0  0  0
   37.3180   25.3850   40.8240 C   0  0  0  0  0  0  0  0  0  0  0  0
   38.0880   24.8980   39.8270 N   0  0  0  0  0  0  0  0  0  0  0  0
   39.4210   25.1460   39.7400 C   0  0  0  0  0  0  0  0  0  0  0  0
   40.0420   25.9380   40.7120 N   0  0  0  0  0  0  0  0  0  0  0  0
   39.7410   27.0170   42.4720 H   0  0  0  0  0  0  0  0  0  0  0  0
   36.2580   25.1600   40.8530 H   0  0  0  0  0  0  0  0  0  0  0  0
   39.8800   24.6820   38.8840 H   0  0  0  0  0  0  0  0  0  0  0  0
   36.3410   30.7690   40.0720 C   0  0  2  0  0  0  0  0  0  0  0  0
   36.9490   30.7300   38.6230 C   0  0  0  0  0  0  0  0  0  0  0  0
   37.7630   31.0410   39.8260 C   0  0  1  0  0  0  0  0  0  0  0  0
   35.6430   31.6260   40.1420 H   0  0  0  0  0  0  0  0  0  0  0  0
   37.0310   29.6790   38.2450 H   0  0  0  0  0  0  0  0  0  0  0  0
   36.7150   31.5400   37.9420 H   0  0  0  0  0  0  0  0  0  0  0  0
   38.4850   30.3210   40.2660 H   0  0  0  0  0  0  0  0  0  0  0  0
   38.2330   32.4630   40.0270 C   0  0  0  0  0  0  0  0  0  0  0  0
   37.4300   33.3820   39.9300 O   0  0  0  0  0  0  0  0  0  0  0  0
   39.6330   32.7500   40.3360 C   0  0  0  0  0  0  0  0  0  0  0  0
   40.3670   31.8690   41.1010 C   0  0  0  0  0  0  0  0  0  0  0  0
   39.8640   30.9730   41.4540 H   0  0  0  0  0  0  0  0  0  0  0  0
   41.6920   32.0700   41.4330 C   0  0  0  0  0  0  0  0  0  0  0  0
   42.2720   31.3810   42.0340 H   0  0  0  0  0  0  0  0  0  0  0  0
   42.2430   33.2550   40.9290 C   0  0  0  0  0  3  0  0  0  0  0  0
   41.5450   34.1610   40.1610 C   0  0  0  0  0  3  0  0  0  0  0  0
   40.2620   33.8560   39.9030 N   0  0  0  0  0  0  0  0  0  0  0  0
  1  7  1  0  0  0  0
  2  1  1  0  0  0  0
  3  2  2  0  0  0  0
  4  1  1  0  0  0  0
  5  8  1  1  0  0  0
  5  6  1  0  0  0  0
  6 10  1  0  0  0  0
  7  5  1  0  0  0  0
  7 11  1  1  0  0  0
  7  6  1  0  0  0  0
  9  6  1  0  0  0  0
 12 13  1  0  0  0  0
 12 18  1  0  0  0  0
 13  5  1  0  0  0  0
 14 19  1  0  0  0  0
 14 13  2  0  0  0  0
 15 14  1  0  0  0  0
 16 15  2  0  0  0  0
 16 17  1  0  0  0  0
 17 12  2  0  0  0  0
 20 16  1  0  0  0  0
 21 24  1  1  0  0  0
 21  2  1  0  0  0  0
 22 23  1  0  0  0  0
 22 21  1  0  0  0  0
 23 28  1  0  0  0  0
 23 21  1  0  0  0  0
 23 27  1  1  0  0  0
 25 22  1  0  0  0  0
 26 22  1  0  0  0  0
 28 30  1  0  0  0  0
 29 28  2  0  0  0  0
 30 31  1  0  0  0  0
 31 33  2  0  0  0  0
 31 32  1  0  0  0  0
 33 34  1  0  0  0  0
 35 33  1  0  0  0  0
 36 35  2  0  0  0  0
 37 36  1  0  0  0  0
 37 30  2  0  0  0  0
M  END
>  <minimizedAffinity>
-5.07463551

$$$$

 OpenBabel03242510243D

 37 40  0  0  1  0  0  0  0  0999 V2000
   39.2600   30.0780   37.7820 N   0  0  0  0  0  0  0  0  0  0  0  0
   38.4180   29.0560   37.3460 C   0  0  0  0  0  0  0  0  0  0  0  0
   38.5240   28.2680   36.3710 O   0  0  0  0  0  0  0  0  0  0  0  0
   38.7290   30.9300   38.0680 H   0  0  0  0  0  0  0  0  0  0  0  0
   41.3900   30.7730   38.8190 C   0  0  1  0  0  0  0  0  0  0  0  0
   41.2000   29.4380   39.1930 C   0  0  0  0  0  0  0  0  0  0  0  0
   40.6750   29.9500   37.8190 C   0  0  1  0  0  0  0  0  0  0  0  0
   42.3860   31.1940   38.5510 H   0  0  0  0  0  0  0  0  0  0  0  0
   40.4400   28.9870   39.8610 H   0  0  0  0  0  0  0  0  0  0  0  0
   42.1010   28.7500   39.1550 H   0  0  0  0  0  0  0  0  0  0  0  0
   41.1830   29.3950   37.0030 H   0  0  0  0  0  0  0  0  0  0  0  0
   39.7250   31.5540   40.6650 C   0  0  0  0  0  0  0  0  0  0  0  0
   40.5470   31.8450   39.5250 C   0  0  0  0  0  0  0  0  0  0  0  0
   40.5420   33.1410   39.0530 C   0  0  0  0  0  0  0  0  0  0  0  0
   39.7760   34.0640   39.6740 N   0  0  0  0  0  0  0  0  0  0  0  0
   39.0030   33.7740   40.7530 C   0  0  0  0  0  0  0  0  0  0  0  0
   38.9840   32.4690   41.2580 N   0  0  0  0  0  0  0  0  0  0  0  0
   39.7580   30.5460   41.0290 H   0  0  0  0  0  0  0  0  0  0  0  0
   41.1440   33.4190   38.1970 H   0  0  0  0  0  0  0  0  0  0  0  0
   38.4580   34.6250   41.1220 H   0  0  0  0  0  0  0  0  0  0  0  0
   37.1400   28.7710   38.1130 C   0  0  2  0  0  0  0  0  0  0  0  0
   35.9010   29.6740   37.7690 C   0  0  0  0  0  0  0  0  0  0  0  0
   36.5970   29.7340   39.0790 C   0  0  1  0  0  0  0  0  0  0  0  0
   36.8080   27.7160   38.1730 H   0  0  0  0  0  0  0  0  0  0  0  0
   36.1740   30.4800   37.0410 H   0  0  0  0  0  0  0  0  0  0  0  0
   34.9200   29.2130   37.7320 H   0  0  0  0  0  0  0  0  0  0  0  0
   37.2650   30.5730   39.3670 H   0  0  0  0  0  0  0  0  0  0  0  0
   35.8960   29.1660   40.2920 C   0  0  0  0  0  0  0  0  0  0  0  0
   34.6730   29.1370   40.3220 O   0  0  0  0  0  0  0  0  0  0  0  0
   36.6640   28.6530   41.4260 C   0  0  0  0  0  0  0  0  0  0  0  0
   36.7720   27.2940   41.6290 C   0  0  0  0  0  0  0  0  0  0  0  0
   36.2700   26.6400   40.9220 H   0  0  0  0  0  0  0  0  0  0  0  0
   37.4790   26.7350   42.6760 C   0  0  0  0  0  0  0  0  0  0  0  0
   37.5660   25.6680   42.8390 H   0  0  0  0  0  0  0  0  0  0  0  0
   38.0860   27.6650   43.5280 C   0  0  0  0  0  3  0  0  0  0  0  0
   38.0030   29.0300   43.3600 C   0  0  0  0  0  3  0  0  0  0  0  0
   37.2870   29.4550   42.3050 N   0  0  0  0  0  0  0  0  0  0  0  0
  1  7  1  0  0  0  0
  1  4  1  0  0  0  0
  2  1  1  0  0  0  0
  2 21  1  0  0  0  0
  3  2  2  0  0  0  0
  5  8  1  6  0  0  0
  5  6  1  0  0  0  0
  5 13  1  0  0  0  0
  6  9  1  0  0  0  0
  7 11  1  6  0  0  0
  7  5  1  0  0  0  0
  7  6  1  0  0  0  0
 10  6  1  0  0  0  0
 12 18  1  0  0  0  0
 12 17  1  0  0  0  0
 13 12  2  0  0  0  0
 14 13  1  0  0  0  0
 14 15  2  0  0  0  0
 15 16  1  0  0  0  0
 16 20  1  0  0  0  0
 16 17  2  0  0  0  0
 19 14  1  0  0  0  0
 21 24  1  1  0  0  0
 21 23  1  0  0  0  0
 22 21  1  0  0  0  0
 22 23  1  0  0  0  0
 23 27  1  1  0  0  0
 23 28  1  0  0  0  0
 25 22  1  0  0  0  0
 26 22  1  0  0  0  0
 28 29  2  0  0  0  0
 28 30  1  0  0  0  0
 30 31  2  0  0  0  0
 30 37  1  0  0  0  0
 31 33  1  0  0  0  0
 32 31  1  0  0  0  0
 33 34  1  0  0  0  0
 33 35  2  0  0  0  0
 36 35  1  0  0  0  0
 37 36  2  0  0  0  0
M  END
>  <minimizedAffinity>
-5.05799246

$$$$

 OpenBabel03242510243D

 37 40  0  0  1  0  0  0  0  0999 V2000
   37.5990   26.3430   41.2550 N   0  0  0  0  0  0  0  0  0  0  0  0
   37.4660   27.6600   41.6930 C   0  0  0  0  0  0  0  0  0  0  0  0
   36.4650   28.2780   42.1370 O   0  0  0  0  0  0  0  0  0  0  0  0
   38.1750   26.2720   40.3880 H   0  0  0  0  0  0  0  0  0  0  0  0
   36.7320   24.0350   41.1150 C   0  0  1  0  0  0  0  0  0  0  0  0
   37.8900   23.9620   41.8970 C   0  0  0  0  0  0  0  0  0  0  0  0
   37.0020   25.2410   41.9280 C   0  0  1  0  0  0  0  0  0  0  0  0
   35.8150   23.4410   41.3300 H   0  0  0  0  0  0  0  0  0  0  0  0
   38.9500   24.1180   41.6160 H   0  0  0  0  0  0  0  0  0  0  0  0
   37.8550   23.3120   42.8260 H   0  0  0  0  0  0  0  0  0  0  0  0
   36.6110   25.3910   42.9550 H   0  0  0  0  0  0  0  0  0  0  0  0
   38.1240   23.8980   38.9170 C   0  0  0  0  0  0  0  0  0  0  0  0
   36.8980   24.2030   39.5980 C   0  0  0  0  0  0  0  0  0  0  0  0
   35.8530   24.6840   38.8380 C   0  0  0  0  0  0  0  0  0  0  0  0
   36.0250   24.8460   37.5080 N   0  0  0  0  0  0  0  0  0  0  0  0
   37.1930   24.5540   36.8770 C   0  0  0  0  0  0  0  0  0  0  0  0
   38.2740   24.0640   37.6170 N   0  0  0  0  0  0  0  0  0  0  0  0
   38.9180   23.5070   39.5220 H   0  0  0  0  0  0  0  0  0  0  0  0
   34.9030   24.9290   39.2980 H   0  0  0  0  0  0  0  0  0  0  0  0
   37.1580   24.7420   35.8180 H   0  0  0  0  0  0  0  0  0  0  0  0
   38.6780   28.5720   41.6700 C   0  0  2  0  0  0  0  0  0  0  0  0
   39.5470   28.6150   42.9780 C   0  0  0  0  0  0  0  0  0  0  0  0
   38.7480   29.7750   42.5090 C   0  0  1  0  0  0  0  0  0  0  0  0
   39.3540   28.4970   40.7950 H   0  0  0  0  0  0  0  0  0  0  0  0
   39.0820   28.0080   43.7960 H   0  0  0  0  0  0  0  0  0  0  0  0
   40.6260   28.6660   42.8810 H   0  0  0  0  0  0  0  0  0  0  0  0
   37.8010   30.0900   42.9960 H   0  0  0  0  0  0  0  0  0  0  0  0
   39.4790   30.9680   41.9360 C   0  0  0  0  0  0  0  0  0  0  0  0
   40.6680   31.1210   42.1840 O   0  0  0  0  0  0  0  0  0  0  0  0
   38.7810   31.9370   41.0930 C   0  0  0  0  0  0  0  0  0  0  0  0
   37.7110   31.5370   40.3210 C   0  0  0  0  0  0  0  0  0  0  0  0
   37.4210   30.4920   40.3690 H   0  0  0  0  0  0  0  0  0  0  0  0
   37.0030   32.3930   39.5000 C   0  0  0  0  0  0  0  0  0  0  0  0
   36.1630   32.0840   38.8920 H   0  0  0  0  0  0  0  0  0  0  0  0
   37.4590   33.7170   39.5120 C   0  0  0  0  0  3  0  0  0  0  0  0
   38.5230   34.1570   40.2680 C   0  0  0  0  0  3  0  0  0  0  0  0
   39.1340   33.2310   41.0270 N   0  0  0  0  0  0  0  0  0  0  0  0
  1  2  1  0  0  0  0
  1  7  1  0  0  0  0
  2  3  2  0  0  0  0
  4  1  1  0  0  0  0
  5  8  1  1  0  0  0
  5  6  1  0  0  0  0
  5  7  1  0  0  0  0
  6  7  1  0  0  0  0
  6 10  1  0  0  0  0
  7 11  1  1  0  0  0
  9  6  1  0  0  0  0
 12 18  1  0  0  0  0
 12 13  1  0  0  0  0
 13  5  1  0  0  0  0
 14 19  1  0  0  0  0
 14 13  2  0  0  0  0
 15 14  1  0  0  0  0
 16 15  2  0  0  0  0
 16 17  1  0  0  0  0
 17 12  2  0  0  0  0
 20 16  1  0  0  0  0
 21 24  1  6  0  0  0
 21  2  1  0  0  0  0
 21 23  1  0  0  0  0
 21 22  1  0  0  0  0
 22 25  1  0  0  0  0
 23 22  1  0  0  0  0
 23 27  1  1  0  0  0
 26 22  1  0  0  0  0
 28 29  2  0  0  0  0
 28 23  1  0  0  0  0
 30 28  1  0  0  0  0
 31 32  1  0  0  0  0
 31 30  2  0  0  0  0
 33 35  2  0  0  0  0
 33 31  1  0  0  0  0
 34 33  1  0  0  0  0
 35 36  1  0  0  0  0
 36 37  2  0  0  0  0
 37 30  1  0  0  0  0
M  END
>  <minimizedAffinity>
-5.01951551

$$$$

 OpenBabel03242510243D

 37 40  0  0  1  0  0  0  0  0999 V2000
   37.0390   29.6500   39.6730 N   0  0  0  0  0  0  0  0  0  0  0  0
   36.1680   29.0150   40.5570 C   0  0  0  0  0  0  0  0  0  0  0  0
   34.9150   29.0640   40.6490 O   0  0  0  0  0  0  0  0  0  0  0  0
   37.8920   30.0130   40.1530 H   0  0  0  0  0  0  0  0  0  0  0  0
   37.3620   30.9490   37.5980 C   0  0  1  0  0  0  0  0  0  0  0  0
   38.0620   29.7510   37.4130 C   0  0  0  0  0  0  0  0  0  0  0  0
   36.7700   29.7780   38.2830 C   0  0  1  0  0  0  0  0  0  0  0  0
   36.7790   31.4440   36.7880 H   0  0  0  0  0  0  0  0  0  0  0  0
   38.9740   29.3750   37.9160 H   0  0  0  0  0  0  0  0  0  0  0  0
   37.9700   29.2410   36.4040 H   0  0  0  0  0  0  0  0  0  0  0  0
   36.0060   29.1180   37.8230 H   0  0  0  0  0  0  0  0  0  0  0  0
   37.2020   33.0220   39.1680 C   0  0  0  0  0  0  0  0  0  0  0  0
   37.9840   32.0120   38.5140 C   0  0  0  0  0  0  0  0  0  0  0  0
   39.3480   32.0340   38.7190 C   0  0  0  0  0  0  0  0  0  0  0  0
   39.8790   32.9910   39.5100 N   0  0  0  0  0  0  0  0  0  0  0  0
   39.1260   33.9420   40.1220 C   0  0  0  0  0  0  0  0  0  0  0  0
   37.7390   33.9490   39.9370 N   0  0  0  0  0  0  0  0  0  0  0  0
   36.1420   32.9760   39.0130 H   0  0  0  0  0  0  0  0  0  0  0  0
   39.9880   31.2950   38.2520 H   0  0  0  0  0  0  0  0  0  0  0  0
   39.7090   34.6250   40.7140 H   0  0  0  0  0  0  0  0  0  0  0  0
   36.7360   28.0880   41.6170 C   0  0  2  0  0  0  0  0  0  0  0  0
   37.4430   28.7750   42.8410 C   0  0  0  0  0  0  0  0  0  0  0  0
   38.1830   27.9700   41.8350 C   0  0  1  0  0  0  0  0  0  0  0  0
   36.0760   27.2810   41.9930 H   0  0  0  0  0  0  0  0  0  0  0  0
   37.5020   29.8850   42.7070 H   0  0  0  0  0  0  0  0  0  0  0  0
   37.2970   28.3490   43.8270 H   0  0  0  0  0  0  0  0  0  0  0  0
   38.8360   28.4260   41.0620 H   0  0  0  0  0  0  0  0  0  0  0  0
   38.7040   26.6120   42.2450 C   0  0  0  0  0  0  0  0  0  0  0  0
   37.9180   25.7530   42.6230 O   0  0  0  0  0  0  0  0  0  0  0  0
   40.1350   26.3150   42.1920 C   0  0  0  0  0  0  0  0  0  0  0  0
   40.7450   25.6650   43.2440 C   0  0  0  0  0  0  0  0  0  0  0  0
   40.1240   25.3920   44.0920 H   0  0  0  0  0  0  0  0  0  0  0  0
   42.0900   25.3510   43.2680 C   0  0  0  0  0  0  0  0  0  0  0  0
   42.5730   24.8410   44.0910 H   0  0  0  0  0  0  0  0  0  0  0  0
   42.7980   25.7470   42.1260 C   0  0  0  0  0  3  0  0  0  0  0  0
   42.2270   26.3980   41.0550 C   0  0  0  0  0  3  0  0  0  0  0  0
   40.9100   26.6500   41.1470 N   0  0  0  0  0  0  0  0  0  0  0  0
  1  4  1  0  0  0  0
  1  2  1  0  0  0  0
  2  3  2  0  0  0  0
  2 21  1  0  0  0  0
  5  8  1  6  0  0  0
  5  7  1  0  0  0  0
  5 13  1  0  0  0  0
  6  5  1  0  0  0  0
  6  9  1  0  0  0  0
  6  7  1  0  0  0  0
  7 11  1  6  0  0  0
  7  1  1  0  0  0  0
 10  6  1  0  0  0  0
 12 17  1  0  0  0  0
 13 14  1  0  0  0  0
 13 12  2  0  0  0  0
 14 15  2  0  0  0  0
 15 16  1  0  0  0  0
 16 20  1  0  0  0  0
 17 16  2  0  0  0  0
 18 12  1  0  0  0  0
 19 14  1  0  0  0  0
 21 23  1  0  0  0  0
 21 24  1  1  0  0  0
 21 22  1  0  0  0  0
 22 26  1  0  0  0  0
 23 27  1  6  0  0  0
 23 28  1  0  0  0  0
 23 22  1  0  0  0  0
 25 22  1  0  0  0  0
 28 29  2  0  0  0  0
 30 28  1  0  0  0  0
 30 31  1  0  0  0  0
 31 33  2  0  0  0  0
 31 32  1  0  0  0  0
 33 34  1  0  0  0  0
 35 33  1  0  0  0  0
 36 37  1  0  0  0  0
 36 35  2  0  0  0  0
 37 30  2  0  0  0  0
M  END
>  <minimizedAffinity>
-4.9508729

$$$$

 OpenBabel03242510243D

 37 40  0  0  1  0  0  0  0  0999 V2000
   36.6850   25.7480   40.1770 N   0  0  0  0  0  0  0  0  0  0  0  0
   37.0750   25.4970   41.4920 C   0  0  0  0  0  0  0  0  0  0  0  0
   37.1220   24.4200   42.1400 O   0  0  0  0  0  0  0  0  0  0  0  0
   36.1010   26.6100   40.0970 H   0  0  0  0  0  0  0  0  0  0  0  0
   36.8320   25.4520   37.7300 C   0  0  1  0  0  0  0  0  0  0  0  0
   38.1530   25.5370   38.1850 C   0  0  0  0  0  0  0  0  0  0  0  0
   37.0500   24.9090   39.0890 C   0  0  1  0  0  0  0  0  0  0  0  0
   36.5110   24.7560   36.9220 H   0  0  0  0  0  0  0  0  0  0  0  0
   38.7020   26.3950   38.6210 H   0  0  0  0  0  0  0  0  0  0  0  0
   38.9060   24.8120   37.7460 H   0  0  0  0  0  0  0  0  0  0  0  0
   37.3050   23.8490   39.2940 H   0  0  0  0  0  0  0  0  0  0  0  0
   36.6100   28.0480   37.7680 C   0  0  0  0  0  0  0  0  0  0  0  0
   36.0130   26.7480   37.6540 C   0  0  0  0  0  0  0  0  0  0  0  0
   34.6440   26.6920   37.4940 C   0  0  0  0  0  0  0  0  0  0  0  0
   33.9380   27.8420   37.4520 N   0  0  0  0  0  0  0  0  0  0  0  0
   34.5180   29.0660   37.5610 C   0  0  0  0  0  0  0  0  0  0  0  0
   35.9050   29.1610   37.7250 N   0  0  0  0  0  0  0  0  0  0  0  0
   37.6780   28.0720   37.8710 H   0  0  0  0  0  0  0  0  0  0  0  0
   34.1380   25.7380   37.4010 H   0  0  0  0  0  0  0  0  0  0  0  0
   33.8100   29.8740   37.5080 H   0  0  0  0  0  0  0  0  0  0  0  0
   37.5390   26.6520   42.3590 C   0  0  2  0  0  0  0  0  0  0  0  0
   36.4530   27.3150   43.2810 C   0  0  0  0  0  0  0  0  0  0  0  0
   37.0650   28.0230   42.1280 C   0  0  1  0  0  0  0  0  0  0  0  0
   38.4660   26.5050   42.9480 H   0  0  0  0  0  0  0  0  0  0  0  0
   35.4390   26.8780   43.0950 H   0  0  0  0  0  0  0  0  0  0  0  0
   36.7410   27.6240   44.2800 H   0  0  0  0  0  0  0  0  0  0  0  0
   36.5230   28.2010   41.1750 H   0  0  0  0  0  0  0  0  0  0  0  0
   38.0420   29.1410   42.4060 C   0  0  0  0  0  0  0  0  0  0  0  0
   38.8740   29.0070   43.2940 O   0  0  0  0  0  0  0  0  0  0  0  0
   38.0010   30.3790   41.6290 C   0  0  0  0  0  0  0  0  0  0  0  0
   36.8830   30.6920   40.8860 C   0  0  0  0  0  0  0  0  0  0  0  0
   36.0550   29.9900   40.9070 H   0  0  0  0  0  0  0  0  0  0  0  0
   36.7700   31.8410   40.1270 C   0  0  0  0  0  0  0  0  0  0  0  0
   35.8940   32.0900   39.5420 H   0  0  0  0  0  0  0  0  0  0  0  0
   37.8930   32.6760   40.1700 C   0  0  0  0  0  3  0  0  0  0  0  0
   39.0290   32.4010   40.8990 C   0  0  0  0  0  3  0  0  0  0  0  0
   39.0210   31.2520   41.5980 N   0  0  0  0  0  0  0  0  0  0  0  0
  1  2  1  0  0  0  0
  2  3  2  0  0  0  0
  2 21  1  0  0  0  0
  4  1  1  0  0  0  0
  5  8  1  6  0  0  0
  5  6  1  0  0  0  0
  5  7  1  0  0  0  0
  6  9  1  0  0  0  0
  6  7  1  0  0  0  0
  7 11  1  1  0  0  0
  7  1  1  0  0  0  0
 10  6  1  0  0  0  0
 12 18  1  0  0  0  0
 13  5  1  0  0  0  0
 13 12  2  0  0  0  0
 14 13  1  0  0  0  0
 15 14  2  0  0  0  0
 15 16  1  0  0  0  0
 16 17  2  0  0  0  0
 17 12  1  0  0  0  0
 19 14  1  0  0  0  0
 20 16  1  0  0  0  0
 21 24  1  1  0  0  0
 21 22  1  0  0  0  0
 22 26  1  0  0  0  0
 23 27  1  6  0  0  0
 23 21  1  0  0  0  0
 23 28  1  0  0  0  0
 23 22  1  0  0  0  0
 25 22  1  0  0  0  0
 28 29  2  0  0  0  0
 30 28  1  0  0  0  0
 31 32  1  0  0  0  0
 31 30  2  0  0  0  0
 33 35  2  0  0  0  0
 33 31  1  0  0  0  0
 34 33  1  0  0  0  0
 35 36  1  0  0  0  0
 36 37  2  0  0  0  0
 37 30  1  0  0  0  0
M  END
>  <minimizedAffinity>
-4.92859602

$$$$
