
 OpenBabel03252508493D

 27 29  0  0  0  0  0  0  0  0999 V2000
   45.9730   34.1710   41.0460 C   0  0  0  0  0  0  0  0  0  0  0  0
   46.5460   34.8020   42.1450 C   0  0  0  0  0  0  0  0  0  0  0  0
   47.8840   35.1830   42.0070 C   0  0  0  0  0  0  0  0  0  0  0  0
   48.5390   34.9300   40.8480 N   0  0  0  0  0  0  0  0  0  0  0  0
   47.9300   34.3140   39.8140 C   0  0  0  0  0  0  0  0  0  0  0  0
   46.6430   33.9330   39.9110 N   0  0  0  0  0  0  0  0  0  0  0  0
   48.3520   35.6740   42.8440 H   0  0  0  0  0  0  0  0  0  0  0  0
   48.5220   34.1490   38.9230 H   0  0  0  0  0  0  0  0  0  0  0  0
   45.7670   35.0330   43.3430 C   0  0  0  0  0  0  0  0  0  0  0  0
   45.0660   36.2190   43.5620 C   0  0  0  0  0  0  0  0  0  0  0  0
   44.4810   36.0200   44.7910 C   0  0  0  0  0  0  0  0  0  0  0  0
   44.8030   34.7960   45.2890 N   0  0  0  0  0  0  0  0  0  0  0  0
   45.5790   34.2360   44.3840 N   0  0  0  0  0  0  0  0  0  0  0  0
   44.9470   37.1240   42.9780 H   0  0  0  0  0  0  0  0  0  0  0  0
   43.8350   36.6800   45.3740 H   0  0  0  0  0  0  0  0  0  0  0  0
   44.5350   34.3290   46.1830 H   0  0  0  0  0  0  0  0  0  0  0  0
   44.6500   33.7750   41.1400 O   0  0  0  0  0  0  0  0  0  0  0  0
   43.5560   34.4110   40.6330 C   0  0  0  0  0  0  0  0  0  0  0  0
   43.3420   35.6730   40.5760 O   0  0  0  0  0  0  0  0  0  0  0  0
   42.3910   33.6860   40.0440 C   0  0  0  0  0  0  0  0  0  0  0  0
   41.5840   32.8820   40.8170 C   0  0  0  0  0  0  0  0  0  0  0  0
   41.7500   32.7370   41.8750 H   0  0  0  0  0  0  0  0  0  0  0  0
   40.4890   32.1790   40.3260 C   0  0  0  0  0  0  0  0  0  0  0  0
   39.8750   31.5560   40.9550 H   0  0  0  0  0  0  0  0  0  0  0  0
   40.1880   32.2920   38.9870 C   0  0  0  0  0  3  0  0  0  0  0  0
   41.0130   33.1030   38.2430 C   0  0  0  0  0  3  0  0  0  0  0  0
   42.0460   33.7490   38.7700 N   0  0  0  0  0  0  0  0  0  0  0  0
  1 17  1  0  0  0  0
  1  2  1  0  0  0  0
  2  9  1  0  0  0  0
  3  2  2  0  0  0  0
  3  7  1  0  0  0  0
  4  3  1  0  0  0  0
  5  6  1  0  0  0  0
  5  4  2  0  0  0  0
  6  1  2  0  0  0  0
  8  5  1  0  0  0  0
  9 10  1  0  0  0  0
  9 13  2  0  0  0  0
 10 11  2  0  0  0  0
 11 12  1  0  0  0  0
 11 15  1  0  0  0  0
 12 16  1  0  0  0  0
 13 12  1  0  0  0  0
 14 10  1  0  0  0  0
 18 17  1  0  0  0  0
 19 18  2  0  0  0  0
 20 18  1  0  0  0  0
 20 21  1  0  0  0  0
 21 22  1  0  0  0  0
 23 21  2  0  0  0  0
 23 24  1  0  0  0  0
 25 23  1  0  0  0  0
 26 27  1  0  0  0  0
 26 25  2  0  0  0  0
 27 20  2  0  0  0  0
M  END
>  <minimizedAffinity>
-5.18343353

>  <minimizedRMSD>
0.646558106

$$$$
