
 OpenBabel03252508493D

 27 29  0  0  0  0  0  0  0  0999 V2000
   45.9740   34.1660   41.0500 C   0  0  0  0  0  0  0  0  0  0  0  0
   46.5460   34.8020   42.1460 C   0  0  0  0  0  0  0  0  0  0  0  0
   47.8820   35.1900   42.0050 C   0  0  0  0  0  0  0  0  0  0  0  0
   48.5350   34.9360   40.8450 N   0  0  0  0  0  0  0  0  0  0  0  0
   47.9280   34.3140   39.8140 C   0  0  0  0  0  0  0  0  0  0  0  0
   46.6430   33.9270   39.9140 N   0  0  0  0  0  0  0  0  0  0  0  0
   48.3490   35.6850   42.8390 H   0  0  0  0  0  0  0  0  0  0  0  0
   48.5190   34.1500   38.9230 H   0  0  0  0  0  0  0  0  0  0  0  0
   45.7680   35.0340   43.3440 C   0  0  0  0  0  0  0  0  0  0  0  0
   45.0640   36.2180   43.5630 C   0  0  0  0  0  0  0  0  0  0  0  0
   44.4810   36.0200   44.7930 C   0  0  0  0  0  0  0  0  0  0  0  0
   44.8060   34.7960   45.2920 N   0  0  0  0  0  0  0  0  0  0  0  0
   45.5820   34.2370   44.3870 N   0  0  0  0  0  0  0  0  0  0  0  0
   44.9440   37.1220   42.9780 H   0  0  0  0  0  0  0  0  0  0  0  0
   43.8350   36.6790   45.3760 H   0  0  0  0  0  0  0  0  0  0  0  0
   44.5400   34.3300   46.1860 H   0  0  0  0  0  0  0  0  0  0  0  0
   44.6520   33.7640   41.1470 O   0  0  0  0  0  0  0  0  0  0  0  0
   43.5550   34.3920   40.6380 C   0  0  0  0  0  0  0  0  0  0  0  0
   43.3440   35.6540   40.5580 O   0  0  0  0  0  0  0  0  0  0  0  0
   42.3820   33.6590   40.0770 C   0  0  0  0  0  0  0  0  0  0  0  0
   42.0450   33.7580   38.7470 C   0  0  0  0  0  0  0  0  0  0  0  0
   42.6060   34.3620   38.0490 H   0  0  0  0  0  0  0  0  0  0  0  0
   40.9640   33.1020   38.1670 C   0  0  0  0  0  0  0  0  0  0  0  0
   40.7240   33.1980   37.1220 H   0  0  0  0  0  0  0  0  0  0  0  0
   40.1810   32.3040   38.9700 C   0  0  0  0  0  3  0  0  0  0  0  0
   40.5430   32.2250   40.2940 C   0  0  0  0  0  3  0  0  0  0  0  0
   41.5880   32.8770   40.7890 N   0  0  0  0  0  0  0  0  0  0  0  0
  1 17  1  0  0  0  0
  1  2  1  0  0  0  0
  2  9  1  0  0  0  0
  3  2  2  0  0  0  0
  3  7  1  0  0  0  0
  4  3  1  0  0  0  0
  5  6  1  0  0  0  0
  5  4  2  0  0  0  0
  6  1  2  0  0  0  0
  8  5  1  0  0  0  0
  9 10  1  0  0  0  0
  9 13  2  0  0  0  0
 10 11  2  0  0  0  0
 11 12  1  0  0  0  0
 11 15  1  0  0  0  0
 12 16  1  0  0  0  0
 13 12  1  0  0  0  0
 14 10  1  0  0  0  0
 18 17  1  0  0  0  0
 19 18  2  0  0  0  0
 20 18  1  0  0  0  0
 20 27  1  0  0  0  0
 21 20  2  0  0  0  0
 22 21  1  0  0  0  0
 23 21  1  0  0  0  0
 23 25  2  0  0  0  0
 24 23  1  0  0  0  0
 25 26  1  0  0  0  0
 26 27  2  0  0  0  0
M  END
>  <minimizedAffinity>
-5.25061941

>  <minimizedRMSD>
0.658210099

$$$$
