
 OpenBabel03242519123D

 46 49  0  0  1  0  0  0  0  0999 V2000
   40.3040   33.6020   38.9320 N   0  0  0  0  0  0  0  0  0  0  0  0
   40.3370   33.5160   37.8880 H   0  0  0  0  0  0  0  0  0  0  0  0
   42.1580   35.2760   41.4540 N   0  0  0  0  0  0  0  0  0  0  0  0
   41.6350   34.0140   40.9440 C   0  0  0  0  0  0  0  0  0  0  0  0
   41.2090   34.4820   39.5930 C   0  0  2  0  0  0  0  0  0  0  0  0
   40.4460   35.7560   39.9220 C   0  0  0  0  0  0  0  0  0  0  0  0
   41.2180   36.2950   41.1020 C   0  0  0  0  0  0  0  0  0  0  0  0
   40.7490   33.7050   41.5330 H   0  0  0  0  0  0  0  0  0  0  0  0
   42.3930   33.2120   40.9360 H   0  0  0  0  0  0  0  0  0  0  0  0
   42.0870   34.6810   38.9510 H   0  0  0  0  0  0  0  0  0  0  0  0
   39.3890   35.5390   40.1490 H   0  0  0  0  0  0  0  0  0  0  0  0
   40.5310   36.4280   39.0330 H   0  0  0  0  0  0  0  0  0  0  0  0
   40.5340   36.5520   41.9500 H   0  0  0  0  0  0  0  0  0  0  0  0
   41.7770   37.1930   40.7830 H   0  0  0  0  0  0  0  0  0  0  0  0
   45.7170   35.4250   42.5540 C   0  0  0  0  0  0  0  0  0  0  0  0
   44.6170   35.1010   41.7760 C   0  0  0  0  0  0  0  0  0  0  0  0
   43.3470   35.5440   42.1650 C   0  0  0  0  0  0  0  0  0  0  0  0
   43.2810   36.2780   43.3050 N   0  0  0  0  0  0  0  0  0  0  0  0
   44.3340   36.5970   44.0650 C   0  0  0  0  0  0  0  0  0  0  0  0
   45.5610   36.1600   43.6740 N   0  0  0  0  0  0  0  0  0  0  0  0
   46.6930   35.0600   42.2170 H   0  0  0  0  0  0  0  0  0  0  0  0
   44.6540   34.5170   40.8660 H   0  0  0  0  0  0  0  0  0  0  0  0
   44.2480   37.1760   44.9560 H   0  0  0  0  0  0  0  0  0  0  0  0
   39.4730   31.4010   39.7440 C   0  0  0  0  0  0  0  0  0  0  0  0
   39.2890   32.7500   39.3990 C   0  0  0  0  0  0  0  0  0  0  0  0
   37.9920   33.1760   39.5650 C   0  0  0  0  0  0  0  0  0  0  0  0
   36.9470   32.4170   40.0130 C   0  0  0  0  0  0  0  0  0  0  0  0
   37.1760   31.1020   40.3380 C   0  0  0  0  0  0  0  0  0  0  0  0
   38.4570   30.6150   40.1930 C   0  0  0  0  0  0  0  0  0  0  0  0
   37.7480   34.2110   39.3240 H   0  0  0  0  0  0  0  0  0  0  0  0
   35.9460   32.8350   40.1150 H   0  0  0  0  0  0  0  0  0  0  0  0
   36.3520   30.5060   40.6900 H   0  0  0  0  0  0  0  0  0  0  0  0
   38.8240   28.8860   41.8990 C   0  0  0  0  0  0  0  0  0  0  0  0
   38.8200   29.7900   42.7900 O   0  0  0  0  0  0  0  0  0  0  0  0
   38.6630   29.2400   40.5400 N   0  0  0  0  0  0  0  0  0  0  0  0
   38.6980   28.4850   39.7950 H   0  0  0  0  0  0  0  0  0  0  0  0
   38.9950   27.4690   42.2860 C   0  0  0  0  0  0  0  0  0  0  0  0
   39.8180   27.1670   43.3510 C   0  0  0  0  0  0  0  0  0  0  0  0
   40.3430   27.9040   43.9160 H   0  0  0  0  0  0  0  0  0  0  0  0
   39.9490   25.8530   43.6750 C   0  0  0  0  0  0  0  0  0  0  0  0
   40.5770   25.5010   44.5010 H   0  0  0  0  0  0  0  0  0  0  0  0
   39.2670   24.9060   42.9400 C   0  0  0  0  0  3  0  0  0  0  0  0
   38.4310   25.2060   41.8600 C   0  0  0  0  0  3  0  0  0  0  0  0
   38.3420   26.5210   41.5890 N   0  0  0  0  0  0  0  0  0  0  0  0
   41.8990   30.4570   39.4910 N   0  0  0  0  0  0  0  0  0  0  0  0
   40.8280   30.8730   39.5940 C   0  0  0  0  0  0  0  0  0  0  0  0
  1 25  1  0  0  0  0
  1  5  1  0  0  0  0
  2  1  1  0  0  0  0
  3 17  1  0  0  0  0
  4  3  1  0  0  0  0
  4  8  1  0  0  0  0
  5 10  1  6  0  0  0
  5  6  1  0  0  0  0
  5  4  1  0  0  0  0
  6 11  1  0  0  0  0
  6  7  1  0  0  0  0
  7  3  1  0  0  0  0
  7 13  1  0  0  0  0
  9  4  1  0  0  0  0
 12  6  1  0  0  0  0
 14  7  1  0  0  0  0
 15 20  1  0  0  0  0
 16 17  1  0  0  0  0
 16 15  2  0  0  0  0
 17 18  2  0  0  0  0
 18 19  1  0  0  0  0
 19 23  1  0  0  0  0
 20 19  2  0  0  0  0
 21 15  1  0  0  0  0
 22 16  1  0  0  0  0
 24 29  1  0  0  0  0
 25 26  1  0  0  0  0
 25 24  2  0  0  0  0
 26 27  2  0  0  0  0
 27 31  1  0  0  0  0
 27 28  1  0  0  0  0
 28 32  1  0  0  0  0
 29 28  2  0  0  0  0
 29 35  1  0  0  0  0
 30 26  1  0  0  0  0
 33 37  1  0  0  0  0
 33 34  2  0  0  0  0
 35 33  1  0  0  0  0
 36 35  1  0  0  0  0
 37 38  1  0  0  0  0
 38 40  2  0  0  0  0
 38 39  1  0  0  0  0
 40 41  1  0  0  0  0
 42 40  1  0  0  0  0
 43 42  2  0  0  0  0
 44 43  1  0  0  0  0
 44 37  2  0  0  0  0
 45 46  3  0  0  0  0
 46 24  1  0  0  0  0
M  END
>  <minimizedAffinity>
-6.60852909

$$$$

 OpenBabel03242519123D

 46 49  0  0  1  0  0  0  0  0999 V2000
   40.7060   33.9930   38.5280 N   0  0  0  0  0  0  0  0  0  0  0  0
   39.9600   34.4200   37.9290 H   0  0  0  0  0  0  0  0  0  0  0  0
   42.2820   35.3480   41.4060 N   0  0  0  0  0  0  0  0  0  0  0  0
   41.9310   34.1570   40.6400 C   0  0  0  0  0  0  0  0  0  0  0  0
   41.4810   34.8270   39.3860 C   0  0  2  0  0  0  0  0  0  0  0  0
   40.5590   35.9150   39.9160 C   0  0  0  0  0  0  0  0  0  0  0  0
   41.2320   36.3000   41.2120 C   0  0  0  0  0  0  0  0  0  0  0  0
   41.0770   33.6390   41.1180 H   0  0  0  0  0  0  0  0  0  0  0  0
   42.7810   33.4670   40.5150 H   0  0  0  0  0  0  0  0  0  0  0  0
   42.3420   35.2480   38.8350 H   0  0  0  0  0  0  0  0  0  0  0  0
   39.5320   35.5360   40.0490 H   0  0  0  0  0  0  0  0  0  0  0  0
   40.5810   36.7520   39.1770 H   0  0  0  0  0  0  0  0  0  0  0  0
   40.5020   36.3050   42.0600 H   0  0  0  0  0  0  0  0  0  0  0  0
   41.6830   37.3020   41.0960 H   0  0  0  0  0  0  0  0  0  0  0  0
   45.7530   35.5220   42.7570 C   0  0  0  0  0  0  0  0  0  0  0  0
   44.7170   35.2100   41.8920 C   0  0  0  0  0  0  0  0  0  0  0  0
   43.4130   35.6100   42.2090 C   0  0  0  0  0  0  0  0  0  0  0  0
   43.2510   36.2920   43.3710 N   0  0  0  0  0  0  0  0  0  0  0  0
   44.2410   36.5990   44.2160 C   0  0  0  0  0  0  0  0  0  0  0  0
   45.5020   36.2050   43.8940 N   0  0  0  0  0  0  0  0  0  0  0  0
   46.7580   35.1930   42.4740 H   0  0  0  0  0  0  0  0  0  0  0  0
   44.8310   34.6680   40.9630 H   0  0  0  0  0  0  0  0  0  0  0  0
   44.0800   37.1360   45.1220 H   0  0  0  0  0  0  0  0  0  0  0  0
   39.8710   31.6800   38.9080 C   0  0  0  0  0  0  0  0  0  0  0  0
   40.7150   32.6100   38.2800 C   0  0  0  0  0  0  0  0  0  0  0  0
   41.5730   32.0330   37.3740 C   0  0  0  0  0  0  0  0  0  0  0  0
   41.6480   30.7020   37.0710 C   0  0  0  0  0  0  0  0  0  0  0  0
   40.8020   29.8300   37.7130 C   0  0  0  0  0  0  0  0  0  0  0  0
   39.9170   30.3480   38.6330 C   0  0  0  0  0  0  0  0  0  0  0  0
   42.2700   32.6740   36.8320 H   0  0  0  0  0  0  0  0  0  0  0  0
   42.3610   30.3260   36.3370 H   0  0  0  0  0  0  0  0  0  0  0  0
   40.8630   28.7820   37.4730 H   0  0  0  0  0  0  0  0  0  0  0  0
   39.4530   28.8270   40.5050 C   0  0  0  0  0  0  0  0  0  0  0  0
   40.5920   29.1060   40.9900 O   0  0  0  0  0  0  0  0  0  0  0  0
   39.0480   29.4120   39.2840 N   0  0  0  0  0  0  0  0  0  0  0  0
   38.1090   29.1530   38.8650 H   0  0  0  0  0  0  0  0  0  0  0  0
   38.5560   27.8910   41.2180 C   0  0  0  0  0  0  0  0  0  0  0  0
   37.5770   28.4080   42.0410 C   0  0  0  0  0  0  0  0  0  0  0  0
   37.4290   29.4530   42.1940 H   0  0  0  0  0  0  0  0  0  0  0  0
   36.7730   27.5150   42.6780 C   0  0  0  0  0  0  0  0  0  0  0  0
   35.9660   27.8150   43.3550 H   0  0  0  0  0  0  0  0  0  0  0  0
   36.9720   26.1650   42.4750 C   0  0  0  0  0  3  0  0  0  0  0  0
   37.9630   25.6360   41.6420 C   0  0  0  0  0  3  0  0  0  0  0  0
   38.7240   26.5680   41.0400 N   0  0  0  0  0  0  0  0  0  0  0  0
   38.1920   32.6350   40.6700 N   0  0  0  0  0  0  0  0  0  0  0  0
   38.9280   32.2180   39.8870 C   0  0  0  0  0  0  0  0  0  0  0  0
  1  5  1  0  0  0  0
  2  1  1  0  0  0  0
  3 17  1  0  0  0  0
  4  8  1  0  0  0  0
  4  3  1  0  0  0  0
  5 10  1  6  0  0  0
  5  6  1  0  0  0  0
  5  4  1  0  0  0  0
  6 11  1  0  0  0  0
  6  7  1  0  0  0  0
  7  3  1  0  0  0  0
  7 13  1  0  0  0  0
  9  4  1  0  0  0  0
 12  6  1  0  0  0  0
 14  7  1  0  0  0  0
 15 20  1  0  0  0  0
 16 17  1  0  0  0  0
 16 15  2  0  0  0  0
 17 18  2  0  0  0  0
 18 19  1  0  0  0  0
 19 23  1  0  0  0  0
 20 19  2  0  0  0  0
 21 15  1  0  0  0  0
 22 16  1  0  0  0  0
 24 46  1  0  0  0  0
 25  1  1  0  0  0  0
 25 24  2  0  0  0  0
 26 25  1  0  0  0  0
 27 26  2  0  0  0  0
 27 28  1  0  0  0  0
 28 29  2  0  0  0  0
 29 24  1  0  0  0  0
 29 35  1  0  0  0  0
 30 26  1  0  0  0  0
 31 27  1  0  0  0  0
 32 28  1  0  0  0  0
 33 34  2  0  0  0  0
 33 37  1  0  0  0  0
 35 33  1  0  0  0  0
 36 35  1  0  0  0  0
 37 38  1  0  0  0  0
 38 39  1  0  0  0  0
 38 40  2  0  0  0  0
 40 41  1  0  0  0  0
 42 40  1  0  0  0  0
 43 42  2  0  0  0  0
 44 37  2  0  0  0  0
 44 43  1  0  0  0  0
 46 45  3  0  0  0  0
M  END
>  <minimizedAffinity>
-6.26211357

$$$$

 OpenBabel03242519123D

 46 49  0  0  1  0  0  0  0  0999 V2000
   37.8380   27.3720   42.0440 N   0  0  0  0  0  0  0  0  0  0  0  0
   38.0080   27.5170   43.0680 H   0  0  0  0  0  0  0  0  0  0  0  0
   37.8010   23.9170   41.2300 N   0  0  0  0  0  0  0  0  0  0  0  0
   37.0320   25.1260   41.5010 C   0  0  0  0  0  0  0  0  0  0  0  0
   38.1490   26.1130   41.4530 C   0  0  2  0  0  0  0  0  0  0  0  0
   39.2010   25.4480   42.3270 C   0  0  0  0  0  0  0  0  0  0  0  0
   38.9870   23.9840   42.0270 C   0  0  0  0  0  0  0  0  0  0  0  0
   36.6090   25.0840   42.5240 H   0  0  0  0  0  0  0  0  0  0  0  0
   36.2340   25.2970   40.7590 H   0  0  0  0  0  0  0  0  0  0  0  0
   38.5040   26.2550   40.4160 H   0  0  0  0  0  0  0  0  0  0  0  0
   39.0570   25.7050   43.3890 H   0  0  0  0  0  0  0  0  0  0  0  0
   40.1990   25.8000   41.9660 H   0  0  0  0  0  0  0  0  0  0  0  0
   38.8980   23.3870   42.9700 H   0  0  0  0  0  0  0  0  0  0  0  0
   39.8370   23.6150   41.4250 H   0  0  0  0  0  0  0  0  0  0  0  0
   36.2250   21.6540   38.7200 C   0  0  0  0  0  0  0  0  0  0  0  0
   36.4020   22.7680   39.5260 C   0  0  0  0  0  0  0  0  0  0  0  0
   37.5190   22.8350   40.3680 C   0  0  0  0  0  0  0  0  0  0  0  0
   38.3710   21.7800   40.3350 N   0  0  0  0  0  0  0  0  0  0  0  0
   38.2130   20.6990   39.5640 C   0  0  0  0  0  0  0  0  0  0  0  0
   37.1230   20.6470   38.7510 N   0  0  0  0  0  0  0  0  0  0  0  0
   35.3410   21.6380   38.0760 H   0  0  0  0  0  0  0  0  0  0  0  0
   35.7320   23.6160   39.5620 H   0  0  0  0  0  0  0  0  0  0  0  0
   38.9010   19.8850   39.5620 H   0  0  0  0  0  0  0  0  0  0  0  0
   37.9790   29.7990   41.5130 C   0  0  0  0  0  0  0  0  0  0  0  0
   37.3090   28.5650   41.5250 C   0  0  0  0  0  0  0  0  0  0  0  0
   36.0540   28.6290   40.9670 C   0  0  0  0  0  0  0  0  0  0  0  0
   35.4630   29.7440   40.4390 C   0  0  0  0  0  0  0  0  0  0  0  0
   36.1590   30.9280   40.4510 C   0  0  0  0  0  0  0  0  0  0  0  0
   37.4240   30.9290   40.9980 C   0  0  0  0  0  0  0  0  0  0  0  0
   35.4520   27.7200   40.9280 H   0  0  0  0  0  0  0  0  0  0  0  0
   34.4600   29.7070   40.0150 H   0  0  0  0  0  0  0  0  0  0  0  0
   35.6920   31.8050   40.0360 H   0  0  0  0  0  0  0  0  0  0  0  0
   38.8260   32.5760   39.8360 C   0  0  0  0  0  0  0  0  0  0  0  0
   38.8630   31.8060   38.8270 O   0  0  0  0  0  0  0  0  0  0  0  0
   38.1230   32.1800   40.9950 N   0  0  0  0  0  0  0  0  0  0  0  0
   38.1210   32.8120   41.8480 H   0  0  0  0  0  0  0  0  0  0  0  0
   39.5200   33.8820   39.7930 C   0  0  0  0  0  0  0  0  0  0  0  0
   38.8530   35.0030   40.2400 C   0  0  0  0  0  0  0  0  0  0  0  0
   37.8550   34.9820   40.6190 H   0  0  0  0  0  0  0  0  0  0  0  0
   39.5250   36.1840   40.1850 C   0  0  0  0  0  0  0  0  0  0  0  0
   39.0900   37.1340   40.5130 H   0  0  0  0  0  0  0  0  0  0  0  0
   40.8130   36.2030   39.6930 C   0  0  0  0  0  3  0  0  0  0  0  0
   41.4950   35.0700   39.2380 C   0  0  0  0  0  3  0  0  0  0  0  0
   40.7790   33.9340   39.3190 N   0  0  0  0  0  0  0  0  0  0  0  0
   40.3860   29.8150   42.5350 N   0  0  0  0  0  0  0  0  0  0  0  0
   39.3220   29.8120   42.0910 C   0  0  0  0  0  0  0  0  0  0  0  0
  1  2  1  0  0  0  0
  3  4  1  0  0  0  0
  3  7  1  0  0  0  0
  4  8  1  0  0  0  0
  5 10  1  6  0  0  0
  5  4  1  0  0  0  0
  5  1  1  0  0  0  0
  5  6  1  0  0  0  0
  6 11  1  0  0  0  0
  7  6  1  0  0  0  0
  7 13  1  0  0  0  0
  9  4  1  0  0  0  0
 12  6  1  0  0  0  0
 14  7  1  0  0  0  0
 15 20  2  0  0  0  0
 15 16  1  0  0  0  0
 16 22  1  0  0  0  0
 16 17  2  0  0  0  0
 17  3  1  0  0  0  0
 18 17  1  0  0  0  0
 19 18  2  0  0  0  0
 20 19  1  0  0  0  0
 21 15  1  0  0  0  0
 23 19  1  0  0  0  0
 24 25  1  0  0  0  0
 24 46  1  0  0  0  0
 25  1  1  0  0  0  0
 26 25  2  0  0  0  0
 27 28  2  0  0  0  0
 27 26  1  0  0  0  0
 28 29  1  0  0  0  0
 29 24  2  0  0  0  0
 30 26  1  0  0  0  0
 31 27  1  0  0  0  0
 32 28  1  0  0  0  0
 33 35  1  0  0  0  0
 34 33  2  0  0  0  0
 35 29  1  0  0  0  0
 35 36  1  0  0  0  0
 37 33  1  0  0  0  0
 37 38  1  0  0  0  0
 38 39  1  0  0  0  0
 40 38  2  0  0  0  0
 40 41  1  0  0  0  0
 42 40  1  0  0  0  0
 43 44  1  0  0  0  0
 43 42  2  0  0  0  0
 44 37  2  0  0  0  0
 46 45  3  0  0  0  0
M  END
>  <minimizedAffinity>
-6.17001152

$$$$

 OpenBabel03242519123D

 46 49  0  0  1  0  0  0  0  0999 V2000
   40.1020   29.3100   42.2290 N   0  0  0  0  0  0  0  0  0  0  0  0
   40.9220   29.0220   42.8150 H   0  0  0  0  0  0  0  0  0  0  0  0
   39.5230   32.3650   40.5170 N   0  0  0  0  0  0  0  0  0  0  0  0
   39.5480   31.6530   41.7890 C   0  0  0  0  0  0  0  0  0  0  0  0
   40.2340   30.4090   41.3310 C   0  0  2  0  0  0  0  0  0  0  0  0
   39.4560   30.0620   40.0700 C   0  0  0  0  0  0  0  0  0  0  0  0
   39.1220   31.4250   39.5150 C   0  0  0  0  0  0  0  0  0  0  0  0
   38.5150   31.4170   42.1130 H   0  0  0  0  0  0  0  0  0  0  0  0
   40.0830   32.2100   42.5770 H   0  0  0  0  0  0  0  0  0  0  0  0
   41.3000   30.6040   41.1180 H   0  0  0  0  0  0  0  0  0  0  0  0
   38.5680   29.4520   40.3050 H   0  0  0  0  0  0  0  0  0  0  0  0
   40.1530   29.5040   39.3980 H   0  0  0  0  0  0  0  0  0  0  0  0
   38.0330   31.5060   39.2690 H   0  0  0  0  0  0  0  0  0  0  0  0
   39.7280   31.6000   38.6080 H   0  0  0  0  0  0  0  0  0  0  0  0
   39.3570   36.0740   40.1720 C   0  0  0  0  0  0  0  0  0  0  0  0
   38.9630   34.7870   40.5040 C   0  0  0  0  0  0  0  0  0  0  0  0
   39.8180   33.7140   40.2260 C   0  0  0  0  0  0  0  0  0  0  0  0
   41.0030   34.0160   39.6370 N   0  0  0  0  0  0  0  0  0  0  0  0
   41.3960   35.2520   39.3110 C   0  0  0  0  0  0  0  0  0  0  0  0
   40.5550   36.2850   39.5870 N   0  0  0  0  0  0  0  0  0  0  0  0
   38.6620   36.8870   40.4060 H   0  0  0  0  0  0  0  0  0  0  0  0
   38.0230   34.5320   40.9740 H   0  0  0  0  0  0  0  0  0  0  0  0
   42.3340   35.4560   38.8480 H   0  0  0  0  0  0  0  0  0  0  0  0
   38.9140   27.1290   42.0720 C   0  0  0  0  0  0  0  0  0  0  0  0
   39.0350   28.4490   42.5340 C   0  0  0  0  0  0  0  0  0  0  0  0
   37.9860   28.8370   43.3350 C   0  0  0  0  0  0  0  0  0  0  0  0
   36.9110   28.0670   43.6830 C   0  0  0  0  0  0  0  0  0  0  0  0
   36.8380   26.7810   43.2050 C   0  0  0  0  0  0  0  0  0  0  0  0
   37.8590   26.3340   42.3960 C   0  0  0  0  0  0  0  0  0  0  0  0
   37.9880   29.8480   43.7450 H   0  0  0  0  0  0  0  0  0  0  0  0
   36.1210   28.4540   44.3250 H   0  0  0  0  0  0  0  0  0  0  0  0
   35.9900   26.1770   43.4800 H   0  0  0  0  0  0  0  0  0  0  0  0
   37.0680   24.7390   40.7030 C   0  0  0  0  0  0  0  0  0  0  0  0
   36.5260   25.7000   40.0760 O   0  0  0  0  0  0  0  0  0  0  0  0
   37.7520   24.9880   41.9140 N   0  0  0  0  0  0  0  0  0  0  0  0
   38.1770   24.1770   42.4520 H   0  0  0  0  0  0  0  0  0  0  0  0
   36.9810   23.3640   40.1640 C   0  0  0  0  0  0  0  0  0  0  0  0
   35.9110   23.0340   39.3590 C   0  0  0  0  0  0  0  0  0  0  0  0
   35.1350   23.7190   39.1020 H   0  0  0  0  0  0  0  0  0  0  0  0
   35.8680   21.7610   38.8830 C   0  0  0  0  0  0  0  0  0  0  0  0
   35.0640   21.3920   38.2370 H   0  0  0  0  0  0  0  0  0  0  0  0
   36.8750   20.8810   39.2200 C   0  0  0  0  0  3  0  0  0  0  0  0
   37.9620   21.2100   40.0350 C   0  0  0  0  0  3  0  0  0  0  0  0
   37.9490   22.4820   40.4740 N   0  0  0  0  0  0  0  0  0  0  0  0
   40.8510   26.2710   40.5390 N   0  0  0  0  0  0  0  0  0  0  0  0
   39.9920   26.6430   41.2120 C   0  0  0  0  0  0  0  0  0  0  0  0
  1 25  1  0  0  0  0
  1  2  1  0  0  0  0
  3  4  1  0  0  0  0
  4  8  1  0  0  0  0
  4  9  1  0  0  0  0
  5 10  1  6  0  0  0
  5  4  1  0  0  0  0
  5  1  1  0  0  0  0
  6 11  1  0  0  0  0
  6  5  1  0  0  0  0
  7  6  1  0  0  0  0
  7  3  1  0  0  0  0
 12  6  1  0  0  0  0
 13  7  1  0  0  0  0
 14  7  1  0  0  0  0
 15 21  1  0  0  0  0
 15 16  1  0  0  0  0
 16 22  1  0  0  0  0
 17 16  2  0  0  0  0
 17  3  1  0  0  0  0
 18 17  1  0  0  0  0
 19 20  1  0  0  0  0
 19 18  2  0  0  0  0
 20 15  2  0  0  0  0
 23 19  1  0  0  0  0
 24 29  2  0  0  0  0
 24 25  1  0  0  0  0
 25 26  2  0  0  0  0
 26 27  1  0  0  0  0
 26 30  1  0  0  0  0
 27 31  1  0  0  0  0
 28 32  1  0  0  0  0
 28 27  2  0  0  0  0
 29 28  1  0  0  0  0
 33 35  1  0  0  0  0
 34 33  2  0  0  0  0
 35 29  1  0  0  0  0
 35 36  1  0  0  0  0
 37 44  1  0  0  0  0
 37 33  1  0  0  0  0
 38 37  2  0  0  0  0
 39 38  1  0  0  0  0
 40 42  2  0  0  0  0
 40 38  1  0  0  0  0
 41 40  1  0  0  0  0
 42 43  1  0  0  0  0
 43 44  2  0  0  0  0
 45 46  3  0  0  0  0
 46 24  1  0  0  0  0
M  END
>  <minimizedAffinity>
-6.09313488

$$$$

 OpenBabel03242519123D

 46 49  0  0  1  0  0  0  0  0999 V2000
   37.5690   27.2160   42.3760 N   0  0  0  0  0  0  0  0  0  0  0  0
   37.0100   27.2970   43.2590 H   0  0  0  0  0  0  0  0  0  0  0  0
   37.1390   24.4040   40.2520 N   0  0  0  0  0  0  0  0  0  0  0  0
   37.2950   24.9070   41.6120 C   0  0  0  0  0  0  0  0  0  0  0  0
   37.1100   26.3610   41.3320 C   0  0  2  0  0  0  0  0  0  0  0  0
   38.0250   26.5750   40.1350 C   0  0  0  0  0  0  0  0  0  0  0  0
   37.8930   25.2660   39.3940 C   0  0  0  0  0  0  0  0  0  0  0  0
   38.3270   24.7200   41.9680 H   0  0  0  0  0  0  0  0  0  0  0  0
   36.5600   24.4760   42.3120 H   0  0  0  0  0  0  0  0  0  0  0  0
   36.0560   26.5830   41.0900 H   0  0  0  0  0  0  0  0  0  0  0  0
   39.0560   26.7960   40.4560 H   0  0  0  0  0  0  0  0  0  0  0  0
   37.6020   27.4250   39.5460 H   0  0  0  0  0  0  0  0  0  0  0  0
   38.8970   24.8400   39.1430 H   0  0  0  0  0  0  0  0  0  0  0  0
   37.3120   25.4360   38.4690 H   0  0  0  0  0  0  0  0  0  0  0  0
   34.4070   22.1420   39.1010 C   0  0  0  0  0  0  0  0  0  0  0  0
   35.0210   23.2900   39.5780 C   0  0  0  0  0  0  0  0  0  0  0  0
   36.4080   23.2960   39.7720 C   0  0  0  0  0  0  0  0  0  0  0  0
   37.0700   22.1500   39.4740 N   0  0  0  0  0  0  0  0  0  0  0  0
   36.4910   21.0360   39.0150 C   0  0  0  0  0  0  0  0  0  0  0  0
   35.1430   21.0440   38.8300 N   0  0  0  0  0  0  0  0  0  0  0  0
   33.3220   22.1760   38.9610 H   0  0  0  0  0  0  0  0  0  0  0  0
   34.5070   24.2100   39.8190 H   0  0  0  0  0  0  0  0  0  0  0  0
   37.0400   20.1500   38.7900 H   0  0  0  0  0  0  0  0  0  0  0  0
   38.7030   29.4270   42.2420 C   0  0  0  0  0  0  0  0  0  0  0  0
   38.6940   28.0470   42.5040 C   0  0  0  0  0  0  0  0  0  0  0  0
   39.9170   27.5680   42.9090 C   0  0  0  0  0  0  0  0  0  0  0  0
   41.0600   28.3030   43.0610 C   0  0  0  0  0  0  0  0  0  0  0  0
   41.0200   29.6500   42.7920 C   0  0  0  0  0  0  0  0  0  0  0  0
   39.8210   30.1900   42.3810 C   0  0  0  0  0  0  0  0  0  0  0  0
   40.0120   26.5050   43.1370 H   0  0  0  0  0  0  0  0  0  0  0  0
   41.9920   27.8420   43.3870 H   0  0  0  0  0  0  0  0  0  0  0  0
   41.9210   30.2260   42.9120 H   0  0  0  0  0  0  0  0  0  0  0  0
   40.1000   32.0510   40.8030 C   0  0  0  0  0  0  0  0  0  0  0  0
   40.3990   31.2140   39.8960 O   0  0  0  0  0  0  0  0  0  0  0  0
   39.8120   31.5980   42.1090 N   0  0  0  0  0  0  0  0  0  0  0  0
   39.5940   32.3030   42.8720 H   0  0  0  0  0  0  0  0  0  0  0  0
   40.0560   33.4950   40.4860 C   0  0  0  0  0  0  0  0  0  0  0  0
   38.8350   34.1360   40.4810 C   0  0  0  0  0  0  0  0  0  0  0  0
   37.9110   33.6450   40.6930 H   0  0  0  0  0  0  0  0  0  0  0  0
   38.8360   35.4640   40.1860 C   0  0  0  0  0  0  0  0  0  0  0  0
   37.9240   36.0690   40.1530 H   0  0  0  0  0  0  0  0  0  0  0  0
   40.0330   36.0910   39.9120 C   0  0  0  0  0  3  0  0  0  0  0  0
   41.2750   35.4470   39.9160 C   0  0  0  0  0  3  0  0  0  0  0  0
   41.2070   34.1370   40.2150 N   0  0  0  0  0  0  0  0  0  0  0  0
   36.4440   30.4740   41.4460 N   0  0  0  0  0  0  0  0  0  0  0  0
   37.4370   30.0120   41.8050 C   0  0  0  0  0  0  0  0  0  0  0  0
  1 25  1  0  0  0  0
  1  2  1  0  0  0  0
  3  4  1  0  0  0  0
  4  8  1  0  0  0  0
  4  9  1  0  0  0  0
  5 10  1  6  0  0  0
  5  4  1  0  0  0  0
  5  1  1  0  0  0  0
  6 11  1  0  0  0  0
  6  5  1  0  0  0  0
  7  6  1  0  0  0  0
  7  3  1  0  0  0  0
 12  6  1  0  0  0  0
 13  7  1  0  0  0  0
 14  7  1  0  0  0  0
 15 16  1  0  0  0  0
 16 17  2  0  0  0  0
 16 22  1  0  0  0  0
 17  3  1  0  0  0  0
 18 17  1  0  0  0  0
 19 18  2  0  0  0  0
 20 19  1  0  0  0  0
 20 15  2  0  0  0  0
 21 15  1  0  0  0  0
 23 19  1  0  0  0  0
 24 29  2  0  0  0  0
 24 25  1  0  0  0  0
 25 26  2  0  0  0  0
 26 27  1  0  0  0  0
 26 30  1  0  0  0  0
 27 31  1  0  0  0  0
 28 32  1  0  0  0  0
 28 27  2  0  0  0  0
 29 28  1  0  0  0  0
 33 35  1  0  0  0  0
 34 33  2  0  0  0  0
 35 29  1  0  0  0  0
 35 36  1  0  0  0  0
 37 33  1  0  0  0  0
 38 37  1  0  0  0  0
 38 39  1  0  0  0  0
 40 38  2  0  0  0  0
 41 40  1  0  0  0  0
 42 43  2  0  0  0  0
 42 40  1  0  0  0  0
 43 44  1  0  0  0  0
 44 37  2  0  0  0  0
 45 46  3  0  0  0  0
 46 24  1  0  0  0  0
M  END
>  <minimizedAffinity>
-6.00363874

$$$$

 OpenBabel03242519123D

 46 49  0  0  1  0  0  0  0  0999 V2000
   38.3600   29.4740   41.9880 N   0  0  0  0  0  0  0  0  0  0  0  0
   37.3590   29.6470   42.2420 H   0  0  0  0  0  0  0  0  0  0  0  0
   39.2580   32.3230   40.0700 N   0  0  0  0  0  0  0  0  0  0  0  0
   38.3120   31.7100   40.9950 C   0  0  0  0  0  0  0  0  0  0  0  0
   39.1180   30.5130   41.3740 C   0  0  2  0  0  0  0  0  0  0  0  0
   39.5820   29.9980   40.0200 C   0  0  0  0  0  0  0  0  0  0  0  0
   39.7750   31.2770   39.2400 C   0  0  0  0  0  0  0  0  0  0  0  0
   37.4000   31.3940   40.4510 H   0  0  0  0  0  0  0  0  0  0  0  0
   38.0500   32.3740   41.8360 H   0  0  0  0  0  0  0  0  0  0  0  0
   39.9680   30.8000   42.0190 H   0  0  0  0  0  0  0  0  0  0  0  0
   38.8360   29.3200   39.5750 H   0  0  0  0  0  0  0  0  0  0  0  0
   40.5520   29.4680   40.1850 H   0  0  0  0  0  0  0  0  0  0  0  0
   39.2580   31.2280   38.2490 H   0  0  0  0  0  0  0  0  0  0  0  0
   40.8570   31.4470   39.0950 H   0  0  0  0  0  0  0  0  0  0  0  0
   39.3450   36.0500   40.0930 C   0  0  0  0  0  0  0  0  0  0  0  0
   38.8490   34.7670   40.2630 C   0  0  0  0  0  0  0  0  0  0  0  0
   39.6560   33.6700   39.9380 C   0  0  0  0  0  0  0  0  0  0  0  0
   40.8990   33.9470   39.4680 N   0  0  0  0  0  0  0  0  0  0  0  0
   41.3900   35.1790   39.2980 C   0  0  0  0  0  0  0  0  0  0  0  0
   40.5940   36.2350   39.6180 N   0  0  0  0  0  0  0  0  0  0  0  0
   38.6840   36.8820   40.3580 H   0  0  0  0  0  0  0  0  0  0  0  0
   37.8620   34.5320   40.6370 H   0  0  0  0  0  0  0  0  0  0  0  0
   42.3710   35.3630   38.9250 H   0  0  0  0  0  0  0  0  0  0  0  0
   38.0580   27.0080   41.8440 C   0  0  0  0  0  0  0  0  0  0  0  0
   38.6760   28.1570   42.3630 C   0  0  0  0  0  0  0  0  0  0  0  0
   39.6450   27.8730   43.2960 C   0  0  0  0  0  0  0  0  0  0  0  0
   40.0150   26.6260   43.7170 C   0  0  0  0  0  0  0  0  0  0  0  0
   39.3810   25.5310   43.1800 C   0  0  0  0  0  0  0  0  0  0  0  0
   38.3990   25.7520   42.2390 C   0  0  0  0  0  0  0  0  0  0  0  0
   40.1840   28.7010   43.7580 H   0  0  0  0  0  0  0  0  0  0  0  0
   40.7970   26.4880   44.4640 H   0  0  0  0  0  0  0  0  0  0  0  0
   39.6740   24.5510   43.5140 H   0  0  0  0  0  0  0  0  0  0  0  0
   38.3480   23.9190   40.6050 C   0  0  0  0  0  0  0  0  0  0  0  0
   39.4170   24.3720   40.0900 O   0  0  0  0  0  0  0  0  0  0  0  0
   37.7570   24.5890   41.6990 N   0  0  0  0  0  0  0  0  0  0  0  0
   36.8470   24.2260   42.1060 H   0  0  0  0  0  0  0  0  0  0  0  0
   37.7280   22.6930   40.0570 C   0  0  0  0  0  0  0  0  0  0  0  0
   36.5330   22.8010   39.3750 C   0  0  0  0  0  0  0  0  0  0  0  0
   36.0270   23.7280   39.2200 H   0  0  0  0  0  0  0  0  0  0  0  0
   35.9960   21.6520   38.8870 C   0  0  0  0  0  0  0  0  0  0  0  0
   35.0520   21.6220   38.3320 H   0  0  0  0  0  0  0  0  0  0  0  0
   36.6570   20.4590   39.0920 C   0  0  0  0  0  3  0  0  0  0  0  0
   37.8680   20.3420   39.7820 C   0  0  0  0  0  3  0  0  0  0  0  0
   38.3490   21.5130   40.2390 N   0  0  0  0  0  0  0  0  0  0  0  0
   36.2000   27.4120   40.0490 N   0  0  0  0  0  0  0  0  0  0  0  0
   37.0140   27.2290   40.8450 C   0  0  0  0  0  0  0  0  0  0  0  0
  1  2  1  0  0  0  0
  1 25  1  0  0  0  0
  3  4  1  0  0  0  0
  4  5  1  0  0  0  0
  4  9  1  0  0  0  0
  5  1  1  0  0  0  0
  5 10  1  1  0  0  0
  6 12  1  0  0  0  0
  6  5  1  0  0  0  0
  7  6  1  0  0  0  0
  7  3  1  0  0  0  0
  8  4  1  0  0  0  0
 11  6  1  0  0  0  0
 13  7  1  0  0  0  0
 14  7  1  0  0  0  0
 15 16  1  0  0  0  0
 15 21  1  0  0  0  0
 16 22  1  0  0  0  0
 17  3  1  0  0  0  0
 17 16  2  0  0  0  0
 18 17  1  0  0  0  0
 19 18  2  0  0  0  0
 19 20  1  0  0  0  0
 20 15  2  0  0  0  0
 23 19  1  0  0  0  0
 24 29  2  0  0  0  0
 24 25  1  0  0  0  0
 25 26  2  0  0  0  0
 26 27  1  0  0  0  0
 26 30  1  0  0  0  0
 27 31  1  0  0  0  0
 28 32  1  0  0  0  0
 28 27  2  0  0  0  0
 29 28  1  0  0  0  0
 33 35  1  0  0  0  0
 34 33  2  0  0  0  0
 35 36  1  0  0  0  0
 35 29  1  0  0  0  0
 37 44  1  0  0  0  0
 37 33  1  0  0  0  0
 38 37  2  0  0  0  0
 39 38  1  0  0  0  0
 40 42  2  0  0  0  0
 40 38  1  0  0  0  0
 41 40  1  0  0  0  0
 42 43  1  0  0  0  0
 43 44  2  0  0  0  0
 45 46  3  0  0  0  0
 46 24  1  0  0  0  0
M  END
>  <minimizedAffinity>
-5.96298981

$$$$

 OpenBabel03242519123D

 46 49  0  0  1  0  0  0  0  0999 V2000
   37.4690   29.7060   41.4550 N   0  0  0  0  0  0  0  0  0  0  0  0
   36.5280   29.8060   41.9060 H   0  0  0  0  0  0  0  0  0  0  0  0
   38.7880   32.7840   40.2750 N   0  0  0  0  0  0  0  0  0  0  0  0
   38.8530   31.7150   41.2660 C   0  0  0  0  0  0  0  0  0  0  0  0
   37.9480   30.7380   40.5950 C   0  0  2  0  0  0  0  0  0  0  0  0
   36.7570   31.6090   40.2230 C   0  0  0  0  0  0  0  0  0  0  0  0
   37.4140   32.9290   39.9010 C   0  0  0  0  0  0  0  0  0  0  0  0
   38.4030   32.0550   42.2190 H   0  0  0  0  0  0  0  0  0  0  0  0
   39.8820   31.3520   41.4310 H   0  0  0  0  0  0  0  0  0  0  0  0
   38.4330   30.3000   39.7040 H   0  0  0  0  0  0  0  0  0  0  0  0
   36.0330   31.6680   41.0520 H   0  0  0  0  0  0  0  0  0  0  0  0
   36.2860   31.1520   39.3180 H   0  0  0  0  0  0  0  0  0  0  0  0
   36.9150   33.7720   40.4410 H   0  0  0  0  0  0  0  0  0  0  0  0
   37.3630   33.0960   38.8100 H   0  0  0  0  0  0  0  0  0  0  0  0
   41.0690   35.6110   39.4350 C   0  0  0  0  0  0  0  0  0  0  0  0
   40.0230   34.9280   40.0360 C   0  0  0  0  0  0  0  0  0  0  0  0
   39.8180   33.5780   39.7260 C   0  0  0  0  0  0  0  0  0  0  0  0
   40.6770   33.0200   38.8380 N   0  0  0  0  0  0  0  0  0  0  0  0
   41.6890   33.6660   38.2500 C   0  0  0  0  0  0  0  0  0  0  0  0
   41.8770   34.9770   38.5610 N   0  0  0  0  0  0  0  0  0  0  0  0
   41.1980   36.6650   39.7030 H   0  0  0  0  0  0  0  0  0  0  0  0
   39.3310   35.3600   40.7460 H   0  0  0  0  0  0  0  0  0  0  0  0
   42.3480   33.1980   37.5550 H   0  0  0  0  0  0  0  0  0  0  0  0
   37.9670   27.2900   41.1300 C   0  0  0  0  0  0  0  0  0  0  0  0
   38.0160   28.4820   41.8710 C   0  0  0  0  0  0  0  0  0  0  0  0
   38.6670   28.3410   43.0740 C   0  0  0  0  0  0  0  0  0  0  0  0
   39.2280   27.1910   43.5560 C   0  0  0  0  0  0  0  0  0  0  0  0
   39.1530   26.0490   42.7950 C   0  0  0  0  0  0  0  0  0  0  0  0
   38.5120   26.1270   41.5780 C   0  0  0  0  0  0  0  0  0  0  0  0
   38.7590   29.2120   43.7240 H   0  0  0  0  0  0  0  0  0  0  0  0
   39.7270   27.1660   44.5250 H   0  0  0  0  0  0  0  0  0  0  0  0
   39.5950   25.1450   43.1760 H   0  0  0  0  0  0  0  0  0  0  0  0
   37.3560   24.0440   40.9800 C   0  0  0  0  0  0  0  0  0  0  0  0
   36.4600   24.3160   41.8370 O   0  0  0  0  0  0  0  0  0  0  0  0
   38.4520   24.9190   40.8070 N   0  0  0  0  0  0  0  0  0  0  0  0
   39.2150   24.6720   40.1130 H   0  0  0  0  0  0  0  0  0  0  0  0
   37.2490   22.8130   40.1660 C   0  0  0  0  0  0  0  0  0  0  0  0
   38.2800   21.8970   40.2080 C   0  0  0  0  0  0  0  0  0  0  0  0
   39.1590   22.0280   40.8000 H   0  0  0  0  0  0  0  0  0  0  0  0
   38.1430   20.7790   39.4470 C   0  0  0  0  0  0  0  0  0  0  0  0
   38.9000   19.9890   39.4050 H   0  0  0  0  0  0  0  0  0  0  0  0
   37.0050   20.6180   38.6860 C   0  0  0  0  0  3  0  0  0  0  0  0
   35.9560   21.5420   38.6380 C   0  0  0  0  0  3  0  0  0  0  0  0
   36.1500   22.6260   39.4130 N   0  0  0  0  0  0  0  0  0  0  0  0
   36.7660   27.4200   38.8110 N   0  0  0  0  0  0  0  0  0  0  0  0
   37.2890   27.3590   39.8370 C   0  0  0  0  0  0  0  0  0  0  0  0
  1 25  1  0  0  0  0
  1  2  1  0  0  0  0
  3  4  1  0  0  0  0
  4  9  1  0  0  0  0
  4  8  1  0  0  0  0
  5 10  1  6  0  0  0
  5  4  1  0  0  0  0
  5  1  1  0  0  0  0
  6  5  1  0  0  0  0
  6 11  1  0  0  0  0
  7  6  1  0  0  0  0
  7  3  1  0  0  0  0
  7 13  1  0  0  0  0
 12  6  1  0  0  0  0
 14  7  1  0  0  0  0
 15 21  1  0  0  0  0
 15 16  1  0  0  0  0
 16 22  1  0  0  0  0
 17 16  2  0  0  0  0
 17  3  1  0  0  0  0
 18 17  1  0  0  0  0
 19 20  1  0  0  0  0
 19 18  2  0  0  0  0
 20 15  2  0  0  0  0
 23 19  1  0  0  0  0
 24 29  2  0  0  0  0
 24 25  1  0  0  0  0
 25 26  2  0  0  0  0
 26 27  1  0  0  0  0
 26 30  1  0  0  0  0
 27 31  1  0  0  0  0
 28 32  1  0  0  0  0
 28 27  2  0  0  0  0
 29 28  1  0  0  0  0
 33 34  2  0  0  0  0
 35 33  1  0  0  0  0
 35 29  1  0  0  0  0
 36 35  1  0  0  0  0
 37 38  1  0  0  0  0
 37 33  1  0  0  0  0
 38 39  1  0  0  0  0
 40 38  2  0  0  0  0
 41 40  1  0  0  0  0
 42 40  1  0  0  0  0
 43 42  2  0  0  0  0
 43 44  1  0  0  0  0
 44 37  2  0  0  0  0
 45 46  3  0  0  0  0
 46 24  1  0  0  0  0
M  END
>  <minimizedAffinity>
-5.92176199

$$$$

 OpenBabel03242519123D

 46 49  0  0  1  0  0  0  0  0999 V2000
   36.4220   29.3710   40.3120 N   0  0  0  0  0  0  0  0  0  0  0  0
   35.3940   29.4690   40.1320 H   0  0  0  0  0  0  0  0  0  0  0  0
   37.8870   32.5400   39.6680 N   0  0  0  0  0  0  0  0  0  0  0  0
   37.2050   31.6700   40.6180 C   0  0  0  0  0  0  0  0  0  0  0  0
   37.3130   30.3890   39.8610 C   0  0  2  0  0  0  0  0  0  0  0  0
   36.8630   30.8030   38.4680 C   0  0  0  0  0  0  0  0  0  0  0  0
   37.3940   32.2120   38.3650 C   0  0  0  0  0  0  0  0  0  0  0  0
   36.1410   31.9670   40.7080 H   0  0  0  0  0  0  0  0  0  0  0  0
   37.6880   31.6610   41.6100 H   0  0  0  0  0  0  0  0  0  0  0  0
   38.3530   30.0170   39.8650 H   0  0  0  0  0  0  0  0  0  0  0  0
   35.7670   30.7370   38.3680 H   0  0  0  0  0  0  0  0  0  0  0  0
   37.3690   30.1190   37.7430 H   0  0  0  0  0  0  0  0  0  0  0  0
   36.5980   32.9200   38.0230 H   0  0  0  0  0  0  0  0  0  0  0  0
   38.2410   32.2240   37.6560 H   0  0  0  0  0  0  0  0  0  0  0  0
   41.1020   34.3580   40.1840 C   0  0  0  0  0  0  0  0  0  0  0  0
   40.2370   33.2980   39.9630 C   0  0  0  0  0  0  0  0  0  0  0  0
   38.8600   33.5400   39.8880 C   0  0  0  0  0  0  0  0  0  0  0  0
   38.4580   34.8270   40.0420 N   0  0  0  0  0  0  0  0  0  0  0  0
   39.2800   35.8590   40.2560 C   0  0  0  0  0  0  0  0  0  0  0  0
   40.6160   35.6090   40.3250 N   0  0  0  0  0  0  0  0  0  0  0  0
   42.1710   34.1300   40.2350 H   0  0  0  0  0  0  0  0  0  0  0  0
   40.5420   32.2680   39.8380 H   0  0  0  0  0  0  0  0  0  0  0  0
   38.9330   36.8590   40.3730 H   0  0  0  0  0  0  0  0  0  0  0  0
   36.8170   26.9160   40.3890 C   0  0  0  0  0  0  0  0  0  0  0  0
   36.6240   28.1640   41.0010 C   0  0  0  0  0  0  0  0  0  0  0  0
   36.6530   28.1000   42.3750 C   0  0  0  0  0  0  0  0  0  0  0  0
   36.8430   26.9730   43.1240 C   0  0  0  0  0  0  0  0  0  0  0  0
   37.0260   25.7740   42.4780 C   0  0  0  0  0  0  0  0  0  0  0  0
   37.0080   25.7730   41.1010 C   0  0  0  0  0  0  0  0  0  0  0  0
   36.5130   29.0210   42.9430 H   0  0  0  0  0  0  0  0  0  0  0  0
   36.8510   27.0100   44.2130 H   0  0  0  0  0  0  0  0  0  0  0  0
   37.1760   24.8870   43.0710 H   0  0  0  0  0  0  0  0  0  0  0  0
   38.5160   24.0270   40.2590 C   0  0  0  0  0  0  0  0  0  0  0  0
   39.5070   24.7350   40.6160 O   0  0  0  0  0  0  0  0  0  0  0  0
   37.2030   24.5060   40.4580 N   0  0  0  0  0  0  0  0  0  0  0  0
   36.3780   23.9250   40.1300 H   0  0  0  0  0  0  0  0  0  0  0  0
   38.7420   22.7030   39.6370 C   0  0  0  0  0  0  0  0  0  0  0  0
   39.5360   22.6250   38.5120 C   0  0  0  0  0  0  0  0  0  0  0  0
   40.0020   23.4730   38.0610 H   0  0  0  0  0  0  0  0  0  0  0  0
   39.7190   21.3910   37.9710 C   0  0  0  0  0  0  0  0  0  0  0  0
   40.3300   21.2150   37.0790 H   0  0  0  0  0  0  0  0  0  0  0  0
   39.1140   20.3010   38.5600 C   0  0  0  0  0  3  0  0  0  0  0  0
   38.3080   20.3730   39.7000 C   0  0  0  0  0  3  0  0  0  0  0  0
   38.1660   21.6190   40.1890 N   0  0  0  0  0  0  0  0  0  0  0  0
   36.7700   26.8940   37.7740 N   0  0  0  0  0  0  0  0  0  0  0  0
   36.7990   26.9020   38.9270 C   0  0  0  0  0  0  0  0  0  0  0  0
  1 25  1  0  0  0  0
  2  1  1  0  0  0  0
  3 17  1  0  0  0  0
  3  4  1  0  0  0  0
  4  8  1  0  0  0  0
  4  9  1  0  0  0  0
  5 10  1  6  0  0  0
  5  1  1  0  0  0  0
  5  4  1  0  0  0  0
  6  5  1  0  0  0  0
  7  6  1  0  0  0  0
  7  3  1  0  0  0  0
 11  6  1  0  0  0  0
 12  6  1  0  0  0  0
 13  7  1  0  0  0  0
 14  7  1  0  0  0  0
 15 21  1  0  0  0  0
 15 20  1  0  0  0  0
 16 15  2  0  0  0  0
 17 16  1  0  0  0  0
 17 18  2  0  0  0  0
 18 19  1  0  0  0  0
 19 20  2  0  0  0  0
 19 23  1  0  0  0  0
 22 16  1  0  0  0  0
 24 25  2  0  0  0  0
 24 29  1  0  0  0  0
 25 26  1  0  0  0  0
 26 30  1  0  0  0  0
 26 27  2  0  0  0  0
 27 31  1  0  0  0  0
 28 32  1  0  0  0  0
 28 27  1  0  0  0  0
 29 28  2  0  0  0  0
 33 35  1  0  0  0  0
 33 34  2  0  0  0  0
 35 29  1  0  0  0  0
 36 35  1  0  0  0  0
 37 44  1  0  0  0  0
 37 33  1  0  0  0  0
 38 37  2  0  0  0  0
 39 38  1  0  0  0  0
 40 38  1  0  0  0  0
 40 42  2  0  0  0  0
 41 40  1  0  0  0  0
 42 43  1  0  0  0  0
 43 44  2  0  0  0  0
 45 46  3  0  0  0  0
 46 24  1  0  0  0  0
M  END
>  <minimizedAffinity>
-5.89658642

$$$$

 OpenBabel03242519123D

 46 49  0  0  1  0  0  0  0  0999 V2000
   38.7240   26.8790   43.1020 N   0  0  0  0  0  0  0  0  0  0  0  0
   37.9990   27.2140   43.7810 H   0  0  0  0  0  0  0  0  0  0  0  0
   38.2890   24.4220   40.5760 N   0  0  0  0  0  0  0  0  0  0  0  0
   38.9850   25.6260   41.0160 C   0  0  0  0  0  0  0  0  0  0  0  0
   38.5400   25.6300   42.4400 C   0  0  2  0  0  0  0  0  0  0  0  0
   37.0420   25.4010   42.3070 C   0  0  0  0  0  0  0  0  0  0  0  0
   36.9630   24.4820   41.1120 C   0  0  0  0  0  0  0  0  0  0  0  0
   38.5780   26.5120   40.4910 H   0  0  0  0  0  0  0  0  0  0  0  0
   40.0770   25.5600   40.8740 H   0  0  0  0  0  0  0  0  0  0  0  0
   39.0320   24.8190   43.0080 H   0  0  0  0  0  0  0  0  0  0  0  0
   36.5050   26.3540   42.1660 H   0  0  0  0  0  0  0  0  0  0  0  0
   36.7040   24.8900   43.2420 H   0  0  0  0  0  0  0  0  0  0  0  0
   36.2200   24.8550   40.3640 H   0  0  0  0  0  0  0  0  0  0  0  0
   36.6780   23.4720   41.4570 H   0  0  0  0  0  0  0  0  0  0  0  0
   38.8730   21.0420   39.1160 C   0  0  0  0  0  0  0  0  0  0  0  0
   38.3620   22.0150   39.9600 C   0  0  0  0  0  0  0  0  0  0  0  0
   38.7430   23.3500   39.7790 C   0  0  0  0  0  0  0  0  0  0  0  0
   39.6080   23.6040   38.7650 N   0  0  0  0  0  0  0  0  0  0  0  0
   40.1100   22.6750   37.9440 C   0  0  0  0  0  0  0  0  0  0  0  0
   39.7300   21.3830   38.1310 N   0  0  0  0  0  0  0  0  0  0  0  0
   38.5510   20.0100   39.2890 H   0  0  0  0  0  0  0  0  0  0  0  0
   37.6720   21.8270   40.7720 H   0  0  0  0  0  0  0  0  0  0  0  0
   40.7880   22.9080   37.1550 H   0  0  0  0  0  0  0  0  0  0  0  0
   39.5470   29.1920   42.6990 C   0  0  0  0  0  0  0  0  0  0  0  0
   39.7400   27.8460   43.0490 C   0  0  0  0  0  0  0  0  0  0  0  0
   41.0510   27.5500   43.3450 C   0  0  0  0  0  0  0  0  0  0  0  0
   42.0990   28.4270   43.3190 C   0  0  0  0  0  0  0  0  0  0  0  0
   41.8590   29.7340   42.9690 C   0  0  0  0  0  0  0  0  0  0  0  0
   40.5650   30.0930   42.6620 C   0  0  0  0  0  0  0  0  0  0  0  0
   41.3040   26.5280   43.6290 H   0  0  0  0  0  0  0  0  0  0  0  0
   43.1110   28.1080   43.5680 H   0  0  0  0  0  0  0  0  0  0  0  0
   42.6870   30.4230   42.9500 H   0  0  0  0  0  0  0  0  0  0  0  0
   40.6080   31.8790   40.9760 C   0  0  0  0  0  0  0  0  0  0  0  0
   41.0640   31.0470   40.1320 O   0  0  0  0  0  0  0  0  0  0  0  0
   40.3490   31.4630   42.3010 N   0  0  0  0  0  0  0  0  0  0  0  0
   39.9980   32.1690   43.0120 H   0  0  0  0  0  0  0  0  0  0  0  0
   40.3520   33.2780   40.5690 C   0  0  0  0  0  0  0  0  0  0  0  0
   41.3720   33.9940   39.9770 C   0  0  0  0  0  0  0  0  0  0  0  0
   42.3430   33.5930   39.7940 H   0  0  0  0  0  0  0  0  0  0  0  0
   41.0960   35.2760   39.6160 C   0  0  0  0  0  0  0  0  0  0  0  0
   41.8310   35.9340   39.1400 H   0  0  0  0  0  0  0  0  0  0  0  0
   39.8380   35.7870   39.8560 C   0  0  0  0  0  3  0  0  0  0  0  0
   38.8000   35.0660   40.4560 C   0  0  0  0  0  3  0  0  0  0  0  0
   39.1340   33.8060   40.7880 N   0  0  0  0  0  0  0  0  0  0  0  0
   37.0930   29.8800   42.1100 N   0  0  0  0  0  0  0  0  0  0  0  0
   38.1770   29.5850   42.3690 C   0  0  0  0  0  0  0  0  0  0  0  0
  1  2  1  0  0  0  0
  3  4  1  0  0  0  0
  3  7  1  0  0  0  0
  4  5  1  0  0  0  0
  5 10  1  1  0  0  0
  5  1  1  0  0  0  0
  6  5  1  0  0  0  0
  6 12  1  0  0  0  0
  7 14  1  0  0  0  0
  7  6  1  0  0  0  0
  8  4  1  0  0  0  0
  9  4  1  0  0  0  0
 11  6  1  0  0  0  0
 13  7  1  0  0  0  0
 15 21  1  0  0  0  0
 15 16  1  0  0  0  0
 16 22  1  0  0  0  0
 17 16  2  0  0  0  0
 17  3  1  0  0  0  0
 18 17  1  0  0  0  0
 19 20  1  0  0  0  0
 19 18  2  0  0  0  0
 20 15  2  0  0  0  0
 23 19  1  0  0  0  0
 24 25  1  0  0  0  0
 25  1  1  0  0  0  0
 25 26  2  0  0  0  0
 26 30  1  0  0  0  0
 27 26  1  0  0  0  0
 27 31  1  0  0  0  0
 28 27  2  0  0  0  0
 29 24  2  0  0  0  0
 29 28  1  0  0  0  0
 32 28  1  0  0  0  0
 33 35  1  0  0  0  0
 34 33  2  0  0  0  0
 35 29  1  0  0  0  0
 35 36  1  0  0  0  0
 37 44  1  0  0  0  0
 37 33  1  0  0  0  0
 38 37  2  0  0  0  0
 39 38  1  0  0  0  0
 40 42  2  0  0  0  0
 40 38  1  0  0  0  0
 41 40  1  0  0  0  0
 42 43  1  0  0  0  0
 43 44  2  0  0  0  0
 45 46  3  0  0  0  0
 46 24  1  0  0  0  0
M  END
>  <minimizedAffinity>
-5.89054966

$$$$
