
 OpenBabel03252508493D

 27 29  0  0  0  0  0  0  0  0999 V2000
   45.9590   34.1720   41.0410 C   0  0  0  0  0  0  0  0  0  0  0  0
   46.5370   34.7980   42.1390 C   0  0  0  0  0  0  0  0  0  0  0  0
   47.8770   35.1720   42.0000 C   0  0  0  0  0  0  0  0  0  0  0  0
   48.5280   34.9170   40.8380 N   0  0  0  0  0  0  0  0  0  0  0  0
   47.9140   34.3060   39.8050 C   0  0  0  0  0  0  0  0  0  0  0  0
   46.6250   33.9320   39.9030 N   0  0  0  0  0  0  0  0  0  0  0  0
   48.3500   35.6590   42.8360 H   0  0  0  0  0  0  0  0  0  0  0  0
   48.5030   34.1390   38.9130 H   0  0  0  0  0  0  0  0  0  0  0  0
   45.7620   35.0320   43.3390 C   0  0  0  0  0  0  0  0  0  0  0  0
   45.0710   36.2230   43.5630 C   0  0  0  0  0  0  0  0  0  0  0  0
   44.4860   36.0250   44.7920 C   0  0  0  0  0  0  0  0  0  0  0  0
   44.7980   34.7960   45.2860 N   0  0  0  0  0  0  0  0  0  0  0  0
   45.5690   34.2330   44.3780 N   0  0  0  0  0  0  0  0  0  0  0  0
   44.9590   37.1300   42.9820 H   0  0  0  0  0  0  0  0  0  0  0  0
   43.8460   36.6880   45.3780 H   0  0  0  0  0  0  0  0  0  0  0  0
   44.5280   34.3290   46.1780 H   0  0  0  0  0  0  0  0  0  0  0  0
   44.6330   33.7830   41.1360 O   0  0  0  0  0  0  0  0  0  0  0  0
   43.5410   34.4300   40.6380 C   0  0  0  0  0  0  0  0  0  0  0  0
   43.3420   35.6940   40.5770 O   0  0  0  0  0  0  0  0  0  0  0  0
   42.3620   33.7150   40.0650 C   0  0  0  0  0  0  0  0  0  0  0  0
   42.2490   33.4890   38.7130 C   0  0  0  0  0  0  0  0  0  0  0  0
   42.9990   33.8100   38.0050 H   0  0  0  0  0  0  0  0  0  0  0  0
   41.1740   32.8330   38.1230 C   0  0  0  0  0  0  0  0  0  0  0  0
   41.1130   32.6690   37.0590 H   0  0  0  0  0  0  0  0  0  0  0  0
   40.1600   32.3810   38.9350 C   0  0  0  0  0  3  0  0  0  0  0  0
   40.3020   32.6220   40.2820 C   0  0  0  0  0  3  0  0  0  0  0  0
   41.3530   33.2560   40.7870 N   0  0  0  0  0  0  0  0  0  0  0  0
  1 17  1  0  0  0  0
  1  2  1  0  0  0  0
  2  9  1  0  0  0  0
  3  2  2  0  0  0  0
  3  7  1  0  0  0  0
  4  3  1  0  0  0  0
  5  6  1  0  0  0  0
  5  4  2  0  0  0  0
  6  1  2  0  0  0  0
  8  5  1  0  0  0  0
  9 10  1  0  0  0  0
  9 13  2  0  0  0  0
 10 11  2  0  0  0  0
 11 12  1  0  0  0  0
 11 15  1  0  0  0  0
 12 16  1  0  0  0  0
 13 12  1  0  0  0  0
 14 10  1  0  0  0  0
 18 17  1  0  0  0  0
 19 18  2  0  0  0  0
 20 18  1  0  0  0  0
 20 27  1  0  0  0  0
 21 20  2  0  0  0  0
 22 21  1  0  0  0  0
 23 21  1  0  0  0  0
 23 25  2  0  0  0  0
 24 23  1  0  0  0  0
 25 26  1  0  0  0  0
 26 27  2  0  0  0  0
M  END
>  <minimizedAffinity>
-5.24427557

>  <minimizedRMSD>
0.685284436

$$$$
