
 OpenBabel03242512323D

 19 20  0  0  0  0  0  0  0  0999 V2000
   47.5050   35.0670   41.9110 C   0  0  0  0  0  0  0  0  0  0  0  0
   48.5760   35.7410   41.8810 O   0  0  0  0  0  0  0  0  0  0  0  0
   46.6100   34.9140   43.0210 C   0  0  0  0  0  0  0  0  0  0  0  0
   45.5910   35.8590   43.0980 C   0  0  0  0  0  0  0  0  0  0  0  0
   44.6950   35.7320   44.1800 C   0  0  0  0  0  0  0  0  0  0  0  0
   44.8890   34.7060   45.0650 N   0  0  0  0  0  0  0  0  0  0  0  0
   45.8930   33.8280   44.9340 C   0  0  0  0  0  0  0  0  0  0  0  0
   46.7570   33.9320   43.9080 N   0  0  0  0  0  0  0  0  0  0  0  0
   45.4590   36.6510   42.3950 H   0  0  0  0  0  0  0  0  0  0  0  0
   43.8750   36.4400   44.2970 H   0  0  0  0  0  0  0  0  0  0  0  0
   45.9170   33.0740   45.7100 H   0  0  0  0  0  0  0  0  0  0  0  0
   47.1760   34.3780   40.6410 C   0  0  0  0  0  0  0  0  0  0  0  0
   48.0770   34.4420   39.5870 C   0  0  0  0  0  0  0  0  0  0  0  0
   49.0330   34.9860   39.6520 H   0  0  0  0  0  0  0  0  0  0  0  0
   47.8500   33.8230   38.3560 C   0  0  0  0  0  0  0  0  0  0  0  0
   48.5700   33.8880   37.5490 H   0  0  0  0  0  0  0  0  0  0  0  0
   46.6580   33.1120   38.1950 C   0  0  0  0  0  0  0  0  0  0  0  0
   45.8130   33.0930   39.2830 C   0  0  0  0  0  0  0  0  0  0  0  0
   46.0500   33.6910   40.4520 N   0  0  0  0  0  0  0  0  0  0  0  0
  1  3  1  0  0  0  0
  2  1  2  0  0  0  0
  3  4  2  0  0  0  0
  3  8  1  0  0  0  0
  4  5  1  0  0  0  0
  5 10  1  0  0  0  0
  5  6  2  0  0  0  0
  7  6  1  0  0  0  0
  7 11  1  0  0  0  0
  8  7  2  0  0  0  0
  9  4  1  0  0  0  0
 12  1  1  0  0  0  0
 13 14  1  0  0  0  0
 13 12  2  0  0  0  0
 15 13  1  0  0  0  0
 16 15  1  0  0  0  0
 17 15  2  0  0  0  0
 17 18  1  0  0  0  0
 18 19  2  0  0  0  0
 19 12  1  0  0  0  0
M  END
>  <minimizedAffinity>
-4.30531597

>  <minimizedRMSD>
0.984367609

$$$$
