
 OpenBabel03252501323D

 23 24  0  0  0  0  0  0  0  0999 V2000
   42.8370   34.5580   41.1640 C   0  0  0  0  0  0  0  0  0  0  0  0
   41.8930   35.2980   41.5520 O   0  0  0  0  0  0  0  0  0  0  0  0
   42.4030   33.5030   40.3100 N   0  0  0  0  0  0  0  0  0  0  0  0
   43.0530   32.8270   39.9060 H   0  0  0  0  0  0  0  0  0  0  0  0
   40.9590   33.6010   40.1620 C   0  0  0  0  0  0  0  0  0  0  0  0
   40.0250   33.0730   41.0300 C   0  0  0  0  0  0  0  0  0  0  0  0
   38.6910   33.2680   40.7230 C   0  0  0  0  0  0  0  0  0  0  0  0
   38.3950   33.9540   39.6080 N   0  0  0  0  0  0  0  0  0  0  0  0
   39.3290   34.4620   38.7760 C   0  0  0  0  0  0  0  0  0  0  0  0
   40.6290   34.2880   39.0490 N   0  0  0  0  0  0  0  0  0  0  0  0
   37.9860   32.8500   41.4090 H   0  0  0  0  0  0  0  0  0  0  0  0
   39.0020   35.0060   37.8940 H   0  0  0  0  0  0  0  0  0  0  0  0
   40.5420   32.3720   42.1640 N   0  0  0  0  0  0  0  0  0  0  0  0
   40.2570   31.3740   42.3830 H   0  0  0  0  0  0  0  0  0  0  0  0
   41.2080   32.9200   42.7420 H   0  0  0  0  0  0  0  0  0  0  0  0
   44.2470   34.7230   41.5240 C   0  0  0  0  0  0  0  0  0  0  0  0
   44.5410   35.4290   42.6730 C   0  0  0  0  0  0  0  0  0  0  0  0
   43.7470   35.8450   43.2790 H   0  0  0  0  0  0  0  0  0  0  0  0
   45.8990   35.5530   42.9640 C   0  0  0  0  0  0  0  0  0  0  0  0
   46.1440   36.1080   43.8650 H   0  0  0  0  0  0  0  0  0  0  0  0
   46.8580   34.9920   42.1350 C   0  0  0  0  0  0  0  0  0  0  0  0
   46.5020   34.2860   40.9840 C   0  0  0  0  0  0  0  0  0  0  0  0
   45.1830   34.1890   40.7390 N   0  0  0  0  0  0  0  0  0  0  0  0
  1 16  1  0  0  0  0
  1  2  2  0  0  0  0
  3  1  1  0  0  0  0
  4  3  1  0  0  0  0
  5  3  1  0  0  0  0
  5  6  1  0  0  0  0
  6 13  1  0  0  0  0
  7  6  2  0  0  0  0
  7 11  1  0  0  0  0
  8  7  1  0  0  0  0
  9 10  1  0  0  0  0
  9  8  2  0  0  0  0
 10  5  2  0  0  0  0
 12  9  1  0  0  0  0
 13 14  1  0  0  0  0
 13 15  1  0  0  0  0
 16 17  1  0  0  0  0
 17 19  2  0  0  0  0
 17 18  1  0  0  0  0
 19 20  1  0  0  0  0
 21 19  1  0  0  0  0
 22 21  2  0  0  0  0
 23 22  1  0  0  0  0
 23 16  2  0  0  0  0
M  END
>  <minimizedAffinity>
-4.8119669

>  <minimizedRMSD>
6.40926313

$$$$
