
 OpenBabel03252508493D

 27 29  0  0  0  0  0  0  0  0999 V2000
   46.0620   34.2260   41.0280 C   0  0  0  0  0  0  0  0  0  0  0  0
   46.6150   34.8350   42.1500 C   0  0  0  0  0  0  0  0  0  0  0  0
   47.9570   35.2150   42.0460 C   0  0  0  0  0  0  0  0  0  0  0  0
   48.6330   34.9800   40.8950 N   0  0  0  0  0  0  0  0  0  0  0  0
   48.0430   34.3850   39.8390 C   0  0  0  0  0  0  0  0  0  0  0  0
   46.7540   34.0060   39.9020 N   0  0  0  0  0  0  0  0  0  0  0  0
   48.4100   35.6890   42.9000 H   0  0  0  0  0  0  0  0  0  0  0  0
   48.6530   34.2340   38.9570 H   0  0  0  0  0  0  0  0  0  0  0  0
   45.8130   35.0480   43.3360 C   0  0  0  0  0  0  0  0  0  0  0  0
   45.0940   36.2230   43.5520 C   0  0  0  0  0  0  0  0  0  0  0  0
   44.4900   36.0080   44.7690 C   0  0  0  0  0  0  0  0  0  0  0  0
   44.8190   34.7830   45.2630 N   0  0  0  0  0  0  0  0  0  0  0  0
   45.6170   34.2400   44.3670 N   0  0  0  0  0  0  0  0  0  0  0  0
   44.9760   37.1320   42.9740 H   0  0  0  0  0  0  0  0  0  0  0  0
   43.8280   36.6550   45.3470 H   0  0  0  0  0  0  0  0  0  0  0  0
   44.5410   34.3060   46.1480 H   0  0  0  0  0  0  0  0  0  0  0  0
   44.7360   33.8340   41.0880 O   0  0  0  0  0  0  0  0  0  0  0  0
   43.6610   34.4530   40.5230 C   0  0  0  0  0  0  0  0  0  0  0  0
   43.3050   35.6760   40.6570 O   0  0  0  0  0  0  0  0  0  0  0  0
   42.6960   33.7530   39.6240 C   0  0  0  0  0  0  0  0  0  0  0  0
   41.3980   34.1850   39.4920 C   0  0  0  0  0  0  0  0  0  0  0  0
   41.0140   35.0450   40.0230 H   0  0  0  0  0  0  0  0  0  0  0  0
   40.4530   33.5740   38.6740 C   0  0  0  0  0  0  0  0  0  0  0  0
   39.4430   33.9350   38.5900 H   0  0  0  0  0  0  0  0  0  0  0  0
   40.8370   32.4670   37.9500 C   0  0  0  0  0  3  0  0  0  0  0  0
   42.1420   32.0590   38.1040 C   0  0  0  0  0  3  0  0  0  0  0  0
   42.9970   32.6870   38.9030 N   0  0  0  0  0  0  0  0  0  0  0  0
  1 17  1  0  0  0  0
  1  2  1  0  0  0  0
  2  9  1  0  0  0  0
  3  2  2  0  0  0  0
  3  7  1  0  0  0  0
  4  3  1  0  0  0  0
  5  6  1  0  0  0  0
  5  4  2  0  0  0  0
  6  1  2  0  0  0  0
  8  5  1  0  0  0  0
  9 10  1  0  0  0  0
  9 13  2  0  0  0  0
 10 11  2  0  0  0  0
 11 12  1  0  0  0  0
 11 15  1  0  0  0  0
 12 16  1  0  0  0  0
 13 12  1  0  0  0  0
 14 10  1  0  0  0  0
 18 19  2  0  0  0  0
 18 17  1  0  0  0  0
 20 18  1  0  0  0  0
 21 20  1  0  0  0  0
 21 22  1  0  0  0  0
 23 21  2  0  0  0  0
 24 23  1  0  0  0  0
 25 26  2  0  0  0  0
 25 23  1  0  0  0  0
 26 27  1  0  0  0  0
 27 20  2  0  0  0  0
M  END
>  <minimizedAffinity>
-5.23552227

>  <minimizedRMSD>
0.363823771

$$$$
