
 OpenBabel03252508493D

 27 29  0  0  0  0  0  0  0  0999 V2000
   45.9730   34.1750   41.0440 C   0  0  0  0  0  0  0  0  0  0  0  0
   46.5470   34.8050   42.1430 C   0  0  0  0  0  0  0  0  0  0  0  0
   47.8860   35.1850   42.0050 C   0  0  0  0  0  0  0  0  0  0  0  0
   48.5400   34.9320   40.8450 N   0  0  0  0  0  0  0  0  0  0  0  0
   47.9300   34.3170   39.8120 C   0  0  0  0  0  0  0  0  0  0  0  0
   46.6430   33.9370   39.9080 N   0  0  0  0  0  0  0  0  0  0  0  0
   48.3540   35.6750   42.8420 H   0  0  0  0  0  0  0  0  0  0  0  0
   48.5220   34.1520   38.9200 H   0  0  0  0  0  0  0  0  0  0  0  0
   45.7690   35.0370   43.3410 C   0  0  0  0  0  0  0  0  0  0  0  0
   45.0620   36.2200   43.5570 C   0  0  0  0  0  0  0  0  0  0  0  0
   44.4790   36.0230   44.7870 C   0  0  0  0  0  0  0  0  0  0  0  0
   44.8070   34.8010   45.2890 N   0  0  0  0  0  0  0  0  0  0  0  0
   45.5850   34.2420   44.3840 N   0  0  0  0  0  0  0  0  0  0  0  0
   44.9400   37.1230   42.9710 H   0  0  0  0  0  0  0  0  0  0  0  0
   43.8320   36.6810   45.3690 H   0  0  0  0  0  0  0  0  0  0  0  0
   44.5420   34.3360   46.1840 H   0  0  0  0  0  0  0  0  0  0  0  0
   44.6500   33.7810   41.1370 O   0  0  0  0  0  0  0  0  0  0  0  0
   43.5640   34.3780   40.5690 C   0  0  0  0  0  0  0  0  0  0  0  0
   43.2230   35.6110   40.6420 O   0  0  0  0  0  0  0  0  0  0  0  0
   42.5660   33.6380   39.7410 C   0  0  0  0  0  0  0  0  0  0  0  0
   42.9620   32.7800   38.7410 C   0  0  0  0  0  0  0  0  0  0  0  0
   44.0000   32.5990   38.5080 H   0  0  0  0  0  0  0  0  0  0  0  0
   42.0800   32.0660   37.9350 C   0  0  0  0  0  0  0  0  0  0  0  0
   42.4190   31.4010   37.1600 H   0  0  0  0  0  0  0  0  0  0  0  0
   40.7290   32.2230   38.1490 C   0  0  0  0  0  3  0  0  0  0  0  0
   40.3660   33.0870   39.1560 C   0  0  0  0  0  3  0  0  0  0  0  0
   41.2570   33.7410   39.8910 N   0  0  0  0  0  0  0  0  0  0  0  0
  1 17  1  0  0  0  0
  1  2  1  0  0  0  0
  2  9  1  0  0  0  0
  3  2  2  0  0  0  0
  3  7  1  0  0  0  0
  4  3  1  0  0  0  0
  5  6  1  0  0  0  0
  5  4  2  0  0  0  0
  6  1  2  0  0  0  0
  8  5  1  0  0  0  0
  9 10  1  0  0  0  0
  9 13  2  0  0  0  0
 10 11  2  0  0  0  0
 11 12  1  0  0  0  0
 11 15  1  0  0  0  0
 12 16  1  0  0  0  0
 13 12  1  0  0  0  0
 14 10  1  0  0  0  0
 18 19  2  0  0  0  0
 18 17  1  0  0  0  0
 20 27  1  0  0  0  0
 20 18  1  0  0  0  0
 21 20  2  0  0  0  0
 22 21  1  0  0  0  0
 23 25  2  0  0  0  0
 23 21  1  0  0  0  0
 24 23  1  0  0  0  0
 25 26  1  0  0  0  0
 26 27  2  0  0  0  0
M  END
>  <minimizedAffinity>
-5.18669224

>  <minimizedRMSD>
0.360566169

$$$$
