
 OpenBabel03252503333D

 21 22  0  0  0  0  0  0  0  0999 V2000
   46.2480   33.8730   40.9190 C   0  0  0  0  0  0  0  0  0  0  0  0
   45.2920   33.1240   41.2560 O   0  0  0  0  0  0  0  0  0  0  0  0
   46.6940   34.7550   41.9370 N   0  0  0  0  0  0  0  0  0  0  0  0
   47.5090   35.3790   41.7480 H   0  0  0  0  0  0  0  0  0  0  0  0
   44.5360   35.7070   44.8280 C   0  0  0  0  0  0  0  0  0  0  0  0
   45.0870   35.7650   43.5360 C   0  0  0  0  0  0  0  0  0  0  0  0
   46.0560   34.8090   43.2130 C   0  0  0  0  0  0  0  0  0  0  0  0
   46.4200   33.8800   44.1430 N   0  0  0  0  0  0  0  0  0  0  0  0
   45.8620   33.8630   45.3780 C   0  0  0  0  0  0  0  0  0  0  0  0
   44.9350   34.7710   45.6990 N   0  0  0  0  0  0  0  0  0  0  0  0
   43.7800   36.4790   45.0310 H   0  0  0  0  0  0  0  0  0  0  0  0
   44.8380   36.4710   42.7650 H   0  0  0  0  0  0  0  0  0  0  0  0
   46.1280   33.1410   46.1410 H   0  0  0  0  0  0  0  0  0  0  0  0
   46.8540   33.8480   39.5920 C   0  0  0  0  0  0  0  0  0  0  0  0
   48.0470   34.5170   39.4080 C   0  0  0  0  0  0  0  0  0  0  0  0
   48.5470   35.0540   40.1970 H   0  0  0  0  0  0  0  0  0  0  0  0
   48.6010   34.4790   38.1480 C   0  0  0  0  0  0  0  0  0  0  0  0
   49.5340   34.9660   37.8800 H   0  0  0  0  0  0  0  0  0  0  0  0
   47.9380   33.7830   37.1570 C   0  0  0  0  0  0  0  0  0  0  0  0
   46.7330   33.1080   37.3460 C   0  0  0  0  0  0  0  0  0  0  0  0
   46.2490   33.1840   38.5910 N   0  0  0  0  0  0  0  0  0  0  0  0
  1  2  2  0  0  0  0
  1  3  1  0  0  0  0
  3  7  1  0  0  0  0
  4  3  1  0  0  0  0
  5 11  1  0  0  0  0
  5 10  1  0  0  0  0
  6  5  2  0  0  0  0
  7  6  1  0  0  0  0
  7  8  2  0  0  0  0
  8  9  1  0  0  0  0
  9 10  2  0  0  0  0
  9 13  1  0  0  0  0
 12  6  1  0  0  0  0
 14  1  1  0  0  0  0
 15 14  1  0  0  0  0
 15 16  1  0  0  0  0
 17 15  2  0  0  0  0
 18 17  1  0  0  0  0
 19 20  2  0  0  0  0
 19 17  1  0  0  0  0
 20 21  1  0  0  0  0
 21 14  2  0  0  0  0
M  END
>  <minimizedAffinity>
-4.42876673

>  <minimizedRMSD>
0.608237922

$$$$
