
 OpenBabel03252508023D

 41 44  0  0  1  0  0  0  0  0999 V2000
   42.0730   33.2600   41.1590 C   0  0  0  0  0  0  0  0  0  0  0  0
   42.7980   34.4010   41.3300 C   0  0  0  0  0  0  0  0  0  0  0  0
   42.1230   35.6320   41.2660 C   0  0  0  0  0  0  0  0  0  0  0  0
   40.7750   35.7400   41.0420 C   0  0  0  0  0  0  0  0  0  0  0  0
   40.0500   34.5910   40.8730 C   0  0  0  0  0  0  0  0  0  0  0  0
   40.6980   33.3930   40.9330 C   0  0  0  0  0  0  0  0  0  0  0  0
   42.6210   36.5850   41.3800 H   0  0  0  0  0  0  0  0  0  0  0  0
   40.2650   36.6660   40.9940 H   0  0  0  0  0  0  0  0  0  0  0  0
   38.9890   34.5840   40.6940 H   0  0  0  0  0  0  0  0  0  0  0  0
   40.1210   32.4850   40.7970 H   0  0  0  0  0  0  0  0  0  0  0  0
   42.7500   31.7180   41.2740 S   0  0  0  0  0  0  0  0  0  0  0  0
   41.7290   30.8700   40.4790 O   0  0  0  0  0  0  0  0  0  0  0  0
   42.7550   31.2020   42.6760 O   0  0  0  0  0  0  0  0  0  0  0  0
   43.9890   31.0130   40.3710 C   0  0  0  0  0  0  0  0  0  0  0  0
   45.1800   30.7630   41.1050 C   0  0  0  0  0  0  0  0  0  0  0  0
   45.3020   31.0640   42.1610 H   0  0  0  0  0  0  0  0  0  0  0  0
   46.2820   30.1350   40.5840 C   0  0  0  0  0  0  0  0  0  0  0  0
   47.1760   29.9550   41.1620 H   0  0  0  0  0  0  0  0  0  0  0  0
   46.1820   29.7480   39.2840 C   0  0  0  0  0  3  0  0  0  0  0  0
   45.0760   29.9510   38.5120 C   0  0  0  0  0  3  0  0  0  0  0  0
   44.0580   30.5660   39.1020 N   0  0  0  0  0  0  0  0  0  0  0  0
   44.2410   34.3860   41.5580 C   0  0  0  0  0  0  0  0  0  0  0  0
   45.1220   34.3120   40.6300 O   0  0  0  0  0  0  0  0  0  0  0  0
   44.5900   34.4670   42.9460 C   0  0  0  0  0  0  0  0  0  0  0  0
   44.3080   35.7140   43.5850 C   0  0  0  0  0  0  0  0  0  0  0  0
   44.6280   35.8100   44.9350 C   0  0  0  0  0  0  0  0  0  0  0  0
   45.1790   34.7310   45.5480 N   0  0  0  0  0  0  0  0  0  0  0  0
   45.4290   33.5540   44.8910 C   0  0  0  0  0  0  0  0  0  0  0  0
   45.1320   33.4700   43.6420 N   0  0  0  0  0  0  0  0  0  0  0  0
   43.8810   36.6110   43.1830 H   0  0  0  0  0  0  0  0  0  0  0  0
   44.4580   36.7170   45.5290 H   0  0  0  0  0  0  0  0  0  0  0  0
   46.0210   32.4380   45.6480 C   0  0  1  0  0  0  0  0  0  0  0  0
   46.9670   32.7420   46.7880 C   0  0  0  0  0  0  0  0  0  0  0  0
   45.5510   32.3250   47.0550 C   0  0  1  0  0  0  0  0  0  0  0  0
   46.2480   31.5150   45.1160 H   0  0  0  0  0  0  0  0  0  0  0  0
   47.2900   33.7890   46.9010 H   0  0  0  0  0  0  0  0  0  0  0  0
   47.7250   31.9830   47.0610 H   0  0  0  0  0  0  0  0  0  0  0  0
   45.3690   31.3280   47.5280 H   0  0  0  0  0  0  0  0  0  0  0  0
   44.7730   33.3910   47.6500 N   0  0  0  0  0  0  0  0  0  0  0  0
   43.7920   33.1520   47.8170 H   0  0  0  0  0  0  0  0  0  0  0  0
   45.2570   33.9150   48.3860 H   0  0  0  0  0  0  0  0  0  0  0  0
  1 11  1  0  0  0  0
  1  2  1  0  0  0  0
  2 22  1  0  0  0  0
  3  2  2  0  0  0  0
  3  7  1  0  0  0  0
  4  3  1  0  0  0  0
  5  6  1  0  0  0  0
  5  4  2  0  0  0  0
  6  1  2  0  0  0  0
  8  4  1  0  0  0  0
  9  5  1  0  0  0  0
 10  6  1  0  0  0  0
 11 13  2  0  0  0  0
 12 11  2  0  0  0  0
 14 15  1  0  0  0  0
 14 11  1  0  0  0  0
 15 16  1  0  0  0  0
 17 15  2  0  0  0  0
 17 18  1  0  0  0  0
 19 17  1  0  0  0  0
 20 21  1  0  0  0  0
 20 19  2  0  0  0  0
 21 14  2  0  0  0  0
 22 24  1  0  0  0  0
 23 22  2  0  0  0  0
 24 25  2  0  0  0  0
 24 29  1  0  0  0  0
 25 26  1  0  0  0  0
 26 31  1  0  0  0  0
 26 27  2  0  0  0  0
 28 27  1  0  0  0  0
 28 32  1  0  0  0  0
 29 28  2  0  0  0  0
 30 25  1  0  0  0  0
 32 35  1  6  0  0  0
 32 33  1  0  0  0  0
 32 34  1  0  0  0  0
 33 36  1  0  0  0  0
 33 34  1  0  0  0  0
 33 37  1  0  0  0  0
 34 38  1  1  0  0  0
 34 39  1  0  0  0  0
 39 40  1  0  0  0  0
 39 41  1  0  0  0  0
M  END
>  <minimizedAffinity>
-5.68346453

>  <minimizedRMSD>
1.17656815

$$$$
