
 OpenBabel03252508023D

 41 44  0  0  1  0  0  0  0  0999 V2000
   42.0710   33.2630   41.1260 C   0  0  0  0  0  0  0  0  0  0  0  0
   42.7970   34.4000   41.3240 C   0  0  0  0  0  0  0  0  0  0  0  0
   42.1240   35.6320   41.2890 C   0  0  0  0  0  0  0  0  0  0  0  0
   40.7760   35.7470   41.0670 C   0  0  0  0  0  0  0  0  0  0  0  0
   40.0510   34.6030   40.8690 C   0  0  0  0  0  0  0  0  0  0  0  0
   40.6970   33.4040   40.9020 C   0  0  0  0  0  0  0  0  0  0  0  0
   42.6230   36.5820   41.4260 H   0  0  0  0  0  0  0  0  0  0  0  0
   40.2670   36.6750   41.0400 H   0  0  0  0  0  0  0  0  0  0  0  0
   38.9890   34.6010   40.6890 H   0  0  0  0  0  0  0  0  0  0  0  0
   40.1190   32.4990   40.7440 H   0  0  0  0  0  0  0  0  0  0  0  0
   42.7470   31.7180   41.2050 S   0  0  0  0  0  0  0  0  0  0  0  0
   41.6780   30.8740   40.4710 O   0  0  0  0  0  0  0  0  0  0  0  0
   42.8290   31.2050   42.6050 O   0  0  0  0  0  0  0  0  0  0  0  0
   43.9290   31.0070   40.2340 C   0  0  0  0  0  0  0  0  0  0  0  0
   43.9230   31.4500   38.8840 C   0  0  0  0  0  0  0  0  0  0  0  0
   43.1660   32.1550   38.4930 H   0  0  0  0  0  0  0  0  0  0  0  0
   44.8410   31.0540   37.9430 C   0  0  0  0  0  0  0  0  0  0  0  0
   44.8160   31.4050   36.9230 H   0  0  0  0  0  0  0  0  0  0  0  0
   45.7910   30.1850   38.3780 C   0  0  0  0  0  0  0  0  0  0  0  0
   45.8670   29.7120   39.6550 C   0  0  0  0  0  0  0  0  0  0  0  0
   44.9370   30.1520   40.4930 N   0  0  0  0  0  0  0  0  0  0  0  0
   44.2400   34.3780   41.5540 C   0  0  0  0  0  0  0  0  0  0  0  0
   45.1210   34.2940   40.6270 O   0  0  0  0  0  0  0  0  0  0  0  0
   44.5880   34.4640   42.9420 C   0  0  0  0  0  0  0  0  0  0  0  0
   44.3080   35.7130   43.5760 C   0  0  0  0  0  0  0  0  0  0  0  0
   44.6280   35.8140   44.9250 C   0  0  0  0  0  0  0  0  0  0  0  0
   45.1770   34.7370   45.5430 N   0  0  0  0  0  0  0  0  0  0  0  0
   45.4260   33.5570   44.8900 C   0  0  0  0  0  0  0  0  0  0  0  0
   45.1290   33.4680   43.6410 N   0  0  0  0  0  0  0  0  0  0  0  0
   43.8820   36.6090   43.1700 H   0  0  0  0  0  0  0  0  0  0  0  0
   44.4580   36.7230   45.5160 H   0  0  0  0  0  0  0  0  0  0  0  0
   46.0160   32.4420   45.6520 C   0  0  1  0  0  0  0  0  0  0  0  0
   46.9620   32.7500   46.7910 C   0  0  0  0  0  0  0  0  0  0  0  0
   45.5460   32.3360   47.0590 C   0  0  1  0  0  0  0  0  0  0  0  0
   46.2420   31.5180   45.1240 H   0  0  0  0  0  0  0  0  0  0  0  0
   47.2870   33.7970   46.9000 H   0  0  0  0  0  0  0  0  0  0  0  0
   47.7200   31.9910   47.0670 H   0  0  0  0  0  0  0  0  0  0  0  0
   45.3620   31.3410   47.5360 H   0  0  0  0  0  0  0  0  0  0  0  0
   44.7700   33.4060   47.6500 N   0  0  0  0  0  0  0  0  0  0  0  0
   43.7880   33.1690   47.8180 H   0  0  0  0  0  0  0  0  0  0  0  0
   45.2540   33.9320   48.3840 H   0  0  0  0  0  0  0  0  0  0  0  0
  1 11  1  0  0  0  0
  1  2  1  0  0  0  0
  2 22  1  0  0  0  0
  3  2  2  0  0  0  0
  3  7  1  0  0  0  0
  4  3  1  0  0  0  0
  5  6  1  0  0  0  0
  5  4  2  0  0  0  0
  6  1  2  0  0  0  0
  8  4  1  0  0  0  0
  9  5  1  0  0  0  0
 10  6  1  0  0  0  0
 11 13  2  0  0  0  0
 12 11  2  0  0  0  0
 14 21  1  0  0  0  0
 14 11  1  0  0  0  0
 15 14  2  0  0  0  0
 16 15  1  0  0  0  0
 17 19  2  0  0  0  0
 17 15  1  0  0  0  0
 18 17  1  0  0  0  0
 19 20  1  0  0  0  0
 20 21  2  0  0  0  0
 22 24  1  0  0  0  0
 23 22  2  0  0  0  0
 24 25  2  0  0  0  0
 24 29  1  0  0  0  0
 25 26  1  0  0  0  0
 26 31  1  0  0  0  0
 26 27  2  0  0  0  0
 28 27  1  0  0  0  0
 28 32  1  0  0  0  0
 29 28  2  0  0  0  0
 30 25  1  0  0  0  0
 32 35  1  6  0  0  0
 32 33  1  0  0  0  0
 32 34  1  0  0  0  0
 33 36  1  0  0  0  0
 33 34  1  0  0  0  0
 33 37  1  0  0  0  0
 34 38  1  1  0  0  0
 34 39  1  0  0  0  0
 39 40  1  0  0  0  0
 39 41  1  0  0  0  0
M  END
>  <minimizedAffinity>
-5.75308752

>  <minimizedRMSD>
1.53885758

$$$$
