
 OpenBabel03252508023D

 41 44  0  0  1  0  0  0  0  0999 V2000
   42.1040   33.2690   41.1420 C   0  0  0  0  0  0  0  0  0  0  0  0
   42.8070   34.4200   41.3410 C   0  0  0  0  0  0  0  0  0  0  0  0
   42.1090   35.6390   41.3030 C   0  0  0  0  0  0  0  0  0  0  0  0
   40.7600   35.7270   41.0770 C   0  0  0  0  0  0  0  0  0  0  0  0
   40.0580   34.5690   40.8790 C   0  0  0  0  0  0  0  0  0  0  0  0
   40.7270   33.3820   40.9140 C   0  0  0  0  0  0  0  0  0  0  0  0
   42.5890   36.5980   41.4400 H   0  0  0  0  0  0  0  0  0  0  0  0
   40.2330   36.6440   41.0480 H   0  0  0  0  0  0  0  0  0  0  0  0
   38.9970   34.5460   40.6960 H   0  0  0  0  0  0  0  0  0  0  0  0
   40.1680   32.4660   40.7550 H   0  0  0  0  0  0  0  0  0  0  0  0
   42.8100   31.7380   41.2240 S   0  0  0  0  0  0  0  0  0  0  0  0
   41.8280   30.8970   40.3740 O   0  0  0  0  0  0  0  0  0  0  0  0
   42.7870   31.1760   42.6080 O   0  0  0  0  0  0  0  0  0  0  0  0
   44.0860   31.0890   40.3330 C   0  0  0  0  0  0  0  0  0  0  0  0
   43.7630   30.7800   38.9850 C   0  0  0  0  0  0  0  0  0  0  0  0
   42.7420   30.8970   38.5760 H   0  0  0  0  0  0  0  0  0  0  0  0
   44.6680   30.3100   38.0670 C   0  0  0  0  0  0  0  0  0  0  0  0
   44.3990   30.0830   37.0480 H   0  0  0  0  0  0  0  0  0  0  0  0
   45.9390   30.1460   38.5240 C   0  0  0  0  0  3  0  0  0  0  0  0
   46.3300   30.4200   39.8030 C   0  0  0  0  0  3  0  0  0  0  0  0
   45.3860   30.8700   40.6170 N   0  0  0  0  0  0  0  0  0  0  0  0
   44.2490   34.4270   41.5750 C   0  0  0  0  0  0  0  0  0  0  0  0
   45.1350   34.3800   40.6490 O   0  0  0  0  0  0  0  0  0  0  0  0
   44.5920   34.4950   42.9650 C   0  0  0  0  0  0  0  0  0  0  0  0
   44.3050   35.7340   43.6150 C   0  0  0  0  0  0  0  0  0  0  0  0
   44.6190   35.8180   44.9670 C   0  0  0  0  0  0  0  0  0  0  0  0
   45.1690   34.7340   45.5720 N   0  0  0  0  0  0  0  0  0  0  0  0
   45.4250   33.5640   44.9040 C   0  0  0  0  0  0  0  0  0  0  0  0
   45.1330   33.4910   43.6530 N   0  0  0  0  0  0  0  0  0  0  0  0
   43.8780   36.6340   43.2200 H   0  0  0  0  0  0  0  0  0  0  0  0
   44.4450   36.7180   45.5690 H   0  0  0  0  0  0  0  0  0  0  0  0
   46.0150   32.4410   45.6530 C   0  0  1  0  0  0  0  0  0  0  0  0
   46.9660   32.7360   46.7920 C   0  0  0  0  0  0  0  0  0  0  0  0
   45.5500   32.3220   47.0600 C   0  0  1  0  0  0  0  0  0  0  0  0
   46.2380   31.5220   45.1150 H   0  0  0  0  0  0  0  0  0  0  0  0
   47.2920   33.7810   46.9110 H   0  0  0  0  0  0  0  0  0  0  0  0
   47.7220   31.9730   47.0590 H   0  0  0  0  0  0  0  0  0  0  0  0
   45.3660   31.3220   47.5280 H   0  0  0  0  0  0  0  0  0  0  0  0
   44.7760   33.3870   47.6640 N   0  0  0  0  0  0  0  0  0  0  0  0
   43.7950   33.1490   47.8330 H   0  0  0  0  0  0  0  0  0  0  0  0
   45.2630   33.9040   48.4020 H   0  0  0  0  0  0  0  0  0  0  0  0
  1 11  1  0  0  0  0
  1  2  1  0  0  0  0
  2 22  1  0  0  0  0
  3  2  2  0  0  0  0
  3  7  1  0  0  0  0
  4  3  1  0  0  0  0
  5  6  1  0  0  0  0
  5  4  2  0  0  0  0
  6  1  2  0  0  0  0
  8  4  1  0  0  0  0
  9  5  1  0  0  0  0
 10  6  1  0  0  0  0
 11 13  2  0  0  0  0
 12 11  2  0  0  0  0
 14 21  1  0  0  0  0
 14 11  1  0  0  0  0
 15 14  2  0  0  0  0
 16 15  1  0  0  0  0
 17 19  2  0  0  0  0
 17 15  1  0  0  0  0
 18 17  1  0  0  0  0
 19 20  1  0  0  0  0
 20 21  2  0  0  0  0
 22 24  1  0  0  0  0
 23 22  2  0  0  0  0
 24 25  2  0  0  0  0
 24 29  1  0  0  0  0
 25 26  1  0  0  0  0
 26 31  1  0  0  0  0
 26 27  2  0  0  0  0
 28 27  1  0  0  0  0
 28 32  1  0  0  0  0
 29 28  2  0  0  0  0
 30 25  1  0  0  0  0
 32 35  1  6  0  0  0
 32 33  1  0  0  0  0
 32 34  1  0  0  0  0
 33 36  1  0  0  0  0
 33 37  1  0  0  0  0
 33 34  1  0  0  0  0
 34 38  1  1  0  0  0
 34 39  1  0  0  0  0
 39 40  1  0  0  0  0
 39 41  1  0  0  0  0
M  END
>  <minimizedAffinity>
-5.72909451

>  <minimizedRMSD>
1.18254733

$$$$
