
 OpenBabel03252507453D

 36 38  0  0  0  0  0  0  0  0999 V2000
   47.3260   34.5480   40.8560 C   0  0  0  0  0  0  0  0  0  0  0  0
   47.6120   35.4060   40.1870 H   0  0  0  0  0  0  0  0  0  0  0  0
   46.6750   33.8700   40.2980 H   0  0  0  0  0  0  0  0  0  0  0  0
   48.5610   33.9080   41.3200 C   0  0  0  0  0  0  0  0  0  0  0  0
   48.7360   32.5850   40.9550 C   0  0  0  0  0  0  0  0  0  0  0  0
   49.8550   31.8440   41.3190 C   0  0  0  0  0  0  0  0  0  0  0  0
   50.7920   32.5180   42.0760 N   0  0  0  0  0  0  0  0  0  0  0  0
   50.5950   33.8080   42.4170 C   0  0  0  0  0  0  0  0  0  0  0  0
   49.5070   34.4690   42.0420 N   0  0  0  0  0  0  0  0  0  0  0  0
   49.9980   30.8210   41.0410 H   0  0  0  0  0  0  0  0  0  0  0  0
   51.3360   34.3500   43.0180 H   0  0  0  0  0  0  0  0  0  0  0  0
   47.4880   31.7380   39.9400 S   0  0  0  0  0  0  0  0  0  0  0  0
   46.0350   31.3810   40.8850 C   0  0  0  0  0  0  0  0  0  0  0  0
   44.7890   30.9850   40.4060 C   0  0  0  0  0  0  0  0  0  0  0  0
   44.7470   30.8990   39.3460 H   0  0  0  0  0  0  0  0  0  0  0  0
   43.7720   30.7520   41.3030 C   0  0  0  0  0  0  0  0  0  0  0  0
   42.8310   30.4490   40.8940 H   0  0  0  0  0  0  0  0  0  0  0  0
   43.9300   30.8930   42.6690 C   0  0  0  0  0  3  0  0  0  0  0  0
   45.1850   31.2870   43.0860 C   0  0  0  0  0  3  0  0  0  0  0  0
   46.2130   31.5260   42.2230 N   0  0  0  0  0  0  0  0  0  0  0  0
   46.5160   35.1110   41.9840 C   0  0  0  0  0  0  0  0  0  0  0  0
   46.7750   34.6880   42.9760 H   0  0  0  0  0  0  0  0  0  0  0  0
   46.7590   36.2020   42.0670 H   0  0  0  0  0  0  0  0  0  0  0  0
   45.0460   34.9950   41.7680 C   0  0  0  0  0  0  0  0  0  0  0  0
   44.1450   35.4520   42.7860 C   0  0  0  0  0  0  0  0  0  0  0  0
   42.4970   35.1000   42.0640 S   0  0  0  0  0  0  0  0  0  0  0  0
   43.3100   34.3890   40.4960 C   0  0  0  0  0  0  0  0  0  0  0  0
   44.4200   34.5110   40.7300 N   0  0  0  0  0  0  0  0  0  0  0  0
   44.4110   35.8910   43.7360 H   0  0  0  0  0  0  0  0  0  0  0  0
   42.5780   33.8820   39.4090 O   0  0  0  0  0  0  0  0  0  0  0  0
   40.5890   34.2770   37.7030 O   0  0  0  0  0  0  0  0  0  0  0  0
   41.6540   34.9990   38.5190 P   0  0  0  0  0  0  0  0  0  0  0  0
   40.9130   36.0590   39.6040 O   0  0  0  0  0  0  0  0  0  0  0  0
   40.1950   35.5970   40.1080 H   0  0  0  0  0  0  0  0  0  0  0  0
   42.6790   35.8920   37.5020 O   0  0  0  0  0  0  0  0  0  0  0  0
   42.9580   36.7480   37.9330 H   0  0  0  0  0  0  0  0  0  0  0  0
  1  4  1  0  0  0  0
  1 21  1  0  0  0  0
  2  1  1  0  0  0  0
  3  1  1  0  0  0  0
  4  9  1  0  0  0  0
  5  6  1  0  0  0  0
  5  4  2  0  0  0  0
  6  7  2  0  0  0  0
  7  8  1  0  0  0  0
  8 11  1  0  0  0  0
  9  8  2  0  0  0  0
 10  6  1  0  0  0  0
 12 13  1  0  0  0  0
 12  5  1  0  0  0  0
 13 20  1  0  0  0  0
 14 13  2  0  0  0  0
 14 16  1  0  0  0  0
 15 14  1  0  0  0  0
 16 18  2  0  0  0  0
 17 16  1  0  0  0  0
 18 19  1  0  0  0  0
 20 19  2  0  0  0  0
 21 23  1  0  0  0  0
 21 22  1  0  0  0  0
 24 21  1  0  0  0  0
 24 25  2  0  0  0  0
 25 29  1  0  0  0  0
 26 25  1  0  0  0  0
 27 28  2  0  0  0  0
 27 26  1  0  0  0  0
 28 24  1  0  0  0  0
 30 27  1  0  0  0  0
 31 32  2  0  0  0  0
 32 30  1  0  0  0  0
 32 33  1  0  0  0  0
 33 34  1  0  0  0  0
 35 36  1  0  0  0  0
 35 32  1  0  0  0  0
M  END
>  <minimizedAffinity>
-4.39962292

>  <minimizedRMSD>
1.07117128

$$$$
