
 OpenBabel03252507443D

 36 38  0  0  0  0  0  0  0  0999 V2000
   47.3780   34.5610   40.9080 C   0  0  0  0  0  0  0  0  0  0  0  0
   47.6670   35.4260   40.2500 H   0  0  0  0  0  0  0  0  0  0  0  0
   46.7300   33.8880   40.3390 H   0  0  0  0  0  0  0  0  0  0  0  0
   48.6110   33.9160   41.3720 C   0  0  0  0  0  0  0  0  0  0  0  0
   48.7440   32.5710   41.0750 C   0  0  0  0  0  0  0  0  0  0  0  0
   49.8560   31.8240   41.4470 C   0  0  0  0  0  0  0  0  0  0  0  0
   50.8300   32.5140   42.1390 N   0  0  0  0  0  0  0  0  0  0  0  0
   50.6730   33.8250   42.4140 C   0  0  0  0  0  0  0  0  0  0  0  0
   49.5910   34.4910   42.0350 N   0  0  0  0  0  0  0  0  0  0  0  0
   49.9670   30.7840   41.2220 H   0  0  0  0  0  0  0  0  0  0  0  0
   51.4440   34.3810   42.9640 H   0  0  0  0  0  0  0  0  0  0  0  0
   47.4480   31.7020   40.1430 S   0  0  0  0  0  0  0  0  0  0  0  0
   46.0310   31.3950   41.1590 C   0  0  0  0  0  0  0  0  0  0  0  0
   45.9500   31.4780   42.5460 C   0  0  0  0  0  0  0  0  0  0  0  0
   46.8650   31.7620   43.0110 H   0  0  0  0  0  0  0  0  0  0  0  0
   44.7520   31.1990   43.1640 C   0  0  0  0  0  0  0  0  0  0  0  0
   44.7340   31.2750   44.2310 H   0  0  0  0  0  0  0  0  0  0  0  0
   43.6160   30.8370   42.4650 C   0  0  0  0  0  3  0  0  0  0  0  0
   43.7540   30.7710   41.0940 C   0  0  0  0  0  3  0  0  0  0  0  0
   44.9270   31.0410   40.4520 N   0  0  0  0  0  0  0  0  0  0  0  0
   46.5620   35.1110   42.0380 C   0  0  0  0  0  0  0  0  0  0  0  0
   46.8070   34.6670   43.0250 H   0  0  0  0  0  0  0  0  0  0  0  0
   46.8140   36.1980   42.1430 H   0  0  0  0  0  0  0  0  0  0  0  0
   45.0930   35.0120   41.8050 C   0  0  0  0  0  0  0  0  0  0  0  0
   44.1860   35.5200   42.7940 C   0  0  0  0  0  0  0  0  0  0  0  0
   42.5430   35.1710   42.0610 S   0  0  0  0  0  0  0  0  0  0  0  0
   43.3640   34.3920   40.5310 C   0  0  0  0  0  0  0  0  0  0  0  0
   44.4720   34.5020   40.7760 N   0  0  0  0  0  0  0  0  0  0  0  0
   44.4470   35.9880   43.7310 H   0  0  0  0  0  0  0  0  0  0  0  0
   42.6390   33.8590   39.4520 O   0  0  0  0  0  0  0  0  0  0  0  0
   40.6530   34.2040   37.7310 O   0  0  0  0  0  0  0  0  0  0  0  0
   41.7040   34.9510   38.5420 P   0  0  0  0  0  0  0  0  0  0  0  0
   40.9430   36.0150   39.6100 O   0  0  0  0  0  0  0  0  0  0  0  0
   40.2290   35.5500   40.1160 H   0  0  0  0  0  0  0  0  0  0  0  0
   42.7210   35.8450   37.5190 O   0  0  0  0  0  0  0  0  0  0  0  0
   42.9860   36.7100   37.9410 H   0  0  0  0  0  0  0  0  0  0  0  0
  1  4  1  0  0  0  0
  1 21  1  0  0  0  0
  2  1  1  0  0  0  0
  3  1  1  0  0  0  0
  4  9  1  0  0  0  0
  5  4  2  0  0  0  0
  5  6  1  0  0  0  0
  6  7  2  0  0  0  0
  7  8  1  0  0  0  0
  8 11  1  0  0  0  0
  9  8  2  0  0  0  0
 10  6  1  0  0  0  0
 12  5  1  0  0  0  0
 12 13  1  0  0  0  0
 13 14  1  0  0  0  0
 14 15  1  0  0  0  0
 14 16  2  0  0  0  0
 16 17  1  0  0  0  0
 18 16  1  0  0  0  0
 19 18  2  0  0  0  0
 20 19  1  0  0  0  0
 20 13  2  0  0  0  0
 21 23  1  0  0  0  0
 21 22  1  0  0  0  0
 24 21  1  0  0  0  0
 24 25  2  0  0  0  0
 25 29  1  0  0  0  0
 26 25  1  0  0  0  0
 27 28  2  0  0  0  0
 27 26  1  0  0  0  0
 28 24  1  0  0  0  0
 30 27  1  0  0  0  0
 31 32  2  0  0  0  0
 32 30  1  0  0  0  0
 32 33  1  0  0  0  0
 33 34  1  0  0  0  0
 35 36  1  0  0  0  0
 35 32  1  0  0  0  0
M  END
>  <minimizedAffinity>
-4.41182804

>  <minimizedRMSD>
1.08421504

$$$$
