
 OpenBabel03252507453D

 36 38  0  0  0  0  0  0  0  0999 V2000
   47.6370   34.8740   41.1840 C   0  0  0  0  0  0  0  0  0  0  0  0
   47.9770   35.9400   41.0740 H   0  0  0  0  0  0  0  0  0  0  0  0
   47.0570   34.5970   40.2990 H   0  0  0  0  0  0  0  0  0  0  0  0
   48.8270   34.0390   41.3760 C   0  0  0  0  0  0  0  0  0  0  0  0
   48.9800   32.9840   40.4930 C   0  0  0  0  0  0  0  0  0  0  0  0
   50.0570   32.1060   40.5480 C   0  0  0  0  0  0  0  0  0  0  0  0
   50.9750   32.3530   41.5490 N   0  0  0  0  0  0  0  0  0  0  0  0
   50.7990   33.3890   42.3950 C   0  0  0  0  0  0  0  0  0  0  0  0
   49.7530   34.1980   42.2970 N   0  0  0  0  0  0  0  0  0  0  0  0
   50.1830   31.2880   39.8700 H   0  0  0  0  0  0  0  0  0  0  0  0
   51.5250   33.5920   43.1930 H   0  0  0  0  0  0  0  0  0  0  0  0
   47.7610   32.7030   39.1750 S   0  0  0  0  0  0  0  0  0  0  0  0
   46.5510   31.5100   39.6720 C   0  0  0  0  0  0  0  0  0  0  0  0
   46.4130   30.9160   40.9230 C   0  0  0  0  0  0  0  0  0  0  0  0
   47.1350   31.2420   41.6330 H   0  0  0  0  0  0  0  0  0  0  0  0
   45.4030   30.0030   41.1210 C   0  0  0  0  0  0  0  0  0  0  0  0
   45.3310   29.5700   42.0970 H   0  0  0  0  0  0  0  0  0  0  0  0
   44.5110   29.6440   40.1270 C   0  0  0  0  0  3  0  0  0  0  0  0
   44.6950   30.2640   38.9080 C   0  0  0  0  0  3  0  0  0  0  0  0
   45.6870   31.1730   38.6810 N   0  0  0  0  0  0  0  0  0  0  0  0
   46.7070   34.8200   42.3570 C   0  0  0  0  0  0  0  0  0  0  0  0
   46.9140   33.9830   43.0550 H   0  0  0  0  0  0  0  0  0  0  0  0
   46.8720   35.7470   42.9660 H   0  0  0  0  0  0  0  0  0  0  0  0
   45.2690   34.7900   41.9670 C   0  0  0  0  0  0  0  0  0  0  0  0
   44.4030   35.8570   42.3810 C   0  0  0  0  0  0  0  0  0  0  0  0
   42.7850   35.3700   41.6710 S   0  0  0  0  0  0  0  0  0  0  0  0
   43.5560   33.7950   40.9300 C   0  0  0  0  0  0  0  0  0  0  0  0
   44.6430   33.8860   41.2640 N   0  0  0  0  0  0  0  0  0  0  0  0
   44.6760   36.7210   42.9680 H   0  0  0  0  0  0  0  0  0  0  0  0
   42.8270   32.8570   40.1800 O   0  0  0  0  0  0  0  0  0  0  0  0
   41.9440   32.2070   37.7680 O   0  0  0  0  0  0  0  0  0  0  0  0
   42.1920   33.3900   38.6950 P   0  0  0  0  0  0  0  0  0  0  0  0
   40.7330   34.1860   38.9970 O   0  0  0  0  0  0  0  0  0  0  0  0
   40.0320   33.5400   39.2680 H   0  0  0  0  0  0  0  0  0  0  0  0
   43.2720   34.4880   37.9830 O   0  0  0  0  0  0  0  0  0  0  0  0
   43.0320   35.4300   38.2120 H   0  0  0  0  0  0  0  0  0  0  0  0
  1  4  1  0  0  0  0
  1 21  1  0  0  0  0
  2  1  1  0  0  0  0
  3  1  1  0  0  0  0
  4  9  1  0  0  0  0
  5  6  1  0  0  0  0
  5  4  2  0  0  0  0
  6  7  2  0  0  0  0
  7  8  1  0  0  0  0
  8 11  1  0  0  0  0
  9  8  2  0  0  0  0
 10  6  1  0  0  0  0
 12 13  1  0  0  0  0
 12  5  1  0  0  0  0
 13 14  1  0  0  0  0
 14 16  2  0  0  0  0
 14 15  1  0  0  0  0
 16 17  1  0  0  0  0
 18 16  1  0  0  0  0
 19 18  2  0  0  0  0
 20 19  1  0  0  0  0
 20 13  2  0  0  0  0
 21 23  1  0  0  0  0
 21 22  1  0  0  0  0
 24 21  1  0  0  0  0
 24 25  2  0  0  0  0
 25 29  1  0  0  0  0
 26 25  1  0  0  0  0
 27 28  2  0  0  0  0
 27 26  1  0  0  0  0
 28 24  1  0  0  0  0
 30 27  1  0  0  0  0
 31 32  2  0  0  0  0
 32 33  1  0  0  0  0
 32 30  1  0  0  0  0
 33 34  1  0  0  0  0
 35 36  1  0  0  0  0
 35 32  1  0  0  0  0
M  END
>  <minimizedAffinity>
-4.19090462

>  <minimizedRMSD>
1.38383055

$$$$
