
 OpenBabel03252507453D

 36 38  0  0  0  0  0  0  0  0999 V2000
   47.1980   34.4630   40.8990 C   0  0  0  0  0  0  0  0  0  0  0  0
   47.3500   35.2990   40.1620 H   0  0  0  0  0  0  0  0  0  0  0  0
   46.6120   33.6750   40.4200 H   0  0  0  0  0  0  0  0  0  0  0  0
   48.5200   34.0080   41.3430 C   0  0  0  0  0  0  0  0  0  0  0  0
   48.9300   32.7750   40.8690 C   0  0  0  0  0  0  0  0  0  0  0  0
   50.1570   32.2100   41.2010 C   0  0  0  0  0  0  0  0  0  0  0  0
   50.9490   32.9650   42.0430 N   0  0  0  0  0  0  0  0  0  0  0  0
   50.5230   34.1640   42.4890 C   0  0  0  0  0  0  0  0  0  0  0  0
   49.3420   34.6570   42.1400 N   0  0  0  0  0  0  0  0  0  0  0  0
   50.4820   31.2570   40.8400 H   0  0  0  0  0  0  0  0  0  0  0  0
   51.1470   34.7700   43.1580 H   0  0  0  0  0  0  0  0  0  0  0  0
   47.8670   31.8200   39.7460 S   0  0  0  0  0  0  0  0  0  0  0  0
   46.6740   30.8750   40.6500 C   0  0  0  0  0  0  0  0  0  0  0  0
   45.3090   31.1200   40.7650 C   0  0  0  0  0  0  0  0  0  0  0  0
   44.9850   31.9850   40.2360 H   0  0  0  0  0  0  0  0  0  0  0  0
   44.5370   30.2660   41.5180 C   0  0  0  0  0  0  0  0  0  0  0  0
   43.4930   30.4910   41.5810 H   0  0  0  0  0  0  0  0  0  0  0  0
   45.0580   29.1650   42.1700 C   0  0  0  0  0  3  0  0  0  0  0  0
   46.4150   28.9680   42.0210 C   0  0  0  0  0  3  0  0  0  0  0  0
   47.2070   29.7970   41.2820 N   0  0  0  0  0  0  0  0  0  0  0  0
   46.3730   35.0060   42.0260 C   0  0  0  0  0  0  0  0  0  0  0  0
   46.5850   34.5300   43.0060 H   0  0  0  0  0  0  0  0  0  0  0  0
   46.6510   36.0830   42.1650 H   0  0  0  0  0  0  0  0  0  0  0  0
   44.9070   34.9520   41.7610 C   0  0  0  0  0  0  0  0  0  0  0  0
   43.9940   35.4610   42.7420 C   0  0  0  0  0  0  0  0  0  0  0  0
   42.3570   35.1750   41.9670 S   0  0  0  0  0  0  0  0  0  0  0  0
   43.1900   34.4100   40.4360 C   0  0  0  0  0  0  0  0  0  0  0  0
   44.2960   34.4850   40.7060 N   0  0  0  0  0  0  0  0  0  0  0  0
   44.2460   35.8990   43.6960 H   0  0  0  0  0  0  0  0  0  0  0  0
   42.4740   33.9230   39.3290 O   0  0  0  0  0  0  0  0  0  0  0  0
   40.4810   34.3470   37.6360 O   0  0  0  0  0  0  0  0  0  0  0  0
   41.5550   35.0540   38.4530 P   0  0  0  0  0  0  0  0  0  0  0  0
   40.8260   36.1100   39.5500 O   0  0  0  0  0  0  0  0  0  0  0  0
   40.1060   35.6490   40.0530 H   0  0  0  0  0  0  0  0  0  0  0  0
   42.5810   35.9480   37.4390 O   0  0  0  0  0  0  0  0  0  0  0  0
   42.8680   36.7990   37.8770 H   0  0  0  0  0  0  0  0  0  0  0  0
  1  4  1  0  0  0  0
  1 21  1  0  0  0  0
  2  1  1  0  0  0  0
  3  1  1  0  0  0  0
  4  9  1  0  0  0  0
  5  6  1  0  0  0  0
  5  4  2  0  0  0  0
  6  7  2  0  0  0  0
  7  8  1  0  0  0  0
  8 11  1  0  0  0  0
  9  8  2  0  0  0  0
 10  6  1  0  0  0  0
 12 13  1  0  0  0  0
 12  5  1  0  0  0  0
 13 14  2  0  0  0  0
 13 20  1  0  0  0  0
 14 16  1  0  0  0  0
 15 14  1  0  0  0  0
 16 17  1  0  0  0  0
 16 18  2  0  0  0  0
 19 18  1  0  0  0  0
 20 19  2  0  0  0  0
 21 23  1  0  0  0  0
 21 22  1  0  0  0  0
 24 21  1  0  0  0  0
 24 25  2  0  0  0  0
 25 29  1  0  0  0  0
 26 25  1  0  0  0  0
 27 28  2  0  0  0  0
 27 26  1  0  0  0  0
 28 24  1  0  0  0  0
 30 27  1  0  0  0  0
 31 32  2  0  0  0  0
 32 30  1  0  0  0  0
 32 33  1  0  0  0  0
 33 34  1  0  0  0  0
 35 36  1  0  0  0  0
 35 32  1  0  0  0  0
M  END
>  <minimizedAffinity>
-4.34780312

>  <minimizedRMSD>
0.313655615

$$$$
