
 OpenBabel03242513583D

 40 44  0  0  0  0  0  0  0  0999 V2000
   44.4800   35.5980   44.7300 C   0  0  0  0  0  0  0  0  0  0  0  0
   44.6100   35.1810   43.4020 C   0  0  0  0  0  0  0  0  0  0  0  0
   45.2560   33.9430   43.1570 C   0  0  0  0  0  0  0  0  0  0  0  0
   45.7070   33.2420   44.2080 N   0  0  0  0  0  0  0  0  0  0  0  0
   45.5750   33.6580   45.4790 C   0  0  0  0  0  0  0  0  0  0  0  0
   44.9470   34.8600   45.7250 N   0  0  0  0  0  0  0  0  0  0  0  0
   43.9830   36.5460   44.8800 H   0  0  0  0  0  0  0  0  0  0  0  0
   45.3880   33.5640   42.1510 H   0  0  0  0  0  0  0  0  0  0  0  0
   46.0410   32.9460   46.6570 C   0  0  0  0  0  0  0  0  0  0  0  0
   45.2490   32.7870   47.7820 C   0  0  0  0  0  0  0  0  0  0  0  0
   45.9850   32.0680   48.7170 C   0  0  0  0  0  0  0  0  0  0  0  0
   47.1900   31.8160   48.1360 N   0  0  0  0  0  0  0  0  0  0  0  0
   47.1980   32.3460   46.9160 N   0  0  0  0  0  0  0  0  0  0  0  0
   44.2450   33.1400   47.9420 H   0  0  0  0  0  0  0  0  0  0  0  0
   45.6840   31.7600   49.7090 H   0  0  0  0  0  0  0  0  0  0  0  0
   48.3030   31.1120   48.6730 C   0  0  0  0  0  0  0  0  0  0  0  0
   48.4460   29.7980   48.2600 C   0  0  0  0  0  0  0  0  0  0  0  0
   47.7740   29.2970   47.5720 H   0  0  0  0  0  0  0  0  0  0  0  0
   49.5180   29.0390   48.7460 C   0  0  0  0  0  0  0  0  0  0  0  0
   49.7330   28.0090   48.4980 H   0  0  0  0  0  0  0  0  0  0  0  0
   50.3400   29.7240   49.6170 C   0  0  0  0  0  0  0  0  0  0  0  0
   50.2200   31.0300   50.0440 C   0  0  0  0  0  0  0  0  0  0  0  0
   49.1600   31.6990   49.5310 N   0  0  0  0  0  0  0  0  0  0  0  0
   44.1570   35.8760   42.2930 O   0  0  0  0  0  0  0  0  0  0  0  0
   43.4190   35.3230   41.2640 C   0  0  0  0  0  0  0  0  0  0  0  0
   43.9100   34.6170   40.1890 C   0  0  0  0  0  0  0  0  0  0  0  0
   43.0490   34.1260   39.2430 C   0  0  0  0  0  0  0  0  0  0  0  0
   41.6750   34.3090   39.3150 C   0  0  0  0  0  0  0  0  0  0  0  0
   40.8840   33.8080   38.3610 N   0  0  0  0  0  0  0  0  0  0  0  0
   39.5540   33.9660   38.4020 C   0  0  0  0  0  0  0  0  0  0  0  0
   39.0240   34.6680   39.4630 C   0  0  0  0  0  0  0  0  0  0  0  0
   39.8410   35.2060   40.4810 C   0  0  0  0  0  0  0  0  0  0  0  0
   41.1980   35.0170   40.3960 C   0  0  0  0  0  0  0  0  0  0  0  0
   42.0430   35.5310   41.3770 C   0  0  0  0  0  0  0  0  0  0  0  0
   44.9740   34.4820   40.1450 H   0  0  0  0  0  0  0  0  0  0  0  0
   43.4830   33.5780   38.4150 H   0  0  0  0  0  0  0  0  0  0  0  0
   38.8780   33.5890   37.6700 H   0  0  0  0  0  0  0  0  0  0  0  0
   37.9610   34.8300   39.5540 H   0  0  0  0  0  0  0  0  0  0  0  0
   39.3870   35.7450   41.2890 H   0  0  0  0  0  0  0  0  0  0  0  0
   41.5810   36.0680   42.1810 H   0  0  0  0  0  0  0  0  0  0  0  0
  1  7  1  0  0  0  0
  1  6  1  0  0  0  0
  2  1  2  0  0  0  0
  3  2  1  0  0  0  0
  3  4  2  0  0  0  0
  4  5  1  0  0  0  0
  5  6  2  0  0  0  0
  5  9  1  0  0  0  0
  8  3  1  0  0  0  0
  9 13  2  0  0  0  0
  9 10  1  0  0  0  0
 10 14  1  0  0  0  0
 10 11  2  0  0  0  0
 11 15  1  0  0  0  0
 12 16  1  0  0  0  0
 12 11  1  0  0  0  0
 13 12  1  0  0  0  0
 16 23  1  0  0  0  0
 17 16  2  0  0  0  0
 17 19  1  0  0  0  0
 18 17  1  0  0  0  0
 19 21  2  0  0  0  0
 20 19  1  0  0  0  0
 21 22  1  0  0  0  0
 23 22  2  0  0  0  0
 24  2  1  0  0  0  0
 25 34  1  0  0  0  0
 25 24  1  0  0  0  0
 26 25  2  0  0  0  0
 27 28  2  0  0  0  0
 27 26  1  0  0  0  0
 28 33  1  0  0  0  0
 29 30  2  0  0  0  0
 29 28  1  0  0  0  0
 30 31  1  0  0  0  0
 31 38  1  0  0  0  0
 31 32  2  0  0  0  0
 32 39  1  0  0  0  0
 33 32  1  0  0  0  0
 33 34  2  0  0  0  0
 34 40  1  0  0  0  0
 35 26  1  0  0  0  0
 36 27  1  0  0  0  0
 37 30  1  0  0  0  0
M  END
>  <minimizedAffinity>
-7.52794123

>  <minimizedRMSD>
1.51257288

$$$$
