
 OpenBabel03242516233D

 28 30  0  0  0  0  0  0  0  0999 V2000
   37.7140   30.8780   40.4410 C   0  0  0  0  0  0  0  0  0  0  0  0
   37.8500   30.1390   41.5900 C   0  0  0  0  0  0  0  0  0  0  0  0
   36.9580   29.1380   41.9270 C   0  0  0  0  0  0  0  0  0  0  0  0
   35.8820   28.8510   41.0950 C   0  0  0  0  0  0  0  0  0  0  0  0
   35.7290   29.5690   39.9540 C   0  0  0  0  0  0  0  0  0  0  0  0
   36.6360   30.5690   39.6350 C   0  0  0  0  0  0  0  0  0  0  0  0
   38.6800   30.3460   42.2530 H   0  0  0  0  0  0  0  0  0  0  0  0
   35.1880   28.0630   41.3690 H   0  0  0  0  0  0  0  0  0  0  0  0
   34.9200   29.4080   39.2540 H   0  0  0  0  0  0  0  0  0  0  0  0
   36.5120   31.1410   38.7250 H   0  0  0  0  0  0  0  0  0  0  0  0
   39.3220   34.1610   40.3740 C   0  0  0  0  0  0  0  0  0  0  0  0
   40.4020   33.9880   39.5010 C   0  0  0  0  0  0  0  0  0  0  0  0
   40.5750   32.7180   38.9280 C   0  0  0  0  0  0  0  0  0  0  0  0
   39.6990   31.7200   39.2400 N   0  0  0  0  0  0  0  0  0  0  0  0
   38.6670   31.9380   40.0940 C   0  0  0  0  0  0  0  0  0  0  0  0
   38.4820   33.1560   40.6560 N   0  0  0  0  0  0  0  0  0  0  0  0
   39.2330   35.1550   40.7880 H   0  0  0  0  0  0  0  0  0  0  0  0
   41.1320   34.7090   39.2030 H   0  0  0  0  0  0  0  0  0  0  0  0
   41.3270   32.3860   38.2460 H   0  0  0  0  0  0  0  0  0  0  0  0
   37.2270   28.2350   43.4490 S   0  0  0  0  0  0  0  0  0  0  0  0
   37.9920   26.6590   43.0160 C   0  0  0  0  0  0  0  0  0  0  0  0
   37.4310   25.6650   42.2510 C   0  0  0  0  0  0  0  0  0  0  0  0
   36.4290   25.8920   41.8920 H   0  0  0  0  0  0  0  0  0  0  0  0
   38.1720   24.5200   42.0230 C   0  0  0  0  0  0  0  0  0  0  0  0
   37.7070   23.7710   41.4270 H   0  0  0  0  0  0  0  0  0  0  0  0
   39.4440   24.4290   42.5790 C   0  0  0  0  0  3  0  0  0  0  0  0
   39.9720   25.4410   43.3360 C   0  0  0  0  0  3  0  0  0  0  0  0
   39.2360   26.5570   43.5520 N   0  0  0  0  0  0  0  0  0  0  0  0
  1  2  1  0  0  0  0
  2  3  2  0  0  0  0
  2  7  1  0  0  0  0
  3 20  1  0  0  0  0
  4  8  1  0  0  0  0
  4  3  1  0  0  0  0
  5  4  2  0  0  0  0
  6  5  1  0  0  0  0
  6  1  2  0  0  0  0
  9  5  1  0  0  0  0
 10  6  1  0  0  0  0
 11 16  1  0  0  0  0
 11 17  1  0  0  0  0
 12 11  2  0  0  0  0
 13 14  2  0  0  0  0
 13 12  1  0  0  0  0
 14 15  1  0  0  0  0
 15  1  1  0  0  0  0
 15 16  2  0  0  0  0
 18 12  1  0  0  0  0
 19 13  1  0  0  0  0
 21 20  1  0  0  0  0
 21 28  1  0  0  0  0
 22 21  2  0  0  0  0
 23 22  1  0  0  0  0
 24 22  1  0  0  0  0
 24 26  2  0  0  0  0
 25 24  1  0  0  0  0
 26 27  1  0  0  0  0
 27 28  2  0  0  0  0
M  END
>  <minimizedAffinity>
-5.24422121

$$$$

 OpenBabel03242516233D

 28 30  0  0  0  0  0  0  0  0999 V2000
   37.9350   26.3030   42.0010 C   0  0  0  0  0  0  0  0  0  0  0  0
   38.6850   27.4510   41.9330 C   0  0  0  0  0  0  0  0  0  0  0  0
   38.4020   28.5580   42.7110 C   0  0  0  0  0  0  0  0  0  0  0  0
   37.3300   28.5360   43.5970 C   0  0  0  0  0  0  0  0  0  0  0  0
   36.5750   27.4120   43.6800 C   0  0  0  0  0  0  0  0  0  0  0  0
   36.8770   26.3120   42.8900 C   0  0  0  0  0  0  0  0  0  0  0  0
   39.5240   27.4920   41.2510 H   0  0  0  0  0  0  0  0  0  0  0  0
   37.1170   29.4100   44.2030 H   0  0  0  0  0  0  0  0  0  0  0  0
   35.7250   27.3130   44.3430 H   0  0  0  0  0  0  0  0  0  0  0  0
   36.2740   25.4160   42.9570 H   0  0  0  0  0  0  0  0  0  0  0  0
   37.7640   22.9110   40.6500 C   0  0  0  0  0  0  0  0  0  0  0  0
   38.7550   22.8930   39.6630 C   0  0  0  0  0  0  0  0  0  0  0  0
   39.4920   24.0710   39.4620 C   0  0  0  0  0  0  0  0  0  0  0  0
   39.2170   25.1680   40.2250 N   0  0  0  0  0  0  0  0  0  0  0  0
   38.2450   25.1350   41.1710 C   0  0  0  0  0  0  0  0  0  0  0  0
   37.5230   24.0080   41.3800 N   0  0  0  0  0  0  0  0  0  0  0  0
   37.2270   21.9800   40.7650 H   0  0  0  0  0  0  0  0  0  0  0  0
   39.0350   22.0830   39.0230 H   0  0  0  0  0  0  0  0  0  0  0  0
   40.2810   24.2590   38.7680 H   0  0  0  0  0  0  0  0  0  0  0  0
   39.4440   30.0040   42.5460 S   0  0  0  0  0  0  0  0  0  0  0  0
   38.6110   31.1490   41.4290 C   0  0  0  0  0  0  0  0  0  0  0  0
   37.4510   30.9090   40.7330 C   0  0  0  0  0  0  0  0  0  0  0  0
   37.0290   29.9200   40.9010 H   0  0  0  0  0  0  0  0  0  0  0  0
   36.9570   31.9130   39.9210 C   0  0  0  0  0  0  0  0  0  0  0  0
   36.0580   31.6930   39.3970 H   0  0  0  0  0  0  0  0  0  0  0  0
   37.6560   33.1140   39.8470 C   0  0  0  0  0  3  0  0  0  0  0  0
   38.8090   33.3180   40.5570 C   0  0  0  0  0  3  0  0  0  0  0  0
   39.2830   32.3280   41.3480 N   0  0  0  0  0  0  0  0  0  0  0  0
  1  6  1  0  0  0  0
  2  1  2  0  0  0  0
  2  3  1  0  0  0  0
  3  4  2  0  0  0  0
  4  5  1  0  0  0  0
  4  8  1  0  0  0  0
  5  9  1  0  0  0  0
  6 10  1  0  0  0  0
  6  5  2  0  0  0  0
  7  2  1  0  0  0  0
 11 17  1  0  0  0  0
 11 16  1  0  0  0  0
 12 11  2  0  0  0  0
 13 12  1  0  0  0  0
 13 14  2  0  0  0  0
 14 15  1  0  0  0  0
 15 16  2  0  0  0  0
 15  1  1  0  0  0  0
 18 12  1  0  0  0  0
 19 13  1  0  0  0  0
 20  3  1  0  0  0  0
 21 20  1  0  0  0  0
 22 23  1  0  0  0  0
 22 21  2  0  0  0  0
 24 22  1  0  0  0  0
 25 24  1  0  0  0  0
 26 24  2  0  0  0  0
 26 27  1  0  0  0  0
 27 28  2  0  0  0  0
 28 21  1  0  0  0  0
M  END
>  <minimizedAffinity>
-5.2175703

$$$$

 OpenBabel03242516233D

 28 30  0  0  0  0  0  0  0  0999 V2000
   37.2970   31.2050   38.9170 C   0  0  0  0  0  0  0  0  0  0  0  0
   37.9870   30.6330   39.9570 C   0  0  0  0  0  0  0  0  0  0  0  0
   38.6150   31.3930   40.9260 C   0  0  0  0  0  0  0  0  0  0  0  0
   38.5620   32.7810   40.8700 C   0  0  0  0  0  0  0  0  0  0  0  0
   37.8850   33.3680   39.8510 C   0  0  0  0  0  0  0  0  0  0  0  0
   37.2620   32.5860   38.8890 C   0  0  0  0  0  0  0  0  0  0  0  0
   38.0420   29.5540   40.0210 H   0  0  0  0  0  0  0  0  0  0  0  0
   39.0580   33.3680   41.6360 H   0  0  0  0  0  0  0  0  0  0  0  0
   37.7960   34.4400   39.7350 H   0  0  0  0  0  0  0  0  0  0  0  0
   36.7230   33.0550   38.0770 H   0  0  0  0  0  0  0  0  0  0  0  0
   34.9260   28.8820   37.3850 C   0  0  0  0  0  0  0  0  0  0  0  0
   35.3300   28.8250   36.0470 C   0  0  0  0  0  0  0  0  0  0  0  0
   36.4380   29.6010   35.6700 C   0  0  0  0  0  0  0  0  0  0  0  0
   37.0650   30.3670   36.6080 N   0  0  0  0  0  0  0  0  0  0  0  0
   36.6350   30.3880   37.8950 C   0  0  0  0  0  0  0  0  0  0  0  0
   35.5690   29.6460   38.2780 N   0  0  0  0  0  0  0  0  0  0  0  0
   34.0700   28.2670   37.6230 H   0  0  0  0  0  0  0  0  0  0  0  0
   34.8990   28.2560   35.2510 H   0  0  0  0  0  0  0  0  0  0  0  0
   36.8970   29.6950   34.7100 H   0  0  0  0  0  0  0  0  0  0  0  0
   39.4880   30.5460   42.2390 S   0  0  0  0  0  0  0  0  0  0  0  0
   38.6380   28.9830   42.5360 C   0  0  0  0  0  0  0  0  0  0  0  0
   37.4920   28.8050   43.2730 C   0  0  0  0  0  0  0  0  0  0  0  0
   37.0940   29.7230   43.7020 H   0  0  0  0  0  0  0  0  0  0  0  0
   36.9830   27.5270   43.3900 C   0  0  0  0  0  0  0  0  0  0  0  0
   36.0950   27.4260   43.9680 H   0  0  0  0  0  0  0  0  0  0  0  0
   37.6520   26.4830   42.7590 C   0  0  0  0  0  3  0  0  0  0  0  0
   38.7910   26.6970   42.0300 C   0  0  0  0  0  3  0  0  0  0  0  0
   39.2810   27.9540   41.9230 N   0  0  0  0  0  0  0  0  0  0  0  0
  1  2  1  0  0  0  0
  2  7  1  0  0  0  0
  2  3  2  0  0  0  0
  3 20  1  0  0  0  0
  4  3  1  0  0  0  0
  4  8  1  0  0  0  0
  5  4  2  0  0  0  0
  6  1  2  0  0  0  0
  6  5  1  0  0  0  0
  9  5  1  0  0  0  0
 10  6  1  0  0  0  0
 11 17  1  0  0  0  0
 11 16  1  0  0  0  0
 12 11  2  0  0  0  0
 13 12  1  0  0  0  0
 13 14  2  0  0  0  0
 14 15  1  0  0  0  0
 15 16  2  0  0  0  0
 15  1  1  0  0  0  0
 18 12  1  0  0  0  0
 19 13  1  0  0  0  0
 20 21  1  0  0  0  0
 21 22  1  0  0  0  0
 22 24  2  0  0  0  0
 22 23  1  0  0  0  0
 24 25  1  0  0  0  0
 26 24  1  0  0  0  0
 27 26  2  0  0  0  0
 28 27  1  0  0  0  0
 28 21  2  0  0  0  0
M  END
>  <minimizedAffinity>
-5.14507437

$$$$

 OpenBabel03242516233D

 28 30  0  0  0  0  0  0  0  0999 V2000
   38.9320   31.8790   38.4080 C   0  0  0  0  0  0  0  0  0  0  0  0
   38.2480   31.6220   39.5700 C   0  0  0  0  0  0  0  0  0  0  0  0
   37.0770   30.8870   39.5840 C   0  0  0  0  0  0  0  0  0  0  0  0
   36.5540   30.3820   38.3990 C   0  0  0  0  0  0  0  0  0  0  0  0
   37.2140   30.6240   37.2390 C   0  0  0  0  0  0  0  0  0  0  0  0
   38.3880   31.3630   37.2480 C   0  0  0  0  0  0  0  0  0  0  0  0
   38.6360   32.0060   40.5050 H   0  0  0  0  0  0  0  0  0  0  0  0
   35.6350   29.8060   38.4210 H   0  0  0  0  0  0  0  0  0  0  0  0
   36.8750   30.2660   36.2750 H   0  0  0  0  0  0  0  0  0  0  0  0
   38.9130   31.5550   36.3220 H   0  0  0  0  0  0  0  0  0  0  0  0
   41.5530   34.1610   39.5410 C   0  0  0  0  0  0  0  0  0  0  0  0
   42.4770   34.1600   38.4900 C   0  0  0  0  0  0  0  0  0  0  0  0
   42.1880   33.3580   37.3740 C   0  0  0  0  0  0  0  0  0  0  0  0
   41.0380   32.6240   37.3600 N   0  0  0  0  0  0  0  0  0  0  0  0
   40.1740   32.6590   38.4060 C   0  0  0  0  0  0  0  0  0  0  0  0
   40.4340   33.4270   39.4900 N   0  0  0  0  0  0  0  0  0  0  0  0
   41.8220   34.7940   40.3750 H   0  0  0  0  0  0  0  0  0  0  0  0
   43.3960   34.7000   38.4190 H   0  0  0  0  0  0  0  0  0  0  0  0
   42.7560   33.2210   36.4810 H   0  0  0  0  0  0  0  0  0  0  0  0
   36.2640   30.6100   41.1540 S   0  0  0  0  0  0  0  0  0  0  0  0
   37.1750   29.3130   42.0160 C   0  0  0  0  0  0  0  0  0  0  0  0
   38.4270   29.4270   42.5690 C   0  0  0  0  0  0  0  0  0  0  0  0
   38.8760   30.4120   42.4530 H   0  0  0  0  0  0  0  0  0  0  0  0
   38.9680   28.3190   43.1930 C   0  0  0  0  0  0  0  0  0  0  0  0
   39.9390   28.4430   43.6110 H   0  0  0  0  0  0  0  0  0  0  0  0
   38.2220   27.1450   43.2310 C   0  0  0  0  0  3  0  0  0  0  0  0
   36.9750   27.0690   42.6700 C   0  0  0  0  0  3  0  0  0  0  0  0
   36.4560   28.1610   42.0600 N   0  0  0  0  0  0  0  0  0  0  0  0
  1  2  1  0  0  0  0
  2  3  2  0  0  0  0
  2  7  1  0  0  0  0
  3 20  1  0  0  0  0
  4  8  1  0  0  0  0
  4  3  1  0  0  0  0
  5  6  1  0  0  0  0
  5  4  2  0  0  0  0
  6  1  2  0  0  0  0
  9  5  1  0  0  0  0
 10  6  1  0  0  0  0
 11 17  1  0  0  0  0
 12 11  2  0  0  0  0
 13 12  1  0  0  0  0
 14 13  2  0  0  0  0
 14 15  1  0  0  0  0
 15  1  1  0  0  0  0
 15 16  2  0  0  0  0
 16 11  1  0  0  0  0
 18 12  1  0  0  0  0
 19 13  1  0  0  0  0
 20 21  1  0  0  0  0
 21 28  2  0  0  0  0
 21 22  1  0  0  0  0
 22 24  2  0  0  0  0
 23 22  1  0  0  0  0
 24 26  1  0  0  0  0
 24 25  1  0  0  0  0
 27 26  2  0  0  0  0
 28 27  1  0  0  0  0
M  END
>  <minimizedAffinity>
-5.11342621

$$$$

 OpenBabel03242516233D

 28 30  0  0  0  0  0  0  0  0999 V2000
   37.4250   26.3890   41.7240 C   0  0  0  0  0  0  0  0  0  0  0  0
   36.9310   27.5460   41.1730 C   0  0  0  0  0  0  0  0  0  0  0  0
   36.9880   28.7570   41.8390 C   0  0  0  0  0  0  0  0  0  0  0  0
   37.5550   28.8330   43.1050 C   0  0  0  0  0  0  0  0  0  0  0  0
   38.0490   27.7020   43.6690 C   0  0  0  0  0  0  0  0  0  0  0  0
   37.9820   26.4980   42.9830 C   0  0  0  0  0  0  0  0  0  0  0  0
   36.4850   27.5100   40.1880 H   0  0  0  0  0  0  0  0  0  0  0  0
   37.5950   29.7880   43.6180 H   0  0  0  0  0  0  0  0  0  0  0  0
   38.5060   27.6770   44.6490 H   0  0  0  0  0  0  0  0  0  0  0  0
   38.3770   25.5970   43.4340 H   0  0  0  0  0  0  0  0  0  0  0  0
   38.3030   23.0040   40.6590 C   0  0  0  0  0  0  0  0  0  0  0  0
   37.3200   22.6840   39.7160 C   0  0  0  0  0  0  0  0  0  0  0  0
   36.3400   23.6530   39.4460 C   0  0  0  0  0  0  0  0  0  0  0  0
   36.3850   24.8480   40.1020 N   0  0  0  0  0  0  0  0  0  0  0  0
   37.3600   25.1110   41.0090 C   0  0  0  0  0  0  0  0  0  0  0  0
   38.3140   24.1890   41.2830 N   0  0  0  0  0  0  0  0  0  0  0  0
   39.0320   22.2250   40.8300 H   0  0  0  0  0  0  0  0  0  0  0  0
   37.2100   21.7790   39.1590 H   0  0  0  0  0  0  0  0  0  0  0  0
   35.5160   23.6040   38.7690 H   0  0  0  0  0  0  0  0  0  0  0  0
   36.3150   30.2050   41.0290 S   0  0  0  0  0  0  0  0  0  0  0  0
   35.5450   29.6590   39.4920 C   0  0  0  0  0  0  0  0  0  0  0  0
   34.2780   29.1460   39.3520 C   0  0  0  0  0  0  0  0  0  0  0  0
   33.7210   29.0800   40.2850 H   0  0  0  0  0  0  0  0  0  0  0  0
   33.8580   28.7800   38.0880 C   0  0  0  0  0  0  0  0  0  0  0  0
   32.8710   28.3870   38.0170 H   0  0  0  0  0  0  0  0  0  0  0  0
   34.7340   28.9470   37.0200 C   0  0  0  0  0  3  0  0  0  0  0  0
   35.9900   29.4630   37.1970 C   0  0  0  0  0  3  0  0  0  0  0  0
   36.3910   29.8180   38.4400 N   0  0  0  0  0  0  0  0  0  0  0  0
  1  6  1  0  0  0  0
  2  1  2  0  0  0  0
  2  3  1  0  0  0  0
  3  4  2  0  0  0  0
  4  8  1  0  0  0  0
  4  5  1  0  0  0  0
  5  9  1  0  0  0  0
  6 10  1  0  0  0  0
  6  5  2  0  0  0  0
  7  2  1  0  0  0  0
 11 17  1  0  0  0  0
 11 16  1  0  0  0  0
 12 11  2  0  0  0  0
 13 12  1  0  0  0  0
 13 14  2  0  0  0  0
 14 15  1  0  0  0  0
 15 16  2  0  0  0  0
 15  1  1  0  0  0  0
 18 12  1  0  0  0  0
 19 13  1  0  0  0  0
 20  3  1  0  0  0  0
 21 20  1  0  0  0  0
 22 21  1  0  0  0  0
 22 23  1  0  0  0  0
 24 22  2  0  0  0  0
 25 24  1  0  0  0  0
 26 27  2  0  0  0  0
 26 24  1  0  0  0  0
 27 28  1  0  0  0  0
 28 21  2  0  0  0  0
M  END
>  <minimizedAffinity>
-4.99190092

$$$$

 OpenBabel03242516233D

 28 30  0  0  0  0  0  0  0  0999 V2000
   37.0960   26.7570   41.4620 C   0  0  0  0  0  0  0  0  0  0  0  0
   36.7360   27.9870   40.9700 C   0  0  0  0  0  0  0  0  0  0  0  0
   36.8940   29.1460   41.7070 C   0  0  0  0  0  0  0  0  0  0  0  0
   37.4310   29.0930   42.9890 C   0  0  0  0  0  0  0  0  0  0  0  0
   37.7930   27.8870   43.4950 C   0  0  0  0  0  0  0  0  0  0  0  0
   37.6250   26.7370   42.7380 C   0  0  0  0  0  0  0  0  0  0  0  0
   36.3160   28.0540   39.9740 H   0  0  0  0  0  0  0  0  0  0  0  0
   37.5510   30.0080   43.5580 H   0  0  0  0  0  0  0  0  0  0  0  0
   38.2170   27.7590   44.4820 H   0  0  0  0  0  0  0  0  0  0  0  0
   37.9140   25.7760   43.1430 H   0  0  0  0  0  0  0  0  0  0  0  0
   37.2700   23.2320   40.5100 C   0  0  0  0  0  0  0  0  0  0  0  0
   36.6460   23.1910   39.2580 C   0  0  0  0  0  0  0  0  0  0  0  0
   36.1580   24.4010   38.7380 C   0  0  0  0  0  0  0  0  0  0  0  0
   36.3100   25.5470   39.4600 N   0  0  0  0  0  0  0  0  0  0  0  0
   36.9230   25.5350   40.6710 C   0  0  0  0  0  0  0  0  0  0  0  0
   37.4010   24.3790   41.1900 N   0  0  0  0  0  0  0  0  0  0  0  0
   37.6280   22.2760   40.8660 H   0  0  0  0  0  0  0  0  0  0  0  0
   36.4850   22.3430   38.6290 H   0  0  0  0  0  0  0  0  0  0  0  0
   35.6580   24.5790   37.8120 H   0  0  0  0  0  0  0  0  0  0  0  0
   36.3940   30.6990   40.9710 S   0  0  0  0  0  0  0  0  0  0  0  0
   37.8930   31.6260   40.5860 C   0  0  0  0  0  0  0  0  0  0  0  0
   39.1680   31.1190   40.5160 C   0  0  0  0  0  0  0  0  0  0  0  0
   39.2340   30.0520   40.7200 H   0  0  0  0  0  0  0  0  0  0  0  0
   40.1980   31.9860   40.2050 C   0  0  0  0  0  0  0  0  0  0  0  0
   41.1730   31.5600   40.1590 H   0  0  0  0  0  0  0  0  0  0  0  0
   39.8960   33.3260   39.9790 C   0  0  0  0  0  3  0  0  0  0  0  0
   38.6130   33.7950   40.0570 C   0  0  0  0  0  3  0  0  0  0  0  0
   37.6120   32.9360   40.3620 N   0  0  0  0  0  0  0  0  0  0  0  0
  1  6  1  0  0  0  0
  2  1  2  0  0  0  0
  2  3  1  0  0  0  0
  3  4  2  0  0  0  0
  4  5  1  0  0  0  0
  4  8  1  0  0  0  0
  5  9  1  0  0  0  0
  6 10  1  0  0  0  0
  6  5  2  0  0  0  0
  7  2  1  0  0  0  0
 11 17  1  0  0  0  0
 11 16  1  0  0  0  0
 12 11  2  0  0  0  0
 13 12  1  0  0  0  0
 13 14  2  0  0  0  0
 14 15  1  0  0  0  0
 15 16  2  0  0  0  0
 15  1  1  0  0  0  0
 18 12  1  0  0  0  0
 19 13  1  0  0  0  0
 20  3  1  0  0  0  0
 21 20  1  0  0  0  0
 22 21  1  0  0  0  0
 22 23  1  0  0  0  0
 24 22  2  0  0  0  0
 25 24  1  0  0  0  0
 26 27  2  0  0  0  0
 26 24  1  0  0  0  0
 27 28  1  0  0  0  0
 28 21  2  0  0  0  0
M  END
>  <minimizedAffinity>
-4.97975588

$$$$

 OpenBabel03242516233D

 28 30  0  0  0  0  0  0  0  0999 V2000
   39.4670   31.3500   38.6140 C   0  0  0  0  0  0  0  0  0  0  0  0
   38.3970   30.6120   39.0570 C   0  0  0  0  0  0  0  0  0  0  0  0
   37.3870   31.1710   39.8180 C   0  0  0  0  0  0  0  0  0  0  0  0
   37.4300   32.5170   40.1590 C   0  0  0  0  0  0  0  0  0  0  0  0
   38.4780   33.2650   39.7320 C   0  0  0  0  0  0  0  0  0  0  0  0
   39.4820   32.6850   38.9700 C   0  0  0  0  0  0  0  0  0  0  0  0
   38.3420   29.5610   38.8040 H   0  0  0  0  0  0  0  0  0  0  0  0
   36.6320   32.9460   40.7560 H   0  0  0  0  0  0  0  0  0  0  0  0
   38.5870   34.3190   39.9540 H   0  0  0  0  0  0  0  0  0  0  0  0
   40.3170   33.2830   38.6300 H   0  0  0  0  0  0  0  0  0  0  0  0
   42.5140   31.0660   36.6150 C   0  0  0  0  0  0  0  0  0  0  0  0
   42.5740   29.7070   36.2870 C   0  0  0  0  0  0  0  0  0  0  0  0
   41.5460   28.8790   36.7650 C   0  0  0  0  0  0  0  0  0  0  0  0
   40.5470   29.4220   37.5170 N   0  0  0  0  0  0  0  0  0  0  0  0
   40.5330   30.7480   37.8080 C   0  0  0  0  0  0  0  0  0  0  0  0
   41.5150   31.5630   37.3560 N   0  0  0  0  0  0  0  0  0  0  0  0
   43.3280   31.6600   36.2220 H   0  0  0  0  0  0  0  0  0  0  0  0
   43.3160   29.2000   35.7080 H   0  0  0  0  0  0  0  0  0  0  0  0
   41.4120   27.8280   36.6270 H   0  0  0  0  0  0  0  0  0  0  0  0
   36.0370   30.1190   40.3430 S   0  0  0  0  0  0  0  0  0  0  0  0
   36.6850   28.9840   41.5860 C   0  0  0  0  0  0  0  0  0  0  0  0
   36.3970   27.6440   41.6950 C   0  0  0  0  0  0  0  0  0  0  0  0
   35.7060   27.2760   40.9390 H   0  0  0  0  0  0  0  0  0  0  0  0
   36.9920   26.9300   42.7170 C   0  0  0  0  0  0  0  0  0  0  0  0
   36.7470   25.8960   42.7720 H   0  0  0  0  0  0  0  0  0  0  0  0
   37.8520   27.5980   43.5840 C   0  0  0  0  0  3  0  0  0  0  0  0
   38.1170   28.9340   43.4440 C   0  0  0  0  0  3  0  0  0  0  0  0
   37.5270   29.6230   42.4390 N   0  0  0  0  0  0  0  0  0  0  0  0
  1  6  2  0  0  0  0
  1  2  1  0  0  0  0
  2  3  2  0  0  0  0
  3  4  1  0  0  0  0
  3 20  1  0  0  0  0
  4  8  1  0  0  0  0
  5  9  1  0  0  0  0
  5  4  2  0  0  0  0
  6  5  1  0  0  0  0
  7  2  1  0  0  0  0
 10  6  1  0  0  0  0
 11 16  1  0  0  0  0
 12 11  2  0  0  0  0
 12 13  1  0  0  0  0
 13 14  2  0  0  0  0
 14 15  1  0  0  0  0
 15  1  1  0  0  0  0
 16 15  2  0  0  0  0
 17 11  1  0  0  0  0
 18 12  1  0  0  0  0
 19 13  1  0  0  0  0
 20 21  1  0  0  0  0
 21 22  2  0  0  0  0
 21 28  1  0  0  0  0
 22 24  1  0  0  0  0
 23 22  1  0  0  0  0
 24 25  1  0  0  0  0
 24 26  2  0  0  0  0
 27 26  1  0  0  0  0
 28 27  2  0  0  0  0
M  END
>  <minimizedAffinity>
-4.91523123

$$$$

 OpenBabel03242516233D

 28 30  0  0  0  0  0  0  0  0999 V2000
   35.8660   29.4450   39.5270 C   0  0  0  0  0  0  0  0  0  0  0  0
   35.9500   28.4980   40.5170 C   0  0  0  0  0  0  0  0  0  0  0  0
   36.6330   28.7310   41.6970 C   0  0  0  0  0  0  0  0  0  0  0  0
   37.2640   29.9510   41.9110 C   0  0  0  0  0  0  0  0  0  0  0  0
   37.1940   30.9010   40.9450 C   0  0  0  0  0  0  0  0  0  0  0  0
   36.5030   30.6470   39.7690 C   0  0  0  0  0  0  0  0  0  0  0  0
   35.4670   27.5410   40.3720 H   0  0  0  0  0  0  0  0  0  0  0  0
   37.7970   30.1230   42.8410 H   0  0  0  0  0  0  0  0  0  0  0  0
   37.6570   31.8750   41.0340 H   0  0  0  0  0  0  0  0  0  0  0  0
   36.4480   31.4050   39.0000 H   0  0  0  0  0  0  0  0  0  0  0  0
   35.2090   29.0830   35.9490 C   0  0  0  0  0  0  0  0  0  0  0  0
   33.8580   28.7250   35.8910 C   0  0  0  0  0  0  0  0  0  0  0  0
   33.1660   28.6070   37.1060 C   0  0  0  0  0  0  0  0  0  0  0  0
   33.8260   28.8420   38.2760 N   0  0  0  0  0  0  0  0  0  0  0  0
   35.1390   29.1870   38.2790 C   0  0  0  0  0  0  0  0  0  0  0  0
   35.8240   29.3070   37.1180 N   0  0  0  0  0  0  0  0  0  0  0  0
   35.6960   29.1600   34.9870 H   0  0  0  0  0  0  0  0  0  0  0  0
   33.2660   28.5230   35.0240 H   0  0  0  0  0  0  0  0  0  0  0  0
   32.1430   28.3470   37.2740 H   0  0  0  0  0  0  0  0  0  0  0  0
   36.6810   27.4290   42.9240 S   0  0  0  0  0  0  0  0  0  0  0  0
   37.4560   25.9910   42.1600 C   0  0  0  0  0  0  0  0  0  0  0  0
   36.9140   24.7320   42.0540 C   0  0  0  0  0  0  0  0  0  0  0  0
   35.9190   24.6400   42.4870 H   0  0  0  0  0  0  0  0  0  0  0  0
   37.6600   23.7500   41.4320 C   0  0  0  0  0  0  0  0  0  0  0  0
   37.2100   22.7880   41.3670 H   0  0  0  0  0  0  0  0  0  0  0  0
   38.9210   24.0810   40.9440 C   0  0  0  0  0  3  0  0  0  0  0  0
   39.4300   25.3460   41.0670 C   0  0  0  0  0  3  0  0  0  0  0  0
   38.6890   26.3000   41.6790 N   0  0  0  0  0  0  0  0  0  0  0  0
  1  6  2  0  0  0  0
  1  2  1  0  0  0  0
  2  3  2  0  0  0  0
  3  4  1  0  0  0  0
  3 20  1  0  0  0  0
  4  8  1  0  0  0  0
  5  9  1  0  0  0  0
  5  4  2  0  0  0  0
  6  5  1  0  0  0  0
  7  2  1  0  0  0  0
 10  6  1  0  0  0  0
 11 16  1  0  0  0  0
 12 11  2  0  0  0  0
 12 13  1  0  0  0  0
 13 19  1  0  0  0  0
 13 14  2  0  0  0  0
 14 15  1  0  0  0  0
 15  1  1  0  0  0  0
 16 15  2  0  0  0  0
 17 11  1  0  0  0  0
 18 12  1  0  0  0  0
 21 20  1  0  0  0  0
 22 21  1  0  0  0  0
 22 23  1  0  0  0  0
 24 22  2  0  0  0  0
 25 24  1  0  0  0  0
 26 27  2  0  0  0  0
 26 24  1  0  0  0  0
 27 28  1  0  0  0  0
 28 21  2  0  0  0  0
M  END
>  <minimizedAffinity>
-4.87792969

$$$$

 OpenBabel03242516233D

 28 30  0  0  0  0  0  0  0  0999 V2000
   36.0340   29.4140   37.2650 C   0  0  0  0  0  0  0  0  0  0  0  0
   35.8800   29.6330   38.6120 C   0  0  0  0  0  0  0  0  0  0  0  0
   36.6180   30.5870   39.2880 C   0  0  0  0  0  0  0  0  0  0  0  0
   37.5510   31.3610   38.6080 C   0  0  0  0  0  0  0  0  0  0  0  0
   37.7190   31.1610   37.2770 C   0  0  0  0  0  0  0  0  0  0  0  0
   36.9680   30.1980   36.6180 C   0  0  0  0  0  0  0  0  0  0  0  0
   35.1590   29.0410   39.1620 H   0  0  0  0  0  0  0  0  0  0  0  0
   38.1240   32.1070   39.1480 H   0  0  0  0  0  0  0  0  0  0  0  0
   38.4240   31.7210   36.6750 H   0  0  0  0  0  0  0  0  0  0  0  0
   37.1040   30.0400   35.5570 H   0  0  0  0  0  0  0  0  0  0  0  0
   33.6210   26.7280   36.6910 C   0  0  0  0  0  0  0  0  0  0  0  0
   33.7250   26.4710   35.3200 C   0  0  0  0  0  0  0  0  0  0  0  0
   34.6430   27.2380   34.5850 C   0  0  0  0  0  0  0  0  0  0  0  0
   35.3830   28.1870   35.2250 N   0  0  0  0  0  0  0  0  0  0  0  0
   35.2460   28.3980   36.5590 C   0  0  0  0  0  0  0  0  0  0  0  0
   34.3670   27.6690   37.2860 N   0  0  0  0  0  0  0  0  0  0  0  0
   32.9020   26.1110   37.2110 H   0  0  0  0  0  0  0  0  0  0  0  0
   33.1870   25.7520   34.7400 H   0  0  0  0  0  0  0  0  0  0  0  0
   34.8680   27.1970   33.5420 H   0  0  0  0  0  0  0  0  0  0  0  0
   36.3380   30.7920   41.0440 S   0  0  0  0  0  0  0  0  0  0  0  0
   37.0420   29.3550   41.8770 C   0  0  0  0  0  0  0  0  0  0  0  0
   36.4580   28.1180   42.0010 C   0  0  0  0  0  0  0  0  0  0  0  0
   35.4760   28.0430   41.5370 H   0  0  0  0  0  0  0  0  0  0  0  0
   37.1520   27.1330   42.6770 C   0  0  0  0  0  0  0  0  0  0  0  0
   36.6700   26.1870   42.7540 H   0  0  0  0  0  0  0  0  0  0  0  0
   38.4050   27.4400   43.1990 C   0  0  0  0  0  3  0  0  0  0  0  0
   38.9570   28.6850   43.0550 C   0  0  0  0  0  3  0  0  0  0  0  0
   38.2670   29.6410   42.3920 N   0  0  0  0  0  0  0  0  0  0  0  0
  1  2  1  0  0  0  0
  2  7  1  0  0  0  0
  2  3  2  0  0  0  0
  3 20  1  0  0  0  0
  4  8  1  0  0  0  0
  4  3  1  0  0  0  0
  5  4  2  0  0  0  0
  6  1  2  0  0  0  0
  6  5  1  0  0  0  0
  9  5  1  0  0  0  0
 10  6  1  0  0  0  0
 11 17  1  0  0  0  0
 11 16  1  0  0  0  0
 12 11  2  0  0  0  0
 13 14  2  0  0  0  0
 13 12  1  0  0  0  0
 14 15  1  0  0  0  0
 15  1  1  0  0  0  0
 15 16  2  0  0  0  0
 18 12  1  0  0  0  0
 19 13  1  0  0  0  0
 20 21  1  0  0  0  0
 21 22  2  0  0  0  0
 21 28  1  0  0  0  0
 22 24  1  0  0  0  0
 23 22  1  0  0  0  0
 24 25  1  0  0  0  0
 24 26  2  0  0  0  0
 27 26  1  0  0  0  0
 28 27  2  0  0  0  0
M  END
>  <minimizedAffinity>
-4.84305477

$$$$
