
 OpenBabel03252507453D

 36 38  0  0  0  0  0  0  0  0999 V2000
   47.1970   34.4670   40.9050 C   0  0  0  0  0  0  0  0  0  0  0  0
   47.3530   35.3150   40.1820 H   0  0  0  0  0  0  0  0  0  0  0  0
   46.6110   33.6870   40.4110 H   0  0  0  0  0  0  0  0  0  0  0  0
   48.5170   34.0010   41.3450 C   0  0  0  0  0  0  0  0  0  0  0  0
   48.9070   32.7550   40.8870 C   0  0  0  0  0  0  0  0  0  0  0  0
   50.1290   32.1800   41.2170 C   0  0  0  0  0  0  0  0  0  0  0  0
   50.9380   32.9380   42.0410 N   0  0  0  0  0  0  0  0  0  0  0  0
   50.5310   34.1490   42.4710 C   0  0  0  0  0  0  0  0  0  0  0  0
   49.3540   34.6520   42.1250 N   0  0  0  0  0  0  0  0  0  0  0  0
   50.4380   31.2180   40.8690 H   0  0  0  0  0  0  0  0  0  0  0  0
   51.1690   34.7570   43.1260 H   0  0  0  0  0  0  0  0  0  0  0  0
   47.8220   31.7970   39.7880 S   0  0  0  0  0  0  0  0  0  0  0  0
   46.7170   30.7740   40.7190 C   0  0  0  0  0  0  0  0  0  0  0  0
   45.5600   31.1650   41.3860 C   0  0  0  0  0  0  0  0  0  0  0  0
   45.3490   32.2040   41.3030 H   0  0  0  0  0  0  0  0  0  0  0  0
   44.8260   30.2180   42.0620 C   0  0  0  0  0  0  0  0  0  0  0  0
   43.9440   30.5600   42.5620 H   0  0  0  0  0  0  0  0  0  0  0  0
   45.1860   28.8840   42.1090 C   0  0  0  0  0  3  0  0  0  0  0  0
   46.3420   28.5530   41.4300 C   0  0  0  0  0  3  0  0  0  0  0  0
   47.0900   29.4690   40.7520 N   0  0  0  0  0  0  0  0  0  0  0  0
   46.3700   34.9920   42.0380 C   0  0  0  0  0  0  0  0  0  0  0  0
   46.5790   34.5000   43.0110 H   0  0  0  0  0  0  0  0  0  0  0  0
   46.6500   36.0660   42.1960 H   0  0  0  0  0  0  0  0  0  0  0  0
   44.9050   34.9450   41.7680 C   0  0  0  0  0  0  0  0  0  0  0  0
   43.9910   35.4630   42.7450 C   0  0  0  0  0  0  0  0  0  0  0  0
   42.3550   35.1820   41.9640 S   0  0  0  0  0  0  0  0  0  0  0  0
   43.1890   34.4070   40.4390 C   0  0  0  0  0  0  0  0  0  0  0  0
   44.2940   34.4760   40.7140 N   0  0  0  0  0  0  0  0  0  0  0  0
   44.2420   35.9030   43.6970 H   0  0  0  0  0  0  0  0  0  0  0  0
   42.4740   33.9180   39.3320 O   0  0  0  0  0  0  0  0  0  0  0  0
   40.4840   34.3420   37.6350 O   0  0  0  0  0  0  0  0  0  0  0  0
   41.5560   35.0490   38.4540 P   0  0  0  0  0  0  0  0  0  0  0  0
   40.8240   36.1040   39.5510 O   0  0  0  0  0  0  0  0  0  0  0  0
   40.1040   35.6420   40.0520 H   0  0  0  0  0  0  0  0  0  0  0  0
   42.5830   35.9450   37.4430 O   0  0  0  0  0  0  0  0  0  0  0  0
   42.8690   36.7960   37.8820 H   0  0  0  0  0  0  0  0  0  0  0  0
  1  4  1  0  0  0  0
  1 21  1  0  0  0  0
  2  1  1  0  0  0  0
  3  1  1  0  0  0  0
  4  9  1  0  0  0  0
  5  6  1  0  0  0  0
  5  4  2  0  0  0  0
  6  7  2  0  0  0  0
  7  8  1  0  0  0  0
  8 11  1  0  0  0  0
  9  8  2  0  0  0  0
 10  6  1  0  0  0  0
 12 13  1  0  0  0  0
 12  5  1  0  0  0  0
 13 20  2  0  0  0  0
 13 14  1  0  0  0  0
 14 16  2  0  0  0  0
 15 14  1  0  0  0  0
 16 18  1  0  0  0  0
 16 17  1  0  0  0  0
 19 18  2  0  0  0  0
 20 19  1  0  0  0  0
 21 23  1  0  0  0  0
 21 22  1  0  0  0  0
 24 21  1  0  0  0  0
 24 25  2  0  0  0  0
 25 29  1  0  0  0  0
 26 25  1  0  0  0  0
 27 28  2  0  0  0  0
 27 26  1  0  0  0  0
 28 24  1  0  0  0  0
 30 27  1  0  0  0  0
 31 32  2  0  0  0  0
 32 30  1  0  0  0  0
 32 33  1  0  0  0  0
 33 34  1  0  0  0  0
 35 36  1  0  0  0  0
 35 32  1  0  0  0  0
M  END
>  <minimizedAffinity>
-4.32862377

>  <minimizedRMSD>
0.240953907

$$$$
