
 OpenBabel03242514213D

 33 36  0  0  0  0  0  0  0  0999 V2000
   44.7530   33.1670   41.1050 Cl  0  0  0  0  0  0  0  0  0  0  0  0
   46.2930   33.9590   40.8880 C   0  0  0  0  0  0  0  0  0  0  0  0
   46.8090   34.7020   41.9150 C   0  0  0  0  0  0  0  0  0  0  0  0
   48.0420   35.3480   41.7660 C   0  0  0  0  0  0  0  0  0  0  0  0
   48.6890   35.2000   40.5670 C   0  0  0  0  0  0  0  0  0  0  0  0
   48.1500   34.4450   39.5440 C   0  0  0  0  0  0  0  0  0  0  0  0
   46.9580   33.8270   39.7020 C   0  0  0  0  0  0  0  0  0  0  0  0
   48.4800   35.9440   42.5570 H   0  0  0  0  0  0  0  0  0  0  0  0
   49.6490   35.6780   40.3930 H   0  0  0  0  0  0  0  0  0  0  0  0
   48.6920   34.3500   38.6080 H   0  0  0  0  0  0  0  0  0  0  0  0
   45.5960   34.0300   45.3200 C   0  0  0  0  0  0  0  0  0  0  0  0
   44.7200   35.0970   45.5420 C   0  0  0  0  0  0  0  0  0  0  0  0
   44.5540   36.0370   44.5240 C   0  0  0  0  0  0  0  0  0  0  0  0
   45.2440   35.8630   43.3860 N   0  0  0  0  0  0  0  0  0  0  0  0
   46.0840   34.8340   43.1790 C   0  0  0  0  0  0  0  0  0  0  0  0
   46.2610   33.9160   44.1470 N   0  0  0  0  0  0  0  0  0  0  0  0
   45.7730   33.2710   46.0570 H   0  0  0  0  0  0  0  0  0  0  0  0
   44.1960   35.1700   46.4880 H   0  0  0  0  0  0  0  0  0  0  0  0
   43.8750   36.8790   44.6740 H   0  0  0  0  0  0  0  0  0  0  0  0
   46.3580   33.0180   38.6340 C   0  0  0  0  0  0  0  0  0  0  0  0
   45.3910   33.3770   37.7820 N   0  0  0  0  0  0  0  0  0  0  0  0
   45.1340   32.3390   36.9630 C   0  0  0  0  0  0  0  0  0  0  0  0
   45.9410   31.3150   37.2950 N   0  0  0  0  0  0  0  0  0  0  0  0
   46.6880   31.7430   38.3210 N   0  0  0  0  0  0  0  0  0  0  0  0
   44.4480   32.1830   36.1430 H   0  0  0  0  0  0  0  0  0  0  0  0
   46.1810   29.9820   36.8550 C   0  0  0  0  0  0  0  0  0  0  0  0
   47.4860   29.4960   36.7160 C   0  0  0  0  0  0  0  0  0  0  0  0
   48.3150   30.1620   36.9520 H   0  0  0  0  0  0  0  0  0  0  0  0
   47.6560   28.1770   36.2800 C   0  0  0  0  0  0  0  0  0  0  0  0
   48.6530   27.7900   36.1680 H   0  0  0  0  0  0  0  0  0  0  0  0
   46.5170   27.4180   36.0070 C   0  0  0  0  0  0  0  0  0  0  0  0
   45.2390   27.9530   36.1620 C   0  0  0  0  0  0  0  0  0  0  0  0
   45.0700   29.2350   36.5860 N   0  0  0  0  0  0  0  0  0  0  0  0
  2  1  1  0  0  0  0
  2  3  1  0  0  0  0
  3 15  1  0  0  0  0
  4  3  2  0  0  0  0
  4  8  1  0  0  0  0
  5  4  1  0  0  0  0
  6  7  1  0  0  0  0
  6  5  2  0  0  0  0
  7  2  2  0  0  0  0
  9  5  1  0  0  0  0
 10  6  1  0  0  0  0
 11 12  1  0  0  0  0
 11 17  1  0  0  0  0
 12 18  1  0  0  0  0
 13 19  1  0  0  0  0
 13 12  2  0  0  0  0
 14 13  1  0  0  0  0
 15 14  2  0  0  0  0
 15 16  1  0  0  0  0
 16 11  2  0  0  0  0
 20  7  1  0  0  0  0
 21 20  1  0  0  0  0
 22 23  1  0  0  0  0
 22 21  2  0  0  0  0
 23 24  1  0  0  0  0
 24 20  2  0  0  0  0
 25 22  1  0  0  0  0
 26 23  1  0  0  0  0
 27 26  1  0  0  0  0
 27 28  1  0  0  0  0
 29 27  2  0  0  0  0
 30 29  1  0  0  0  0
 31 32  2  0  0  0  0
 31 29  1  0  0  0  0
 32 33  1  0  0  0  0
 33 26  2  0  0  0  0
M  END
>  <minimizedAffinity>
-5.34231186

>  <minimizedRMSD>
0.286659449

$$$$
