
 OpenBabel03252507453D

 36 38  0  0  0  0  0  0  0  0999 V2000
   47.3990   34.5560   40.9040 C   0  0  0  0  0  0  0  0  0  0  0  0
   47.6880   35.4240   40.2490 H   0  0  0  0  0  0  0  0  0  0  0  0
   46.7490   33.8870   40.3330 H   0  0  0  0  0  0  0  0  0  0  0  0
   48.6310   33.9080   41.3640 C   0  0  0  0  0  0  0  0  0  0  0  0
   48.7670   32.5670   41.0510 C   0  0  0  0  0  0  0  0  0  0  0  0
   49.8780   31.8160   41.4170 C   0  0  0  0  0  0  0  0  0  0  0  0
   50.8500   32.5000   42.1220 N   0  0  0  0  0  0  0  0  0  0  0  0
   50.6900   33.8060   42.4120 C   0  0  0  0  0  0  0  0  0  0  0  0
   49.6080   34.4760   42.0370 N   0  0  0  0  0  0  0  0  0  0  0  0
   49.9910   30.7800   41.1800 H   0  0  0  0  0  0  0  0  0  0  0  0
   51.4580   34.3560   42.9720 H   0  0  0  0  0  0  0  0  0  0  0  0
   47.4750   31.7080   40.1040 S   0  0  0  0  0  0  0  0  0  0  0  0
   46.0560   31.3860   41.1110 C   0  0  0  0  0  0  0  0  0  0  0  0
   45.9660   31.4660   42.4970 C   0  0  0  0  0  0  0  0  0  0  0  0
   46.8750   31.7570   42.9680 H   0  0  0  0  0  0  0  0  0  0  0  0
   44.7680   31.1760   43.1080 C   0  0  0  0  0  0  0  0  0  0  0  0
   44.7410   31.2500   44.1750 H   0  0  0  0  0  0  0  0  0  0  0  0
   43.6390   30.8040   42.4030 C   0  0  0  0  0  3  0  0  0  0  0  0
   43.7840   30.7410   41.0320 C   0  0  0  0  0  3  0  0  0  0  0  0
   44.9590   31.0230   40.3980 N   0  0  0  0  0  0  0  0  0  0  0  0
   46.5850   35.1040   42.0360 C   0  0  0  0  0  0  0  0  0  0  0  0
   46.8320   34.6570   43.0220 H   0  0  0  0  0  0  0  0  0  0  0  0
   46.8370   36.1900   42.1440 H   0  0  0  0  0  0  0  0  0  0  0  0
   45.1150   35.0050   41.8070 C   0  0  0  0  0  0  0  0  0  0  0  0
   44.2110   35.5170   42.7950 C   0  0  0  0  0  0  0  0  0  0  0  0
   42.5660   35.1680   42.0660 S   0  0  0  0  0  0  0  0  0  0  0  0
   43.3840   34.3830   40.5360 C   0  0  0  0  0  0  0  0  0  0  0  0
   44.4930   34.4940   40.7800 N   0  0  0  0  0  0  0  0  0  0  0  0
   44.4730   35.9870   43.7310 H   0  0  0  0  0  0  0  0  0  0  0  0
   42.6570   33.8480   39.4600 O   0  0  0  0  0  0  0  0  0  0  0  0
   40.6680   34.1890   37.7410 O   0  0  0  0  0  0  0  0  0  0  0  0
   41.7190   34.9380   38.5510 P   0  0  0  0  0  0  0  0  0  0  0  0
   40.9560   36.0000   39.6200 O   0  0  0  0  0  0  0  0  0  0  0  0
   40.2430   35.5330   40.1270 H   0  0  0  0  0  0  0  0  0  0  0  0
   42.7330   35.8340   37.5270 O   0  0  0  0  0  0  0  0  0  0  0  0
   42.9960   36.7000   37.9480 H   0  0  0  0  0  0  0  0  0  0  0  0
  1  4  1  0  0  0  0
  1 21  1  0  0  0  0
  2  1  1  0  0  0  0
  3  1  1  0  0  0  0
  4  9  1  0  0  0  0
  5  4  2  0  0  0  0
  5  6  1  0  0  0  0
  6  7  2  0  0  0  0
  7  8  1  0  0  0  0
  8 11  1  0  0  0  0
  9  8  2  0  0  0  0
 10  6  1  0  0  0  0
 12  5  1  0  0  0  0
 12 13  1  0  0  0  0
 13 14  1  0  0  0  0
 14 15  1  0  0  0  0
 14 16  2  0  0  0  0
 16 17  1  0  0  0  0
 18 16  1  0  0  0  0
 19 18  2  0  0  0  0
 20 19  1  0  0  0  0
 20 13  2  0  0  0  0
 21 23  1  0  0  0  0
 21 22  1  0  0  0  0
 24 21  1  0  0  0  0
 24 25  2  0  0  0  0
 25 29  1  0  0  0  0
 26 25  1  0  0  0  0
 27 28  2  0  0  0  0
 27 26  1  0  0  0  0
 28 24  1  0  0  0  0
 30 27  1  0  0  0  0
 31 32  2  0  0  0  0
 32 30  1  0  0  0  0
 32 33  1  0  0  0  0
 33 34  1  0  0  0  0
 35 36  1  0  0  0  0
 35 32  1  0  0  0  0
M  END
>  <minimizedAffinity>
-4.39836884

>  <minimizedRMSD>
1.03905809

$$$$
