
 OpenBabel03242523313D

 21 22  0  0  0  0  0  0  0  0999 V2000
   37.1860   30.9870   39.1500 C   0  0  0  0  0  0  0  0  0  0  0  0
   36.4690   31.2800   38.3410 H   0  0  0  0  0  0  0  0  0  0  0  0
   37.6390   30.0290   38.8190 H   0  0  0  0  0  0  0  0  0  0  0  0
   40.2900   33.0150   39.0040 C   0  0  0  0  0  0  0  0  0  0  0  0
   39.9580   34.0260   39.9120 C   0  0  0  0  0  0  0  0  0  0  0  0
   38.7280   34.0220   40.5520 C   0  0  0  0  0  0  0  0  0  0  0  0
   37.8660   33.0050   40.2640 N   0  0  0  0  0  0  0  0  0  0  0  0
   38.2090   32.0260   39.3720 C   0  0  0  0  0  0  0  0  0  0  0  0
   39.4100   32.0390   38.7550 N   0  0  0  0  0  0  0  0  0  0  0  0
   41.2460   32.9810   38.4800 H   0  0  0  0  0  0  0  0  0  0  0  0
   40.6700   34.8140   40.1120 H   0  0  0  0  0  0  0  0  0  0  0  0
   38.4930   34.7980   41.2390 H   0  0  0  0  0  0  0  0  0  0  0  0
   36.2610   30.7730   40.6940 S   0  0  0  0  0  0  0  0  0  0  0  0
   36.9280   29.4720   41.6960 C   0  0  0  0  0  0  0  0  0  0  0  0
   36.3350   28.2530   41.7980 C   0  0  0  0  0  0  0  0  0  0  0  0
   35.4200   28.0850   41.2400 H   0  0  0  0  0  0  0  0  0  0  0  0
   36.9490   27.3050   42.6180 C   0  0  0  0  0  0  0  0  0  0  0  0
   36.4390   26.3490   42.6680 H   0  0  0  0  0  0  0  0  0  0  0  0
   38.1110   27.5790   43.3040 C   0  0  0  0  0  3  0  0  0  0  0  0
   38.6590   28.8200   43.1620 C   0  0  0  0  0  3  0  0  0  0  0  0
   38.0630   29.7260   42.3710 N   0  0  0  0  0  0  0  0  0  0  0  0
  1  8  1  0  0  0  0
  1 13  1  0  0  0  0
  2  1  1  0  0  0  0
  3  1  1  0  0  0  0
  4  5  1  0  0  0  0
  5 11  1  0  0  0  0
  5  6  2  0  0  0  0
  6 12  1  0  0  0  0
  7  6  1  0  0  0  0
  8  7  2  0  0  0  0
  9  4  2  0  0  0  0
  9  8  1  0  0  0  0
 10  4  1  0  0  0  0
 13 14  1  0  0  0  0
 14 15  2  0  0  0  0
 14 21  1  0  0  0  0
 15 17  1  0  0  0  0
 16 15  1  0  0  0  0
 17 18  1  0  0  0  0
 17 19  2  0  0  0  0
 20 19  1  0  0  0  0
 21 20  2  0  0  0  0
M  END
>  <minimizedAffinity>
-4.19235516

$$$$

 OpenBabel03242523313D

 21 22  0  0  0  0  0  0  0  0999 V2000
   38.9610   29.3290   42.9020 C   0  0  0  0  0  0  0  0  0  0  0  0
   39.7660   28.7280   42.4070 H   0  0  0  0  0  0  0  0  0  0  0  0
   39.4580   29.8680   43.7360 H   0  0  0  0  0  0  0  0  0  0  0  0
   38.3190   32.0790   40.4960 C   0  0  0  0  0  0  0  0  0  0  0  0
   36.9590   31.8660   40.2470 C   0  0  0  0  0  0  0  0  0  0  0  0
   36.2820   30.8290   40.8710 C   0  0  0  0  0  0  0  0  0  0  0  0
   36.9880   30.0350   41.7270 N   0  0  0  0  0  0  0  0  0  0  0  0
   38.3180   30.2600   41.9570 C   0  0  0  0  0  0  0  0  0  0  0  0
   38.9670   31.2730   41.3440 N   0  0  0  0  0  0  0  0  0  0  0  0
   38.8880   32.8830   40.0270 H   0  0  0  0  0  0  0  0  0  0  0  0
   36.4370   32.5180   39.5620 H   0  0  0  0  0  0  0  0  0  0  0  0
   35.2490   30.6820   40.6700 H   0  0  0  0  0  0  0  0  0  0  0  0
   37.6920   28.1940   43.5230 S   0  0  0  0  0  0  0  0  0  0  0  0
   37.8790   26.5600   42.8630 C   0  0  0  0  0  0  0  0  0  0  0  0
   36.8420   25.8720   42.3140 C   0  0  0  0  0  0  0  0  0  0  0  0
   35.8710   26.3550   42.2860 H   0  0  0  0  0  0  0  0  0  0  0  0
   37.1050   24.5910   41.8270 C   0  0  0  0  0  0  0  0  0  0  0  0
   36.2470   24.0830   41.3990 H   0  0  0  0  0  0  0  0  0  0  0  0
   38.3610   24.0300   41.8930 C   0  0  0  0  0  3  0  0  0  0  0  0
   39.3610   24.7690   42.4540 C   0  0  0  0  0  3  0  0  0  0  0  0
   39.1000   26.0000   42.9210 N   0  0  0  0  0  0  0  0  0  0  0  0
  1 13  1  0  0  0  0
  1  3  1  0  0  0  0
  2  1  1  0  0  0  0
  4  9  1  0  0  0  0
  5  4  2  0  0  0  0
  5  6  1  0  0  0  0
  6  7  2  0  0  0  0
  7  8  1  0  0  0  0
  8  1  1  0  0  0  0
  9  8  2  0  0  0  0
 10  4  1  0  0  0  0
 11  5  1  0  0  0  0
 12  6  1  0  0  0  0
 14 21  1  0  0  0  0
 14 13  1  0  0  0  0
 15 14  2  0  0  0  0
 16 15  1  0  0  0  0
 17 19  2  0  0  0  0
 17 15  1  0  0  0  0
 18 17  1  0  0  0  0
 19 20  1  0  0  0  0
 20 21  2  0  0  0  0
M  END
>  <minimizedAffinity>
-4.1633811

$$$$

 OpenBabel03242523313D

 21 22  0  0  0  0  0  0  0  0999 V2000
   38.9680   29.2770   42.7880 C   0  0  0  0  0  0  0  0  0  0  0  0
   39.7270   28.6840   42.2150 H   0  0  0  0  0  0  0  0  0  0  0  0
   39.5390   29.8200   43.5700 H   0  0  0  0  0  0  0  0  0  0  0  0
   36.3080   30.9510   40.8160 C   0  0  0  0  0  0  0  0  0  0  0  0
   37.0420   32.0140   40.2780 C   0  0  0  0  0  0  0  0  0  0  0  0
   38.3890   32.1590   40.5710 C   0  0  0  0  0  0  0  0  0  0  0  0
   38.9630   31.2350   41.3950 N   0  0  0  0  0  0  0  0  0  0  0  0
   38.2270   30.2030   41.9120 C   0  0  0  0  0  0  0  0  0  0  0  0
   36.9160   30.0710   41.6190 N   0  0  0  0  0  0  0  0  0  0  0  0
   35.2470   30.8000   40.6110 H   0  0  0  0  0  0  0  0  0  0  0  0
   36.5500   32.7230   39.6300 H   0  0  0  0  0  0  0  0  0  0  0  0
   38.9320   32.9720   40.1530 H   0  0  0  0  0  0  0  0  0  0  0  0
   37.7770   28.1290   43.5270 S   0  0  0  0  0  0  0  0  0  0  0  0
   37.9000   26.5030   42.8340 C   0  0  0  0  0  0  0  0  0  0  0  0
   36.8210   25.8300   42.3550 C   0  0  0  0  0  0  0  0  0  0  0  0
   35.8540   26.3200   42.4050 H   0  0  0  0  0  0  0  0  0  0  0  0
   37.0360   24.5530   41.8340 C   0  0  0  0  0  0  0  0  0  0  0  0
   36.1450   24.0570   41.4640 H   0  0  0  0  0  0  0  0  0  0  0  0
   38.2890   23.9820   41.7990 C   0  0  0  0  0  3  0  0  0  0  0  0
   39.3330   24.7060   42.2940 C   0  0  0  0  0  3  0  0  0  0  0  0
   39.1180   25.9340   42.7950 N   0  0  0  0  0  0  0  0  0  0  0  0
  1 13  1  0  0  0  0
  1  3  1  0  0  0  0
  2  1  1  0  0  0  0
  4  9  1  0  0  0  0
  5  6  1  0  0  0  0
  5  4  2  0  0  0  0
  6  7  2  0  0  0  0
  7  8  1  0  0  0  0
  8  1  1  0  0  0  0
  9  8  2  0  0  0  0
 10  4  1  0  0  0  0
 11  5  1  0  0  0  0
 12  6  1  0  0  0  0
 14 13  1  0  0  0  0
 15 16  1  0  0  0  0
 15 14  2  0  0  0  0
 17 15  1  0  0  0  0
 18 17  1  0  0  0  0
 19 17  2  0  0  0  0
 19 20  1  0  0  0  0
 20 21  2  0  0  0  0
 21 14  1  0  0  0  0
M  END
>  <minimizedAffinity>
-4.15549326

$$$$

 OpenBabel03242523313D

 21 22  0  0  0  0  0  0  0  0999 V2000
   40.0710   30.6530   40.8490 C   0  0  0  0  0  0  0  0  0  0  0  0
   39.9380   29.7490   40.2020 H   0  0  0  0  0  0  0  0  0  0  0  0
   41.1410   30.9360   40.7560 H   0  0  0  0  0  0  0  0  0  0  0  0
   38.5560   33.9970   40.3110 C   0  0  0  0  0  0  0  0  0  0  0  0
   37.4130   33.6280   39.5930 C   0  0  0  0  0  0  0  0  0  0  0  0
   37.1630   32.2960   39.3010 C   0  0  0  0  0  0  0  0  0  0  0  0
   38.0660   31.3700   39.7380 N   0  0  0  0  0  0  0  0  0  0  0  0
   39.1780   31.7510   40.4380 C   0  0  0  0  0  0  0  0  0  0  0  0
   39.4110   33.0520   40.7170 N   0  0  0  0  0  0  0  0  0  0  0  0
   38.7900   35.0320   40.5610 H   0  0  0  0  0  0  0  0  0  0  0  0
   36.7240   34.3930   39.2650 H   0  0  0  0  0  0  0  0  0  0  0  0
   36.2900   32.0340   38.7550 H   0  0  0  0  0  0  0  0  0  0  0  0
   39.6610   30.2050   42.5570 S   0  0  0  0  0  0  0  0  0  0  0  0
   38.5800   28.8030   42.6370 C   0  0  0  0  0  0  0  0  0  0  0  0
   37.5930   28.6960   43.5660 C   0  0  0  0  0  0  0  0  0  0  0  0
   37.4740   29.5070   44.2770 H   0  0  0  0  0  0  0  0  0  0  0  0
   36.8020   27.5460   43.5360 C   0  0  0  0  0  0  0  0  0  0  0  0
   36.0290   27.5070   44.2960 H   0  0  0  0  0  0  0  0  0  0  0  0
   37.0030   26.5480   42.6080 C   0  0  0  0  0  3  0  0  0  0  0  0
   38.0090   26.7130   41.7020 C   0  0  0  0  0  3  0  0  0  0  0  0
   38.7650   27.8220   41.7370 N   0  0  0  0  0  0  0  0  0  0  0  0
  1 13  1  0  0  0  0
  2  1  1  0  0  0  0
  3  1  1  0  0  0  0
  4 10  1  0  0  0  0
  4  9  1  0  0  0  0
  5  4  2  0  0  0  0
  6  5  1  0  0  0  0
  6  7  2  0  0  0  0
  7  8  1  0  0  0  0
  8  9  2  0  0  0  0
  8  1  1  0  0  0  0
 11  5  1  0  0  0  0
 12  6  1  0  0  0  0
 13 14  1  0  0  0  0
 14 15  1  0  0  0  0
 15 16  1  0  0  0  0
 17 15  2  0  0  0  0
 17 18  1  0  0  0  0
 19 17  1  0  0  0  0
 20 21  1  0  0  0  0
 20 19  2  0  0  0  0
 21 14  2  0  0  0  0
M  END
>  <minimizedAffinity>
-4.15002489

$$$$

 OpenBabel03242523313D

 21 22  0  0  0  0  0  0  0  0999 V2000
   40.1820   31.0450   40.8520 C   0  0  0  0  0  0  0  0  0  0  0  0
   40.2570   30.0900   40.2710 H   0  0  0  0  0  0  0  0  0  0  0  0
   41.1830   31.5210   40.7790 H   0  0  0  0  0  0  0  0  0  0  0  0
   37.1480   32.3310   39.1470 C   0  0  0  0  0  0  0  0  0  0  0  0
   37.2680   33.6930   39.4430 C   0  0  0  0  0  0  0  0  0  0  0  0
   38.3370   34.1610   40.1920 C   0  0  0  0  0  0  0  0  0  0  0  0
   39.2560   33.2500   40.6240 N   0  0  0  0  0  0  0  0  0  0  0  0
   39.1210   31.9210   40.3240 C   0  0  0  0  0  0  0  0  0  0  0  0
   38.0760   31.4770   39.5940 N   0  0  0  0  0  0  0  0  0  0  0  0
   36.3240   31.9230   38.5610 H   0  0  0  0  0  0  0  0  0  0  0  0
   36.5180   34.3820   39.0820 H   0  0  0  0  0  0  0  0  0  0  0  0
   38.4120   35.1990   40.4060 H   0  0  0  0  0  0  0  0  0  0  0  0
   39.7750   30.6440   42.5720 S   0  0  0  0  0  0  0  0  0  0  0  0
   38.7930   29.1740   42.6990 C   0  0  0  0  0  0  0  0  0  0  0  0
   39.2870   28.0060   43.1890 C   0  0  0  0  0  0  0  0  0  0  0  0
   40.3240   27.9890   43.5110 H   0  0  0  0  0  0  0  0  0  0  0  0
   38.4230   26.9110   43.2410 C   0  0  0  0  0  0  0  0  0  0  0  0
   38.8640   26.0040   43.6390 H   0  0  0  0  0  0  0  0  0  0  0  0
   37.1160   26.9950   42.8150 C   0  0  0  0  0  3  0  0  0  0  0  0
   36.6770   28.1930   42.3330 C   0  0  0  0  0  3  0  0  0  0  0  0
   37.5150   29.2410   42.2860 N   0  0  0  0  0  0  0  0  0  0  0  0
  1 13  1  0  0  0  0
  2  1  1  0  0  0  0
  3  1  1  0  0  0  0
  4  5  2  0  0  0  0
  4  9  1  0  0  0  0
  5  6  1  0  0  0  0
  6 12  1  0  0  0  0
  6  7  2  0  0  0  0
  8  7  1  0  0  0  0
  8  1  1  0  0  0  0
  9  8  2  0  0  0  0
 10  4  1  0  0  0  0
 11  5  1  0  0  0  0
 13 14  1  0  0  0  0
 14 15  1  0  0  0  0
 15 17  2  0  0  0  0
 15 16  1  0  0  0  0
 17 18  1  0  0  0  0
 19 17  1  0  0  0  0
 20 19  2  0  0  0  0
 21 20  1  0  0  0  0
 21 14  2  0  0  0  0
M  END
>  <minimizedAffinity>
-4.09450769

$$$$

 OpenBabel03242523313D

 21 22  0  0  0  0  0  0  0  0999 V2000
   35.9160   29.5200   40.4020 C   0  0  0  0  0  0  0  0  0  0  0  0
   35.2230   28.8210   39.8680 H   0  0  0  0  0  0  0  0  0  0  0  0
   35.2770   30.3430   40.7870 H   0  0  0  0  0  0  0  0  0  0  0  0
   37.9140   28.8040   43.4460 C   0  0  0  0  0  0  0  0  0  0  0  0
   37.9250   27.4060   43.4010 C   0  0  0  0  0  0  0  0  0  0  0  0
   37.2810   26.7290   42.3770 C   0  0  0  0  0  0  0  0  0  0  0  0
   36.6430   27.4720   41.4270 N   0  0  0  0  0  0  0  0  0  0  0  0
   36.6430   28.8390   41.4890 C   0  0  0  0  0  0  0  0  0  0  0  0
   37.2740   29.4880   42.4910 N   0  0  0  0  0  0  0  0  0  0  0  0
   38.4080   29.3750   44.2330 H   0  0  0  0  0  0  0  0  0  0  0  0
   38.4420   26.8550   44.1720 H   0  0  0  0  0  0  0  0  0  0  0  0
   37.3000   25.6660   42.3580 H   0  0  0  0  0  0  0  0  0  0  0  0
   37.1360   30.1430   39.2160 S   0  0  0  0  0  0  0  0  0  0  0  0
   37.7670   31.7330   39.6820 C   0  0  0  0  0  0  0  0  0  0  0  0
   37.1520   32.8930   39.3320 C   0  0  0  0  0  0  0  0  0  0  0  0
   36.2410   32.8280   38.7450 H   0  0  0  0  0  0  0  0  0  0  0  0
   37.7390   34.0870   39.7530 C   0  0  0  0  0  0  0  0  0  0  0  0
   37.2120   34.9850   39.4490 H   0  0  0  0  0  0  0  0  0  0  0  0
   38.8990   34.1060   40.4950 C   0  0  0  0  0  3  0  0  0  0  0  0
   39.4710   32.9090   40.8150 C   0  0  0  0  0  3  0  0  0  0  0  0
   38.9000   31.7650   40.4060 N   0  0  0  0  0  0  0  0  0  0  0  0
  1  3  1  0  0  0  0
  1  8  1  0  0  0  0
  2  1  1  0  0  0  0
  4 10  1  0  0  0  0
  5  4  1  0  0  0  0
  5 11  1  0  0  0  0
  6  5  2  0  0  0  0
  7  8  2  0  0  0  0
  7  6  1  0  0  0  0
  8  9  1  0  0  0  0
  9  4  2  0  0  0  0
 12  6  1  0  0  0  0
 13 14  1  0  0  0  0
 13  1  1  0  0  0  0
 14 21  1  0  0  0  0
 15 14  2  0  0  0  0
 15 17  1  0  0  0  0
 16 15  1  0  0  0  0
 17 19  2  0  0  0  0
 18 17  1  0  0  0  0
 19 20  1  0  0  0  0
 21 20  2  0  0  0  0
M  END
>  <minimizedAffinity>
-4.04771805

$$$$

 OpenBabel03242523313D

 21 22  0  0  0  0  0  0  0  0999 V2000
   36.3120   27.5110   40.1210 C   0  0  0  0  0  0  0  0  0  0  0  0
   36.9100   27.5020   39.1730 H   0  0  0  0  0  0  0  0  0  0  0  0
   35.6380   26.6310   40.0600 H   0  0  0  0  0  0  0  0  0  0  0  0
   39.2120   27.0750   42.3940 C   0  0  0  0  0  0  0  0  0  0  0  0
   38.6110   27.4040   43.6140 C   0  0  0  0  0  0  0  0  0  0  0  0
   37.2720   27.7610   43.6660 C   0  0  0  0  0  0  0  0  0  0  0  0
   36.5730   27.7770   42.4940 N   0  0  0  0  0  0  0  0  0  0  0  0
   37.1800   27.4520   41.3110 C   0  0  0  0  0  0  0  0  0  0  0  0
   38.4840   27.1060   41.2730 N   0  0  0  0  0  0  0  0  0  0  0  0
   40.2610   26.7890   42.3090 H   0  0  0  0  0  0  0  0  0  0  0  0
   39.2000   27.3790   44.5190 H   0  0  0  0  0  0  0  0  0  0  0  0
   36.8320   28.0080   44.6010 H   0  0  0  0  0  0  0  0  0  0  0  0
   35.3650   29.0540   40.1920 S   0  0  0  0  0  0  0  0  0  0  0  0
   36.3380   30.4560   39.7120 C   0  0  0  0  0  0  0  0  0  0  0  0
   36.7100   30.6780   38.4230 C   0  0  0  0  0  0  0  0  0  0  0  0
   36.3920   29.9620   37.6720 H   0  0  0  0  0  0  0  0  0  0  0  0
   37.4780   31.8140   38.1610 C   0  0  0  0  0  0  0  0  0  0  0  0
   37.7490   31.9480   37.1190 H   0  0  0  0  0  0  0  0  0  0  0  0
   37.8530   32.6860   39.1590 C   0  0  0  0  0  3  0  0  0  0  0  0
   37.4490   32.4100   40.4320 C   0  0  0  0  0  3  0  0  0  0  0  0
   36.7110   31.3150   40.6760 N   0  0  0  0  0  0  0  0  0  0  0  0
  1 13  1  0  0  0  0
  1  8  1  0  0  0  0
  2  1  1  0  0  0  0
  3  1  1  0  0  0  0
  4  5  1  0  0  0  0
  5  6  2  0  0  0  0
  5 11  1  0  0  0  0
  6 12  1  0  0  0  0
  7  6  1  0  0  0  0
  8  7  2  0  0  0  0
  9  8  1  0  0  0  0
  9  4  2  0  0  0  0
 10  4  1  0  0  0  0
 14 13  1  0  0  0  0
 14 21  1  0  0  0  0
 15 14  2  0  0  0  0
 16 15  1  0  0  0  0
 17 15  1  0  0  0  0
 17 19  2  0  0  0  0
 18 17  1  0  0  0  0
 19 20  1  0  0  0  0
 20 21  2  0  0  0  0
M  END
>  <minimizedAffinity>
-4.0260644

$$$$

 OpenBabel03242523313D

 21 22  0  0  0  0  0  0  0  0999 V2000
   37.0530   31.0120   39.2890 C   0  0  0  0  0  0  0  0  0  0  0  0
   36.2910   31.3750   38.5530 H   0  0  0  0  0  0  0  0  0  0  0  0
   37.5160   30.1150   38.8250 H   0  0  0  0  0  0  0  0  0  0  0  0
   38.7140   34.1610   40.3350 C   0  0  0  0  0  0  0  0  0  0  0  0
   40.0470   33.8260   40.0740 C   0  0  0  0  0  0  0  0  0  0  0  0
   40.3740   32.5800   39.5610 C   0  0  0  0  0  0  0  0  0  0  0  0
   39.3540   31.7040   39.3250 N   0  0  0  0  0  0  0  0  0  0  0  0
   38.0560   32.0510   39.5880 C   0  0  0  0  0  0  0  0  0  0  0  0
   37.7510   33.2670   40.0870 N   0  0  0  0  0  0  0  0  0  0  0  0
   38.4150   35.1290   40.7380 H   0  0  0  0  0  0  0  0  0  0  0  0
   40.8250   34.5480   40.2750 H   0  0  0  0  0  0  0  0  0  0  0  0
   41.3910   32.3430   39.3680 H   0  0  0  0  0  0  0  0  0  0  0  0
   36.2090   30.5860   40.8340 S   0  0  0  0  0  0  0  0  0  0  0  0
   37.1230   29.4050   41.7890 C   0  0  0  0  0  0  0  0  0  0  0  0
   38.4010   29.6270   42.1940 C   0  0  0  0  0  0  0  0  0  0  0  0
   38.8660   30.5670   41.9140 H   0  0  0  0  0  0  0  0  0  0  0  0
   39.0240   28.6260   42.9400 C   0  0  0  0  0  0  0  0  0  0  0  0
   40.0430   28.8490   43.2390 H   0  0  0  0  0  0  0  0  0  0  0  0
   38.3810   27.4510   43.2620 C   0  0  0  0  0  3  0  0  0  0  0  0
   37.0990   27.2860   42.8280 C   0  0  0  0  0  3  0  0  0  0  0  0
   36.5070   28.2540   42.1100 N   0  0  0  0  0  0  0  0  0  0  0  0
  1  8  1  0  0  0  0
  1 13  1  0  0  0  0
  2  1  1  0  0  0  0
  3  1  1  0  0  0  0
  4 10  1  0  0  0  0
  5 11  1  0  0  0  0
  5  4  2  0  0  0  0
  6  5  1  0  0  0  0
  7  6  2  0  0  0  0
  7  8  1  0  0  0  0
  8  9  2  0  0  0  0
  9  4  1  0  0  0  0
 12  6  1  0  0  0  0
 13 14  1  0  0  0  0
 14 21  2  0  0  0  0
 14 15  1  0  0  0  0
 15 17  2  0  0  0  0
 16 15  1  0  0  0  0
 17 18  1  0  0  0  0
 17 19  1  0  0  0  0
 20 19  2  0  0  0  0
 21 20  1  0  0  0  0
M  END
>  <minimizedAffinity>
-4.00280905

$$$$

 OpenBabel03242523313D

 21 22  0  0  0  0  0  0  0  0999 V2000
   35.3190   28.4060   38.4820 C   0  0  0  0  0  0  0  0  0  0  0  0
   34.4750   27.9570   39.0660 H   0  0  0  0  0  0  0  0  0  0  0  0
   34.8950   28.6580   37.4870 H   0  0  0  0  0  0  0  0  0  0  0  0
   36.2890   30.9300   41.0230 C   0  0  0  0  0  0  0  0  0  0  0  0
   36.9690   31.8410   40.2080 C   0  0  0  0  0  0  0  0  0  0  0  0
   37.0940   31.6110   38.8460 C   0  0  0  0  0  0  0  0  0  0  0  0
   36.5350   30.4730   38.3400 N   0  0  0  0  0  0  0  0  0  0  0  0
   35.8750   29.5950   39.1550 C   0  0  0  0  0  0  0  0  0  0  0  0
   35.7580   29.8290   40.4790 N   0  0  0  0  0  0  0  0  0  0  0  0
   36.1670   31.0730   42.0980 H   0  0  0  0  0  0  0  0  0  0  0  0
   37.3970   32.7300   40.6480 H   0  0  0  0  0  0  0  0  0  0  0  0
   37.6140   32.3140   38.2420 H   0  0  0  0  0  0  0  0  0  0  0  0
   36.6400   27.1750   38.3350 S   0  0  0  0  0  0  0  0  0  0  0  0
   36.7410   26.1320   39.7650 C   0  0  0  0  0  0  0  0  0  0  0  0
   36.3700   24.8250   39.7420 C   0  0  0  0  0  0  0  0  0  0  0  0
   36.0000   24.4190   38.8060 H   0  0  0  0  0  0  0  0  0  0  0  0
   36.4910   24.0990   40.9280 C   0  0  0  0  0  0  0  0  0  0  0  0
   36.1820   23.0620   40.8590 H   0  0  0  0  0  0  0  0  0  0  0  0
   36.9660   24.6720   42.0870 C   0  0  0  0  0  3  0  0  0  0  0  0
   37.3230   25.9880   42.0480 C   0  0  0  0  0  3  0  0  0  0  0  0
   37.2040   26.6790   40.9030 N   0  0  0  0  0  0  0  0  0  0  0  0
  1  2  1  0  0  0  0
  1  8  1  0  0  0  0
  3  1  1  0  0  0  0
  4 10  1  0  0  0  0
  5 11  1  0  0  0  0
  5  4  2  0  0  0  0
  6  5  1  0  0  0  0
  7  6  2  0  0  0  0
  7  8  1  0  0  0  0
  8  9  2  0  0  0  0
  9  4  1  0  0  0  0
 12  6  1  0  0  0  0
 13  1  1  0  0  0  0
 13 14  1  0  0  0  0
 14 21  1  0  0  0  0
 15 14  2  0  0  0  0
 15 17  1  0  0  0  0
 16 15  1  0  0  0  0
 17 19  2  0  0  0  0
 18 17  1  0  0  0  0
 20 19  1  0  0  0  0
 21 20  2  0  0  0  0
M  END
>  <minimizedAffinity>
-3.80328441

$$$$
