
 OpenBabel03252507443D

 36 38  0  0  0  0  0  0  0  0999 V2000
   47.3930   34.5640   40.8760 C   0  0  0  0  0  0  0  0  0  0  0  0
   47.6930   35.4330   40.2270 H   0  0  0  0  0  0  0  0  0  0  0  0
   46.7380   33.9060   40.2990 H   0  0  0  0  0  0  0  0  0  0  0  0
   48.6170   33.9000   41.3340 C   0  0  0  0  0  0  0  0  0  0  0  0
   48.7670   32.5750   40.9610 C   0  0  0  0  0  0  0  0  0  0  0  0
   49.8740   31.8130   41.3180 C   0  0  0  0  0  0  0  0  0  0  0  0
   50.8250   32.4660   42.0770 N   0  0  0  0  0  0  0  0  0  0  0  0
   50.6510   33.7570   42.4250 C   0  0  0  0  0  0  0  0  0  0  0  0
   49.5750   34.4400   42.0560 N   0  0  0  0  0  0  0  0  0  0  0  0
   49.9970   30.7890   41.0360 H   0  0  0  0  0  0  0  0  0  0  0  0
   51.4040   34.2830   43.0270 H   0  0  0  0  0  0  0  0  0  0  0  0
   47.5020   31.7570   39.9450 S   0  0  0  0  0  0  0  0  0  0  0  0
   46.0630   31.3790   40.9030 C   0  0  0  0  0  0  0  0  0  0  0  0
   44.8170   30.9690   40.4360 C   0  0  0  0  0  0  0  0  0  0  0  0
   44.7650   30.8840   39.3770 H   0  0  0  0  0  0  0  0  0  0  0  0
   43.8120   30.7200   41.3420 C   0  0  0  0  0  0  0  0  0  0  0  0
   42.8710   30.4070   40.9410 H   0  0  0  0  0  0  0  0  0  0  0  0
   43.9820   30.8610   42.7060 C   0  0  0  0  0  3  0  0  0  0  0  0
   45.2360   31.2700   43.1140 C   0  0  0  0  0  3  0  0  0  0  0  0
   46.2530   31.5230   42.2400 N   0  0  0  0  0  0  0  0  0  0  0  0
   46.5820   35.1120   42.0100 C   0  0  0  0  0  0  0  0  0  0  0  0
   46.8350   34.6700   42.9960 H   0  0  0  0  0  0  0  0  0  0  0  0
   46.8320   36.2000   42.1140 H   0  0  0  0  0  0  0  0  0  0  0  0
   45.1120   35.0090   41.7880 C   0  0  0  0  0  0  0  0  0  0  0  0
   44.2110   35.5100   42.7840 C   0  0  0  0  0  0  0  0  0  0  0  0
   42.5630   35.1570   42.0610 S   0  0  0  0  0  0  0  0  0  0  0  0
   43.3770   34.3860   40.5230 C   0  0  0  0  0  0  0  0  0  0  0  0
   44.4870   34.5000   40.7610 N   0  0  0  0  0  0  0  0  0  0  0  0
   44.4750   35.9750   43.7210 H   0  0  0  0  0  0  0  0  0  0  0  0
   42.6470   33.8540   39.4470 O   0  0  0  0  0  0  0  0  0  0  0  0
   40.6550   34.2010   37.7330 O   0  0  0  0  0  0  0  0  0  0  0  0
   41.7080   34.9470   38.5430 P   0  0  0  0  0  0  0  0  0  0  0  0
   40.9480   36.0070   39.6150 O   0  0  0  0  0  0  0  0  0  0  0  0
   40.2360   35.5400   40.1230 H   0  0  0  0  0  0  0  0  0  0  0  0
   42.7200   35.8450   37.5190 O   0  0  0  0  0  0  0  0  0  0  0  0
   42.9850   36.7100   37.9420 H   0  0  0  0  0  0  0  0  0  0  0  0
  1  4  1  0  0  0  0
  1 21  1  0  0  0  0
  2  1  1  0  0  0  0
  3  1  1  0  0  0  0
  4  9  1  0  0  0  0
  5  6  1  0  0  0  0
  5  4  2  0  0  0  0
  6  7  2  0  0  0  0
  7  8  1  0  0  0  0
  8 11  1  0  0  0  0
  9  8  2  0  0  0  0
 10  6  1  0  0  0  0
 12 13  1  0  0  0  0
 12  5  1  0  0  0  0
 13 20  1  0  0  0  0
 14 13  2  0  0  0  0
 14 16  1  0  0  0  0
 15 14  1  0  0  0  0
 16 18  2  0  0  0  0
 17 16  1  0  0  0  0
 18 19  1  0  0  0  0
 20 19  2  0  0  0  0
 21 23  1  0  0  0  0
 21 22  1  0  0  0  0
 24 21  1  0  0  0  0
 24 25  2  0  0  0  0
 25 29  1  0  0  0  0
 26 25  1  0  0  0  0
 27 28  2  0  0  0  0
 27 26  1  0  0  0  0
 28 24  1  0  0  0  0
 30 27  1  0  0  0  0
 31 32  2  0  0  0  0
 32 30  1  0  0  0  0
 32 33  1  0  0  0  0
 33 34  1  0  0  0  0
 35 36  1  0  0  0  0
 35 32  1  0  0  0  0
M  END
>  <minimizedAffinity>
-4.41215563

>  <minimizedRMSD>
1.11742127

$$$$
