
 OpenBabel03252507453D

 36 38  0  0  0  0  0  0  0  0999 V2000
   47.5130   34.5780   40.8720 C   0  0  0  0  0  0  0  0  0  0  0  0
   47.8440   35.4630   40.2620 H   0  0  0  0  0  0  0  0  0  0  0  0
   46.8400   33.9650   40.2650 H   0  0  0  0  0  0  0  0  0  0  0  0
   48.7130   33.8560   41.3070 C   0  0  0  0  0  0  0  0  0  0  0  0
   48.8090   32.5360   40.9050 C   0  0  0  0  0  0  0  0  0  0  0  0
   49.8870   31.7230   41.2380 C   0  0  0  0  0  0  0  0  0  0  0  0
   50.8670   32.3220   42.0060 N   0  0  0  0  0  0  0  0  0  0  0  0
   50.7450   33.6110   42.3830 C   0  0  0  0  0  0  0  0  0  0  0  0
   49.6950   34.3420   42.0360 N   0  0  0  0  0  0  0  0  0  0  0  0
   49.9700   30.7020   40.9320 H   0  0  0  0  0  0  0  0  0  0  0  0
   51.5200   34.0940   42.9930 H   0  0  0  0  0  0  0  0  0  0  0  0
   47.5090   31.7890   39.8780 S   0  0  0  0  0  0  0  0  0  0  0  0
   46.1010   31.3470   40.8560 C   0  0  0  0  0  0  0  0  0  0  0  0
   44.8710   30.8760   40.4060 C   0  0  0  0  0  0  0  0  0  0  0  0
   44.8090   30.7870   39.3470 H   0  0  0  0  0  0  0  0  0  0  0  0
   43.8910   30.5820   41.3260 C   0  0  0  0  0  0  0  0  0  0  0  0
   42.9600   30.2230   40.9370 H   0  0  0  0  0  0  0  0  0  0  0  0
   44.0720   30.7330   42.6870 C   0  0  0  0  0  3  0  0  0  0  0  0
   45.3100   31.2020   43.0770 C   0  0  0  0  0  3  0  0  0  0  0  0
   46.3010   31.5020   42.1900 N   0  0  0  0  0  0  0  0  0  0  0  0
   46.7120   35.1030   42.0240 C   0  0  0  0  0  0  0  0  0  0  0  0
   46.9730   34.6400   42.9990 H   0  0  0  0  0  0  0  0  0  0  0  0
   46.9640   36.1880   42.1480 H   0  0  0  0  0  0  0  0  0  0  0  0
   45.2400   35.0060   41.8120 C   0  0  0  0  0  0  0  0  0  0  0  0
   44.3490   35.5840   42.7760 C   0  0  0  0  0  0  0  0  0  0  0  0
   42.6950   35.2080   42.0810 S   0  0  0  0  0  0  0  0  0  0  0  0
   43.4930   34.3280   40.5940 C   0  0  0  0  0  0  0  0  0  0  0  0
   44.6050   34.4410   40.8220 N   0  0  0  0  0  0  0  0  0  0  0  0
   44.6230   36.1050   43.6810 H   0  0  0  0  0  0  0  0  0  0  0  0
   42.7510   33.7370   39.5570 O   0  0  0  0  0  0  0  0  0  0  0  0
   40.7750   33.9860   37.8090 O   0  0  0  0  0  0  0  0  0  0  0  0
   41.8060   34.7800   38.6010 P   0  0  0  0  0  0  0  0  0  0  0  0
   41.0170   35.8670   39.6240 O   0  0  0  0  0  0  0  0  0  0  0  0
   40.3060   35.4070   40.1410 H   0  0  0  0  0  0  0  0  0  0  0  0
   42.8160   35.6550   37.5550 O   0  0  0  0  0  0  0  0  0  0  0  0
   43.0620   36.5390   37.9480 H   0  0  0  0  0  0  0  0  0  0  0  0
  1  4  1  0  0  0  0
  1 21  1  0  0  0  0
  2  1  1  0  0  0  0
  3  1  1  0  0  0  0
  4  9  1  0  0  0  0
  5  6  1  0  0  0  0
  5  4  2  0  0  0  0
  6  7  2  0  0  0  0
  7  8  1  0  0  0  0
  8 11  1  0  0  0  0
  9  8  2  0  0  0  0
 10  6  1  0  0  0  0
 12 13  1  0  0  0  0
 12  5  1  0  0  0  0
 13 20  1  0  0  0  0
 14 13  2  0  0  0  0
 14 16  1  0  0  0  0
 15 14  1  0  0  0  0
 16 18  2  0  0  0  0
 17 16  1  0  0  0  0
 18 19  1  0  0  0  0
 20 19  2  0  0  0  0
 21 23  1  0  0  0  0
 21 22  1  0  0  0  0
 24 21  1  0  0  0  0
 24 25  2  0  0  0  0
 25 29  1  0  0  0  0
 26 25  1  0  0  0  0
 27 28  2  0  0  0  0
 27 26  1  0  0  0  0
 28 24  1  0  0  0  0
 30 27  1  0  0  0  0
 31 32  2  0  0  0  0
 32 30  1  0  0  0  0
 32 33  1  0  0  0  0
 33 34  1  0  0  0  0
 35 36  1  0  0  0  0
 35 32  1  0  0  0  0
M  END
>  <minimizedAffinity>
-4.38413

>  <minimizedRMSD>
0.964978039

$$$$
