
 OpenBabel03252507453D

 36 38  0  0  0  0  0  0  0  0999 V2000
   47.2040   34.4590   40.8910 C   0  0  0  0  0  0  0  0  0  0  0  0
   47.3590   35.2950   40.1550 H   0  0  0  0  0  0  0  0  0  0  0  0
   46.6130   33.6740   40.4110 H   0  0  0  0  0  0  0  0  0  0  0  0
   48.5230   33.9960   41.3330 C   0  0  0  0  0  0  0  0  0  0  0  0
   48.9340   32.7690   40.8420 C   0  0  0  0  0  0  0  0  0  0  0  0
   50.1590   32.1980   41.1700 C   0  0  0  0  0  0  0  0  0  0  0  0
   50.9490   32.9400   42.0260 N   0  0  0  0  0  0  0  0  0  0  0  0
   50.5220   34.1330   42.4870 C   0  0  0  0  0  0  0  0  0  0  0  0
   49.3430   34.6320   42.1420 N   0  0  0  0  0  0  0  0  0  0  0  0
   50.4840   31.2510   40.7960 H   0  0  0  0  0  0  0  0  0  0  0  0
   51.1450   34.7280   43.1680 H   0  0  0  0  0  0  0  0  0  0  0  0
   47.8740   31.8320   39.7020 S   0  0  0  0  0  0  0  0  0  0  0  0
   46.7830   30.7550   40.5870 C   0  0  0  0  0  0  0  0  0  0  0  0
   47.0730   29.4930   41.1010 C   0  0  0  0  0  0  0  0  0  0  0  0
   48.0720   29.1770   40.9190 H   0  0  0  0  0  0  0  0  0  0  0  0
   46.0860   28.8010   41.7650 C   0  0  0  0  0  0  0  0  0  0  0  0
   46.3490   27.8350   42.1440 H   0  0  0  0  0  0  0  0  0  0  0  0
   44.8110   29.3020   41.9480 C   0  0  0  0  0  3  0  0  0  0  0  0
   44.5820   30.5560   41.4190 C   0  0  0  0  0  3  0  0  0  0  0  0
   45.5380   31.2670   40.7550 N   0  0  0  0  0  0  0  0  0  0  0  0
   46.3820   35.0030   42.0190 C   0  0  0  0  0  0  0  0  0  0  0  0
   46.5980   34.5300   42.9990 H   0  0  0  0  0  0  0  0  0  0  0  0
   46.6610   36.0800   42.1560 H   0  0  0  0  0  0  0  0  0  0  0  0
   44.9160   34.9500   41.7590 C   0  0  0  0  0  0  0  0  0  0  0  0
   44.0060   35.4640   42.7410 C   0  0  0  0  0  0  0  0  0  0  0  0
   42.3670   35.1750   41.9720 S   0  0  0  0  0  0  0  0  0  0  0  0
   43.1940   34.4020   40.4420 C   0  0  0  0  0  0  0  0  0  0  0  0
   44.3000   34.4780   40.7090 N   0  0  0  0  0  0  0  0  0  0  0  0
   44.2610   35.9060   43.6920 H   0  0  0  0  0  0  0  0  0  0  0  0
   42.4740   33.9100   39.3400 O   0  0  0  0  0  0  0  0  0  0  0  0
   40.4860   34.3290   37.6380 O   0  0  0  0  0  0  0  0  0  0  0  0
   41.5560   35.0390   38.4590 P   0  0  0  0  0  0  0  0  0  0  0  0
   40.8210   36.0950   39.5520 O   0  0  0  0  0  0  0  0  0  0  0  0
   40.1010   35.6330   40.0530 H   0  0  0  0  0  0  0  0  0  0  0  0
   42.5850   35.9340   37.4480 O   0  0  0  0  0  0  0  0  0  0  0  0
   42.8680   36.7860   37.8860 H   0  0  0  0  0  0  0  0  0  0  0  0
  1  4  1  0  0  0  0
  1 21  1  0  0  0  0
  2  1  1  0  0  0  0
  3  1  1  0  0  0  0
  4  9  1  0  0  0  0
  5  6  1  0  0  0  0
  5  4  2  0  0  0  0
  6  7  2  0  0  0  0
  7  8  1  0  0  0  0
  8 11  1  0  0  0  0
  9  8  2  0  0  0  0
 10  6  1  0  0  0  0
 12 13  1  0  0  0  0
 12  5  1  0  0  0  0
 13 20  2  0  0  0  0
 13 14  1  0  0  0  0
 14 16  2  0  0  0  0
 15 14  1  0  0  0  0
 16 18  1  0  0  0  0
 16 17  1  0  0  0  0
 19 18  2  0  0  0  0
 20 19  1  0  0  0  0
 21 23  1  0  0  0  0
 21 22  1  0  0  0  0
 24 21  1  0  0  0  0
 24 25  2  0  0  0  0
 25 29  1  0  0  0  0
 26 25  1  0  0  0  0
 27 28  2  0  0  0  0
 27 26  1  0  0  0  0
 28 24  1  0  0  0  0
 30 27  1  0  0  0  0
 31 32  2  0  0  0  0
 32 30  1  0  0  0  0
 32 33  1  0  0  0  0
 33 34  1  0  0  0  0
 35 36  1  0  0  0  0
 35 32  1  0  0  0  0
M  END
>  <minimizedAffinity>
-4.33880854

>  <minimizedRMSD>
0.170455039

$$$$
