
 OpenBabel03242519373D

 26 27  0  0  0  0  0  0  0  0999 V2000
   48.0490   32.8530   41.7230 O   0  0  0  0  0  0  0  0  0  0  0  0
   47.1730   34.0190   41.2570 P   0  0  2  0  0  0  0  0  0  0  0  0
   45.5890   33.8020   41.9040 O   0  0  0  0  0  0  0  0  0  0  0  0
   44.3950   35.9100   44.6580 C   0  0  0  0  0  0  0  0  0  0  0  0
   44.6740   35.4670   43.3440 C   0  0  0  0  0  0  0  0  0  0  0  0
   45.3170   34.2310   43.1980 C   0  0  0  0  0  0  0  0  0  0  0  0
   45.6430   33.5190   44.3000 N   0  0  0  0  0  0  0  0  0  0  0  0
   45.3590   33.9760   45.5440 C   0  0  0  0  0  0  0  0  0  0  0  0
   44.7450   35.1520   45.7300 N   0  0  0  0  0  0  0  0  0  0  0  0
   43.9040   36.8540   44.7380 H   0  0  0  0  0  0  0  0  0  0  0  0
   44.4140   36.0360   42.4750 H   0  0  0  0  0  0  0  0  0  0  0  0
   45.6160   33.4110   46.4370 H   0  0  0  0  0  0  0  0  0  0  0  0
   47.0820   34.1410   39.6050 O   0  0  0  0  0  0  0  0  0  0  0  0
   46.5790   33.0860   38.8560 C   0  0  0  0  0  0  0  0  0  0  0  0
   46.0520   31.8940   39.3110 C   0  0  0  0  0  0  0  0  0  0  0  0
   46.0390   31.7890   40.3810 H   0  0  0  0  0  0  0  0  0  0  0  0
   45.5950   30.9480   38.4180 C   0  0  0  0  0  0  0  0  0  0  0  0
   45.1880   30.0250   38.7960 H   0  0  0  0  0  0  0  0  0  0  0  0
   45.6860   31.2430   37.0570 C   0  0  0  0  0  0  0  0  0  0  0  0
   46.2200   32.4530   36.6060 C   0  0  0  0  0  0  0  0  0  0  0  0
   46.6520   33.3400   37.5220 N   0  0  0  0  0  0  0  0  0  0  0  0
   47.8030   35.4330   41.9440 O   0  0  0  0  0  0  0  0  0  0  0  0
   49.0390   35.7680   41.4300 C   0  0  0  0  0  0  0  0  0  0  0  0
   49.4560   37.0380   41.7720 F   0  0  0  0  0  0  0  0  0  0  0  0
   49.9680   34.7960   41.7520 F   0  0  0  0  0  0  0  0  0  0  0  0
   48.9080   35.7500   40.0420 F   0  0  0  0  0  0  0  0  0  0  0  0
  2  1  2  1  0  0  0
  2  3  1  0  0  0  0
  2 22  1  0  0  0  0
  3  6  1  0  0  0  0
  4 10  1  0  0  0  0
  4  9  1  0  0  0  0
  5  4  2  0  0  0  0
  6  5  1  0  0  0  0
  6  7  2  0  0  0  0
  7  8  1  0  0  0  0
  8  9  2  0  0  0  0
  8 12  1  0  0  0  0
 11  5  1  0  0  0  0
 13  2  1  0  0  0  0
 14 15  1  0  0  0  0
 14 13  1  0  0  0  0
 15 16  1  0  0  0  0
 17 18  1  0  0  0  0
 17 15  2  0  0  0  0
 19 17  1  0  0  0  0
 20 19  2  0  0  0  0
 20 21  1  0  0  0  0
 21 14  2  0  0  0  0
 23 25  1  0  0  0  0
 23 24  1  0  0  0  0
 23 22  1  0  0  0  0
 26 23  1  0  0  0  0
M  END
>  <minimizedAffinity>
-5.06039476

>  <minimizedRMSD>
0.404297411

$$$$
