
 OpenBabel03252508583D

 44 46  0  0  1  0  0  0  0  0999 V2000
   46.6780   34.5350   43.5570 N   0  0  0  0  0  0  0  0  0  0  0  0
   46.1840   35.5610   42.7170 C   0  0  0  0  0  0  0  0  0  0  0  0
   44.6780   35.7390   42.7240 C   0  0  0  0  0  0  0  0  0  0  0  0
   44.0380   35.4480   44.0540 C   0  0  0  0  0  0  0  0  0  0  0  0
   45.0510   35.1000   45.1130 C   0  0  0  0  0  0  0  0  0  0  0  0
   45.8490   33.9110   44.4740 C   0  0  2  0  0  0  0  0  0  0  0  0
   46.5990   36.5300   43.1070 H   0  0  0  0  0  0  0  0  0  0  0  0
   46.4820   35.5220   41.6690 H   0  0  0  0  0  0  0  0  0  0  0  0
   44.2820   35.0140   41.9710 H   0  0  0  0  0  0  0  0  0  0  0  0
   44.4870   36.7620   42.3450 H   0  0  0  0  0  0  0  0  0  0  0  0
   43.2870   34.6550   44.0060 H   0  0  0  0  0  0  0  0  0  0  0  0
   43.5810   36.4180   44.3880 H   0  0  0  0  0  0  0  0  0  0  0  0
   44.5020   34.6530   45.9780 H   0  0  0  0  0  0  0  0  0  0  0  0
   45.7350   35.9110   45.3810 H   0  0  0  0  0  0  0  0  0  0  0  0
   45.0560   33.2350   44.1140 H   0  0  0  0  0  0  0  0  0  0  0  0
   47.7600   33.7720   42.9890 C   0  0  0  0  0  0  0  0  0  0  0  0
   48.4490   34.4830   42.4900 H   0  0  0  0  0  0  0  0  0  0  0  0
   48.3300   33.3010   43.8380 H   0  0  0  0  0  0  0  0  0  0  0  0
   47.2060   32.7140   42.1020 C   0  0  0  0  0  0  0  0  0  0  0  0
   47.3970   31.6920   42.4760 H   0  0  0  0  0  0  0  0  0  0  0  0
   46.0900   32.8020   42.0350 H   0  0  0  0  0  0  0  0  0  0  0  0
   49.0660   32.0050   38.9130 C   0  0  0  0  0  0  0  0  0  0  0  0
   48.5410   31.8530   40.2170 C   0  0  0  0  0  0  0  0  0  0  0  0
   47.7620   32.8610   40.7350 C   0  0  0  0  0  0  0  0  0  0  0  0
   47.5370   33.9450   39.9740 N   0  0  0  0  0  0  0  0  0  0  0  0
   48.0460   34.0720   38.7320 C   0  0  0  0  0  0  0  0  0  0  0  0
   48.8060   33.1140   38.1960 N   0  0  0  0  0  0  0  0  0  0  0  0
   49.6630   31.1660   38.5940 H   0  0  0  0  0  0  0  0  0  0  0  0
   48.7300   30.9750   40.8210 H   0  0  0  0  0  0  0  0  0  0  0  0
   47.8790   34.9360   38.1000 H   0  0  0  0  0  0  0  0  0  0  0  0
   46.5590   33.4270   45.5660 O   0  0  0  0  0  0  0  0  0  0  0  0
   45.5950   31.1100   44.7000 O   0  0  0  0  0  0  0  0  0  0  0  0
   46.2070   31.8070   45.9110 P   0  0  2  0  0  0  0  0  0  0  0  0
   45.0040   31.8200   47.1140 O   0  0  0  0  0  0  0  0  0  0  0  0
   45.2490   32.5090   47.7720 H   0  0  0  0  0  0  0  0  0  0  0  0
   47.5410   31.0070   46.5130 O   0  0  0  0  0  0  0  0  0  0  0  0
   47.6620   29.6920   46.8580 C   0  0  0  0  0  0  0  0  0  0  0  0
   48.8300   28.9850   47.0130 C   0  0  0  0  0  0  0  0  0  0  0  0
   49.7540   29.5200   46.8450 H   0  0  0  0  0  0  0  0  0  0  0  0
   48.8800   27.6520   47.3630 C   0  0  0  0  0  0  0  0  0  0  0  0
   49.8080   27.1120   47.4800 H   0  0  0  0  0  0  0  0  0  0  0  0
   47.6900   26.9520   47.5820 C   0  0  0  0  0  3  0  0  0  0  0  0
   46.5570   27.7280   47.4090 C   0  0  0  0  0  3  0  0  0  0  0  0
   46.4940   29.0200   47.0680 N   0  0  0  0  0  0  0  0  0  0  0  0
  1  6  1  0  0  0  0
  2  3  1  0  0  0  0
  2  7  1  0  0  0  0
  2  1  1  0  0  0  0
  3  4  1  0  0  0  0
  4 12  1  0  0  0  0
  4  5  1  0  0  0  0
  5 14  1  0  0  0  0
  5 13  1  0  0  0  0
  6 15  1  6  0  0  0
  6  5  1  0  0  0  0
  6 31  1  0  0  0  0
  8  2  1  0  0  0  0
  9  3  1  0  0  0  0
 10  3  1  0  0  0  0
 11  4  1  0  0  0  0
 16  1  1  0  0  0  0
 16 18  1  0  0  0  0
 17 16  1  0  0  0  0
 19 20  1  0  0  0  0
 19 16  1  0  0  0  0
 21 19  1  0  0  0  0
 22 23  1  0  0  0  0
 23 24  2  0  0  0  0
 23 29  1  0  0  0  0
 24 19  1  0  0  0  0
 25 24  1  0  0  0  0
 26 25  2  0  0  0  0
 27 26  1  0  0  0  0
 27 22  2  0  0  0  0
 28 22  1  0  0  0  0
 30 26  1  0  0  0  0
 31 33  1  0  0  0  0
 33 32  2  6  0  0  0
 33 36  1  0  0  0  0
 33 34  1  0  0  0  0
 34 35  1  0  0  0  0
 36 37  1  0  0  0  0
 37 38  2  0  0  0  0
 37 44  1  0  0  0  0
 38 40  1  0  0  0  0
 39 38  1  0  0  0  0
 40 41  1  0  0  0  0
 40 42  2  0  0  0  0
 43 42  1  0  0  0  0
 44 43  2  0  0  0  0
M  END
>  <minimizedAffinity>
-4.31787395

>  <minimizedRMSD>
1.23773861

$$$$
