
 OpenBabel03252508593D

 44 46  0  0  1  0  0  0  0  0999 V2000
   46.6600   34.5230   43.6090 N   0  0  0  0  0  0  0  0  0  0  0  0
   46.1810   35.5400   42.7500 C   0  0  0  0  0  0  0  0  0  0  0  0
   44.6780   35.7300   42.7390 C   0  0  0  0  0  0  0  0  0  0  0  0
   44.0220   35.4640   44.0670 C   0  0  0  0  0  0  0  0  0  0  0  0
   45.0220   35.1240   45.1420 C   0  0  0  0  0  0  0  0  0  0  0  0
   45.8170   33.9190   44.5270 C   0  0  2  0  0  0  0  0  0  0  0  0
   46.6010   36.5110   43.1290 H   0  0  0  0  0  0  0  0  0  0  0  0
   46.4890   35.4830   41.7060 H   0  0  0  0  0  0  0  0  0  0  0  0
   44.2830   34.9970   41.9940 H   0  0  0  0  0  0  0  0  0  0  0  0
   44.4990   36.7480   42.3440 H   0  0  0  0  0  0  0  0  0  0  0  0
   43.2650   34.6760   44.0250 H   0  0  0  0  0  0  0  0  0  0  0  0
   43.5700   36.4420   44.3830 H   0  0  0  0  0  0  0  0  0  0  0  0
   44.4610   34.6940   46.0070 H   0  0  0  0  0  0  0  0  0  0  0  0
   45.7100   35.9330   45.4040 H   0  0  0  0  0  0  0  0  0  0  0  0
   45.0220   33.2440   44.1700 H   0  0  0  0  0  0  0  0  0  0  0  0
   47.7400   33.7420   43.0630 C   0  0  0  0  0  0  0  0  0  0  0  0
   48.4490   34.4420   42.5760 H   0  0  0  0  0  0  0  0  0  0  0  0
   48.2880   33.2650   43.9240 H   0  0  0  0  0  0  0  0  0  0  0  0
   47.1880   32.6900   42.1690 C   0  0  0  0  0  0  0  0  0  0  0  0
   47.3640   31.6670   42.5450 H   0  0  0  0  0  0  0  0  0  0  0  0
   46.0740   32.7900   42.0860 H   0  0  0  0  0  0  0  0  0  0  0  0
   49.3200   32.1330   39.1230 C   0  0  0  0  0  0  0  0  0  0  0  0
   48.7780   31.9880   40.4210 C   0  0  0  0  0  0  0  0  0  0  0  0
   47.7640   32.8320   40.8090 C   0  0  0  0  0  0  0  0  0  0  0  0
   47.3360   33.7560   39.9330 N   0  0  0  0  0  0  0  0  0  0  0  0
   47.8640   33.8790   38.6990 C   0  0  0  0  0  0  0  0  0  0  0  0
   48.8500   33.0780   38.2870 N   0  0  0  0  0  0  0  0  0  0  0  0
   50.1080   31.4300   38.9100 H   0  0  0  0  0  0  0  0  0  0  0  0
   49.1320   31.2400   41.1180 H   0  0  0  0  0  0  0  0  0  0  0  0
   47.5360   34.6160   37.9760 H   0  0  0  0  0  0  0  0  0  0  0  0
   46.5120   33.4460   45.6340 O   0  0  0  0  0  0  0  0  0  0  0  0
   45.5960   31.1200   44.7390 O   0  0  0  0  0  0  0  0  0  0  0  0
   46.1960   31.8140   45.9590 P   0  0  2  0  0  0  0  0  0  0  0  0
   44.9960   31.7860   47.1640 O   0  0  0  0  0  0  0  0  0  0  0  0
   45.2270   32.4710   47.8300 H   0  0  0  0  0  0  0  0  0  0  0  0
   47.5480   31.0360   46.5470 O   0  0  0  0  0  0  0  0  0  0  0  0
   47.6970   29.7200   46.8790 C   0  0  0  0  0  0  0  0  0  0  0  0
   48.8790   29.0360   47.0260 C   0  0  0  0  0  0  0  0  0  0  0  0
   49.7920   29.5920   46.8640 H   0  0  0  0  0  0  0  0  0  0  0  0
   48.9560   27.7010   47.3640 C   0  0  0  0  0  0  0  0  0  0  0  0
   49.8960   27.1790   47.4750 H   0  0  0  0  0  0  0  0  0  0  0  0
   47.7810   26.9740   47.5760 C   0  0  0  0  0  3  0  0  0  0  0  0
   46.6330   27.7270   47.4110 C   0  0  0  0  0  3  0  0  0  0  0  0
   46.5430   29.0210   47.0840 N   0  0  0  0  0  0  0  0  0  0  0  0
  1  6  1  0  0  0  0
  2  7  1  0  0  0  0
  2  1  1  0  0  0  0
  3  2  1  0  0  0  0
  3  4  1  0  0  0  0
  4 12  1  0  0  0  0
  4  5  1  0  0  0  0
  5 14  1  0  0  0  0
  5 13  1  0  0  0  0
  6 15  1  6  0  0  0
  6  5  1  0  0  0  0
  6 31  1  0  0  0  0
  8  2  1  0  0  0  0
  9  3  1  0  0  0  0
 10  3  1  0  0  0  0
 11  4  1  0  0  0  0
 16  1  1  0  0  0  0
 16 18  1  0  0  0  0
 17 16  1  0  0  0  0
 19 20  1  0  0  0  0
 19 16  1  0  0  0  0
 21 19  1  0  0  0  0
 22 23  1  0  0  0  0
 23 24  2  0  0  0  0
 23 29  1  0  0  0  0
 24 19  1  0  0  0  0
 25 24  1  0  0  0  0
 26 25  2  0  0  0  0
 27 26  1  0  0  0  0
 27 22  2  0  0  0  0
 28 22  1  0  0  0  0
 30 26  1  0  0  0  0
 31 33  1  0  0  0  0
 33 32  2  6  0  0  0
 33 36  1  0  0  0  0
 33 34  1  0  0  0  0
 34 35  1  0  0  0  0
 36 37  1  0  0  0  0
 37 38  2  0  0  0  0
 37 44  1  0  0  0  0
 38 40  1  0  0  0  0
 39 38  1  0  0  0  0
 40 41  1  0  0  0  0
 40 42  2  0  0  0  0
 43 42  1  0  0  0  0
 44 43  2  0  0  0  0
M  END
>  <minimizedAffinity>
-4.31644487

>  <minimizedRMSD>
1.36185765

$$$$
