
 OpenBabel03252508593D

 44 46  0  0  1  0  0  0  0  0999 V2000
   46.6790   34.5340   43.5570 N   0  0  0  0  0  0  0  0  0  0  0  0
   46.1850   35.5610   42.7180 C   0  0  0  0  0  0  0  0  0  0  0  0
   44.6800   35.7380   42.7240 C   0  0  0  0  0  0  0  0  0  0  0  0
   44.0390   35.4480   44.0540 C   0  0  0  0  0  0  0  0  0  0  0  0
   45.0520   35.0990   45.1130 C   0  0  0  0  0  0  0  0  0  0  0  0
   45.8500   33.9100   44.4740 C   0  0  2  0  0  0  0  0  0  0  0  0
   46.6010   36.5290   43.1080 H   0  0  0  0  0  0  0  0  0  0  0  0
   46.4840   35.5220   41.6700 H   0  0  0  0  0  0  0  0  0  0  0  0
   44.2840   35.0140   41.9710 H   0  0  0  0  0  0  0  0  0  0  0  0
   44.4890   36.7610   42.3460 H   0  0  0  0  0  0  0  0  0  0  0  0
   43.2880   34.6550   44.0060 H   0  0  0  0  0  0  0  0  0  0  0  0
   43.5830   36.4170   44.3880 H   0  0  0  0  0  0  0  0  0  0  0  0
   44.5020   34.6520   45.9780 H   0  0  0  0  0  0  0  0  0  0  0  0
   45.7360   35.9100   45.3810 H   0  0  0  0  0  0  0  0  0  0  0  0
   45.0570   33.2350   44.1140 H   0  0  0  0  0  0  0  0  0  0  0  0
   47.7610   33.7710   42.9890 C   0  0  0  0  0  0  0  0  0  0  0  0
   48.4500   34.4820   42.4900 H   0  0  0  0  0  0  0  0  0  0  0  0
   48.3310   33.3000   43.8390 H   0  0  0  0  0  0  0  0  0  0  0  0
   47.2070   32.7130   42.1030 C   0  0  0  0  0  0  0  0  0  0  0  0
   47.3990   31.6910   42.4760 H   0  0  0  0  0  0  0  0  0  0  0  0
   46.0910   32.8010   42.0350 H   0  0  0  0  0  0  0  0  0  0  0  0
   49.0670   32.0050   38.9130 C   0  0  0  0  0  0  0  0  0  0  0  0
   48.5420   31.8530   40.2170 C   0  0  0  0  0  0  0  0  0  0  0  0
   47.7630   32.8610   40.7350 C   0  0  0  0  0  0  0  0  0  0  0  0
   47.5370   33.9440   39.9740 N   0  0  0  0  0  0  0  0  0  0  0  0
   48.0460   34.0720   38.7320 C   0  0  0  0  0  0  0  0  0  0  0  0
   48.8070   33.1140   38.1960 N   0  0  0  0  0  0  0  0  0  0  0  0
   49.6640   31.1660   38.5940 H   0  0  0  0  0  0  0  0  0  0  0  0
   48.7310   30.9750   40.8210 H   0  0  0  0  0  0  0  0  0  0  0  0
   47.8780   34.9350   38.1000 H   0  0  0  0  0  0  0  0  0  0  0  0
   46.5590   33.4260   45.5660 O   0  0  0  0  0  0  0  0  0  0  0  0
   45.5940   31.1090   44.7000 O   0  0  0  0  0  0  0  0  0  0  0  0
   46.2070   31.8050   45.9110 P   0  0  2  0  0  0  0  0  0  0  0  0
   45.0040   31.8190   47.1140 O   0  0  0  0  0  0  0  0  0  0  0  0
   45.2490   32.5080   47.7720 H   0  0  0  0  0  0  0  0  0  0  0  0
   47.5410   31.0050   46.5130 O   0  0  0  0  0  0  0  0  0  0  0  0
   47.6610   29.6900   46.8580 C   0  0  0  0  0  0  0  0  0  0  0  0
   48.8290   28.9830   47.0130 C   0  0  0  0  0  0  0  0  0  0  0  0
   49.7530   29.5180   46.8460 H   0  0  0  0  0  0  0  0  0  0  0  0
   48.8770   27.6500   47.3650 C   0  0  0  0  0  0  0  0  0  0  0  0
   49.8050   27.1090   47.4820 H   0  0  0  0  0  0  0  0  0  0  0  0
   47.6860   26.9510   47.5820 C   0  0  0  0  0  3  0  0  0  0  0  0
   46.5540   27.7270   47.4080 C   0  0  0  0  0  3  0  0  0  0  0  0
   46.4920   29.0190   47.0680 N   0  0  0  0  0  0  0  0  0  0  0  0
  1  6  1  0  0  0  0
  2  3  1  0  0  0  0
  2  7  1  0  0  0  0
  2  1  1  0  0  0  0
  3  4  1  0  0  0  0
  4 12  1  0  0  0  0
  4  5  1  0  0  0  0
  5 14  1  0  0  0  0
  5 13  1  0  0  0  0
  6 15  1  6  0  0  0
  6  5  1  0  0  0  0
  6 31  1  0  0  0  0
  8  2  1  0  0  0  0
  9  3  1  0  0  0  0
 10  3  1  0  0  0  0
 11  4  1  0  0  0  0
 16  1  1  0  0  0  0
 16 18  1  0  0  0  0
 17 16  1  0  0  0  0
 19 20  1  0  0  0  0
 19 16  1  0  0  0  0
 21 19  1  0  0  0  0
 22 23  1  0  0  0  0
 23 24  2  0  0  0  0
 23 29  1  0  0  0  0
 24 19  1  0  0  0  0
 25 24  1  0  0  0  0
 26 25  2  0  0  0  0
 27 26  1  0  0  0  0
 27 22  2  0  0  0  0
 28 22  1  0  0  0  0
 30 26  1  0  0  0  0
 31 33  1  0  0  0  0
 33 32  2  6  0  0  0
 33 36  1  0  0  0  0
 33 34  1  0  0  0  0
 34 35  1  0  0  0  0
 36 37  1  0  0  0  0
 37 38  2  0  0  0  0
 37 44  1  0  0  0  0
 38 40  1  0  0  0  0
 39 38  1  0  0  0  0
 40 41  1  0  0  0  0
 40 42  2  0  0  0  0
 43 42  1  0  0  0  0
 44 43  2  0  0  0  0
M  END
>  <minimizedAffinity>
-4.31580973

>  <minimizedRMSD>
1.27627242

$$$$
