
 OpenBabel03252508593D

 44 46  0  0  1  0  0  0  0  0999 V2000
   47.1690   34.1910   43.0860 N   0  0  0  0  0  0  0  0  0  0  0  0
   46.7020   35.3380   42.4000 C   0  0  0  0  0  0  0  0  0  0  0  0
   45.2300   35.6490   42.5800 C   0  0  0  0  0  0  0  0  0  0  0  0
   44.6930   35.2850   43.9370 C   0  0  0  0  0  0  0  0  0  0  0  0
   45.7610   34.7400   44.8490 C   0  0  0  0  0  0  0  0  0  0  0  0
   46.3720   33.5540   44.0230 C   0  0  2  0  0  0  0  0  0  0  0  0
   47.2480   36.2200   42.8320 H   0  0  0  0  0  0  0  0  0  0  0  0
   46.8940   35.3780   41.3280 H   0  0  0  0  0  0  0  0  0  0  0  0
   44.6930   35.0440   41.8090 H   0  0  0  0  0  0  0  0  0  0  0  0
   45.1080   36.7180   42.3190 H   0  0  0  0  0  0  0  0  0  0  0  0
   43.8650   34.5720   43.8950 H   0  0  0  0  0  0  0  0  0  0  0  0
   44.3690   36.2530   44.4040 H   0  0  0  0  0  0  0  0  0  0  0  0
   45.2540   34.2600   45.7210 H   0  0  0  0  0  0  0  0  0  0  0  0
   46.5460   35.4550   45.1170 H   0  0  0  0  0  0  0  0  0  0  0  0
   45.4850   32.9940   43.6870 H   0  0  0  0  0  0  0  0  0  0  0  0
   48.1090   33.3940   42.3410 C   0  0  0  0  0  0  0  0  0  0  0  0
   48.8150   34.0860   41.8390 H   0  0  0  0  0  0  0  0  0  0  0  0
   48.7080   32.7900   43.0790 H   0  0  0  0  0  0  0  0  0  0  0  0
   47.3700   32.4850   41.4240 C   0  0  0  0  0  0  0  0  0  0  0  0
   47.3920   31.4300   41.7500 H   0  0  0  0  0  0  0  0  0  0  0  0
   46.2840   32.7630   41.3860 H   0  0  0  0  0  0  0  0  0  0  0  0
   49.2170   31.6950   38.2460 C   0  0  0  0  0  0  0  0  0  0  0  0
   48.6970   31.5760   39.5560 C   0  0  0  0  0  0  0  0  0  0  0  0
   47.9220   32.5980   40.0510 C   0  0  0  0  0  0  0  0  0  0  0  0
   47.6950   33.6620   39.2650 N   0  0  0  0  0  0  0  0  0  0  0  0
   48.2000   33.7580   38.0180 C   0  0  0  0  0  0  0  0  0  0  0  0
   48.9570   32.7860   37.5030 N   0  0  0  0  0  0  0  0  0  0  0  0
   49.8110   30.8470   37.9460 H   0  0  0  0  0  0  0  0  0  0  0  0
   48.8860   30.7130   40.1810 H   0  0  0  0  0  0  0  0  0  0  0  0
   48.0320   34.6070   37.3660 H   0  0  0  0  0  0  0  0  0  0  0  0
   47.1300   32.9000   44.9870 O   0  0  0  0  0  0  0  0  0  0  0  0
   45.7660   30.7360   44.2750 O   0  0  0  0  0  0  0  0  0  0  0  0
   46.4590   31.4170   45.4520 P   0  0  2  0  0  0  0  0  0  0  0  0
   45.2400   31.7720   46.5850 O   0  0  0  0  0  0  0  0  0  0  0  0
   45.5910   32.4620   47.1920 H   0  0  0  0  0  0  0  0  0  0  0  0
   47.5910   30.4400   46.1910 O   0  0  0  0  0  0  0  0  0  0  0  0
   47.5400   29.0940   46.4120 C   0  0  0  0  0  0  0  0  0  0  0  0
   48.5980   28.2180   46.4080 C   0  0  0  0  0  0  0  0  0  0  0  0
   49.5770   28.6300   46.2100 H   0  0  0  0  0  0  0  0  0  0  0  0
   48.4740   26.8640   46.6410 C   0  0  0  0  0  0  0  0  0  0  0  0
   49.3180   26.1890   46.6340 H   0  0  0  0  0  0  0  0  0  0  0  0
   47.2110   26.3210   46.8990 C   0  0  0  0  0  3  0  0  0  0  0  0
   46.1970   27.2620   46.8860 C   0  0  0  0  0  3  0  0  0  0  0  0
   46.3030   28.5770   46.6630 N   0  0  0  0  0  0  0  0  0  0  0  0
  1  6  1  0  0  0  0
  2  3  1  0  0  0  0
  2  7  1  0  0  0  0
  2  1  1  0  0  0  0
  3  4  1  0  0  0  0
  4 12  1  0  0  0  0
  4  5  1  0  0  0  0
  5 14  1  0  0  0  0
  5 13  1  0  0  0  0
  6 15  1  6  0  0  0
  6  5  1  0  0  0  0
  6 31  1  0  0  0  0
  8  2  1  0  0  0  0
  9  3  1  0  0  0  0
 10  3  1  0  0  0  0
 11  4  1  0  0  0  0
 16 18  1  0  0  0  0
 16  1  1  0  0  0  0
 17 16  1  0  0  0  0
 19 20  1  0  0  0  0
 19 16  1  0  0  0  0
 21 19  1  0  0  0  0
 22 23  1  0  0  0  0
 23 24  2  0  0  0  0
 23 29  1  0  0  0  0
 24 19  1  0  0  0  0
 25 24  1  0  0  0  0
 26 25  2  0  0  0  0
 27 26  1  0  0  0  0
 27 22  2  0  0  0  0
 28 22  1  0  0  0  0
 30 26  1  0  0  0  0
 31 33  1  0  0  0  0
 33 32  2  6  0  0  0
 33 36  1  0  0  0  0
 33 34  1  0  0  0  0
 34 35  1  0  0  0  0
 36 37  1  0  0  0  0
 37 44  1  0  0  0  0
 38 37  2  0  0  0  0
 38 40  1  0  0  0  0
 39 38  1  0  0  0  0
 40 42  2  0  0  0  0
 41 40  1  0  0  0  0
 43 42  1  0  0  0  0
 44 43  2  0  0  0  0
M  END
>  <minimizedAffinity>
-3.7384181

>  <minimizedRMSD>
0.718390346

$$$$
