
 OpenBabel03242523393D

 36 40  0  0  1  0  0  0  0  0999 V2000
   46.5150   32.2920   45.1150 C   0  0  2  0  0  0  0  0  0  0  0  0
   46.8240   31.0510   45.0490 N   0  0  1  0  0  0  0  0  0  0  0  0
   47.9120   30.4210   44.8900 C   0  0  0  0  0  0  0  0  0  0  0  0
   47.9240   30.1230   46.1930 N   0  0  0  0  0  0  0  0  0  0  0  0
   47.1110   30.8120   47.0360 C   0  0  2  0  0  0  0  0  0  0  0  0
   47.0670   30.3640   48.3820 C   0  0  0  0  0  0  0  0  0  0  0  0
   46.2450   31.0230   49.2250 C   0  0  0  0  0  0  0  0  0  0  0  0
   45.4450   32.0940   48.8790 C   0  0  0  0  0  0  0  0  0  0  0  0
   45.5760   32.4340   47.5400 C   0  0  0  0  0  0  0  0  0  0  0  0
   46.3510   31.9060   46.5090 C   0  0  1  0  0  0  0  0  0  0  0  0
   47.5810   32.7960   45.1310 H   0  0  0  0  0  0  0  0  0  0  0  0
   46.0490   30.5340   44.5270 H   0  0  0  0  0  0  0  0  0  0  0  0
   47.9670   29.5410   44.2130 H   0  0  0  0  0  0  0  0  0  0  0  0
   48.8170   31.0320   44.5970 H   0  0  0  0  0  0  0  0  0  0  0  0
   48.5910   29.3450   46.4670 H   0  0  0  0  0  0  0  0  0  0  0  0
   47.6520   29.5450   48.7320 H   0  0  0  0  0  0  0  0  0  0  0  0
   46.2190   30.6690   50.2690 H   0  0  0  0  0  0  0  0  0  0  0  0
   44.8230   32.5740   49.5670 H   0  0  0  0  0  0  0  0  0  0  0  0
   44.9010   33.2530   47.3370 H   0  0  0  0  0  0  0  0  0  0  0  0
   44.6040   35.4590   45.3450 C   0  0  0  0  0  0  0  0  0  0  0  0
   44.3000   35.5330   43.9680 C   0  0  0  0  0  0  0  0  0  0  0  0
   44.7630   34.5050   43.1470 C   0  0  0  0  0  0  0  0  0  0  0  0
   45.4650   33.5300   43.7530 N   0  0  0  0  0  0  0  0  0  0  0  0
   45.7450   33.4840   45.0950 C   0  0  0  0  0  0  0  0  0  0  0  0
   45.2970   34.4440   45.7800 N   0  0  0  0  0  0  0  0  0  0  0  0
   44.2720   36.2290   46.0410 H   0  0  0  0  0  0  0  0  0  0  0  0
   43.7220   36.3930   43.6470 H   0  0  0  0  0  0  0  0  0  0  0  0
   44.3780   34.6060   41.4280 S   0  0  0  0  0  0  0  0  0  0  0  0
   45.8650   34.1610   40.5180 C   0  0  0  0  0  0  0  0  0  0  0  0
   47.1090   34.6340   40.9060 C   0  0  0  0  0  0  0  0  0  0  0  0
   47.1850   35.2860   41.7790 H   0  0  0  0  0  0  0  0  0  0  0  0
   48.2720   34.3100   40.2280 C   0  0  0  0  0  0  0  0  0  0  0  0
   49.2550   34.6610   40.5050 H   0  0  0  0  0  0  0  0  0  0  0  0
   48.1760   33.4930   39.1360 C   0  0  0  0  0  0  0  0  0  0  0  0
   46.9390   33.0170   38.7410 C   0  0  0  0  0  0  0  0  0  0  0  0
   45.8440   33.3660   39.4400 N   0  0  0  0  0  0  0  0  0  0  0  0
  1 11  1  1  0  0  0
  1 10  1  0  0  0  0
  2 12  1  6  0  0  0
  2  1  1  0  0  0  0
  2 10  1  0  0  0  0
  3  2  1  0  0  0  0
  3  4  1  0  0  0  0
  4 15  1  0  0  0  0
  4  5  1  0  0  0  0
  5  6  1  6  0  0  0
  6 16  1  0  0  0  0
  6  7  2  0  0  0  0
  7 17  1  0  0  0  0
  8  7  1  0  0  0  0
  8 18  1  0  0  0  0
  9  8  2  0  0  0  0
 10  5  1  0  0  0  0
 10  9  1  1  0  0  0
 13  3  1  0  0  0  0
 14  3  1  0  0  0  0
 19  9  1  0  0  0  0
 20 25  1  0  0  0  0
 20 26  1  0  0  0  0
 21 20  2  0  0  0  0
 22 23  2  0  0  0  0
 22 21  1  0  0  0  0
 23 24  1  0  0  0  0
 24  1  1  0  0  0  0
 24 25  2  0  0  0  0
 27 21  1  0  0  0  0
 28 22  1  0  0  0  0
 29 30  1  0  0  0  0
 29 28  1  0  0  0  0
 30 31  1  0  0  0  0
 32 33  1  0  0  0  0
 32 30  2  0  0  0  0
 34 32  1  0  0  0  0
 35 34  2  0  0  0  0
 35 36  1  0  0  0  0
 36 29  2  0  0  0  0
M  END
>  <minimizedAffinity>
-5.93619537

>  <minimizedRMSD>
1.22363663

$$$$
