
 OpenBabel03252505483D

 28 30  0  0  1  0  0  0  0  0999 V2000
   37.2610   26.7490   42.2940 C   0  0  0  0  0  0  0  0  0  0  0  0
   38.2470   27.2590   43.1720 C   0  0  0  0  0  0  0  0  0  0  0  0
   38.4430   28.6360   43.3150 C   0  0  0  0  0  0  0  0  0  0  0  0
   37.6340   29.4410   42.5630 N   0  0  0  0  0  0  0  0  0  0  0  0
   36.6970   28.9090   41.7280 C   0  0  0  0  0  0  0  0  0  0  0  0
   36.5120   27.6050   41.5950 N   0  0  0  0  0  0  0  0  0  0  0  0
   38.9000   26.6270   43.7780 H   0  0  0  0  0  0  0  0  0  0  0  0
   39.1920   29.0360   43.9820 H   0  0  0  0  0  0  0  0  0  0  0  0
   37.1220   25.2900   42.1800 C   0  0  1  0  0  0  0  0  0  0  0  0
   37.7980   24.7630   40.8630 C   0  0  1  0  0  0  0  0  0  0  0  0
   38.1810   24.3580   42.2700 C   0  0  0  0  0  0  0  0  0  0  0  0
   36.0500   24.9650   42.2720 H   0  0  0  0  0  0  0  0  0  0  0  0
   38.4260   25.4460   40.3010 H   0  0  0  0  0  0  0  0  0  0  0  0
   39.2050   24.7360   42.5510 H   0  0  0  0  0  0  0  0  0  0  0  0
   38.0380   23.3180   42.5740 H   0  0  0  0  0  0  0  0  0  0  0  0
   36.9790   23.7200   40.1380 C   0  0  0  0  0  0  0  0  0  0  0  0
   35.6320   23.9320   40.2210 F   0  0  0  0  0  0  0  0  0  0  0  0
   37.3270   23.7420   38.7760 F   0  0  0  0  0  0  0  0  0  0  0  0
   37.3140   22.4450   40.5690 F   0  0  0  0  0  0  0  0  0  0  0  0
   35.9520   29.8450   41.0250 O   0  0  0  0  0  0  0  0  0  0  0  0
   36.4680   30.5870   40.0000 C   0  0  0  0  0  0  0  0  0  0  0  0
   36.6440   29.9420   38.7830 C   0  0  0  0  0  0  0  0  0  0  0  0
   36.3950   28.9100   38.6280 H   0  0  0  0  0  0  0  0  0  0  0  0
   37.1690   30.7100   37.7520 C   0  0  0  0  0  0  0  0  0  0  0  0
   37.3460   30.3190   36.7760 H   0  0  0  0  0  0  0  0  0  0  0  0
   37.4710   32.0320   38.0140 C   0  0  0  0  0  3  0  0  0  0  0  0
   37.2790   32.6470   39.2530 C   0  0  0  0  0  3  0  0  0  0  0  0
   36.7620   31.8680   40.2450 N   0  0  0  0  0  0  0  0  0  0  0  0
  1  2  1  0  0  0  0
  2  3  2  0  0  0  0
  2  7  1  0  0  0  0
  3  8  1  0  0  0  0
  4  3  1  0  0  0  0
  5  4  2  0  0  0  0
  6  5  1  0  0  0  0
  6  1  2  0  0  0  0
  9 11  1  0  0  0  0
  9 12  1  1  0  0  0
  9  1  1  0  0  0  0
 10 13  1  6  0  0  0
 10  9  1  0  0  0  0
 10 11  1  0  0  0  0
 11 14  1  0  0  0  0
 11 15  1  0  0  0  0
 16 17  1  0  0  0  0
 16 19  1  0  0  0  0
 16 10  1  0  0  0  0
 18 16  1  0  0  0  0
 20  5  1  0  0  0  0
 21 28  1  0  0  0  0
 21 20  1  0  0  0  0
 22 21  2  0  0  0  0
 23 22  1  0  0  0  0
 24 26  2  0  0  0  0
 24 22  1  0  0  0  0
 25 24  1  0  0  0  0
 26 27  1  0  0  0  0
 27 28  2  0  0  0  0
M  END
>  <minimizedAffinity>
-5.33234215

$$$$

 OpenBabel03252505483D

 28 30  0  0  1  0  0  0  0  0999 V2000
   38.6730   28.3750   42.8340 C   0  0  0  0  0  0  0  0  0  0  0  0
   39.7380   29.3050   42.8480 C   0  0  0  0  0  0  0  0  0  0  0  0
   39.5970   30.5730   42.2750 C   0  0  0  0  0  0  0  0  0  0  0  0
   38.3830   30.8460   41.7100 N   0  0  0  0  0  0  0  0  0  0  0  0
   37.3830   29.9210   41.7160 C   0  0  0  0  0  0  0  0  0  0  0  0
   37.5180   28.7220   42.2600 N   0  0  0  0  0  0  0  0  0  0  0  0
   40.7140   29.1010   43.2960 H   0  0  0  0  0  0  0  0  0  0  0  0
   40.4030   31.2910   42.2800 H   0  0  0  0  0  0  0  0  0  0  0  0
   38.8980   27.0540   43.4390 C   0  0  1  0  0  0  0  0  0  0  0  0
   39.4930   26.0490   42.3890 C   0  0  1  0  0  0  0  0  0  0  0  0
   40.1620   26.4690   43.6790 C   0  0  0  0  0  0  0  0  0  0  0  0
   37.9690   26.6590   43.9330 H   0  0  0  0  0  0  0  0  0  0  0  0
   39.8400   26.4450   41.4400 H   0  0  0  0  0  0  0  0  0  0  0  0
   41.0840   27.0890   43.4920 H   0  0  0  0  0  0  0  0  0  0  0  0
   40.3350   25.7150   44.4510 H   0  0  0  0  0  0  0  0  0  0  0  0
   38.8740   24.6720   42.4510 C   0  0  0  0  0  0  0  0  0  0  0  0
   37.5110   24.6910   42.5270 F   0  0  0  0  0  0  0  0  0  0  0  0
   39.2230   23.9690   41.2840 F   0  0  0  0  0  0  0  0  0  0  0  0
   39.4250   23.9330   43.4880 F   0  0  0  0  0  0  0  0  0  0  0  0
   36.2080   30.3340   41.1030 O   0  0  0  0  0  0  0  0  0  0  0  0
   35.8180   29.8900   39.8710 C   0  0  0  0  0  0  0  0  0  0  0  0
   34.6510   29.1410   39.8130 C   0  0  0  0  0  0  0  0  0  0  0  0
   34.0640   28.9060   40.6800 H   0  0  0  0  0  0  0  0  0  0  0  0
   34.2680   28.6970   38.5540 C   0  0  0  0  0  0  0  0  0  0  0  0
   33.3900   28.1150   38.3920 H   0  0  0  0  0  0  0  0  0  0  0  0
   35.0650   29.0310   37.4760 C   0  0  0  0  0  3  0  0  0  0  0  0
   36.2340   29.7880   37.5740 C   0  0  0  0  0  3  0  0  0  0  0  0
   36.5840   30.2090   38.8220 N   0  0  0  0  0  0  0  0  0  0  0  0
  1  2  1  0  0  0  0
  1  9  1  0  0  0  0
  2  7  1  0  0  0  0
  3  8  1  0  0  0  0
  3  2  2  0  0  0  0
  4  5  2  0  0  0  0
  4  3  1  0  0  0  0
  5  6  1  0  0  0  0
  6  1  2  0  0  0  0
  9 11  1  0  0  0  0
  9 12  1  1  0  0  0
 10 13  1  6  0  0  0
 10 16  1  0  0  0  0
 10  9  1  0  0  0  0
 10 11  1  0  0  0  0
 11 15  1  0  0  0  0
 14 11  1  0  0  0  0
 16 17  1  0  0  0  0
 16 19  1  0  0  0  0
 18 16  1  0  0  0  0
 20  5  1  0  0  0  0
 21 20  1  0  0  0  0
 22 21  1  0  0  0  0
 22 23  1  0  0  0  0
 24 22  2  0  0  0  0
 25 24  1  0  0  0  0
 26 27  2  0  0  0  0
 26 24  1  0  0  0  0
 27 28  1  0  0  0  0
 28 21  2  0  0  0  0
M  END
>  <minimizedAffinity>
-5.27830172

$$$$

 OpenBabel03252505483D

 28 30  0  0  1  0  0  0  0  0999 V2000
   37.4320   26.9410   41.7420 C   0  0  0  0  0  0  0  0  0  0  0  0
   37.0480   27.2320   43.0730 C   0  0  0  0  0  0  0  0  0  0  0  0
   37.3940   28.4470   43.6740 C   0  0  0  0  0  0  0  0  0  0  0  0
   38.1150   29.3150   42.9030 N   0  0  0  0  0  0  0  0  0  0  0  0
   38.4660   28.9950   41.6260 C   0  0  0  0  0  0  0  0  0  0  0  0
   38.1360   27.8450   41.0590 N   0  0  0  0  0  0  0  0  0  0  0  0
   36.4720   26.5480   43.7000 H   0  0  0  0  0  0  0  0  0  0  0  0
   37.1070   28.6800   44.6880 H   0  0  0  0  0  0  0  0  0  0  0  0
   37.0490   25.6360   41.1810 C   0  0  1  0  0  0  0  0  0  0  0  0
   38.1410   24.5500   41.4910 C   0  0  1  0  0  0  0  0  0  0  0  0
   36.6950   24.4940   41.9340 C   0  0  0  0  0  0  0  0  0  0  0  0
   36.8140   25.7080   40.0840 H   0  0  0  0  0  0  0  0  0  0  0  0
   38.9210   24.7960   42.2030 H   0  0  0  0  0  0  0  0  0  0  0  0
   36.5940   24.5990   43.0520 H   0  0  0  0  0  0  0  0  0  0  0  0
   36.0570   23.6960   41.5450 H   0  0  0  0  0  0  0  0  0  0  0  0
   38.4470   23.6480   40.3170 C   0  0  0  0  0  0  0  0  0  0  0  0
   37.5250   23.7300   39.3140 F   0  0  0  0  0  0  0  0  0  0  0  0
   39.6920   24.0160   39.7790 F   0  0  0  0  0  0  0  0  0  0  0  0
   38.6170   22.3370   40.7380 F   0  0  0  0  0  0  0  0  0  0  0  0
   39.1990   29.9700   40.9650 O   0  0  0  0  0  0  0  0  0  0  0  0
   38.6570   31.1540   40.5510 C   0  0  0  0  0  0  0  0  0  0  0  0
   37.6280   31.0830   39.6220 C   0  0  0  0  0  0  0  0  0  0  0  0
   37.2570   30.1540   39.2310 H   0  0  0  0  0  0  0  0  0  0  0  0
   37.0870   32.2940   39.2100 C   0  0  0  0  0  0  0  0  0  0  0  0
   36.2930   32.3590   38.5020 H   0  0  0  0  0  0  0  0  0  0  0  0
   37.6070   33.4550   39.7480 C   0  0  0  0  0  3  0  0  0  0  0  0
   38.6440   33.4860   40.6830 C   0  0  0  0  0  3  0  0  0  0  0  0
   39.1540   32.2820   41.0670 N   0  0  0  0  0  0  0  0  0  0  0  0
  1  2  1  0  0  0  0
  2  3  2  0  0  0  0
  2  7  1  0  0  0  0
  3  8  1  0  0  0  0
  4  3  1  0  0  0  0
  5  4  2  0  0  0  0
  6  5  1  0  0  0  0
  6  1  2  0  0  0  0
  9 12  1  6  0  0  0
  9 10  1  0  0  0  0
  9  1  1  0  0  0  0
  9 11  1  0  0  0  0
 10 11  1  0  0  0  0
 10 13  1  1  0  0  0
 11 14  1  0  0  0  0
 15 11  1  0  0  0  0
 16 19  1  0  0  0  0
 16 10  1  0  0  0  0
 17 16  1  0  0  0  0
 18 16  1  0  0  0  0
 20  5  1  0  0  0  0
 21 20  1  0  0  0  0
 21 28  1  0  0  0  0
 22 21  2  0  0  0  0
 23 22  1  0  0  0  0
 24 22  1  0  0  0  0
 24 26  2  0  0  0  0
 25 24  1  0  0  0  0
 26 27  1  0  0  0  0
 27 28  2  0  0  0  0
M  END
>  <minimizedAffinity>
-5.17524433

$$$$

 OpenBabel03252505483D

 28 30  0  0  1  0  0  0  0  0999 V2000
   36.4560   28.9420   41.0810 C   0  0  0  0  0  0  0  0  0  0  0  0
   36.0620   28.8110   39.7290 C   0  0  0  0  0  0  0  0  0  0  0  0
   36.2250   29.8660   38.8250 C   0  0  0  0  0  0  0  0  0  0  0  0
   36.7790   31.0090   39.3270 N   0  0  0  0  0  0  0  0  0  0  0  0
   37.1430   31.0940   40.6370 C   0  0  0  0  0  0  0  0  0  0  0  0
   36.9900   30.0950   41.4910 N   0  0  0  0  0  0  0  0  0  0  0  0
   35.6180   27.9040   39.3140 H   0  0  0  0  0  0  0  0  0  0  0  0
   35.9280   29.7770   37.7900 H   0  0  0  0  0  0  0  0  0  0  0  0
   36.2380   27.7990   41.9810 C   0  0  1  0  0  0  0  0  0  0  0  0
   37.5310   26.9140   42.0880 C   0  0  1  0  0  0  0  0  0  0  0  0
   36.8520   27.6210   43.2410 C   0  0  0  0  0  0  0  0  0  0  0  0
   35.3330   27.2030   41.6830 H   0  0  0  0  0  0  0  0  0  0  0  0
   38.4560   27.3050   41.6760 H   0  0  0  0  0  0  0  0  0  0  0  0
   37.4860   28.4580   43.6510 H   0  0  0  0  0  0  0  0  0  0  0  0
   36.4130   27.0190   44.0400 H   0  0  0  0  0  0  0  0  0  0  0  0
   37.2540   25.4290   42.0440 C   0  0  0  0  0  0  0  0  0  0  0  0
   36.9920   24.9620   40.7880 F   0  0  0  0  0  0  0  0  0  0  0  0
   38.3850   24.7460   42.5220 F   0  0  0  0  0  0  0  0  0  0  0  0
   36.2370   25.0940   42.9260 F   0  0  0  0  0  0  0  0  0  0  0  0
   37.6890   32.3160   41.0080 O   0  0  0  0  0  0  0  0  0  0  0  0
   38.9740   32.6750   40.7130 C   0  0  0  0  0  0  0  0  0  0  0  0
   39.1460   33.8090   39.9300 C   0  0  0  0  0  0  0  0  0  0  0  0
   38.3250   34.3930   39.5600 H   0  0  0  0  0  0  0  0  0  0  0  0
   40.4570   34.1610   39.6390 C   0  0  0  0  0  0  0  0  0  0  0  0
   40.7060   35.0120   39.0470 H   0  0  0  0  0  0  0  0  0  0  0  0
   41.4700   33.3690   40.1420 C   0  0  0  0  0  3  0  0  0  0  0  0
   41.2580   32.2350   40.9280 C   0  0  0  0  0  3  0  0  0  0  0  0
   39.9610   31.9150   41.1970 N   0  0  0  0  0  0  0  0  0  0  0  0
  1  6  1  0  0  0  0
  1  9  1  0  0  0  0
  2  1  2  0  0  0  0
  3  4  2  0  0  0  0
  3  2  1  0  0  0  0
  4  5  1  0  0  0  0
  5 20  1  0  0  0  0
  5  6  2  0  0  0  0
  7  2  1  0  0  0  0
  8  3  1  0  0  0  0
  9 12  1  6  0  0  0
  9 10  1  0  0  0  0
  9 11  1  0  0  0  0
 10 13  1  6  0  0  0
 10 11  1  0  0  0  0
 11 14  1  0  0  0  0
 11 15  1  0  0  0  0
 16 10  1  0  0  0  0
 16 18  1  0  0  0  0
 16 19  1  0  0  0  0
 17 16  1  0  0  0  0
 21 20  1  0  0  0  0
 21 28  1  0  0  0  0
 22 21  2  0  0  0  0
 23 22  1  0  0  0  0
 24 22  1  0  0  0  0
 24 26  2  0  0  0  0
 25 24  1  0  0  0  0
 26 27  1  0  0  0  0
 27 28  2  0  0  0  0
M  END
>  <minimizedAffinity>
-5.09759665

$$$$

 OpenBabel03252505483D

 28 30  0  0  1  0  0  0  0  0999 V2000
   37.3130   28.1410   42.3410 C   0  0  0  0  0  0  0  0  0  0  0  0
   38.0230   29.3640   42.3790 C   0  0  0  0  0  0  0  0  0  0  0  0
   37.5870   30.4750   41.6500 C   0  0  0  0  0  0  0  0  0  0  0  0
   36.4500   30.3010   40.9110 N   0  0  0  0  0  0  0  0  0  0  0  0
   35.7970   29.1060   40.9010 C   0  0  0  0  0  0  0  0  0  0  0  0
   36.2110   28.0560   41.5920 N   0  0  0  0  0  0  0  0  0  0  0  0
   38.9330   29.5180   42.9640 H   0  0  0  0  0  0  0  0  0  0  0  0
   38.1200   31.4140   41.6720 H   0  0  0  0  0  0  0  0  0  0  0  0
   37.8400   27.0090   43.1180 C   0  0  1  0  0  0  0  0  0  0  0  0
   38.8490   26.1620   42.2620 C   0  0  1  0  0  0  0  0  0  0  0  0
   39.1760   26.8710   43.5580 C   0  0  0  0  0  0  0  0  0  0  0  0
   37.0150   26.3830   43.5530 H   0  0  0  0  0  0  0  0  0  0  0  0
   39.1880   26.5710   41.3150 H   0  0  0  0  0  0  0  0  0  0  0  0
   39.8850   27.7330   43.3980 H   0  0  0  0  0  0  0  0  0  0  0  0
   39.4600   26.2730   44.4270 H   0  0  0  0  0  0  0  0  0  0  0  0
   38.6720   24.6700   42.4190 C   0  0  0  0  0  0  0  0  0  0  0  0
   37.3640   24.2820   42.4920 F   0  0  0  0  0  0  0  0  0  0  0  0
   39.2410   24.0290   41.3050 F   0  0  0  0  0  0  0  0  0  0  0  0
   39.3960   24.2020   43.5060 F   0  0  0  0  0  0  0  0  0  0  0  0
   34.6610   29.0740   40.1040 O   0  0  0  0  0  0  0  0  0  0  0  0
   34.7090   28.8950   38.7500 C   0  0  0  0  0  0  0  0  0  0  0  0
   33.5040   28.9560   38.0640 C   0  0  0  0  0  0  0  0  0  0  0  0
   32.5640   29.1340   38.5510 H   0  0  0  0  0  0  0  0  0  0  0  0
   33.5690   28.7720   36.6890 C   0  0  0  0  0  0  0  0  0  0  0  0
   32.7070   28.7990   36.0630 H   0  0  0  0  0  0  0  0  0  0  0  0
   34.8070   28.5460   36.1210 C   0  0  0  0  0  3  0  0  0  0  0  0
   36.0010   28.4910   36.8450 C   0  0  0  0  0  3  0  0  0  0  0  0
   35.9040   28.6750   38.1920 N   0  0  0  0  0  0  0  0  0  0  0  0
  1  2  1  0  0  0  0
  1  9  1  0  0  0  0
  2  7  1  0  0  0  0
  3  8  1  0  0  0  0
  3  2  2  0  0  0  0
  4  3  1  0  0  0  0
  5  4  2  0  0  0  0
  5  6  1  0  0  0  0
  6  1  2  0  0  0  0
  9 12  1  1  0  0  0
  9 11  1  0  0  0  0
 10 13  1  6  0  0  0
 10 16  1  0  0  0  0
 10  9  1  0  0  0  0
 10 11  1  0  0  0  0
 11 15  1  0  0  0  0
 14 11  1  0  0  0  0
 16 17  1  0  0  0  0
 16 19  1  0  0  0  0
 18 16  1  0  0  0  0
 20  5  1  0  0  0  0
 21 20  1  0  0  0  0
 22 23  1  0  0  0  0
 22 21  2  0  0  0  0
 24 22  1  0  0  0  0
 25 24  1  0  0  0  0
 26 24  2  0  0  0  0
 26 27  1  0  0  0  0
 27 28  2  0  0  0  0
 28 21  1  0  0  0  0
M  END
>  <minimizedAffinity>
-5.08523941

$$$$

 OpenBabel03252505483D

 28 30  0  0  1  0  0  0  0  0999 V2000
   37.4180   26.7590   42.2850 C   0  0  0  0  0  0  0  0  0  0  0  0
   38.3930   27.3950   43.0890 C   0  0  0  0  0  0  0  0  0  0  0  0
   38.4630   28.7890   43.1720 C   0  0  0  0  0  0  0  0  0  0  0  0
   37.5430   29.4820   42.4360 N   0  0  0  0  0  0  0  0  0  0  0  0
   36.6210   28.8300   41.6730 C   0  0  0  0  0  0  0  0  0  0  0  0
   36.5560   27.5110   41.5970 N   0  0  0  0  0  0  0  0  0  0  0  0
   39.1350   26.8540   43.6820 H   0  0  0  0  0  0  0  0  0  0  0  0
   39.2020   29.2850   43.7830 H   0  0  0  0  0  0  0  0  0  0  0  0
   37.4160   25.2890   42.2310 C   0  0  1  0  0  0  0  0  0  0  0  0
   37.9000   24.7780   40.8270 C   0  0  1  0  0  0  0  0  0  0  0  0
   38.5660   24.4720   42.1510 C   0  0  0  0  0  0  0  0  0  0  0  0
   36.4170   24.8640   42.5220 H   0  0  0  0  0  0  0  0  0  0  0  0
   38.3450   25.4960   40.1450 H   0  0  0  0  0  0  0  0  0  0  0  0
   39.5780   24.9610   42.2340 H   0  0  0  0  0  0  0  0  0  0  0  0
   38.5900   23.4370   42.5000 H   0  0  0  0  0  0  0  0  0  0  0  0
   37.0800   23.6300   40.2850 C   0  0  0  0  0  0  0  0  0  0  0  0
   37.1590   23.4990   38.9280 F   0  0  0  0  0  0  0  0  0  0  0  0
   37.5510   22.4340   40.8530 F   0  0  0  0  0  0  0  0  0  0  0  0
   35.7620   23.7280   40.7050 F   0  0  0  0  0  0  0  0  0  0  0  0
   35.7540   29.6610   40.9780 O   0  0  0  0  0  0  0  0  0  0  0  0
   35.4310   29.4660   39.6640 C   0  0  0  0  0  0  0  0  0  0  0  0
   36.4200   29.7340   38.7270 C   0  0  0  0  0  0  0  0  0  0  0  0
   37.4000   30.0790   38.9960 H   0  0  0  0  0  0  0  0  0  0  0  0
   36.0770   29.5300   37.3970 C   0  0  0  0  0  0  0  0  0  0  0  0
   36.7570   29.7030   36.5950 H   0  0  0  0  0  0  0  0  0  0  0  0
   34.8010   29.0850   37.1150 C   0  0  0  0  0  3  0  0  0  0  0  0
   33.8310   28.8260   38.0870 C   0  0  0  0  0  3  0  0  0  0  0  0
   34.1980   29.0350   39.3830 N   0  0  0  0  0  0  0  0  0  0  0  0
  1  2  1  0  0  0  0
  2  3  2  0  0  0  0
  2  7  1  0  0  0  0
  3  8  1  0  0  0  0
  4  3  1  0  0  0  0
  5  4  2  0  0  0  0
  6  5  1  0  0  0  0
  6  1  2  0  0  0  0
  9  1  1  0  0  0  0
  9 12  1  1  0  0  0
 10 13  1  6  0  0  0
 10 11  1  0  0  0  0
 10  9  1  0  0  0  0
 11  9  1  0  0  0  0
 11 14  1  0  0  0  0
 11 15  1  0  0  0  0
 16 19  1  0  0  0  0
 16 10  1  0  0  0  0
 16 18  1  0  0  0  0
 17 16  1  0  0  0  0
 20  5  1  0  0  0  0
 21 20  1  0  0  0  0
 22 23  1  0  0  0  0
 22 21  2  0  0  0  0
 24 22  1  0  0  0  0
 25 24  1  0  0  0  0
 26 24  2  0  0  0  0
 26 27  1  0  0  0  0
 27 28  2  0  0  0  0
 28 21  1  0  0  0  0
M  END
>  <minimizedAffinity>
-5.07980347

$$$$

 OpenBabel03252505483D

 28 30  0  0  1  0  0  0  0  0999 V2000
   38.1940   28.8370   42.5080 C   0  0  0  0  0  0  0  0  0  0  0  0
   39.3400   29.5970   42.8410 C   0  0  0  0  0  0  0  0  0  0  0  0
   39.5700   30.8480   42.2600 C   0  0  0  0  0  0  0  0  0  0  0  0
   38.6310   31.2780   41.3650 N   0  0  0  0  0  0  0  0  0  0  0  0
   37.5420   30.5140   41.0710 C   0  0  0  0  0  0  0  0  0  0  0  0
   37.3250   29.3310   41.6230 N   0  0  0  0  0  0  0  0  0  0  0  0
   40.0980   29.2660   43.5540 H   0  0  0  0  0  0  0  0  0  0  0  0
   40.4410   31.4370   42.5070 H   0  0  0  0  0  0  0  0  0  0  0  0
   38.0260   27.5220   43.1440 C   0  0  1  0  0  0  0  0  0  0  0  0
   38.3640   26.3640   42.1370 C   0  0  1  0  0  0  0  0  0  0  0  0
   39.0710   26.6220   43.4500 C   0  0  0  0  0  0  0  0  0  0  0  0
   37.0050   27.4090   43.6020 H   0  0  0  0  0  0  0  0  0  0  0  0
   38.8420   26.6240   41.1990 H   0  0  0  0  0  0  0  0  0  0  0  0
   40.1350   26.9620   43.2940 H   0  0  0  0  0  0  0  0  0  0  0  0
   39.0010   25.8710   44.2410 H   0  0  0  0  0  0  0  0  0  0  0  0
   37.3900   25.2100   42.1940 C   0  0  0  0  0  0  0  0  0  0  0  0
   37.9500   24.0490   42.6450 F   0  0  0  0  0  0  0  0  0  0  0  0
   36.3450   25.5450   43.0720 F   0  0  0  0  0  0  0  0  0  0  0  0
   36.7750   25.0270   40.9640 F   0  0  0  0  0  0  0  0  0  0  0  0
   36.6750   31.0740   40.1430 O   0  0  0  0  0  0  0  0  0  0  0  0
   36.5650   30.6170   38.8590 C   0  0  0  0  0  0  0  0  0  0  0  0
   37.4160   31.1780   37.9160 C   0  0  0  0  0  0  0  0  0  0  0  0
   38.1350   31.9380   38.1580 H   0  0  0  0  0  0  0  0  0  0  0  0
   37.2920   30.7030   36.6170 C   0  0  0  0  0  0  0  0  0  0  0  0
   37.8930   31.0620   35.8140 H   0  0  0  0  0  0  0  0  0  0  0  0
   36.3470   29.7270   36.3690 C   0  0  0  0  0  3  0  0  0  0  0  0
   35.5080   29.1860   37.3460 C   0  0  0  0  0  3  0  0  0  0  0  0
   35.6540   29.6720   38.6110 N   0  0  0  0  0  0  0  0  0  0  0  0
  1  2  1  0  0  0  0
  1  9  1  0  0  0  0
  2  7  1  0  0  0  0
  3  8  1  0  0  0  0
  3  2  2  0  0  0  0
  4  3  1  0  0  0  0
  5  4  2  0  0  0  0
  5  6  1  0  0  0  0
  6  1  2  0  0  0  0
  9 11  1  0  0  0  0
  9 12  1  1  0  0  0
 10 13  1  6  0  0  0
 10 16  1  0  0  0  0
 10  9  1  0  0  0  0
 10 11  1  0  0  0  0
 11 15  1  0  0  0  0
 14 11  1  0  0  0  0
 16 17  1  0  0  0  0
 16 18  1  0  0  0  0
 19 16  1  0  0  0  0
 20  5  1  0  0  0  0
 21 20  1  0  0  0  0
 22 23  1  0  0  0  0
 22 21  2  0  0  0  0
 24 22  1  0  0  0  0
 25 24  1  0  0  0  0
 26 24  2  0  0  0  0
 26 27  1  0  0  0  0
 27 28  2  0  0  0  0
 28 21  1  0  0  0  0
M  END
>  <minimizedAffinity>
-5.03859901

$$$$

 OpenBabel03252505483D

 28 30  0  0  1  0  0  0  0  0999 V2000
   32.4040   29.1700   36.5760 C   0  0  0  0  0  0  0  0  0  0  0  0
   32.8660   29.2820   35.2430 C   0  0  0  0  0  0  0  0  0  0  0  0
   34.2310   29.2240   34.9460 C   0  0  0  0  0  0  0  0  0  0  0  0
   35.0730   29.0570   36.0090 N   0  0  0  0  0  0  0  0  0  0  0  0
   34.5860   28.9560   37.2780 C   0  0  0  0  0  0  0  0  0  0  0  0
   33.2940   29.0090   37.5580 N   0  0  0  0  0  0  0  0  0  0  0  0
   32.2050   29.4160   34.3840 H   0  0  0  0  0  0  0  0  0  0  0  0
   34.5950   29.3080   33.9320 H   0  0  0  0  0  0  0  0  0  0  0  0
   30.9560   29.2580   36.8170 C   0  0  1  0  0  0  0  0  0  0  0  0
   30.6170   30.4630   37.7660 C   0  0  1  0  0  0  0  0  0  0  0  0
   30.1100   30.2900   36.3510 C   0  0  0  0  0  0  0  0  0  0  0  0
   30.5370   28.2850   37.1920 H   0  0  0  0  0  0  0  0  0  0  0  0
   31.4010   31.1820   37.9810 H   0  0  0  0  0  0  0  0  0  0  0  0
   30.5420   31.0620   35.6530 H   0  0  0  0  0  0  0  0  0  0  0  0
   29.0380   30.1560   36.1900 H   0  0  0  0  0  0  0  0  0  0  0  0
   29.5860   30.1320   38.8200 C   0  0  0  0  0  0  0  0  0  0  0  0
   28.7210   29.1450   38.4440 F   0  0  0  0  0  0  0  0  0  0  0  0
   30.2520   29.6930   39.9780 F   0  0  0  0  0  0  0  0  0  0  0  0
   28.9040   31.2740   39.2150 F   0  0  0  0  0  0  0  0  0  0  0  0
   35.5560   28.7930   38.2580 O   0  0  0  0  0  0  0  0  0  0  0  0
   36.0440   29.8320   38.9990 C   0  0  0  0  0  0  0  0  0  0  0  0
   35.7800   29.8120   40.3620 C   0  0  0  0  0  0  0  0  0  0  0  0
   35.2200   29.0280   40.8360 H   0  0  0  0  0  0  0  0  0  0  0  0
   36.2820   30.8750   41.1010 C   0  0  0  0  0  0  0  0  0  0  0  0
   36.1400   30.9610   42.1540 H   0  0  0  0  0  0  0  0  0  0  0  0
   36.9930   31.8530   40.4340 C   0  0  0  0  0  3  0  0  0  0  0  0
   37.2390   31.8390   39.0590 C   0  0  0  0  0  3  0  0  0  0  0  0
   36.7340   30.7830   38.3610 N   0  0  0  0  0  0  0  0  0  0  0  0
  1  9  1  0  0  0  0
  1  6  1  0  0  0  0
  2  1  2  0  0  0  0
  3  2  1  0  0  0  0
  3  4  2  0  0  0  0
  4  5  1  0  0  0  0
  5  6  2  0  0  0  0
  5 20  1  0  0  0  0
  7  2  1  0  0  0  0
  8  3  1  0  0  0  0
  9 12  1  1  0  0  0
  9 10  1  0  0  0  0
 10 13  1  1  0  0  0
 10 16  1  0  0  0  0
 11  9  1  0  0  0  0
 11 10  1  0  0  0  0
 14 11  1  0  0  0  0
 15 11  1  0  0  0  0
 16 19  1  0  0  0  0
 16 18  1  0  0  0  0
 17 16  1  0  0  0  0
 20 21  1  0  0  0  0
 21 22  1  0  0  0  0
 22 23  1  0  0  0  0
 22 24  2  0  0  0  0
 24 25  1  0  0  0  0
 26 24  1  0  0  0  0
 27 26  2  0  0  0  0
 28 21  2  0  0  0  0
 28 27  1  0  0  0  0
M  END
>  <minimizedAffinity>
-5.01506758

$$$$

 OpenBabel03252505483D

 28 30  0  0  1  0  0  0  0  0999 V2000
   34.8290   28.9770   38.8000 C   0  0  0  0  0  0  0  0  0  0  0  0
   35.8840   28.9960   37.8580 C   0  0  0  0  0  0  0  0  0  0  0  0
   35.6250   29.0520   36.4850 C   0  0  0  0  0  0  0  0  0  0  0  0
   34.3080   29.0850   36.1220 N   0  0  0  0  0  0  0  0  0  0  0  0
   33.3210   29.0640   37.0620 C   0  0  0  0  0  0  0  0  0  0  0  0
   33.5690   29.0120   38.3610 N   0  0  0  0  0  0  0  0  0  0  0  0
   36.9410   28.9690   38.1340 H   0  0  0  0  0  0  0  0  0  0  0  0
   36.4220   29.0670   35.7570 H   0  0  0  0  0  0  0  0  0  0  0  0
   35.1750   28.8980   40.2270 C   0  0  1  0  0  0  0  0  0  0  0  0
   36.6860   28.5160   40.4180 C   0  0  1  0  0  0  0  0  0  0  0  0
   36.0330   29.7890   40.9110 C   0  0  0  0  0  0  0  0  0  0  0  0
   34.4830   28.2100   40.7860 H   0  0  0  0  0  0  0  0  0  0  0  0
   37.3340   28.5360   39.5480 H   0  0  0  0  0  0  0  0  0  0  0  0
   36.4130   30.6960   40.3600 H   0  0  0  0  0  0  0  0  0  0  0  0
   35.9750   29.9670   41.9870 H   0  0  0  0  0  0  0  0  0  0  0  0
   36.9190   27.4970   41.5100 C   0  0  0  0  0  0  0  0  0  0  0  0
   36.7010   26.2100   41.1080 F   0  0  0  0  0  0  0  0  0  0  0  0
   38.2570   27.5880   41.9320 F   0  0  0  0  0  0  0  0  0  0  0  0
   36.1700   27.8050   42.6370 F   0  0  0  0  0  0  0  0  0  0  0  0
   32.0320   29.0990   36.5480 O   0  0  0  0  0  0  0  0  0  0  0  0
   31.3510   30.2630   36.3300 C   0  0  0  0  0  0  0  0  0  0  0  0
   30.6110   30.7680   37.3900 C   0  0  0  0  0  0  0  0  0  0  0  0
   30.5590   30.2850   38.3470 H   0  0  0  0  0  0  0  0  0  0  0  0
   29.9250   31.9520   37.1520 C   0  0  0  0  0  0  0  0  0  0  0  0
   29.3260   32.4290   37.8940 H   0  0  0  0  0  0  0  0  0  0  0  0
   30.0310   32.5250   35.9000 C   0  0  0  0  0  3  0  0  0  0  0  0
   30.7870   31.9870   34.8560 C   0  0  0  0  0  3  0  0  0  0  0  0
   31.4490   30.8250   35.1200 N   0  0  0  0  0  0  0  0  0  0  0  0
  1  9  1  0  0  0  0
  2  7  1  0  0  0  0
  2  1  2  0  0  0  0
  3  2  1  0  0  0  0
  4  3  2  0  0  0  0
  4  5  1  0  0  0  0
  5  6  2  0  0  0  0
  6  1  1  0  0  0  0
  8  3  1  0  0  0  0
  9 10  1  0  0  0  0
  9 12  1  1  0  0  0
  9 11  1  0  0  0  0
 10 13  1  6  0  0  0
 10 11  1  0  0  0  0
 10 16  1  0  0  0  0
 11 15  1  0  0  0  0
 14 11  1  0  0  0  0
 16 18  1  0  0  0  0
 16 19  1  0  0  0  0
 17 16  1  0  0  0  0
 20  5  1  0  0  0  0
 21 20  1  0  0  0  0
 21 22  1  0  0  0  0
 22 23  1  0  0  0  0
 24 22  2  0  0  0  0
 24 25  1  0  0  0  0
 26 24  1  0  0  0  0
 27 28  1  0  0  0  0
 27 26  2  0  0  0  0
 28 21  2  0  0  0  0
M  END
>  <minimizedAffinity>
-4.98842669

$$$$
