
 OpenBabel03252505473D

 28 30  0  0  1  0  0  0  0  0999 V2000
   44.9060   34.7200   43.2280 C   0  0  0  0  0  0  0  0  0  0  0  0
   44.3870   35.6030   44.2040 C   0  0  0  0  0  0  0  0  0  0  0  0
   44.6020   35.3780   45.5670 C   0  0  0  0  0  0  0  0  0  0  0  0
   45.3320   34.2670   45.8860 N   0  0  0  0  0  0  0  0  0  0  0  0
   45.8120   33.4420   44.9150 C   0  0  0  0  0  0  0  0  0  0  0  0
   45.6090   33.6570   43.6250 N   0  0  0  0  0  0  0  0  0  0  0  0
   43.8020   36.4940   43.9630 H   0  0  0  0  0  0  0  0  0  0  0  0
   44.2110   36.0450   46.3210 H   0  0  0  0  0  0  0  0  0  0  0  0
   44.6260   35.0090   41.8130 C   0  0  1  0  0  0  0  0  0  0  0  0
   43.3740   34.2030   41.3130 C   0  0  1  0  0  0  0  0  0  0  0  0
   43.5000   35.7110   41.3290 C   0  0  0  0  0  0  0  0  0  0  0  0
   45.5310   34.8410   41.1670 H   0  0  0  0  0  0  0  0  0  0  0  0
   42.7600   33.6980   42.0520 H   0  0  0  0  0  0  0  0  0  0  0  0
   42.8000   36.1830   42.0770 H   0  0  0  0  0  0  0  0  0  0  0  0
   43.4930   36.2490   40.3780 H   0  0  0  0  0  0  0  0  0  0  0  0
   43.5520   33.5980   39.9400 C   0  0  0  0  0  0  0  0  0  0  0  0
   42.7980   32.4780   39.7370 F   0  0  0  0  0  0  0  0  0  0  0  0
   43.1670   34.5470   38.9770 F   0  0  0  0  0  0  0  0  0  0  0  0
   44.8930   33.3550   39.6810 F   0  0  0  0  0  0  0  0  0  0  0  0
   46.5320   32.3520   45.3850 O   0  0  0  0  0  0  0  0  0  0  0  0
   46.3570   31.8320   46.6370 C   0  0  0  0  0  0  0  0  0  0  0  0
   47.2530   32.2380   47.6170 C   0  0  0  0  0  0  0  0  0  0  0  0
   48.0530   32.9270   47.4280 H   0  0  0  0  0  0  0  0  0  0  0  0
   47.0620   31.7010   48.8840 C   0  0  0  0  0  0  0  0  0  0  0  0
   47.6890   31.9420   49.7110 H   0  0  0  0  0  0  0  0  0  0  0  0
   46.0150   30.8190   49.0660 C   0  0  0  0  0  0  0  0  0  0  0  0
   45.1330   30.4340   48.0530 C   0  0  0  0  0  0  0  0  0  0  0  0
   45.3460   30.9780   46.8220 N   0  0  0  0  0  0  0  0  0  0  0  0
  1  6  2  0  0  0  0
  1  2  1  0  0  0  0
  2  3  2  0  0  0  0
  3  4  1  0  0  0  0
  3  8  1  0  0  0  0
  5 20  1  0  0  0  0
  5  4  2  0  0  0  0
  6  5  1  0  0  0  0
  7  2  1  0  0  0  0
  9 12  1  6  0  0  0
  9  1  1  0  0  0  0
 10 11  1  0  0  0  0
 10  9  1  0  0  0  0
 10 13  1  1  0  0  0
 11  9  1  0  0  0  0
 11 14  1  0  0  0  0
 15 11  1  0  0  0  0
 16 10  1  0  0  0  0
 17 16  1  0  0  0  0
 18 16  1  0  0  0  0
 19 16  1  0  0  0  0
 20 21  1  0  0  0  0
 21 28  2  0  0  0  0
 21 22  1  0  0  0  0
 22 24  2  0  0  0  0
 23 22  1  0  0  0  0
 24 26  1  0  0  0  0
 24 25  1  0  0  0  0
 27 26  2  0  0  0  0
 28 27  1  0  0  0  0
M  END
>  <minimizedAffinity>
-5.07433224

>  <minimizedRMSD>
3.80601645

$$$$
