
 OpenBabel03252508593D

 44 46  0  0  1  0  0  0  0  0999 V2000
   46.8100   34.3620   43.6310 N   0  0  0  0  0  0  0  0  0  0  0  0
   46.4050   35.2200   42.5800 C   0  0  0  0  0  0  0  0  0  0  0  0
   44.9070   35.3770   42.4100 C   0  0  0  0  0  0  0  0  0  0  0  0
   44.1380   35.3150   43.7010 C   0  0  0  0  0  0  0  0  0  0  0  0
   45.0410   35.1690   44.8990 C   0  0  0  0  0  0  0  0  0  0  0  0
   45.8920   33.8960   44.5570 C   0  0  2  0  0  0  0  0  0  0  0  0
   46.7850   36.2460   42.8340 H   0  0  0  0  0  0  0  0  0  0  0  0
   46.8040   35.0020   41.5900 H   0  0  0  0  0  0  0  0  0  0  0  0
   44.5830   34.5270   41.7600 H   0  0  0  0  0  0  0  0  0  0  0  0
   44.7590   36.3150   41.8420 H   0  0  0  0  0  0  0  0  0  0  0  0
   43.3920   34.5160   43.7200 H   0  0  0  0  0  0  0  0  0  0  0  0
   43.6560   36.3210   43.8150 H   0  0  0  0  0  0  0  0  0  0  0  0
   44.4080   34.8730   45.7710 H   0  0  0  0  0  0  0  0  0  0  0  0
   45.6990   36.0230   45.0860 H   0  0  0  0  0  0  0  0  0  0  0  0
   45.1350   33.1590   44.2460 H   0  0  0  0  0  0  0  0  0  0  0  0
   47.9380   33.5240   43.3130 C   0  0  0  0  0  0  0  0  0  0  0  0
   48.6880   34.1520   42.7900 H   0  0  0  0  0  0  0  0  0  0  0  0
   48.4040   33.1930   44.2830 H   0  0  0  0  0  0  0  0  0  0  0  0
   47.4730   32.3390   42.5440 C   0  0  0  0  0  0  0  0  0  0  0  0
   47.6040   31.3890   43.0920 H   0  0  0  0  0  0  0  0  0  0  0  0
   46.3740   32.4130   42.3340 H   0  0  0  0  0  0  0  0  0  0  0  0
   50.1230   31.6790   39.9590 C   0  0  0  0  0  0  0  0  0  0  0  0
   49.4530   31.7390   41.2030 C   0  0  0  0  0  0  0  0  0  0  0  0
   48.1860   32.2710   41.2440 C   0  0  0  0  0  0  0  0  0  0  0  0
   47.6440   32.7110   40.0970 N   0  0  0  0  0  0  0  0  0  0  0  0
   48.2980   32.6460   38.9190 C   0  0  0  0  0  0  0  0  0  0  0  0
   49.5290   32.1350   38.8410 N   0  0  0  0  0  0  0  0  0  0  0  0
   51.1080   31.2470   40.0260 H   0  0  0  0  0  0  0  0  0  0  0  0
   49.9000   31.3810   42.1220 H   0  0  0  0  0  0  0  0  0  0  0  0
   47.8820   32.9940   37.9810 H   0  0  0  0  0  0  0  0  0  0  0  0
   46.4890   33.6190   45.7820 O   0  0  0  0  0  0  0  0  0  0  0  0
   45.6080   31.1800   45.2150 O   0  0  0  0  0  0  0  0  0  0  0  0
   46.1440   32.0590   46.3410 P   0  0  2  0  0  0  0  0  0  0  0  0
   44.8780   32.2190   47.4670 O   0  0  0  0  0  0  0  0  0  0  0  0
   45.0770   33.0020   48.0280 H   0  0  0  0  0  0  0  0  0  0  0  0
   47.4550   31.3860   47.1210 O   0  0  0  0  0  0  0  0  0  0  0  0
   47.7540   30.0660   47.3010 C   0  0  0  0  0  0  0  0  0  0  0  0
   46.8750   29.0110   47.2750 C   0  0  0  0  0  0  0  0  0  0  0  0
   45.8340   29.2420   47.0930 H   0  0  0  0  0  0  0  0  0  0  0  0
   47.2480   27.6960   47.4660 C   0  0  0  0  0  0  0  0  0  0  0  0
   46.5420   26.8780   47.4420 H   0  0  0  0  0  0  0  0  0  0  0  0
   48.5910   27.3880   47.7020 C   0  0  0  0  0  0  0  0  0  0  0  0
   49.4150   28.5000   47.7140 C   0  0  0  0  0  0  0  0  0  0  0  0
   49.0670   29.7780   47.5310 N   0  0  0  0  0  0  0  0  0  0  0  0
  1  6  1  0  0  0  0
  2  7  1  0  0  0  0
  2  1  1  0  0  0  0
  3  2  1  0  0  0  0
  3  4  1  0  0  0  0
  4 11  1  0  0  0  0
  4 12  1  0  0  0  0
  4  5  1  0  0  0  0
  5 14  1  0  0  0  0
  5 13  1  0  0  0  0
  6 15  1  6  0  0  0
  6  5  1  0  0  0  0
  6 31  1  0  0  0  0
  8  2  1  0  0  0  0
  9  3  1  0  0  0  0
 10  3  1  0  0  0  0
 16  1  1  0  0  0  0
 16 18  1  0  0  0  0
 17 16  1  0  0  0  0
 19 20  1  0  0  0  0
 19 16  1  0  0  0  0
 21 19  1  0  0  0  0
 22 28  1  0  0  0  0
 22 23  1  0  0  0  0
 23 24  2  0  0  0  0
 23 29  1  0  0  0  0
 24 19  1  0  0  0  0
 25 24  1  0  0  0  0
 26 25  2  0  0  0  0
 27 26  1  0  0  0  0
 27 22  2  0  0  0  0
 30 26  1  0  0  0  0
 31 33  1  0  0  0  0
 33 32  2  6  0  0  0
 33 36  1  0  0  0  0
 33 34  1  0  0  0  0
 34 35  1  0  0  0  0
 36 37  1  0  0  0  0
 37 44  1  0  0  0  0
 38 37  2  0  0  0  0
 38 40  1  0  0  0  0
 39 38  1  0  0  0  0
 40 42  2  0  0  0  0
 41 40  1  0  0  0  0
 42 43  1  0  0  0  0
 44 43  2  0  0  0  0
M  END
>  <minimizedAffinity>
-4.39831352

>  <minimizedRMSD>
1.75011218

$$$$
