
 OpenBabel03252508593D

 44 46  0  0  1  0  0  0  0  0999 V2000
   46.5920   34.5430   43.6070 N   0  0  0  0  0  0  0  0  0  0  0  0
   46.0810   35.4830   42.6810 C   0  0  0  0  0  0  0  0  0  0  0  0
   44.5730   35.6360   42.6750 C   0  0  0  0  0  0  0  0  0  0  0  0
   43.9380   35.4540   44.0270 C   0  0  0  0  0  0  0  0  0  0  0  0
   44.9570   35.2160   45.1110 C   0  0  0  0  0  0  0  0  0  0  0  0
   45.7740   33.9880   44.5770 C   0  0  2  0  0  0  0  0  0  0  0  0
   46.4810   36.4890   42.9840 H   0  0  0  0  0  0  0  0  0  0  0  0
   46.3790   35.3570   41.6400 H   0  0  0  0  0  0  0  0  0  0  0  0
   44.1880   34.8420   41.9900 H   0  0  0  0  0  0  0  0  0  0  0  0
   44.3650   36.6180   42.2090 H   0  0  0  0  0  0  0  0  0  0  0  0
   43.2000   34.6480   44.0510 H   0  0  0  0  0  0  0  0  0  0  0  0
   43.4660   36.4410   44.2760 H   0  0  0  0  0  0  0  0  0  0  0  0
   44.4150   34.8380   46.0130 H   0  0  0  0  0  0  0  0  0  0  0  0
   45.6280   36.0590   45.3050 H   0  0  0  0  0  0  0  0  0  0  0  0
   44.9920   33.2710   44.2800 H   0  0  0  0  0  0  0  0  0  0  0  0
   47.6860   33.7500   43.1060 C   0  0  0  0  0  0  0  0  0  0  0  0
   48.4040   34.4370   42.6160 H   0  0  0  0  0  0  0  0  0  0  0  0
   48.2140   33.2960   43.9920 H   0  0  0  0  0  0  0  0  0  0  0  0
   47.1540   32.6730   42.2280 C   0  0  0  0  0  0  0  0  0  0  0  0
   47.3520   31.6590   42.6180 H   0  0  0  0  0  0  0  0  0  0  0  0
   46.0380   32.7490   42.1450 H   0  0  0  0  0  0  0  0  0  0  0  0
   49.3090   32.1320   39.1950 C   0  0  0  0  0  0  0  0  0  0  0  0
   48.7720   31.9940   40.4960 C   0  0  0  0  0  0  0  0  0  0  0  0
   47.7260   32.8080   40.8660 C   0  0  0  0  0  0  0  0  0  0  0  0
   47.2640   33.6950   39.9700 N   0  0  0  0  0  0  0  0  0  0  0  0
   47.7890   33.8110   38.7330 C   0  0  0  0  0  0  0  0  0  0  0  0
   48.8040   33.0390   38.3390 N   0  0  0  0  0  0  0  0  0  0  0  0
   50.1230   31.4540   38.9970 H   0  0  0  0  0  0  0  0  0  0  0  0
   49.1530   31.2750   41.2100 H   0  0  0  0  0  0  0  0  0  0  0  0
   47.4340   34.5190   37.9940 H   0  0  0  0  0  0  0  0  0  0  0  0
   46.4920   33.6140   45.7060 O   0  0  0  0  0  0  0  0  0  0  0  0
   45.6840   31.1840   45.0070 O   0  0  0  0  0  0  0  0  0  0  0  0
   46.1790   32.0190   46.1840 P   0  0  2  0  0  0  0  0  0  0  0  0
   44.8930   32.0910   47.2950 O   0  0  0  0  0  0  0  0  0  0  0  0
   45.0630   32.8500   47.8970 H   0  0  0  0  0  0  0  0  0  0  0  0
   47.4960   31.3420   46.9500 O   0  0  0  0  0  0  0  0  0  0  0  0
   47.7570   30.0240   47.1910 C   0  0  0  0  0  0  0  0  0  0  0  0
   46.8590   28.9850   47.1530 C   0  0  0  0  0  0  0  0  0  0  0  0
   45.8350   29.2300   46.9070 H   0  0  0  0  0  0  0  0  0  0  0  0
   47.1940   27.6720   47.4090 C   0  0  0  0  0  0  0  0  0  0  0  0
   46.4730   26.8680   47.3740 H   0  0  0  0  0  0  0  0  0  0  0  0
   48.5140   27.3470   47.7290 C   0  0  0  0  0  3  0  0  0  0  0  0
   49.3600   28.4420   47.7480 C   0  0  0  0  0  3  0  0  0  0  0  0
   49.0500   29.7200   47.5030 N   0  0  0  0  0  0  0  0  0  0  0  0
  1  6  1  0  0  0  0
  2  7  1  0  0  0  0
  2  1  1  0  0  0  0
  3  2  1  0  0  0  0
  3  4  1  0  0  0  0
  4 11  1  0  0  0  0
  4 12  1  0  0  0  0
  4  5  1  0  0  0  0
  5 14  1  0  0  0  0
  5 13  1  0  0  0  0
  6 15  1  6  0  0  0
  6  5  1  0  0  0  0
  6 31  1  0  0  0  0
  8  2  1  0  0  0  0
  9  3  1  0  0  0  0
 10  3  1  0  0  0  0
 16  1  1  0  0  0  0
 16 18  1  0  0  0  0
 17 16  1  0  0  0  0
 19 20  1  0  0  0  0
 19 16  1  0  0  0  0
 21 19  1  0  0  0  0
 22 23  1  0  0  0  0
 23 24  2  0  0  0  0
 23 29  1  0  0  0  0
 24 19  1  0  0  0  0
 25 24  1  0  0  0  0
 26 25  2  0  0  0  0
 27 26  1  0  0  0  0
 27 22  2  0  0  0  0
 28 22  1  0  0  0  0
 30 26  1  0  0  0  0
 31 33  1  0  0  0  0
 33 32  2  6  0  0  0
 33 36  1  0  0  0  0
 33 34  1  0  0  0  0
 34 35  1  0  0  0  0
 36 37  1  0  0  0  0
 37 44  1  0  0  0  0
 38 37  2  0  0  0  0
 38 40  1  0  0  0  0
 39 38  1  0  0  0  0
 40 42  2  0  0  0  0
 41 40  1  0  0  0  0
 42 43  1  0  0  0  0
 44 43  2  0  0  0  0
M  END
>  <minimizedAffinity>
-4.38710785

>  <minimizedRMSD>
1.5084157

$$$$
