
 OpenBabel03252509023D

 44 46  0  0  1  0  0  0  0  0999 V2000
   38.3000   27.3440   42.8020 N   0  0  0  0  0  0  0  0  0  0  0  0
   39.3860   26.5070   43.1560 C   0  0  0  0  0  0  0  0  0  0  0  0
   40.7200   26.8780   42.5410 C   0  0  0  0  0  0  0  0  0  0  0  0
   40.9120   28.3580   42.3510 C   0  0  0  0  0  0  0  0  0  0  0  0
   39.7470   29.1580   42.8740 C   0  0  0  0  0  0  0  0  0  0  0  0
   38.5160   28.5350   42.1290 C   0  0  2  0  0  0  0  0  0  0  0  0
   39.5300   26.6110   44.2650 H   0  0  0  0  0  0  0  0  0  0  0  0
   39.2560   25.4380   42.9820 H   0  0  0  0  0  0  0  0  0  0  0  0
   40.7430   26.3840   41.5390 H   0  0  0  0  0  0  0  0  0  0  0  0
   41.4940   26.4010   43.1730 H   0  0  0  0  0  0  0  0  0  0  0  0
   41.0960   28.6390   41.3100 H   0  0  0  0  0  0  0  0  0  0  0  0
   41.7800   28.6370   43.0040 H   0  0  0  0  0  0  0  0  0  0  0  0
   39.8380   30.1970   42.4730 H   0  0  0  0  0  0  0  0  0  0  0  0
   39.5990   29.1010   43.9570 H   0  0  0  0  0  0  0  0  0  0  0  0
   38.8400   28.5100   41.0760 H   0  0  0  0  0  0  0  0  0  0  0  0
   37.0630   26.6450   42.5680 C   0  0  0  0  0  0  0  0  0  0  0  0
   36.4400   26.7470   43.4790 H   0  0  0  0  0  0  0  0  0  0  0  0
   36.5210   27.1770   41.7360 H   0  0  0  0  0  0  0  0  0  0  0  0
   37.3550   25.2430   42.1660 C   0  0  0  0  0  0  0  0  0  0  0  0
   38.4360   25.0270   42.1060 H   0  0  0  0  0  0  0  0  0  0  0  0
   36.9480   24.5240   42.9240 H   0  0  0  0  0  0  0  0  0  0  0  0
   36.0940   25.6240   38.6450 C   0  0  0  0  0  0  0  0  0  0  0  0
   36.7110   25.9150   39.8840 C   0  0  0  0  0  0  0  0  0  0  0  0
   36.7110   24.9490   40.8620 C   0  0  0  0  0  0  0  0  0  0  0  0
   36.1230   23.7720   40.5930 N   0  0  0  0  0  0  0  0  0  0  0  0
   35.5400   23.5120   39.4050 C   0  0  0  0  0  0  0  0  0  0  0  0
   35.5200   24.4250   38.4320 N   0  0  0  0  0  0  0  0  0  0  0  0
   36.1430   26.4400   37.9420 H   0  0  0  0  0  0  0  0  0  0  0  0
   37.1810   26.8680   40.0890 H   0  0  0  0  0  0  0  0  0  0  0  0
   35.0590   22.5710   39.1650 H   0  0  0  0  0  0  0  0  0  0  0  0
   37.5210   29.4670   42.3980 O   0  0  0  0  0  0  0  0  0  0  0  0
   38.0850   31.6670   41.0230 O   0  0  0  0  0  0  0  0  0  0  0  0
   37.1660   30.4500   41.0650 P   0  0  2  0  0  0  0  0  0  0  0  0
   35.5920   31.0460   41.3110 O   0  0  0  0  0  0  0  0  0  0  0  0
   35.0400   30.3020   41.6420 H   0  0  0  0  0  0  0  0  0  0  0  0
   37.1790   29.5770   39.6440 O   0  0  0  0  0  0  0  0  0  0  0  0
   36.1550   29.3600   38.7680 C   0  0  0  0  0  0  0  0  0  0  0  0
   36.2190   29.4080   37.3960 C   0  0  0  0  0  0  0  0  0  0  0  0
   37.1780   29.6420   36.9570 H   0  0  0  0  0  0  0  0  0  0  0  0
   35.1380   29.1760   36.5700 C   0  0  0  0  0  0  0  0  0  0  0  0
   35.2070   29.2180   35.4920 H   0  0  0  0  0  0  0  0  0  0  0  0
   33.8940   28.8730   37.1300 C   0  0  0  0  0  3  0  0  0  0  0  0
   33.9070   28.8430   38.5130 C   0  0  0  0  0  3  0  0  0  0  0  0
   34.9450   29.0650   39.3260 N   0  0  0  0  0  0  0  0  0  0  0  0
  1  2  1  0  0  0  0
  2  7  1  0  0  0  0
  3  2  1  0  0  0  0
  3 10  1  0  0  0  0
  4  3  1  0  0  0  0
  4  5  1  0  0  0  0
  4 12  1  0  0  0  0
  5 14  1  0  0  0  0
  6 15  1  6  0  0  0
  6 31  1  0  0  0  0
  6  1  1  0  0  0  0
  6  5  1  0  0  0  0
  8  2  1  0  0  0  0
  9  3  1  0  0  0  0
 11  4  1  0  0  0  0
 13  5  1  0  0  0  0
 16  1  1  0  0  0  0
 16 17  1  0  0  0  0
 18 16  1  0  0  0  0
 19 16  1  0  0  0  0
 19 21  1  0  0  0  0
 20 19  1  0  0  0  0
 22 23  1  0  0  0  0
 23 29  1  0  0  0  0
 23 24  2  0  0  0  0
 24 19  1  0  0  0  0
 25 24  1  0  0  0  0
 26 25  2  0  0  0  0
 27 22  2  0  0  0  0
 27 26  1  0  0  0  0
 28 22  1  0  0  0  0
 30 26  1  0  0  0  0
 33 32  2  6  0  0  0
 33 34  1  0  0  0  0
 33 31  1  0  0  0  0
 34 35  1  0  0  0  0
 36 33  1  0  0  0  0
 37 44  1  0  0  0  0
 37 36  1  0  0  0  0
 38 37  2  0  0  0  0
 39 38  1  0  0  0  0
 40 42  2  0  0  0  0
 40 38  1  0  0  0  0
 41 40  1  0  0  0  0
 42 43  1  0  0  0  0
 43 44  2  0  0  0  0
M  END
>  <minimizedAffinity>
-5.29828358

$$$$

 OpenBabel03252509023D

 44 46  0  0  1  0  0  0  0  0999 V2000
   38.8480   28.9740   42.2840 N   0  0  0  0  0  0  0  0  0  0  0  0
   39.2760   27.9420   43.1530 C   0  0  0  0  0  0  0  0  0  0  0  0
   38.2960   26.8020   43.3420 C   0  0  0  0  0  0  0  0  0  0  0  0
   37.4770   26.4950   42.1170 C   0  0  0  0  0  0  0  0  0  0  0  0
   37.8580   27.3580   40.9430 C   0  0  0  0  0  0  0  0  0  0  0  0
   37.7150   28.8170   41.5040 C   0  0  2  0  0  0  0  0  0  0  0  0
   40.1870   27.4790   42.6850 H   0  0  0  0  0  0  0  0  0  0  0  0
   39.5910   28.2440   44.1530 H   0  0  0  0  0  0  0  0  0  0  0  0
   37.6070   27.1240   44.1600 H   0  0  0  0  0  0  0  0  0  0  0  0
   38.8900   25.9440   43.7140 H   0  0  0  0  0  0  0  0  0  0  0  0
   36.4010   26.5810   42.2860 H   0  0  0  0  0  0  0  0  0  0  0  0
   37.7580   25.4500   41.8200 H   0  0  0  0  0  0  0  0  0  0  0  0
   37.0550   27.2610   40.1720 H   0  0  0  0  0  0  0  0  0  0  0  0
   38.8730   27.1990   40.5640 H   0  0  0  0  0  0  0  0  0  0  0  0
   36.7240   28.8090   41.9840 H   0  0  0  0  0  0  0  0  0  0  0  0
   39.1900   30.3030   42.7250 C   0  0  0  0  0  0  0  0  0  0  0  0
   38.3430   30.9710   42.4710 H   0  0  0  0  0  0  0  0  0  0  0  0
   39.2700   30.2810   43.8480 H   0  0  0  0  0  0  0  0  0  0  0  0
   40.4960   30.6990   42.1320 C   0  0  0  0  0  0  0  0  0  0  0  0
   41.2780   30.8780   42.8900 H   0  0  0  0  0  0  0  0  0  0  0  0
   40.8950   29.8800   41.4790 H   0  0  0  0  0  0  0  0  0  0  0  0
   41.2040   33.5280   39.7590 C   0  0  0  0  0  0  0  0  0  0  0  0
   41.3830   32.3720   40.5540 C   0  0  0  0  0  0  0  0  0  0  0  0
   40.3200   31.9110   41.2940 C   0  0  0  0  0  0  0  0  0  0  0  0
   39.1600   32.5830   41.2270 N   0  0  0  0  0  0  0  0  0  0  0  0
   39.0070   33.6840   40.4630 C   0  0  0  0  0  0  0  0  0  0  0  0
   40.0160   34.1610   39.7310 N   0  0  0  0  0  0  0  0  0  0  0  0
   42.0900   33.8120   39.2160 H   0  0  0  0  0  0  0  0  0  0  0  0
   42.3240   31.8380   40.6000 H   0  0  0  0  0  0  0  0  0  0  0  0
   38.0820   34.2430   40.3930 H   0  0  0  0  0  0  0  0  0  0  0  0
   37.7800   29.5740   40.3400 O   0  0  0  0  0  0  0  0  0  0  0  0
   36.5380   31.5360   39.0530 O   0  0  0  0  0  0  0  0  0  0  0  0
   36.3150   30.3410   39.9750 P   0  0  2  0  0  0  0  0  0  0  0  0
   35.7220   30.9710   41.4400 O   0  0  0  0  0  0  0  0  0  0  0  0
   35.8570   30.2870   42.1340 H   0  0  0  0  0  0  0  0  0  0  0  0
   35.1930   29.2610   39.3770 O   0  0  0  0  0  0  0  0  0  0  0  0
   34.7820   29.0870   38.0870 C   0  0  0  0  0  0  0  0  0  0  0  0
   33.4890   28.9430   37.6460 C   0  0  0  0  0  0  0  0  0  0  0  0
   32.7090   28.9690   38.3940 H   0  0  0  0  0  0  0  0  0  0  0  0
   33.1450   28.7700   36.3220 C   0  0  0  0  0  0  0  0  0  0  0  0
   32.1210   28.6580   35.9930 H   0  0  0  0  0  0  0  0  0  0  0  0
   34.1470   28.7350   35.3480 C   0  0  0  0  0  3  0  0  0  0  0  0
   35.4210   28.8860   35.8650 C   0  0  0  0  0  3  0  0  0  0  0  0
   35.7690   29.0550   37.1460 N   0  0  0  0  0  0  0  0  0  0  0  0
  1 16  1  0  0  0  0
  1  2  1  0  0  0  0
  2  3  1  0  0  0  0
  2  8  1  0  0  0  0
  3 10  1  0  0  0  0
  3  9  1  0  0  0  0
  4 11  1  0  0  0  0
  4  3  1  0  0  0  0
  5  6  1  0  0  0  0
  5  4  1  0  0  0  0
  6 15  1  1  0  0  0
  6  1  1  0  0  0  0
  7  2  1  0  0  0  0
 12  4  1  0  0  0  0
 13  5  1  0  0  0  0
 14  5  1  0  0  0  0
 16 18  1  0  0  0  0
 17 16  1  0  0  0  0
 19 16  1  0  0  0  0
 19 20  1  0  0  0  0
 21 19  1  0  0  0  0
 22 23  1  0  0  0  0
 23 29  1  0  0  0  0
 23 24  2  0  0  0  0
 24 19  1  0  0  0  0
 25 24  1  0  0  0  0
 26 25  2  0  0  0  0
 27 22  2  0  0  0  0
 27 26  1  0  0  0  0
 28 22  1  0  0  0  0
 30 26  1  0  0  0  0
 31  6  1  0  0  0  0
 33 32  2  6  0  0  0
 33 31  1  0  0  0  0
 33 34  1  0  0  0  0
 34 35  1  0  0  0  0
 36 33  1  0  0  0  0
 37 36  1  0  0  0  0
 38 37  1  0  0  0  0
 38 39  1  0  0  0  0
 40 38  2  0  0  0  0
 41 40  1  0  0  0  0
 42 43  2  0  0  0  0
 42 40  1  0  0  0  0
 43 44  1  0  0  0  0
 44 37  2  0  0  0  0
M  END
>  <minimizedAffinity>
-5.2899847

$$$$

 OpenBabel03252509023D

 44 46  0  0  1  0  0  0  0  0999 V2000
   38.0550   27.9440   43.0220 N   0  0  0  0  0  0  0  0  0  0  0  0
   39.2150   27.4060   43.6280 C   0  0  0  0  0  0  0  0  0  0  0  0
   40.5320   27.8650   43.0350 C   0  0  0  0  0  0  0  0  0  0  0  0
   40.5090   29.2810   42.5270 C   0  0  0  0  0  0  0  0  0  0  0  0
   39.1860   29.9570   42.7760 C   0  0  0  0  0  0  0  0  0  0  0  0
   38.1510   28.9830   42.1110 C   0  0  2  0  0  0  0  0  0  0  0  0
   39.2250   27.7670   44.6920 H   0  0  0  0  0  0  0  0  0  0  0  0
   39.2720   26.3190   43.6940 H   0  0  0  0  0  0  0  0  0  0  0  0
   40.7360   27.1810   42.1760 H   0  0  0  0  0  0  0  0  0  0  0  0
   41.3000   27.6770   43.8100 H   0  0  0  0  0  0  0  0  0  0  0  0
   40.7540   29.3610   41.4640 H   0  0  0  0  0  0  0  0  0  0  0  0
   41.2510   29.8410   43.1560 H   0  0  0  0  0  0  0  0  0  0  0  0
   39.1540   30.8860   42.1550 H   0  0  0  0  0  0  0  0  0  0  0  0
   38.9370   30.1080   43.8310 H   0  0  0  0  0  0  0  0  0  0  0  0
   38.5830   28.7920   41.1160 H   0  0  0  0  0  0  0  0  0  0  0  0
   36.9730   27.0060   42.8710 C   0  0  0  0  0  0  0  0  0  0  0  0
   36.4340   26.9530   43.8390 H   0  0  0  0  0  0  0  0  0  0  0  0
   36.2530   27.4320   42.1160 H   0  0  0  0  0  0  0  0  0  0  0  0
   37.5090   25.7070   42.3830 C   0  0  0  0  0  0  0  0  0  0  0  0
   38.6120   25.6840   42.3390 H   0  0  0  0  0  0  0  0  0  0  0  0
   37.2200   24.8770   43.0790 H   0  0  0  0  0  0  0  0  0  0  0  0
   36.1170   23.8190   39.4450 C   0  0  0  0  0  0  0  0  0  0  0  0
   36.6530   24.0980   40.7230 C   0  0  0  0  0  0  0  0  0  0  0  0
   36.9460   25.4020   41.0440 C   0  0  0  0  0  0  0  0  0  0  0  0
   36.7070   26.3520   40.1250 N   0  0  0  0  0  0  0  0  0  0  0  0
   36.1950   26.0680   38.9110 C   0  0  0  0  0  0  0  0  0  0  0  0
   35.8990   24.8130   38.5630 N   0  0  0  0  0  0  0  0  0  0  0  0
   35.9210   22.7710   39.2850 H   0  0  0  0  0  0  0  0  0  0  0  0
   36.8420   23.3240   41.4560 H   0  0  0  0  0  0  0  0  0  0  0  0
   35.9950   26.8150   38.1530 H   0  0  0  0  0  0  0  0  0  0  0  0
   37.0000   29.7630   42.0940 O   0  0  0  0  0  0  0  0  0  0  0  0
   35.0900   29.8250   40.2520 O   0  0  0  0  0  0  0  0  0  0  0  0
   36.5390   30.2160   40.5290 P   0  0  2  0  0  0  0  0  0  0  0  0
   37.4940   29.3010   39.4600 O   0  0  0  0  0  0  0  0  0  0  0  0
   38.4130   29.2970   39.8110 H   0  0  0  0  0  0  0  0  0  0  0  0
   36.8390   31.8320   40.2480 O   0  0  0  0  0  0  0  0  0  0  0  0
   38.0280   32.4410   39.9670 C   0  0  0  0  0  0  0  0  0  0  0  0
   38.5120   33.6000   40.5230 C   0  0  0  0  0  0  0  0  0  0  0  0
   37.8910   34.0880   41.2620 H   0  0  0  0  0  0  0  0  0  0  0  0
   39.7280   34.1610   40.1910 C   0  0  0  0  0  0  0  0  0  0  0  0
   40.0930   35.0740   40.6390 H   0  0  0  0  0  0  0  0  0  0  0  0
   40.5370   33.5380   39.2370 C   0  0  0  0  0  3  0  0  0  0  0  0
   39.9850   32.3780   38.7220 C   0  0  0  0  0  3  0  0  0  0  0  0
   38.8090   31.8240   39.0350 N   0  0  0  0  0  0  0  0  0  0  0  0
  1  2  1  0  0  0  0
  2  8  1  0  0  0  0
  2  7  1  0  0  0  0
  3  2  1  0  0  0  0
  3 10  1  0  0  0  0
  4  5  1  0  0  0  0
  4  3  1  0  0  0  0
  4 12  1  0  0  0  0
  5 14  1  0  0  0  0
  6 15  1  6  0  0  0
  6  5  1  0  0  0  0
  6  1  1  0  0  0  0
  9  3  1  0  0  0  0
 11  4  1  0  0  0  0
 13  5  1  0  0  0  0
 16  1  1  0  0  0  0
 16 17  1  0  0  0  0
 18 16  1  0  0  0  0
 19 16  1  0  0  0  0
 19 21  1  0  0  0  0
 20 19  1  0  0  0  0
 22 23  1  0  0  0  0
 23 24  2  0  0  0  0
 23 29  1  0  0  0  0
 24 19  1  0  0  0  0
 25 24  1  0  0  0  0
 26 25  2  0  0  0  0
 27 26  1  0  0  0  0
 27 22  2  0  0  0  0
 28 22  1  0  0  0  0
 30 26  1  0  0  0  0
 31  6  1  0  0  0  0
 33 32  2  6  0  0  0
 33 31  1  0  0  0  0
 34 35  1  0  0  0  0
 34 33  1  0  0  0  0
 36 33  1  0  0  0  0
 37 36  1  0  0  0  0
 37 38  1  0  0  0  0
 38 39  1  0  0  0  0
 40 38  2  0  0  0  0
 40 41  1  0  0  0  0
 42 40  1  0  0  0  0
 43 44  1  0  0  0  0
 43 42  2  0  0  0  0
 44 37  2  0  0  0  0
M  END
>  <minimizedAffinity>
-5.23960257

$$$$

 OpenBabel03252509023D

 44 46  0  0  1  0  0  0  0  0999 V2000
   40.5030   31.3250   40.9410 N   0  0  0  0  0  0  0  0  0  0  0  0
   41.7290   31.9960   40.7210 C   0  0  0  0  0  0  0  0  0  0  0  0
   41.6580   33.1930   39.7930 C   0  0  0  0  0  0  0  0  0  0  0  0
   40.3620   33.9520   39.8790 C   0  0  0  0  0  0  0  0  0  0  0  0
   39.4340   33.3860   40.9220 C   0  0  0  0  0  0  0  0  0  0  0  0
   39.3070   31.8760   40.5120 C   0  0  2  0  0  0  0  0  0  0  0  0
   42.0580   32.4080   41.7130 H   0  0  0  0  0  0  0  0  0  0  0  0
   42.5640   31.3880   40.3710 H   0  0  0  0  0  0  0  0  0  0  0  0
   41.7640   32.7850   38.7590 H   0  0  0  0  0  0  0  0  0  0  0  0
   42.5540   33.8050   40.0120 H   0  0  0  0  0  0  0  0  0  0  0  0
   39.8310   34.0080   38.9250 H   0  0  0  0  0  0  0  0  0  0  0  0
   40.6340   34.9760   40.2500 H   0  0  0  0  0  0  0  0  0  0  0  0
   38.4190   33.8220   40.7510 H   0  0  0  0  0  0  0  0  0  0  0  0
   39.7950   33.4670   41.9520 H   0  0  0  0  0  0  0  0  0  0  0  0
   39.0890   31.9220   39.4340 H   0  0  0  0  0  0  0  0  0  0  0  0
   40.6110   29.8890   40.9860 C   0  0  0  0  0  0  0  0  0  0  0  0
   39.8800   29.4730   40.2640 H   0  0  0  0  0  0  0  0  0  0  0  0
   41.6370   29.6110   40.6130 H   0  0  0  0  0  0  0  0  0  0  0  0
   40.4390   29.4230   42.3880 C   0  0  0  0  0  0  0  0  0  0  0  0
   41.1770   29.8610   43.0830 H   0  0  0  0  0  0  0  0  0  0  0  0
   39.4360   29.7330   42.7840 H   0  0  0  0  0  0  0  0  0  0  0  0
   40.3980   25.8920   43.6770 C   0  0  0  0  0  0  0  0  0  0  0  0
   40.3220   27.3040   43.6410 C   0  0  0  0  0  0  0  0  0  0  0  0
   40.5160   27.9420   42.4390 C   0  0  0  0  0  0  0  0  0  0  0  0
   40.7700   27.1930   41.3540 N   0  0  0  0  0  0  0  0  0  0  0  0
   40.8390   25.8470   41.4080 C   0  0  0  0  0  0  0  0  0  0  0  0
   40.6560   25.1920   42.5570 N   0  0  0  0  0  0  0  0  0  0  0  0
   40.2330   25.4820   44.6600 H   0  0  0  0  0  0  0  0  0  0  0  0
   40.1170   27.8970   44.5220 H   0  0  0  0  0  0  0  0  0  0  0  0
   41.0430   25.2210   40.5470 H   0  0  0  0  0  0  0  0  0  0  0  0
   38.2370   31.4610   41.2940 O   0  0  0  0  0  0  0  0  0  0  0  0
   36.6810   31.8000   39.1700 O   0  0  0  0  0  0  0  0  0  0  0  0
   36.9320   30.8960   40.3730 P   0  0  2  0  0  0  0  0  0  0  0  0
   35.5530   31.0210   41.3610 O   0  0  0  0  0  0  0  0  0  0  0  0
   35.8020   30.7080   42.2600 H   0  0  0  0  0  0  0  0  0  0  0  0
   37.1310   29.2950   39.9510 O   0  0  0  0  0  0  0  0  0  0  0  0
   37.0780   28.1910   40.7510 C   0  0  0  0  0  0  0  0  0  0  0  0
   37.2470   26.8830   40.3640 C   0  0  0  0  0  0  0  0  0  0  0  0
   37.4410   26.7020   39.3160 H   0  0  0  0  0  0  0  0  0  0  0  0
   37.1800   25.8120   41.2310 C   0  0  0  0  0  0  0  0  0  0  0  0
   37.3150   24.7890   40.9080 H   0  0  0  0  0  0  0  0  0  0  0  0
   36.9290   26.0370   42.5870 C   0  0  0  0  0  3  0  0  0  0  0  0
   36.7710   27.3750   42.9020 C   0  0  0  0  0  3  0  0  0  0  0  0
   36.8330   28.4220   42.0730 N   0  0  0  0  0  0  0  0  0  0  0  0
  1 16  1  0  0  0  0
  2  1  1  0  0  0  0
  2  7  1  0  0  0  0
  3  4  1  0  0  0  0
  3 10  1  0  0  0  0
  3  2  1  0  0  0  0
  4 12  1  0  0  0  0
  4  5  1  0  0  0  0
  5 14  1  0  0  0  0
  6 15  1  6  0  0  0
  6  5  1  0  0  0  0
  6  1  1  0  0  0  0
  6 31  1  0  0  0  0
  8  2  1  0  0  0  0
  9  3  1  0  0  0  0
 11  4  1  0  0  0  0
 13  5  1  0  0  0  0
 16 19  1  0  0  0  0
 17 16  1  0  0  0  0
 18 16  1  0  0  0  0
 19 24  1  0  0  0  0
 19 21  1  0  0  0  0
 19 20  1  0  0  0  0
 22 28  1  0  0  0  0
 23 22  1  0  0  0  0
 23 29  1  0  0  0  0
 24 23  2  0  0  0  0
 25 26  2  0  0  0  0
 25 24  1  0  0  0  0
 26 27  1  0  0  0  0
 27 22  2  0  0  0  0
 30 26  1  0  0  0  0
 33 32  2  6  0  0  0
 33 31  1  0  0  0  0
 33 34  1  0  0  0  0
 34 35  1  0  0  0  0
 36 33  1  0  0  0  0
 36 37  1  0  0  0  0
 37 44  1  0  0  0  0
 38 37  2  0  0  0  0
 38 40  1  0  0  0  0
 39 38  1  0  0  0  0
 40 42  2  0  0  0  0
 41 40  1  0  0  0  0
 42 43  1  0  0  0  0
 44 43  2  0  0  0  0
M  END
>  <minimizedAffinity>
-5.19288015

$$$$

 OpenBabel03252509023D

 44 46  0  0  1  0  0  0  0  0999 V2000
   38.2360   28.7300   37.8570 N   0  0  0  0  0  0  0  0  0  0  0  0
   38.1260   28.0990   36.5940 C   0  0  0  0  0  0  0  0  0  0  0  0
   36.9390   28.5260   35.7550 C   0  0  0  0  0  0  0  0  0  0  0  0
   36.5520   29.9680   35.9370 C   0  0  0  0  0  0  0  0  0  0  0  0
   37.4770   30.6940   36.8790 C   0  0  0  0  0  0  0  0  0  0  0  0
   37.4360   29.8140   38.1770 C   0  0  2  0  0  0  0  0  0  0  0  0
   39.0330   28.3970   36.0010 H   0  0  0  0  0  0  0  0  0  0  0  0
   38.1270   27.0090   36.5910 H   0  0  0  0  0  0  0  0  0  0  0  0
   36.0860   27.8830   36.0830 H   0  0  0  0  0  0  0  0  0  0  0  0
   37.1870   28.2550   34.7100 H   0  0  0  0  0  0  0  0  0  0  0  0
   35.5220   30.0980   36.2810 H   0  0  0  0  0  0  0  0  0  0  0  0
   36.7080   30.4530   34.9370 H   0  0  0  0  0  0  0  0  0  0  0  0
   36.9880   31.6580   37.1640 H   0  0  0  0  0  0  0  0  0  0  0  0
   38.5080   30.7950   36.5260 H   0  0  0  0  0  0  0  0  0  0  0  0
   36.3580   29.6600   38.3470 H   0  0  0  0  0  0  0  0  0  0  0  0
   38.6560   27.8570   38.9230 C   0  0  0  0  0  0  0  0  0  0  0  0
   39.4400   27.1850   38.5190 H   0  0  0  0  0  0  0  0  0  0  0  0
   39.1420   28.4930   39.7150 H   0  0  0  0  0  0  0  0  0  0  0  0
   37.4690   27.1620   39.4900 C   0  0  0  0  0  0  0  0  0  0  0  0
   36.8390   27.8200   40.1130 H   0  0  0  0  0  0  0  0  0  0  0  0
   36.7990   26.7960   38.6680 H   0  0  0  0  0  0  0  0  0  0  0  0
   37.4120   24.1990   41.8040 C   0  0  0  0  0  0  0  0  0  0  0  0
   36.9840   25.3170   41.0520 C   0  0  0  0  0  0  0  0  0  0  0  0
   37.9070   25.9870   40.2830 C   0  0  0  0  0  0  0  0  0  0  0  0
   39.1750   25.5440   40.2840 N   0  0  0  0  0  0  0  0  0  0  0  0
   39.5660   24.4760   41.0080 C   0  0  0  0  0  0  0  0  0  0  0  0
   38.6970   23.8010   41.7650 N   0  0  0  0  0  0  0  0  0  0  0  0
   36.6210   23.7400   42.3730 H   0  0  0  0  0  0  0  0  0  0  0  0
   35.9590   25.6640   41.0590 H   0  0  0  0  0  0  0  0  0  0  0  0
   40.5820   24.1010   41.0250 H   0  0  0  0  0  0  0  0  0  0  0  0
   38.0460   30.6500   39.1050 O   0  0  0  0  0  0  0  0  0  0  0  0
   35.7070   30.2850   40.3070 O   0  0  0  0  0  0  0  0  0  0  0  0
   37.0350   31.0290   40.4100 P   0  0  2  0  0  0  0  0  0  0  0  0
   36.6680   32.6840   40.2710 O   0  0  0  0  0  0  0  0  0  0  0  0
   37.4980   33.1540   40.0300 H   0  0  0  0  0  0  0  0  0  0  0  0
   37.8040   30.7840   41.8690 O   0  0  0  0  0  0  0  0  0  0  0  0
   38.2250   29.6090   42.4230 C   0  0  0  0  0  0  0  0  0  0  0  0
   37.4680   28.7210   43.1470 C   0  0  0  0  0  0  0  0  0  0  0  0
   36.4270   28.9710   43.2990 H   0  0  0  0  0  0  0  0  0  0  0  0
   37.9620   27.5480   43.6790 C   0  0  0  0  0  0  0  0  0  0  0  0
   37.3500   26.8600   44.2470 H   0  0  0  0  0  0  0  0  0  0  0  0
   39.3060   27.2160   43.4890 C   0  0  0  0  0  3  0  0  0  0  0  0
   40.0040   28.1560   42.7510 C   0  0  0  0  0  3  0  0  0  0  0  0
   39.5390   29.2960   42.2300 N   0  0  0  0  0  0  0  0  0  0  0  0
  1  6  1  0  0  0  0
  1 16  1  0  0  0  0
  2  1  1  0  0  0  0
  3  4  1  0  0  0  0
  3  9  1  0  0  0  0
  3  2  1  0  0  0  0
  4 11  1  0  0  0  0
  4  5  1  0  0  0  0
  5 13  1  0  0  0  0
  5  6  1  0  0  0  0
  6 15  1  1  0  0  0
  6 31  1  0  0  0  0
  7  2  1  0  0  0  0
  8  2  1  0  0  0  0
 10  3  1  0  0  0  0
 12  4  1  0  0  0  0
 14  5  1  0  0  0  0
 16 19  1  0  0  0  0
 16 18  1  0  0  0  0
 17 16  1  0  0  0  0
 19 20  1  0  0  0  0
 19 24  1  0  0  0  0
 21 19  1  0  0  0  0
 22 28  1  0  0  0  0
 23 29  1  0  0  0  0
 23 22  2  0  0  0  0
 24 25  2  0  0  0  0
 24 23  1  0  0  0  0
 25 26  1  0  0  0  0
 26 30  1  0  0  0  0
 26 27  2  0  0  0  0
 27 22  1  0  0  0  0
 31 33  1  0  0  0  0
 33 32  2  6  0  0  0
 33 36  1  0  0  0  0
 34 33  1  0  0  0  0
 35 34  1  0  0  0  0
 36 37  1  0  0  0  0
 37 38  1  0  0  0  0
 38 39  1  0  0  0  0
 38 40  2  0  0  0  0
 40 41  1  0  0  0  0
 42 40  1  0  0  0  0
 43 42  2  0  0  0  0
 44 37  2  0  0  0  0
 44 43  1  0  0  0  0
M  END
>  <minimizedAffinity>
-5.16280556

$$$$

 OpenBabel03252509023D

 44 46  0  0  1  0  0  0  0  0999 V2000
   35.9260   29.4370   38.5150 N   0  0  0  0  0  0  0  0  0  0  0  0
   34.7880   28.7140   38.0850 C   0  0  0  0  0  0  0  0  0  0  0  0
   34.3770   28.9440   36.6450 C   0  0  0  0  0  0  0  0  0  0  0  0
   35.5330   29.1950   35.7150 C   0  0  0  0  0  0  0  0  0  0  0  0
   36.8630   29.1020   36.4180 C   0  0  0  0  0  0  0  0  0  0  0  0
   36.7180   30.1170   37.6050 C   0  0  2  0  0  0  0  0  0  0  0  0
   35.0510   27.6230   38.1500 H   0  0  0  0  0  0  0  0  0  0  0  0
   33.8830   28.8270   38.6830 H   0  0  0  0  0  0  0  0  0  0  0  0
   33.7240   29.8510   36.6540 H   0  0  0  0  0  0  0  0  0  0  0  0
   33.7510   28.0760   36.3610 H   0  0  0  0  0  0  0  0  0  0  0  0
   35.4710   30.1570   35.2000 H   0  0  0  0  0  0  0  0  0  0  0  0
   35.5250   28.3440   34.9840 H   0  0  0  0  0  0  0  0  0  0  0  0
   37.6370   29.5460   35.7450 H   0  0  0  0  0  0  0  0  0  0  0  0
   37.1130   28.1070   36.8020 H   0  0  0  0  0  0  0  0  0  0  0  0
   36.3250   31.0240   37.1180 H   0  0  0  0  0  0  0  0  0  0  0  0
   35.8280   29.9610   39.8540 C   0  0  0  0  0  0  0  0  0  0  0  0
   36.7630   30.5160   40.0680 H   0  0  0  0  0  0  0  0  0  0  0  0
   34.9880   30.7110   39.8670 H   0  0  0  0  0  0  0  0  0  0  0  0
   35.5300   28.8510   40.7980 C   0  0  0  0  0  0  0  0  0  0  0  0
   34.6270   29.0320   41.4080 H   0  0  0  0  0  0  0  0  0  0  0  0
   35.3270   27.9010   40.2370 H   0  0  0  0  0  0  0  0  0  0  0  0
   38.0900   27.1320   42.9490 C   0  0  0  0  0  0  0  0  0  0  0  0
   36.9750   27.3400   42.1040 C   0  0  0  0  0  0  0  0  0  0  0  0
   36.6970   28.6200   41.6850 C   0  0  0  0  0  0  0  0  0  0  0  0
   37.4990   29.6130   42.1000 N   0  0  0  0  0  0  0  0  0  0  0  0
   38.5580   29.3960   42.9070 C   0  0  0  0  0  0  0  0  0  0  0  0
   38.8600   28.1670   43.3330 N   0  0  0  0  0  0  0  0  0  0  0  0
   38.2290   26.0990   43.2240 H   0  0  0  0  0  0  0  0  0  0  0  0
   36.3360   26.5310   41.7760 H   0  0  0  0  0  0  0  0  0  0  0  0
   39.2190   30.1800   43.2550 H   0  0  0  0  0  0  0  0  0  0  0  0
   38.0320   30.2280   38.0440 O   0  0  0  0  0  0  0  0  0  0  0  0
   37.3250   32.7730   38.3130 O   0  0  0  0  0  0  0  0  0  0  0  0
   38.5270   31.8370   38.2280 P   0  0  2  0  0  0  0  0  0  0  0  0
   39.3570   32.2530   36.8020 O   0  0  0  0  0  0  0  0  0  0  0  0
   39.9370   31.4950   36.5640 H   0  0  0  0  0  0  0  0  0  0  0  0
   39.5750   32.0090   39.5130 O   0  0  0  0  0  0  0  0  0  0  0  0
   40.8400   32.5230   39.5180 C   0  0  0  0  0  0  0  0  0  0  0  0
   41.9170   32.0570   40.2340 C   0  0  0  0  0  0  0  0  0  0  0  0
   41.7520   31.1930   40.8620 H   0  0  0  0  0  0  0  0  0  0  0  0
   43.1710   32.6290   40.1900 C   0  0  0  0  0  0  0  0  0  0  0  0
   44.0070   32.2480   40.7600 H   0  0  0  0  0  0  0  0  0  0  0  0
   43.3930   33.7470   39.3820 C   0  0  0  0  0  3  0  0  0  0  0  0
   42.2650   34.1580   38.6930 C   0  0  0  0  0  3  0  0  0  0  0  0
   41.0440   33.6140   38.7250 N   0  0  0  0  0  0  0  0  0  0  0  0
  1 16  1  0  0  0  0
  2  7  1  0  0  0  0
  2  1  1  0  0  0  0
  2  8  1  0  0  0  0
  3  9  1  0  0  0  0
  3  2  1  0  0  0  0
  4  5  1  0  0  0  0
  4  3  1  0  0  0  0
  5 14  1  0  0  0  0
  5  6  1  0  0  0  0
  6 15  1  6  0  0  0
  6 31  1  0  0  0  0
  6  1  1  0  0  0  0
 10  3  1  0  0  0  0
 11  4  1  0  0  0  0
 12  4  1  0  0  0  0
 13  5  1  0  0  0  0
 16 18  1  0  0  0  0
 16 17  1  0  0  0  0
 16 19  1  0  0  0  0
 19 20  1  0  0  0  0
 19 24  1  0  0  0  0
 21 19  1  0  0  0  0
 22 28  1  0  0  0  0
 22 27  1  0  0  0  0
 23 22  2  0  0  0  0
 24 25  2  0  0  0  0
 24 23  1  0  0  0  0
 25 26  1  0  0  0  0
 26 30  1  0  0  0  0
 26 27  2  0  0  0  0
 29 23  1  0  0  0  0
 31 33  1  0  0  0  0
 33 32  2  1  0  0  0
 33 36  1  0  0  0  0
 34 33  1  0  0  0  0
 35 34  1  0  0  0  0
 36 37  1  0  0  0  0
 37 38  1  0  0  0  0
 38 39  1  0  0  0  0
 40 38  2  0  0  0  0
 40 41  1  0  0  0  0
 42 40  1  0  0  0  0
 43 44  1  0  0  0  0
 43 42  2  0  0  0  0
 44 37  2  0  0  0  0
M  END
>  <minimizedAffinity>
-5.15870476

$$$$

 OpenBabel03252509023D

 44 46  0  0  1  0  0  0  0  0999 V2000
   38.2090   32.0610   40.6780 N   0  0  0  0  0  0  0  0  0  0  0  0
   37.3810   32.5270   39.6290 C   0  0  0  0  0  0  0  0  0  0  0  0
   36.9790   31.4850   38.6050 C   0  0  0  0  0  0  0  0  0  0  0  0
   36.8030   30.1050   39.1770 C   0  0  0  0  0  0  0  0  0  0  0  0
   37.0070   30.0740   40.6700 C   0  0  0  0  0  0  0  0  0  0  0  0
   38.4320   30.7050   40.8530 C   0  0  2  0  0  0  0  0  0  0  0  0
   36.4190   32.8670   40.1010 H   0  0  0  0  0  0  0  0  0  0  0  0
   37.7430   33.3870   39.0650 H   0  0  0  0  0  0  0  0  0  0  0  0
   37.8080   31.4570   37.8560 H   0  0  0  0  0  0  0  0  0  0  0  0
   36.0770   31.8820   38.0990 H   0  0  0  0  0  0  0  0  0  0  0  0
   37.4550   29.3600   38.7140 H   0  0  0  0  0  0  0  0  0  0  0  0
   35.7220   29.8490   39.0220 H   0  0  0  0  0  0  0  0  0  0  0  0
   37.1180   29.0060   40.9780 H   0  0  0  0  0  0  0  0  0  0  0  0
   36.2690   30.6390   41.2480 H   0  0  0  0  0  0  0  0  0  0  0  0
   39.0490   30.1590   40.1220 H   0  0  0  0  0  0  0  0  0  0  0  0
   39.2530   32.9760   41.0620 C   0  0  0  0  0  0  0  0  0  0  0  0
   38.9740   33.4140   42.0420 H   0  0  0  0  0  0  0  0  0  0  0  0
   40.1920   32.3760   41.2250 H   0  0  0  0  0  0  0  0  0  0  0  0
   39.4680   33.9670   39.9740 C   0  0  0  0  0  0  0  0  0  0  0  0
   38.7280   33.8810   39.1590 H   0  0  0  0  0  0  0  0  0  0  0  0
   39.3590   35.0120   40.3670 H   0  0  0  0  0  0  0  0  0  0  0  0
   43.2150   34.0180   39.6810 C   0  0  0  0  0  0  0  0  0  0  0  0
   41.9130   34.1610   40.2140 C   0  0  0  0  0  0  0  0  0  0  0  0
   40.8390   33.8220   39.4260 C   0  0  0  0  0  0  0  0  0  0  0  0
   41.0780   33.3710   38.1840 N   0  0  0  0  0  0  0  0  0  0  0  0
   42.3270   33.2420   37.6920 C   0  0  0  0  0  0  0  0  0  0  0  0
   43.3950   33.5600   38.4280 N   0  0  0  0  0  0  0  0  0  0  0  0
   43.9920   34.3070   40.3700 H   0  0  0  0  0  0  0  0  0  0  0  0
   41.7330   34.5250   41.2170 H   0  0  0  0  0  0  0  0  0  0  0  0
   42.5450   32.8810   36.6940 H   0  0  0  0  0  0  0  0  0  0  0  0
   38.7100   30.3950   42.1790 O   0  0  0  0  0  0  0  0  0  0  0  0
   41.2160   29.7830   42.8060 O   0  0  0  0  0  0  0  0  0  0  0  0
   39.8910   29.1910   42.3360 P   0  0  2  0  0  0  0  0  0  0  0  0
   40.1680   28.5790   40.7730 O   0  0  0  0  0  0  0  0  0  0  0  0
   39.2930   28.4740   40.3360 H   0  0  0  0  0  0  0  0  0  0  0  0
   39.3610   27.9400   43.3030 O   0  0  0  0  0  0  0  0  0  0  0  0
   38.8050   26.7500   42.9280 C   0  0  0  0  0  0  0  0  0  0  0  0
   37.5240   26.5450   42.4770 C   0  0  0  0  0  0  0  0  0  0  0  0
   36.8810   27.4120   42.4100 H   0  0  0  0  0  0  0  0  0  0  0  0
   37.0270   25.3100   42.1140 C   0  0  0  0  0  0  0  0  0  0  0  0
   36.0150   25.1680   41.7620 H   0  0  0  0  0  0  0  0  0  0  0  0
   37.8500   24.1840   42.1990 C   0  0  0  0  0  3  0  0  0  0  0  0
   39.1240   24.4680   42.6600 C   0  0  0  0  0  3  0  0  0  0  0  0
   39.6180   25.6580   43.0150 N   0  0  0  0  0  0  0  0  0  0  0  0
  1  6  1  0  0  0  0
  1 16  1  0  0  0  0
  2  7  1  0  0  0  0
  2  1  1  0  0  0  0
  3  4  1  0  0  0  0
  3  2  1  0  0  0  0
  4  5  1  0  0  0  0
  5  6  1  0  0  0  0
  5 13  1  0  0  0  0
  5 14  1  0  0  0  0
  6 15  1  6  0  0  0
  6 31  1  0  0  0  0
  8  2  1  0  0  0  0
  9  3  1  0  0  0  0
 10  3  1  0  0  0  0
 11  4  1  0  0  0  0
 12  4  1  0  0  0  0
 16 18  1  0  0  0  0
 16 17  1  0  0  0  0
 19 21  1  0  0  0  0
 19 16  1  0  0  0  0
 20 19  1  0  0  0  0
 22 23  1  0  0  0  0
 22 28  1  0  0  0  0
 23 29  1  0  0  0  0
 24 19  1  0  0  0  0
 24 23  2  0  0  0  0
 25 24  1  0  0  0  0
 26 25  2  0  0  0  0
 26 27  1  0  0  0  0
 27 22  2  0  0  0  0
 30 26  1  0  0  0  0
 31 33  1  0  0  0  0
 33 32  2  1  0  0  0
 33 36  1  0  0  0  0
 34 33  1  0  0  0  0
 35 34  1  0  0  0  0
 37 44  1  0  0  0  0
 37 36  1  0  0  0  0
 38 37  2  0  0  0  0
 39 38  1  0  0  0  0
 40 42  2  0  0  0  0
 40 38  1  0  0  0  0
 41 40  1  0  0  0  0
 42 43  1  0  0  0  0
 43 44  2  0  0  0  0
M  END
>  <minimizedAffinity>
-5.14748955

$$$$

 OpenBabel03252509023D

 44 46  0  0  1  0  0  0  0  0999 V2000
   38.3520   31.3780   39.2860 N   0  0  0  0  0  0  0  0  0  0  0  0
   37.5290   32.3740   38.7100 C   0  0  0  0  0  0  0  0  0  0  0  0
   37.3250   33.6170   39.5530 C   0  0  0  0  0  0  0  0  0  0  0  0
   38.5190   33.9860   40.3910 C   0  0  0  0  0  0  0  0  0  0  0  0
   39.6880   33.0640   40.1600 C   0  0  0  0  0  0  0  0  0  0  0  0
   39.0860   31.6410   40.4320 C   0  0  2  0  0  0  0  0  0  0  0  0
   38.0490   32.7280   37.7790 H   0  0  0  0  0  0  0  0  0  0  0  0
   36.5370   32.0610   38.3840 H   0  0  0  0  0  0  0  0  0  0  0  0
   36.4690   33.3880   40.2340 H   0  0  0  0  0  0  0  0  0  0  0  0
   37.0010   34.4130   38.8550 H   0  0  0  0  0  0  0  0  0  0  0  0
   38.3000   34.0200   41.4620 H   0  0  0  0  0  0  0  0  0  0  0  0
   38.8540   34.9890   40.0160 H   0  0  0  0  0  0  0  0  0  0  0  0
   40.4240   33.2330   40.9840 H   0  0  0  0  0  0  0  0  0  0  0  0
   40.1150   33.1060   39.1530 H   0  0  0  0  0  0  0  0  0  0  0  0
   38.5620   31.7650   41.3930 H   0  0  0  0  0  0  0  0  0  0  0  0
   37.8950   30.0290   39.0680 C   0  0  0  0  0  0  0  0  0  0  0  0
   38.6720   29.3420   39.4600 H   0  0  0  0  0  0  0  0  0  0  0  0
   36.9710   29.8750   39.6930 H   0  0  0  0  0  0  0  0  0  0  0  0
   37.5690   29.8450   37.6280 C   0  0  0  0  0  0  0  0  0  0  0  0
   37.5050   30.7980   37.0740 H   0  0  0  0  0  0  0  0  0  0  0  0
   38.3730   29.2550   37.1160 H   0  0  0  0  0  0  0  0  0  0  0  0
   34.0490   28.6640   38.2160 C   0  0  0  0  0  0  0  0  0  0  0  0
   35.2600   29.3820   38.3540 C   0  0  0  0  0  0  0  0  0  0  0  0
   36.2940   29.0990   37.4930 C   0  0  0  0  0  0  0  0  0  0  0  0
   36.1040   28.1520   36.5600 N   0  0  0  0  0  0  0  0  0  0  0  0
   34.9420   27.4780   36.4430 C   0  0  0  0  0  0  0  0  0  0  0  0
   33.9150   27.7250   37.2600 N   0  0  0  0  0  0  0  0  0  0  0  0
   33.2980   28.9530   38.9330 H   0  0  0  0  0  0  0  0  0  0  0  0
   35.4010   30.1420   39.1100 H   0  0  0  0  0  0  0  0  0  0  0  0
   34.7650   26.7110   35.6990 H   0  0  0  0  0  0  0  0  0  0  0  0
   40.2320   30.8590   40.5030 O   0  0  0  0  0  0  0  0  0  0  0  0
   41.4650   31.3580   42.8000 O   0  0  0  0  0  0  0  0  0  0  0  0
   40.5790   30.3470   42.0790 P   0  0  2  0  0  0  0  0  0  0  0  0
   41.4990   28.9230   41.9330 O   0  0  0  0  0  0  0  0  0  0  0  0
   41.0880   28.3750   41.2260 H   0  0  0  0  0  0  0  0  0  0  0  0
   39.1870   29.9870   42.9240 O   0  0  0  0  0  0  0  0  0  0  0  0
   38.4220   28.8570   42.8650 C   0  0  0  0  0  0  0  0  0  0  0  0
   37.3590   28.5380   43.6730 C   0  0  0  0  0  0  0  0  0  0  0  0
   37.0930   29.2520   44.4410 H   0  0  0  0  0  0  0  0  0  0  0  0
   36.6280   27.3740   43.5560 C   0  0  0  0  0  0  0  0  0  0  0  0
   35.7940   27.1400   44.2020 H   0  0  0  0  0  0  0  0  0  0  0  0
   36.9650   26.4450   42.5670 C   0  0  0  0  0  3  0  0  0  0  0  0
   38.0440   26.8340   41.7930 C   0  0  0  0  0  3  0  0  0  0  0  0
   38.7600   27.9580   41.8960 N   0  0  0  0  0  0  0  0  0  0  0  0
  1  6  1  0  0  0  0
  2  1  1  0  0  0  0
  2  3  1  0  0  0  0
  3  9  1  0  0  0  0
  3  4  1  0  0  0  0
  4 11  1  0  0  0  0
  5  4  1  0  0  0  0
  5  6  1  0  0  0  0
  5 13  1  0  0  0  0
  6 31  1  0  0  0  0
  6 15  1  1  0  0  0
  7  2  1  0  0  0  0
  8  2  1  0  0  0  0
 10  3  1  0  0  0  0
 12  4  1  0  0  0  0
 14  5  1  0  0  0  0
 16  1  1  0  0  0  0
 16 17  1  0  0  0  0
 16 18  1  0  0  0  0
 19 16  1  0  0  0  0
 20 19  1  0  0  0  0
 21 19  1  0  0  0  0
 22 23  1  0  0  0  0
 22 28  1  0  0  0  0
 23 29  1  0  0  0  0
 24 19  1  0  0  0  0
 24 23  2  0  0  0  0
 25 24  1  0  0  0  0
 26 25  2  0  0  0  0
 26 27  1  0  0  0  0
 27 22  2  0  0  0  0
 30 26  1  0  0  0  0
 31 33  1  0  0  0  0
 33 32  2  1  0  0  0
 33 36  1  0  0  0  0
 34 33  1  0  0  0  0
 35 34  1  0  0  0  0
 37 36  1  0  0  0  0
 37 38  1  0  0  0  0
 38 39  1  0  0  0  0
 40 38  2  0  0  0  0
 40 41  1  0  0  0  0
 42 40  1  0  0  0  0
 43 44  1  0  0  0  0
 43 42  2  0  0  0  0
 44 37  2  0  0  0  0
M  END
>  <minimizedAffinity>
-5.11199474

$$$$

 OpenBabel03252509023D

 44 46  0  0  1  0  0  0  0  0999 V2000
   36.3190   29.8890   40.7340 N   0  0  0  0  0  0  0  0  0  0  0  0
   35.3160   29.2700   39.9520 C   0  0  0  0  0  0  0  0  0  0  0  0
   35.6880   27.9250   39.3620 C   0  0  0  0  0  0  0  0  0  0  0  0
   36.6040   27.1100   40.2350 C   0  0  0  0  0  0  0  0  0  0  0  0
   36.9040   27.7930   41.5440 C   0  0  0  0  0  0  0  0  0  0  0  0
   37.4580   29.1930   41.1030 C   0  0  2  0  0  0  0  0  0  0  0  0
   34.4490   29.0650   40.6370 H   0  0  0  0  0  0  0  0  0  0  0  0
   34.9020   29.8580   39.1330 H   0  0  0  0  0  0  0  0  0  0  0  0
   36.2150   28.1470   38.4020 H   0  0  0  0  0  0  0  0  0  0  0  0
   34.7330   27.4210   39.1170 H   0  0  0  0  0  0  0  0  0  0  0  0
   37.5470   26.8500   39.7460 H   0  0  0  0  0  0  0  0  0  0  0  0
   36.0230   26.1900   40.5070 H   0  0  0  0  0  0  0  0  0  0  0  0
   37.7720   27.2680   42.0130 H   0  0  0  0  0  0  0  0  0  0  0  0
   36.0410   27.9220   42.2050 H   0  0  0  0  0  0  0  0  0  0  0  0
   38.2100   28.9410   40.3380 H   0  0  0  0  0  0  0  0  0  0  0  0
   36.4250   31.3140   40.5480 C   0  0  0  0  0  0  0  0  0  0  0  0
   35.4170   31.7490   40.7010 H   0  0  0  0  0  0  0  0  0  0  0  0
   37.0870   31.7180   41.3640 H   0  0  0  0  0  0  0  0  0  0  0  0
   37.0310   31.5940   39.2180 C   0  0  0  0  0  0  0  0  0  0  0  0
   37.2600   30.6790   38.6450 H   0  0  0  0  0  0  0  0  0  0  0  0
   36.3190   32.1770   38.5770 H   0  0  0  0  0  0  0  0  0  0  0  0
   39.4650   34.1610   40.4910 C   0  0  0  0  0  0  0  0  0  0  0  0
   38.2850   33.3970   40.3380 C   0  0  0  0  0  0  0  0  0  0  0  0
   38.2630   32.4030   39.3890 C   0  0  0  0  0  0  0  0  0  0  0  0
   39.3680   32.2040   38.6510 N   0  0  0  0  0  0  0  0  0  0  0  0
   40.4850   32.9420   38.8110 C   0  0  0  0  0  0  0  0  0  0  0  0
   40.5430   33.9160   39.7230 N   0  0  0  0  0  0  0  0  0  0  0  0
   39.3880   34.9150   41.2580 H   0  0  0  0  0  0  0  0  0  0  0  0
   37.4010   33.5670   40.9390 H   0  0  0  0  0  0  0  0  0  0  0  0
   41.3870   32.8010   38.2280 H   0  0  0  0  0  0  0  0  0  0  0  0
   37.9940   29.6720   42.2930 O   0  0  0  0  0  0  0  0  0  0  0  0
   40.1120   31.1840   42.8140 O   0  0  0  0  0  0  0  0  0  0  0  0
   39.6780   29.8420   42.2320 P   0  0  2  0  0  0  0  0  0  0  0  0
   40.1000   29.8760   40.5850 O   0  0  0  0  0  0  0  0  0  0  0  0
   39.5750   29.1800   40.1290 H   0  0  0  0  0  0  0  0  0  0  0  0
   40.4480   28.5460   42.9450 O   0  0  0  0  0  0  0  0  0  0  0  0
   40.2400   27.2130   42.7380 C   0  0  0  0  0  0  0  0  0  0  0  0
   39.8770   26.2800   43.6790 C   0  0  0  0  0  0  0  0  0  0  0  0
   39.7400   26.6310   44.6930 H   0  0  0  0  0  0  0  0  0  0  0  0
   39.6830   24.9430   43.3980 C   0  0  0  0  0  0  0  0  0  0  0  0
   39.3970   24.2230   44.1520 H   0  0  0  0  0  0  0  0  0  0  0  0
   39.8580   24.4800   42.0920 C   0  0  0  0  0  3  0  0  0  0  0  0
   40.2230   25.4750   41.2010 C   0  0  0  0  0  3  0  0  0  0  0  0
   40.4140   26.7730   41.4590 N   0  0  0  0  0  0  0  0  0  0  0  0
  1  6  1  0  0  0  0
  2  7  1  0  0  0  0
  2  1  1  0  0  0  0
  3  2  1  0  0  0  0
  3  4  1  0  0  0  0
  4 12  1  0  0  0  0
  4  5  1  0  0  0  0
  5 13  1  0  0  0  0
  5 14  1  0  0  0  0
  6 15  1  6  0  0  0
  6  5  1  0  0  0  0
  6 31  1  0  0  0  0
  8  2  1  0  0  0  0
  9  3  1  0  0  0  0
 10  3  1  0  0  0  0
 11  4  1  0  0  0  0
 16 17  1  0  0  0  0
 16  1  1  0  0  0  0
 16 18  1  0  0  0  0
 19 24  1  0  0  0  0
 19 16  1  0  0  0  0
 20 19  1  0  0  0  0
 21 19  1  0  0  0  0
 22 28  1  0  0  0  0
 23 22  1  0  0  0  0
 23 29  1  0  0  0  0
 24 23  2  0  0  0  0
 25 26  2  0  0  0  0
 25 24  1  0  0  0  0
 26 27  1  0  0  0  0
 27 22  2  0  0  0  0
 30 26  1  0  0  0  0
 33 31  1  0  0  0  0
 33 32  2  1  0  0  0
 33 36  1  0  0  0  0
 34 33  1  0  0  0  0
 35 34  1  0  0  0  0
 37 36  1  0  0  0  0
 37 38  1  0  0  0  0
 38 39  1  0  0  0  0
 40 38  2  0  0  0  0
 40 41  1  0  0  0  0
 42 40  1  0  0  0  0
 43 44  1  0  0  0  0
 43 42  2  0  0  0  0
 44 37  2  0  0  0  0
M  END
>  <minimizedAffinity>
-5.06026936

$$$$
