
 OpenBabel03252509083D

 40 43  0  0  0  0  0  0  0  0999 V2000
   47.7690   31.8780   39.0030 C   0  0  0  0  0  0  0  0  0  0  0  0
   47.2130   33.1180   38.8920 C   0  0  0  0  0  0  0  0  0  0  0  0
   47.7480   34.0420   38.0100 C   0  0  0  0  0  0  0  0  0  0  0  0
   48.8390   33.7120   37.2430 C   0  0  0  0  0  0  0  0  0  0  0  0
   49.4390   32.4550   37.3230 C   0  0  0  0  0  0  0  0  0  0  0  0
   48.8770   31.5420   38.2240 C   0  0  0  0  0  0  0  0  0  0  0  0
   47.3380   35.0350   37.8910 H   0  0  0  0  0  0  0  0  0  0  0  0
   49.3390   34.3420   36.5270 H   0  0  0  0  0  0  0  0  0  0  0  0
   50.2860   32.1080   36.7700 H   0  0  0  0  0  0  0  0  0  0  0  0
   49.3180   30.5480   38.3170 H   0  0  0  0  0  0  0  0  0  0  0  0
   45.2640   35.3290   43.1310 Cl  0  0  0  0  0  0  0  0  0  0  0  0
   45.1400   34.5700   41.5610 C   0  0  0  0  0  0  0  0  0  0  0  0
   46.2490   34.1760   40.8840 C   0  0  0  0  0  0  0  0  0  0  0  0
   46.0480   33.5700   39.6540 C   0  0  0  0  0  0  0  0  0  0  0  0
   44.7920   33.3770   39.1350 C   0  0  0  0  0  0  0  0  0  0  0  0
   43.6960   33.7770   39.8270 C   0  0  0  0  0  0  0  0  0  0  0  0
   43.8810   34.3770   41.0470 C   0  0  0  0  0  0  0  0  0  0  0  0
   44.6940   32.8950   38.1610 H   0  0  0  0  0  0  0  0  0  0  0  0
   42.7310   33.6020   39.3790 H   0  0  0  0  0  0  0  0  0  0  0  0
   42.9860   34.6890   41.5820 H   0  0  0  0  0  0  0  0  0  0  0  0
   49.5490   35.7370   41.8430 C   0  0  0  0  0  0  0  0  0  0  0  0
   48.2920   35.5380   41.2680 C   0  0  0  0  0  0  0  0  0  0  0  0
   47.5540   34.3930   41.4780 C   0  0  0  0  0  0  0  0  0  0  0  0
   48.1570   33.4850   42.2880 N   0  0  0  0  0  0  0  0  0  0  0  0
   49.3550   33.6610   42.8430 C   0  0  0  0  0  0  0  0  0  0  0  0
   50.0430   34.7840   42.6190 N   0  0  0  0  0  0  0  0  0  0  0  0
   50.0670   36.6590   41.6320 H   0  0  0  0  0  0  0  0  0  0  0  0
   47.8490   36.2930   40.6270 H   0  0  0  0  0  0  0  0  0  0  0  0
   49.6690   32.8230   43.4600 H   0  0  0  0  0  0  0  0  0  0  0  0
   47.1140   30.7160   40.0300 S   0  0  0  0  0  0  0  0  0  0  0  0
   47.4680   29.3110   39.5880 O   0  0  0  0  0  0  0  0  0  0  0  0
   47.9400   30.8770   41.3560 O   0  0  0  0  0  0  0  0  0  0  0  0
   45.4760   30.6250   40.5280 C   0  0  0  0  0  0  0  0  0  0  0  0
   44.5420   30.1530   39.5650 C   0  0  0  0  0  0  0  0  0  0  0  0
   44.9210   29.8760   38.5560 H   0  0  0  0  0  0  0  0  0  0  0  0
   43.1570   29.9610   39.6470 C   0  0  0  0  0  0  0  0  0  0  0  0
   42.5810   29.5940   38.8260 H   0  0  0  0  0  0  0  0  0  0  0  0
   42.6700   30.2990   40.8840 C   0  0  0  0  0  3  0  0  0  0  0  0
   43.5140   30.7580   41.8510 C   0  0  0  0  0  3  0  0  0  0  0  0
   44.8140   30.8990   41.6590 N   0  0  0  0  0  0  0  0  0  0  0  0
  1 30  1  0  0  0  0
  2  1  1  0  0  0  0
  2 14  1  0  0  0  0
  3  2  2  0  0  0  0
  4  5  2  0  0  0  0
  4  3  1  0  0  0  0
  5  6  1  0  0  0  0
  6 10  1  0  0  0  0
  6  1  2  0  0  0  0
  7  3  1  0  0  0  0
  8  4  1  0  0  0  0
  9  5  1  0  0  0  0
 12 11  1  0  0  0  0
 13 23  1  0  0  0  0
 13 12  2  0  0  0  0
 14 13  1  0  0  0  0
 15 14  2  0  0  0  0
 15 16  1  0  0  0  0
 16 17  2  0  0  0  0
 17 12  1  0  0  0  0
 17 20  1  0  0  0  0
 18 15  1  0  0  0  0
 19 16  1  0  0  0  0
 21 26  1  0  0  0  0
 22 23  1  0  0  0  0
 22 21  2  0  0  0  0
 23 24  2  0  0  0  0
 24 25  1  0  0  0  0
 25 29  1  0  0  0  0
 26 25  2  0  0  0  0
 27 21  1  0  0  0  0
 28 22  1  0  0  0  0
 30 33  1  0  0  0  0
 30 32  2  0  0  0  0
 31 30  2  0  0  0  0
 33 40  1  0  0  0  0
 34 36  1  0  0  0  0
 34 33  2  0  0  0  0
 35 34  1  0  0  0  0
 36 38  2  0  0  0  0
 37 36  1  0  0  0  0
 38 39  1  0  0  0  0
 40 39  2  0  0  0  0
M  END
>  <minimizedAffinity>
-4.61910152

>  <minimizedRMSD>
0.911339164

$$$$
