
 OpenBabel03242513053D

 34 37  0  0  0  0  0  0  0  0999 V2000
   36.9280   27.7970   39.8030 C   0  0  0  0  0  0  0  0  0  0  0  0
   36.8930   27.2460   41.0760 C   0  0  0  0  0  0  0  0  0  0  0  0
   37.1920   28.1030   42.1320 C   0  0  0  0  0  0  0  0  0  0  0  0
   37.4940   29.4040   41.8430 N   0  0  0  0  0  0  0  0  0  0  0  0
   37.5170   29.8990   40.5960 C   0  0  0  0  0  0  0  0  0  0  0  0
   37.2320   29.0900   39.5650 N   0  0  0  0  0  0  0  0  0  0  0  0
   36.7250   27.2820   38.8810 H   0  0  0  0  0  0  0  0  0  0  0  0
   36.9520   32.1350   39.7400 C   0  0  0  0  0  0  0  0  0  0  0  0
   37.8480   31.2930   40.3880 C   0  0  0  0  0  0  0  0  0  0  0  0
   39.0820   31.7220   40.8660 C   0  0  0  0  0  0  0  0  0  0  0  0
   39.4580   33.0560   40.6960 C   0  0  0  0  0  0  0  0  0  0  0  0
   40.5440   33.8110   41.0170 N   0  0  0  0  0  0  0  0  0  0  0  0
   40.2900   35.0970   40.5580 C   0  0  0  0  0  0  0  0  0  0  0  0
   39.0570   35.0990   39.9680 N   0  0  0  0  0  0  0  0  0  0  0  0
   38.5430   33.8660   40.0470 C   0  0  0  0  0  0  0  0  0  0  0  0
   37.3230   33.4720   39.5670 C   0  0  0  0  0  0  0  0  0  0  0  0
   36.0070   31.7410   39.3930 H   0  0  0  0  0  0  0  0  0  0  0  0
   39.7760   31.0780   41.3670 H   0  0  0  0  0  0  0  0  0  0  0  0
   41.3590   33.4120   41.5100 H   0  0  0  0  0  0  0  0  0  0  0  0
   41.0460   35.8660   40.7170 H   0  0  0  0  0  0  0  0  0  0  0  0
   36.6350   34.1240   39.0680 H   0  0  0  0  0  0  0  0  0  0  0  0
   37.1770   27.5950   43.5250 C   0  0  0  0  0  0  0  0  0  0  0  0
   37.3430   28.6440   44.4250 F   0  0  0  0  0  0  0  0  0  0  0  0
   35.9860   27.0020   43.8160 F   0  0  0  0  0  0  0  0  0  0  0  0
   38.2180   26.6970   43.6690 F   0  0  0  0  0  0  0  0  0  0  0  0
   36.5810   25.9430   41.2700 O   0  0  0  0  0  0  0  0  0  0  0  0
   37.2750   24.9050   40.7380 C   0  0  0  0  0  0  0  0  0  0  0  0
   36.3230   24.0050   40.2330 C   0  0  0  0  0  0  0  0  0  0  0  0
   35.2270   24.0610   40.2330 H   0  0  0  0  0  0  0  0  0  0  0  0
   36.6640   22.7990   39.6030 C   0  0  0  0  0  0  0  0  0  0  0  0
   36.0100   22.0620   39.1930 H   0  0  0  0  0  0  0  0  0  0  0  0
   38.0150   22.4820   39.4700 C   0  0  0  0  0  3  0  0  0  0  0  0
   38.9250   23.3820   39.9740 C   0  0  0  0  0  3  0  0  0  0  0  0
   38.5420   24.5200   40.5670 N   0  0  0  0  0  0  0  0  0  0  0  0
  1  2  1  0  0  0  0
  2 26  1  0  0  0  0
  2  3  2  0  0  0  0
  3 22  1  0  0  0  0
  4  3  1  0  0  0  0
  5  4  2  0  0  0  0
  6  1  2  0  0  0  0
  6  5  1  0  0  0  0
  7  1  1  0  0  0  0
  8  9  1  0  0  0  0
  9  5  1  0  0  0  0
  9 10  2  0  0  0  0
 10 18  1  0  0  0  0
 11 10  1  0  0  0  0
 11 12  1  0  0  0  0
 12 19  1  0  0  0  0
 13 20  1  0  0  0  0
 13 12  1  0  0  0  0
 14 15  1  0  0  0  0
 14 13  2  0  0  0  0
 15 11  2  0  0  0  0
 16  8  2  0  0  0  0
 16 15  1  0  0  0  0
 17  8  1  0  0  0  0
 21 16  1  0  0  0  0
 22 25  1  0  0  0  0
 22 24  1  0  0  0  0
 22 23  1  0  0  0  0
 27 26  1  0  0  0  0
 28 27  2  0  0  0  0
 29 28  1  0  0  0  0
 30 28  1  0  0  0  0
 31 30  1  0  0  0  0
 32 30  2  0  0  0  0
 32 33  1  0  0  0  0
 33 34  2  0  0  0  0
 34 27  1  0  0  0  0
M  END
>  <minimizedAffinity>
-6.72122192

$$$$

 OpenBabel03242513053D

 34 37  0  0  0  0  0  0  0  0999 V2000
   36.4680   28.2940   40.1520 C   0  0  0  0  0  0  0  0  0  0  0  0
   36.9710   28.7270   41.3700 C   0  0  0  0  0  0  0  0  0  0  0  0
   37.4870   27.7460   42.2120 C   0  0  0  0  0  0  0  0  0  0  0  0
   37.4610   26.4480   41.7860 N   0  0  0  0  0  0  0  0  0  0  0  0
   36.9640   26.0690   40.5980 C   0  0  0  0  0  0  0  0  0  0  0  0
   36.4630   26.9990   39.7720 N   0  0  0  0  0  0  0  0  0  0  0  0
   36.0350   28.9130   39.3860 H   0  0  0  0  0  0  0  0  0  0  0  0
   37.9220   23.8120   40.7900 C   0  0  0  0  0  0  0  0  0  0  0  0
   36.9810   24.6680   40.2320 C   0  0  0  0  0  0  0  0  0  0  0  0
   36.0230   24.2500   39.3150 C   0  0  0  0  0  0  0  0  0  0  0  0
   35.9880   22.9100   38.9210 C   0  0  0  0  0  0  0  0  0  0  0  0
   35.2270   22.1610   38.0780 N   0  0  0  0  0  0  0  0  0  0  0  0
   35.7180   20.8640   38.1380 C   0  0  0  0  0  0  0  0  0  0  0  0
   36.7670   20.8490   39.0150 N   0  0  0  0  0  0  0  0  0  0  0  0
   36.9390   22.0850   39.4970 C   0  0  0  0  0  0  0  0  0  0  0  0
   37.8920   22.4690   40.4000 C   0  0  0  0  0  0  0  0  0  0  0  0
   38.6400   24.1990   41.4990 H   0  0  0  0  0  0  0  0  0  0  0  0
   35.2950   24.9060   38.8810 H   0  0  0  0  0  0  0  0  0  0  0  0
   34.4500   22.5710   37.5360 H   0  0  0  0  0  0  0  0  0  0  0  0
   35.2400   20.0970   37.5280 H   0  0  0  0  0  0  0  0  0  0  0  0
   38.6160   21.8050   40.8290 H   0  0  0  0  0  0  0  0  0  0  0  0
   38.0450   28.1230   43.5330 C   0  0  0  0  0  0  0  0  0  0  0  0
   39.0650   29.0590   43.3800 F   0  0  0  0  0  0  0  0  0  0  0  0
   37.0930   28.6930   44.3220 F   0  0  0  0  0  0  0  0  0  0  0  0
   38.5550   26.9830   44.1280 F   0  0  0  0  0  0  0  0  0  0  0  0
   36.9580   30.0370   41.7100 O   0  0  0  0  0  0  0  0  0  0  0  0
   37.7490   30.9810   41.1390 C   0  0  0  0  0  0  0  0  0  0  0  0
   36.8980   31.8280   40.4120 C   0  0  0  0  0  0  0  0  0  0  0  0
   35.8080   31.7960   40.2840 H   0  0  0  0  0  0  0  0  0  0  0  0
   37.3560   32.9330   39.6780 C   0  0  0  0  0  0  0  0  0  0  0  0
   36.7840   33.6230   39.1020 H   0  0  0  0  0  0  0  0  0  0  0  0
   38.7240   33.2010   39.6750 C   0  0  0  0  0  3  0  0  0  0  0  0
   39.5330   32.3540   40.3960 C   0  0  0  0  0  3  0  0  0  0  0  0
   39.0410   31.3140   41.0790 N   0  0  0  0  0  0  0  0  0  0  0  0
  1  2  1  0  0  0  0
  2 26  1  0  0  0  0
  2  3  2  0  0  0  0
  3 22  1  0  0  0  0
  4  3  1  0  0  0  0
  5  4  2  0  0  0  0
  6  1  2  0  0  0  0
  6  5  1  0  0  0  0
  7  1  1  0  0  0  0
  8 17  1  0  0  0  0
  9  5  1  0  0  0  0
  9  8  2  0  0  0  0
 10  9  1  0  0  0  0
 11 10  2  0  0  0  0
 11 15  1  0  0  0  0
 12 13  1  0  0  0  0
 12 11  1  0  0  0  0
 13 14  2  0  0  0  0
 14 15  1  0  0  0  0
 15 16  2  0  0  0  0
 16  8  1  0  0  0  0
 16 21  1  0  0  0  0
 18 10  1  0  0  0  0
 19 12  1  0  0  0  0
 20 13  1  0  0  0  0
 22 25  1  0  0  0  0
 22 24  1  0  0  0  0
 23 22  1  0  0  0  0
 27 26  1  0  0  0  0
 28 27  2  0  0  0  0
 29 28  1  0  0  0  0
 30 28  1  0  0  0  0
 31 30  1  0  0  0  0
 32 30  2  0  0  0  0
 32 33  1  0  0  0  0
 33 34  2  0  0  0  0
 34 27  1  0  0  0  0
M  END
>  <minimizedAffinity>
-6.08364105

$$$$

 OpenBabel03242513053D

 34 37  0  0  0  0  0  0  0  0999 V2000
   38.7520   27.3280   40.2520 C   0  0  0  0  0  0  0  0  0  0  0  0
   38.2220   26.9400   41.4740 C   0  0  0  0  0  0  0  0  0  0  0  0
   37.9300   27.9600   42.3760 C   0  0  0  0  0  0  0  0  0  0  0  0
   38.1830   29.2490   42.0000 N   0  0  0  0  0  0  0  0  0  0  0  0
   38.6990   29.5830   40.8060 C   0  0  0  0  0  0  0  0  0  0  0  0
   38.9860   28.6150   39.9230 N   0  0  0  0  0  0  0  0  0  0  0  0
   39.0340   26.6760   39.4450 H   0  0  0  0  0  0  0  0  0  0  0  0
   38.0350   31.6750   39.6950 C   0  0  0  0  0  0  0  0  0  0  0  0
   38.9320   30.9780   40.4950 C   0  0  0  0  0  0  0  0  0  0  0  0
   40.0750   31.5570   41.0350 C   0  0  0  0  0  0  0  0  0  0  0  0
   40.3560   32.8990   40.7720 C   0  0  0  0  0  0  0  0  0  0  0  0
   41.3410   33.7740   41.1120 N   0  0  0  0  0  0  0  0  0  0  0  0
   41.0270   34.9870   40.5120 C   0  0  0  0  0  0  0  0  0  0  0  0
   39.8590   34.8250   39.8200 N   0  0  0  0  0  0  0  0  0  0  0  0
   39.4420   33.5630   39.9710 C   0  0  0  0  0  0  0  0  0  0  0  0
   38.3100   33.0200   39.4270 C   0  0  0  0  0  0  0  0  0  0  0  0
   37.1630   31.1680   39.3060 H   0  0  0  0  0  0  0  0  0  0  0  0
   40.7700   31.0240   41.6530 H   0  0  0  0  0  0  0  0  0  0  0  0
   42.1350   33.4950   41.7090 H   0  0  0  0  0  0  0  0  0  0  0  0
   41.6980   35.8320   40.6610 H   0  0  0  0  0  0  0  0  0  0  0  0
   37.6210   33.5610   38.8110 H   0  0  0  0  0  0  0  0  0  0  0  0
   37.3600   27.6330   43.7050 C   0  0  0  0  0  0  0  0  0  0  0  0
   37.0730   28.7980   44.4100 F   0  0  0  0  0  0  0  0  0  0  0  0
   36.1920   26.9430   43.5800 F   0  0  0  0  0  0  0  0  0  0  0  0
   38.2940   26.8910   44.4050 F   0  0  0  0  0  0  0  0  0  0  0  0
   38.0010   25.6360   41.7630 O   0  0  0  0  0  0  0  0  0  0  0  0
   37.4440   24.7480   40.9010 C   0  0  0  0  0  0  0  0  0  0  0  0
   38.3610   23.6950   40.7640 C   0  0  0  0  0  0  0  0  0  0  0  0
   39.3470   23.5500   41.2260 H   0  0  0  0  0  0  0  0  0  0  0  0
   38.1350   22.5780   39.9450 C   0  0  0  0  0  0  0  0  0  0  0  0
   38.7730   21.7390   39.7840 H   0  0  0  0  0  0  0  0  0  0  0  0
   36.9370   22.5140   39.2350 C   0  0  0  0  0  3  0  0  0  0  0  0
   36.0570   23.5600   39.3890 C   0  0  0  0  0  3  0  0  0  0  0  0
   36.3260   24.6010   40.1850 N   0  0  0  0  0  0  0  0  0  0  0  0
  1  2  1  0  0  0  0
  2 26  1  0  0  0  0
  2  3  2  0  0  0  0
  3 22  1  0  0  0  0
  4  3  1  0  0  0  0
  5  4  2  0  0  0  0
  6  1  2  0  0  0  0
  6  5  1  0  0  0  0
  7  1  1  0  0  0  0
  8  9  1  0  0  0  0
  9  5  1  0  0  0  0
  9 10  2  0  0  0  0
 10 18  1  0  0  0  0
 11 10  1  0  0  0  0
 11 12  1  0  0  0  0
 12 19  1  0  0  0  0
 13 20  1  0  0  0  0
 13 12  1  0  0  0  0
 14 15  1  0  0  0  0
 14 13  2  0  0  0  0
 15 11  2  0  0  0  0
 16  8  2  0  0  0  0
 16 15  1  0  0  0  0
 17  8  1  0  0  0  0
 21 16  1  0  0  0  0
 22 25  1  0  0  0  0
 22 23  1  0  0  0  0
 24 22  1  0  0  0  0
 27 26  1  0  0  0  0
 28 27  1  0  0  0  0
 28 29  1  0  0  0  0
 30 28  2  0  0  0  0
 31 30  1  0  0  0  0
 32 33  2  0  0  0  0
 32 30  1  0  0  0  0
 33 34  1  0  0  0  0
 34 27  2  0  0  0  0
M  END
>  <minimizedAffinity>
-6.02427053

$$$$

 OpenBabel03242513053D

 34 37  0  0  0  0  0  0  0  0999 V2000
   36.9770   27.2360   41.3090 C   0  0  0  0  0  0  0  0  0  0  0  0
   37.8720   26.3700   41.9210 C   0  0  0  0  0  0  0  0  0  0  0  0
   39.1060   26.9060   42.2780 C   0  0  0  0  0  0  0  0  0  0  0  0
   39.3450   28.2230   42.0040 N   0  0  0  0  0  0  0  0  0  0  0  0
   38.4500   29.0280   41.4090 C   0  0  0  0  0  0  0  0  0  0  0  0
   37.2550   28.5320   41.0580 N   0  0  0  0  0  0  0  0  0  0  0  0
   35.9860   26.9910   40.9700 H   0  0  0  0  0  0  0  0  0  0  0  0
   40.0940   30.8570   41.3540 C   0  0  0  0  0  0  0  0  0  0  0  0
   38.7920   30.4130   41.1600 C   0  0  0  0  0  0  0  0  0  0  0  0
   37.7640   31.2440   40.7270 C   0  0  0  0  0  0  0  0  0  0  0  0
   38.0310   32.5900   40.4710 C   0  0  0  0  0  0  0  0  0  0  0  0
   37.3080   33.6640   40.0510 N   0  0  0  0  0  0  0  0  0  0  0  0
   38.1830   34.7420   39.9990 C   0  0  0  0  0  0  0  0  0  0  0  0
   39.4180   34.3020   40.3860 N   0  0  0  0  0  0  0  0  0  0  0  0
   39.3380   32.9980   40.6740 C   0  0  0  0  0  0  0  0  0  0  0  0
   40.3680   32.2040   41.0990 C   0  0  0  0  0  0  0  0  0  0  0  0
   40.8500   30.1600   41.6920 H   0  0  0  0  0  0  0  0  0  0  0  0
   36.7580   30.9070   40.5760 H   0  0  0  0  0  0  0  0  0  0  0  0
   36.3010   33.5940   39.8380 H   0  0  0  0  0  0  0  0  0  0  0  0
   37.7980   35.7110   39.6820 H   0  0  0  0  0  0  0  0  0  0  0  0
   41.3710   32.5500   41.2470 H   0  0  0  0  0  0  0  0  0  0  0  0
   40.1220   26.0500   42.9380 C   0  0  0  0  0  0  0  0  0  0  0  0
   40.5790   25.0730   42.0580 F   0  0  0  0  0  0  0  0  0  0  0  0
   41.2040   26.7820   43.3210 F   0  0  0  0  0  0  0  0  0  0  0  0
   39.5310   25.4430   44.0310 F   0  0  0  0  0  0  0  0  0  0  0  0
   37.5510   25.0770   42.1560 O   0  0  0  0  0  0  0  0  0  0  0  0
   37.1400   24.2070   41.1990 C   0  0  0  0  0  0  0  0  0  0  0  0
   38.1850   23.2880   41.0180 C   0  0  0  0  0  0  0  0  0  0  0  0
   39.1640   23.2240   41.5110 H   0  0  0  0  0  0  0  0  0  0  0  0
   38.1280   22.2290   40.1000 C   0  0  0  0  0  0  0  0  0  0  0  0
   38.8710   21.4910   39.8990 H   0  0  0  0  0  0  0  0  0  0  0  0
   36.9730   22.0830   39.3330 C   0  0  0  0  0  3  0  0  0  0  0  0
   35.9650   22.9960   39.5320 C   0  0  0  0  0  3  0  0  0  0  0  0
   36.0740   23.9890   40.4230 N   0  0  0  0  0  0  0  0  0  0  0  0
  1  2  1  0  0  0  0
  2 26  1  0  0  0  0
  2  3  2  0  0  0  0
  3 22  1  0  0  0  0
  4  3  1  0  0  0  0
  5  4  2  0  0  0  0
  6  1  2  0  0  0  0
  6  5  1  0  0  0  0
  7  1  1  0  0  0  0
  8 17  1  0  0  0  0
  9  8  1  0  0  0  0
  9  5  1  0  0  0  0
 10  9  2  0  0  0  0
 11 15  2  0  0  0  0
 11 10  1  0  0  0  0
 12 11  1  0  0  0  0
 13 12  1  0  0  0  0
 13 14  2  0  0  0  0
 14 15  1  0  0  0  0
 15 16  1  0  0  0  0
 16 21  1  0  0  0  0
 16  8  2  0  0  0  0
 18 10  1  0  0  0  0
 19 12  1  0  0  0  0
 20 13  1  0  0  0  0
 22 24  1  0  0  0  0
 22 25  1  0  0  0  0
 23 22  1  0  0  0  0
 27 26  1  0  0  0  0
 28 27  1  0  0  0  0
 28 29  1  0  0  0  0
 30 28  2  0  0  0  0
 31 30  1  0  0  0  0
 32 33  2  0  0  0  0
 32 30  1  0  0  0  0
 33 34  1  0  0  0  0
 34 27  2  0  0  0  0
M  END
>  <minimizedAffinity>
-5.87670994

$$$$

 OpenBabel03242513053D

 34 37  0  0  0  0  0  0  0  0999 V2000
   39.2270   28.8470   42.6410 C   0  0  0  0  0  0  0  0  0  0  0  0
   38.0990   29.3300   41.9940 C   0  0  0  0  0  0  0  0  0  0  0  0
   38.2030   30.6000   41.4320 C   0  0  0  0  0  0  0  0  0  0  0  0
   39.3880   31.2680   41.5570 N   0  0  0  0  0  0  0  0  0  0  0  0
   40.4580   30.7640   42.1920 C   0  0  0  0  0  0  0  0  0  0  0  0
   40.3780   29.5430   42.7400 N   0  0  0  0  0  0  0  0  0  0  0  0
   39.3220   27.8920   43.1270 H   0  0  0  0  0  0  0  0  0  0  0  0
   42.6390   31.2430   43.2230 C   0  0  0  0  0  0  0  0  0  0  0  0
   41.6730   31.5480   42.2720 C   0  0  0  0  0  0  0  0  0  0  0  0
   41.8060   32.5910   41.3630 C   0  0  0  0  0  0  0  0  0  0  0  0
   42.9560   33.3840   41.3900 C   0  0  0  0  0  0  0  0  0  0  0  0
   43.4210   34.4510   40.6860 N   0  0  0  0  0  0  0  0  0  0  0  0
   44.6600   34.7770   41.2210 C   0  0  0  0  0  0  0  0  0  0  0  0
   44.9240   33.9030   42.2380 N   0  0  0  0  0  0  0  0  0  0  0  0
   43.8970   33.0530   42.3490 C   0  0  0  0  0  0  0  0  0  0  0  0
   43.7930   32.0330   43.2560 C   0  0  0  0  0  0  0  0  0  0  0  0
   42.4770   30.4170   43.9020 H   0  0  0  0  0  0  0  0  0  0  0  0
   41.0650   32.8310   40.6270 H   0  0  0  0  0  0  0  0  0  0  0  0
   42.8800   34.8730   39.9140 H   0  0  0  0  0  0  0  0  0  0  0  0
   45.2090   35.6160   40.7930 H   0  0  0  0  0  0  0  0  0  0  0  0
   44.5410   31.8010   43.9870 H   0  0  0  0  0  0  0  0  0  0  0  0
   37.0440   31.1920   40.7210 C   0  0  0  0  0  0  0  0  0  0  0  0
   35.8970   31.1030   41.5050 F   0  0  0  0  0  0  0  0  0  0  0  0
   37.2510   32.5130   40.4630 F   0  0  0  0  0  0  0  0  0  0  0  0
   36.8520   30.4880   39.5460 F   0  0  0  0  0  0  0  0  0  0  0  0
   36.9640   28.5970   41.9160 O   0  0  0  0  0  0  0  0  0  0  0  0
   36.9370   27.2490   41.7550 C   0  0  0  0  0  0  0  0  0  0  0  0
   36.8020   27.0130   40.3780 C   0  0  0  0  0  0  0  0  0  0  0  0
   36.7270   27.7220   39.5430 H   0  0  0  0  0  0  0  0  0  0  0  0
   36.7350   25.7270   39.8210 C   0  0  0  0  0  0  0  0  0  0  0  0
   36.6340   25.4600   38.7940 H   0  0  0  0  0  0  0  0  0  0  0  0
   36.8100   24.6320   40.6790 C   0  0  0  0  0  3  0  0  0  0  0  0
   36.9420   24.8930   42.0230 C   0  0  0  0  0  3  0  0  0  0  0  0
   37.0000   26.1420   42.5000 N   0  0  0  0  0  0  0  0  0  0  0  0
  1  6  1  0  0  0  0
  1  7  1  0  0  0  0
  2  1  2  0  0  0  0
  3  4  2  0  0  0  0
  3  2  1  0  0  0  0
  4  5  1  0  0  0  0
  5  9  1  0  0  0  0
  5  6  2  0  0  0  0
  8 16  1  0  0  0  0
  8 17  1  0  0  0  0
  9  8  2  0  0  0  0
 10 11  2  0  0  0  0
 10  9  1  0  0  0  0
 11 15  1  0  0  0  0
 12 13  1  0  0  0  0
 12 11  1  0  0  0  0
 13 14  2  0  0  0  0
 14 15  1  0  0  0  0
 15 16  2  0  0  0  0
 16 21  1  0  0  0  0
 18 10  1  0  0  0  0
 19 12  1  0  0  0  0
 20 13  1  0  0  0  0
 22  3  1  0  0  0  0
 22 23  1  0  0  0  0
 24 22  1  0  0  0  0
 25 22  1  0  0  0  0
 26  2  1  0  0  0  0
 27 26  1  0  0  0  0
 27 34  1  0  0  0  0
 28 27  2  0  0  0  0
 29 28  1  0  0  0  0
 30 28  1  0  0  0  0
 30 32  2  0  0  0  0
 31 30  1  0  0  0  0
 32 33  1  0  0  0  0
 33 34  2  0  0  0  0
M  END
>  <minimizedAffinity>
-5.83001471

$$$$

 OpenBabel03242513053D

 34 37  0  0  0  0  0  0  0  0999 V2000
   40.3160   31.4480   41.8780 C   0  0  0  0  0  0  0  0  0  0  0  0
   39.7240   32.3000   40.9580 C   0  0  0  0  0  0  0  0  0  0  0  0
   38.5610   31.8420   40.3450 C   0  0  0  0  0  0  0  0  0  0  0  0
   38.0940   30.6040   40.6880 N   0  0  0  0  0  0  0  0  0  0  0  0
   38.6980   29.8070   41.5840 C   0  0  0  0  0  0  0  0  0  0  0  0
   39.8190   30.2320   42.1850 N   0  0  0  0  0  0  0  0  0  0  0  0
   41.2130   31.6410   42.4390 H   0  0  0  0  0  0  0  0  0  0  0  0
   37.3140   28.3460   42.9980 C   0  0  0  0  0  0  0  0  0  0  0  0
   38.1270   28.5110   41.8840 C   0  0  0  0  0  0  0  0  0  0  0  0
   38.4370   27.4740   41.0100 C   0  0  0  0  0  0  0  0  0  0  0  0
   37.9170   26.1990   41.2460 C   0  0  0  0  0  0  0  0  0  0  0  0
   37.9970   24.9860   40.6350 N   0  0  0  0  0  0  0  0  0  0  0  0
   37.2320   24.1050   41.3890 C   0  0  0  0  0  0  0  0  0  0  0  0
   36.7030   24.7990   42.4410 N   0  0  0  0  0  0  0  0  0  0  0  0
   37.1120   26.0710   42.3640 C   0  0  0  0  0  0  0  0  0  0  0  0
   36.7910   27.0720   43.2400 C   0  0  0  0  0  0  0  0  0  0  0  0
   37.1110   29.1930   43.6390 H   0  0  0  0  0  0  0  0  0  0  0  0
   39.0630   27.5950   40.1490 H   0  0  0  0  0  0  0  0  0  0  0  0
   38.5500   24.8440   39.7750 H   0  0  0  0  0  0  0  0  0  0  0  0
   37.1630   23.0660   41.0660 H   0  0  0  0  0  0  0  0  0  0  0  0
   36.1630   26.9410   44.0980 H   0  0  0  0  0  0  0  0  0  0  0  0
   37.8630   32.6910   39.3500 C   0  0  0  0  0  0  0  0  0  0  0  0
   37.8110   34.0110   39.7890 F   0  0  0  0  0  0  0  0  0  0  0  0
   38.5230   32.6910   38.1590 F   0  0  0  0  0  0  0  0  0  0  0  0
   36.5760   32.2070   39.1960 F   0  0  0  0  0  0  0  0  0  0  0  0
   40.2550   33.5140   40.6800 O   0  0  0  0  0  0  0  0  0  0  0  0
   41.4860   33.7020   40.1410 C   0  0  0  0  0  0  0  0  0  0  0  0
   41.2840   34.0690   38.8010 C   0  0  0  0  0  0  0  0  0  0  0  0
   40.3520   34.1970   38.2350 H   0  0  0  0  0  0  0  0  0  0  0  0
   42.3340   34.3480   37.9130 C   0  0  0  0  0  0  0  0  0  0  0  0
   42.2700   34.6320   36.8870 H   0  0  0  0  0  0  0  0  0  0  0  0
   43.6410   34.2570   38.3880 C   0  0  0  0  0  3  0  0  0  0  0  0
   43.8090   33.8960   39.7040 C   0  0  0  0  0  3  0  0  0  0  0  0
   42.7690   33.6410   40.5070 N   0  0  0  0  0  0  0  0  0  0  0  0
  1  6  1  0  0  0  0
  1  7  1  0  0  0  0
  2  1  2  0  0  0  0
  3  4  2  0  0  0  0
  3  2  1  0  0  0  0
  4  5  1  0  0  0  0
  5  9  1  0  0  0  0
  5  6  2  0  0  0  0
  8 16  1  0  0  0  0
  8 17  1  0  0  0  0
  9  8  2  0  0  0  0
 10 11  2  0  0  0  0
 10  9  1  0  0  0  0
 11 15  1  0  0  0  0
 12 11  1  0  0  0  0
 12 13  1  0  0  0  0
 13 14  2  0  0  0  0
 15 14  1  0  0  0  0
 15 16  2  0  0  0  0
 16 21  1  0  0  0  0
 18 10  1  0  0  0  0
 19 12  1  0  0  0  0
 20 13  1  0  0  0  0
 22 23  1  0  0  0  0
 22  3  1  0  0  0  0
 24 22  1  0  0  0  0
 25 22  1  0  0  0  0
 26  2  1  0  0  0  0
 27 34  1  0  0  0  0
 27 26  1  0  0  0  0
 28 27  2  0  0  0  0
 29 28  1  0  0  0  0
 30 32  2  0  0  0  0
 30 28  1  0  0  0  0
 31 30  1  0  0  0  0
 32 33  1  0  0  0  0
 33 34  2  0  0  0  0
M  END
>  <minimizedAffinity>
-5.82038546

$$$$

 OpenBabel03242513053D

 34 37  0  0  0  0  0  0  0  0999 V2000
   37.0520   28.9890   39.8350 C   0  0  0  0  0  0  0  0  0  0  0  0
   37.4970   29.3240   41.1060 C   0  0  0  0  0  0  0  0  0  0  0  0
   37.7910   28.2650   41.9600 C   0  0  0  0  0  0  0  0  0  0  0  0
   37.6230   26.9910   41.4940 N   0  0  0  0  0  0  0  0  0  0  0  0
   37.1890   26.7080   40.2550 C   0  0  0  0  0  0  0  0  0  0  0  0
   36.9010   27.7150   39.4170 N   0  0  0  0  0  0  0  0  0  0  0  0
   36.7820   29.6760   39.0530 H   0  0  0  0  0  0  0  0  0  0  0  0
   36.2080   24.9930   38.7900 C   0  0  0  0  0  0  0  0  0  0  0  0
   37.0430   25.3260   39.8500 C   0  0  0  0  0  0  0  0  0  0  0  0
   37.7710   24.3830   40.5670 C   0  0  0  0  0  0  0  0  0  0  0  0
   37.6730   23.0330   40.2240 C   0  0  0  0  0  0  0  0  0  0  0  0
   38.2120   21.8700   40.6790 N   0  0  0  0  0  0  0  0  0  0  0  0
   37.6950   20.8500   39.8900 C   0  0  0  0  0  0  0  0  0  0  0  0
   36.8530   21.4130   38.9720 N   0  0  0  0  0  0  0  0  0  0  0  0
   36.8320   22.7370   39.1650 C   0  0  0  0  0  0  0  0  0  0  0  0
   36.1040   23.6430   38.4420 C   0  0  0  0  0  0  0  0  0  0  0  0
   35.6680   25.7740   38.2720 H   0  0  0  0  0  0  0  0  0  0  0  0
   38.4170   24.6340   41.3840 H   0  0  0  0  0  0  0  0  0  0  0  0
   38.8730   21.8490   41.4710 H   0  0  0  0  0  0  0  0  0  0  0  0
   38.0050   19.8250   40.0920 H   0  0  0  0  0  0  0  0  0  0  0  0
   35.4610   23.3820   37.6260 H   0  0  0  0  0  0  0  0  0  0  0  0
   38.2730   28.5340   43.3360 C   0  0  0  0  0  0  0  0  0  0  0  0
   39.3990   29.3530   43.3040 F   0  0  0  0  0  0  0  0  0  0  0  0
   37.3260   29.1840   44.0680 F   0  0  0  0  0  0  0  0  0  0  0  0
   38.6010   27.3260   43.9240 F   0  0  0  0  0  0  0  0  0  0  0  0
   37.6370   30.6160   41.4840 O   0  0  0  0  0  0  0  0  0  0  0  0
   38.5420   31.4740   40.9480 C   0  0  0  0  0  0  0  0  0  0  0  0
   37.8250   32.6110   40.5440 C   0  0  0  0  0  0  0  0  0  0  0  0
   36.7520   32.8330   40.6140 H   0  0  0  0  0  0  0  0  0  0  0  0
   38.4260   33.7250   39.9390 C   0  0  0  0  0  0  0  0  0  0  0  0
   37.9600   34.6240   39.6040 H   0  0  0  0  0  0  0  0  0  0  0  0
   39.8040   33.6990   39.7310 C   0  0  0  0  0  3  0  0  0  0  0  0
   40.4810   32.5720   40.1360 C   0  0  0  0  0  3  0  0  0  0  0  0
   39.8550   31.5370   40.7090 N   0  0  0  0  0  0  0  0  0  0  0  0
  1  2  1  0  0  0  0
  2 26  1  0  0  0  0
  2  3  2  0  0  0  0
  3 22  1  0  0  0  0
  4  3  1  0  0  0  0
  5  4  2  0  0  0  0
  6  1  2  0  0  0  0
  6  5  1  0  0  0  0
  7  1  1  0  0  0  0
  8  9  1  0  0  0  0
  9  5  1  0  0  0  0
  9 10  2  0  0  0  0
 10 18  1  0  0  0  0
 11 10  1  0  0  0  0
 11 12  1  0  0  0  0
 12 19  1  0  0  0  0
 13 20  1  0  0  0  0
 13 12  1  0  0  0  0
 14 15  1  0  0  0  0
 14 13  2  0  0  0  0
 15 11  2  0  0  0  0
 16  8  2  0  0  0  0
 16 15  1  0  0  0  0
 17  8  1  0  0  0  0
 21 16  1  0  0  0  0
 22 25  1  0  0  0  0
 22 24  1  0  0  0  0
 23 22  1  0  0  0  0
 27 26  1  0  0  0  0
 28 29  1  0  0  0  0
 28 27  2  0  0  0  0
 30 28  1  0  0  0  0
 31 30  1  0  0  0  0
 32 30  2  0  0  0  0
 32 33  1  0  0  0  0
 33 34  2  0  0  0  0
 34 27  1  0  0  0  0
M  END
>  <minimizedAffinity>
-5.7487812

$$$$

 OpenBabel03242513053D

 34 37  0  0  0  0  0  0  0  0999 V2000
   38.6040   29.9720   42.1040 C   0  0  0  0  0  0  0  0  0  0  0  0
   38.1810   30.7580   41.0420 C   0  0  0  0  0  0  0  0  0  0  0  0
   37.6490   30.0860   39.9450 C   0  0  0  0  0  0  0  0  0  0  0  0
   37.5830   28.7210   39.9920 N   0  0  0  0  0  0  0  0  0  0  0  0
   38.0040   27.9960   41.0410 C   0  0  0  0  0  0  0  0  0  0  0  0
   38.5190   28.6260   42.1070 N   0  0  0  0  0  0  0  0  0  0  0  0
   39.0360   30.3240   43.0240 H   0  0  0  0  0  0  0  0  0  0  0  0
   37.0930   25.8880   41.9200 C   0  0  0  0  0  0  0  0  0  0  0  0
   37.8930   26.5530   41.0000 C   0  0  0  0  0  0  0  0  0  0  0  0
   38.6160   25.8980   40.0090 C   0  0  0  0  0  0  0  0  0  0  0  0
   38.5500   24.5060   39.9180 C   0  0  0  0  0  0  0  0  0  0  0  0
   39.0970   23.5540   39.1120 N   0  0  0  0  0  0  0  0  0  0  0  0
   38.6200   22.3280   39.5580 C   0  0  0  0  0  0  0  0  0  0  0  0
   37.7950   22.5570   40.6230 N   0  0  0  0  0  0  0  0  0  0  0  0
   37.7440   23.8750   40.8500 C   0  0  0  0  0  0  0  0  0  0  0  0
   37.0230   24.4930   41.8350 C   0  0  0  0  0  0  0  0  0  0  0  0
   36.5550   26.4550   42.6670 H   0  0  0  0  0  0  0  0  0  0  0  0
   39.2340   26.4050   39.2960 H   0  0  0  0  0  0  0  0  0  0  0  0
   39.7370   23.7970   38.3400 H   0  0  0  0  0  0  0  0  0  0  0  0
   38.9430   21.4240   39.0410 H   0  0  0  0  0  0  0  0  0  0  0  0
   36.4070   23.9770   42.5430 H   0  0  0  0  0  0  0  0  0  0  0  0
   37.1720   30.8500   38.7680 C   0  0  0  0  0  0  0  0  0  0  0  0
   36.3670   31.9120   39.1710 F   0  0  0  0  0  0  0  0  0  0  0  0
   38.2160   31.3800   38.0730 F   0  0  0  0  0  0  0  0  0  0  0  0
   36.4360   29.9950   37.9670 F   0  0  0  0  0  0  0  0  0  0  0  0
   38.2820   32.1070   41.0820 O   0  0  0  0  0  0  0  0  0  0  0  0
   39.4220   32.7950   40.8170 C   0  0  0  0  0  0  0  0  0  0  0  0
   39.0300   34.0880   40.4390 C   0  0  0  0  0  0  0  0  0  0  0  0
   38.0270   34.5270   40.3500 H   0  0  0  0  0  0  0  0  0  0  0  0
   39.9400   35.0960   40.0860 C   0  0  0  0  0  0  0  0  0  0  0  0
   39.7310   36.0980   39.7880 H   0  0  0  0  0  0  0  0  0  0  0  0
   41.3010   34.7950   40.1160 C   0  0  0  0  0  3  0  0  0  0  0  0
   41.6560   33.5200   40.4910 C   0  0  0  0  0  3  0  0  0  0  0  0
   40.7430   32.5980   40.8180 N   0  0  0  0  0  0  0  0  0  0  0  0
  1  6  1  0  0  0  0
  1  7  1  0  0  0  0
  2 26  1  0  0  0  0
  2  1  2  0  0  0  0
  3  4  2  0  0  0  0
  3  2  1  0  0  0  0
  4  5  1  0  0  0  0
  5  6  2  0  0  0  0
  8 17  1  0  0  0  0
  9  5  1  0  0  0  0
  9  8  2  0  0  0  0
 10  9  1  0  0  0  0
 11 10  2  0  0  0  0
 11 15  1  0  0  0  0
 12 13  1  0  0  0  0
 12 11  1  0  0  0  0
 13 14  2  0  0  0  0
 14 15  1  0  0  0  0
 15 16  2  0  0  0  0
 16  8  1  0  0  0  0
 16 21  1  0  0  0  0
 18 10  1  0  0  0  0
 19 12  1  0  0  0  0
 20 13  1  0  0  0  0
 22 23  1  0  0  0  0
 22  3  1  0  0  0  0
 24 22  1  0  0  0  0
 25 22  1  0  0  0  0
 27 34  1  0  0  0  0
 27 26  1  0  0  0  0
 28 27  2  0  0  0  0
 29 28  1  0  0  0  0
 30 32  2  0  0  0  0
 30 28  1  0  0  0  0
 31 30  1  0  0  0  0
 32 33  1  0  0  0  0
 33 34  2  0  0  0  0
M  END
>  <minimizedAffinity>
-5.7259655

$$$$

 OpenBabel03242513053D

 34 37  0  0  0  0  0  0  0  0999 V2000
   38.1260   30.3490   41.1280 C   0  0  0  0  0  0  0  0  0  0  0  0
   37.3830   29.2280   41.4700 C   0  0  0  0  0  0  0  0  0  0  0  0
   38.0060   28.3000   42.3000 C   0  0  0  0  0  0  0  0  0  0  0  0
   39.2840   28.5550   42.7120 N   0  0  0  0  0  0  0  0  0  0  0  0
   39.9700   29.6530   42.3570 C   0  0  0  0  0  0  0  0  0  0  0  0
   39.3870   30.5590   41.5590 N   0  0  0  0  0  0  0  0  0  0  0  0
   37.8020   31.1600   40.5000 H   0  0  0  0  0  0  0  0  0  0  0  0
   42.1060   28.7360   43.1610 C   0  0  0  0  0  0  0  0  0  0  0  0
   41.3210   29.8370   42.8450 C   0  0  0  0  0  0  0  0  0  0  0  0
   41.7670   31.1490   42.9700 C   0  0  0  0  0  0  0  0  0  0  0  0
   43.0610   31.3920   43.4350 C   0  0  0  0  0  0  0  0  0  0  0  0
   43.8180   32.4970   43.6800 N   0  0  0  0  0  0  0  0  0  0  0  0
   45.0480   32.0470   44.1420 C   0  0  0  0  0  0  0  0  0  0  0  0
   45.0160   30.6810   44.1690 N   0  0  0  0  0  0  0  0  0  0  0  0
   43.8150   30.2730   43.7410 C   0  0  0  0  0  0  0  0  0  0  0  0
   43.4030   28.9730   43.6280 C   0  0  0  0  0  0  0  0  0  0  0  0
   41.7000   27.7410   43.0410 H   0  0  0  0  0  0  0  0  0  0  0  0
   41.1670   32.0020   42.7270 H   0  0  0  0  0  0  0  0  0  0  0  0
   43.4560   33.4500   43.5230 H   0  0  0  0  0  0  0  0  0  0  0  0
   45.8090   32.7840   44.3990 H   0  0  0  0  0  0  0  0  0  0  0  0
   44.0110   28.1260   43.8720 H   0  0  0  0  0  0  0  0  0  0  0  0
   37.2820   27.0740   42.7150 C   0  0  0  0  0  0  0  0  0  0  0  0
   36.1700   27.4040   43.4850 F   0  0  0  0  0  0  0  0  0  0  0  0
   36.8290   26.3840   41.6320 F   0  0  0  0  0  0  0  0  0  0  0  0
   38.1450   26.2960   43.4650 F   0  0  0  0  0  0  0  0  0  0  0  0
   36.1190   29.0580   41.0180 O   0  0  0  0  0  0  0  0  0  0  0  0
   35.8020   28.7690   39.7300 C   0  0  0  0  0  0  0  0  0  0  0  0
   34.4540   29.1210   39.5610 C   0  0  0  0  0  0  0  0  0  0  0  0
   33.7390   29.5470   40.2760 H   0  0  0  0  0  0  0  0  0  0  0  0
   33.7640   28.9650   38.3490 C   0  0  0  0  0  0  0  0  0  0  0  0
   32.7480   29.2050   38.1340 H   0  0  0  0  0  0  0  0  0  0  0  0
   34.4560   28.4370   37.2600 C   0  0  0  0  0  3  0  0  0  0  0  0
   35.7750   28.1010   37.4540 C   0  0  0  0  0  3  0  0  0  0  0  0
   36.3830   28.2710   38.6350 N   0  0  0  0  0  0  0  0  0  0  0  0
  1  2  2  0  0  0  0
  1  6  1  0  0  0  0
  2  3  1  0  0  0  0
  3  4  2  0  0  0  0
  3 22  1  0  0  0  0
  5  4  1  0  0  0  0
  5  9  1  0  0  0  0
  6  5  2  0  0  0  0
  7  1  1  0  0  0  0
  8 16  1  0  0  0  0
  9 10  1  0  0  0  0
  9  8  2  0  0  0  0
 10 11  2  0  0  0  0
 11 12  1  0  0  0  0
 11 15  1  0  0  0  0
 12 13  1  0  0  0  0
 13 14  2  0  0  0  0
 13 20  1  0  0  0  0
 15 14  1  0  0  0  0
 16 15  2  0  0  0  0
 16 21  1  0  0  0  0
 17  8  1  0  0  0  0
 18 10  1  0  0  0  0
 19 12  1  0  0  0  0
 22 25  1  0  0  0  0
 22 23  1  0  0  0  0
 24 22  1  0  0  0  0
 26  2  1  0  0  0  0
 27 26  1  0  0  0  0
 28 27  1  0  0  0  0
 28 29  1  0  0  0  0
 30 28  2  0  0  0  0
 31 30  1  0  0  0  0
 32 33  2  0  0  0  0
 32 30  1  0  0  0  0
 33 34  1  0  0  0  0
 34 27  2  0  0  0  0
M  END
>  <minimizedAffinity>
-5.67856646

$$$$
