
 OpenBabel03252509073D

 40 43  0  0  0  0  0  0  0  0999 V2000
   47.5700   31.7760   38.9810 C   0  0  0  0  0  0  0  0  0  0  0  0
   47.1510   33.0740   38.9770 C   0  0  0  0  0  0  0  0  0  0  0  0
   47.8040   34.0100   38.1930 C   0  0  0  0  0  0  0  0  0  0  0  0
   48.8740   33.6350   37.4160 C   0  0  0  0  0  0  0  0  0  0  0  0
   49.3350   32.3190   37.3890 C   0  0  0  0  0  0  0  0  0  0  0  0
   48.6560   31.3940   38.1920 C   0  0  0  0  0  0  0  0  0  0  0  0
   47.5050   35.0480   38.1600 H   0  0  0  0  0  0  0  0  0  0  0  0
   49.4560   34.2700   36.7700 H   0  0  0  0  0  0  0  0  0  0  0  0
   50.1550   31.9350   36.8200 H   0  0  0  0  0  0  0  0  0  0  0  0
   48.9870   30.3550   38.2000 H   0  0  0  0  0  0  0  0  0  0  0  0
   45.3850   35.4560   43.2020 Cl  0  0  0  0  0  0  0  0  0  0  0  0
   45.1960   34.6560   41.6600 C   0  0  0  0  0  0  0  0  0  0  0  0
   46.2740   34.2140   40.9630 C   0  0  0  0  0  0  0  0  0  0  0  0
   46.0210   33.5780   39.7580 C   0  0  0  0  0  0  0  0  0  0  0  0
   44.7460   33.4030   39.2810 C   0  0  0  0  0  0  0  0  0  0  0  0
   43.6820   33.8520   39.9920 C   0  0  0  0  0  0  0  0  0  0  0  0
   43.9180   34.4820   41.1880 C   0  0  0  0  0  0  0  0  0  0  0  0
   44.6070   32.8970   38.3250 H   0  0  0  0  0  0  0  0  0  0  0  0
   42.7000   33.6900   39.5770 H   0  0  0  0  0  0  0  0  0  0  0  0
   43.0470   34.8320   41.7390 H   0  0  0  0  0  0  0  0  0  0  0  0
   49.5810   35.7730   41.9010 C   0  0  0  0  0  0  0  0  0  0  0  0
   48.3020   35.5910   41.3700 C   0  0  0  0  0  0  0  0  0  0  0  0
   47.6010   34.4130   41.5130 C   0  0  0  0  0  0  0  0  0  0  0  0
   48.2630   33.4540   42.2120 N   0  0  0  0  0  0  0  0  0  0  0  0
   49.4820   33.6130   42.7240 C   0  0  0  0  0  0  0  0  0  0  0  0
   50.1330   34.7690   42.5670 N   0  0  0  0  0  0  0  0  0  0  0  0
   50.0670   36.7230   41.7490 H   0  0  0  0  0  0  0  0  0  0  0  0
   47.8120   36.3860   40.8180 H   0  0  0  0  0  0  0  0  0  0  0  0
   49.8440   32.7340   43.2500 H   0  0  0  0  0  0  0  0  0  0  0  0
   46.7690   30.6040   39.8840 S   0  0  0  0  0  0  0  0  0  0  0  0
   45.4760   30.1710   39.2250 O   0  0  0  0  0  0  0  0  0  0  0  0
   47.6740   29.3280   39.7340 O   0  0  0  0  0  0  0  0  0  0  0  0
   46.4020   30.7000   41.5570 C   0  0  0  0  0  0  0  0  0  0  0  0
   47.4120   30.2610   42.4570 C   0  0  0  0  0  0  0  0  0  0  0  0
   48.3680   29.8840   42.0320 H   0  0  0  0  0  0  0  0  0  0  0  0
   47.4320   30.2090   43.8570 C   0  0  0  0  0  0  0  0  0  0  0  0
   48.2770   29.8480   44.4020 H   0  0  0  0  0  0  0  0  0  0  0  0
   46.2590   30.6690   44.4000 C   0  0  0  0  0  3  0  0  0  0  0  0
   45.2530   31.1050   43.5900 C   0  0  0  0  0  3  0  0  0  0  0  0
   45.3470   31.1070   42.2720 N   0  0  0  0  0  0  0  0  0  0  0  0
  1 30  1  0  0  0  0
  2  1  1  0  0  0  0
  2 14  1  0  0  0  0
  3  2  2  0  0  0  0
  4  3  1  0  0  0  0
  5  4  2  0  0  0  0
  5  6  1  0  0  0  0
  6 10  1  0  0  0  0
  6  1  2  0  0  0  0
  7  3  1  0  0  0  0
  8  4  1  0  0  0  0
  9  5  1  0  0  0  0
 12 11  1  0  0  0  0
 13 23  1  0  0  0  0
 13 12  2  0  0  0  0
 14 13  1  0  0  0  0
 15 14  2  0  0  0  0
 15 16  1  0  0  0  0
 16 17  2  0  0  0  0
 17 12  1  0  0  0  0
 17 20  1  0  0  0  0
 18 15  1  0  0  0  0
 19 16  1  0  0  0  0
 21 26  1  0  0  0  0
 22 23  1  0  0  0  0
 22 21  2  0  0  0  0
 23 24  2  0  0  0  0
 24 25  1  0  0  0  0
 25 29  1  0  0  0  0
 26 25  2  0  0  0  0
 27 21  1  0  0  0  0
 28 22  1  0  0  0  0
 30 33  1  0  0  0  0
 31 30  2  0  0  0  0
 32 30  2  0  0  0  0
 33 40  2  0  0  0  0
 33 34  1  0  0  0  0
 34 36  2  0  0  0  0
 35 34  1  0  0  0  0
 36 38  1  0  0  0  0
 36 37  1  0  0  0  0
 39 38  2  0  0  0  0
 40 39  1  0  0  0  0
M  END
>  <minimizedAffinity>
-4.80943966

>  <minimizedRMSD>
1.2077322

$$$$
