
 OpenBabel03252509083D

 40 43  0  0  0  0  0  0  0  0999 V2000
   47.5690   31.7760   38.9820 C   0  0  0  0  0  0  0  0  0  0  0  0
   47.1510   33.0750   38.9770 C   0  0  0  0  0  0  0  0  0  0  0  0
   47.8030   34.0110   38.1930 C   0  0  0  0  0  0  0  0  0  0  0  0
   48.8730   33.6350   37.4160 C   0  0  0  0  0  0  0  0  0  0  0  0
   49.3350   32.3190   37.3900 C   0  0  0  0  0  0  0  0  0  0  0  0
   48.6560   31.3940   38.1940 C   0  0  0  0  0  0  0  0  0  0  0  0
   47.5040   35.0490   38.1600 H   0  0  0  0  0  0  0  0  0  0  0  0
   49.4560   34.2700   36.7700 H   0  0  0  0  0  0  0  0  0  0  0  0
   50.1540   31.9350   36.8210 H   0  0  0  0  0  0  0  0  0  0  0  0
   48.9860   30.3550   38.2020 H   0  0  0  0  0  0  0  0  0  0  0  0
   45.3830   35.4570   43.2020 Cl  0  0  0  0  0  0  0  0  0  0  0  0
   45.1950   34.6570   41.6600 C   0  0  0  0  0  0  0  0  0  0  0  0
   46.2730   34.2150   40.9640 C   0  0  0  0  0  0  0  0  0  0  0  0
   46.0210   33.5790   39.7580 C   0  0  0  0  0  0  0  0  0  0  0  0
   44.7450   33.4040   39.2810 C   0  0  0  0  0  0  0  0  0  0  0  0
   43.6810   33.8530   39.9910 C   0  0  0  0  0  0  0  0  0  0  0  0
   43.9170   34.4830   41.1880 C   0  0  0  0  0  0  0  0  0  0  0  0
   44.6070   32.8970   38.3250 H   0  0  0  0  0  0  0  0  0  0  0  0
   42.6990   33.6910   39.5770 H   0  0  0  0  0  0  0  0  0  0  0  0
   43.0450   34.8330   41.7390 H   0  0  0  0  0  0  0  0  0  0  0  0
   49.5800   35.7730   41.9010 C   0  0  0  0  0  0  0  0  0  0  0  0
   48.3010   35.5910   41.3690 C   0  0  0  0  0  0  0  0  0  0  0  0
   47.6000   34.4140   41.5130 C   0  0  0  0  0  0  0  0  0  0  0  0
   48.2610   33.4550   42.2130 N   0  0  0  0  0  0  0  0  0  0  0  0
   49.4800   33.6150   42.7260 C   0  0  0  0  0  0  0  0  0  0  0  0
   50.1310   34.7700   42.5680 N   0  0  0  0  0  0  0  0  0  0  0  0
   50.0670   36.7230   41.7470 H   0  0  0  0  0  0  0  0  0  0  0  0
   47.8120   36.3860   40.8170 H   0  0  0  0  0  0  0  0  0  0  0  0
   49.8420   32.7360   43.2530 H   0  0  0  0  0  0  0  0  0  0  0  0
   46.7690   30.6050   39.8860 S   0  0  0  0  0  0  0  0  0  0  0  0
   45.4750   30.1720   39.2270 O   0  0  0  0  0  0  0  0  0  0  0  0
   47.6730   29.3290   39.7350 O   0  0  0  0  0  0  0  0  0  0  0  0
   46.4030   30.7010   41.5580 C   0  0  0  0  0  0  0  0  0  0  0  0
   47.4130   30.2620   42.4580 C   0  0  0  0  0  0  0  0  0  0  0  0
   48.3680   29.8840   42.0330 H   0  0  0  0  0  0  0  0  0  0  0  0
   47.4340   30.2080   43.8580 C   0  0  0  0  0  0  0  0  0  0  0  0
   48.2780   29.8470   44.4020 H   0  0  0  0  0  0  0  0  0  0  0  0
   46.2610   30.6680   44.4020 C   0  0  0  0  0  3  0  0  0  0  0  0
   45.2550   31.1030   43.5930 C   0  0  0  0  0  3  0  0  0  0  0  0
   45.3470   31.1080   42.2740 N   0  0  0  0  0  0  0  0  0  0  0  0
  1 30  1  0  0  0  0
  2  1  1  0  0  0  0
  2 14  1  0  0  0  0
  3  2  2  0  0  0  0
  4  3  1  0  0  0  0
  5  4  2  0  0  0  0
  5  6  1  0  0  0  0
  6 10  1  0  0  0  0
  6  1  2  0  0  0  0
  7  3  1  0  0  0  0
  8  4  1  0  0  0  0
  9  5  1  0  0  0  0
 12 11  1  0  0  0  0
 13 23  1  0  0  0  0
 13 12  2  0  0  0  0
 14 13  1  0  0  0  0
 15 14  2  0  0  0  0
 15 16  1  0  0  0  0
 16 17  2  0  0  0  0
 17 12  1  0  0  0  0
 17 20  1  0  0  0  0
 18 15  1  0  0  0  0
 19 16  1  0  0  0  0
 21 26  1  0  0  0  0
 22 23  1  0  0  0  0
 22 21  2  0  0  0  0
 23 24  2  0  0  0  0
 24 25  1  0  0  0  0
 25 29  1  0  0  0  0
 26 25  2  0  0  0  0
 27 21  1  0  0  0  0
 28 22  1  0  0  0  0
 30 33  1  0  0  0  0
 31 30  2  0  0  0  0
 32 30  2  0  0  0  0
 33 40  2  0  0  0  0
 33 34  1  0  0  0  0
 34 36  2  0  0  0  0
 35 34  1  0  0  0  0
 36 37  1  0  0  0  0
 36 38  1  0  0  0  0
 39 38  2  0  0  0  0
 40 39  1  0  0  0  0
M  END
>  <minimizedAffinity>
-4.80888844

>  <minimizedRMSD>
1.0293045

$$$$
