
 OpenBabel03252505503D

 21 22  0  0  0  0  0  0  0  0999 V2000
   38.7620   31.3700   41.0650 C   0  0  0  0  0  0  0  0  0  0  0  0
   37.6150   31.7140   40.3650 C   0  0  0  0  0  0  0  0  0  0  0  0
   36.4490   31.0140   40.6530 C   0  0  0  0  0  0  0  0  0  0  0  0
   36.4920   30.0430   41.5930 N   0  0  0  0  0  0  0  0  0  0  0  0
   37.6280   29.7390   42.2500 C   0  0  0  0  0  0  0  0  0  0  0  0
   38.7630   30.3910   41.9970 N   0  0  0  0  0  0  0  0  0  0  0  0
   39.7220   31.8630   40.9050 H   0  0  0  0  0  0  0  0  0  0  0  0
   35.5870   31.2990   40.1030 H   0  0  0  0  0  0  0  0  0  0  0  0
   37.7410   32.8090   39.3600 C   0  0  0  0  0  0  0  0  0  0  0  0
   39.0870   33.1170   39.2900 F   0  0  0  0  0  0  0  0  0  0  0  0
   37.0100   33.8840   39.7900 F   0  0  0  0  0  0  0  0  0  0  0  0
   37.2460   32.3170   38.1510 F   0  0  0  0  0  0  0  0  0  0  0  0
   37.6660   28.7360   43.2170 O   0  0  0  0  0  0  0  0  0  0  0  0
   37.9970   27.4290   42.9910 C   0  0  0  0  0  0  0  0  0  0  0  0
   39.1890   27.0730   43.6310 C   0  0  0  0  0  0  0  0  0  0  0  0
   39.8000   27.7420   44.2430 H   0  0  0  0  0  0  0  0  0  0  0  0
   39.7170   25.7960   43.5390 C   0  0  0  0  0  0  0  0  0  0  0  0
   40.6360   25.5000   44.0260 H   0  0  0  0  0  0  0  0  0  0  0  0
   39.0660   24.8250   42.8030 C   0  0  0  0  0  3  0  0  0  0  0  0
   37.8950   25.2300   42.1920 C   0  0  0  0  0  3  0  0  0  0  0  0
   37.3740   26.4620   42.2720 N   0  0  0  0  0  0  0  0  0  0  0  0
  1  6  1  0  0  0  0
  2  3  1  0  0  0  0
  2  1  2  0  0  0  0
  3  4  2  0  0  0  0
  4  5  1  0  0  0  0
  5 13  1  0  0  0  0
  6  5  2  0  0  0  0
  7  1  1  0  0  0  0
  8  3  1  0  0  0  0
  9 11  1  0  0  0  0
  9  2  1  0  0  0  0
 10  9  1  0  0  0  0
 12  9  1  0  0  0  0
 14 13  1  0  0  0  0
 14 15  1  0  0  0  0
 15 16  1  0  0  0  0
 17 15  2  0  0  0  0
 17 18  1  0  0  0  0
 19 17  1  0  0  0  0
 20 21  1  0  0  0  0
 20 19  2  0  0  0  0
 21 14  2  0  0  0  0
M  END
>  <minimizedAffinity>
-5.02309752

$$$$

 OpenBabel03252505503D

 21 22  0  0  0  0  0  0  0  0999 V2000
   38.6100   31.2790   41.0430 C   0  0  0  0  0  0  0  0  0  0  0  0
   37.5140   31.6100   40.2600 C   0  0  0  0  0  0  0  0  0  0  0  0
   36.3320   30.9110   40.4760 C   0  0  0  0  0  0  0  0  0  0  0  0
   36.3110   29.9530   41.4300 N   0  0  0  0  0  0  0  0  0  0  0  0
   37.3990   29.6610   42.1690 C   0  0  0  0  0  0  0  0  0  0  0  0
   38.5480   30.3130   41.9860 N   0  0  0  0  0  0  0  0  0  0  0  0
   39.5780   31.7730   40.9440 H   0  0  0  0  0  0  0  0  0  0  0  0
   35.5100   31.1860   39.8620 H   0  0  0  0  0  0  0  0  0  0  0  0
   37.7070   32.6910   39.2510 C   0  0  0  0  0  0  0  0  0  0  0  0
   37.2670   32.1780   38.0440 F   0  0  0  0  0  0  0  0  0  0  0  0
   39.0390   33.0070   39.1970 F   0  0  0  0  0  0  0  0  0  0  0  0
   36.9490   33.7860   39.6690 F   0  0  0  0  0  0  0  0  0  0  0  0
   37.3710   28.6720   43.1500 O   0  0  0  0  0  0  0  0  0  0  0  0
   37.9780   27.4500   43.0620 C   0  0  0  0  0  0  0  0  0  0  0  0
   37.1840   26.5180   42.3850 C   0  0  0  0  0  0  0  0  0  0  0  0
   36.1930   26.7190   41.9680 H   0  0  0  0  0  0  0  0  0  0  0  0
   37.6000   25.2140   42.1790 C   0  0  0  0  0  0  0  0  0  0  0  0
   37.0020   24.4780   41.6590 H   0  0  0  0  0  0  0  0  0  0  0  0
   38.8320   24.7950   42.6440 C   0  0  0  0  0  3  0  0  0  0  0  0
   39.5740   25.7540   43.3050 C   0  0  0  0  0  3  0  0  0  0  0  0
   39.1840   27.0190   43.5110 N   0  0  0  0  0  0  0  0  0  0  0  0
  1  6  1  0  0  0  0
  2  3  1  0  0  0  0
  2  1  2  0  0  0  0
  3  4  2  0  0  0  0
  4  5  1  0  0  0  0
  5 13  1  0  0  0  0
  6  5  2  0  0  0  0
  7  1  1  0  0  0  0
  8  3  1  0  0  0  0
  9 12  1  0  0  0  0
  9  2  1  0  0  0  0
 10  9  1  0  0  0  0
 11  9  1  0  0  0  0
 14 13  1  0  0  0  0
 14 21  1  0  0  0  0
 15 14  2  0  0  0  0
 16 15  1  0  0  0  0
 17 15  1  0  0  0  0
 17 19  2  0  0  0  0
 18 17  1  0  0  0  0
 19 20  1  0  0  0  0
 20 21  2  0  0  0  0
M  END
>  <minimizedAffinity>
-4.9946866

$$$$

 OpenBabel03252505503D

 21 22  0  0  0  0  0  0  0  0999 V2000
   38.8010   30.9480   40.7410 C   0  0  0  0  0  0  0  0  0  0  0  0
   37.7210   31.7730   40.4640 C   0  0  0  0  0  0  0  0  0  0  0  0
   36.4520   31.3020   40.7780 C   0  0  0  0  0  0  0  0  0  0  0  0
   36.3370   30.0750   41.3340 N   0  0  0  0  0  0  0  0  0  0  0  0
   37.4120   29.3030   41.5870 C   0  0  0  0  0  0  0  0  0  0  0  0
   38.6430   29.7260   41.2970 N   0  0  0  0  0  0  0  0  0  0  0  0
   39.8330   31.2340   40.5290 H   0  0  0  0  0  0  0  0  0  0  0  0
   35.6450   31.9550   40.5550 H   0  0  0  0  0  0  0  0  0  0  0  0
   38.0240   33.0980   39.8490 C   0  0  0  0  0  0  0  0  0  0  0  0
   38.4350   33.9200   40.8820 F   0  0  0  0  0  0  0  0  0  0  0  0
   36.8860   33.5780   39.2590 F   0  0  0  0  0  0  0  0  0  0  0  0
   39.0300   32.8920   38.9030 F   0  0  0  0  0  0  0  0  0  0  0  0
   37.2850   28.0390   42.1580 O   0  0  0  0  0  0  0  0  0  0  0  0
   37.0460   26.8800   41.4740 C   0  0  0  0  0  0  0  0  0  0  0  0
   37.1120   25.7580   42.3070 C   0  0  0  0  0  0  0  0  0  0  0  0
   37.3270   25.7800   43.3780 H   0  0  0  0  0  0  0  0  0  0  0  0
   36.9030   24.4760   41.8260 C   0  0  0  0  0  0  0  0  0  0  0  0
   36.9490   23.5950   42.4520 H   0  0  0  0  0  0  0  0  0  0  0  0
   36.6180   24.2720   40.4890 C   0  0  0  0  0  3  0  0  0  0  0  0
   36.5660   25.4130   39.7130 C   0  0  0  0  0  3  0  0  0  0  0  0
   36.7660   26.6580   40.1650 N   0  0  0  0  0  0  0  0  0  0  0  0
  1  6  1  0  0  0  0
  2  1  2  0  0  0  0
  2  3  1  0  0  0  0
  3  4  2  0  0  0  0
  4  5  1  0  0  0  0
  5 13  1  0  0  0  0
  6  5  2  0  0  0  0
  7  1  1  0  0  0  0
  8  3  1  0  0  0  0
  9  2  1  0  0  0  0
  9 10  1  0  0  0  0
 11  9  1  0  0  0  0
 12  9  1  0  0  0  0
 14 13  1  0  0  0  0
 14 15  1  0  0  0  0
 15 16  1  0  0  0  0
 17 15  2  0  0  0  0
 17 18  1  0  0  0  0
 19 17  1  0  0  0  0
 20 21  1  0  0  0  0
 20 19  2  0  0  0  0
 21 14  2  0  0  0  0
M  END
>  <minimizedAffinity>
-4.75882578

$$$$

 OpenBabel03252505503D

 21 22  0  0  0  0  0  0  0  0999 V2000
   37.6150   29.7300   39.1310 C   0  0  0  0  0  0  0  0  0  0  0  0
   37.3270   31.0320   39.5130 C   0  0  0  0  0  0  0  0  0  0  0  0
   36.7950   31.2300   40.7820 C   0  0  0  0  0  0  0  0  0  0  0  0
   36.5890   30.1530   41.5730 N   0  0  0  0  0  0  0  0  0  0  0  0
   36.8820   28.9030   41.1640 C   0  0  0  0  0  0  0  0  0  0  0  0
   37.3920   28.6800   39.9530 N   0  0  0  0  0  0  0  0  0  0  0  0
   38.0330   29.4790   38.1560 H   0  0  0  0  0  0  0  0  0  0  0  0
   36.5850   32.2370   41.0460 H   0  0  0  0  0  0  0  0  0  0  0  0
   37.6140   32.1060   38.5180 C   0  0  0  0  0  0  0  0  0  0  0  0
   36.8530   33.1970   38.8960 F   0  0  0  0  0  0  0  0  0  0  0  0
   37.2530   31.6590   37.2750 F   0  0  0  0  0  0  0  0  0  0  0  0
   38.9840   32.3670   38.5780 F   0  0  0  0  0  0  0  0  0  0  0  0
   36.6660   27.7980   41.9840 O   0  0  0  0  0  0  0  0  0  0  0  0
   37.6130   26.8830   42.3490 C   0  0  0  0  0  0  0  0  0  0  0  0
   38.5860   27.4420   43.1850 C   0  0  0  0  0  0  0  0  0  0  0  0
   38.6080   28.4830   43.5180 H   0  0  0  0  0  0  0  0  0  0  0  0
   39.6450   26.6980   43.6770 C   0  0  0  0  0  0  0  0  0  0  0  0
   40.4070   27.1110   44.3240 H   0  0  0  0  0  0  0  0  0  0  0  0
   39.7670   25.3610   43.3510 C   0  0  0  0  0  3  0  0  0  0  0  0
   38.7800   24.8600   42.5230 C   0  0  0  0  0  3  0  0  0  0  0  0
   37.7510   25.5690   42.0400 N   0  0  0  0  0  0  0  0  0  0  0  0
  1  2  2  0  0  0  0
  1  6  1  0  0  0  0
  2  3  1  0  0  0  0
  3  8  1  0  0  0  0
  3  4  2  0  0  0  0
  5  4  1  0  0  0  0
  5 13  1  0  0  0  0
  6  5  2  0  0  0  0
  7  1  1  0  0  0  0
  9 12  1  0  0  0  0
  9 10  1  0  0  0  0
  9  2  1  0  0  0  0
 11  9  1  0  0  0  0
 13 14  1  0  0  0  0
 14 15  1  0  0  0  0
 15 16  1  0  0  0  0
 15 17  2  0  0  0  0
 17 18  1  0  0  0  0
 19 17  1  0  0  0  0
 20 19  2  0  0  0  0
 21 14  2  0  0  0  0
 21 20  1  0  0  0  0
M  END
>  <minimizedAffinity>
-4.75875378

$$$$

 OpenBabel03252505503D

 21 22  0  0  0  0  0  0  0  0999 V2000
   36.9920   26.7740   40.4510 C   0  0  0  0  0  0  0  0  0  0  0  0
   37.1630   26.1190   41.6620 C   0  0  0  0  0  0  0  0  0  0  0  0
   37.1050   26.8830   42.8220 C   0  0  0  0  0  0  0  0  0  0  0  0
   36.8850   28.2120   42.7120 N   0  0  0  0  0  0  0  0  0  0  0  0
   36.7240   28.8100   41.5150 C   0  0  0  0  0  0  0  0  0  0  0  0
   36.7750   28.1060   40.3840 N   0  0  0  0  0  0  0  0  0  0  0  0
   37.0230   26.2570   39.4910 H   0  0  0  0  0  0  0  0  0  0  0  0
   37.2390   26.3550   43.7340 H   0  0  0  0  0  0  0  0  0  0  0  0
   37.3980   24.6470   41.6060 C   0  0  0  0  0  0  0  0  0  0  0  0
   36.1490   24.0540   41.6390 F   0  0  0  0  0  0  0  0  0  0  0  0
   38.1480   24.2820   42.6920 F   0  0  0  0  0  0  0  0  0  0  0  0
   38.0790   24.3840   40.4160 F   0  0  0  0  0  0  0  0  0  0  0  0
   36.5000   30.1810   41.4090 O   0  0  0  0  0  0  0  0  0  0  0  0
   37.4180   31.1060   40.9990 C   0  0  0  0  0  0  0  0  0  0  0  0
   36.8640   32.0410   40.1180 C   0  0  0  0  0  0  0  0  0  0  0  0
   35.8230   32.0500   39.7830 H   0  0  0  0  0  0  0  0  0  0  0  0
   37.6130   33.0700   39.5750 C   0  0  0  0  0  0  0  0  0  0  0  0
   37.2040   33.8030   38.8920 H   0  0  0  0  0  0  0  0  0  0  0  0
   38.9510   33.2030   39.8970 C   0  0  0  0  0  3  0  0  0  0  0  0
   39.4470   32.2540   40.7700 C   0  0  0  0  0  3  0  0  0  0  0  0
   38.7330   31.2530   41.3020 N   0  0  0  0  0  0  0  0  0  0  0  0
  1  2  1  0  0  0  0
  2  3  2  0  0  0  0
  3  8  1  0  0  0  0
  4  3  1  0  0  0  0
  5  4  2  0  0  0  0
  6  1  2  0  0  0  0
  6  5  1  0  0  0  0
  7  1  1  0  0  0  0
  9 10  1  0  0  0  0
  9  2  1  0  0  0  0
  9 11  1  0  0  0  0
 12  9  1  0  0  0  0
 13  5  1  0  0  0  0
 14 21  1  0  0  0  0
 14 13  1  0  0  0  0
 15 14  2  0  0  0  0
 16 15  1  0  0  0  0
 17 19  2  0  0  0  0
 17 15  1  0  0  0  0
 18 17  1  0  0  0  0
 19 20  1  0  0  0  0
 20 21  2  0  0  0  0
M  END
>  <minimizedAffinity>
-4.68086672

$$$$

 OpenBabel03252505503D

 21 22  0  0  0  0  0  0  0  0999 V2000
   37.2830   26.7170   42.3500 C   0  0  0  0  0  0  0  0  0  0  0  0
   37.0440   25.9680   41.2070 C   0  0  0  0  0  0  0  0  0  0  0  0
   36.5930   26.6400   40.0780 C   0  0  0  0  0  0  0  0  0  0  0  0
   36.4120   27.9780   40.1500 N   0  0  0  0  0  0  0  0  0  0  0  0
   36.6560   28.6690   41.2800 C   0  0  0  0  0  0  0  0  0  0  0  0
   37.0890   28.0540   42.3800 N   0  0  0  0  0  0  0  0  0  0  0  0
   37.6380   26.2760   43.2830 H   0  0  0  0  0  0  0  0  0  0  0  0
   36.4180   26.0410   39.2180 H   0  0  0  0  0  0  0  0  0  0  0  0
   37.2940   24.5000   41.2990 C   0  0  0  0  0  0  0  0  0  0  0  0
   38.2020   24.1980   40.3000 F   0  0  0  0  0  0  0  0  0  0  0  0
   36.1090   23.8410   41.1040 F   0  0  0  0  0  0  0  0  0  0  0  0
   37.8040   24.2470   42.5740 F   0  0  0  0  0  0  0  0  0  0  0  0
   36.4660   30.0480   41.3470 O   0  0  0  0  0  0  0  0  0  0  0  0
   37.3760   30.9930   40.9660 C   0  0  0  0  0  0  0  0  0  0  0  0
   36.8270   31.9190   40.0710 C   0  0  0  0  0  0  0  0  0  0  0  0
   35.7970   31.9070   39.7060 H   0  0  0  0  0  0  0  0  0  0  0  0
   37.5700   32.9650   39.5520 C   0  0  0  0  0  0  0  0  0  0  0  0
   37.1650   33.6910   38.8600 H   0  0  0  0  0  0  0  0  0  0  0  0
   38.8940   33.1250   39.9130 C   0  0  0  0  0  3  0  0  0  0  0  0
   39.3850   32.1850   40.7970 C   0  0  0  0  0  3  0  0  0  0  0  0
   38.6780   31.1670   41.3070 N   0  0  0  0  0  0  0  0  0  0  0  0
  1  6  1  0  0  0  0
  1  7  1  0  0  0  0
  2  9  1  0  0  0  0
  2  1  2  0  0  0  0
  3  4  2  0  0  0  0
  3  2  1  0  0  0  0
  4  5  1  0  0  0  0
  5 13  1  0  0  0  0
  5  6  2  0  0  0  0
  8  3  1  0  0  0  0
  9 12  1  0  0  0  0
 10  9  1  0  0  0  0
 11  9  1  0  0  0  0
 14 21  1  0  0  0  0
 14 13  1  0  0  0  0
 15 14  2  0  0  0  0
 16 15  1  0  0  0  0
 17 19  2  0  0  0  0
 17 15  1  0  0  0  0
 18 17  1  0  0  0  0
 19 20  1  0  0  0  0
 20 21  2  0  0  0  0
M  END
>  <minimizedAffinity>
-4.53507423

$$$$

 OpenBabel03252505503D

 21 22  0  0  0  0  0  0  0  0999 V2000
   37.3580   29.3470   42.2990 C   0  0  0  0  0  0  0  0  0  0  0  0
   36.9540   28.0930   41.8660 C   0  0  0  0  0  0  0  0  0  0  0  0
   36.6790   27.9350   40.5120 C   0  0  0  0  0  0  0  0  0  0  0  0
   36.8200   29.0020   39.6950 N   0  0  0  0  0  0  0  0  0  0  0  0
   37.2150   30.2050   40.1560 C   0  0  0  0  0  0  0  0  0  0  0  0
   37.4860   30.3890   41.4480 N   0  0  0  0  0  0  0  0  0  0  0  0
   37.5940   29.5640   43.3420 H   0  0  0  0  0  0  0  0  0  0  0  0
   36.3720   26.9650   40.2100 H   0  0  0  0  0  0  0  0  0  0  0  0
   36.8480   27.0230   42.9000 C   0  0  0  0  0  0  0  0  0  0  0  0
   36.7090   25.8310   42.2120 F   0  0  0  0  0  0  0  0  0  0  0  0
   35.7500   27.2750   43.6790 F   0  0  0  0  0  0  0  0  0  0  0  0
   38.0200   27.0650   43.6570 F   0  0  0  0  0  0  0  0  0  0  0  0
   37.3570   31.3010   39.3070 O   0  0  0  0  0  0  0  0  0  0  0  0
   38.5150   31.9960   39.0960 C   0  0  0  0  0  0  0  0  0  0  0  0
   39.2210   31.5150   37.9880 C   0  0  0  0  0  0  0  0  0  0  0  0
   38.9040   30.6830   37.3520 H   0  0  0  0  0  0  0  0  0  0  0  0
   40.4240   32.0700   37.5890 C   0  0  0  0  0  0  0  0  0  0  0  0
   40.9850   31.7130   36.7350 H   0  0  0  0  0  0  0  0  0  0  0  0
   40.9660   33.1330   38.2850 C   0  0  0  0  0  3  0  0  0  0  0  0
   40.2290   33.5680   39.3700 C   0  0  0  0  0  3  0  0  0  0  0  0
   39.0640   33.0400   39.7680 N   0  0  0  0  0  0  0  0  0  0  0  0
  1  7  1  0  0  0  0
  2  1  1  0  0  0  0
  2  9  1  0  0  0  0
  3  2  2  0  0  0  0
  4  5  2  0  0  0  0
  4  3  1  0  0  0  0
  5  6  1  0  0  0  0
  6  1  2  0  0  0  0
  8  3  1  0  0  0  0
  9 12  1  0  0  0  0
  9 11  1  0  0  0  0
 10  9  1  0  0  0  0
 13  5  1  0  0  0  0
 14 13  1  0  0  0  0
 14 21  1  0  0  0  0
 15 14  2  0  0  0  0
 16 15  1  0  0  0  0
 17 15  1  0  0  0  0
 17 19  2  0  0  0  0
 18 17  1  0  0  0  0
 19 20  1  0  0  0  0
 20 21  2  0  0  0  0
M  END
>  <minimizedAffinity>
-4.52322006

$$$$

 OpenBabel03252505503D

 21 22  0  0  0  0  0  0  0  0999 V2000
   37.0530   30.2360   37.3990 C   0  0  0  0  0  0  0  0  0  0  0  0
   36.0900   29.5770   36.6490 C   0  0  0  0  0  0  0  0  0  0  0  0
   35.0170   29.0140   37.3280 C   0  0  0  0  0  0  0  0  0  0  0  0
   34.9660   29.1360   38.6740 N   0  0  0  0  0  0  0  0  0  0  0  0
   35.9230   29.7850   39.3660 C   0  0  0  0  0  0  0  0  0  0  0  0
   36.9660   30.3350   38.7440 N   0  0  0  0  0  0  0  0  0  0  0  0
   37.9300   30.7070   36.9520 H   0  0  0  0  0  0  0  0  0  0  0  0
   34.2960   28.5160   36.7280 H   0  0  0  0  0  0  0  0  0  0  0  0
   36.3000   29.5320   35.1720 C   0  0  0  0  0  0  0  0  0  0  0  0
   36.6080   30.8240   34.7860 F   0  0  0  0  0  0  0  0  0  0  0  0
   35.1430   29.1020   34.5790 F   0  0  0  0  0  0  0  0  0  0  0  0
   37.3480   28.6420   34.9320 F   0  0  0  0  0  0  0  0  0  0  0  0
   35.8650   29.9060   40.7530 O   0  0  0  0  0  0  0  0  0  0  0  0
   36.7380   29.3360   41.6360 C   0  0  0  0  0  0  0  0  0  0  0  0
   36.3950   28.0120   41.9310 C   0  0  0  0  0  0  0  0  0  0  0  0
   35.5370   27.4760   41.5170 H   0  0  0  0  0  0  0  0  0  0  0  0
   37.1410   27.2390   42.8040 C   0  0  0  0  0  0  0  0  0  0  0  0
   36.8940   26.2140   43.0450 H   0  0  0  0  0  0  0  0  0  0  0  0
   38.2630   27.7660   43.4160 C   0  0  0  0  0  3  0  0  0  0  0  0
   38.5550   29.0760   43.0910 C   0  0  0  0  0  3  0  0  0  0  0  0
   37.8420   29.8350   42.2470 N   0  0  0  0  0  0  0  0  0  0  0  0
  1  6  1  0  0  0  0
  2  3  1  0  0  0  0
  2  1  2  0  0  0  0
  3  4  2  0  0  0  0
  4  5  1  0  0  0  0
  5 13  1  0  0  0  0
  6  5  2  0  0  0  0
  7  1  1  0  0  0  0
  8  3  1  0  0  0  0
  9  2  1  0  0  0  0
 10  9  1  0  0  0  0
 11  9  1  0  0  0  0
 12  9  1  0  0  0  0
 13 14  1  0  0  0  0
 14 15  2  0  0  0  0
 14 21  1  0  0  0  0
 15 17  1  0  0  0  0
 16 15  1  0  0  0  0
 17 18  1  0  0  0  0
 17 19  2  0  0  0  0
 20 19  1  0  0  0  0
 21 20  2  0  0  0  0
M  END
>  <minimizedAffinity>
-4.40437698

$$$$

 OpenBabel03252505503D

 21 22  0  0  0  0  0  0  0  0999 V2000
   35.2650   29.0160   37.2560 C   0  0  0  0  0  0  0  0  0  0  0  0
   36.2700   29.6990   36.5870 C   0  0  0  0  0  0  0  0  0  0  0  0
   37.1520   30.4580   37.3490 C   0  0  0  0  0  0  0  0  0  0  0  0
   36.9860   30.4910   38.6900 N   0  0  0  0  0  0  0  0  0  0  0  0
   35.9950   29.8130   39.3020 C   0  0  0  0  0  0  0  0  0  0  0  0
   35.1330   29.0760   38.6000 N   0  0  0  0  0  0  0  0  0  0  0  0
   34.5280   28.3970   36.7420 H   0  0  0  0  0  0  0  0  0  0  0  0
   37.9110   30.9690   36.8100 H   0  0  0  0  0  0  0  0  0  0  0  0
   36.3110   29.5560   35.1030 C   0  0  0  0  0  0  0  0  0  0  0  0
   37.3330   28.6660   34.8280 F   0  0  0  0  0  0  0  0  0  0  0  0
   36.5630   30.7840   34.5520 F   0  0  0  0  0  0  0  0  0  0  0  0
   35.0640   29.0720   34.7020 F   0  0  0  0  0  0  0  0  0  0  0  0
   35.8290   29.8520   40.6840 O   0  0  0  0  0  0  0  0  0  0  0  0
   36.6910   29.3200   41.6020 C   0  0  0  0  0  0  0  0  0  0  0  0
   36.3170   28.0280   41.9840 C   0  0  0  0  0  0  0  0  0  0  0  0
   35.4450   27.4870   41.6080 H   0  0  0  0  0  0  0  0  0  0  0  0
   37.0470   27.2970   42.9060 C   0  0  0  0  0  0  0  0  0  0  0  0
   36.7760   26.2960   43.2150 H   0  0  0  0  0  0  0  0  0  0  0  0
   38.1830   27.8350   43.4790 C   0  0  0  0  0  3  0  0  0  0  0  0
   38.5060   29.1130   43.0670 C   0  0  0  0  0  3  0  0  0  0  0  0
   37.8090   29.8320   42.1770 N   0  0  0  0  0  0  0  0  0  0  0  0
  1  6  1  0  0  0  0
  2  1  2  0  0  0  0
  2  3  1  0  0  0  0
  3  4  2  0  0  0  0
  4  5  1  0  0  0  0
  5 13  1  0  0  0  0
  6  5  2  0  0  0  0
  7  1  1  0  0  0  0
  8  3  1  0  0  0  0
  9  2  1  0  0  0  0
 10  9  1  0  0  0  0
 11  9  1  0  0  0  0
 12  9  1  0  0  0  0
 13 14  1  0  0  0  0
 14 15  2  0  0  0  0
 14 21  1  0  0  0  0
 15 17  1  0  0  0  0
 16 15  1  0  0  0  0
 17 18  1  0  0  0  0
 17 19  2  0  0  0  0
 20 19  1  0  0  0  0
 21 20  2  0  0  0  0
M  END
>  <minimizedAffinity>
-4.40220213

$$$$
