
 OpenBabel03252509073D

 40 43  0  0  0  0  0  0  0  0999 V2000
   46.5480   31.6080   38.6930 C   0  0  0  0  0  0  0  0  0  0  0  0
   46.3970   32.9630   38.7230 C   0  0  0  0  0  0  0  0  0  0  0  0
   45.7380   33.6100   37.6920 C   0  0  0  0  0  0  0  0  0  0  0  0
   45.2310   32.8900   36.6370 C   0  0  0  0  0  0  0  0  0  0  0  0
   45.3620   31.5030   36.5660 C   0  0  0  0  0  0  0  0  0  0  0  0
   46.0350   30.8750   37.6220 C   0  0  0  0  0  0  0  0  0  0  0  0
   45.5960   34.6810   37.6770 H   0  0  0  0  0  0  0  0  0  0  0  0
   44.7030   33.2800   35.7830 H   0  0  0  0  0  0  0  0  0  0  0  0
   45.0040   30.8610   35.7890 H   0  0  0  0  0  0  0  0  0  0  0  0
   46.1580   29.7920   37.6030 H   0  0  0  0  0  0  0  0  0  0  0  0
   45.5720   35.3530   43.2240 Cl  0  0  0  0  0  0  0  0  0  0  0  0
   46.5410   34.9130   41.8380 C   0  0  0  0  0  0  0  0  0  0  0  0
   46.0490   34.1020   40.8670 C   0  0  0  0  0  0  0  0  0  0  0  0
   46.8880   33.8230   39.8000 C   0  0  0  0  0  0  0  0  0  0  0  0
   48.1600   34.3350   39.7220 C   0  0  0  0  0  0  0  0  0  0  0  0
   48.6340   35.1430   40.7030 C   0  0  0  0  0  0  0  0  0  0  0  0
   47.8120   35.4290   41.7640 C   0  0  0  0  0  0  0  0  0  0  0  0
   48.7770   34.0800   38.8600 H   0  0  0  0  0  0  0  0  0  0  0  0
   49.6380   35.5210   40.5960 H   0  0  0  0  0  0  0  0  0  0  0  0
   48.2170   36.0800   42.5370 H   0  0  0  0  0  0  0  0  0  0  0  0
   43.0740   31.9890   41.8320 C   0  0  0  0  0  0  0  0  0  0  0  0
   44.3810   32.4710   41.7220 C   0  0  0  0  0  0  0  0  0  0  0  0
   44.6960   33.5950   40.9890 C   0  0  0  0  0  0  0  0  0  0  0  0
   43.6290   34.1840   40.3890 N   0  0  0  0  0  0  0  0  0  0  0  0
   42.3790   33.7360   40.4850 C   0  0  0  0  0  0  0  0  0  0  0  0
   42.1080   32.6440   41.2050 N   0  0  0  0  0  0  0  0  0  0  0  0
   42.9040   31.1030   42.4230 H   0  0  0  0  0  0  0  0  0  0  0  0
   45.2020   31.9670   42.2190 H   0  0  0  0  0  0  0  0  0  0  0  0
   41.6630   34.3410   39.9360 H   0  0  0  0  0  0  0  0  0  0  0  0
   47.3010   30.7850   39.9540 S   0  0  0  0  0  0  0  0  0  0  0  0
   46.2960   30.1840   40.9140 O   0  0  0  0  0  0  0  0  0  0  0  0
   47.9160   29.5160   39.2610 O   0  0  0  0  0  0  0  0  0  0  0  0
   48.5520   31.4030   40.9520 C   0  0  0  0  0  0  0  0  0  0  0  0
   49.8440   31.5010   40.3660 C   0  0  0  0  0  0  0  0  0  0  0  0
   49.9710   31.1730   39.3120 H   0  0  0  0  0  0  0  0  0  0  0  0
   51.0590   31.9540   40.8970 C   0  0  0  0  0  0  0  0  0  0  0  0
   51.9620   31.9660   40.3270 H   0  0  0  0  0  0  0  0  0  0  0  0
   50.9240   32.3600   42.2010 C   0  0  0  0  0  3  0  0  0  0  0  0
   49.7120   32.2920   42.8170 C   0  0  0  0  0  3  0  0  0  0  0  0
   48.6260   31.8430   42.2130 N   0  0  0  0  0  0  0  0  0  0  0  0
  1  2  1  0  0  0  0
  1 30  1  0  0  0  0
  2 14  1  0  0  0  0
  3  2  2  0  0  0  0
  4  3  1  0  0  0  0
  5  4  2  0  0  0  0
  5  6  1  0  0  0  0
  6  1  2  0  0  0  0
  7  3  1  0  0  0  0
  8  4  1  0  0  0  0
  9  5  1  0  0  0  0
 10  6  1  0  0  0  0
 12 11  1  0  0  0  0
 13 23  1  0  0  0  0
 13 12  2  0  0  0  0
 14 13  1  0  0  0  0
 15 14  2  0  0  0  0
 15 16  1  0  0  0  0
 16 17  2  0  0  0  0
 17 12  1  0  0  0  0
 17 20  1  0  0  0  0
 18 15  1  0  0  0  0
 19 16  1  0  0  0  0
 21 27  1  0  0  0  0
 22 21  1  0  0  0  0
 22 28  1  0  0  0  0
 23 22  2  0  0  0  0
 24 25  2  0  0  0  0
 24 23  1  0  0  0  0
 25 26  1  0  0  0  0
 26 21  2  0  0  0  0
 29 25  1  0  0  0  0
 30 31  2  0  0  0  0
 30 33  1  0  0  0  0
 32 30  2  0  0  0  0
 33 40  1  0  0  0  0
 34 36  1  0  0  0  0
 34 33  2  0  0  0  0
 35 34  1  0  0  0  0
 36 38  2  0  0  0  0
 37 36  1  0  0  0  0
 38 39  1  0  0  0  0
 40 39  2  0  0  0  0
M  END
>  <minimizedAffinity>
-4.86222935

>  <minimizedRMSD>
4.34422207

$$$$
