
 OpenBabel03252506373D

 43 46  0  0  1  0  0  0  0  0999 V2000
   44.5110   35.5190   45.1400 C   0  0  0  0  0  0  0  0  0  0  0  0
   45.1700   35.5090   43.8860 C   0  0  0  0  0  0  0  0  0  0  0  0
   46.0900   34.5490   43.6260 C   0  0  0  0  0  0  0  0  0  0  0  0
   46.3260   33.6410   44.6060 N   0  0  0  0  0  0  0  0  0  0  0  0
   45.7070   33.6550   45.7790 C   0  0  0  0  0  0  0  0  0  0  0  0
   44.7970   34.5860   46.0600 N   0  0  0  0  0  0  0  0  0  0  0  0
   46.0410   32.6420   46.7430 N   0  0  0  0  0  0  0  0  0  0  0  0
   45.3040   32.3930   47.9300 C   0  0  0  0  0  0  0  0  0  0  0  0
   46.3800   32.0430   48.9410 C   0  0  0  0  0  0  0  0  0  0  0  0
   47.6600   31.9390   48.1700 C   0  0  0  0  0  0  0  0  0  0  0  0
   47.1590   31.7300   46.7430 C   0  0  1  0  0  0  0  0  0  0  0  0
   43.7570   36.2530   45.4360 H   0  0  0  0  0  0  0  0  0  0  0  0
   46.5910   34.5310   42.6910 H   0  0  0  0  0  0  0  0  0  0  0  0
   44.9380   33.4080   48.2900 H   0  0  0  0  0  0  0  0  0  0  0  0
   44.4920   31.7480   48.0220 H   0  0  0  0  0  0  0  0  0  0  0  0
   46.4830   32.7430   49.7670 H   0  0  0  0  0  0  0  0  0  0  0  0
   46.1210   31.0560   49.4150 H   0  0  0  0  0  0  0  0  0  0  0  0
   48.3270   32.8180   48.2660 H   0  0  0  0  0  0  0  0  0  0  0  0
   48.1710   30.9980   48.4790 H   0  0  0  0  0  0  0  0  0  0  0  0
   47.9620   32.0510   46.0580 H   0  0  0  0  0  0  0  0  0  0  0  0
   44.8030   36.5470   42.9570 N   0  0  0  0  0  0  0  0  0  0  0  0
   45.3760   37.4280   43.1100 H   0  0  0  0  0  0  0  0  0  0  0  0
   44.0740   36.4740   42.2180 H   0  0  0  0  0  0  0  0  0  0  0  0
   46.6440   30.0410   46.5550 S   0  0  0  0  0  0  0  0  0  0  0  0
   45.6500   30.5810   43.4210 O   0  0  0  0  0  0  0  0  0  0  0  0
   45.0190   30.0120   44.3240 C   0  0  0  0  0  0  0  0  0  0  0  0
   45.1020   29.7590   45.7840 C   0  0  1  0  0  0  0  0  0  0  0  0
   44.5810   28.3470   45.8830 C   0  0  0  0  0  0  0  0  0  0  0  0
   43.2690   28.5670   45.1260 C   0  0  0  0  0  0  0  0  0  0  0  0
   43.7860   29.3380   44.0000 N   0  0  0  0  0  0  0  0  0  0  0  0
   44.2120   30.3540   46.1280 H   0  0  0  0  0  0  0  0  0  0  0  0
   44.4340   28.0220   46.9170 H   0  0  0  0  0  0  0  0  0  0  0  0
   45.2120   27.6470   45.2720 H   0  0  0  0  0  0  0  0  0  0  0  0
   42.6040   29.1910   45.7580 H   0  0  0  0  0  0  0  0  0  0  0  0
   42.8460   27.5910   44.8460 H   0  0  0  0  0  0  0  0  0  0  0  0
   43.0060   29.2950   42.8000 C   0  0  0  0  0  0  0  0  0  0  0  0
   41.7870   29.9570   42.9740 C   0  0  0  0  0  0  0  0  0  0  0  0
   41.4370   30.4510   43.8770 H   0  0  0  0  0  0  0  0  0  0  0  0
   40.8790   30.0270   41.9140 C   0  0  0  0  0  0  0  0  0  0  0  0
   39.9250   30.5300   42.0110 H   0  0  0  0  0  0  0  0  0  0  0  0
   41.1840   29.4420   40.6900 C   0  0  0  0  0  0  0  0  0  0  0  0
   42.4130   28.8110   40.6130 C   0  0  0  0  0  0  0  0  0  0  0  0
   43.2930   28.7400   41.6310 N   0  0  0  0  0  0  0  0  0  0  0  0
  1 12  1  0  0  0  0
  1  6  1  0  0  0  0
  2  1  2  0  0  0  0
  3  2  1  0  0  0  0
  3  4  2  0  0  0  0
  4  5  1  0  0  0  0
  5  6  2  0  0  0  0
  5  7  1  0  0  0  0
  7 11  1  0  0  0  0
  7  8  1  0  0  0  0
  8 15  1  0  0  0  0
  8 14  1  0  0  0  0
  8  9  1  0  0  0  0
  9 17  1  0  0  0  0
  9 16  1  0  0  0  0
 10 18  1  0  0  0  0
 10 19  1  0  0  0  0
 10  9  1  0  0  0  0
 11 20  1  6  0  0  0
 11 10  1  0  0  0  0
 13  3  1  0  0  0  0
 21 22  1  0  0  0  0
 21  2  1  0  0  0  0
 23 21  1  0  0  0  0
 24 11  1  0  0  0  0
 25 26  2  0  0  0  0
 26 27  1  0  0  0  0
 27 28  1  0  0  0  0
 27 31  1  1  0  0  0
 27 24  1  0  0  0  0
 28 32  1  0  0  0  0
 29 34  1  0  0  0  0
 29 28  1  0  0  0  0
 30 26  1  0  0  0  0
 30 29  1  0  0  0  0
 33 28  1  0  0  0  0
 35 29  1  0  0  0  0
 36 37  1  0  0  0  0
 36 30  1  0  0  0  0
 37 38  1  0  0  0  0
 39 40  1  0  0  0  0
 39 37  2  0  0  0  0
 41 39  1  0  0  0  0
 42 41  2  0  0  0  0
 42 43  1  0  0  0  0
 43 36  2  0  0  0  0
M  END
>  <minimizedAffinity>
-5.32394028

>  <minimizedRMSD>
0.227442801

$$$$
