
 OpenBabel03252505493D

 21 22  0  0  0  0  0  0  0  0999 V2000
   44.5970   35.4490   45.1640 C   0  0  0  0  0  0  0  0  0  0  0  0
   45.3150   35.1240   44.0220 C   0  0  0  0  0  0  0  0  0  0  0  0
   46.1110   33.9850   44.0640 C   0  0  0  0  0  0  0  0  0  0  0  0
   46.1420   33.2580   45.2030 N   0  0  0  0  0  0  0  0  0  0  0  0
   45.4290   33.6080   46.2910 C   0  0  0  0  0  0  0  0  0  0  0  0
   44.6570   34.6950   46.2840 N   0  0  0  0  0  0  0  0  0  0  0  0
   43.9480   36.3240   45.2240 H   0  0  0  0  0  0  0  0  0  0  0  0
   46.6480   33.7610   43.1760 H   0  0  0  0  0  0  0  0  0  0  0  0
   45.1680   36.0350   42.8500 C   0  0  0  0  0  0  0  0  0  0  0  0
   45.2460   37.3230   43.3490 F   0  0  0  0  0  0  0  0  0  0  0  0
   43.9510   35.8040   42.2660 F   0  0  0  0  0  0  0  0  0  0  0  0
   46.2110   35.7440   41.9690 F   0  0  0  0  0  0  0  0  0  0  0  0
   45.4670   32.8550   47.4620 O   0  0  0  0  0  0  0  0  0  0  0  0
   46.3360   31.8320   47.7190 C   0  0  0  0  0  0  0  0  0  0  0  0
   47.4720   32.2690   48.4100 C   0  0  0  0  0  0  0  0  0  0  0  0
   47.6640   33.3010   48.7170 H   0  0  0  0  0  0  0  0  0  0  0  0
   48.4860   31.4010   48.7740 C   0  0  0  0  0  0  0  0  0  0  0  0
   49.3720   31.7190   49.3080 H   0  0  0  0  0  0  0  0  0  0  0  0
   48.4000   30.0580   48.4620 C   0  0  0  0  0  0  0  0  0  0  0  0
   47.2590   29.6810   47.7800 C   0  0  0  0  0  0  0  0  0  0  0  0
   46.2700   30.5100   47.4210 N   0  0  0  0  0  0  0  0  0  0  0  0
  1  7  1  0  0  0  0
  1  6  1  0  0  0  0
  2  3  1  0  0  0  0
  2  1  2  0  0  0  0
  3  4  2  0  0  0  0
  4  5  1  0  0  0  0
  5 13  1  0  0  0  0
  6  5  2  0  0  0  0
  8  3  1  0  0  0  0
  9 10  1  0  0  0  0
  9  2  1  0  0  0  0
 11  9  1  0  0  0  0
 12  9  1  0  0  0  0
 13 14  1  0  0  0  0
 14 15  1  0  0  0  0
 15 16  1  0  0  0  0
 15 17  2  0  0  0  0
 17 18  1  0  0  0  0
 19 17  1  0  0  0  0
 20 19  2  0  0  0  0
 21 14  2  0  0  0  0
 21 20  1  0  0  0  0
M  END
>  <minimizedAffinity>
-4.97464466

>  <minimizedRMSD>
1.03287852

$$$$
