
 OpenBabel03242511063D

 26 28  0  0  1  0  0  0  0  0999 V2000
   45.9490   32.6980   45.8590 C   0  0  1  0  0  0  0  0  0  0  0  0
   46.9370   32.7950   46.9820 C   0  0  0  0  0  0  0  0  0  0  0  0
   45.4340   32.6480   47.2310 C   0  0  2  0  0  0  0  0  0  0  0  0
   45.9690   31.7680   45.2600 H   0  0  0  0  0  0  0  0  0  0  0  0
   47.6030   31.9490   47.1060 H   0  0  0  0  0  0  0  0  0  0  0  0
   47.3730   33.8350   47.0780 H   0  0  0  0  0  0  0  0  0  0  0  0
   44.9550   33.6220   47.5680 H   0  0  0  0  0  0  0  0  0  0  0  0
   44.5870   35.9390   44.6680 C   0  0  0  0  0  0  0  0  0  0  0  0
   45.2240   36.0480   43.3830 C   0  0  0  0  0  0  0  0  0  0  0  0
   46.1080   35.0040   42.9730 C   0  0  0  0  0  0  0  0  0  0  0  0
   46.3120   33.9670   43.7920 N   0  0  0  0  0  0  0  0  0  0  0  0
   45.6900   33.8950   45.0080 C   0  0  0  0  0  0  0  0  0  0  0  0
   44.8380   34.8740   45.4330 N   0  0  0  0  0  0  0  0  0  0  0  0
   43.9250   36.7450   44.9460 H   0  0  0  0  0  0  0  0  0  0  0  0
   45.0160   36.9080   42.7740 H   0  0  0  0  0  0  0  0  0  0  0  0
   46.5620   35.1350   41.9990 H   0  0  0  0  0  0  0  0  0  0  0  0
   44.9970   31.4540   47.8720 N   0  0  0  0  0  0  0  0  0  0  0  0
   44.6810   31.6490   48.8740 H   0  0  0  0  0  0  0  0  0  0  0  0
   44.8930   30.1010   47.4680 C   0  0  0  0  0  0  0  0  0  0  0  0
   45.1320   29.0690   48.3770 C   0  0  0  0  0  0  0  0  0  0  0  0
   45.4020   29.3130   49.4080 H   0  0  0  0  0  0  0  0  0  0  0  0
   45.0380   27.7550   48.0130 C   0  0  0  0  0  0  0  0  0  0  0  0
   45.2390   27.0020   48.7760 H   0  0  0  0  0  0  0  0  0  0  0  0
   44.7050   27.3720   46.7360 C   0  0  0  0  0  0  0  0  0  0  0  0
   44.4740   28.4040   45.8630 C   0  0  0  0  0  0  0  0  0  0  0  0
   44.5760   29.6720   46.2520 N   0  0  0  0  0  0  0  0  0  0  0  0
  1  4  1  6  0  0  0
  1  2  1  0  0  0  0
  1  3  1  0  0  0  0
  2  6  1  0  0  0  0
  2  5  1  0  0  0  0
  2  3  1  0  0  0  0
  3  7  1  1  0  0  0
  3 17  1  0  0  0  0
  8 14  1  0  0  0  0
  8 13  1  0  0  0  0
  9  8  2  0  0  0  0
 10  9  1  0  0  0  0
 10 11  2  0  0  0  0
 11 12  1  0  0  0  0
 12 13  2  0  0  0  0
 12  1  1  0  0  0  0
 15  9  1  0  0  0  0
 16 10  1  0  0  0  0
 17 18  1  0  0  0  0
 19 17  1  0  0  0  0
 19 20  1  0  0  0  0
 20 21  1  0  0  0  0
 22 20  2  0  0  0  0
 22 23  1  0  0  0  0
 24 22  1  0  0  0  0
 25 26  1  0  0  0  0
 25 24  2  0  0  0  0
 26 19  2  0  0  0  0
M  END
>  <minimizedAffinity>
-4.51377439

>  <minimizedRMSD>
1.40881908

$$$$
