
 OpenBabel03252509073D

 40 43  0  0  0  0  0  0  0  0999 V2000
   47.6940   31.8790   39.0520 C   0  0  0  0  0  0  0  0  0  0  0  0
   47.1810   33.1390   38.9560 C   0  0  0  0  0  0  0  0  0  0  0  0
   47.7460   34.0520   38.0830 C   0  0  0  0  0  0  0  0  0  0  0  0
   48.8230   33.6930   37.3090 C   0  0  0  0  0  0  0  0  0  0  0  0
   49.3800   32.4150   37.3750 C   0  0  0  0  0  0  0  0  0  0  0  0
   48.7880   31.5120   38.2680 C   0  0  0  0  0  0  0  0  0  0  0  0
   47.3710   35.0600   37.9750 H   0  0  0  0  0  0  0  0  0  0  0  0
   49.3440   34.3130   36.5990 H   0  0  0  0  0  0  0  0  0  0  0  0
   50.2130   32.0450   36.8160 H   0  0  0  0  0  0  0  0  0  0  0  0
   49.1940   30.5040   38.3490 H   0  0  0  0  0  0  0  0  0  0  0  0
   45.3230   35.4270   43.1940 Cl  0  0  0  0  0  0  0  0  0  0  0  0
   45.1670   34.6580   41.6320 C   0  0  0  0  0  0  0  0  0  0  0  0
   46.2600   34.2350   40.9480 C   0  0  0  0  0  0  0  0  0  0  0  0
   46.0340   33.6230   39.7250 C   0  0  0  0  0  0  0  0  0  0  0  0
   44.7690   33.4520   39.2200 C   0  0  0  0  0  0  0  0  0  0  0  0
   43.6890   33.8830   39.9190 C   0  0  0  0  0  0  0  0  0  0  0  0
   43.8990   34.4890   41.1320 C   0  0  0  0  0  0  0  0  0  0  0  0
   44.6510   32.9650   38.2510 H   0  0  0  0  0  0  0  0  0  0  0  0
   42.7160   33.7250   39.4820 H   0  0  0  0  0  0  0  0  0  0  0  0
   43.0160   34.8250   41.6730 H   0  0  0  0  0  0  0  0  0  0  0  0
   49.5910   35.7440   41.8850 C   0  0  0  0  0  0  0  0  0  0  0  0
   48.3230   35.5680   41.3240 C   0  0  0  0  0  0  0  0  0  0  0  0
   47.5760   34.4280   41.5270 C   0  0  0  0  0  0  0  0  0  0  0  0
   48.1790   33.5000   42.3150 N   0  0  0  0  0  0  0  0  0  0  0  0
   49.3860   33.6550   42.8560 C   0  0  0  0  0  0  0  0  0  0  0  0
   50.0830   34.7730   42.6390 N   0  0  0  0  0  0  0  0  0  0  0  0
   50.1160   36.6630   41.6820 H   0  0  0  0  0  0  0  0  0  0  0  0
   47.8800   36.3370   40.7010 H   0  0  0  0  0  0  0  0  0  0  0  0
   49.7000   32.8040   43.4550 H   0  0  0  0  0  0  0  0  0  0  0  0
   47.0010   30.7300   40.0680 S   0  0  0  0  0  0  0  0  0  0  0  0
   47.3860   29.3200   39.6690 O   0  0  0  0  0  0  0  0  0  0  0  0
   47.7630   30.9210   41.4280 O   0  0  0  0  0  0  0  0  0  0  0  0
   45.3420   30.6320   40.4910 C   0  0  0  0  0  0  0  0  0  0  0  0
   45.0070   30.9550   41.8360 C   0  0  0  0  0  0  0  0  0  0  0  0
   45.8280   31.2470   42.5270 H   0  0  0  0  0  0  0  0  0  0  0  0
   43.7700   30.9750   42.4930 C   0  0  0  0  0  0  0  0  0  0  0  0
   43.6750   31.2420   43.5220 H   0  0  0  0  0  0  0  0  0  0  0  0
   42.7450   30.6140   41.6560 C   0  0  0  0  0  3  0  0  0  0  0  0
   43.0000   30.2940   40.3570 C   0  0  0  0  0  3  0  0  0  0  0  0
   44.2170   30.3100   39.8420 N   0  0  0  0  0  0  0  0  0  0  0  0
  1 30  1  0  0  0  0
  2  1  1  0  0  0  0
  2 14  1  0  0  0  0
  3  2  2  0  0  0  0
  4  5  2  0  0  0  0
  4  3  1  0  0  0  0
  5  6  1  0  0  0  0
  6 10  1  0  0  0  0
  6  1  2  0  0  0  0
  7  3  1  0  0  0  0
  8  4  1  0  0  0  0
  9  5  1  0  0  0  0
 12 11  1  0  0  0  0
 13 23  1  0  0  0  0
 13 12  2  0  0  0  0
 14 13  1  0  0  0  0
 15 14  2  0  0  0  0
 15 16  1  0  0  0  0
 16 17  2  0  0  0  0
 17 12  1  0  0  0  0
 17 20  1  0  0  0  0
 18 15  1  0  0  0  0
 19 16  1  0  0  0  0
 21 26  1  0  0  0  0
 22 23  1  0  0  0  0
 22 21  2  0  0  0  0
 23 24  2  0  0  0  0
 24 25  1  0  0  0  0
 25 29  1  0  0  0  0
 26 25  2  0  0  0  0
 27 21  1  0  0  0  0
 28 22  1  0  0  0  0
 30 33  1  0  0  0  0
 30 32  2  0  0  0  0
 31 30  2  0  0  0  0
 33 34  1  0  0  0  0
 34 36  2  0  0  0  0
 34 35  1  0  0  0  0
 36 37  1  0  0  0  0
 38 36  1  0  0  0  0
 39 38  2  0  0  0  0
 40 39  1  0  0  0  0
 40 33  2  0  0  0  0
M  END
>  <minimizedAffinity>
-4.70876932

>  <minimizedRMSD>
0.888722777

$$$$
