
 OpenBabel03252506123D

 35 37  0  0  0  0  0  0  0  0999 V2000
   45.1450   33.5080   41.1520 F   0  0  0  0  0  0  0  0  0  0  0  0
   46.3300   34.0940   41.0390 C   0  0  0  0  0  0  0  0  0  0  0  0
   46.8290   34.7950   42.1110 C   0  0  0  0  0  0  0  0  0  0  0  0
   48.0730   35.4370   42.0830 C   0  0  0  0  0  0  0  0  0  0  0  0
   48.8500   35.3710   40.9260 C   0  0  0  0  0  0  0  0  0  0  0  0
   48.3140   34.6600   39.8800 C   0  0  0  0  0  0  0  0  0  0  0  0
   47.1100   34.0310   39.8890 C   0  0  0  0  0  0  0  0  0  0  0  0
   48.3990   35.9740   42.9710 H   0  0  0  0  0  0  0  0  0  0  0  0
   49.8010   35.8820   40.9530 H   0  0  0  0  0  0  0  0  0  0  0  0
   49.0150   34.6770   39.0510 H   0  0  0  0  0  0  0  0  0  0  0  0
   45.4680   33.9940   45.4250 C   0  0  0  0  0  0  0  0  0  0  0  0
   44.6180   35.1130   45.6560 C   0  0  0  0  0  0  0  0  0  0  0  0
   44.5210   36.1350   44.6680 C   0  0  0  0  0  0  0  0  0  0  0  0
   45.2700   35.9610   43.5410 N   0  0  0  0  0  0  0  0  0  0  0  0
   46.0580   34.8990   43.3560 C   0  0  0  0  0  0  0  0  0  0  0  0
   46.1530   33.9310   44.2850 N   0  0  0  0  0  0  0  0  0  0  0  0
   44.0520   35.1810   46.5790 H   0  0  0  0  0  0  0  0  0  0  0  0
   43.8840   36.9770   44.8350 H   0  0  0  0  0  0  0  0  0  0  0  0
   45.5490   32.9970   46.4180 N   0  0  0  0  0  0  0  0  0  0  0  0
   45.4620   31.9730   46.1620 H   0  0  0  0  0  0  0  0  0  0  0  0
   45.6980   33.3080   47.4150 H   0  0  0  0  0  0  0  0  0  0  0  0
   46.6620   33.3480   38.7890 O   0  0  0  0  0  0  0  0  0  0  0  0
   48.0790   34.6870   37.0030 O   0  0  0  0  0  0  0  0  0  0  0  0
   47.3190   33.3990   37.2450 P   0  0  2  0  0  0  0  0  0  0  0  0
   46.0300   33.2650   36.1260 O   0  0  0  0  0  0  0  0  0  0  0  0
   46.3810   33.2920   35.1990 H   0  0  0  0  0  0  0  0  0  0  0  0
   48.3340   32.1030   36.8890 O   0  0  0  0  0  0  0  0  0  0  0  0
   48.0910   30.7700   37.0520 C   0  0  0  0  0  0  0  0  0  0  0  0
   47.4720   29.8730   36.1960 C   0  0  0  0  0  0  0  0  0  0  0  0
   47.1450   30.3070   35.2810 H   0  0  0  0  0  0  0  0  0  0  0  0
   47.3250   28.5510   36.5550 C   0  0  0  0  0  0  0  0  0  0  0  0
   46.8280   27.8900   35.8390 H   0  0  0  0  0  0  0  0  0  0  0  0
   47.7800   28.0590   37.7690 C   0  0  0  0  0  3  0  0  0  0  0  0
   48.3830   28.9890   38.5770 C   0  0  0  0  0  3  0  0  0  0  0  0
   48.5390   30.2860   38.2480 N   0  0  0  0  0  0  0  0  0  0  0  0
  2  1  1  0  0  0  0
  2  3  1  0  0  0  0
  3 15  1  0  0  0  0
  4  3  2  0  0  0  0
  4  8  1  0  0  0  0
  5  9  1  0  0  0  0
  5  4  1  0  0  0  0
  6  7  1  0  0  0  0
  6  5  2  0  0  0  0
  7  2  2  0  0  0  0
 10  6  1  0  0  0  0
 11 12  1  0  0  0  0
 11 19  1  0  0  0  0
 12 17  1  0  0  0  0
 13 18  1  0  0  0  0
 13 12  2  0  0  0  0
 14 13  1  0  0  0  0
 15 14  2  0  0  0  0
 15 16  1  0  0  0  0
 16 11  2  0  0  0  0
 19 21  1  0  0  0  0
 20 19  1  0  0  0  0
 22  7  1  0  0  0  0
 24 23  2  6  0  0  0
 24 22  1  0  0  0  0
 25 24  1  0  0  0  0
 26 25  1  0  0  0  0
 27 28  1  0  0  0  0
 27 24  1  0  0  0  0
 28 35  1  0  0  0  0
 29 31  1  0  0  0  0
 29 28  2  0  0  0  0
 30 29  1  0  0  0  0
 31 33  2  0  0  0  0
 32 31  1  0  0  0  0
 33 34  1  0  0  0  0
 35 34  2  0  0  0  0
M  END
>  <minimizedAffinity>
-5.74521208

>  <minimizedRMSD>
0.673369586

$$$$
