
 OpenBabel03252506123D

 35 37  0  0  0  0  0  0  0  0999 V2000
   45.1990   33.3760   41.1900 F   0  0  0  0  0  0  0  0  0  0  0  0
   46.3590   34.0040   41.0490 C   0  0  0  0  0  0  0  0  0  0  0  0
   46.8310   34.7660   42.0910 C   0  0  0  0  0  0  0  0  0  0  0  0
   48.0490   35.4570   42.0320 C   0  0  0  0  0  0  0  0  0  0  0  0
   48.8240   35.3780   40.8760 C   0  0  0  0  0  0  0  0  0  0  0  0
   48.3150   34.6060   39.8600 C   0  0  0  0  0  0  0  0  0  0  0  0
   47.1370   33.9300   39.8990 C   0  0  0  0  0  0  0  0  0  0  0  0
   48.3550   36.0400   42.8980 H   0  0  0  0  0  0  0  0  0  0  0  0
   49.7540   35.9280   40.8790 H   0  0  0  0  0  0  0  0  0  0  0  0
   49.0120   34.6190   39.0280 H   0  0  0  0  0  0  0  0  0  0  0  0
   45.4620   34.0050   45.4110 C   0  0  0  0  0  0  0  0  0  0  0  0
   44.6200   35.1330   45.6310 C   0  0  0  0  0  0  0  0  0  0  0  0
   44.5320   36.1460   44.6340 C   0  0  0  0  0  0  0  0  0  0  0  0
   45.2810   35.9570   43.5100 N   0  0  0  0  0  0  0  0  0  0  0  0
   46.0600   34.8870   43.3340 C   0  0  0  0  0  0  0  0  0  0  0  0
   46.1480   33.9270   44.2720 N   0  0  0  0  0  0  0  0  0  0  0  0
   44.0550   35.2120   46.5530 H   0  0  0  0  0  0  0  0  0  0  0  0
   43.9020   36.9950   44.7940 H   0  0  0  0  0  0  0  0  0  0  0  0
   45.5340   33.0150   46.4120 N   0  0  0  0  0  0  0  0  0  0  0  0
   45.4390   31.9900   46.1650 H   0  0  0  0  0  0  0  0  0  0  0  0
   45.6850   33.3340   47.4060 H   0  0  0  0  0  0  0  0  0  0  0  0
   46.7150   33.1860   38.8280 O   0  0  0  0  0  0  0  0  0  0  0  0
   48.0130   34.6380   37.0400 O   0  0  0  0  0  0  0  0  0  0  0  0
   47.1710   33.3930   37.2250 P   0  0  2  0  0  0  0  0  0  0  0  0
   45.7420   33.5130   36.2900 O   0  0  0  0  0  0  0  0  0  0  0  0
   45.9730   33.6360   35.3320 H   0  0  0  0  0  0  0  0  0  0  0  0
   48.0030   32.0810   36.5750 O   0  0  0  0  0  0  0  0  0  0  0  0
   48.1450   31.7370   35.2630 C   0  0  0  0  0  0  0  0  0  0  0  0
   49.2440   31.8700   34.4290 C   0  0  0  0  0  0  0  0  0  0  0  0
   50.0910   32.3060   34.9000 H   0  0  0  0  0  0  0  0  0  0  0  0
   49.1810   31.4540   33.1170 C   0  0  0  0  0  0  0  0  0  0  0  0
   50.0790   31.5830   32.5050 H   0  0  0  0  0  0  0  0  0  0  0  0
   48.0350   30.8920   32.5740 C   0  0  0  0  0  0  0  0  0  0  0  0
   46.9780   30.7840   33.4420 C   0  0  0  0  0  0  0  0  0  0  0  0
   47.0170   31.1840   34.7280 N   0  0  0  0  0  0  0  0  0  0  0  0
  2  1  1  0  0  0  0
  2  3  1  0  0  0  0
  3 15  1  0  0  0  0
  4  3  2  0  0  0  0
  4  8  1  0  0  0  0
  5  9  1  0  0  0  0
  5  4  1  0  0  0  0
  6  7  1  0  0  0  0
  6  5  2  0  0  0  0
  7  2  2  0  0  0  0
 10  6  1  0  0  0  0
 11 12  1  0  0  0  0
 11 19  1  0  0  0  0
 12 17  1  0  0  0  0
 13 18  1  0  0  0  0
 13 12  2  0  0  0  0
 14 13  1  0  0  0  0
 15 14  2  0  0  0  0
 15 16  1  0  0  0  0
 16 11  2  0  0  0  0
 19 21  1  0  0  0  0
 20 19  1  0  0  0  0
 22  7  1  0  0  0  0
 24 23  2  6  0  0  0
 24 22  1  0  0  0  0
 25 24  1  0  0  0  0
 26 25  1  0  0  0  0
 27 24  1  0  0  0  0
 28 27  1  0  0  0  0
 29 30  1  0  0  0  0
 29 28  2  0  0  0  0
 31 29  1  0  0  0  0
 32 31  1  0  0  0  0
 33 31  2  0  0  0  0
 33 34  1  0  0  0  0
 34 35  2  0  0  0  0
 35 28  1  0  0  0  0
M  END
>  <minimizedAffinity>
-6.5015831

>  <minimizedRMSD>
2.47099352

$$$$
