
 OpenBabel03252505273D

 23 24  0  0  0  0  0  0  0  0999 V2000
   46.6250   32.3490   48.8690 O   0  0  0  0  0  0  0  0  0  0  0  0
   45.6350   32.3750   47.6940 P   0  0  1  0  0  0  0  0  0  0  0  0
   44.5110   33.6140   47.8760 O   0  0  0  0  0  0  0  0  0  0  0  0
   44.9460   34.4910   48.0330 H   0  0  0  0  0  0  0  0  0  0  0  0
   46.5480   32.5580   46.2890 O   0  0  0  0  0  0  0  0  0  0  0  0
   44.9060   35.1520   44.4890 C   0  0  0  0  0  0  0  0  0  0  0  0
   45.6540   35.2900   43.2980 C   0  0  0  0  0  0  0  0  0  0  0  0
   46.7530   34.4360   43.1560 C   0  0  0  0  0  0  0  0  0  0  0  0
   47.0310   33.5470   44.1460 N   0  0  0  0  0  0  0  0  0  0  0  0
   46.2830   33.4590   45.2630 C   0  0  0  0  0  0  0  0  0  0  0  0
   45.2270   34.2590   45.4300 N   0  0  0  0  0  0  0  0  0  0  0  0
   44.0680   35.8070   44.5940 H   0  0  0  0  0  0  0  0  0  0  0  0
   45.4020   35.9990   42.5480 H   0  0  0  0  0  0  0  0  0  0  0  0
   47.3720   34.4900   42.2580 H   0  0  0  0  0  0  0  0  0  0  0  0
   44.8120   30.9040   47.7460 O   0  0  0  0  0  0  0  0  0  0  0  0
   45.2710   29.6830   47.3050 C   0  0  0  0  0  0  0  0  0  0  0  0
   44.4170   28.9420   46.5130 C   0  0  0  0  0  0  0  0  0  0  0  0
   43.4100   29.2380   46.2050 H   0  0  0  0  0  0  0  0  0  0  0  0
   44.7830   27.6990   46.0150 C   0  0  0  0  0  0  0  0  0  0  0  0
   44.1560   27.0710   45.3880 H   0  0  0  0  0  0  0  0  0  0  0  0
   46.0430   27.2390   46.3520 C   0  0  0  0  0  0  0  0  0  0  0  0
   46.8770   27.9980   47.1450 C   0  0  0  0  0  0  0  0  0  0  0  0
   46.4810   29.2040   47.6080 N   0  0  0  0  0  0  0  0  0  0  0  0
  2 15  1  0  0  0  0
  2  3  1  0  0  0  0
  2  1  2  1  0  0  0
  3  4  1  0  0  0  0
  5  2  1  0  0  0  0
  6 12  1  0  0  0  0
  6 11  1  0  0  0  0
  7  6  2  0  0  0  0
  8  7  1  0  0  0  0
  8  9  2  0  0  0  0
  9 10  1  0  0  0  0
 10 11  2  0  0  0  0
 10  5  1  0  0  0  0
 13  7  1  0  0  0  0
 14  8  1  0  0  0  0
 16 23  1  0  0  0  0
 16 15  1  0  0  0  0
 17 16  2  0  0  0  0
 18 17  1  0  0  0  0
 19 21  2  0  0  0  0
 19 17  1  0  0  0  0
 20 19  1  0  0  0  0
 21 22  1  0  0  0  0
 22 23  2  0  0  0  0
M  END
>  <minimizedAffinity>
-4.62965679

>  <minimizedRMSD>
2.67942095

$$$$
