
 OpenBabel03252506123D

 35 37  0  0  0  0  0  0  0  0999 V2000
   45.2430   33.5770   41.1160 F   0  0  0  0  0  0  0  0  0  0  0  0
   46.4230   34.1780   41.0390 C   0  0  0  0  0  0  0  0  0  0  0  0
   46.8960   34.8540   42.1380 C   0  0  0  0  0  0  0  0  0  0  0  0
   48.1330   35.5110   42.1490 C   0  0  0  0  0  0  0  0  0  0  0  0
   48.9300   35.4850   41.0060 C   0  0  0  0  0  0  0  0  0  0  0  0
   48.4210   34.7970   39.9310 C   0  0  0  0  0  0  0  0  0  0  0  0
   47.2230   34.1560   39.9020 C   0  0  0  0  0  0  0  0  0  0  0  0
   48.4380   36.0260   43.0580 H   0  0  0  0  0  0  0  0  0  0  0  0
   49.8750   36.0050   41.0630 H   0  0  0  0  0  0  0  0  0  0  0  0
   49.1350   34.8440   39.1150 H   0  0  0  0  0  0  0  0  0  0  0  0
   45.5030   33.9580   45.4150 C   0  0  0  0  0  0  0  0  0  0  0  0
   44.6210   35.0520   45.6520 C   0  0  0  0  0  0  0  0  0  0  0  0
   44.5140   36.0890   44.6810 C   0  0  0  0  0  0  0  0  0  0  0  0
   45.2850   35.9550   43.5640 N   0  0  0  0  0  0  0  0  0  0  0  0
   46.1030   34.9160   43.3720 C   0  0  0  0  0  0  0  0  0  0  0  0
   46.2080   33.9340   44.2860 N   0  0  0  0  0  0  0  0  0  0  0  0
   44.0400   35.0880   46.5660 H   0  0  0  0  0  0  0  0  0  0  0  0
   43.8540   36.9120   44.8530 H   0  0  0  0  0  0  0  0  0  0  0  0
   45.5930   32.9450   46.3900 N   0  0  0  0  0  0  0  0  0  0  0  0
   45.5360   31.9250   46.1150 H   0  0  0  0  0  0  0  0  0  0  0  0
   45.7180   33.2420   47.3950 H   0  0  0  0  0  0  0  0  0  0  0  0
   46.8020   33.4980   38.7760 O   0  0  0  0  0  0  0  0  0  0  0  0
   48.2560   34.7330   36.9460 O   0  0  0  0  0  0  0  0  0  0  0  0
   47.6110   33.4110   37.3070 P   0  0  2  0  0  0  0  0  0  0  0  0
   46.4690   32.9740   36.1090 O   0  0  0  0  0  0  0  0  0  0  0  0
   46.9130   32.9120   35.2240 H   0  0  0  0  0  0  0  0  0  0  0  0
   48.7850   32.2050   37.2430 O   0  0  0  0  0  0  0  0  0  0  0  0
   49.2220   31.3970   38.2510 C   0  0  0  0  0  0  0  0  0  0  0  0
   50.1800   31.6360   39.2240 C   0  0  0  0  0  0  0  0  0  0  0  0
   50.6280   32.5970   39.1600 H   0  0  0  0  0  0  0  0  0  0  0  0
   50.4770   30.6720   40.1640 C   0  0  0  0  0  0  0  0  0  0  0  0
   51.2410   30.9180   40.9080 H   0  0  0  0  0  0  0  0  0  0  0  0
   49.8470   29.4370   40.1820 C   0  0  0  0  0  3  0  0  0  0  0  0
   48.9090   29.2540   39.1980 C   0  0  0  0  0  3  0  0  0  0  0  0
   48.6020   30.1810   38.2700 N   0  0  0  0  0  0  0  0  0  0  0  0
  2  1  1  0  0  0  0
  2  3  1  0  0  0  0
  3  4  2  0  0  0  0
  3 15  1  0  0  0  0
  4  8  1  0  0  0  0
  5  9  1  0  0  0  0
  5  4  1  0  0  0  0
  6  5  2  0  0  0  0
  7  6  1  0  0  0  0
  7  2  2  0  0  0  0
 10  6  1  0  0  0  0
 11 12  1  0  0  0  0
 11 19  1  0  0  0  0
 12 17  1  0  0  0  0
 13 18  1  0  0  0  0
 13 12  2  0  0  0  0
 14 13  1  0  0  0  0
 15 14  2  0  0  0  0
 15 16  1  0  0  0  0
 16 11  2  0  0  0  0
 19 21  1  0  0  0  0
 20 19  1  0  0  0  0
 22  7  1  0  0  0  0
 24 23  2  6  0  0  0
 24 22  1  0  0  0  0
 25 24  1  0  0  0  0
 26 25  1  0  0  0  0
 27 24  1  0  0  0  0
 27 28  1  0  0  0  0
 28 35  2  0  0  0  0
 28 29  1  0  0  0  0
 29 31  2  0  0  0  0
 30 29  1  0  0  0  0
 31 33  1  0  0  0  0
 31 32  1  0  0  0  0
 34 33  2  0  0  0  0
 35 34  1  0  0  0  0
M  END
>  <minimizedAffinity>
-5.81919432

>  <minimizedRMSD>
1.05096459

$$$$
