
 OpenBabel03252506123D

 35 37  0  0  0  0  0  0  0  0999 V2000
   45.2000   33.5490   41.1040 F   0  0  0  0  0  0  0  0  0  0  0  0
   46.3840   34.1370   41.0110 C   0  0  0  0  0  0  0  0  0  0  0  0
   46.8720   34.8220   42.0980 C   0  0  0  0  0  0  0  0  0  0  0  0
   48.1160   35.4670   42.0920 C   0  0  0  0  0  0  0  0  0  0  0  0
   48.9040   35.4200   40.9420 C   0  0  0  0  0  0  0  0  0  0  0  0
   48.3790   34.7250   39.8790 C   0  0  0  0  0  0  0  0  0  0  0  0
   47.1750   34.0950   39.8670 C   0  0  0  0  0  0  0  0  0  0  0  0
   48.4330   35.9890   42.9920 H   0  0  0  0  0  0  0  0  0  0  0  0
   49.8540   35.9320   40.9860 H   0  0  0  0  0  0  0  0  0  0  0  0
   49.0870   34.7560   39.0570 H   0  0  0  0  0  0  0  0  0  0  0  0
   45.4940   33.9740   45.3930 C   0  0  0  0  0  0  0  0  0  0  0  0
   44.6280   35.0820   45.6270 C   0  0  0  0  0  0  0  0  0  0  0  0
   44.5280   36.1110   44.6480 C   0  0  0  0  0  0  0  0  0  0  0  0
   45.2880   35.9570   43.5260 N   0  0  0  0  0  0  0  0  0  0  0  0
   46.0900   34.9050   43.3380 C   0  0  0  0  0  0  0  0  0  0  0  0
   46.1890   33.9300   44.2590 N   0  0  0  0  0  0  0  0  0  0  0  0
   44.0540   35.1340   46.5460 H   0  0  0  0  0  0  0  0  0  0  0  0
   43.8800   36.9450   44.8180 H   0  0  0  0  0  0  0  0  0  0  0  0
   45.5780   32.9680   46.3770 N   0  0  0  0  0  0  0  0  0  0  0  0
   45.5040   31.9470   46.1110 H   0  0  0  0  0  0  0  0  0  0  0  0
   45.7140   33.2720   47.3780 H   0  0  0  0  0  0  0  0  0  0  0  0
   46.7380   33.4280   38.7530 O   0  0  0  0  0  0  0  0  0  0  0  0
   48.1410   34.7320   36.9300 O   0  0  0  0  0  0  0  0  0  0  0  0
   47.4800   33.4060   37.2460 P   0  0  2  0  0  0  0  0  0  0  0  0
   46.2760   33.0630   36.0790 O   0  0  0  0  0  0  0  0  0  0  0  0
   46.6790   33.0420   35.1720 H   0  0  0  0  0  0  0  0  0  0  0  0
   48.6210   32.1810   37.0630 O   0  0  0  0  0  0  0  0  0  0  0  0
   48.5170   30.8690   37.4230 C   0  0  0  0  0  0  0  0  0  0  0  0
   49.4250   30.0610   38.0890 C   0  0  0  0  0  0  0  0  0  0  0  0
   50.3290   30.5540   38.3490 H   0  0  0  0  0  0  0  0  0  0  0  0
   49.1220   28.7440   38.3590 C   0  0  0  0  0  0  0  0  0  0  0  0
   49.8770   28.1550   38.8880 H   0  0  0  0  0  0  0  0  0  0  0  0
   47.9160   28.1700   37.9860 C   0  0  0  0  0  3  0  0  0  0  0  0
   47.0550   29.0130   37.3310 C   0  0  0  0  0  3  0  0  0  0  0  0
   47.3290   30.3040   37.0560 N   0  0  0  0  0  0  0  0  0  0  0  0
  2  1  1  0  0  0  0
  2  3  1  0  0  0  0
  3 15  1  0  0  0  0
  4  3  2  0  0  0  0
  4  8  1  0  0  0  0
  5  9  1  0  0  0  0
  5  4  1  0  0  0  0
  6  5  2  0  0  0  0
  7  6  1  0  0  0  0
  7  2  2  0  0  0  0
 10  6  1  0  0  0  0
 11 12  1  0  0  0  0
 11 19  1  0  0  0  0
 12 17  1  0  0  0  0
 13 18  1  0  0  0  0
 13 12  2  0  0  0  0
 14 13  1  0  0  0  0
 15 14  2  0  0  0  0
 15 16  1  0  0  0  0
 16 11  2  0  0  0  0
 19 21  1  0  0  0  0
 20 19  1  0  0  0  0
 22  7  1  0  0  0  0
 24 23  2  6  0  0  0
 24 22  1  0  0  0  0
 25 24  1  0  0  0  0
 26 25  1  0  0  0  0
 27 24  1  0  0  0  0
 27 28  1  0  0  0  0
 28 29  1  0  0  0  0
 29 30  1  0  0  0  0
 29 31  2  0  0  0  0
 31 32  1  0  0  0  0
 33 31  1  0  0  0  0
 34 33  2  0  0  0  0
 35 34  1  0  0  0  0
 35 28  2  0  0  0  0
M  END
>  <minimizedAffinity>
-5.6560874

>  <minimizedRMSD>
0.385797411

$$$$
