
 OpenBabel03252509123D

 31 34  0  0  0  0  0  0  0  0999 V2000
   47.6130   32.4980   44.0400 C   0  0  0  0  0  0  0  0  0  0  0  0
   46.9390   33.5140   43.3530 C   0  0  0  0  0  0  0  0  0  0  0  0
   45.9380   34.2540   43.9290 C   0  0  0  0  0  0  0  0  0  0  0  0
   45.5570   34.0020   45.2580 C   0  0  0  0  0  0  0  0  0  0  0  0
   44.6510   34.5070   46.1230 N   0  0  0  0  0  0  0  0  0  0  0  0
   44.7360   33.8560   47.2980 C   0  0  0  0  0  0  0  0  0  0  0  0
   45.7200   32.9360   47.1340 N   0  0  0  0  0  0  0  0  0  0  0  0
   46.2330   33.0040   45.9030 C   0  0  0  0  0  0  0  0  0  0  0  0
   47.2450   32.2360   45.3580 C   0  0  0  0  0  0  0  0  0  0  0  0
   48.3950   31.9350   43.5540 H   0  0  0  0  0  0  0  0  0  0  0  0
   43.9990   35.2800   45.8940 H   0  0  0  0  0  0  0  0  0  0  0  0
   44.1230   34.0580   48.1740 H   0  0  0  0  0  0  0  0  0  0  0  0
   47.7340   31.4620   45.9350 H   0  0  0  0  0  0  0  0  0  0  0  0
   47.1730   33.2940   39.7000 C   0  0  0  0  0  0  0  0  0  0  0  0
   48.0410   34.3500   39.3900 C   0  0  0  0  0  0  0  0  0  0  0  0
   48.5350   35.1240   40.4360 C   0  0  0  0  0  0  0  0  0  0  0  0
   48.1510   34.8180   41.7170 N   0  0  0  0  0  0  0  0  0  0  0  0
   47.3140   33.7960   41.9730 C   0  0  0  0  0  0  0  0  0  0  0  0
   46.8100   33.0150   40.9790 N   0  0  0  0  0  0  0  0  0  0  0  0
   46.7200   32.6190   38.9860 H   0  0  0  0  0  0  0  0  0  0  0  0
   48.2750   34.5000   38.3550 H   0  0  0  0  0  0  0  0  0  0  0  0
   49.2050   35.9400   40.2040 H   0  0  0  0  0  0  0  0  0  0  0  0
   45.0890   35.5470   43.0580 S   0  0  0  0  0  0  0  0  0  0  0  0
   43.7440   34.9450   42.0480 C   0  0  0  0  0  0  0  0  0  0  0  0
   43.4910   33.5920   41.8680 C   0  0  0  0  0  0  0  0  0  0  0  0
   44.1330   32.8680   42.3580 H   0  0  0  0  0  0  0  0  0  0  0  0
   42.4430   33.1500   41.0810 C   0  0  0  0  0  0  0  0  0  0  0  0
   42.2220   32.1060   40.9230 H   0  0  0  0  0  0  0  0  0  0  0  0
   41.6020   34.0560   40.4400 C   0  0  0  0  0  3  0  0  0  0  0  0
   41.8840   35.3880   40.6420 C   0  0  0  0  0  3  0  0  0  0  0  0
   42.8960   35.7900   41.4010 N   0  0  0  0  0  0  0  0  0  0  0  0
  1  9  1  0  0  0  0
  2  3  1  0  0  0  0
  2  1  2  0  0  0  0
  3  4  2  0  0  0  0
  4  8  1  0  0  0  0
  4  5  1  0  0  0  0
  5  6  1  0  0  0  0
  6 12  1  0  0  0  0
  7  6  2  0  0  0  0
  8  7  1  0  0  0  0
  9  8  2  0  0  0  0
  9 13  1  0  0  0  0
 10  1  1  0  0  0  0
 11  5  1  0  0  0  0
 14 19  1  0  0  0  0
 15 14  2  0  0  0  0
 15 16  1  0  0  0  0
 16 17  2  0  0  0  0
 17 18  1  0  0  0  0
 18  2  1  0  0  0  0
 19 18  2  0  0  0  0
 20 14  1  0  0  0  0
 21 15  1  0  0  0  0
 22 16  1  0  0  0  0
 23  3  1  0  0  0  0
 24 23  1  0  0  0  0
 25 24  1  0  0  0  0
 25 26  1  0  0  0  0
 27 25  2  0  0  0  0
 28 27  1  0  0  0  0
 29 30  2  0  0  0  0
 29 27  1  0  0  0  0
 30 31  1  0  0  0  0
 31 24  2  0  0  0  0
M  END
>  <minimizedAffinity>
-5.26095915

>  <minimizedRMSD>
1.91637063

$$$$
