
 OpenBabel03242516423D

 31 32  0  0  0  0  0  0  0  0999 V2000
   37.6460   30.7830   39.3610 C   0  0  0  0  0  0  0  0  0  0  0  0
   36.9250   31.6170   39.1390 H   0  0  0  0  0  0  0  0  0  0  0  0
   38.0420   31.0340   40.3720 H   0  0  0  0  0  0  0  0  0  0  0  0
   38.7410   30.7970   38.3440 C   0  0  0  0  0  0  0  0  0  0  0  0
   39.3150   29.8420   38.4500 H   0  0  0  0  0  0  0  0  0  0  0  0
   38.4080   30.8390   37.3100 H   0  0  0  0  0  0  0  0  0  0  0  0
   41.3810   33.4290   37.8400 C   0  0  0  0  0  0  0  0  0  0  0  0
   40.5320   32.3230   37.6040 C   0  0  0  0  0  0  0  0  0  0  0  0
   39.6260   31.9590   38.6050 C   0  0  0  0  0  0  0  0  0  0  0  0
   39.6000   32.6760   39.7510 N   0  0  0  0  0  0  0  0  0  0  0  0
   40.4290   33.7270   39.9330 C   0  0  0  0  0  0  0  0  0  0  0  0
   41.3140   34.1090   38.9970 N   0  0  0  0  0  0  0  0  0  0  0  0
   42.3090   33.8320   36.8610 N   0  0  0  0  0  0  0  0  0  0  0  0
   40.5770   31.7630   36.6660 H   0  0  0  0  0  0  0  0  0  0  0  0
   40.4190   34.3090   40.8460 H   0  0  0  0  0  0  0  0  0  0  0  0
   42.9680   33.1300   36.4370 H   0  0  0  0  0  0  0  0  0  0  0  0
   42.3920   34.8040   36.5150 H   0  0  0  0  0  0  0  0  0  0  0  0
   37.0070   29.5700   39.3950 O   0  0  0  0  0  0  0  0  0  0  0  0
   34.4390   29.2480   39.7700 O   0  0  0  0  0  0  0  0  0  0  0  0
   35.7230   29.5480   40.4830 P   0  0  2  0  0  0  0  0  0  0  0  0
   35.6970   31.0250   41.2820 O   0  0  0  0  0  0  0  0  0  0  0  0
   35.2720   31.6960   40.6700 H   0  0  0  0  0  0  0  0  0  0  0  0
   36.0450   28.3630   41.6800 O   0  0  0  0  0  0  0  0  0  0  0  0
   37.3680   28.1430   42.0370 C   0  0  0  0  0  0  0  0  0  0  0  0
   38.1800   29.0510   42.6700 C   0  0  0  0  0  0  0  0  0  0  0  0
   37.7380   30.0260   42.9070 H   0  0  0  0  0  0  0  0  0  0  0  0
   39.4870   28.8000   43.0100 C   0  0  0  0  0  0  0  0  0  0  0  0
   40.1160   29.5220   43.5060 H   0  0  0  0  0  0  0  0  0  0  0  0
   40.0370   27.5510   42.7000 C   0  0  0  0  0  3  0  0  0  0  0  0
   39.1860   26.6710   42.0680 C   0  0  0  0  0  3  0  0  0  0  0  0
   37.8880   26.9180   41.7280 N   0  0  0  0  0  0  0  0  0  0  0  0
  1 18  1  0  0  0  0
  1  3  1  0  0  0  0
  2  1  1  0  0  0  0
  4  5  1  0  0  0  0
  4  9  1  0  0  0  0
  4  1  1  0  0  0  0
  6  4  1  0  0  0  0
  7 12  1  0  0  0  0
  8  7  2  0  0  0  0
  8  9  1  0  0  0  0
  9 10  2  0  0  0  0
 10 11  1  0  0  0  0
 11 15  1  0  0  0  0
 12 11  2  0  0  0  0
 13  7  1  0  0  0  0
 14  8  1  0  0  0  0
 16 13  1  0  0  0  0
 17 13  1  0  0  0  0
 18 20  1  0  0  0  0
 20 19  2  6  0  0  0
 20 21  1  0  0  0  0
 20 23  1  0  0  0  0
 22 21  1  0  0  0  0
 23 24  1  0  0  0  0
 24 25  1  0  0  0  0
 25 26  1  0  0  0  0
 25 27  2  0  0  0  0
 27 28  1  0  0  0  0
 29 27  1  0  0  0  0
 30 29  2  0  0  0  0
 31 24  2  0  0  0  0
 31 30  1  0  0  0  0
M  END
>  <minimizedAffinity>
-5.25909758

$$$$

 OpenBabel03242516423D

 31 32  0  0  0  0  0  0  0  0999 V2000
   36.5110   29.9850   38.1430 C   0  0  0  0  0  0  0  0  0  0  0  0
   36.1610   29.3750   37.2650 H   0  0  0  0  0  0  0  0  0  0  0  0
   35.6800   30.7080   38.3150 H   0  0  0  0  0  0  0  0  0  0  0  0
   37.7690   30.7000   37.7740 C   0  0  0  0  0  0  0  0  0  0  0  0
   38.5940   29.9460   37.7450 H   0  0  0  0  0  0  0  0  0  0  0  0
   37.7580   31.1760   36.7960 H   0  0  0  0  0  0  0  0  0  0  0  0
   39.4540   32.5220   40.6010 C   0  0  0  0  0  0  0  0  0  0  0  0
   39.1720   31.5440   39.6200 C   0  0  0  0  0  0  0  0  0  0  0  0
   38.0550   31.7340   38.8000 C   0  0  0  0  0  0  0  0  0  0  0  0
   37.2960   32.8380   38.9790 N   0  0  0  0  0  0  0  0  0  0  0  0
   37.6040   33.7470   39.9300 C   0  0  0  0  0  0  0  0  0  0  0  0
   38.6680   33.6030   40.7380 N   0  0  0  0  0  0  0  0  0  0  0  0
   40.5680   32.3740   41.4490 N   0  0  0  0  0  0  0  0  0  0  0  0
   39.8050   30.6620   39.4980 H   0  0  0  0  0  0  0  0  0  0  0  0
   37.0050   34.6360   40.0840 H   0  0  0  0  0  0  0  0  0  0  0  0
   40.7140   31.4760   41.9780 H   0  0  0  0  0  0  0  0  0  0  0  0
   41.2810   33.1100   41.5940 H   0  0  0  0  0  0  0  0  0  0  0  0
   36.6870   29.2000   39.2550 O   0  0  0  0  0  0  0  0  0  0  0  0
   34.1170   29.2040   39.7380 O   0  0  0  0  0  0  0  0  0  0  0  0
   35.4550   29.3980   40.3850 P   0  0  2  0  0  0  0  0  0  0  0  0
   35.6300   30.9160   41.0790 O   0  0  0  0  0  0  0  0  0  0  0  0
   35.2580   31.5920   40.4370 H   0  0  0  0  0  0  0  0  0  0  0  0
   35.6900   28.2640   41.6490 O   0  0  0  0  0  0  0  0  0  0  0  0
   36.9690   28.1260   42.1690 C   0  0  0  0  0  0  0  0  0  0  0  0
   37.5820   26.9330   42.4630 C   0  0  0  0  0  0  0  0  0  0  0  0
   37.0050   26.0220   42.2660 H   0  0  0  0  0  0  0  0  0  0  0  0
   38.8510   26.8330   42.9780 C   0  0  0  0  0  0  0  0  0  0  0  0
   39.3220   25.8890   43.2060 H   0  0  0  0  0  0  0  0  0  0  0  0
   39.5740   28.0050   43.2240 C   0  0  0  0  0  3  0  0  0  0  0  0
   38.9210   29.1780   42.9140 C   0  0  0  0  0  3  0  0  0  0  0  0
   37.6600   29.2800   42.4020 N   0  0  0  0  0  0  0  0  0  0  0  0
  1  3  1  0  0  0  0
  1 18  1  0  0  0  0
  2  1  1  0  0  0  0
  4  1  1  0  0  0  0
  4  9  1  0  0  0  0
  5  4  1  0  0  0  0
  6  4  1  0  0  0  0
  7 12  1  0  0  0  0
  7 13  1  0  0  0  0
  8  7  2  0  0  0  0
  9 10  2  0  0  0  0
  9  8  1  0  0  0  0
 10 11  1  0  0  0  0
 11 15  1  0  0  0  0
 11 12  2  0  0  0  0
 13 17  1  0  0  0  0
 13 16  1  0  0  0  0
 14  8  1  0  0  0  0
 18 20  1  0  0  0  0
 20 19  2  6  0  0  0
 20 21  1  0  0  0  0
 20 23  1  0  0  0  0
 22 21  1  0  0  0  0
 23 24  1  0  0  0  0
 24 31  2  0  0  0  0
 24 25  1  0  0  0  0
 25 27  2  0  0  0  0
 26 25  1  0  0  0  0
 27 28  1  0  0  0  0
 27 29  1  0  0  0  0
 30 29  2  0  0  0  0
 31 30  1  0  0  0  0
M  END
>  <minimizedAffinity>
-5.23351192

$$$$

 OpenBabel03242516423D

 31 32  0  0  0  0  0  0  0  0999 V2000
   39.3590   30.4390   41.3350 C   0  0  0  0  0  0  0  0  0  0  0  0
   39.8270   29.4190   41.4060 H   0  0  0  0  0  0  0  0  0  0  0  0
   39.1170   30.5470   40.2520 H   0  0  0  0  0  0  0  0  0  0  0  0
   40.3550   31.4680   41.7600 C   0  0  0  0  0  0  0  0  0  0  0  0
   39.8550   32.1390   42.5030 H   0  0  0  0  0  0  0  0  0  0  0  0
   41.2410   31.0740   42.2540 H   0  0  0  0  0  0  0  0  0  0  0  0
   40.6140   32.6480   38.1980 C   0  0  0  0  0  0  0  0  0  0  0  0
   40.2150   31.9130   39.3370 C   0  0  0  0  0  0  0  0  0  0  0  0
   40.7820   32.2470   40.5710 C   0  0  0  0  0  0  0  0  0  0  0  0
   41.6830   33.2540   40.6220 N   0  0  0  0  0  0  0  0  0  0  0  0
   42.0340   33.9300   39.5060 C   0  0  0  0  0  0  0  0  0  0  0  0
   41.5130   33.6400   38.3020 N   0  0  0  0  0  0  0  0  0  0  0  0
   40.0700   32.3460   36.9340 N   0  0  0  0  0  0  0  0  0  0  0  0
   39.4830   31.1040   39.2650 H   0  0  0  0  0  0  0  0  0  0  0  0
   42.7540   34.7380   39.5330 H   0  0  0  0  0  0  0  0  0  0  0  0
   40.0780   31.3560   36.5780 H   0  0  0  0  0  0  0  0  0  0  0  0
   39.6450   33.0530   36.3090 H   0  0  0  0  0  0  0  0  0  0  0  0
   38.2100   30.5130   42.0810 O   0  0  0  0  0  0  0  0  0  0  0  0
   37.2670   29.3620   39.9310 O   0  0  0  0  0  0  0  0  0  0  0  0
   36.9030   29.7660   41.3280 P   0  0  2  0  0  0  0  0  0  0  0  0
   35.6010   30.8260   41.3830 O   0  0  0  0  0  0  0  0  0  0  0  0
   35.7310   31.5080   40.6600 H   0  0  0  0  0  0  0  0  0  0  0  0
   36.4480   28.4000   42.2580 O   0  0  0  0  0  0  0  0  0  0  0  0
   37.4040   27.4220   42.4880 C   0  0  0  0  0  0  0  0  0  0  0  0
   38.3660   27.4660   43.4670 C   0  0  0  0  0  0  0  0  0  0  0  0
   38.3680   28.3510   44.1140 H   0  0  0  0  0  0  0  0  0  0  0  0
   39.2990   26.4790   43.6670 C   0  0  0  0  0  0  0  0  0  0  0  0
   40.0500   26.5250   44.4400 H   0  0  0  0  0  0  0  0  0  0  0  0
   39.2820   25.3560   42.8330 C   0  0  0  0  0  3  0  0  0  0  0  0
   38.3010   25.3530   41.8660 C   0  0  0  0  0  3  0  0  0  0  0  0
   37.3730   26.3330   41.6650 N   0  0  0  0  0  0  0  0  0  0  0  0
  1  2  1  0  0  0  0
  1  4  1  0  0  0  0
  1 18  1  0  0  0  0
  3  1  1  0  0  0  0
  4  6  1  0  0  0  0
  4  5  1  0  0  0  0
  7 12  2  0  0  0  0
  7  8  1  0  0  0  0
  8  9  2  0  0  0  0
  9 10  1  0  0  0  0
  9  4  1  0  0  0  0
 11 15  1  0  0  0  0
 11 10  2  0  0  0  0
 12 11  1  0  0  0  0
 13  7  1  0  0  0  0
 14  8  1  0  0  0  0
 16 13  1  0  0  0  0
 17 13  1  0  0  0  0
 20 19  2  6  0  0  0
 20 21  1  0  0  0  0
 20 18  1  0  0  0  0
 20 23  1  0  0  0  0
 22 21  1  0  0  0  0
 23 24  1  0  0  0  0
 24 25  1  0  0  0  0
 25 27  2  0  0  0  0
 25 26  1  0  0  0  0
 27 28  1  0  0  0  0
 29 27  1  0  0  0  0
 30 29  2  0  0  0  0
 31 30  1  0  0  0  0
 31 24  2  0  0  0  0
M  END
>  <minimizedAffinity>
-5.21749353

$$$$

 OpenBabel03242516423D

 31 32  0  0  0  0  0  0  0  0999 V2000
   38.1390   29.4230   42.2840 C   0  0  0  0  0  0  0  0  0  0  0  0
   39.2410   29.2160   42.3730 H   0  0  0  0  0  0  0  0  0  0  0  0
   38.0090   30.4040   42.7980 H   0  0  0  0  0  0  0  0  0  0  0  0
   37.3780   28.3490   42.9910 C   0  0  0  0  0  0  0  0  0  0  0  0
   37.1570   28.7130   44.0250 H   0  0  0  0  0  0  0  0  0  0  0  0
   36.4190   28.0950   42.5450 H   0  0  0  0  0  0  0  0  0  0  0  0
   38.5050   24.7970   42.4750 C   0  0  0  0  0  0  0  0  0  0  0  0
   37.7180   25.9700   42.4290 C   0  0  0  0  0  0  0  0  0  0  0  0
   38.2140   27.1230   43.0460 C   0  0  0  0  0  0  0  0  0  0  0  0
   39.4180   27.0680   43.6580 N   0  0  0  0  0  0  0  0  0  0  0  0
   40.1370   25.9240   43.6760 C   0  0  0  0  0  0  0  0  0  0  0  0
   39.6970   24.7940   43.0960 N   0  0  0  0  0  0  0  0  0  0  0  0
   38.0470   23.6120   41.8680 N   0  0  0  0  0  0  0  0  0  0  0  0
   36.7470   25.9850   41.9260 H   0  0  0  0  0  0  0  0  0  0  0  0
   41.1020   25.8650   44.1630 H   0  0  0  0  0  0  0  0  0  0  0  0
   37.0840   23.2460   42.0830 H   0  0  0  0  0  0  0  0  0  0  0  0
   38.6080   23.0560   41.2000 H   0  0  0  0  0  0  0  0  0  0  0  0
   37.7570   29.5280   40.9700 O   0  0  0  0  0  0  0  0  0  0  0  0
   37.9580   32.1350   41.0060 O   0  0  0  0  0  0  0  0  0  0  0  0
   37.0420   31.0120   40.6230 P   0  0  2  0  0  0  0  0  0  0  0  0
   35.5660   31.0730   41.4210 O   0  0  0  0  0  0  0  0  0  0  0  0
   35.7460   31.2940   42.3820 H   0  0  0  0  0  0  0  0  0  0  0  0
   36.6830   31.0630   38.9480 O   0  0  0  0  0  0  0  0  0  0  0  0
   36.2620   29.8910   38.3370 C   0  0  0  0  0  0  0  0  0  0  0  0
   35.1740   29.1440   38.7160 C   0  0  0  0  0  0  0  0  0  0  0  0
   34.5980   29.5140   39.5730 H   0  0  0  0  0  0  0  0  0  0  0  0
   34.7850   27.9870   38.0880 C   0  0  0  0  0  0  0  0  0  0  0  0
   33.9280   27.4080   38.3960 H   0  0  0  0  0  0  0  0  0  0  0  0
   35.5310   27.5280   36.9970 C   0  0  0  0  0  3  0  0  0  0  0  0
   36.6120   28.3080   36.6500 C   0  0  0  0  0  3  0  0  0  0  0  0
   37.0010   29.4580   37.2730 N   0  0  0  0  0  0  0  0  0  0  0  0
  1  2  1  0  0  0  0
  1  3  1  0  0  0  0
  1  4  1  0  0  0  0
  4  9  1  0  0  0  0
  4  5  1  0  0  0  0
  6  4  1  0  0  0  0
  7 12  1  0  0  0  0
  8  7  2  0  0  0  0
  8  9  1  0  0  0  0
  9 10  2  0  0  0  0
 10 11  1  0  0  0  0
 11 15  1  0  0  0  0
 12 11  2  0  0  0  0
 13 16  1  0  0  0  0
 13  7  1  0  0  0  0
 14  8  1  0  0  0  0
 17 13  1  0  0  0  0
 18  1  1  0  0  0  0
 20 18  1  0  0  0  0
 20 19  2  1  0  0  0
 20 21  1  0  0  0  0
 21 22  1  0  0  0  0
 23 20  1  0  0  0  0
 24 25  1  0  0  0  0
 24 23  1  0  0  0  0
 25 26  1  0  0  0  0
 27 28  1  0  0  0  0
 27 25  2  0  0  0  0
 29 27  1  0  0  0  0
 30 29  2  0  0  0  0
 30 31  1  0  0  0  0
 31 24  2  0  0  0  0
M  END
>  <minimizedAffinity>
-5.1205945

$$$$

 OpenBabel03242516423D

 31 32  0  0  0  0  0  0  0  0999 V2000
   36.8730   30.0840   40.5820 C   0  0  0  0  0  0  0  0  0  0  0  0
   37.7700   29.7010   40.0210 H   0  0  0  0  0  0  0  0  0  0  0  0
   36.0240   29.4960   40.1610 H   0  0  0  0  0  0  0  0  0  0  0  0
   36.7010   31.5410   40.3000 C   0  0  0  0  0  0  0  0  0  0  0  0
   35.9650   31.6410   39.4640 H   0  0  0  0  0  0  0  0  0  0  0  0
   36.3050   32.1250   41.1270 H   0  0  0  0  0  0  0  0  0  0  0  0
   39.6830   32.4470   38.1940 C   0  0  0  0  0  0  0  0  0  0  0  0
   38.4370   31.9070   38.5850 C   0  0  0  0  0  0  0  0  0  0  0  0
   38.0120   32.1130   39.9020 C   0  0  0  0  0  0  0  0  0  0  0  0
   38.8060   32.8150   40.7400 N   0  0  0  0  0  0  0  0  0  0  0  0
   39.9900   33.3140   40.3220 C   0  0  0  0  0  0  0  0  0  0  0  0
   40.4360   33.1390   39.0670 N   0  0  0  0  0  0  0  0  0  0  0  0
   40.1530   32.2650   36.8790 N   0  0  0  0  0  0  0  0  0  0  0  0
   37.8160   31.3430   37.8840 H   0  0  0  0  0  0  0  0  0  0  0  0
   40.6360   33.8780   40.9830 H   0  0  0  0  0  0  0  0  0  0  0  0
   40.1830   31.3020   36.4570 H   0  0  0  0  0  0  0  0  0  0  0  0
   40.4810   33.0390   36.2750 H   0  0  0  0  0  0  0  0  0  0  0  0
   36.9890   29.8420   41.9280 O   0  0  0  0  0  0  0  0  0  0  0  0
   39.3300   30.3170   42.9930 O   0  0  0  0  0  0  0  0  0  0  0  0
   38.5060   29.2440   42.3470 P   0  0  2  0  0  0  0  0  0  0  0  0
   39.2170   28.6210   40.9590 O   0  0  0  0  0  0  0  0  0  0  0  0
   39.5790   29.3910   40.4290 H   0  0  0  0  0  0  0  0  0  0  0  0
   38.2910   27.9170   43.4110 O   0  0  0  0  0  0  0  0  0  0  0  0
   38.2050   26.6470   42.8580 C   0  0  0  0  0  0  0  0  0  0  0  0
   37.0460   26.0400   42.4430 C   0  0  0  0  0  0  0  0  0  0  0  0
   36.1190   26.6140   42.5620 H   0  0  0  0  0  0  0  0  0  0  0  0
   36.9960   24.7800   41.8990 C   0  0  0  0  0  0  0  0  0  0  0  0
   36.0780   24.3130   41.5770 H   0  0  0  0  0  0  0  0  0  0  0  0
   38.1860   24.0600   41.7540 C   0  0  0  0  0  3  0  0  0  0  0  0
   39.3240   24.7080   42.1820 C   0  0  0  0  0  3  0  0  0  0  0  0
   39.3770   25.9600   42.7230 N   0  0  0  0  0  0  0  0  0  0  0  0
  1 18  1  0  0  0  0
  2  1  1  0  0  0  0
  3  1  1  0  0  0  0
  4  1  1  0  0  0  0
  4  6  1  0  0  0  0
  5  4  1  0  0  0  0
  7  8  2  0  0  0  0
  7 12  1  0  0  0  0
  8  9  1  0  0  0  0
  9  4  1  0  0  0  0
  9 10  2  0  0  0  0
 11 10  1  0  0  0  0
 11 15  1  0  0  0  0
 12 11  2  0  0  0  0
 13  7  1  0  0  0  0
 14  8  1  0  0  0  0
 16 13  1  0  0  0  0
 17 13  1  0  0  0  0
 18 20  1  0  0  0  0
 20 19  2  1  0  0  0
 20 23  1  0  0  0  0
 21 20  1  0  0  0  0
 22 21  1  0  0  0  0
 24 23  1  0  0  0  0
 25 26  1  0  0  0  0
 25 24  2  0  0  0  0
 27 25  1  0  0  0  0
 28 27  1  0  0  0  0
 29 27  2  0  0  0  0
 29 30  1  0  0  0  0
 30 31  2  0  0  0  0
 31 24  1  0  0  0  0
M  END
>  <minimizedAffinity>
-5.04138041

$$$$

 OpenBabel03242516423D

 31 32  0  0  0  0  0  0  0  0999 V2000
   37.0840   33.1190   39.5440 C   0  0  0  0  0  0  0  0  0  0  0  0
   36.2580   33.7120   39.0620 H   0  0  0  0  0  0  0  0  0  0  0  0
   36.6690   32.8480   40.5430 H   0  0  0  0  0  0  0  0  0  0  0  0
   38.2930   33.9850   39.6870 C   0  0  0  0  0  0  0  0  0  0  0  0
   38.4530   34.5090   38.7120 H   0  0  0  0  0  0  0  0  0  0  0  0
   38.2140   34.7630   40.4430 H   0  0  0  0  0  0  0  0  0  0  0  0
   40.6200   31.7280   41.5950 C   0  0  0  0  0  0  0  0  0  0  0  0
   39.5110   32.5440   41.2780 C   0  0  0  0  0  0  0  0  0  0  0  0
   39.4630   33.1290   40.0090 C   0  0  0  0  0  0  0  0  0  0  0  0
   40.4730   32.8910   39.1430 N   0  0  0  0  0  0  0  0  0  0  0  0
   41.5140   32.1020   39.4890 C   0  0  0  0  0  0  0  0  0  0  0  0
   41.5990   31.5210   40.6980 N   0  0  0  0  0  0  0  0  0  0  0  0
   40.7120   31.1190   42.8610 N   0  0  0  0  0  0  0  0  0  0  0  0
   38.7080   32.7190   41.9990 H   0  0  0  0  0  0  0  0  0  0  0  0
   42.3300   31.9030   38.8060 H   0  0  0  0  0  0  0  0  0  0  0  0
   40.6000   31.6940   43.7350 H   0  0  0  0  0  0  0  0  0  0  0  0
   40.8870   30.1080   43.0000 H   0  0  0  0  0  0  0  0  0  0  0  0
   37.3610   31.9820   38.8280 O   0  0  0  0  0  0  0  0  0  0  0  0
   35.7730   29.9380   38.4590 O   0  0  0  0  0  0  0  0  0  0  0  0
   36.6330   30.6130   39.4840 P   0  0  2  0  0  0  0  0  0  0  0  0
   35.7750   31.0870   40.8470 O   0  0  0  0  0  0  0  0  0  0  0  0
   34.9130   31.4960   40.5390 H   0  0  0  0  0  0  0  0  0  0  0  0
   37.8640   29.5560   40.0370 O   0  0  0  0  0  0  0  0  0  0  0  0
   37.6320   28.8420   41.2040 C   0  0  0  0  0  0  0  0  0  0  0  0
   37.1800   27.5480   41.2660 C   0  0  0  0  0  0  0  0  0  0  0  0
   36.9900   27.0460   40.3100 H   0  0  0  0  0  0  0  0  0  0  0  0
   36.9610   26.8700   42.4410 C   0  0  0  0  0  0  0  0  0  0  0  0
   36.6050   25.8520   42.4780 H   0  0  0  0  0  0  0  0  0  0  0  0
   37.2090   27.5240   43.6530 C   0  0  0  0  0  3  0  0  0  0  0  0
   37.6620   28.8200   43.5430 C   0  0  0  0  0  3  0  0  0  0  0  0
   37.8800   29.4960   42.3780 N   0  0  0  0  0  0  0  0  0  0  0  0
  1  4  1  0  0  0  0
  1  3  1  0  0  0  0
  2  1  1  0  0  0  0
  4  9  1  0  0  0  0
  4  6  1  0  0  0  0
  5  4  1  0  0  0  0
  7 13  1  0  0  0  0
  8  7  1  0  0  0  0
  8 14  1  0  0  0  0
  9  8  2  0  0  0  0
 10 11  2  0  0  0  0
 10  9  1  0  0  0  0
 11 12  1  0  0  0  0
 12  7  2  0  0  0  0
 13 17  1  0  0  0  0
 13 16  1  0  0  0  0
 15 11  1  0  0  0  0
 18 20  1  0  0  0  0
 18  1  1  0  0  0  0
 20 19  2  6  0  0  0
 20 23  1  0  0  0  0
 20 21  1  0  0  0  0
 22 21  1  0  0  0  0
 23 24  1  0  0  0  0
 24 25  2  0  0  0  0
 24 31  1  0  0  0  0
 25 27  1  0  0  0  0
 26 25  1  0  0  0  0
 27 28  1  0  0  0  0
 27 29  2  0  0  0  0
 30 29  1  0  0  0  0
 31 30  2  0  0  0  0
M  END
>  <minimizedAffinity>
-4.75094318

$$$$

 OpenBabel03242516423D

 31 32  0  0  0  0  0  0  0  0999 V2000
   36.6120   27.3720   40.3740 C   0  0  0  0  0  0  0  0  0  0  0  0
   36.4090   27.2900   39.2700 H   0  0  0  0  0  0  0  0  0  0  0  0
   36.0680   26.5020   40.8110 H   0  0  0  0  0  0  0  0  0  0  0  0
   36.0490   28.6590   40.8830 C   0  0  0  0  0  0  0  0  0  0  0  0
   34.9350   28.5620   40.8960 H   0  0  0  0  0  0  0  0  0  0  0  0
   36.3450   28.9220   41.8960 H   0  0  0  0  0  0  0  0  0  0  0  0
   36.9830   32.0920   39.6580 C   0  0  0  0  0  0  0  0  0  0  0  0
   36.5950   31.0380   40.5170 C   0  0  0  0  0  0  0  0  0  0  0  0
   36.4560   29.7580   39.9710 C   0  0  0  0  0  0  0  0  0  0  0  0
   36.6980   29.5830   38.6530 N   0  0  0  0  0  0  0  0  0  0  0  0
   37.0670   30.6190   37.8690 C   0  0  0  0  0  0  0  0  0  0  0  0
   37.2110   31.8650   38.3530 N   0  0  0  0  0  0  0  0  0  0  0  0
   37.1340   33.3970   40.1630 N   0  0  0  0  0  0  0  0  0  0  0  0
   36.4070   31.2100   41.5800 H   0  0  0  0  0  0  0  0  0  0  0  0
   37.2640   30.4940   36.8120 H   0  0  0  0  0  0  0  0  0  0  0  0
   36.3630   33.8390   40.7270 H   0  0  0  0  0  0  0  0  0  0  0  0
   37.9800   33.9750   40.0160 H   0  0  0  0  0  0  0  0  0  0  0  0
   37.9540   27.2700   40.6420 O   0  0  0  0  0  0  0  0  0  0  0  0
   39.4020   25.3680   41.7030 O   0  0  0  0  0  0  0  0  0  0  0  0
   38.2710   26.3100   41.9880 P   0  0  2  0  0  0  0  0  0  0  0  0
   36.8500   25.5160   42.4020 O   0  0  0  0  0  0  0  0  0  0  0  0
   36.7380   24.7410   41.7760 H   0  0  0  0  0  0  0  0  0  0  0  0
   38.6490   27.3340   43.3090 O   0  0  0  0  0  0  0  0  0  0  0  0
   39.4230   28.4590   43.0590 C   0  0  0  0  0  0  0  0  0  0  0  0
   38.9410   29.7360   42.9090 C   0  0  0  0  0  0  0  0  0  0  0  0
   37.8560   29.8660   42.9960 H   0  0  0  0  0  0  0  0  0  0  0  0
   39.7370   30.8280   42.6620 C   0  0  0  0  0  0  0  0  0  0  0  0
   39.3460   31.8270   42.5450 H   0  0  0  0  0  0  0  0  0  0  0  0
   41.1190   30.6450   42.5530 C   0  0  0  0  0  3  0  0  0  0  0  0
   41.5580   29.3490   42.7110 C   0  0  0  0  0  3  0  0  0  0  0  0
   40.7700   28.2620   42.9560 N   0  0  0  0  0  0  0  0  0  0  0  0
  1 18  1  0  0  0  0
  1  3  1  0  0  0  0
  1  4  1  0  0  0  0
  2  1  1  0  0  0  0
  4  5  1  0  0  0  0
  4  6  1  0  0  0  0
  7 13  1  0  0  0  0
  7  8  1  0  0  0  0
  8 14  1  0  0  0  0
  9  8  2  0  0  0  0
  9  4  1  0  0  0  0
 10  9  1  0  0  0  0
 11 12  1  0  0  0  0
 11 10  2  0  0  0  0
 12  7  2  0  0  0  0
 13 16  1  0  0  0  0
 15 11  1  0  0  0  0
 17 13  1  0  0  0  0
 18 20  1  0  0  0  0
 20 19  2  6  0  0  0
 20 21  1  0  0  0  0
 20 23  1  0  0  0  0
 22 21  1  0  0  0  0
 24 23  1  0  0  0  0
 25 26  1  0  0  0  0
 25 24  2  0  0  0  0
 27 25  1  0  0  0  0
 28 27  1  0  0  0  0
 29 27  2  0  0  0  0
 29 30  1  0  0  0  0
 30 31  2  0  0  0  0
 31 24  1  0  0  0  0
M  END
>  <minimizedAffinity>
-4.73105097

$$$$

 OpenBabel03242516423D

 31 32  0  0  0  0  0  0  0  0999 V2000
   37.2160   31.8340   39.3240 C   0  0  0  0  0  0  0  0  0  0  0  0
   37.9650   32.2060   40.0760 H   0  0  0  0  0  0  0  0  0  0  0  0
   36.6630   32.7530   39.0200 H   0  0  0  0  0  0  0  0  0  0  0  0
   36.2990   30.8570   39.9860 C   0  0  0  0  0  0  0  0  0  0  0  0
   35.4370   31.4320   40.4080 H   0  0  0  0  0  0  0  0  0  0  0  0
   35.8710   30.1080   39.3240 H   0  0  0  0  0  0  0  0  0  0  0  0
   37.1770   28.3160   42.6170 C   0  0  0  0  0  0  0  0  0  0  0  0
   36.4840   28.9840   41.5810 C   0  0  0  0  0  0  0  0  0  0  0  0
   37.0350   30.1650   41.0730 C   0  0  0  0  0  0  0  0  0  0  0  0
   38.2000   30.6150   41.5900 N   0  0  0  0  0  0  0  0  0  0  0  0
   38.8280   29.9430   42.5790 C   0  0  0  0  0  0  0  0  0  0  0  0
   38.3330   28.8050   43.0960 N   0  0  0  0  0  0  0  0  0  0  0  0
   36.6600   27.1250   43.1600 N   0  0  0  0  0  0  0  0  0  0  0  0
   35.5430   28.5950   41.1830 H   0  0  0  0  0  0  0  0  0  0  0  0
   39.7620   30.2920   43.0020 H   0  0  0  0  0  0  0  0  0  0  0  0
   35.6630   27.0840   43.4940 H   0  0  0  0  0  0  0  0  0  0  0  0
   37.2090   26.2520   43.2570 H   0  0  0  0  0  0  0  0  0  0  0  0
   37.8380   31.2800   38.2340 O   0  0  0  0  0  0  0  0  0  0  0  0
   39.8140   32.6810   39.2200 O   0  0  0  0  0  0  0  0  0  0  0  0
   39.4570   31.7260   38.1200 P   0  0  2  0  0  0  0  0  0  0  0  0
   39.7100   32.3700   36.5900 O   0  0  0  0  0  0  0  0  0  0  0  0
   39.3670   33.3120   36.5930 H   0  0  0  0  0  0  0  0  0  0  0  0
   40.4190   30.3100   38.2080 O   0  0  0  0  0  0  0  0  0  0  0  0
   41.5210   30.2190   37.3700 C   0  0  0  0  0  0  0  0  0  0  0  0
   41.8440   29.1280   36.6010 C   0  0  0  0  0  0  0  0  0  0  0  0
   41.1700   28.2660   36.6610 H   0  0  0  0  0  0  0  0  0  0  0  0
   42.9450   29.0720   35.7810 C   0  0  0  0  0  0  0  0  0  0  0  0
   43.1890   28.2080   35.1810 H   0  0  0  0  0  0  0  0  0  0  0  0
   43.7950   30.1800   35.7150 C   0  0  0  0  0  3  0  0  0  0  0  0
   43.4320   31.2510   36.5020 C   0  0  0  0  0  3  0  0  0  0  0  0
   42.3400   31.3100   37.3180 N   0  0  0  0  0  0  0  0  0  0  0  0
  1  4  1  0  0  0  0
  1  2  1  0  0  0  0
  3  1  1  0  0  0  0
  4  5  1  0  0  0  0
  4  9  1  0  0  0  0
  6  4  1  0  0  0  0
  7 12  1  0  0  0  0
  7 13  1  0  0  0  0
  8  7  2  0  0  0  0
  9  8  1  0  0  0  0
  9 10  2  0  0  0  0
 10 11  1  0  0  0  0
 11 15  1  0  0  0  0
 11 12  2  0  0  0  0
 13 17  1  0  0  0  0
 13 16  1  0  0  0  0
 14  8  1  0  0  0  0
 18  1  1  0  0  0  0
 20 23  1  0  0  0  0
 20 18  1  0  0  0  0
 20 19  2  1  0  0  0
 21 22  1  0  0  0  0
 21 20  1  0  0  0  0
 24 23  1  0  0  0  0
 25 26  1  0  0  0  0
 25 24  2  0  0  0  0
 27 25  1  0  0  0  0
 28 27  1  0  0  0  0
 29 27  2  0  0  0  0
 29 30  1  0  0  0  0
 30 31  2  0  0  0  0
 31 24  1  0  0  0  0
M  END
>  <minimizedAffinity>
-4.71298885

$$$$

 OpenBabel03242516423D

 31 32  0  0  0  0  0  0  0  0999 V2000
   36.3990   30.8300   40.2570 C   0  0  0  0  0  0  0  0  0  0  0  0
   35.6230   30.0180   40.1900 H   0  0  0  0  0  0  0  0  0  0  0  0
   35.8000   31.7690   40.3030 H   0  0  0  0  0  0  0  0  0  0  0  0
   37.2480   30.8010   39.0280 C   0  0  0  0  0  0  0  0  0  0  0  0
   37.4440   31.8600   38.7260 H   0  0  0  0  0  0  0  0  0  0  0  0
   38.2220   30.3330   39.1530 H   0  0  0  0  0  0  0  0  0  0  0  0
   34.5900   28.8020   37.2690 C   0  0  0  0  0  0  0  0  0  0  0  0
   35.2980   29.4830   38.2860 C   0  0  0  0  0  0  0  0  0  0  0  0
   36.5140   30.0880   37.9520 C   0  0  0  0  0  0  0  0  0  0  0  0
   36.9600   29.9960   36.6800 N   0  0  0  0  0  0  0  0  0  0  0  0
   36.2490   29.3340   35.7400 C   0  0  0  0  0  0  0  0  0  0  0  0
   35.0770   28.7390   36.0180 N   0  0  0  0  0  0  0  0  0  0  0  0
   33.3620   28.1770   37.5580 N   0  0  0  0  0  0  0  0  0  0  0  0
   34.9110   29.5410   39.3070 H   0  0  0  0  0  0  0  0  0  0  0  0
   36.5940   29.2530   34.7170 H   0  0  0  0  0  0  0  0  0  0  0  0
   33.2840   27.5130   38.3700 H   0  0  0  0  0  0  0  0  0  0  0  0
   32.4970   28.3320   37.0110 H   0  0  0  0  0  0  0  0  0  0  0  0
   37.1560   30.7010   41.3940 O   0  0  0  0  0  0  0  0  0  0  0  0
   35.9590   28.3790   41.5160 O   0  0  0  0  0  0  0  0  0  0  0  0
   37.1740   29.1230   41.9810 P   0  0  2  0  0  0  0  0  0  0  0  0
   37.2950   29.1960   43.6540 O   0  0  0  0  0  0  0  0  0  0  0  0
   36.3840   29.4050   44.0180 H   0  0  0  0  0  0  0  0  0  0  0  0
   38.6050   28.3560   41.4310 O   0  0  0  0  0  0  0  0  0  0  0  0
   38.9300   27.1200   41.9730 C   0  0  0  0  0  0  0  0  0  0  0  0
   38.5680   25.9040   41.4480 C   0  0  0  0  0  0  0  0  0  0  0  0
   37.9740   25.9230   40.5270 H   0  0  0  0  0  0  0  0  0  0  0  0
   38.9070   24.6980   42.0110 C   0  0  0  0  0  0  0  0  0  0  0  0
   38.6150   23.7480   41.5900 H   0  0  0  0  0  0  0  0  0  0  0  0
   39.6650   24.6910   43.1870 C   0  0  0  0  0  3  0  0  0  0  0  0
   40.0070   25.9320   43.6760 C   0  0  0  0  0  3  0  0  0  0  0  0
   39.6710   27.1330   43.1200 N   0  0  0  0  0  0  0  0  0  0  0  0
  1  3  1  0  0  0  0
  1 18  1  0  0  0  0
  2  1  1  0  0  0  0
  4  6  1  0  0  0  0
  4  1  1  0  0  0  0
  5  4  1  0  0  0  0
  7 13  1  0  0  0  0
  7  8  1  0  0  0  0
  8 14  1  0  0  0  0
  9  8  2  0  0  0  0
  9  4  1  0  0  0  0
 10  9  1  0  0  0  0
 11 12  1  0  0  0  0
 11 10  2  0  0  0  0
 12  7  2  0  0  0  0
 13 16  1  0  0  0  0
 15 11  1  0  0  0  0
 17 13  1  0  0  0  0
 18 20  1  0  0  0  0
 20 19  2  6  0  0  0
 20 21  1  0  0  0  0
 21 22  1  0  0  0  0
 23 24  1  0  0  0  0
 23 20  1  0  0  0  0
 24 31  1  0  0  0  0
 25 24  2  0  0  0  0
 25 27  1  0  0  0  0
 26 25  1  0  0  0  0
 27 29  2  0  0  0  0
 28 27  1  0  0  0  0
 29 30  1  0  0  0  0
 31 30  2  0  0  0  0
M  END
>  <minimizedAffinity>
-4.68233776

$$$$
