
 OpenBabel03252506343D

 32 34  0  0  1  0  0  0  0  0999 V2000
   44.4780   35.7260   44.9970 C   0  0  0  0  0  0  0  0  0  0  0  0
   45.1480   35.6920   43.7510 C   0  0  0  0  0  0  0  0  0  0  0  0
   46.0550   34.7060   43.5240 C   0  0  0  0  0  0  0  0  0  0  0  0
   46.2710   33.8060   44.5010 N   0  0  0  0  0  0  0  0  0  0  0  0
   45.6320   33.8430   45.6780 C   0  0  0  0  0  0  0  0  0  0  0  0
   44.7290   34.7950   45.9510 N   0  0  0  0  0  0  0  0  0  0  0  0
   45.9350   32.8440   46.6480 N   0  0  0  0  0  0  0  0  0  0  0  0
   45.1410   32.5520   47.8320 C   0  0  0  0  0  0  0  0  0  0  0  0
   46.2270   32.2670   48.8570 C   0  0  0  0  0  0  0  0  0  0  0  0
   47.5260   32.1210   48.1010 C   0  0  0  0  0  0  0  0  0  0  0  0
   47.0620   31.9310   46.6710 C   0  0  1  0  0  0  0  0  0  0  0  0
   43.7430   36.4650   45.2730 H   0  0  0  0  0  0  0  0  0  0  0  0
   46.5370   34.7110   42.5840 H   0  0  0  0  0  0  0  0  0  0  0  0
   44.4540   31.7000   47.6850 H   0  0  0  0  0  0  0  0  0  0  0  0
   44.5060   33.4100   48.1230 H   0  0  0  0  0  0  0  0  0  0  0  0
   46.2820   33.1640   49.5170 H   0  0  0  0  0  0  0  0  0  0  0  0
   45.9750   31.4080   49.4890 H   0  0  0  0  0  0  0  0  0  0  0  0
   48.2190   32.9530   48.2380 H   0  0  0  0  0  0  0  0  0  0  0  0
   47.9600   31.1440   48.4250 H   0  0  0  0  0  0  0  0  0  0  0  0
   47.8600   32.2360   45.9620 H   0  0  0  0  0  0  0  0  0  0  0  0
   44.7690   36.7450   42.8600 N   0  0  0  0  0  0  0  0  0  0  0  0
   45.5380   37.2330   42.3600 H   0  0  0  0  0  0  0  0  0  0  0  0
   43.7820   37.0160   42.7110 H   0  0  0  0  0  0  0  0  0  0  0  0
   46.5590   30.2120   46.4760 S   0  0  0  0  0  0  0  0  0  0  0  0
   46.6750   29.6620   44.7830 C   0  0  0  0  0  0  0  0  0  0  0  0
   47.5390   30.3780   43.9650 C   0  0  0  0  0  0  0  0  0  0  0  0
   48.1220   31.2360   44.3250 H   0  0  0  0  0  0  0  0  0  0  0  0
   47.6690   29.9950   42.6400 C   0  0  0  0  0  0  0  0  0  0  0  0
   48.3310   30.5370   41.9980 H   0  0  0  0  0  0  0  0  0  0  0  0
   46.9550   28.9160   42.1270 C   0  0  0  0  0  3  0  0  0  0  0  0
   46.1080   28.2360   42.9880 C   0  0  0  0  0  3  0  0  0  0  0  0
   45.9740   28.6090   44.2940 N   0  0  0  0  0  0  0  0  0  0  0  0
  1 12  1  0  0  0  0
  1  6  1  0  0  0  0
  2  1  2  0  0  0  0
  3  2  1  0  0  0  0
  3  4  2  0  0  0  0
  4  5  1  0  0  0  0
  5  6  2  0  0  0  0
  5  7  1  0  0  0  0
  7 11  1  0  0  0  0
  7  8  1  0  0  0  0
  8 15  1  0  0  0  0
  8  9  1  0  0  0  0
  9 17  1  0  0  0  0
  9 16  1  0  0  0  0
 10 18  1  0  0  0  0
 10 19  1  0  0  0  0
 10  9  1  0  0  0  0
 11 20  1  6  0  0  0
 11 10  1  0  0  0  0
 13  3  1  0  0  0  0
 14  8  1  0  0  0  0
 21  2  1  0  0  0  0
 22 21  1  0  0  0  0
 23 21  1  0  0  0  0
 24 11  1  0  0  0  0
 25 24  1  0  0  0  0
 26 27  1  0  0  0  0
 26 25  2  0  0  0  0
 28 26  1  0  0  0  0
 29 28  1  0  0  0  0
 30 28  2  0  0  0  0
 30 31  1  0  0  0  0
 31 32  2  0  0  0  0
 32 25  1  0  0  0  0
M  END
>  <minimizedAffinity>
-4.81595278

>  <minimizedRMSD>
1.02248991

$$$$
