
 OpenBabel03252502573D

 36 38  0  0  0  0  0  0  0  0999 V2000
   39.1860   29.4830   42.9020 Br  0  0  0  0  0  0  0  0  0  0  0  0
   37.6070   29.5500   41.7890 C   0  0  0  0  0  0  0  0  0  0  0  0
   36.8010   28.4470   41.8460 C   0  0  0  0  0  0  0  0  0  0  0  0
   35.6620   28.5230   41.0290 C   0  0  0  0  0  0  0  0  0  0  0  0
   35.3720   29.6060   40.2370 C   0  0  0  0  0  0  0  0  0  0  0  0
   36.2380   30.6720   40.2400 C   0  0  0  0  0  0  0  0  0  0  0  0
   37.3780   30.6640   41.0210 C   0  0  0  0  0  0  0  0  0  0  0  0
   34.9710   27.6870   41.0180 H   0  0  0  0  0  0  0  0  0  0  0  0
   34.4650   29.5900   39.6290 H   0  0  0  0  0  0  0  0  0  0  0  0
   35.9810   31.5110   39.6040 H   0  0  0  0  0  0  0  0  0  0  0  0
   36.9980   27.2390   42.6440 C   0  0  0  0  0  0  0  0  0  0  0  0
   37.6910   27.4680   43.4820 H   0  0  0  0  0  0  0  0  0  0  0  0
   36.0020   26.9110   43.0540 H   0  0  0  0  0  0  0  0  0  0  0  0
   39.1660   25.1720   40.4110 C   0  0  0  0  0  0  0  0  0  0  0  0
   38.5730   23.9060   40.5520 C   0  0  0  0  0  0  0  0  0  0  0  0
   37.4740   23.7880   41.3850 C   0  0  0  0  0  0  0  0  0  0  0  0
   37.0090   24.8760   42.0300 N   0  0  0  0  0  0  0  0  0  0  0  0
   37.5910   26.1060   41.8880 C   0  0  0  0  0  0  0  0  0  0  0  0
   38.6580   26.2050   41.0760 N   0  0  0  0  0  0  0  0  0  0  0  0
   40.0170   25.3210   39.7820 H   0  0  0  0  0  0  0  0  0  0  0  0
   39.0340   23.1190   39.9880 H   0  0  0  0  0  0  0  0  0  0  0  0
   37.0440   22.8120   41.4720 H   0  0  0  0  0  0  0  0  0  0  0  0
   38.2490   31.7380   41.0240 O   0  0  0  0  0  0  0  0  0  0  0  0
   39.5070   33.7950   40.0290 O   0  0  0  0  0  0  0  0  0  0  0  0
   38.2990   32.8970   39.7910 P   0  0  2  0  0  0  0  0  0  0  0  0
   36.8810   33.7920   39.8390 O   0  0  0  0  0  0  0  0  0  0  0  0
   36.5170   33.7660   40.7600 H   0  0  0  0  0  0  0  0  0  0  0  0
   38.5090   32.1940   38.2710 O   0  0  0  0  0  0  0  0  0  0  0  0
   39.6560   31.5120   37.8910 C   0  0  0  0  0  0  0  0  0  0  0  0
   39.7210   30.1460   38.0840 C   0  0  0  0  0  0  0  0  0  0  0  0
   38.9260   29.5520   38.5180 H   0  0  0  0  0  0  0  0  0  0  0  0
   40.8430   29.4360   37.7190 C   0  0  0  0  0  0  0  0  0  0  0  0
   40.9440   28.3690   37.8480 H   0  0  0  0  0  0  0  0  0  0  0  0
   41.9430   30.0600   37.1500 C   0  0  0  0  0  3  0  0  0  0  0  0
   41.8340   31.4440   36.9740 C   0  0  0  0  0  3  0  0  0  0  0  0
   40.7270   32.1300   37.3350 N   0  0  0  0  0  0  0  0  0  0  0  0
  2  3  1  0  0  0  0
  2  1  1  0  0  0  0
  3 11  1  0  0  0  0
  4  3  2  0  0  0  0
  5  6  2  0  0  0  0
  5  4  1  0  0  0  0
  6  7  1  0  0  0  0
  7 23  1  0  0  0  0
  7  2  2  0  0  0  0
  8  4  1  0  0  0  0
  9  5  1  0  0  0  0
 10  6  1  0  0  0  0
 11 13  1  0  0  0  0
 11 12  1  0  0  0  0
 14 15  2  0  0  0  0
 14 19  1  0  0  0  0
 15 16  1  0  0  0  0
 16 22  1  0  0  0  0
 16 17  2  0  0  0  0
 18 17  1  0  0  0  0
 18 11  1  0  0  0  0
 19 18  2  0  0  0  0
 20 14  1  0  0  0  0
 21 15  1  0  0  0  0
 25 26  1  0  0  0  0
 25 24  2  1  0  0  0
 25 23  1  0  0  0  0
 26 27  1  0  0  0  0
 28 25  1  0  0  0  0
 29 30  1  0  0  0  0
 29 28  1  0  0  0  0
 30 31  1  0  0  0  0
 32 33  1  0  0  0  0
 32 30  2  0  0  0  0
 34 32  1  0  0  0  0
 35 34  2  0  0  0  0
 35 36  1  0  0  0  0
 36 29  2  0  0  0  0
M  END
>  <minimizedAffinity>
-5.86803055

$$$$

 OpenBabel03252502573D

 36 38  0  0  0  0  0  0  0  0999 V2000
   40.4260   30.0750   40.7980 Br  0  0  0  0  0  0  0  0  0  0  0  0
   39.3300   31.5940   40.3180 C   0  0  0  0  0  0  0  0  0  0  0  0
   39.9400   32.8140   40.4230 C   0  0  0  0  0  0  0  0  0  0  0  0
   39.1210   33.8980   40.0680 C   0  0  0  0  0  0  0  0  0  0  0  0
   37.8210   33.7580   39.6510 C   0  0  0  0  0  0  0  0  0  0  0  0
   37.2890   32.4940   39.5750 C   0  0  0  0  0  0  0  0  0  0  0  0
   38.0380   31.3820   39.9090 C   0  0  0  0  0  0  0  0  0  0  0  0
   39.5300   34.9010   40.1240 H   0  0  0  0  0  0  0  0  0  0  0  0
   37.2490   34.6510   39.3920 H   0  0  0  0  0  0  0  0  0  0  0  0
   36.2590   32.4170   39.2430 H   0  0  0  0  0  0  0  0  0  0  0  0
   41.3080   33.0940   40.8510 C   0  0  0  0  0  0  0  0  0  0  0  0
   41.3190   34.0420   41.4300 H   0  0  0  0  0  0  0  0  0  0  0  0
   41.6620   32.2470   41.5020 H   0  0  0  0  0  0  0  0  0  0  0  0
   44.2970   34.0110   38.8060 C   0  0  0  0  0  0  0  0  0  0  0  0
   43.9420   33.4820   37.5530 C   0  0  0  0  0  0  0  0  0  0  0  0
   42.7210   32.8410   37.4360 C   0  0  0  0  0  0  0  0  0  0  0  0
   41.9170   32.7420   38.5130 N   0  0  0  0  0  0  0  0  0  0  0  0
   42.2690   33.2590   39.7300 C   0  0  0  0  0  0  0  0  0  0  0  0
   43.4580   33.8780   39.8280 N   0  0  0  0  0  0  0  0  0  0  0  0
   45.2290   34.5150   38.9530 H   0  0  0  0  0  0  0  0  0  0  0  0
   44.6660   33.6250   36.7740 H   0  0  0  0  0  0  0  0  0  0  0  0
   42.4780   32.4500   36.4700 H   0  0  0  0  0  0  0  0  0  0  0  0
   37.5020   30.1100   39.8330 O   0  0  0  0  0  0  0  0  0  0  0  0
   35.0080   29.4410   39.4650 O   0  0  0  0  0  0  0  0  0  0  0  0
   36.0370   29.6740   40.5630 P   0  0  2  0  0  0  0  0  0  0  0  0
   35.5490   30.9230   41.5720 O   0  0  0  0  0  0  0  0  0  0  0  0
   35.9430   31.7710   41.2450 H   0  0  0  0  0  0  0  0  0  0  0  0
   36.1650   28.2290   41.4240 O   0  0  0  0  0  0  0  0  0  0  0  0
   37.3720   27.6840   41.8370 C   0  0  0  0  0  0  0  0  0  0  0  0
   37.7690   27.8450   43.1490 C   0  0  0  0  0  0  0  0  0  0  0  0
   37.1960   28.3770   43.9000 H   0  0  0  0  0  0  0  0  0  0  0  0
   38.9610   27.3190   43.5940 C   0  0  0  0  0  0  0  0  0  0  0  0
   39.3160   27.4160   44.6100 H   0  0  0  0  0  0  0  0  0  0  0  0
   39.8020   26.6120   42.7490 C   0  0  0  0  0  3  0  0  0  0  0  0
   39.3610   26.4730   41.4280 C   0  0  0  0  0  3  0  0  0  0  0  0
   38.1900   26.9940   41.0030 N   0  0  0  0  0  0  0  0  0  0  0  0
  2  3  1  0  0  0  0
  2  1  1  0  0  0  0
  3 11  1  0  0  0  0
  4  8  1  0  0  0  0
  4  3  2  0  0  0  0
  5  4  1  0  0  0  0
  6  5  2  0  0  0  0
  6  7  1  0  0  0  0
  7  2  2  0  0  0  0
  9  5  1  0  0  0  0
 10  6  1  0  0  0  0
 11 12  1  0  0  0  0
 11 13  1  0  0  0  0
 14 20  1  0  0  0  0
 14 19  1  0  0  0  0
 15 14  2  0  0  0  0
 16 15  1  0  0  0  0
 16 17  2  0  0  0  0
 17 18  1  0  0  0  0
 18 19  2  0  0  0  0
 18 11  1  0  0  0  0
 21 15  1  0  0  0  0
 22 16  1  0  0  0  0
 23  7  1  0  0  0  0
 23 25  1  0  0  0  0
 25 24  2  6  0  0  0
 25 28  1  0  0  0  0
 25 26  1  0  0  0  0
 27 26  1  0  0  0  0
 28 29  1  0  0  0  0
 29 30  1  0  0  0  0
 30 32  2  0  0  0  0
 30 31  1  0  0  0  0
 32 33  1  0  0  0  0
 34 32  1  0  0  0  0
 35 34  2  0  0  0  0
 36 35  1  0  0  0  0
 36 29  2  0  0  0  0
M  END
>  <minimizedAffinity>
-5.70332479

$$$$

 OpenBabel03252502573D

 36 38  0  0  0  0  0  0  0  0999 V2000
   35.9510   29.2640   40.8190 Br  0  0  0  0  0  0  0  0  0  0  0  0
   37.6090   30.0630   41.4140 C   0  0  0  0  0  0  0  0  0  0  0  0
   38.1210   29.5550   42.5750 C   0  0  0  0  0  0  0  0  0  0  0  0
   39.3240   30.1530   42.9820 C   0  0  0  0  0  0  0  0  0  0  0  0
   39.9430   31.1590   42.2830 C   0  0  0  0  0  0  0  0  0  0  0  0
   39.3570   31.6090   41.1250 C   0  0  0  0  0  0  0  0  0  0  0  0
   38.1720   31.0650   40.6660 C   0  0  0  0  0  0  0  0  0  0  0  0
   39.7970   29.8060   43.8950 H   0  0  0  0  0  0  0  0  0  0  0  0
   40.8780   31.5720   42.6650 H   0  0  0  0  0  0  0  0  0  0  0  0
   39.8690   32.4050   40.5960 H   0  0  0  0  0  0  0  0  0  0  0  0
   37.5630   28.4910   43.4070 C   0  0  0  0  0  0  0  0  0  0  0  0
   37.7900   28.7080   44.4730 H   0  0  0  0  0  0  0  0  0  0  0  0
   36.4490   28.4610   43.2540 H   0  0  0  0  0  0  0  0  0  0  0  0
   38.0370   25.0290   42.0830 C   0  0  0  0  0  0  0  0  0  0  0  0
   39.2690   24.6830   42.6630 C   0  0  0  0  0  0  0  0  0  0  0  0
   39.8960   25.6140   43.4720 C   0  0  0  0  0  0  0  0  0  0  0  0
   39.3150   26.8130   43.6800 N   0  0  0  0  0  0  0  0  0  0  0  0
   38.1150   27.1430   43.1120 C   0  0  0  0  0  0  0  0  0  0  0  0
   37.5190   26.2290   42.3280 N   0  0  0  0  0  0  0  0  0  0  0  0
   37.5100   24.3490   41.4490 H   0  0  0  0  0  0  0  0  0  0  0  0
   39.6280   23.7010   42.4220 H   0  0  0  0  0  0  0  0  0  0  0  0
   40.8320   25.3210   43.8990 H   0  0  0  0  0  0  0  0  0  0  0  0
   37.5830   31.5190   39.5000 O   0  0  0  0  0  0  0  0  0  0  0  0
   39.6220   30.8810   38.0040 O   0  0  0  0  0  0  0  0  0  0  0  0
   38.1110   31.0670   37.9560 P   0  0  2  0  0  0  0  0  0  0  0  0
   37.7010   32.2810   36.8720 O   0  0  0  0  0  0  0  0  0  0  0  0
   37.6290   33.1380   37.3640 H   0  0  0  0  0  0  0  0  0  0  0  0
   37.4560   29.5900   37.4700 O   0  0  0  0  0  0  0  0  0  0  0  0
   36.3430   29.4750   36.6490 C   0  0  0  0  0  0  0  0  0  0  0  0
   35.1510   29.0380   37.1910 C   0  0  0  0  0  0  0  0  0  0  0  0
   35.0130   28.7710   38.2310 H   0  0  0  0  0  0  0  0  0  0  0  0
   34.0260   28.9110   36.4060 C   0  0  0  0  0  0  0  0  0  0  0  0
   33.0700   28.5750   36.7800 H   0  0  0  0  0  0  0  0  0  0  0  0
   34.0460   29.2150   35.0540 C   0  0  0  0  0  3  0  0  0  0  0  0
   35.2750   29.6550   34.5470 C   0  0  0  0  0  3  0  0  0  0  0  0
   36.3720   29.7750   35.3270 N   0  0  0  0  0  0  0  0  0  0  0  0
  1  2  1  0  0  0  0
  2  3  1  0  0  0  0
  3  4  2  0  0  0  0
  3 11  1  0  0  0  0
  4  8  1  0  0  0  0
  5  9  1  0  0  0  0
  5  4  1  0  0  0  0
  6  5  2  0  0  0  0
  7  6  1  0  0  0  0
  7  2  2  0  0  0  0
 10  6  1  0  0  0  0
 11 12  1  0  0  0  0
 13 11  1  0  0  0  0
 14 19  2  0  0  0  0
 14 15  1  0  0  0  0
 15 16  2  0  0  0  0
 16 17  1  0  0  0  0
 16 22  1  0  0  0  0
 18 11  1  0  0  0  0
 18 17  2  0  0  0  0
 19 18  1  0  0  0  0
 20 14  1  0  0  0  0
 21 15  1  0  0  0  0
 23  7  1  0  0  0  0
 25 24  2  1  0  0  0
 25 23  1  0  0  0  0
 26 27  1  0  0  0  0
 26 25  1  0  0  0  0
 28 25  1  0  0  0  0
 29 30  1  0  0  0  0
 29 28  1  0  0  0  0
 30 31  1  0  0  0  0
 32 33  1  0  0  0  0
 32 30  2  0  0  0  0
 34 32  1  0  0  0  0
 35 34  2  0  0  0  0
 35 36  1  0  0  0  0
 36 29  2  0  0  0  0
M  END
>  <minimizedAffinity>
-5.65484715

$$$$

 OpenBabel03252502573D

 36 38  0  0  0  0  0  0  0  0999 V2000
   39.1590   27.8950   39.5180 Br  0  0  0  0  0  0  0  0  0  0  0  0
   38.1050   27.6930   41.1270 C   0  0  0  0  0  0  0  0  0  0  0  0
   37.7220   26.4140   41.4210 C   0  0  0  0  0  0  0  0  0  0  0  0
   36.9590   26.2980   42.5930 C   0  0  0  0  0  0  0  0  0  0  0  0
   36.6200   27.3680   43.3840 C   0  0  0  0  0  0  0  0  0  0  0  0
   37.0480   28.6190   43.0120 C   0  0  0  0  0  0  0  0  0  0  0  0
   37.8030   28.8060   41.8700 C   0  0  0  0  0  0  0  0  0  0  0  0
   36.6160   25.3150   42.8970 H   0  0  0  0  0  0  0  0  0  0  0  0
   36.0240   27.1950   44.2820 H   0  0  0  0  0  0  0  0  0  0  0  0
   36.7630   29.4430   43.6570 H   0  0  0  0  0  0  0  0  0  0  0  0
   38.0170   25.1990   40.6660 C   0  0  0  0  0  0  0  0  0  0  0  0
   38.8330   25.4110   39.9420 H   0  0  0  0  0  0  0  0  0  0  0  0
   38.3460   24.3980   41.3850 H   0  0  0  0  0  0  0  0  0  0  0  0
   35.1370   23.1400   39.4710 C   0  0  0  0  0  0  0  0  0  0  0  0
   34.7510   23.8520   38.3230 C   0  0  0  0  0  0  0  0  0  0  0  0
   35.4650   24.9910   37.9890 C   0  0  0  0  0  0  0  0  0  0  0  0
   36.4960   25.3800   38.7650 N   0  0  0  0  0  0  0  0  0  0  0  0
   36.8650   24.6820   39.8820 C   0  0  0  0  0  0  0  0  0  0  0  0
   36.1630   23.5790   40.1930 N   0  0  0  0  0  0  0  0  0  0  0  0
   34.6210   22.2540   39.7760 H   0  0  0  0  0  0  0  0  0  0  0  0
   33.9160   23.4430   37.7890 H   0  0  0  0  0  0  0  0  0  0  0  0
   35.1480   25.5110   37.1100 H   0  0  0  0  0  0  0  0  0  0  0  0
   38.2330   30.0660   41.4970 O   0  0  0  0  0  0  0  0  0  0  0  0
   37.8870   32.5450   40.7610 O   0  0  0  0  0  0  0  0  0  0  0  0
   37.2690   31.1580   40.6340 P   0  0  2  0  0  0  0  0  0  0  0  0
   35.7230   31.1410   41.2870 O   0  0  0  0  0  0  0  0  0  0  0  0
   35.7780   30.8530   42.2330 H   0  0  0  0  0  0  0  0  0  0  0  0
   37.2230   30.7970   38.9860 O   0  0  0  0  0  0  0  0  0  0  0  0
   36.2440   30.0090   38.3990 C   0  0  0  0  0  0  0  0  0  0  0  0
   36.2880   29.7840   37.0380 C   0  0  0  0  0  0  0  0  0  0  0  0
   37.0470   30.1850   36.3760 H   0  0  0  0  0  0  0  0  0  0  0  0
   35.3330   29.0070   36.4210 C   0  0  0  0  0  0  0  0  0  0  0  0
   35.3230   28.8010   35.3610 H   0  0  0  0  0  0  0  0  0  0  0  0
   34.2980   28.4260   37.1370 C   0  0  0  0  0  3  0  0  0  0  0  0
   34.2920   28.6800   38.5130 C   0  0  0  0  0  3  0  0  0  0  0  0
   35.2350   29.4430   39.1070 N   0  0  0  0  0  0  0  0  0  0  0  0
  1  2  1  0  0  0  0
  2  3  2  0  0  0  0
  2  7  1  0  0  0  0
  3  4  1  0  0  0  0
  4  8  1  0  0  0  0
  4  5  2  0  0  0  0
  5  9  1  0  0  0  0
  6  5  1  0  0  0  0
  6 10  1  0  0  0  0
  7  6  2  0  0  0  0
 11 13  1  0  0  0  0
 11  3  1  0  0  0  0
 12 11  1  0  0  0  0
 14 20  1  0  0  0  0
 14 19  1  0  0  0  0
 15 14  2  0  0  0  0
 16 15  1  0  0  0  0
 16 17  2  0  0  0  0
 17 18  1  0  0  0  0
 18 19  2  0  0  0  0
 18 11  1  0  0  0  0
 21 15  1  0  0  0  0
 22 16  1  0  0  0  0
 23  7  1  0  0  0  0
 25 24  2  1  0  0  0
 25 26  1  0  0  0  0
 25 23  1  0  0  0  0
 26 27  1  0  0  0  0
 28 25  1  0  0  0  0
 29 28  1  0  0  0  0
 29 36  1  0  0  0  0
 30 29  2  0  0  0  0
 31 30  1  0  0  0  0
 32 30  1  0  0  0  0
 32 34  2  0  0  0  0
 33 32  1  0  0  0  0
 34 35  1  0  0  0  0
 35 36  2  0  0  0  0
M  END
>  <minimizedAffinity>
-5.58158398

$$$$

 OpenBabel03252502573D

 36 38  0  0  0  0  0  0  0  0999 V2000
   39.6990   29.8660   38.4200 Br  0  0  0  0  0  0  0  0  0  0  0  0
   39.0460   31.5820   39.0280 C   0  0  0  0  0  0  0  0  0  0  0  0
   39.9900   32.5640   39.1390 C   0  0  0  0  0  0  0  0  0  0  0  0
   39.4880   33.7970   39.5820 C   0  0  0  0  0  0  0  0  0  0  0  0
   38.1650   34.0120   39.8790 C   0  0  0  0  0  0  0  0  0  0  0  0
   37.2840   32.9680   39.7380 C   0  0  0  0  0  0  0  0  0  0  0  0
   37.7100   31.7260   39.3070 C   0  0  0  0  0  0  0  0  0  0  0  0
   40.1740   34.6300   39.6960 H   0  0  0  0  0  0  0  0  0  0  0  0
   37.8520   35.0010   40.2170 H   0  0  0  0  0  0  0  0  0  0  0  0
   36.2470   33.1690   39.9820 H   0  0  0  0  0  0  0  0  0  0  0  0
   41.4200   32.4630   38.8550 C   0  0  0  0  0  0  0  0  0  0  0  0
   41.6630   31.4110   38.5910 H   0  0  0  0  0  0  0  0  0  0  0  0
   41.6630   33.1380   37.9880 H   0  0  0  0  0  0  0  0  0  0  0  0
   43.9430   34.1550   41.0300 C   0  0  0  0  0  0  0  0  0  0  0  0
   43.8350   33.3990   42.2100 C   0  0  0  0  0  0  0  0  0  0  0  0
   42.9270   32.3550   42.2370 C   0  0  0  0  0  0  0  0  0  0  0  0
   42.1800   32.0950   41.1450 N   0  0  0  0  0  0  0  0  0  0  0  0
   42.2910   32.8350   40.0000 C   0  0  0  0  0  0  0  0  0  0  0  0
   43.1770   33.8460   39.9890 N   0  0  0  0  0  0  0  0  0  0  0  0
   44.6280   34.9730   40.9540 H   0  0  0  0  0  0  0  0  0  0  0  0
   44.4830   33.7040   43.0090 H   0  0  0  0  0  0  0  0  0  0  0  0
   42.8680   31.7980   43.1490 H   0  0  0  0  0  0  0  0  0  0  0  0
   36.8220   30.6750   39.1660 O   0  0  0  0  0  0  0  0  0  0  0  0
   35.0670   28.9160   39.9600 O   0  0  0  0  0  0  0  0  0  0  0  0
   36.1770   29.8230   40.4790 P   0  0  2  0  0  0  0  0  0  0  0  0
   35.5650   30.9260   41.5860 O   0  0  0  0  0  0  0  0  0  0  0  0
   35.3270   31.7600   41.1080 H   0  0  0  0  0  0  0  0  0  0  0  0
   37.3210   28.8200   41.2070 O   0  0  0  0  0  0  0  0  0  0  0  0
   37.2630   27.4340   41.1710 C   0  0  0  0  0  0  0  0  0  0  0  0
   36.9770   26.7430   42.3310 C   0  0  0  0  0  0  0  0  0  0  0  0
   36.7890   27.2100   43.2900 H   0  0  0  0  0  0  0  0  0  0  0  0
   36.9110   25.3670   42.3330 C   0  0  0  0  0  0  0  0  0  0  0  0
   36.6900   24.7800   43.2120 H   0  0  0  0  0  0  0  0  0  0  0  0
   37.1290   24.6290   41.1800 C   0  0  0  0  0  3  0  0  0  0  0  0
   37.4160   25.3700   40.0280 C   0  0  0  0  0  3  0  0  0  0  0  0
   37.4770   26.7190   40.0380 N   0  0  0  0  0  0  0  0  0  0  0  0
  1  2  1  0  0  0  0
  2  3  2  0  0  0  0
  2  7  1  0  0  0  0
  3  4  1  0  0  0  0
  4  8  1  0  0  0  0
  4  5  2  0  0  0  0
  5  9  1  0  0  0  0
  6  5  1  0  0  0  0
  6 10  1  0  0  0  0
  7  6  2  0  0  0  0
 11  3  1  0  0  0  0
 11 18  1  0  0  0  0
 12 11  1  0  0  0  0
 13 11  1  0  0  0  0
 14 15  1  0  0  0  0
 15 16  2  0  0  0  0
 15 21  1  0  0  0  0
 16 22  1  0  0  0  0
 17 16  1  0  0  0  0
 18 17  2  0  0  0  0
 19 18  1  0  0  0  0
 19 14  2  0  0  0  0
 20 14  1  0  0  0  0
 23  7  1  0  0  0  0
 23 25  1  0  0  0  0
 25 24  2  6  0  0  0
 25 28  1  0  0  0  0
 25 26  1  0  0  0  0
 27 26  1  0  0  0  0
 29 28  1  0  0  0  0
 29 30  1  0  0  0  0
 30 32  2  0  0  0  0
 30 31  1  0  0  0  0
 32 33  1  0  0  0  0
 34 32  1  0  0  0  0
 35 36  1  0  0  0  0
 35 34  2  0  0  0  0
 36 29  2  0  0  0  0
M  END
>  <minimizedAffinity>
-5.55226994

$$$$

 OpenBabel03252502573D

 36 38  0  0  0  0  0  0  0  0999 V2000
   39.9490   29.4050   41.3150 Br  0  0  0  0  0  0  0  0  0  0  0  0
   38.1200   29.2830   40.7000 C   0  0  0  0  0  0  0  0  0  0  0  0
   37.2360   28.7390   41.5910 C   0  0  0  0  0  0  0  0  0  0  0  0
   35.9170   28.6630   41.1180 C   0  0  0  0  0  0  0  0  0  0  0  0
   35.5340   29.0940   39.8730 C   0  0  0  0  0  0  0  0  0  0  0  0
   36.4890   29.6290   39.0420 C   0  0  0  0  0  0  0  0  0  0  0  0
   37.8070   29.7330   39.4430 C   0  0  0  0  0  0  0  0  0  0  0  0
   35.1540   28.2440   41.7650 H   0  0  0  0  0  0  0  0  0  0  0  0
   34.4870   29.0020   39.5780 H   0  0  0  0  0  0  0  0  0  0  0  0
   36.1550   29.9590   38.0650 H   0  0  0  0  0  0  0  0  0  0  0  0
   37.5170   28.2460   42.9370 C   0  0  0  0  0  0  0  0  0  0  0  0
   38.1540   28.9860   43.4680 H   0  0  0  0  0  0  0  0  0  0  0  0
   36.5420   28.1210   43.4860 H   0  0  0  0  0  0  0  0  0  0  0  0
   39.9870   25.5430   43.6800 C   0  0  0  0  0  0  0  0  0  0  0  0
   39.4690   24.4840   42.9140 C   0  0  0  0  0  0  0  0  0  0  0  0
   38.3170   24.7090   42.1800 C   0  0  0  0  0  0  0  0  0  0  0  0
   37.7320   25.9220   42.2190 N   0  0  0  0  0  0  0  0  0  0  0  0
   38.2410   26.9490   42.9660 C   0  0  0  0  0  0  0  0  0  0  0  0
   39.3600   26.7150   43.6740 N   0  0  0  0  0  0  0  0  0  0  0  0
   40.8730   25.4240   44.2660 H   0  0  0  0  0  0  0  0  0  0  0  0
   40.0250   23.5670   42.9660 H   0  0  0  0  0  0  0  0  0  0  0  0
   37.9480   23.8840   41.6080 H   0  0  0  0  0  0  0  0  0  0  0  0
   38.7680   30.2710   38.6060 O   0  0  0  0  0  0  0  0  0  0  0  0
   39.5810   32.5030   39.6840 O   0  0  0  0  0  0  0  0  0  0  0  0
   38.9920   31.9360   38.3980 P   0  0  2  0  0  0  0  0  0  0  0  0
   37.5030   32.6410   38.0720 O   0  0  0  0  0  0  0  0  0  0  0  0
   36.7900   32.0740   38.4590 H   0  0  0  0  0  0  0  0  0  0  0  0
   40.0940   32.2780   37.1680 O   0  0  0  0  0  0  0  0  0  0  0  0
   41.4640   32.3750   37.3680 C   0  0  0  0  0  0  0  0  0  0  0  0
   42.0490   33.6240   37.4280 C   0  0  0  0  0  0  0  0  0  0  0  0
   41.5080   34.5570   37.3280 H   0  0  0  0  0  0  0  0  0  0  0  0
   43.4050   33.7580   37.6250 C   0  0  0  0  0  0  0  0  0  0  0  0
   43.9110   34.7110   37.6790 H   0  0  0  0  0  0  0  0  0  0  0  0
   44.2300   32.6530   37.7690 C   0  0  0  0  0  3  0  0  0  0  0  0
   43.5950   31.4070   37.7020 C   0  0  0  0  0  3  0  0  0  0  0  0
   42.2630   31.2880   37.5090 N   0  0  0  0  0  0  0  0  0  0  0  0
  2  1  1  0  0  0  0
  2  3  1  0  0  0  0
  3 11  1  0  0  0  0
  4  3  2  0  0  0  0
  4  8  1  0  0  0  0
  5  4  1  0  0  0  0
  6  7  1  0  0  0  0
  6  5  2  0  0  0  0
  7  2  2  0  0  0  0
  9  5  1  0  0  0  0
 10  6  1  0  0  0  0
 11 18  1  0  0  0  0
 11 12  1  0  0  0  0
 11 13  1  0  0  0  0
 14 20  1  0  0  0  0
 15 21  1  0  0  0  0
 15 14  2  0  0  0  0
 16 17  2  0  0  0  0
 16 15  1  0  0  0  0
 17 18  1  0  0  0  0
 18 19  2  0  0  0  0
 19 14  1  0  0  0  0
 22 16  1  0  0  0  0
 23  7  1  0  0  0  0
 25 23  1  0  0  0  0
 25 24  2  1  0  0  0
 26 25  1  0  0  0  0
 26 27  1  0  0  0  0
 28 29  1  0  0  0  0
 28 25  1  0  0  0  0
 29 30  2  0  0  0  0
 29 36  1  0  0  0  0
 30 32  1  0  0  0  0
 31 30  1  0  0  0  0
 32 33  1  0  0  0  0
 32 34  2  0  0  0  0
 35 34  1  0  0  0  0
 36 35  2  0  0  0  0
M  END
>  <minimizedAffinity>
-5.40470457

$$$$

 OpenBabel03252502573D

 36 38  0  0  0  0  0  0  0  0999 V2000
   40.0530   29.9590   42.0250 Br  0  0  0  0  0  0  0  0  0  0  0  0
   38.2520   29.6900   41.3760 C   0  0  0  0  0  0  0  0  0  0  0  0
   37.4680   28.8700   42.1400 C   0  0  0  0  0  0  0  0  0  0  0  0
   36.1670   28.6940   41.6450 C   0  0  0  0  0  0  0  0  0  0  0  0
   35.7080   29.2880   40.4970 C   0  0  0  0  0  0  0  0  0  0  0  0
   36.5640   30.0990   39.7900 C   0  0  0  0  0  0  0  0  0  0  0  0
   37.8590   30.3160   40.2200 C   0  0  0  0  0  0  0  0  0  0  0  0
   35.4820   28.0570   42.1950 H   0  0  0  0  0  0  0  0  0  0  0  0
   34.6810   29.1020   40.1780 H   0  0  0  0  0  0  0  0  0  0  0  0
   36.1720   30.5530   38.8870 H   0  0  0  0  0  0  0  0  0  0  0  0
   37.8360   28.1820   43.3760 C   0  0  0  0  0  0  0  0  0  0  0  0
   38.5920   28.7910   43.9170 H   0  0  0  0  0  0  0  0  0  0  0  0
   36.9150   28.0660   44.0110 H   0  0  0  0  0  0  0  0  0  0  0  0
   38.3960   24.6400   42.3270 C   0  0  0  0  0  0  0  0  0  0  0  0
   39.6760   24.3990   42.8550 C   0  0  0  0  0  0  0  0  0  0  0  0
   40.3050   25.4250   43.5390 C   0  0  0  0  0  0  0  0  0  0  0  0
   39.6800   26.6110   43.6790 N   0  0  0  0  0  0  0  0  0  0  0  0
   38.4330   26.8380   43.1630 C   0  0  0  0  0  0  0  0  0  0  0  0
   37.8360   25.8330   42.5010 N   0  0  0  0  0  0  0  0  0  0  0  0
   37.8640   23.8840   41.7890 H   0  0  0  0  0  0  0  0  0  0  0  0
   40.0670   23.4160   42.6770 H   0  0  0  0  0  0  0  0  0  0  0  0
   41.2780   25.2120   43.9280 H   0  0  0  0  0  0  0  0  0  0  0  0
   38.7200   31.1310   39.5080 O   0  0  0  0  0  0  0  0  0  0  0  0
   38.4720   33.2220   41.0480 O   0  0  0  0  0  0  0  0  0  0  0  0
   38.6800   32.8220   39.5930 P   0  0  2  0  0  0  0  0  0  0  0  0
   37.4130   33.3770   38.6430 O   0  0  0  0  0  0  0  0  0  0  0  0
   36.7290   32.6630   38.5740 H   0  0  0  0  0  0  0  0  0  0  0  0
   40.1390   33.5140   39.1030 O   0  0  0  0  0  0  0  0  0  0  0  0
   41.3430   33.3180   39.7640 C   0  0  0  0  0  0  0  0  0  0  0  0
   42.1190   32.2240   39.4380 C   0  0  0  0  0  0  0  0  0  0  0  0
   41.8550   31.4900   38.6870 H   0  0  0  0  0  0  0  0  0  0  0  0
   43.3200   31.9980   40.0740 C   0  0  0  0  0  0  0  0  0  0  0  0
   43.9640   31.1590   39.8550 H   0  0  0  0  0  0  0  0  0  0  0  0
   43.7920   32.8520   41.0590 C   0  0  0  0  0  3  0  0  0  0  0  0
   42.9730   33.9480   41.3570 C   0  0  0  0  0  3  0  0  0  0  0  0
   41.7970   34.1600   40.7270 N   0  0  0  0  0  0  0  0  0  0  0  0
  2  1  1  0  0  0  0
  2  3  1  0  0  0  0
  3 11  1  0  0  0  0
  4  3  2  0  0  0  0
  4  8  1  0  0  0  0
  5  4  1  0  0  0  0
  6  7  1  0  0  0  0
  6  5  2  0  0  0  0
  7  2  2  0  0  0  0
  9  5  1  0  0  0  0
 10  6  1  0  0  0  0
 11 12  1  0  0  0  0
 11 13  1  0  0  0  0
 14 19  2  0  0  0  0
 14 15  1  0  0  0  0
 15 16  2  0  0  0  0
 16 17  1  0  0  0  0
 16 22  1  0  0  0  0
 18 11  1  0  0  0  0
 18 17  2  0  0  0  0
 19 18  1  0  0  0  0
 20 14  1  0  0  0  0
 21 15  1  0  0  0  0
 23 25  1  0  0  0  0
 23  7  1  0  0  0  0
 25 24  2  1  0  0  0
 26 25  1  0  0  0  0
 27 26  1  0  0  0  0
 28 25  1  0  0  0  0
 28 29  1  0  0  0  0
 29 36  1  0  0  0  0
 30 29  2  0  0  0  0
 30 32  1  0  0  0  0
 31 30  1  0  0  0  0
 32 34  2  0  0  0  0
 33 32  1  0  0  0  0
 34 35  1  0  0  0  0
 36 35  2  0  0  0  0
M  END
>  <minimizedAffinity>
-5.38696957

$$$$

 OpenBabel03252502573D

 36 38  0  0  0  0  0  0  0  0999 V2000
   40.6620   25.9980   41.5690 Br  0  0  0  0  0  0  0  0  0  0  0  0
   39.0930   26.7440   42.4180 C   0  0  0  0  0  0  0  0  0  0  0  0
   37.9800   25.9510   42.3940 C   0  0  0  0  0  0  0  0  0  0  0  0
   36.8570   26.5180   43.0170 C   0  0  0  0  0  0  0  0  0  0  0  0
   36.8640   27.7580   43.6040 C   0  0  0  0  0  0  0  0  0  0  0  0
   38.0280   28.4880   43.5820 C   0  0  0  0  0  0  0  0  0  0  0  0
   39.1710   27.9910   42.9850 C   0  0  0  0  0  0  0  0  0  0  0  0
   35.9320   25.9510   43.0420 H   0  0  0  0  0  0  0  0  0  0  0  0
   35.9490   28.1300   44.0690 H   0  0  0  0  0  0  0  0  0  0  0  0
   38.0010   29.4640   44.0520 H   0  0  0  0  0  0  0  0  0  0  0  0
   37.8450   24.6200   41.8060 C   0  0  0  0  0  0  0  0  0  0  0  0
   38.8580   24.2130   41.5970 H   0  0  0  0  0  0  0  0  0  0  0  0
   37.3120   23.9550   42.5400 H   0  0  0  0  0  0  0  0  0  0  0  0
   36.6770   25.3480   38.3320 C   0  0  0  0  0  0  0  0  0  0  0  0
   35.6090   24.4430   38.2090 C   0  0  0  0  0  0  0  0  0  0  0  0
   35.3180   23.6250   39.2870 C   0  0  0  0  0  0  0  0  0  0  0  0
   36.0570   23.7170   40.4100 N   0  0  0  0  0  0  0  0  0  0  0  0
   37.0960   24.6010   40.5230 C   0  0  0  0  0  0  0  0  0  0  0  0
   37.3670   25.3880   39.4680 N   0  0  0  0  0  0  0  0  0  0  0  0
   36.9470   26.0030   37.5310 H   0  0  0  0  0  0  0  0  0  0  0  0
   35.0980   24.4640   37.2670 H   0  0  0  0  0  0  0  0  0  0  0  0
   34.5000   22.9470   39.1630 H   0  0  0  0  0  0  0  0  0  0  0  0
   40.3420   28.7260   42.9630 O   0  0  0  0  0  0  0  0  0  0  0  0
   42.0210   30.2660   41.6930 O   0  0  0  0  0  0  0  0  0  0  0  0
   40.5430   30.1260   42.0330 P   0  0  2  0  0  0  0  0  0  0  0  0
   40.0170   31.4450   42.9280 O   0  0  0  0  0  0  0  0  0  0  0  0
   40.0930   31.2280   43.8920 H   0  0  0  0  0  0  0  0  0  0  0  0
   39.7150   30.0350   40.5650 O   0  0  0  0  0  0  0  0  0  0  0  0
   38.3320   29.9830   40.4650 C   0  0  0  0  0  0  0  0  0  0  0  0
   37.7470   28.9510   39.7610 C   0  0  0  0  0  0  0  0  0  0  0  0
   38.2960   28.1580   39.2690 H   0  0  0  0  0  0  0  0  0  0  0  0
   36.3770   28.8680   39.6400 C   0  0  0  0  0  0  0  0  0  0  0  0
   35.8700   28.0810   39.1010 H   0  0  0  0  0  0  0  0  0  0  0  0
   35.5400   29.8120   40.2150 C   0  0  0  0  0  3  0  0  0  0  0  0
   36.1760   30.8410   40.9190 C   0  0  0  0  0  3  0  0  0  0  0  0
   37.5200   30.9110   41.0310 N   0  0  0  0  0  0  0  0  0  0  0  0
  1  2  1  0  0  0  0
  2  7  1  0  0  0  0
  3  2  2  0  0  0  0
  3  4  1  0  0  0  0
  4  8  1  0  0  0  0
  4  5  2  0  0  0  0
  5  9  1  0  0  0  0
  6  5  1  0  0  0  0
  6 10  1  0  0  0  0
  7  6  2  0  0  0  0
 11  3  1  0  0  0  0
 11 13  1  0  0  0  0
 12 11  1  0  0  0  0
 14 19  1  0  0  0  0
 15 14  2  0  0  0  0
 15 16  1  0  0  0  0
 16 17  2  0  0  0  0
 17 18  1  0  0  0  0
 18 11  1  0  0  0  0
 19 18  2  0  0  0  0
 20 14  1  0  0  0  0
 21 15  1  0  0  0  0
 22 16  1  0  0  0  0
 23  7  1  0  0  0  0
 25 24  2  6  0  0  0
 25 26  1  0  0  0  0
 25 23  1  0  0  0  0
 26 27  1  0  0  0  0
 28 25  1  0  0  0  0
 29 28  1  0  0  0  0
 29 36  1  0  0  0  0
 30 29  2  0  0  0  0
 31 30  1  0  0  0  0
 32 30  1  0  0  0  0
 32 34  2  0  0  0  0
 33 32  1  0  0  0  0
 34 35  1  0  0  0  0
 35 36  2  0  0  0  0
M  END
>  <minimizedAffinity>
-5.26009655

$$$$

 OpenBabel03252502573D

 36 38  0  0  0  0  0  0  0  0999 V2000
   37.0140   27.8500   42.9380 Br  0  0  0  0  0  0  0  0  0  0  0  0
   38.8710   28.3830   42.8550 C   0  0  0  0  0  0  0  0  0  0  0  0
   39.7770   27.4010   43.1430 C   0  0  0  0  0  0  0  0  0  0  0  0
   41.1160   27.8160   43.0740 C   0  0  0  0  0  0  0  0  0  0  0  0
   41.4950   29.0940   42.7460 C   0  0  0  0  0  0  0  0  0  0  0  0
   40.5170   30.0180   42.4720 C   0  0  0  0  0  0  0  0  0  0  0  0
   39.1780   29.6780   42.5200 C   0  0  0  0  0  0  0  0  0  0  0  0
   41.8980   27.0950   43.2880 H   0  0  0  0  0  0  0  0  0  0  0  0
   42.5580   29.3390   42.7140 H   0  0  0  0  0  0  0  0  0  0  0  0
   40.8480   31.0190   42.2170 H   0  0  0  0  0  0  0  0  0  0  0  0
   39.5030   26.0110   43.5020 C   0  0  0  0  0  0  0  0  0  0  0  0
   40.4120   25.5720   43.9670 H   0  0  0  0  0  0  0  0  0  0  0  0
   38.6520   25.9910   44.2380 H   0  0  0  0  0  0  0  0  0  0  0  0
   37.7800   23.5780   41.2500 C   0  0  0  0  0  0  0  0  0  0  0  0
   38.6220   23.6070   40.1250 C   0  0  0  0  0  0  0  0  0  0  0  0
   39.7300   24.4350   40.1580 C   0  0  0  0  0  0  0  0  0  0  0  0
   39.9700   25.1810   41.2550 N   0  0  0  0  0  0  0  0  0  0  0  0
   39.1460   25.1480   42.3470 C   0  0  0  0  0  0  0  0  0  0  0  0
   38.0730   24.3400   42.2990 N   0  0  0  0  0  0  0  0  0  0  0  0
   36.9100   22.9580   41.2780 H   0  0  0  0  0  0  0  0  0  0  0  0
   38.3250   22.9690   39.3150 H   0  0  0  0  0  0  0  0  0  0  0  0
   40.3520   24.4340   39.2870 H   0  0  0  0  0  0  0  0  0  0  0  0
   38.1940   30.6090   42.2440 O   0  0  0  0  0  0  0  0  0  0  0  0
   39.1830   32.6670   40.9820 O   0  0  0  0  0  0  0  0  0  0  0  0
   38.1680   31.5400   40.8300 P   0  0  2  0  0  0  0  0  0  0  0  0
   36.6230   32.1640   40.6280 O   0  0  0  0  0  0  0  0  0  0  0  0
   36.1830   32.2240   41.5130 H   0  0  0  0  0  0  0  0  0  0  0  0
   38.6320   30.6480   39.4760 O   0  0  0  0  0  0  0  0  0  0  0  0
   39.7830   30.9060   38.7430 C   0  0  0  0  0  0  0  0  0  0  0  0
   40.8660   30.0610   38.8730 C   0  0  0  0  0  0  0  0  0  0  0  0
   40.8890   29.1910   39.5170 H   0  0  0  0  0  0  0  0  0  0  0  0
   42.0240   30.2870   38.1610 C   0  0  0  0  0  0  0  0  0  0  0  0
   42.8980   29.6560   38.2260 H   0  0  0  0  0  0  0  0  0  0  0  0
   42.1450   31.3620   37.2960 C   0  0  0  0  0  3  0  0  0  0  0  0
   41.0230   32.1930   37.1950 C   0  0  0  0  0  3  0  0  0  0  0  0
   39.8930   31.9620   37.8980 N   0  0  0  0  0  0  0  0  0  0  0  0
  2  1  1  0  0  0  0
  2  3  1  0  0  0  0
  3 11  1  0  0  0  0
  4  3  2  0  0  0  0
  4  8  1  0  0  0  0
  5  4  1  0  0  0  0
  6  7  1  0  0  0  0
  6  5  2  0  0  0  0
  7  2  2  0  0  0  0
  9  5  1  0  0  0  0
 10  6  1  0  0  0  0
 11 12  1  0  0  0  0
 11 13  1  0  0  0  0
 14 20  1  0  0  0  0
 14 19  1  0  0  0  0
 15 16  1  0  0  0  0
 15 14  2  0  0  0  0
 16 17  2  0  0  0  0
 17 18  1  0  0  0  0
 18 11  1  0  0  0  0
 19 18  2  0  0  0  0
 21 15  1  0  0  0  0
 22 16  1  0  0  0  0
 23  7  1  0  0  0  0
 25 24  2  1  0  0  0
 25 23  1  0  0  0  0
 26 25  1  0  0  0  0
 26 27  1  0  0  0  0
 28 25  1  0  0  0  0
 29 30  1  0  0  0  0
 29 28  1  0  0  0  0
 30 31  1  0  0  0  0
 32 33  1  0  0  0  0
 32 30  2  0  0  0  0
 34 32  1  0  0  0  0
 35 34  2  0  0  0  0
 35 36  1  0  0  0  0
 36 29  2  0  0  0  0
M  END
>  <minimizedAffinity>
-5.20554638

$$$$
