
 OpenBabel03242512023D

 46 49  0  0  1  0  0  0  0  0999 V2000
   36.9310   25.9650   41.4510 C   0  0  2  0  0  0  0  0  0  0  0  0
   37.1820   24.6770   42.1760 C   0  0  0  0  0  0  0  0  0  0  0  0
   37.6910   23.6120   41.2860 C   0  0  0  0  0  0  0  0  0  0  0  0
   36.7730   23.3600   40.1150 C   0  0  0  0  0  0  0  0  0  0  0  0
   36.2380   24.6150   39.4860 C   0  0  0  0  0  0  0  0  0  0  0  0
   36.9240   25.8680   39.9700 C   0  0  1  0  0  0  0  0  0  0  0  0
   35.8990   26.2870   41.7880 H   0  0  0  0  0  0  0  0  0  0  0  0
   36.3070   24.3090   42.7460 H   0  0  0  0  0  0  0  0  0  0  0  0
   37.9620   24.8830   42.9470 H   0  0  0  0  0  0  0  0  0  0  0  0
   38.6790   23.9240   40.8450 H   0  0  0  0  0  0  0  0  0  0  0  0
   37.7780   22.6640   41.8550 H   0  0  0  0  0  0  0  0  0  0  0  0
   35.8920   22.8010   40.5250 H   0  0  0  0  0  0  0  0  0  0  0  0
   37.2680   22.6700   39.4040 H   0  0  0  0  0  0  0  0  0  0  0  0
   35.1430   24.7480   39.5850 H   0  0  0  0  0  0  0  0  0  0  0  0
   36.4590   24.5150   38.3880 H   0  0  0  0  0  0  0  0  0  0  0  0
   37.9000   25.8860   39.4650 H   0  0  0  0  0  0  0  0  0  0  0  0
   37.8280   27.0510   41.8910 C   0  0  0  0  0  0  0  0  0  0  0  0
   37.2170   27.9450   42.7540 C   0  0  0  0  0  0  0  0  0  0  0  0
   37.9480   29.0330   43.2620 C   0  0  0  0  0  0  0  0  0  0  0  0
   39.2780   29.1190   42.8340 N   0  0  0  0  0  0  0  0  0  0  0  0
   39.8250   28.2200   41.9900 C   0  0  0  0  0  0  0  0  0  0  0  0
   39.0860   27.1930   41.5290 N   0  0  0  0  0  0  0  0  0  0  0  0
   36.2350   28.0630   43.1870 H   0  0  0  0  0  0  0  0  0  0  0  0
   37.6700   29.8140   43.9220 H   0  0  0  0  0  0  0  0  0  0  0  0
   40.8560   28.3520   41.7040 H   0  0  0  0  0  0  0  0  0  0  0  0
   36.1620   27.0490   39.4310 C   0  0  2  0  0  0  0  0  0  0  0  0
   36.2200   27.2900   37.9310 C   0  0  0  0  0  0  0  0  0  0  0  0
   36.8890   28.2140   38.8600 C   0  0  1  0  0  0  0  0  0  0  0  0
   35.1310   27.1610   39.8350 H   0  0  0  0  0  0  0  0  0  0  0  0
   36.9100   26.6540   37.3220 H   0  0  0  0  0  0  0  0  0  0  0  0
   35.3350   27.6390   37.3930 H   0  0  0  0  0  0  0  0  0  0  0  0
   38.0020   28.1520   38.9880 H   0  0  0  0  0  0  0  0  0  0  0  0
   36.3320   29.5300   39.2890 C   0  0  0  0  0  0  0  0  0  0  0  0
   36.5460   29.7640   40.3520 H   0  0  0  0  0  0  0  0  0  0  0  0
   35.2200   29.4820   39.1990 H   0  0  0  0  0  0  0  0  0  0  0  0
   36.8030   30.6880   38.4430 C   0  0  0  0  0  0  0  0  0  0  0  0
   37.5170   30.3040   37.6920 H   0  0  0  0  0  0  0  0  0  0  0  0
   35.9300   31.1380   37.9260 H   0  0  0  0  0  0  0  0  0  0  0  0
   37.5060   31.7120   39.2580 C   0  0  0  0  0  0  0  0  0  0  0  0
   37.2390   33.0640   39.2220 C   0  0  0  0  0  0  0  0  0  0  0  0
   36.4560   33.4090   38.5470 H   0  0  0  0  0  0  0  0  0  0  0  0
   37.9190   33.9720   39.9990 C   0  0  0  0  0  0  0  0  0  0  0  0
   37.7410   35.0200   39.9970 H   0  0  0  0  0  0  0  0  0  0  0  0
   38.8980   33.4940   40.8350 C   0  0  0  0  0  3  0  0  0  0  0  0
   39.1720   32.1520   40.8810 C   0  0  0  0  0  3  0  0  0  0  0  0
   38.4820   31.2990   40.1030 N   0  0  0  0  0  0  0  0  0  0  0  0
  1  7  1  1  0  0  0
  1 17  1  0  0  0  0
  1  2  1  0  0  0  0
  2  8  1  0  0  0  0
  2  9  1  0  0  0  0
  3 11  1  0  0  0  0
  3  2  1  0  0  0  0
  4 12  1  0  0  0  0
  4  3  1  0  0  0  0
  5 14  1  0  0  0  0
  5  6  1  0  0  0  0
  5  4  1  0  0  0  0
  6 16  1  6  0  0  0
  6  1  1  0  0  0  0
 10  3  1  0  0  0  0
 13  4  1  0  0  0  0
 15  5  1  0  0  0  0
 17 18  1  0  0  0  0
 18 23  1  0  0  0  0
 18 19  2  0  0  0  0
 19 24  1  0  0  0  0
 20 19  1  0  0  0  0
 21 20  2  0  0  0  0
 22 17  2  0  0  0  0
 22 21  1  0  0  0  0
 25 21  1  0  0  0  0
 26 29  1  1  0  0  0
 26  6  1  0  0  0  0
 27 28  1  0  0  0  0
 27 26  1  0  0  0  0
 28 32  1  1  0  0  0
 28 33  1  0  0  0  0
 28 26  1  0  0  0  0
 30 27  1  0  0  0  0
 31 27  1  0  0  0  0
 33 34  1  0  0  0  0
 35 33  1  0  0  0  0
 36 39  1  0  0  0  0
 36 33  1  0  0  0  0
 37 36  1  0  0  0  0
 38 36  1  0  0  0  0
 39 46  1  0  0  0  0
 40 39  2  0  0  0  0
 40 42  1  0  0  0  0
 41 40  1  0  0  0  0
 42 44  2  0  0  0  0
 43 42  1  0  0  0  0
 44 45  1  0  0  0  0
 46 45  2  0  0  0  0
M  END
>  <minimizedAffinity>
-5.64148808

$$$$

 OpenBabel03242512023D

 46 49  0  0  1  0  0  0  0  0999 V2000
   39.3170   26.2260   41.3660 C   0  0  2  0  0  0  0  0  0  0  0  0
   40.5240   25.3370   41.3520 C   0  0  0  0  0  0  0  0  0  0  0  0
   40.8840   24.8460   42.6990 C   0  0  0  0  0  0  0  0  0  0  0  0
   41.0990   25.9730   43.6790 C   0  0  0  0  0  0  0  0  0  0  0  0
   40.0770   27.0680   43.5740 C   0  0  0  0  0  0  0  0  0  0  0  0
   38.8970   26.7070   42.7060 C   0  0  1  0  0  0  0  0  0  0  0  0
   39.6160   27.1250   40.7470 H   0  0  0  0  0  0  0  0  0  0  0  0
   41.4070   25.7940   40.8660 H   0  0  0  0  0  0  0  0  0  0  0  0
   40.2710   24.4530   40.7200 H   0  0  0  0  0  0  0  0  0  0  0  0
   40.0400   24.2270   43.1170 H   0  0  0  0  0  0  0  0  0  0  0  0
   41.8270   24.2660   42.6420 H   0  0  0  0  0  0  0  0  0  0  0  0
   42.0900   26.4270   43.4180 H   0  0  0  0  0  0  0  0  0  0  0  0
   41.2150   25.5550   44.6980 H   0  0  0  0  0  0  0  0  0  0  0  0
   40.4800   28.0430   43.2380 H   0  0  0  0  0  0  0  0  0  0  0  0
   39.6910   27.2160   44.6200 H   0  0  0  0  0  0  0  0  0  0  0  0
   38.2830   26.0250   43.3100 H   0  0  0  0  0  0  0  0  0  0  0  0
   38.1680   25.6390   40.6480 C   0  0  0  0  0  0  0  0  0  0  0  0
   37.5910   24.5760   41.3210 C   0  0  0  0  0  0  0  0  0  0  0  0
   36.4820   23.9160   40.7630 C   0  0  0  0  0  0  0  0  0  0  0  0
   36.0440   24.4120   39.5290 N   0  0  0  0  0  0  0  0  0  0  0  0
   36.6440   25.4520   38.9140 C   0  0  0  0  0  0  0  0  0  0  0  0
   37.7030   26.0540   39.4880 N   0  0  0  0  0  0  0  0  0  0  0  0
   37.7730   24.0480   42.2460 H   0  0  0  0  0  0  0  0  0  0  0  0
   35.9080   23.0980   41.1130 H   0  0  0  0  0  0  0  0  0  0  0  0
   36.2510   25.7770   37.9650 H   0  0  0  0  0  0  0  0  0  0  0  0
   38.0660   27.9470   42.5160 C   0  0  2  0  0  0  0  0  0  0  0  0
   37.1930   28.3860   43.6800 C   0  0  0  0  0  0  0  0  0  0  0  0
   36.5840   27.8550   42.4510 C   0  0  1  0  0  0  0  0  0  0  0  0
   38.6070   28.8020   42.0500 H   0  0  0  0  0  0  0  0  0  0  0  0
   37.1230   27.7120   44.5690 H   0  0  0  0  0  0  0  0  0  0  0  0
   37.0690   29.4480   43.9080 H   0  0  0  0  0  0  0  0  0  0  0  0
   36.2030   26.7990   42.4400 H   0  0  0  0  0  0  0  0  0  0  0  0
   35.9830   28.6960   41.3740 C   0  0  0  0  0  0  0  0  0  0  0  0
   34.8770   28.6310   41.3430 H   0  0  0  0  0  0  0  0  0  0  0  0
   36.3460   28.3110   40.3910 H   0  0  0  0  0  0  0  0  0  0  0  0
   36.3730   30.1520   41.4590 C   0  0  0  0  0  0  0  0  0  0  0  0
   35.4980   30.7280   41.8110 H   0  0  0  0  0  0  0  0  0  0  0  0
   37.2050   30.2620   42.1860 H   0  0  0  0  0  0  0  0  0  0  0  0
   36.7700   30.6910   40.1330 C   0  0  0  0  0  0  0  0  0  0  0  0
   36.8650   29.9440   38.9780 C   0  0  0  0  0  0  0  0  0  0  0  0
   36.6330   28.8810   39.0400 H   0  0  0  0  0  0  0  0  0  0  0  0
   37.2370   30.4930   37.7730 C   0  0  0  0  0  0  0  0  0  0  0  0
   37.3210   29.9490   36.8640 H   0  0  0  0  0  0  0  0  0  0  0  0
   37.5210   31.8350   37.7400 C   0  0  0  0  0  3  0  0  0  0  0  0
   37.4290   32.5890   38.8810 C   0  0  0  0  0  3  0  0  0  0  0  0
   37.0620   32.0110   40.0390 N   0  0  0  0  0  0  0  0  0  0  0  0
  1  7  1  6  0  0  0
  1  6  1  0  0  0  0
  2  1  1  0  0  0  0
  2  3  1  0  0  0  0
  3 10  1  0  0  0  0
  3  4  1  0  0  0  0
  4 13  1  0  0  0  0
  5  4  1  0  0  0  0
  5 15  1  0  0  0  0
  6 16  1  1  0  0  0
  6  5  1  0  0  0  0
  8  2  1  0  0  0  0
  9  2  1  0  0  0  0
 11  3  1  0  0  0  0
 12  4  1  0  0  0  0
 14  5  1  0  0  0  0
 17 18  1  0  0  0  0
 17  1  1  0  0  0  0
 18 23  1  0  0  0  0
 19 24  1  0  0  0  0
 19 18  2  0  0  0  0
 20 19  1  0  0  0  0
 21 22  1  0  0  0  0
 21 20  2  0  0  0  0
 22 17  2  0  0  0  0
 25 21  1  0  0  0  0
 26 29  1  6  0  0  0
 26  6  1  0  0  0  0
 26 27  1  0  0  0  0
 27 31  1  0  0  0  0
 27 30  1  0  0  0  0
 28 32  1  1  0  0  0
 28 26  1  0  0  0  0
 28 27  1  0  0  0  0
 33 36  1  0  0  0  0
 33 28  1  0  0  0  0
 34 33  1  0  0  0  0
 35 33  1  0  0  0  0
 36 37  1  0  0  0  0
 36 38  1  0  0  0  0
 39 36  1  0  0  0  0
 40 41  1  0  0  0  0
 40 39  2  0  0  0  0
 42 40  1  0  0  0  0
 43 42  1  0  0  0  0
 44 42  2  0  0  0  0
 44 45  1  0  0  0  0
 45 46  2  0  0  0  0
 46 39  1  0  0  0  0
M  END
>  <minimizedAffinity>
-5.61049175

$$$$

 OpenBabel03242512023D

 46 49  0  0  1  0  0  0  0  0999 V2000
   37.9700   26.0680   39.9080 C   0  0  2  0  0  0  0  0  0  0  0  0
   38.2240   24.8070   39.1370 C   0  0  0  0  0  0  0  0  0  0  0  0
   37.3690   23.6870   39.5820 C   0  0  0  0  0  0  0  0  0  0  0  0
   37.5120   23.4120   41.0590 C   0  0  0  0  0  0  0  0  0  0  0  0
   37.5500   24.6530   41.9040 C   0  0  0  0  0  0  0  0  0  0  0  0
   37.1730   25.9030   41.1490 C   0  0  1  0  0  0  0  0  0  0  0  0
   38.9990   26.4400   40.1970 H   0  0  0  0  0  0  0  0  0  0  0  0
   39.2860   24.4960   39.1310 H   0  0  0  0  0  0  0  0  0  0  0  0
   37.9800   25.0230   38.0700 H   0  0  0  0  0  0  0  0  0  0  0  0
   36.2850   23.9450   39.4170 H   0  0  0  0  0  0  0  0  0  0  0  0
   37.6560   22.7640   39.0380 H   0  0  0  0  0  0  0  0  0  0  0  0
   38.5020   22.9020   41.1850 H   0  0  0  0  0  0  0  0  0  0  0  0
   36.7470   22.6730   41.3690 H   0  0  0  0  0  0  0  0  0  0  0  0
   38.5120   24.8260   42.4220 H   0  0  0  0  0  0  0  0  0  0  0  0
   36.7720   24.4940   42.7000 H   0  0  0  0  0  0  0  0  0  0  0  0
   36.0800   25.8660   41.0390 H   0  0  0  0  0  0  0  0  0  0  0  0
   37.4020   27.1440   39.0710 C   0  0  0  0  0  0  0  0  0  0  0  0
   36.0670   26.9460   38.7640 C   0  0  0  0  0  0  0  0  0  0  0  0
   35.3860   27.8910   37.9760 C   0  0  0  0  0  0  0  0  0  0  0  0
   36.1470   28.9880   37.5580 N   0  0  0  0  0  0  0  0  0  0  0  0
   37.4480   29.1320   37.8850 C   0  0  0  0  0  0  0  0  0  0  0  0
   38.0580   28.2020   38.6430 N   0  0  0  0  0  0  0  0  0  0  0  0
   35.3230   26.1910   38.9710 H   0  0  0  0  0  0  0  0  0  0  0  0
   34.3820   27.9230   37.6360 H   0  0  0  0  0  0  0  0  0  0  0  0
   37.9690   30.0040   37.5250 H   0  0  0  0  0  0  0  0  0  0  0  0
   37.4540   27.0830   42.0410 C   0  0  2  0  0  0  0  0  0  0  0  0
   36.5790   27.2490   43.2730 C   0  0  0  0  0  0  0  0  0  0  0  0
   36.4710   28.1930   42.1500 C   0  0  1  0  0  0  0  0  0  0  0  0
   38.5320   27.2500   42.2660 H   0  0  0  0  0  0  0  0  0  0  0  0
   35.7060   26.5610   43.3950 H   0  0  0  0  0  0  0  0  0  0  0  0
   37.0100   27.6020   44.2130 H   0  0  0  0  0  0  0  0  0  0  0  0
   35.6100   28.0980   41.4360 H   0  0  0  0  0  0  0  0  0  0  0  0
   37.0970   29.5460   42.1220 C   0  0  0  0  0  0  0  0  0  0  0  0
   38.1930   29.5120   41.9580 H   0  0  0  0  0  0  0  0  0  0  0  0
   36.9460   30.0190   43.1210 H   0  0  0  0  0  0  0  0  0  0  0  0
   36.4910   30.4690   41.0910 C   0  0  0  0  0  0  0  0  0  0  0  0
   36.2880   29.8840   40.1750 H   0  0  0  0  0  0  0  0  0  0  0  0
   35.5380   30.8780   41.4870 H   0  0  0  0  0  0  0  0  0  0  0  0
   37.4180   31.5720   40.7310 C   0  0  0  0  0  0  0  0  0  0  0  0
   37.0820   32.6580   39.9510 C   0  0  0  0  0  0  0  0  0  0  0  0
   36.0620   32.7130   39.5690 H   0  0  0  0  0  0  0  0  0  0  0  0
   37.9790   33.6550   39.6470 C   0  0  0  0  0  0  0  0  0  0  0  0
   37.7550   34.5050   39.0500 H   0  0  0  0  0  0  0  0  0  0  0  0
   39.2520   33.5460   40.1480 C   0  0  0  0  0  3  0  0  0  0  0  0
   39.5990   32.4720   40.9250 C   0  0  0  0  0  3  0  0  0  0  0  0
   38.6890   31.5190   41.1980 N   0  0  0  0  0  0  0  0  0  0  0  0
  1  7  1  1  0  0  0
  1  6  1  0  0  0  0
  2  3  1  0  0  0  0
  2  1  1  0  0  0  0
  3  4  1  0  0  0  0
  4 12  1  0  0  0  0
  4 13  1  0  0  0  0
  4  5  1  0  0  0  0
  5 14  1  0  0  0  0
  5 15  1  0  0  0  0
  6 16  1  6  0  0  0
  6  5  1  0  0  0  0
  6 26  1  0  0  0  0
  8  2  1  0  0  0  0
  9  2  1  0  0  0  0
 10  3  1  0  0  0  0
 11  3  1  0  0  0  0
 17  1  1  0  0  0  0
 18 23  1  0  0  0  0
 18 17  1  0  0  0  0
 19 18  2  0  0  0  0
 20 21  2  0  0  0  0
 20 19  1  0  0  0  0
 21 22  1  0  0  0  0
 22 17  2  0  0  0  0
 24 19  1  0  0  0  0
 25 21  1  0  0  0  0
 26 28  1  0  0  0  0
 26 29  1  1  0  0  0
 26 27  1  0  0  0  0
 27 30  1  0  0  0  0
 27 31  1  0  0  0  0
 28 32  1  6  0  0  0
 28 27  1  0  0  0  0
 33 28  1  0  0  0  0
 33 35  1  0  0  0  0
 34 33  1  0  0  0  0
 36 38  1  0  0  0  0
 36 33  1  0  0  0  0
 37 36  1  0  0  0  0
 39 36  1  0  0  0  0
 39 46  1  0  0  0  0
 40 39  2  0  0  0  0
 41 40  1  0  0  0  0
 42 40  1  0  0  0  0
 42 44  2  0  0  0  0
 43 42  1  0  0  0  0
 44 45  1  0  0  0  0
 45 46  2  0  0  0  0
M  END
>  <minimizedAffinity>
-5.41872931

$$$$

 OpenBabel03242512023D

 46 49  0  0  1  0  0  0  0  0999 V2000
   37.4680   29.7480   38.2020 C   0  0  2  0  0  0  0  0  0  0  0  0
   37.2880   29.8450   36.7170 C   0  0  0  0  0  0  0  0  0  0  0  0
   35.8850   29.6480   36.2990 C   0  0  0  0  0  0  0  0  0  0  0  0
   35.3230   28.3350   36.7890 C   0  0  0  0  0  0  0  0  0  0  0  0
   35.6930   28.0120   38.2090 C   0  0  0  0  0  0  0  0  0  0  0  0
   36.3180   29.1710   38.9440 C   0  0  1  0  0  0  0  0  0  0  0  0
   38.3560   29.0600   38.3390 H   0  0  0  0  0  0  0  0  0  0  0  0
   37.9540   29.1720   36.1430 H   0  0  0  0  0  0  0  0  0  0  0  0
   37.5930   30.8770   36.4190 H   0  0  0  0  0  0  0  0  0  0  0  0
   35.2350   30.4510   36.7500 H   0  0  0  0  0  0  0  0  0  0  0  0
   35.8240   29.6460   35.1920 H   0  0  0  0  0  0  0  0  0  0  0  0
   35.7830   27.5410   36.1450 H   0  0  0  0  0  0  0  0  0  0  0  0
   34.2350   28.3030   36.5830 H   0  0  0  0  0  0  0  0  0  0  0  0
   36.3440   27.1250   38.3230 H   0  0  0  0  0  0  0  0  0  0  0  0
   34.7210   27.7750   38.7220 H   0  0  0  0  0  0  0  0  0  0  0  0
   35.4900   29.8510   39.1860 H   0  0  0  0  0  0  0  0  0  0  0  0
   37.8840   31.0260   38.8120 C   0  0  0  0  0  0  0  0  0  0  0  0
   39.2420   31.0890   39.0700 C   0  0  0  0  0  0  0  0  0  0  0  0
   39.7880   32.2490   39.6480 C   0  0  0  0  0  0  0  0  0  0  0  0
   38.8760   33.2740   39.9200 N   0  0  0  0  0  0  0  0  0  0  0  0
   37.5590   33.1600   39.6490 C   0  0  0  0  0  0  0  0  0  0  0  0
   37.0800   32.0310   39.0950 N   0  0  0  0  0  0  0  0  0  0  0  0
   40.0890   30.4310   38.9500 H   0  0  0  0  0  0  0  0  0  0  0  0
   40.7840   32.4920   39.9180 H   0  0  0  0  0  0  0  0  0  0  0  0
   36.9170   33.9930   39.8880 H   0  0  0  0  0  0  0  0  0  0  0  0
   36.8280   28.6590   40.2650 C   0  0  2  0  0  0  0  0  0  0  0  0
   35.8230   28.5340   41.3980 C   0  0  0  0  0  0  0  0  0  0  0  0
   36.8790   29.5570   41.4480 C   0  0  1  0  0  0  0  0  0  0  0  0
   37.4930   27.7690   40.1930 H   0  0  0  0  0  0  0  0  0  0  0  0
   34.7900   28.9320   41.2320 H   0  0  0  0  0  0  0  0  0  0  0  0
   35.8760   27.6930   42.0940 H   0  0  0  0  0  0  0  0  0  0  0  0
   36.6200   30.6230   41.2110 H   0  0  0  0  0  0  0  0  0  0  0  0
   38.1390   29.4310   42.2360 C   0  0  0  0  0  0  0  0  0  0  0  0
   38.5450   30.4100   42.5610 H   0  0  0  0  0  0  0  0  0  0  0  0
   38.9160   28.9750   41.5760 H   0  0  0  0  0  0  0  0  0  0  0  0
   38.0040   28.5450   43.4510 C   0  0  0  0  0  0  0  0  0  0  0  0
   38.4170   29.0820   44.3240 H   0  0  0  0  0  0  0  0  0  0  0  0
   36.9290   28.3300   43.6250 H   0  0  0  0  0  0  0  0  0  0  0  0
   38.7660   27.2790   43.2940 C   0  0  0  0  0  0  0  0  0  0  0  0
   40.0780   27.0990   43.6780 C   0  0  0  0  0  0  0  0  0  0  0  0
   40.5950   27.9440   44.1300 H   0  0  0  0  0  0  0  0  0  0  0  0
   40.7380   25.9040   43.5100 C   0  0  0  0  0  0  0  0  0  0  0  0
   41.7470   25.7290   43.7940 H   0  0  0  0  0  0  0  0  0  0  0  0
   40.0490   24.8650   42.9360 C   0  0  0  0  0  3  0  0  0  0  0  0
   38.7440   25.0320   42.5510 C   0  0  0  0  0  3  0  0  0  0  0  0
   38.1360   26.2180   42.7340 N   0  0  0  0  0  0  0  0  0  0  0  0
  1  7  1  1  0  0  0
  1 17  1  0  0  0  0
  1  6  1  0  0  0  0
  2  1  1  0  0  0  0
  3  2  1  0  0  0  0
  3 10  1  0  0  0  0
  3  4  1  0  0  0  0
  4  5  1  0  0  0  0
  5 14  1  0  0  0  0
  5 15  1  0  0  0  0
  5  6  1  0  0  0  0
  6 16  1  1  0  0  0
  6 26  1  0  0  0  0
  8  2  1  0  0  0  0
  9  2  1  0  0  0  0
 11  3  1  0  0  0  0
 12  4  1  0  0  0  0
 13  4  1  0  0  0  0
 17 18  2  0  0  0  0
 17 22  1  0  0  0  0
 18 19  1  0  0  0  0
 19 24  1  0  0  0  0
 19 20  2  0  0  0  0
 21 25  1  0  0  0  0
 21 20  1  0  0  0  0
 22 21  2  0  0  0  0
 23 18  1  0  0  0  0
 26 29  1  6  0  0  0
 26 27  1  0  0  0  0
 26 28  1  0  0  0  0
 27 28  1  0  0  0  0
 27 31  1  0  0  0  0
 28 32  1  6  0  0  0
 28 33  1  0  0  0  0
 30 27  1  0  0  0  0
 33 34  1  0  0  0  0
 33 36  1  0  0  0  0
 35 33  1  0  0  0  0
 36 38  1  0  0  0  0
 36 37  1  0  0  0  0
 39 36  1  0  0  0  0
 39 40  1  0  0  0  0
 40 41  1  0  0  0  0
 42 40  2  0  0  0  0
 42 43  1  0  0  0  0
 44 42  1  0  0  0  0
 45 46  1  0  0  0  0
 45 44  2  0  0  0  0
 46 39  2  0  0  0  0
M  END
>  <minimizedAffinity>
-5.29609108

$$$$

 OpenBabel03242512023D

 46 49  0  0  1  0  0  0  0  0999 V2000
   38.6080   30.7110   40.4380 C   0  0  2  0  0  0  0  0  0  0  0  0
   39.2970   31.9800   40.8410 C   0  0  0  0  0  0  0  0  0  0  0  0
   38.3960   33.1500   40.8120 C   0  0  0  0  0  0  0  0  0  0  0  0
   37.7470   33.3370   39.4620 C   0  0  0  0  0  0  0  0  0  0  0  0
   37.2660   32.0570   38.8400 C   0  0  0  0  0  0  0  0  0  0  0  0
   37.2830   30.8860   39.7910 C   0  0  1  0  0  0  0  0  0  0  0  0
   39.3060   30.2320   39.6860 H   0  0  0  0  0  0  0  0  0  0  0  0
   40.2150   32.1920   40.2600 H   0  0  0  0  0  0  0  0  0  0  0  0
   39.6460   31.8410   41.8920 H   0  0  0  0  0  0  0  0  0  0  0  0
   37.5530   33.0020   41.5440 H   0  0  0  0  0  0  0  0  0  0  0  0
   38.9750   34.0690   41.0360 H   0  0  0  0  0  0  0  0  0  0  0  0
   38.5440   33.7470   38.7880 H   0  0  0  0  0  0  0  0  0  0  0  0
   36.9730   34.1270   39.5340 H   0  0  0  0  0  0  0  0  0  0  0  0
   37.7960   31.7700   37.9120 H   0  0  0  0  0  0  0  0  0  0  0  0
   36.1940   32.2470   38.5610 H   0  0  0  0  0  0  0  0  0  0  0  0
   36.4200   31.0300   40.4550 H   0  0  0  0  0  0  0  0  0  0  0  0
   38.5150   29.7350   41.5420 C   0  0  0  0  0  0  0  0  0  0  0  0
   39.6710   28.9920   41.7100 C   0  0  0  0  0  0  0  0  0  0  0  0
   39.7360   28.0240   42.7270 C   0  0  0  0  0  0  0  0  0  0  0  0
   38.5820   27.8930   43.5080 N   0  0  0  0  0  0  0  0  0  0  0  0
   37.4800   28.6430   43.3010 C   0  0  0  0  0  0  0  0  0  0  0  0
   37.4640   29.5590   42.3150 N   0  0  0  0  0  0  0  0  0  0  0  0
   40.6350   28.9320   41.2270 H   0  0  0  0  0  0  0  0  0  0  0  0
   40.5130   27.3640   43.0140 H   0  0  0  0  0  0  0  0  0  0  0  0
   36.6290   28.4840   43.9440 H   0  0  0  0  0  0  0  0  0  0  0  0
   36.9860   29.6420   38.9960 C   0  0  2  0  0  0  0  0  0  0  0  0
   35.7720   29.6730   38.0830 C   0  0  0  0  0  0  0  0  0  0  0  0
   35.7740   28.8340   39.2920 C   0  0  1  0  0  0  0  0  0  0  0  0
   37.8720   29.1840   38.5020 H   0  0  0  0  0  0  0  0  0  0  0  0
   35.0990   30.5650   38.1300 H   0  0  0  0  0  0  0  0  0  0  0  0
   35.8020   29.1820   37.1070 H   0  0  0  0  0  0  0  0  0  0  0  0
   35.2160   29.1840   40.2010 H   0  0  0  0  0  0  0  0  0  0  0  0
   36.0270   27.3640   39.2990 C   0  0  0  0  0  0  0  0  0  0  0  0
   35.4690   26.8260   38.5070 H   0  0  0  0  0  0  0  0  0  0  0  0
   35.6610   26.9550   40.2710 H   0  0  0  0  0  0  0  0  0  0  0  0
   37.4890   27.0040   39.1810 C   0  0  0  0  0  0  0  0  0  0  0  0
   37.6550   26.5410   38.1910 H   0  0  0  0  0  0  0  0  0  0  0  0
   38.0970   27.9280   39.2630 H   0  0  0  0  0  0  0  0  0  0  0  0
   37.8960   26.0220   40.2180 C   0  0  0  0  0  0  0  0  0  0  0  0
   37.0640   25.5230   41.1970 C   0  0  0  0  0  0  0  0  0  0  0  0
   36.0320   25.8720   41.2140 H   0  0  0  0  0  0  0  0  0  0  0  0
   37.4920   24.6130   42.1360 C   0  0  0  0  0  0  0  0  0  0  0  0
   36.8800   24.2070   42.9040 H   0  0  0  0  0  0  0  0  0  0  0  0
   38.8000   24.1990   42.0790 C   0  0  0  0  0  3  0  0  0  0  0  0
   39.6370   24.6880   41.1100 C   0  0  0  0  0  3  0  0  0  0  0  0
   39.1760   25.5770   40.2110 N   0  0  0  0  0  0  0  0  0  0  0  0
  1  7  1  6  0  0  0
  1  2  1  0  0  0  0
  1 17  1  0  0  0  0
  2  9  1  0  0  0  0
  3  2  1  0  0  0  0
  3 11  1  0  0  0  0
  3 10  1  0  0  0  0
  4 13  1  0  0  0  0
  4  3  1  0  0  0  0
  5  4  1  0  0  0  0
  5  6  1  0  0  0  0
  6  1  1  0  0  0  0
  6 16  1  1  0  0  0
  8  2  1  0  0  0  0
 12  4  1  0  0  0  0
 14  5  1  0  0  0  0
 15  5  1  0  0  0  0
 17 18  2  0  0  0  0
 17 22  1  0  0  0  0
 18 19  1  0  0  0  0
 19 24  1  0  0  0  0
 19 20  2  0  0  0  0
 21 20  1  0  0  0  0
 21 25  1  0  0  0  0
 22 21  2  0  0  0  0
 23 18  1  0  0  0  0
 26 29  1  6  0  0  0
 26 28  1  0  0  0  0
 26  6  1  0  0  0  0
 27 30  1  0  0  0  0
 27 26  1  0  0  0  0
 27 28  1  0  0  0  0
 28 33  1  0  0  0  0
 28 32  1  1  0  0  0
 31 27  1  0  0  0  0
 33 35  1  0  0  0  0
 34 33  1  0  0  0  0
 36 38  1  0  0  0  0
 36 33  1  0  0  0  0
 36 39  1  0  0  0  0
 37 36  1  0  0  0  0
 39 40  1  0  0  0  0
 40 41  1  0  0  0  0
 40 42  2  0  0  0  0
 42 43  1  0  0  0  0
 44 42  1  0  0  0  0
 45 44  2  0  0  0  0
 46 39  2  0  0  0  0
 46 45  1  0  0  0  0
M  END
>  <minimizedAffinity>
-5.29131079

$$$$

 OpenBabel03242512023D

 46 49  0  0  1  0  0  0  0  0999 V2000
   37.5050   26.3100   40.2820 C   0  0  2  0  0  0  0  0  0  0  0  0
   36.9870   25.0660   39.6230 C   0  0  0  0  0  0  0  0  0  0  0  0
   36.5050   24.0650   40.5980 C   0  0  0  0  0  0  0  0  0  0  0  0
   37.5640   23.6970   41.6090 C   0  0  0  0  0  0  0  0  0  0  0  0
   38.3400   24.8740   42.1270 C   0  0  0  0  0  0  0  0  0  0  0  0
   37.7400   26.2030   41.7440 C   0  0  1  0  0  0  0  0  0  0  0  0
   38.4990   26.5070   39.7790 H   0  0  0  0  0  0  0  0  0  0  0  0
   37.7090   24.5990   38.9250 H   0  0  0  0  0  0  0  0  0  0  0  0
   36.1230   25.3690   38.9860 H   0  0  0  0  0  0  0  0  0  0  0  0
   35.6460   24.4910   41.1890 H   0  0  0  0  0  0  0  0  0  0  0  0
   36.2140   23.1370   40.0630 H   0  0  0  0  0  0  0  0  0  0  0  0
   38.2930   23.0380   41.0690 H   0  0  0  0  0  0  0  0  0  0  0  0
   37.1110   23.0660   42.3990 H   0  0  0  0  0  0  0  0  0  0  0  0
   39.4120   24.8750   41.8510 H   0  0  0  0  0  0  0  0  0  0  0  0
   38.2890   24.7930   43.2470 H   0  0  0  0  0  0  0  0  0  0  0  0
   36.8680   26.3350   42.3990 H   0  0  0  0  0  0  0  0  0  0  0  0
   36.6850   27.4990   39.9780 C   0  0  0  0  0  0  0  0  0  0  0  0
   36.8580   27.9630   38.6850 C   0  0  0  0  0  0  0  0  0  0  0  0
   36.1390   29.0890   38.2470 C   0  0  0  0  0  0  0  0  0  0  0  0
   35.2810   29.6620   39.1930 N   0  0  0  0  0  0  0  0  0  0  0  0
   35.1510   29.1700   40.4420 C   0  0  0  0  0  0  0  0  0  0  0  0
   35.8590   28.0880   40.8180 N   0  0  0  0  0  0  0  0  0  0  0  0
   37.4550   27.6830   37.8300 H   0  0  0  0  0  0  0  0  0  0  0  0
   36.1290   29.5920   37.3140 H   0  0  0  0  0  0  0  0  0  0  0  0
   34.4700   29.6660   41.1160 H   0  0  0  0  0  0  0  0  0  0  0  0
   38.7150   27.2810   42.1370 C   0  0  2  0  0  0  0  0  0  0  0  0
   39.2260   27.2690   43.5680 C   0  0  0  0  0  0  0  0  0  0  0  0
   38.3190   28.3320   43.1100 C   0  0  1  0  0  0  0  0  0  0  0  0
   39.5300   27.4610   41.4010 H   0  0  0  0  0  0  0  0  0  0  0  0
   38.7720   26.5380   44.2830 H   0  0  0  0  0  0  0  0  0  0  0  0
   40.2650   27.5260   43.7860 H   0  0  0  0  0  0  0  0  0  0  0  0
   37.2340   28.2890   43.3980 H   0  0  0  0  0  0  0  0  0  0  0  0
   38.7560   29.7030   42.7150 C   0  0  0  0  0  0  0  0  0  0  0  0
   39.4040   30.1850   43.4740 H   0  0  0  0  0  0  0  0  0  0  0  0
   37.8470   30.3450   42.6280 H   0  0  0  0  0  0  0  0  0  0  0  0
   39.4680   29.7470   41.3840 C   0  0  0  0  0  0  0  0  0  0  0  0
   40.5100   30.0710   41.5550 H   0  0  0  0  0  0  0  0  0  0  0  0
   39.4650   28.7310   40.9380 H   0  0  0  0  0  0  0  0  0  0  0  0
   38.8350   30.7200   40.4570 C   0  0  0  0  0  0  0  0  0  0  0  0
   37.8630   31.6300   40.8160 C   0  0  0  0  0  0  0  0  0  0  0  0
   37.5330   31.6380   41.8550 H   0  0  0  0  0  0  0  0  0  0  0  0
   37.3090   32.5120   39.9180 C   0  0  0  0  0  0  0  0  0  0  0  0
   36.5590   33.2260   40.1590 H   0  0  0  0  0  0  0  0  0  0  0  0
   37.7530   32.4680   38.6200 C   0  0  0  0  0  3  0  0  0  0  0  0
   38.7190   31.5690   38.2500 C   0  0  0  0  0  3  0  0  0  0  0  0
   39.2340   30.7250   39.1620 N   0  0  0  0  0  0  0  0  0  0  0  0
  1  7  1  6  0  0  0
  1  6  1  0  0  0  0
  2  1  1  0  0  0  0
  2  3  1  0  0  0  0
  3 10  1  0  0  0  0
  3  4  1  0  0  0  0
  4  5  1  0  0  0  0
  4 13  1  0  0  0  0
  5 15  1  0  0  0  0
  6  5  1  0  0  0  0
  6 26  1  0  0  0  0
  6 16  1  1  0  0  0
  8  2  1  0  0  0  0
  9  2  1  0  0  0  0
 11  3  1  0  0  0  0
 12  4  1  0  0  0  0
 14  5  1  0  0  0  0
 17  1  1  0  0  0  0
 17 22  1  0  0  0  0
 18 17  2  0  0  0  0
 19 18  1  0  0  0  0
 19 20  2  0  0  0  0
 20 21  1  0  0  0  0
 21 22  2  0  0  0  0
 21 25  1  0  0  0  0
 23 18  1  0  0  0  0
 24 19  1  0  0  0  0
 26 29  1  6  0  0  0
 26 28  1  0  0  0  0
 26 27  1  0  0  0  0
 27 31  1  0  0  0  0
 27 30  1  0  0  0  0
 28 32  1  1  0  0  0
 28 27  1  0  0  0  0
 33 28  1  0  0  0  0
 33 34  1  0  0  0  0
 35 33  1  0  0  0  0
 36 37  1  0  0  0  0
 36 33  1  0  0  0  0
 38 36  1  0  0  0  0
 39 40  1  0  0  0  0
 39 36  1  0  0  0  0
 40 41  1  0  0  0  0
 42 43  1  0  0  0  0
 42 40  2  0  0  0  0
 44 42  1  0  0  0  0
 45 44  2  0  0  0  0
 45 46  1  0  0  0  0
 46 39  2  0  0  0  0
M  END
>  <minimizedAffinity>
-5.27056408

$$$$

 OpenBabel03242512023D

 46 49  0  0  1  0  0  0  0  0999 V2000
   37.5520   28.8810   39.7880 C   0  0  2  0  0  0  0  0  0  0  0  0
   38.8250   29.6620   39.9190 C   0  0  0  0  0  0  0  0  0  0  0  0
   38.5910   31.1180   40.0180 C   0  0  0  0  0  0  0  0  0  0  0  0
   37.7930   31.6480   38.8520 C   0  0  0  0  0  0  0  0  0  0  0  0
   36.6380   30.7700   38.4610 C   0  0  0  0  0  0  0  0  0  0  0  0
   36.3450   29.6830   39.4650 C   0  0  1  0  0  0  0  0  0  0  0  0
   37.7410   28.1670   38.9300 H   0  0  0  0  0  0  0  0  0  0  0  0
   39.5620   29.4490   39.1210 H   0  0  0  0  0  0  0  0  0  0  0  0
   39.3170   29.3290   40.8640 H   0  0  0  0  0  0  0  0  0  0  0  0
   37.9840   31.3460   40.9390 H   0  0  0  0  0  0  0  0  0  0  0  0
   39.5640   31.6500   40.0280 H   0  0  0  0  0  0  0  0  0  0  0  0
   38.4950   31.6700   37.9790 H   0  0  0  0  0  0  0  0  0  0  0  0
   37.5160   32.7030   39.0470 H   0  0  0  0  0  0  0  0  0  0  0  0
   36.7290   30.3120   37.4570 H   0  0  0  0  0  0  0  0  0  0  0  0
   35.7440   31.4500   38.4320 H   0  0  0  0  0  0  0  0  0  0  0  0
   35.8390   30.1820   40.3030 H   0  0  0  0  0  0  0  0  0  0  0  0
   37.2940   28.0110   40.9520 C   0  0  0  0  0  0  0  0  0  0  0  0
   37.6060   26.6830   40.7190 C   0  0  0  0  0  0  0  0  0  0  0  0
   37.4180   25.7330   41.7380 C   0  0  0  0  0  0  0  0  0  0  0  0
   36.9120   26.2340   42.9430 N   0  0  0  0  0  0  0  0  0  0  0  0
   36.6220   27.5400   43.1180 C   0  0  0  0  0  0  0  0  0  0  0  0
   36.8200   28.4140   42.1130 N   0  0  0  0  0  0  0  0  0  0  0  0
   37.9860   26.1060   39.8890 H   0  0  0  0  0  0  0  0  0  0  0  0
   37.5930   24.6880   41.7600 H   0  0  0  0  0  0  0  0  0  0  0  0
   36.2350   27.8510   44.0740 H   0  0  0  0  0  0  0  0  0  0  0  0
   35.3220   28.7590   38.8590 C   0  0  2  0  0  0  0  0  0  0  0  0
   35.6890   28.0750   37.5530 C   0  0  0  0  0  0  0  0  0  0  0  0
   34.6510   29.1160   37.5820 C   0  0  1  0  0  0  0  0  0  0  0  0
   34.8440   28.0590   39.5800 H   0  0  0  0  0  0  0  0  0  0  0  0
   36.6430   28.3750   37.0510 H   0  0  0  0  0  0  0  0  0  0  0  0
   35.3870   27.0410   37.3660 H   0  0  0  0  0  0  0  0  0  0  0  0
   34.9010   30.1500   37.2200 H   0  0  0  0  0  0  0  0  0  0  0  0
   33.1840   28.8470   37.5860 C   0  0  0  0  0  0  0  0  0  0  0  0
   32.6090   29.5960   38.1670 H   0  0  0  0  0  0  0  0  0  0  0  0
   33.0140   27.8650   38.0900 H   0  0  0  0  0  0  0  0  0  0  0  0
   32.5840   28.7540   36.2030 C   0  0  0  0  0  0  0  0  0  0  0  0
   33.4050   28.6180   35.4750 H   0  0  0  0  0  0  0  0  0  0  0  0
   31.9050   27.8780   36.1610 H   0  0  0  0  0  0  0  0  0  0  0  0
   31.8530   29.9940   35.8390 C   0  0  0  0  0  0  0  0  0  0  0  0
   31.0630   30.7230   36.7020 C   0  0  0  0  0  0  0  0  0  0  0  0
   30.9660   30.3650   37.7270 H   0  0  0  0  0  0  0  0  0  0  0  0
   30.4060   31.8670   36.3140 C   0  0  0  0  0  0  0  0  0  0  0  0
   29.7900   32.4530   36.9510 H   0  0  0  0  0  0  0  0  0  0  0  0
   30.5560   32.2830   35.0150 C   0  0  0  0  0  3  0  0  0  0  0  0
   31.3390   31.5680   34.1460 C   0  0  0  0  0  3  0  0  0  0  0  0
   31.9630   30.4540   34.5690 N   0  0  0  0  0  0  0  0  0  0  0  0
  1  7  1  6  0  0  0
  1  2  1  0  0  0  0
  1 17  1  0  0  0  0
  2  3  1  0  0  0  0
  2  9  1  0  0  0  0
  3 11  1  0  0  0  0
  3 10  1  0  0  0  0
  4 13  1  0  0  0  0
  4  3  1  0  0  0  0
  5  4  1  0  0  0  0
  5  6  1  0  0  0  0
  6  1  1  0  0  0  0
  6 16  1  1  0  0  0
  8  2  1  0  0  0  0
 12  4  1  0  0  0  0
 14  5  1  0  0  0  0
 15  5  1  0  0  0  0
 17 22  1  0  0  0  0
 18 17  2  0  0  0  0
 18 19  1  0  0  0  0
 19 24  1  0  0  0  0
 19 20  2  0  0  0  0
 20 21  1  0  0  0  0
 21 25  1  0  0  0  0
 22 21  2  0  0  0  0
 23 18  1  0  0  0  0
 26  6  1  0  0  0  0
 26 29  1  1  0  0  0
 27 28  1  0  0  0  0
 27 26  1  0  0  0  0
 28 32  1  6  0  0  0
 28 33  1  0  0  0  0
 28 26  1  0  0  0  0
 30 27  1  0  0  0  0
 31 27  1  0  0  0  0
 33 35  1  0  0  0  0
 33 34  1  0  0  0  0
 36 33  1  0  0  0  0
 37 36  1  0  0  0  0
 38 36  1  0  0  0  0
 39 36  1  0  0  0  0
 39 40  1  0  0  0  0
 40 41  1  0  0  0  0
 42 40  2  0  0  0  0
 42 43  1  0  0  0  0
 44 42  1  0  0  0  0
 45 46  1  0  0  0  0
 45 44  2  0  0  0  0
 46 39  2  0  0  0  0
M  END
>  <minimizedAffinity>
-5.21533871

$$$$

 OpenBabel03242512023D

 46 49  0  0  1  0  0  0  0  0999 V2000
   37.8820   31.4390   40.8590 C   0  0  2  0  0  0  0  0  0  0  0  0
   37.9320   32.6660   39.9990 C   0  0  0  0  0  0  0  0  0  0  0  0
   39.2500   32.8600   39.3600 C   0  0  0  0  0  0  0  0  0  0  0  0
   40.3720   32.9070   40.3700 C   0  0  0  0  0  0  0  0  0  0  0  0
   40.2540   31.8720   41.4520 C   0  0  0  0  0  0  0  0  0  0  0  0
   39.1990   30.8300   41.1730 C   0  0  1  0  0  0  0  0  0  0  0  0
   37.4150   31.7880   41.8290 H   0  0  0  0  0  0  0  0  0  0  0  0
   37.6250   33.5910   40.5240 H   0  0  0  0  0  0  0  0  0  0  0  0
   37.1760   32.5280   39.1900 H   0  0  0  0  0  0  0  0  0  0  0  0
   39.4780   31.9890   38.6830 H   0  0  0  0  0  0  0  0  0  0  0  0
   39.2570   33.8220   38.8070 H   0  0  0  0  0  0  0  0  0  0  0  0
   40.3000   33.9080   40.8680 H   0  0  0  0  0  0  0  0  0  0  0  0
   41.3440   32.9000   39.8380 H   0  0  0  0  0  0  0  0  0  0  0  0
   40.0870   32.2840   42.4660 H   0  0  0  0  0  0  0  0  0  0  0  0
   41.2470   31.3460   41.4700 H   0  0  0  0  0  0  0  0  0  0  0  0
   39.6340   30.1640   40.4150 H   0  0  0  0  0  0  0  0  0  0  0  0
   36.9540   30.4160   40.3400 C   0  0  0  0  0  0  0  0  0  0  0  0
   37.4370   29.7600   39.2200 C   0  0  0  0  0  0  0  0  0  0  0  0
   36.6650   28.7540   38.6140 C   0  0  0  0  0  0  0  0  0  0  0  0
   35.4300   28.4950   39.2200 N   0  0  0  0  0  0  0  0  0  0  0  0
   35.0050   29.1650   40.3110 C   0  0  0  0  0  0  0  0  0  0  0  0
   35.7800   30.1200   40.8580 N   0  0  0  0  0  0  0  0  0  0  0  0
   38.3270   29.8120   38.6110 H   0  0  0  0  0  0  0  0  0  0  0  0
   36.8520   28.1450   37.7670 H   0  0  0  0  0  0  0  0  0  0  0  0
   34.0410   28.9100   40.7210 H   0  0  0  0  0  0  0  0  0  0  0  0
   39.0390   29.9920   42.4130 C   0  0  2  0  0  0  0  0  0  0  0  0
   40.1320   28.9800   42.7160 C   0  0  0  0  0  0  0  0  0  0  0  0
   38.7940   28.5300   42.3040 C   0  0  1  0  0  0  0  0  0  0  0  0
   38.7270   30.5570   43.3200 H   0  0  0  0  0  0  0  0  0  0  0  0
   40.9350   28.8290   41.9520 H   0  0  0  0  0  0  0  0  0  0  0  0
   40.4500   28.8010   43.7460 H   0  0  0  0  0  0  0  0  0  0  0  0
   38.6340   28.1820   41.2480 H   0  0  0  0  0  0  0  0  0  0  0  0
   37.7450   28.0310   43.2400 C   0  0  0  0  0  0  0  0  0  0  0  0
   37.1640   28.8480   43.7130 H   0  0  0  0  0  0  0  0  0  0  0  0
   38.2540   27.4890   44.0730 H   0  0  0  0  0  0  0  0  0  0  0  0
   36.7760   27.0650   42.6010 C   0  0  0  0  0  0  0  0  0  0  0  0
   36.1570   26.6130   43.3970 H   0  0  0  0  0  0  0  0  0  0  0  0
   36.1230   27.6210   41.8960 H   0  0  0  0  0  0  0  0  0  0  0  0
   37.4840   25.9670   41.8940 C   0  0  0  0  0  0  0  0  0  0  0  0
   38.3810   25.1030   42.4840 C   0  0  0  0  0  0  0  0  0  0  0  0
   38.5880   25.2320   43.5460 H   0  0  0  0  0  0  0  0  0  0  0  0
   39.0100   24.1000   41.7840 C   0  0  0  0  0  0  0  0  0  0  0  0
   39.7060   23.4160   42.2050 H   0  0  0  0  0  0  0  0  0  0  0  0
   38.7200   23.9720   40.4480 C   0  0  0  0  0  3  0  0  0  0  0  0
   37.8300   24.8250   39.8490 C   0  0  0  0  0  3  0  0  0  0  0  0
   37.2370   25.7920   40.5730 N   0  0  0  0  0  0  0  0  0  0  0  0
  1  6  1  0  0  0  0
  1  7  1  1  0  0  0
  2  8  1  0  0  0  0
  2  1  1  0  0  0  0
  3  2  1  0  0  0  0
  3  4  1  0  0  0  0
  4 12  1  0  0  0  0
  4  5  1  0  0  0  0
  5 15  1  0  0  0  0
  5 14  1  0  0  0  0
  6 16  1  6  0  0  0
  6  5  1  0  0  0  0
  6 26  1  0  0  0  0
  9  2  1  0  0  0  0
 10  3  1  0  0  0  0
 11  3  1  0  0  0  0
 13  4  1  0  0  0  0
 17 22  1  0  0  0  0
 17  1  1  0  0  0  0
 18 17  2  0  0  0  0
 19 20  2  0  0  0  0
 19 18  1  0  0  0  0
 20 21  1  0  0  0  0
 21 25  1  0  0  0  0
 21 22  2  0  0  0  0
 23 18  1  0  0  0  0
 24 19  1  0  0  0  0
 26 27  1  0  0  0  0
 26 29  1  1  0  0  0
 27 31  1  0  0  0  0
 28 32  1  6  0  0  0
 28 26  1  0  0  0  0
 28 27  1  0  0  0  0
 28 33  1  0  0  0  0
 30 27  1  0  0  0  0
 33 34  1  0  0  0  0
 33 35  1  0  0  0  0
 36 33  1  0  0  0  0
 36 37  1  0  0  0  0
 38 36  1  0  0  0  0
 39 40  1  0  0  0  0
 39 36  1  0  0  0  0
 40 41  1  0  0  0  0
 42 43  1  0  0  0  0
 42 40  2  0  0  0  0
 44 42  1  0  0  0  0
 45 44  2  0  0  0  0
 45 46  1  0  0  0  0
 46 39  2  0  0  0  0
M  END
>  <minimizedAffinity>
-5.15998459

$$$$

 OpenBabel03242512023D

 46 49  0  0  1  0  0  0  0  0999 V2000
   37.7580   29.9700   39.6420 C   0  0  2  0  0  0  0  0  0  0  0  0
   36.9740   30.5760   38.5170 C   0  0  0  0  0  0  0  0  0  0  0  0
   37.3980   31.9560   38.2060 C   0  0  0  0  0  0  0  0  0  0  0  0
   37.3270   32.8600   39.4120 C   0  0  0  0  0  0  0  0  0  0  0  0
   37.8430   32.2270   40.6730 C   0  0  0  0  0  0  0  0  0  0  0  0
   38.5690   30.9260   40.4370 C   0  0  1  0  0  0  0  0  0  0  0  0
   36.9770   29.5190   40.3250 H   0  0  0  0  0  0  0  0  0  0  0  0
   35.8780   30.5400   38.6680 H   0  0  0  0  0  0  0  0  0  0  0  0
   37.1610   29.9470   37.6140 H   0  0  0  0  0  0  0  0  0  0  0  0
   38.4760   31.9600   37.8780 H   0  0  0  0  0  0  0  0  0  0  0  0
   36.7320   32.3820   37.4270 H   0  0  0  0  0  0  0  0  0  0  0  0
   36.2390   33.0740   39.5770 H   0  0  0  0  0  0  0  0  0  0  0  0
   37.7950   33.8340   39.1680 H   0  0  0  0  0  0  0  0  0  0  0  0
   37.0750   32.0690   41.4550 H   0  0  0  0  0  0  0  0  0  0  0  0
   38.5900   32.9570   41.0880 H   0  0  0  0  0  0  0  0  0  0  0  0
   39.5510   31.2050   40.0300 H   0  0  0  0  0  0  0  0  0  0  0  0
   38.5870   28.8280   39.2100 C   0  0  0  0  0  0  0  0  0  0  0  0
   37.9440   27.6090   39.3400 C   0  0  0  0  0  0  0  0  0  0  0  0
   38.6070   26.4280   38.9630 C   0  0  0  0  0  0  0  0  0  0  0  0
   39.9070   26.5960   38.4740 N   0  0  0  0  0  0  0  0  0  0  0  0
   40.4890   27.8090   38.3690 C   0  0  0  0  0  0  0  0  0  0  0  0
   39.8150   28.9130   38.7410 N   0  0  0  0  0  0  0  0  0  0  0  0
   36.9810   27.2700   39.6910 H   0  0  0  0  0  0  0  0  0  0  0  0
   38.2950   25.4150   38.9840 H   0  0  0  0  0  0  0  0  0  0  0  0
   41.4940   27.8590   37.9830 H   0  0  0  0  0  0  0  0  0  0  0  0
   38.8430   30.3000   41.7780 C   0  0  2  0  0  0  0  0  0  0  0  0
   39.8260   31.0130   42.6920 C   0  0  0  0  0  0  0  0  0  0  0  0
   40.1800   29.7240   42.0790 C   0  0  1  0  0  0  0  0  0  0  0  0
   37.9360   29.9550   42.3240 H   0  0  0  0  0  0  0  0  0  0  0  0
   40.3790   31.8960   42.2840 H   0  0  0  0  0  0  0  0  0  0  0  0
   39.6520   31.0490   43.7700 H   0  0  0  0  0  0  0  0  0  0  0  0
   40.8690   29.7100   41.1920 H   0  0  0  0  0  0  0  0  0  0  0  0
   40.1160   28.4090   42.7800 C   0  0  0  0  0  0  0  0  0  0  0  0
   40.7740   28.3630   43.6710 H   0  0  0  0  0  0  0  0  0  0  0  0
   40.4860   27.6240   42.0790 H   0  0  0  0  0  0  0  0  0  0  0  0
   38.7190   28.0170   43.1990 C   0  0  0  0  0  0  0  0  0  0  0  0
   38.6660   28.0380   44.3030 H   0  0  0  0  0  0  0  0  0  0  0  0
   37.9970   28.7490   42.7810 H   0  0  0  0  0  0  0  0  0  0  0  0
   38.3800   26.6420   42.7530 C   0  0  0  0  0  0  0  0  0  0  0  0
   37.0990   26.1770   42.5430 C   0  0  0  0  0  0  0  0  0  0  0  0
   36.2730   26.8670   42.7170 H   0  0  0  0  0  0  0  0  0  0  0  0
   36.8380   24.8920   42.1280 C   0  0  0  0  0  0  0  0  0  0  0  0
   35.8650   24.5000   41.9570 H   0  0  0  0  0  0  0  0  0  0  0  0
   37.9070   24.0560   41.9210 C   0  0  0  0  0  3  0  0  0  0  0  0
   39.1850   24.5060   42.1260 C   0  0  0  0  0  3  0  0  0  0  0  0
   39.3940   25.7710   42.5320 N   0  0  0  0  0  0  0  0  0  0  0  0
  1  7  1  1  0  0  0
  1  6  1  0  0  0  0
  2  8  1  0  0  0  0
  2  1  1  0  0  0  0
  3  2  1  0  0  0  0
  3  4  1  0  0  0  0
  4 12  1  0  0  0  0
  4  5  1  0  0  0  0
  5 15  1  0  0  0  0
  5 14  1  0  0  0  0
  6 16  1  6  0  0  0
  6  5  1  0  0  0  0
  6 26  1  0  0  0  0
  9  2  1  0  0  0  0
 10  3  1  0  0  0  0
 11  3  1  0  0  0  0
 13  4  1  0  0  0  0
 17 18  1  0  0  0  0
 17  1  1  0  0  0  0
 18 23  1  0  0  0  0
 19 24  1  0  0  0  0
 19 18  2  0  0  0  0
 20 19  1  0  0  0  0
 21 20  2  0  0  0  0
 21 22  1  0  0  0  0
 22 17  2  0  0  0  0
 25 21  1  0  0  0  0
 26 28  1  0  0  0  0
 26 29  1  1  0  0  0
 26 27  1  0  0  0  0
 27 31  1  0  0  0  0
 28 32  1  6  0  0  0
 28 27  1  0  0  0  0
 28 33  1  0  0  0  0
 30 27  1  0  0  0  0
 33 36  1  0  0  0  0
 33 34  1  0  0  0  0
 35 33  1  0  0  0  0
 36 37  1  0  0  0  0
 38 36  1  0  0  0  0
 39 36  1  0  0  0  0
 40 41  1  0  0  0  0
 40 39  1  0  0  0  0
 42 40  2  0  0  0  0
 43 42  1  0  0  0  0
 44 45  2  0  0  0  0
 44 42  1  0  0  0  0
 45 46  1  0  0  0  0
 46 39  2  0  0  0  0
M  END
>  <minimizedAffinity>
-5.15427017

$$$$
