
 OpenBabel03242521293D

 34 36  0  0  1  0  0  0  0  0999 V2000
   37.3490   29.7880   41.8340 C   0  0  1  0  0  0  0  0  0  0  0  0
   37.8830   28.6160   41.0440 C   0  0  2  0  0  0  0  0  0  0  0  0
   36.8780   27.9270   40.3970 O   0  0  0  0  0  0  0  0  0  0  0  0
   36.4390   28.7510   39.3720 C   0  0  0  0  0  0  0  0  0  0  0  0
   35.6440   29.8730   39.9790 C   0  0  2  0  0  0  0  0  0  0  0  0
   36.3230   30.5890   41.1150 C   0  0  2  0  0  0  0  0  0  0  0  0
   38.2420   30.4600   42.0060 H   0  0  0  0  0  0  0  0  0  0  0  0
   38.5650   29.0680   40.2810 H   0  0  0  0  0  0  0  0  0  0  0  0
   35.7340   28.1560   38.7580 H   0  0  0  0  0  0  0  0  0  0  0  0
   37.2610   29.1180   38.7270 H   0  0  0  0  0  0  0  0  0  0  0  0
   35.3910   30.6280   39.2000 H   0  0  0  0  0  0  0  0  0  0  0  0
   35.4960   30.8190   41.8520 H   0  0  0  0  0  0  0  0  0  0  0  0
   39.0400   25.4650   42.8070 C   0  0  0  0  0  0  0  0  0  0  0  0
   38.3260   26.3080   41.9410 C   0  0  0  0  0  0  0  0  0  0  0  0
   38.6200   27.7020   41.9280 C   0  0  0  0  0  0  0  0  0  0  0  0
   39.5860   28.1430   42.7620 N   0  0  0  0  0  0  0  0  0  0  0  0
   40.2610   27.3040   43.5900 C   0  0  0  0  0  0  0  0  0  0  0  0
   39.9900   25.9710   43.6140 N   0  0  0  0  0  0  0  0  0  0  0  0
   38.7160   24.4380   42.7140 H   0  0  0  0  0  0  0  0  0  0  0  0
   37.5470   25.9950   41.2590 H   0  0  0  0  0  0  0  0  0  0  0  0
   41.0410   27.6840   44.2620 H   0  0  0  0  0  0  0  0  0  0  0  0
   36.9390   29.4140   43.1200 O   0  0  0  0  0  0  0  0  0  0  0  0
   36.9820   30.1440   43.7630 H   0  0  0  0  0  0  0  0  0  0  0  0
   34.4320   29.2980   40.3830 O   0  0  0  0  0  0  0  0  0  0  0  0
   34.3920   29.3410   41.3720 H   0  0  0  0  0  0  0  0  0  0  0  0
   36.8000   31.8490   40.7360 O   0  0  0  0  0  0  0  0  0  0  0  0
   38.0500   32.1170   40.2030 C   0  0  0  0  0  0  0  0  0  0  0  0
   38.9140   32.9020   40.9370 C   0  0  0  0  0  0  0  0  0  0  0  0
   38.5940   33.2860   41.9070 H   0  0  0  0  0  0  0  0  0  0  0  0
   40.1820   33.2350   40.5080 C   0  0  0  0  0  0  0  0  0  0  0  0
   40.8210   33.8500   41.1140 H   0  0  0  0  0  0  0  0  0  0  0  0
   40.6260   32.7680   39.2850 C   0  0  0  0  0  3  0  0  0  0  0  0
   39.7400   31.9790   38.5610 C   0  0  0  0  0  3  0  0  0  0  0  0
   38.5080   31.6670   38.9980 N   0  0  0  0  0  0  0  0  0  0  0  0
  1  7  1  1  0  0  0
  1 22  1  0  0  0  0
  2  8  1  6  0  0  0
  2  1  1  0  0  0  0
  2 15  1  0  0  0  0
  3  2  1  0  0  0  0
  4  5  1  0  0  0  0
  4  3  1  0  0  0  0
  5 11  1  6  0  0  0
  5 24  1  0  0  0  0
  5  6  1  0  0  0  0
  6  1  1  0  0  0  0
  6 12  1  1  0  0  0
  9  4  1  0  0  0  0
 10  4  1  0  0  0  0
 13 18  1  0  0  0  0
 14 13  2  0  0  0  0
 15 14  1  0  0  0  0
 15 16  2  0  0  0  0
 16 17  1  0  0  0  0
 17 18  2  0  0  0  0
 17 21  1  0  0  0  0
 19 13  1  0  0  0  0
 20 14  1  0  0  0  0
 22 23  1  0  0  0  0
 24 25  1  0  0  0  0
 26  6  1  0  0  0  0
 27 26  1  0  0  0  0
 27 28  1  0  0  0  0
 28 29  1  0  0  0  0
 30 28  2  0  0  0  0
 30 31  1  0  0  0  0
 32 30  1  0  0  0  0
 33 34  1  0  0  0  0
 33 32  2  0  0  0  0
 34 27  2  0  0  0  0
M  END
>  <minimizedAffinity>
-5.6680603

$$$$

 OpenBabel03242521293D

 34 36  0  0  1  0  0  0  0  0999 V2000
   38.7760   31.6790   37.6660 C   0  0  1  0  0  0  0  0  0  0  0  0
   39.8070   31.8670   38.7550 C   0  0  2  0  0  0  0  0  0  0  0  0
   39.5490   32.9820   39.5250 O   0  0  0  0  0  0  0  0  0  0  0  0
   38.4260   32.6810   40.2810 C   0  0  0  0  0  0  0  0  0  0  0  0
   37.2290   32.7030   39.3730 C   0  0  2  0  0  0  0  0  0  0  0  0
   37.3740   31.8920   38.1130 C   0  0  2  0  0  0  0  0  0  0  0  0
   38.8680   30.5960   37.3550 H   0  0  0  0  0  0  0  0  0  0  0  0
   39.7210   30.9540   39.3950 H   0  0  0  0  0  0  0  0  0  0  0  0
   38.2920   33.5100   41.0050 H   0  0  0  0  0  0  0  0  0  0  0  0
   38.5190   31.7270   40.8350 H   0  0  0  0  0  0  0  0  0  0  0  0
   36.3290   32.3330   39.9170 H   0  0  0  0  0  0  0  0  0  0  0  0
   36.8530   32.5010   37.3140 H   0  0  0  0  0  0  0  0  0  0  0  0
   43.2930   33.1140   37.9390 C   0  0  0  0  0  0  0  0  0  0  0  0
   42.0210   33.0390   38.5280 C   0  0  0  0  0  0  0  0  0  0  0  0
   41.1510   31.9700   38.1690 C   0  0  0  0  0  0  0  0  0  0  0  0
   41.6050   31.0730   37.2680 N   0  0  0  0  0  0  0  0  0  0  0  0
   42.8410   31.1710   36.7130 C   0  0  0  0  0  0  0  0  0  0  0  0
   43.6820   32.1870   37.0460 N   0  0  0  0  0  0  0  0  0  0  0  0
   43.8440   33.9710   38.3010 H   0  0  0  0  0  0  0  0  0  0  0  0
   41.6210   33.7350   39.2530 H   0  0  0  0  0  0  0  0  0  0  0  0
   43.1890   30.4320   35.9810 H   0  0  0  0  0  0  0  0  0  0  0  0
   39.0920   32.4040   36.5100 O   0  0  0  0  0  0  0  0  0  0  0  0
   38.7180   32.0150   35.7000 H   0  0  0  0  0  0  0  0  0  0  0  0
   36.9950   34.0550   39.0930 O   0  0  0  0  0  0  0  0  0  0  0  0
   37.1620   34.1970   38.1260 H   0  0  0  0  0  0  0  0  0  0  0  0
   36.6430   30.7010   38.1640 O   0  0  0  0  0  0  0  0  0  0  0  0
   36.7030   29.7540   39.1720 C   0  0  0  0  0  0  0  0  0  0  0  0
   35.6060   29.6100   39.9960 C   0  0  0  0  0  0  0  0  0  0  0  0
   34.7300   30.2390   39.8330 H   0  0  0  0  0  0  0  0  0  0  0  0
   35.5530   28.7000   41.0310 C   0  0  0  0  0  0  0  0  0  0  0  0
   34.6770   28.6230   41.6480 H   0  0  0  0  0  0  0  0  0  0  0  0
   36.6420   27.8830   41.2710 C   0  0  0  0  0  3  0  0  0  0  0  0
   37.7370   28.0440   40.4290 C   0  0  0  0  0  3  0  0  0  0  0  0
   37.7680   28.9380   39.4260 N   0  0  0  0  0  0  0  0  0  0  0  0
  1  7  1  6  0  0  0
  1  6  1  0  0  0  0
  1  2  1  0  0  0  0
  2  8  1  1  0  0  0
  2  3  1  0  0  0  0
  3  4  1  0  0  0  0
  4 10  1  0  0  0  0
  4  9  1  0  0  0  0
  5 11  1  1  0  0  0
  5  4  1  0  0  0  0
  6 12  1  6  0  0  0
  6 26  1  0  0  0  0
  6  5  1  0  0  0  0
 13 19  1  0  0  0  0
 13 14  1  0  0  0  0
 14 20  1  0  0  0  0
 15 14  2  0  0  0  0
 15  2  1  0  0  0  0
 16 15  1  0  0  0  0
 17 18  1  0  0  0  0
 17 16  2  0  0  0  0
 18 13  2  0  0  0  0
 21 17  1  0  0  0  0
 22  1  1  0  0  0  0
 23 22  1  0  0  0  0
 24  5  1  0  0  0  0
 25 24  1  0  0  0  0
 26 27  1  0  0  0  0
 27 34  2  0  0  0  0
 27 28  1  0  0  0  0
 28 30  2  0  0  0  0
 29 28  1  0  0  0  0
 30 32  1  0  0  0  0
 30 31  1  0  0  0  0
 33 32  2  0  0  0  0
 34 33  1  0  0  0  0
M  END
>  <minimizedAffinity>
-5.65118456

$$$$

 OpenBabel03242521293D

 34 36  0  0  1  0  0  0  0  0999 V2000
   39.2340   31.7120   38.1190 C   0  0  1  0  0  0  0  0  0  0  0  0
   40.1810   32.3030   39.1370 C   0  0  2  0  0  0  0  0  0  0  0  0
   39.6700   33.4450   39.7180 O   0  0  0  0  0  0  0  0  0  0  0  0
   38.6330   33.0320   40.5390 C   0  0  0  0  0  0  0  0  0  0  0  0
   37.4730   32.6350   39.6690 C   0  0  2  0  0  0  0  0  0  0  0  0
   37.8130   31.6790   38.5580 C   0  0  2  0  0  0  0  0  0  0  0  0
   39.5700   30.6400   37.9900 H   0  0  0  0  0  0  0  0  0  0  0  0
   40.2920   31.5130   39.9220 H   0  0  0  0  0  0  0  0  0  0  0  0
   38.3070   33.9190   41.1190 H   0  0  0  0  0  0  0  0  0  0  0  0
   38.9270   32.2290   41.2420 H   0  0  0  0  0  0  0  0  0  0  0  0
   36.6710   32.1710   40.2880 H   0  0  0  0  0  0  0  0  0  0  0  0
   37.1810   32.0140   37.6810 H   0  0  0  0  0  0  0  0  0  0  0  0
   43.2770   34.1610   37.9820 C   0  0  0  0  0  0  0  0  0  0  0  0
   42.0450   33.9060   38.6040 C   0  0  0  0  0  0  0  0  0  0  0  0
   41.4760   32.6030   38.5110 C   0  0  0  0  0  0  0  0  0  0  0  0
   42.1650   31.6700   37.8190 N   0  0  0  0  0  0  0  0  0  0  0  0
   43.3560   31.9460   37.2260 C   0  0  0  0  0  0  0  0  0  0  0  0
   43.9110   33.1860   37.3070 N   0  0  0  0  0  0  0  0  0  0  0  0
   43.5900   35.1850   38.1330 H   0  0  0  0  0  0  0  0  0  0  0  0
   41.4630   34.6230   39.1660 H   0  0  0  0  0  0  0  0  0  0  0  0
   43.8980   31.1730   36.6670 H   0  0  0  0  0  0  0  0  0  0  0  0
   39.3960   32.2850   36.8520 O   0  0  0  0  0  0  0  0  0  0  0  0
   39.1290   31.6930   36.1270 H   0  0  0  0  0  0  0  0  0  0  0  0
   36.9470   33.8360   39.1740 O   0  0  0  0  0  0  0  0  0  0  0  0
   37.0920   33.8480   38.1940 H   0  0  0  0  0  0  0  0  0  0  0  0
   37.3660   30.3810   38.8230 O   0  0  0  0  0  0  0  0  0  0  0  0
   36.2270   29.7910   38.2970 C   0  0  0  0  0  0  0  0  0  0  0  0
   35.1910   29.4980   39.1580 C   0  0  0  0  0  0  0  0  0  0  0  0
   35.2940   29.7350   40.2190 H   0  0  0  0  0  0  0  0  0  0  0  0
   34.0120   28.9120   38.7480 C   0  0  0  0  0  0  0  0  0  0  0  0
   33.2310   28.7010   39.4550 H   0  0  0  0  0  0  0  0  0  0  0  0
   33.8410   28.5950   37.4140 C   0  0  0  0  0  3  0  0  0  0  0  0
   34.8980   28.9000   36.5630 C   0  0  0  0  0  3  0  0  0  0  0  0
   36.0390   29.4710   36.9840 N   0  0  0  0  0  0  0  0  0  0  0  0
  1  7  1  6  0  0  0
  1  6  1  0  0  0  0
  1  2  1  0  0  0  0
  2  3  1  0  0  0  0
  2  8  1  1  0  0  0
  3  4  1  0  0  0  0
  4  9  1  0  0  0  0
  4 10  1  0  0  0  0
  5 11  1  1  0  0  0
  5  4  1  0  0  0  0
  6 12  1  6  0  0  0
  6 26  1  0  0  0  0
  6  5  1  0  0  0  0
 13 19  1  0  0  0  0
 13 14  1  0  0  0  0
 14 20  1  0  0  0  0
 15 14  2  0  0  0  0
 15  2  1  0  0  0  0
 16 15  1  0  0  0  0
 17 18  1  0  0  0  0
 17 16  2  0  0  0  0
 18 13  2  0  0  0  0
 21 17  1  0  0  0  0
 22  1  1  0  0  0  0
 23 22  1  0  0  0  0
 24  5  1  0  0  0  0
 25 24  1  0  0  0  0
 27 26  1  0  0  0  0
 27 28  1  0  0  0  0
 28 29  1  0  0  0  0
 30 28  2  0  0  0  0
 30 31  1  0  0  0  0
 32 30  1  0  0  0  0
 33 34  1  0  0  0  0
 33 32  2  0  0  0  0
 34 27  2  0  0  0  0
M  END
>  <minimizedAffinity>
-5.46037197

$$$$

 OpenBabel03242521293D

 34 36  0  0  1  0  0  0  0  0999 V2000
   37.9390   30.7940   38.8850 C   0  0  1  0  0  0  0  0  0  0  0  0
   39.3460   31.2190   39.2350 C   0  0  2  0  0  0  0  0  0  0  0  0
   39.4820   32.5920   39.2550 O   0  0  0  0  0  0  0  0  0  0  0  0
   38.7910   33.0350   40.3730 C   0  0  0  0  0  0  0  0  0  0  0  0
   37.3200   32.9170   40.0930 C   0  0  2  0  0  0  0  0  0  0  0  0
   36.8780   31.5760   39.5730 C   0  0  2  0  0  0  0  0  0  0  0  0
   37.8550   29.7250   39.2440 H   0  0  0  0  0  0  0  0  0  0  0  0
   39.5200   30.8210   40.2660 H   0  0  0  0  0  0  0  0  0  0  0  0
   39.0100   34.1160   40.4810 H   0  0  0  0  0  0  0  0  0  0  0  0
   39.0870   32.5110   41.3020 H   0  0  0  0  0  0  0  0  0  0  0  0
   36.7350   33.1350   41.0170 H   0  0  0  0  0  0  0  0  0  0  0  0
   36.0800   31.8090   38.8060 H   0  0  0  0  0  0  0  0  0  0  0  0
   42.2030   30.8680   36.7680 C   0  0  0  0  0  0  0  0  0  0  0  0
   41.3130   31.4490   37.6840 C   0  0  0  0  0  0  0  0  0  0  0  0
   40.3040   30.6410   38.2830 C   0  0  0  0  0  0  0  0  0  0  0  0
   40.2580   29.3390   37.9300 N   0  0  0  0  0  0  0  0  0  0  0  0
   41.1330   28.8020   37.0390 C   0  0  0  0  0  0  0  0  0  0  0  0
   42.1010   29.5620   36.4600 N   0  0  0  0  0  0  0  0  0  0  0  0
   42.9130   31.5920   36.3940 H   0  0  0  0  0  0  0  0  0  0  0  0
   41.3160   32.4860   37.9930 H   0  0  0  0  0  0  0  0  0  0  0  0
   41.0770   27.7410   36.7650 H   0  0  0  0  0  0  0  0  0  0  0  0
   37.7420   30.7140   37.5010 O   0  0  0  0  0  0  0  0  0  0  0  0
   37.0410   30.0870   37.2490 H   0  0  0  0  0  0  0  0  0  0  0  0
   37.0270   33.9450   39.1870 O   0  0  0  0  0  0  0  0  0  0  0  0
   36.7610   33.5250   38.3300 H   0  0  0  0  0  0  0  0  0  0  0  0
   36.2070   30.8270   40.5440 O   0  0  0  0  0  0  0  0  0  0  0  0
   36.7750   29.8650   41.3640 C   0  0  0  0  0  0  0  0  0  0  0  0
   36.2760   28.5810   41.3020 C   0  0  0  0  0  0  0  0  0  0  0  0
   35.4550   28.3590   40.6180 H   0  0  0  0  0  0  0  0  0  0  0  0
   36.7620   27.5440   42.0690 C   0  0  0  0  0  0  0  0  0  0  0  0
   36.3410   26.5580   41.9880 H   0  0  0  0  0  0  0  0  0  0  0  0
   37.8020   27.7820   42.9490 C   0  0  0  0  0  3  0  0  0  0  0  0
   38.2910   29.0820   42.9950 C   0  0  0  0  0  3  0  0  0  0  0  0
   37.8010   30.0790   42.2380 N   0  0  0  0  0  0  0  0  0  0  0  0
  1  2  1  0  0  0  0
  1  7  1  1  0  0  0
  1  6  1  0  0  0  0
  2  3  1  0  0  0  0
  2  8  1  1  0  0  0
  3  4  1  0  0  0  0
  4  9  1  0  0  0  0
  4 10  1  0  0  0  0
  5  4  1  0  0  0  0
  5 11  1  1  0  0  0
  6 12  1  6  0  0  0
  6  5  1  0  0  0  0
  6 26  1  0  0  0  0
 13 14  1  0  0  0  0
 14 20  1  0  0  0  0
 14 15  2  0  0  0  0
 15  2  1  0  0  0  0
 16 15  1  0  0  0  0
 17 16  2  0  0  0  0
 18 13  2  0  0  0  0
 18 17  1  0  0  0  0
 19 13  1  0  0  0  0
 21 17  1  0  0  0  0
 22  1  1  0  0  0  0
 23 22  1  0  0  0  0
 24  5  1  0  0  0  0
 25 24  1  0  0  0  0
 26 27  1  0  0  0  0
 27 34  1  0  0  0  0
 28 27  2  0  0  0  0
 28 30  1  0  0  0  0
 29 28  1  0  0  0  0
 30 32  2  0  0  0  0
 31 30  1  0  0  0  0
 32 33  1  0  0  0  0
 34 33  2  0  0  0  0
M  END
>  <minimizedAffinity>
-5.37794924

$$$$

 OpenBabel03242521293D

 34 36  0  0  1  0  0  0  0  0999 V2000
   35.5840   29.1770   40.3050 C   0  0  1  0  0  0  0  0  0  0  0  0
   36.1250   29.1370   38.8940 C   0  0  2  0  0  0  0  0  0  0  0  0
   36.4590   30.3930   38.4330 O   0  0  0  0  0  0  0  0  0  0  0  0
   37.5920   30.7760   39.1340 C   0  0  0  0  0  0  0  0  0  0  0  0
   37.1840   31.1100   40.5410 C   0  0  2  0  0  0  0  0  0  0  0  0
   36.3470   30.0630   41.2240 C   0  0  2  0  0  0  0  0  0  0  0  0
   35.6900   28.1200   40.6920 H   0  0  0  0  0  0  0  0  0  0  0  0
   37.0520   28.5130   38.9580 H   0  0  0  0  0  0  0  0  0  0  0  0
   37.9540   31.7180   38.6750 H   0  0  0  0  0  0  0  0  0  0  0  0
   38.4020   30.0210   39.0970 H   0  0  0  0  0  0  0  0  0  0  0  0
   38.0870   31.2910   41.1690 H   0  0  0  0  0  0  0  0  0  0  0  0
   35.5940   30.6450   41.8350 H   0  0  0  0  0  0  0  0  0  0  0  0
   34.1810   26.5620   36.9030 C   0  0  0  0  0  0  0  0  0  0  0  0
   35.1250   27.1140   37.7830 C   0  0  0  0  0  0  0  0  0  0  0  0
   35.1420   28.5230   37.9910 C   0  0  0  0  0  0  0  0  0  0  0  0
   34.2340   29.2630   37.3190 N   0  0  0  0  0  0  0  0  0  0  0  0
   33.3320   28.7020   36.4730 C   0  0  0  0  0  0  0  0  0  0  0  0
   33.3050   27.3570   36.2640 N   0  0  0  0  0  0  0  0  0  0  0  0
   34.2820   25.4870   36.8410 H   0  0  0  0  0  0  0  0  0  0  0  0
   35.8680   26.5570   38.3390 H   0  0  0  0  0  0  0  0  0  0  0  0
   32.6030   29.3220   35.9360 H   0  0  0  0  0  0  0  0  0  0  0  0
   34.2060   29.4240   40.3350 O   0  0  0  0  0  0  0  0  0  0  0  0
   33.7690   29.0670   41.1280 H   0  0  0  0  0  0  0  0  0  0  0  0
   36.5100   32.3350   40.4550 O   0  0  0  0  0  0  0  0  0  0  0  0
   35.5630   32.1770   40.7020 H   0  0  0  0  0  0  0  0  0  0  0  0
   37.0750   29.3430   42.1770 O   0  0  0  0  0  0  0  0  0  0  0  0
   37.6110   28.0780   42.0040 C   0  0  0  0  0  0  0  0  0  0  0  0
   36.9390   27.0060   42.5540 C   0  0  0  0  0  0  0  0  0  0  0  0
   36.0130   27.1820   43.1050 H   0  0  0  0  0  0  0  0  0  0  0  0
   37.3770   25.7040   42.4460 C   0  0  0  0  0  0  0  0  0  0  0  0
   36.8210   24.9000   42.8910 H   0  0  0  0  0  0  0  0  0  0  0  0
   38.5450   25.4370   41.7560 C   0  0  0  0  0  3  0  0  0  0  0  0
   39.2060   26.5310   41.2090 C   0  0  0  0  0  3  0  0  0  0  0  0
   38.7620   27.7940   41.3270 N   0  0  0  0  0  0  0  0  0  0  0  0
  1 22  1  0  0  0  0
  1  7  1  1  0  0  0
  1  6  1  0  0  0  0
  2  8  1  6  0  0  0
  2  1  1  0  0  0  0
  3  2  1  0  0  0  0
  3  4  1  0  0  0  0
  4  5  1  0  0  0  0
  5 11  1  1  0  0  0
  5  6  1  0  0  0  0
  6 12  1  1  0  0  0
  6 26  1  0  0  0  0
  9  4  1  0  0  0  0
 10  4  1  0  0  0  0
 13 14  1  0  0  0  0
 14 15  2  0  0  0  0
 14 20  1  0  0  0  0
 15  2  1  0  0  0  0
 16 15  1  0  0  0  0
 17 16  2  0  0  0  0
 18 17  1  0  0  0  0
 18 13  2  0  0  0  0
 19 13  1  0  0  0  0
 21 17  1  0  0  0  0
 22 23  1  0  0  0  0
 24  5  1  0  0  0  0
 24 25  1  0  0  0  0
 27 26  1  0  0  0  0
 27 28  1  0  0  0  0
 28 29  1  0  0  0  0
 30 28  2  0  0  0  0
 30 31  1  0  0  0  0
 32 30  1  0  0  0  0
 33 34  1  0  0  0  0
 33 32  2  0  0  0  0
 34 27  2  0  0  0  0
M  END
>  <minimizedAffinity>
-5.34548283

$$$$

 OpenBabel03242521293D

 34 36  0  0  1  0  0  0  0  0999 V2000
   39.0500   27.7880   41.3150 C   0  0  1  0  0  0  0  0  0  0  0  0
   37.8000   27.1180   40.7940 C   0  0  2  0  0  0  0  0  0  0  0  0
   36.7230   27.3070   41.6360 O   0  0  0  0  0  0  0  0  0  0  0  0
   36.3680   28.6420   41.5190 C   0  0  0  0  0  0  0  0  0  0  0  0
   37.4060   29.4680   42.2260 C   0  0  2  0  0  0  0  0  0  0  0  0
   38.8280   29.1600   41.8450 C   0  0  2  0  0  0  0  0  0  0  0  0
   39.7310   27.8810   40.4170 H   0  0  0  0  0  0  0  0  0  0  0  0
   37.5900   27.6180   39.8160 H   0  0  0  0  0  0  0  0  0  0  0  0
   35.4200   28.7750   42.0780 H   0  0  0  0  0  0  0  0  0  0  0  0
   36.2180   28.9620   40.4700 H   0  0  0  0  0  0  0  0  0  0  0  0
   37.2270   30.5520   42.0380 H   0  0  0  0  0  0  0  0  0  0  0  0
   39.4140   29.2480   42.8090 H   0  0  0  0  0  0  0  0  0  0  0  0
   37.4290   23.3510   41.0100 C   0  0  0  0  0  0  0  0  0  0  0  0
   37.1670   24.7170   41.1980 C   0  0  0  0  0  0  0  0  0  0  0  0
   38.0350   25.6800   40.6070 C   0  0  0  0  0  0  0  0  0  0  0  0
   39.0800   25.2180   39.8880 N   0  0  0  0  0  0  0  0  0  0  0  0
   39.3100   23.8890   39.7230 C   0  0  0  0  0  0  0  0  0  0  0  0
   38.4890   22.9590   40.2820 N   0  0  0  0  0  0  0  0  0  0  0  0
   36.6940   22.7360   41.5110 H   0  0  0  0  0  0  0  0  0  0  0  0
   36.3420   25.1280   41.7650 H   0  0  0  0  0  0  0  0  0  0  0  0
   40.1660   23.5350   39.1350 H   0  0  0  0  0  0  0  0  0  0  0  0
   39.7550   26.9710   42.2060 O   0  0  0  0  0  0  0  0  0  0  0  0
   40.7070   27.1700   42.2380 H   0  0  0  0  0  0  0  0  0  0  0  0
   37.1810   29.2610   43.5940 O   0  0  0  0  0  0  0  0  0  0  0  0
   37.9680   28.7820   43.9600 H   0  0  0  0  0  0  0  0  0  0  0  0
   39.3800   30.1470   41.0210 O   0  0  0  0  0  0  0  0  0  0  0  0
   38.6910   31.2000   40.4430 C   0  0  0  0  0  0  0  0  0  0  0  0
   37.9870   30.9580   39.2820 C   0  0  0  0  0  0  0  0  0  0  0  0
   37.9910   29.9530   38.8550 H   0  0  0  0  0  0  0  0  0  0  0  0
   37.2660   31.9280   38.6200 C   0  0  0  0  0  0  0  0  0  0  0  0
   36.7310   31.6940   37.7180 H   0  0  0  0  0  0  0  0  0  0  0  0
   37.2340   33.2140   39.1280 C   0  0  0  0  0  3  0  0  0  0  0  0
   37.9500   33.4360   40.2980 C   0  0  0  0  0  3  0  0  0  0  0  0
   38.6480   32.4750   40.9280 N   0  0  0  0  0  0  0  0  0  0  0  0
  1  7  1  6  0  0  0
  1  6  1  0  0  0  0
  1 22  1  0  0  0  0
  2  8  1  6  0  0  0
  2  1  1  0  0  0  0
  2  3  1  0  0  0  0
  4  3  1  0  0  0  0
  4  9  1  0  0  0  0
  4  5  1  0  0  0  0
  5 11  1  6  0  0  0
  5 24  1  0  0  0  0
  6  5  1  0  0  0  0
  6 12  1  1  0  0  0
 10  4  1  0  0  0  0
 13 14  1  0  0  0  0
 13 19  1  0  0  0  0
 14 20  1  0  0  0  0
 15  2  1  0  0  0  0
 15 14  2  0  0  0  0
 16 15  1  0  0  0  0
 17 16  2  0  0  0  0
 17 18  1  0  0  0  0
 18 13  2  0  0  0  0
 21 17  1  0  0  0  0
 22 23  1  0  0  0  0
 24 25  1  0  0  0  0
 26  6  1  0  0  0  0
 27 34  1  0  0  0  0
 27 26  1  0  0  0  0
 28 27  2  0  0  0  0
 29 28  1  0  0  0  0
 30 32  2  0  0  0  0
 30 28  1  0  0  0  0
 31 30  1  0  0  0  0
 32 33  1  0  0  0  0
 33 34  2  0  0  0  0
M  END
>  <minimizedAffinity>
-5.31287241

$$$$

 OpenBabel03242521293D

 34 36  0  0  1  0  0  0  0  0999 V2000
   36.0020   28.3770   39.6420 C   0  0  1  0  0  0  0  0  0  0  0  0
   37.1230   29.0370   38.8720 C   0  0  2  0  0  0  0  0  0  0  0  0
   37.2310   30.3800   39.1670 O   0  0  0  0  0  0  0  0  0  0  0  0
   37.7260   30.4550   40.4600 C   0  0  0  0  0  0  0  0  0  0  0  0
   36.6280   30.0630   41.4070 C   0  0  2  0  0  0  0  0  0  0  0  0
   35.9350   28.7700   41.0740 C   0  0  2  0  0  0  0  0  0  0  0  0
   36.2330   27.2700   39.6070 H   0  0  0  0  0  0  0  0  0  0  0  0
   38.0530   28.5140   39.2080 H   0  0  0  0  0  0  0  0  0  0  0  0
   37.9530   31.5220   40.6580 H   0  0  0  0  0  0  0  0  0  0  0  0
   38.6460   29.8560   40.6080 H   0  0  0  0  0  0  0  0  0  0  0  0
   37.0280   29.9800   42.4440 H   0  0  0  0  0  0  0  0  0  0  0  0
   34.8460   28.9490   41.3240 H   0  0  0  0  0  0  0  0  0  0  0  0
   36.5860   29.7900   35.1950 C   0  0  0  0  0  0  0  0  0  0  0  0
   36.7940   29.9930   36.5680 C   0  0  0  0  0  0  0  0  0  0  0  0
   36.9170   28.8630   37.4270 C   0  0  0  0  0  0  0  0  0  0  0  0
   36.8250   27.6390   36.8640 N   0  0  0  0  0  0  0  0  0  0  0  0
   36.6220   27.4720   35.5310 C   0  0  0  0  0  0  0  0  0  0  0  0
   36.5020   28.5420   34.6990 N   0  0  0  0  0  0  0  0  0  0  0  0
   36.5110   30.7290   34.6650 H   0  0  0  0  0  0  0  0  0  0  0  0
   36.8750   30.9540   37.0570 H   0  0  0  0  0  0  0  0  0  0  0  0
   36.5480   26.4690   35.0950 H   0  0  0  0  0  0  0  0  0  0  0  0
   34.7700   28.4980   38.9880 O   0  0  0  0  0  0  0  0  0  0  0  0
   34.1470   27.7840   39.2100 H   0  0  0  0  0  0  0  0  0  0  0  0
   35.7340   31.1420   41.4120 O   0  0  0  0  0  0  0  0  0  0  0  0
   34.8820   30.8300   41.0130 H   0  0  0  0  0  0  0  0  0  0  0  0
   36.3130   27.7310   41.9310 O   0  0  0  0  0  0  0  0  0  0  0  0
   37.6070   27.2840   42.1430 C   0  0  0  0  0  0  0  0  0  0  0  0
   38.2070   27.5770   43.3500 C   0  0  0  0  0  0  0  0  0  0  0  0
   37.6520   28.1470   44.0980 H   0  0  0  0  0  0  0  0  0  0  0  0
   39.4880   27.1840   43.6720 C   0  0  0  0  0  0  0  0  0  0  0  0
   39.9150   27.4350   44.6250 H   0  0  0  0  0  0  0  0  0  0  0  0
   40.2250   26.4590   42.7530 C   0  0  0  0  0  3  0  0  0  0  0  0
   39.6020   26.1750   41.5440 C   0  0  0  0  0  3  0  0  0  0  0  0
   38.3510   26.5680   41.2500 N   0  0  0  0  0  0  0  0  0  0  0  0
  1  7  1  6  0  0  0
  1  6  1  0  0  0  0
  2  3  1  0  0  0  0
  2  8  1  1  0  0  0
  2  1  1  0  0  0  0
  3  4  1  0  0  0  0
  4 10  1  0  0  0  0
  4  9  1  0  0  0  0
  4  5  1  0  0  0  0
  5 24  1  0  0  0  0
  5 11  1  1  0  0  0
  6 12  1  1  0  0  0
  6  5  1  0  0  0  0
  6 26  1  0  0  0  0
 13 14  1  0  0  0  0
 14 20  1  0  0  0  0
 14 15  2  0  0  0  0
 15  2  1  0  0  0  0
 16 15  1  0  0  0  0
 17 16  2  0  0  0  0
 18 13  2  0  0  0  0
 18 17  1  0  0  0  0
 19 13  1  0  0  0  0
 21 17  1  0  0  0  0
 22 23  1  0  0  0  0
 22  1  1  0  0  0  0
 25 24  1  0  0  0  0
 26 27  1  0  0  0  0
 27 28  1  0  0  0  0
 28 30  2  0  0  0  0
 28 29  1  0  0  0  0
 30 31  1  0  0  0  0
 32 30  1  0  0  0  0
 33 32  2  0  0  0  0
 34 33  1  0  0  0  0
 34 27  2  0  0  0  0
M  END
>  <minimizedAffinity>
-5.23157215

$$$$

 OpenBabel03242521293D

 34 36  0  0  1  0  0  0  0  0999 V2000
   37.5280   27.7800   40.8610 C   0  0  1  0  0  0  0  0  0  0  0  0
   37.9790   29.1620   41.2770 C   0  0  2  0  0  0  0  0  0  0  0  0
   37.3010   29.6130   42.3910 O   0  0  0  0  0  0  0  0  0  0  0  0
   37.7620   28.8580   43.4580 C   0  0  0  0  0  0  0  0  0  0  0  0
   37.1860   27.4750   43.3390 C   0  0  2  0  0  0  0  0  0  0  0  0
   37.3600   26.8290   41.9910 C   0  0  2  0  0  0  0  0  0  0  0  0
   38.3610   27.3820   40.2070 H   0  0  0  0  0  0  0  0  0  0  0  0
   39.0620   29.0480   41.5300 H   0  0  0  0  0  0  0  0  0  0  0  0
   37.3340   29.3030   44.3790 H   0  0  0  0  0  0  0  0  0  0  0  0
   38.8660   28.8490   43.5400 H   0  0  0  0  0  0  0  0  0  0  0  0
   37.6410   26.8030   44.1030 H   0  0  0  0  0  0  0  0  0  0  0  0
   36.3990   26.2600   41.8140 H   0  0  0  0  0  0  0  0  0  0  0  0
   37.0500   32.2690   39.3140 C   0  0  0  0  0  0  0  0  0  0  0  0
   37.2220   31.3930   40.3970 C   0  0  0  0  0  0  0  0  0  0  0  0
   37.7970   30.1100   40.1690 C   0  0  0  0  0  0  0  0  0  0  0  0
   38.1520   29.8020   38.9030 N   0  0  0  0  0  0  0  0  0  0  0  0
   37.9740   30.6700   37.8740 C   0  0  0  0  0  0  0  0  0  0  0  0
   37.4250   31.8980   38.0760 N   0  0  0  0  0  0  0  0  0  0  0  0
   36.6050   33.2030   39.6290 H   0  0  0  0  0  0  0  0  0  0  0  0
   36.9520   31.6010   41.4230 H   0  0  0  0  0  0  0  0  0  0  0  0
   38.2680   30.3990   36.8520 H   0  0  0  0  0  0  0  0  0  0  0  0
   36.4110   27.8220   40.0170 O   0  0  0  0  0  0  0  0  0  0  0  0
   36.3470   27.0490   39.4280 H   0  0  0  0  0  0  0  0  0  0  0  0
   35.8330   27.6010   43.6800 O   0  0  0  0  0  0  0  0  0  0  0  0
   35.2970   27.4020   42.8700 H   0  0  0  0  0  0  0  0  0  0  0  0
   38.3450   25.8360   42.0040 O   0  0  0  0  0  0  0  0  0  0  0  0
   38.4620   24.7960   41.0970 C   0  0  0  0  0  0  0  0  0  0  0  0
   37.5820   23.7400   41.2030 C   0  0  0  0  0  0  0  0  0  0  0  0
   36.8260   23.7510   41.9900 H   0  0  0  0  0  0  0  0  0  0  0  0
   37.6030   22.6510   40.3570 C   0  0  0  0  0  0  0  0  0  0  0  0
   36.8970   21.8500   40.4770 H   0  0  0  0  0  0  0  0  0  0  0  0
   38.5450   22.5970   39.3460 C   0  0  0  0  0  3  0  0  0  0  0  0
   39.4220   23.6720   39.2570 C   0  0  0  0  0  3  0  0  0  0  0  0
   39.3840   24.7240   40.0930 N   0  0  0  0  0  0  0  0  0  0  0  0
  1  7  1  6  0  0  0
  1  2  1  0  0  0  0
  1  6  1  0  0  0  0
  2  8  1  1  0  0  0
  2  3  1  0  0  0  0
  3  4  1  0  0  0  0
  4 10  1  0  0  0  0
  4  9  1  0  0  0  0
  5  4  1  0  0  0  0
  5 24  1  0  0  0  0
  5 11  1  1  0  0  0
  6 12  1  6  0  0  0
  6 26  1  0  0  0  0
  6  5  1  0  0  0  0
 13 19  1  0  0  0  0
 13 14  1  0  0  0  0
 14 20  1  0  0  0  0
 15 14  2  0  0  0  0
 15  2  1  0  0  0  0
 16 15  1  0  0  0  0
 17 18  1  0  0  0  0
 17 16  2  0  0  0  0
 18 13  2  0  0  0  0
 21 17  1  0  0  0  0
 22  1  1  0  0  0  0
 23 22  1  0  0  0  0
 25 24  1  0  0  0  0
 27 28  1  0  0  0  0
 27 26  1  0  0  0  0
 28 29  1  0  0  0  0
 30 31  1  0  0  0  0
 30 28  2  0  0  0  0
 32 30  1  0  0  0  0
 33 32  2  0  0  0  0
 33 34  1  0  0  0  0
 34 27  2  0  0  0  0
M  END
>  <minimizedAffinity>
-5.15881777

$$$$

 OpenBabel03242521293D

 34 36  0  0  1  0  0  0  0  0999 V2000
   37.9360   28.6760   41.9940 C   0  0  1  0  0  0  0  0  0  0  0  0
   37.6810   27.9460   40.6960 C   0  0  2  0  0  0  0  0  0  0  0  0
   36.5140   28.3620   40.0890 O   0  0  0  0  0  0  0  0  0  0  0  0
   36.7560   29.6450   39.6220 C   0  0  0  0  0  0  0  0  0  0  0  0
   36.7890   30.5760   40.8000 C   0  0  2  0  0  0  0  0  0  0  0  0
   37.6840   30.1400   41.9280 C   0  0  2  0  0  0  0  0  0  0  0  0
   39.0390   28.5330   42.2010 H   0  0  0  0  0  0  0  0  0  0  0  0
   38.5470   28.2110   40.0400 H   0  0  0  0  0  0  0  0  0  0  0  0
   35.8780   29.9370   39.0100 H   0  0  0  0  0  0  0  0  0  0  0  0
   37.6700   29.7170   39.0010 H   0  0  0  0  0  0  0  0  0  0  0  0
   37.1150   31.5920   40.4780 H   0  0  0  0  0  0  0  0  0  0  0  0
   37.1290   30.4300   42.8700 H   0  0  0  0  0  0  0  0  0  0  0  0
   36.6230   24.3090   40.5290 C   0  0  0  0  0  0  0  0  0  0  0  0
   36.6550   25.6880   40.2710 C   0  0  0  0  0  0  0  0  0  0  0  0
   37.6260   26.4960   40.9300 C   0  0  0  0  0  0  0  0  0  0  0  0
   38.4750   25.8810   41.7800 N   0  0  0  0  0  0  0  0  0  0  0  0
   38.4200   24.5430   42.0110 C   0  0  0  0  0  0  0  0  0  0  0  0
   37.4980   23.7600   41.3890 N   0  0  0  0  0  0  0  0  0  0  0  0
   35.8410   23.8210   39.9640 H   0  0  0  0  0  0  0  0  0  0  0  0
   35.9950   26.2190   39.5990 H   0  0  0  0  0  0  0  0  0  0  0  0
   39.1190   24.0630   42.7070 H   0  0  0  0  0  0  0  0  0  0  0  0
   37.2940   28.0640   43.0780 O   0  0  0  0  0  0  0  0  0  0  0  0
   37.7350   28.2320   43.9290 H   0  0  0  0  0  0  0  0  0  0  0  0
   35.4570   30.7020   41.2170 O   0  0  0  0  0  0  0  0  0  0  0  0
   35.3830   30.2950   42.1180 H   0  0  0  0  0  0  0  0  0  0  0  0
   38.8650   30.8870   41.9860 O   0  0  0  0  0  0  0  0  0  0  0  0
   39.4480   31.5670   40.9290 C   0  0  0  0  0  0  0  0  0  0  0  0
   39.2870   32.9360   40.8690 C   0  0  0  0  0  0  0  0  0  0  0  0
   38.7110   33.4410   41.6460 H   0  0  0  0  0  0  0  0  0  0  0  0
   39.8220   33.7150   39.8650 C   0  0  0  0  0  0  0  0  0  0  0  0
   39.6710   34.7790   39.8580 H   0  0  0  0  0  0  0  0  0  0  0  0
   40.5590   33.1150   38.8610 C   0  0  0  0  0  3  0  0  0  0  0  0
   40.7090   31.7350   38.9410 C   0  0  0  0  0  3  0  0  0  0  0  0
   40.1780   30.9940   39.9290 N   0  0  0  0  0  0  0  0  0  0  0  0
  1  7  1  1  0  0  0
  1 22  1  0  0  0  0
  2  8  1  6  0  0  0
  2 15  1  0  0  0  0
  2  1  1  0  0  0  0
  3  2  1  0  0  0  0
  4  3  1  0  0  0  0
  4  5  1  0  0  0  0
  5 11  1  6  0  0  0
  5 24  1  0  0  0  0
  5  6  1  0  0  0  0
  6 26  1  0  0  0  0
  6  1  1  0  0  0  0
  6 12  1  1  0  0  0
  9  4  1  0  0  0  0
 10  4  1  0  0  0  0
 13 18  1  0  0  0  0
 14 13  2  0  0  0  0
 14 15  1  0  0  0  0
 15 16  2  0  0  0  0
 16 17  1  0  0  0  0
 17 21  1  0  0  0  0
 18 17  2  0  0  0  0
 19 13  1  0  0  0  0
 20 14  1  0  0  0  0
 22 23  1  0  0  0  0
 24 25  1  0  0  0  0
 27 26  1  0  0  0  0
 28 27  1  0  0  0  0
 28 29  1  0  0  0  0
 30 28  2  0  0  0  0
 31 30  1  0  0  0  0
 32 33  2  0  0  0  0
 32 30  1  0  0  0  0
 33 34  1  0  0  0  0
 34 27  2  0  0  0  0
M  END
>  <minimizedAffinity>
-5.15171385

$$$$
