
 OpenBabel03242518283D

 20 21  0  0  0  0  0  0  0  0999 V2000
   48.3540   35.1000   41.6620 C   0  0  0  0  0  0  0  0  0  0  0  0
   48.7480   36.2700   41.8670 O   0  0  0  0  0  0  0  0  0  0  0  0
   49.1220   33.9260   41.4250 C   0  0  0  0  0  0  0  0  0  0  0  0
   50.1900   33.7950   42.3140 C   0  0  0  0  0  0  0  0  0  0  0  0
   51.0100   32.6550   42.1520 C   0  0  0  0  0  0  0  0  0  0  0  0
   50.7160   31.7730   41.1630 N   0  0  0  0  0  0  0  0  0  0  0  0
   49.6580   31.9620   40.3300 C   0  0  0  0  0  0  0  0  0  0  0  0
   48.8640   33.0470   40.4730 N   0  0  0  0  0  0  0  0  0  0  0  0
   50.4400   34.4760   43.1000 H   0  0  0  0  0  0  0  0  0  0  0  0
   51.8620   32.4630   42.7910 H   0  0  0  0  0  0  0  0  0  0  0  0
   49.5370   31.1840   39.5880 H   0  0  0  0  0  0  0  0  0  0  0  0
   46.9630   34.9140   41.6660 O   0  0  0  0  0  0  0  0  0  0  0  0
   46.2440   34.9580   42.8750 C   0  0  0  0  0  0  0  0  0  0  0  0
   45.3500   35.9850   43.0980 C   0  0  0  0  0  0  0  0  0  0  0  0
   45.2510   36.7220   42.3030 H   0  0  0  0  0  0  0  0  0  0  0  0
   44.6590   36.0080   44.2860 C   0  0  0  0  0  0  0  0  0  0  0  0
   43.9600   36.8220   44.4480 H   0  0  0  0  0  0  0  0  0  0  0  0
   44.8400   35.0330   45.2520 C   0  0  0  0  0  0  0  0  0  0  0  0
   45.7590   34.0360   44.9430 C   0  0  0  0  0  0  0  0  0  0  0  0
   46.4500   33.9810   43.7980 N   0  0  0  0  0  0  0  0  0  0  0  0
  1 12  1  0  0  0  0
  1  2  2  0  0  0  0
  3  1  1  0  0  0  0
  3  4  1  0  0  0  0
  4  9  1  0  0  0  0
  5  4  2  0  0  0  0
  5 10  1  0  0  0  0
  6  5  1  0  0  0  0
  7  8  1  0  0  0  0
  7  6  2  0  0  0  0
  8  3  2  0  0  0  0
 11  7  1  0  0  0  0
 12 13  1  0  0  0  0
 13 14  2  0  0  0  0
 13 20  1  0  0  0  0
 14 16  1  0  0  0  0
 15 14  1  0  0  0  0
 16 17  1  0  0  0  0
 16 18  2  0  0  0  0
 19 18  1  0  0  0  0
 20 19  2  0  0  0  0
M  END
>  <minimizedAffinity>
-4.47333384

>  <minimizedRMSD>
5.64154768

$$$$
