
 OpenBabel03252506343D

 32 34  0  0  1  0  0  0  0  0999 V2000
   44.4750   35.7160   44.9960 C   0  0  0  0  0  0  0  0  0  0  0  0
   45.1480   35.6890   43.7510 C   0  0  0  0  0  0  0  0  0  0  0  0
   46.0630   34.7100   43.5260 C   0  0  0  0  0  0  0  0  0  0  0  0
   46.2840   33.8110   44.5030 N   0  0  0  0  0  0  0  0  0  0  0  0
   45.6420   33.8430   45.6790 C   0  0  0  0  0  0  0  0  0  0  0  0
   44.7320   34.7870   45.9500 N   0  0  0  0  0  0  0  0  0  0  0  0
   45.9520   32.8460   46.6490 N   0  0  0  0  0  0  0  0  0  0  0  0
   45.1580   32.5470   47.8310 C   0  0  0  0  0  0  0  0  0  0  0  0
   46.2440   32.2700   48.8580 C   0  0  0  0  0  0  0  0  0  0  0  0
   47.5460   32.1350   48.1040 C   0  0  0  0  0  0  0  0  0  0  0  0
   47.0860   31.9420   46.6730 C   0  0  1  0  0  0  0  0  0  0  0  0
   43.7330   36.4490   45.2710 H   0  0  0  0  0  0  0  0  0  0  0  0
   46.5480   34.7200   42.5870 H   0  0  0  0  0  0  0  0  0  0  0  0
   44.4790   31.6890   47.6810 H   0  0  0  0  0  0  0  0  0  0  0  0
   44.5150   33.3990   48.1210 H   0  0  0  0  0  0  0  0  0  0  0  0
   46.2900   33.1670   49.5180 H   0  0  0  0  0  0  0  0  0  0  0  0
   45.9980   31.4080   49.4890 H   0  0  0  0  0  0  0  0  0  0  0  0
   48.2310   32.9730   48.2430 H   0  0  0  0  0  0  0  0  0  0  0  0
   47.9880   31.1620   48.4290 H   0  0  0  0  0  0  0  0  0  0  0  0
   47.8830   32.2540   45.9660 H   0  0  0  0  0  0  0  0  0  0  0  0
   44.7620   36.7390   42.8600 N   0  0  0  0  0  0  0  0  0  0  0  0
   45.5280   37.2340   42.3620 H   0  0  0  0  0  0  0  0  0  0  0  0
   43.7720   37.0020   42.7090 H   0  0  0  0  0  0  0  0  0  0  0  0
   46.5990   30.2200   46.4760 S   0  0  0  0  0  0  0  0  0  0  0  0
   45.7790   29.9220   44.9200 C   0  0  0  0  0  0  0  0  0  0  0  0
   46.4570   30.3420   43.7820 C   0  0  0  0  0  0  0  0  0  0  0  0
   47.4390   30.8310   43.8240 H   0  0  0  0  0  0  0  0  0  0  0  0
   45.8680   30.1370   42.5460 C   0  0  0  0  0  0  0  0  0  0  0  0
   46.3780   30.4550   41.6610 H   0  0  0  0  0  0  0  0  0  0  0  0
   44.6250   29.5230   42.4310 C   0  0  0  0  0  3  0  0  0  0  0  0
   43.9930   29.1230   43.5980 C   0  0  0  0  0  3  0  0  0  0  0  0
   44.5670   29.3230   44.8200 N   0  0  0  0  0  0  0  0  0  0  0  0
  1 12  1  0  0  0  0
  1  6  1  0  0  0  0
  2  1  2  0  0  0  0
  3  2  1  0  0  0  0
  3  4  2  0  0  0  0
  4  5  1  0  0  0  0
  5  6  2  0  0  0  0
  5  7  1  0  0  0  0
  7 11  1  0  0  0  0
  7  8  1  0  0  0  0
  8 15  1  0  0  0  0
  8  9  1  0  0  0  0
  9 17  1  0  0  0  0
  9 16  1  0  0  0  0
 10 18  1  0  0  0  0
 10 19  1  0  0  0  0
 10  9  1  0  0  0  0
 11 20  1  6  0  0  0
 11 10  1  0  0  0  0
 13  3  1  0  0  0  0
 14  8  1  0  0  0  0
 21  2  1  0  0  0  0
 22 21  1  0  0  0  0
 23 21  1  0  0  0  0
 24 11  1  0  0  0  0
 25 24  1  0  0  0  0
 26 27  1  0  0  0  0
 26 25  2  0  0  0  0
 28 26  1  0  0  0  0
 29 28  1  0  0  0  0
 30 28  2  0  0  0  0
 30 31  1  0  0  0  0
 31 32  2  0  0  0  0
 32 25  1  0  0  0  0
M  END
>  <minimizedAffinity>
-4.91561699

>  <minimizedRMSD>
0.144909248

$$$$
