
 OpenBabel03242517293D

 39 41  0  0  1  0  0  0  0  0999 V2000
   41.3450   29.1290   40.6720 C   0  0  0  0  0  0  0  0  0  0  0  0
   41.7990   29.3150   42.0010 C   0  0  0  0  0  0  0  0  0  0  0  0
   41.2840   30.4040   42.7390 C   0  0  0  0  0  0  0  0  0  0  0  0
   40.3830   31.2120   42.1320 N   0  0  0  0  0  0  0  0  0  0  0  0
   39.9580   31.0230   40.8600 C   0  0  0  0  0  0  0  0  0  0  0  0
   40.4530   29.9890   40.1740 N   0  0  0  0  0  0  0  0  0  0  0  0
   39.0250   31.9050   40.3100 N   0  0  0  0  0  0  0  0  0  0  0  0
   39.3180   33.3020   40.2260 C   0  0  0  0  0  0  0  0  0  0  0  0
   38.1170   34.1560   40.0120 C   0  0  0  0  0  0  0  0  0  0  0  0
   37.0660   33.5840   39.2350 N   0  0  0  0  0  0  0  0  0  0  0  0
   37.3840   32.3020   38.7000 C   0  0  0  0  0  0  0  0  0  0  0  0
   37.7590   31.3730   39.8280 C   0  0  2  0  0  0  0  0  0  0  0  0
   41.7680   28.2940   40.1710 H   0  0  0  0  0  0  0  0  0  0  0  0
   42.5120   28.7090   42.5430 H   0  0  0  0  0  0  0  0  0  0  0  0
   41.5750   30.6130   43.7490 H   0  0  0  0  0  0  0  0  0  0  0  0
   40.1020   33.4890   39.4510 H   0  0  0  0  0  0  0  0  0  0  0  0
   39.7830   33.5900   41.2040 H   0  0  0  0  0  0  0  0  0  0  0  0
   38.4170   35.1100   39.5260 H   0  0  0  0  0  0  0  0  0  0  0  0
   37.6880   34.4800   41.0020 H   0  0  0  0  0  0  0  0  0  0  0  0
   36.1220   33.6390   39.6310 H   0  0  0  0  0  0  0  0  0  0  0  0
   38.2820   32.3980   38.0480 H   0  0  0  0  0  0  0  0  0  0  0  0
   36.5610   31.9110   38.0970 H   0  0  0  0  0  0  0  0  0  0  0  0
   37.9680   30.3630   39.4110 H   0  0  0  0  0  0  0  0  0  0  0  0
   36.7080   31.3140   40.8890 C   0  0  0  0  0  0  0  0  0  0  0  0
   35.7950   31.8420   40.5680 H   0  0  0  0  0  0  0  0  0  0  0  0
   37.1430   31.7510   41.8280 H   0  0  0  0  0  0  0  0  0  0  0  0
   36.3250   29.8780   41.1000 C   0  0  0  0  0  3  0  0  0  0  0  0
   36.9100   29.1130   41.9980 C   0  0  0  0  0  3  0  0  0  0  0  0
   36.5580   27.6810   42.2390 C   0  0  0  0  0  0  0  0  0  0  0  0
   35.9590   27.2370   41.4240 H   0  0  0  0  0  0  0  0  0  0  0  0
   35.9020   27.6720   43.1420 H   0  0  0  0  0  0  0  0  0  0  0  0
   37.7380   26.8450   42.5610 C   0  0  0  0  0  0  0  0  0  0  0  0
   38.7020   27.5040   43.3200 C   0  0  0  0  0  0  0  0  0  0  0  0
   38.6160   28.5130   43.6470 H   0  0  0  0  0  0  0  0  0  0  0  0
   39.8450   26.8170   43.6780 C   0  0  0  0  0  0  0  0  0  0  0  0
   40.6700   27.2180   44.2680 H   0  0  0  0  0  0  0  0  0  0  0  0
   39.9620   25.5110   43.2580 C   0  0  0  0  0  3  0  0  0  0  0  0
   38.9650   24.9040   42.5000 C   0  0  0  0  0  3  0  0  0  0  0  0
   37.8490   25.5710   42.1500 N   0  0  0  0  0  0  0  0  0  0  0  0
  1  2  1  0  0  0  0
  2 14  1  0  0  0  0
  2  3  2  0  0  0  0
  3 15  1  0  0  0  0
  4  3  1  0  0  0  0
  5  4  2  0  0  0  0
  6  1  2  0  0  0  0
  6  5  1  0  0  0  0
  7  5  1  0  0  0  0
  8  7  1  0  0  0  0
  8 17  1  0  0  0  0
  9  8  1  0  0  0  0
  9 19  1  0  0  0  0
 10 20  1  0  0  0  0
 10  9  1  0  0  0  0
 11 10  1  0  0  0  0
 11 12  1  0  0  0  0
 12 23  1  6  0  0  0
 12  7  1  0  0  0  0
 12 24  1  0  0  0  0
 13  1  1  0  0  0  0
 16  8  1  0  0  0  0
 18  9  1  0  0  0  0
 21 11  1  0  0  0  0
 22 11  1  0  0  0  0
 24 27  1  0  0  0  0
 24 26  1  0  0  0  0
 25 24  1  0  0  0  0
 27 28  2  0  0  0  0
 28 29  1  0  0  0  0
 29 32  1  0  0  0  0
 29 31  1  0  0  0  0
 30 29  1  0  0  0  0
 32 33  1  0  0  0  0
 33 34  1  0  0  0  0
 33 35  2  0  0  0  0
 35 36  1  0  0  0  0
 37 35  1  0  0  0  0
 38 37  2  0  0  0  0
 39 38  1  0  0  0  0
 39 32  2  0  0  0  0
M  END
>  <minimizedAffinity>
-5.57482576

$$$$

 OpenBabel03242517293D

 39 41  0  0  1  0  0  0  0  0999 V2000
   39.7300   32.7990   40.7110 C   0  0  0  0  0  0  0  0  0  0  0  0
   39.0440   34.0390   40.6830 C   0  0  0  0  0  0  0  0  0  0  0  0
   37.8790   34.1430   39.8920 C   0  0  0  0  0  0  0  0  0  0  0  0
   37.4810   33.0480   39.2020 N   0  0  0  0  0  0  0  0  0  0  0  0
   38.1460   31.8690   39.2380 C   0  0  0  0  0  0  0  0  0  0  0  0
   39.2470   31.7850   39.9900 N   0  0  0  0  0  0  0  0  0  0  0  0
   37.6660   30.7870   38.4940 N   0  0  0  0  0  0  0  0  0  0  0  0
   37.5160   30.8990   37.0770 C   0  0  0  0  0  0  0  0  0  0  0  0
   36.6330   29.8570   36.4830 C   0  0  0  0  0  0  0  0  0  0  0  0
   36.6520   28.5780   37.1150 N   0  0  0  0  0  0  0  0  0  0  0  0
   37.6020   28.4780   38.1720 C   0  0  0  0  0  0  0  0  0  0  0  0
   37.3260   29.5560   39.1920 C   0  0  2  0  0  0  0  0  0  0  0  0
   40.5960   32.7850   41.3240 H   0  0  0  0  0  0  0  0  0  0  0  0
   39.3070   34.9470   41.2090 H   0  0  0  0  0  0  0  0  0  0  0  0
   37.3040   35.0440   39.8180 H   0  0  0  0  0  0  0  0  0  0  0  0
   38.5170   30.9250   36.5810 H   0  0  0  0  0  0  0  0  0  0  0  0
   37.0540   31.9020   36.8830 H   0  0  0  0  0  0  0  0  0  0  0  0
   36.8950   29.7100   35.4130 H   0  0  0  0  0  0  0  0  0  0  0  0
   35.5670   30.2210   36.4520 H   0  0  0  0  0  0  0  0  0  0  0  0
   35.7420   28.1670   37.3440 H   0  0  0  0  0  0  0  0  0  0  0  0
   38.6190   28.6750   37.7610 H   0  0  0  0  0  0  0  0  0  0  0  0
   37.5970   27.4790   38.6140 H   0  0  0  0  0  0  0  0  0  0  0  0
   38.0450   29.4500   40.0340 H   0  0  0  0  0  0  0  0  0  0  0  0
   35.9130   29.5300   39.6770 C   0  0  0  0  0  0  0  0  0  0  0  0
   35.2300   29.1870   38.8820 H   0  0  0  0  0  0  0  0  0  0  0  0
   35.6570   30.5610   40.0420 H   0  0  0  0  0  0  0  0  0  0  0  0
   35.8130   28.5310   40.7930 C   0  0  0  0  0  3  0  0  0  0  0  0
   36.6800   28.4850   41.7830 C   0  0  0  0  0  3  0  0  0  0  0  0
   36.6150   27.5080   42.9120 C   0  0  0  0  0  0  0  0  0  0  0  0
   35.6740   26.9310   42.9340 H   0  0  0  0  0  0  0  0  0  0  0  0
   36.6240   28.1160   43.8480 H   0  0  0  0  0  0  0  0  0  0  0  0
   37.7970   26.6180   42.9710 C   0  0  0  0  0  0  0  0  0  0  0  0
   37.6480   25.4360   42.2480 C   0  0  0  0  0  0  0  0  0  0  0  0
   36.7740   25.1810   41.6980 H   0  0  0  0  0  0  0  0  0  0  0  0
   38.6910   24.5320   42.2340 C   0  0  0  0  0  0  0  0  0  0  0  0
   38.6990   23.5770   41.7080 H   0  0  0  0  0  0  0  0  0  0  0  0
   39.8260   24.8570   42.9440 C   0  0  0  0  0  3  0  0  0  0  0  0
   39.9180   26.0530   43.6500 C   0  0  0  0  0  3  0  0  0  0  0  0
   38.9030   26.9370   43.6640 N   0  0  0  0  0  0  0  0  0  0  0  0
  1 13  1  0  0  0  0
  2  1  1  0  0  0  0
  2 14  1  0  0  0  0
  3  2  2  0  0  0  0
  4  5  2  0  0  0  0
  4  3  1  0  0  0  0
  5  6  1  0  0  0  0
  6  1  2  0  0  0  0
  7 12  1  0  0  0  0
  7  5  1  0  0  0  0
  8  7  1  0  0  0  0
  9  8  1  0  0  0  0
  9 10  1  0  0  0  0
 10 20  1  0  0  0  0
 10 11  1  0  0  0  0
 11 22  1  0  0  0  0
 11 12  1  0  0  0  0
 12 24  1  0  0  0  0
 12 23  1  1  0  0  0
 15  3  1  0  0  0  0
 16  8  1  0  0  0  0
 17  8  1  0  0  0  0
 18  9  1  0  0  0  0
 19  9  1  0  0  0  0
 21 11  1  0  0  0  0
 24 26  1  0  0  0  0
 24 27  1  0  0  0  0
 25 24  1  0  0  0  0
 27 28  2  0  0  0  0
 28 29  1  0  0  0  0
 29 30  1  0  0  0  0
 29 32  1  0  0  0  0
 29 31  1  0  0  0  0
 32 39  1  0  0  0  0
 33 32  2  0  0  0  0
 34 33  1  0  0  0  0
 35 33  1  0  0  0  0
 35 37  2  0  0  0  0
 36 35  1  0  0  0  0
 37 38  1  0  0  0  0
 38 39  2  0  0  0  0
M  END
>  <minimizedAffinity>
-5.51956511

$$$$

 OpenBabel03242517293D

 39 41  0  0  1  0  0  0  0  0999 V2000
   38.9320   27.3700   37.5670 C   0  0  0  0  0  0  0  0  0  0  0  0
   40.1990   27.6450   36.9940 C   0  0  0  0  0  0  0  0  0  0  0  0
   40.7270   28.9470   37.1310 C   0  0  0  0  0  0  0  0  0  0  0  0
   39.9910   29.8640   37.8030 N   0  0  0  0  0  0  0  0  0  0  0  0
   38.7820   29.5870   38.3450 C   0  0  0  0  0  0  0  0  0  0  0  0
   38.2940   28.3510   38.2090 N   0  0  0  0  0  0  0  0  0  0  0  0
   38.0870   30.5930   39.0240 N   0  0  0  0  0  0  0  0  0  0  0  0
   37.7420   31.8070   38.3530 C   0  0  0  0  0  0  0  0  0  0  0  0
   37.3880   32.9220   39.2740 C   0  0  0  0  0  0  0  0  0  0  0  0
   36.7420   32.5530   40.4930 N   0  0  0  0  0  0  0  0  0  0  0  0
   36.4510   31.1610   40.5860 C   0  0  0  0  0  0  0  0  0  0  0  0
   37.7280   30.3750   40.4170 C   0  0  2  0  0  0  0  0  0  0  0  0
   38.5900   26.3740   37.4310 H   0  0  0  0  0  0  0  0  0  0  0  0
   40.8350   26.9620   36.4480 H   0  0  0  0  0  0  0  0  0  0  0  0
   41.6770   29.2360   36.7270 H   0  0  0  0  0  0  0  0  0  0  0  0
   36.9370   31.6200   37.6010 H   0  0  0  0  0  0  0  0  0  0  0  0
   38.6450   32.1130   37.7630 H   0  0  0  0  0  0  0  0  0  0  0  0
   36.7300   33.6470   38.7480 H   0  0  0  0  0  0  0  0  0  0  0  0
   38.3050   33.5240   39.5280 H   0  0  0  0  0  0  0  0  0  0  0  0
   37.1310   32.9480   41.3540 H   0  0  0  0  0  0  0  0  0  0  0  0
   35.7820   30.8770   39.7410 H   0  0  0  0  0  0  0  0  0  0  0  0
   35.9410   30.9270   41.5230 H   0  0  0  0  0  0  0  0  0  0  0  0
   37.5030   29.2920   40.5300 H   0  0  0  0  0  0  0  0  0  0  0  0
   38.7930   30.8100   41.3710 C   0  0  0  0  0  0  0  0  0  0  0  0
   38.4600   31.6790   41.9620 H   0  0  0  0  0  0  0  0  0  0  0  0
   39.7180   31.0320   40.7740 H   0  0  0  0  0  0  0  0  0  0  0  0
   39.0440   29.6950   42.3440 C   0  0  0  0  0  3  0  0  0  0  0  0
   38.1320   28.7920   42.6380 C   0  0  0  0  0  3  0  0  0  0  0  0
   38.3430   27.6680   43.5990 C   0  0  0  0  0  0  0  0  0  0  0  0
   37.6490   27.6940   44.4580 H   0  0  0  0  0  0  0  0  0  0  0  0
   39.3650   27.8120   44.0250 H   0  0  0  0  0  0  0  0  0  0  0  0
   38.3400   26.3410   42.9410 C   0  0  0  0  0  0  0  0  0  0  0  0
   37.0970   25.9680   42.4340 C   0  0  0  0  0  0  0  0  0  0  0  0
   36.2210   26.5680   42.5030 H   0  0  0  0  0  0  0  0  0  0  0  0
   36.9810   24.7480   41.7990 C   0  0  0  0  0  0  0  0  0  0  0  0
   36.0680   24.3430   41.3600 H   0  0  0  0  0  0  0  0  0  0  0  0
   38.1110   23.9670   41.7050 C   0  0  0  0  0  3  0  0  0  0  0  0
   39.3270   24.3910   42.2320 C   0  0  0  0  0  3  0  0  0  0  0  0
   39.4440   25.5810   42.8510 N   0  0  0  0  0  0  0  0  0  0  0  0
  1  6  1  0  0  0  0
  2  3  1  0  0  0  0
  2  1  2  0  0  0  0
  3  4  2  0  0  0  0
  4  5  1  0  0  0  0
  5  7  1  0  0  0  0
  6  5  2  0  0  0  0
  7 12  1  0  0  0  0
  8  7  1  0  0  0  0
  8  9  1  0  0  0  0
  9 19  1  0  0  0  0
  9 10  1  0  0  0  0
 10 11  1  0  0  0  0
 10 20  1  0  0  0  0
 11 22  1  0  0  0  0
 12 23  1  1  0  0  0
 12 11  1  0  0  0  0
 12 24  1  0  0  0  0
 13  1  1  0  0  0  0
 14  2  1  0  0  0  0
 15  3  1  0  0  0  0
 16  8  1  0  0  0  0
 17  8  1  0  0  0  0
 18  9  1  0  0  0  0
 21 11  1  0  0  0  0
 24 25  1  0  0  0  0
 24 27  1  0  0  0  0
 26 24  1  0  0  0  0
 27 28  2  0  0  0  0
 28 29  1  0  0  0  0
 29 31  1  0  0  0  0
 29 30  1  0  0  0  0
 32 29  1  0  0  0  0
 33 34  1  0  0  0  0
 33 32  2  0  0  0  0
 35 33  1  0  0  0  0
 36 35  1  0  0  0  0
 37 35  2  0  0  0  0
 37 38  1  0  0  0  0
 38 39  2  0  0  0  0
 39 32  1  0  0  0  0
M  END
>  <minimizedAffinity>
-5.51147842

$$$$

 OpenBabel03242517293D

 39 41  0  0  1  0  0  0  0  0999 V2000
   36.5620   25.1060   38.1060 C   0  0  0  0  0  0  0  0  0  0  0  0
   35.5470   24.1430   38.3320 C   0  0  0  0  0  0  0  0  0  0  0  0
   35.4860   23.5190   39.5970 C   0  0  0  0  0  0  0  0  0  0  0  0
   36.4050   23.8760   40.5260 N   0  0  0  0  0  0  0  0  0  0  0  0
   37.3690   24.7970   40.2960 C   0  0  0  0  0  0  0  0  0  0  0  0
   37.4160   25.3800   39.0950 N   0  0  0  0  0  0  0  0  0  0  0  0
   38.2790   25.1070   41.3110 N   0  0  0  0  0  0  0  0  0  0  0  0
   39.0990   24.0840   41.8790 C   0  0  0  0  0  0  0  0  0  0  0  0
   39.7010   24.4550   43.1900 C   0  0  0  0  0  0  0  0  0  0  0  0
   40.0260   25.8330   43.3680 N   0  0  0  0  0  0  0  0  0  0  0  0
   39.8080   26.6250   42.2040 C   0  0  0  0  0  0  0  0  0  0  0  0
   38.3690   26.4850   41.7710 C   0  0  2  0  0  0  0  0  0  0  0  0
   36.5550   25.5380   37.1360 H   0  0  0  0  0  0  0  0  0  0  0  0
   34.7860   23.8140   37.6370 H   0  0  0  0  0  0  0  0  0  0  0  0
   34.7500   22.7820   39.8490 H   0  0  0  0  0  0  0  0  0  0  0  0
   39.8770   23.7570   41.1450 H   0  0  0  0  0  0  0  0  0  0  0  0
   38.4360   23.1940   42.0370 H   0  0  0  0  0  0  0  0  0  0  0  0
   40.6270   23.8630   43.3580 H   0  0  0  0  0  0  0  0  0  0  0  0
   39.0220   24.1400   44.0320 H   0  0  0  0  0  0  0  0  0  0  0  0
   39.6950   26.2740   44.2310 H   0  0  0  0  0  0  0  0  0  0  0  0
   40.4360   26.2270   41.3750 H   0  0  0  0  0  0  0  0  0  0  0  0
   40.0880   27.6670   42.3780 H   0  0  0  0  0  0  0  0  0  0  0  0
   38.1930   27.1360   40.8860 H   0  0  0  0  0  0  0  0  0  0  0  0
   37.4110   26.7970   42.8740 C   0  0  0  0  0  0  0  0  0  0  0  0
   37.9460   27.1450   43.7730 H   0  0  0  0  0  0  0  0  0  0  0  0
   36.8030   25.8730   43.0720 H   0  0  0  0  0  0  0  0  0  0  0  0
   36.5280   27.9280   42.4320 C   0  0  0  0  0  3  0  0  0  0  0  0
   36.3240   28.2120   41.1620 C   0  0  0  0  0  3  0  0  0  0  0  0
   35.4530   29.3270   40.6810 C   0  0  0  0  0  0  0  0  0  0  0  0
   34.7640   29.7060   41.4560 H   0  0  0  0  0  0  0  0  0  0  0  0
   34.8070   28.8920   39.8810 H   0  0  0  0  0  0  0  0  0  0  0  0
   36.2220   30.4280   40.0550 C   0  0  0  0  0  0  0  0  0  0  0  0
   36.4750   30.2370   38.6990 C   0  0  0  0  0  0  0  0  0  0  0  0
   36.1520   29.3860   38.1470 H   0  0  0  0  0  0  0  0  0  0  0  0
   37.1850   31.2030   38.0150 C   0  0  0  0  0  0  0  0  0  0  0  0
   37.4460   31.1710   36.9570 H   0  0  0  0  0  0  0  0  0  0  0  0
   37.6050   32.3070   38.7240 C   0  0  0  0  0  3  0  0  0  0  0  0
   37.3240   32.4440   40.0800 C   0  0  0  0  0  3  0  0  0  0  0  0
   36.6300   31.5040   40.7490 N   0  0  0  0  0  0  0  0  0  0  0  0
  1  2  2  0  0  0  0
  1  6  1  0  0  0  0
  2  3  1  0  0  0  0
  3 15  1  0  0  0  0
  3  4  2  0  0  0  0
  5  4  1  0  0  0  0
  5  7  1  0  0  0  0
  6  5  2  0  0  0  0
  7 12  1  0  0  0  0
  7  8  1  0  0  0  0
  8 17  1  0  0  0  0
  8  9  1  0  0  0  0
  9 18  1  0  0  0  0
  9 10  1  0  0  0  0
  9 19  1  0  0  0  0
 10 20  1  0  0  0  0
 11 22  1  0  0  0  0
 11 10  1  0  0  0  0
 12 23  1  6  0  0  0
 12 11  1  0  0  0  0
 12 24  1  0  0  0  0
 13  1  1  0  0  0  0
 14  2  1  0  0  0  0
 16  8  1  0  0  0  0
 21 11  1  0  0  0  0
 24 26  1  0  0  0  0
 24 25  1  0  0  0  0
 27 24  1  0  0  0  0
 28 27  2  0  0  0  0
 29 28  1  0  0  0  0
 29 30  1  0  0  0  0
 31 29  1  0  0  0  0
 32 29  1  0  0  0  0
 32 39  1  0  0  0  0
 33 32  2  0  0  0  0
 34 33  1  0  0  0  0
 35 33  1  0  0  0  0
 35 37  2  0  0  0  0
 36 35  1  0  0  0  0
 37 38  1  0  0  0  0
 38 39  2  0  0  0  0
M  END
>  <minimizedAffinity>
-5.4869709

$$$$

 OpenBabel03242517293D

 39 41  0  0  1  0  0  0  0  0999 V2000
   35.2640   29.2440   39.9050 C   0  0  0  0  0  0  0  0  0  0  0  0
   35.6950   28.0400   39.2950 C   0  0  0  0  0  0  0  0  0  0  0  0
   37.0290   27.9600   38.8400 C   0  0  0  0  0  0  0  0  0  0  0  0
   37.8240   29.0420   39.0110 N   0  0  0  0  0  0  0  0  0  0  0  0
   37.3980   30.1870   39.5950 C   0  0  0  0  0  0  0  0  0  0  0  0
   36.1340   30.2500   40.0210 N   0  0  0  0  0  0  0  0  0  0  0  0
   38.2860   31.2590   39.7330 N   0  0  0  0  0  0  0  0  0  0  0  0
   38.9060   31.8310   38.5790 C   0  0  0  0  0  0  0  0  0  0  0  0
   40.1040   32.6590   38.8900 C   0  0  0  0  0  0  0  0  0  0  0  0
   40.0790   33.3650   40.1300 N   0  0  0  0  0  0  0  0  0  0  0  0
   38.8480   33.2350   40.8360 C   0  0  0  0  0  0  0  0  0  0  0  0
   38.5590   31.7720   41.0660 C   0  0  2  0  0  0  0  0  0  0  0  0
   34.2520   29.2410   40.2260 H   0  0  0  0  0  0  0  0  0  0  0  0
   35.1140   27.1430   39.1290 H   0  0  0  0  0  0  0  0  0  0  0  0
   37.4320   27.0860   38.3690 H   0  0  0  0  0  0  0  0  0  0  0  0
   38.1560   32.3990   37.9760 H   0  0  0  0  0  0  0  0  0  0  0  0
   39.2300   30.9740   37.9320 H   0  0  0  0  0  0  0  0  0  0  0  0
   40.2660   33.4030   38.0800 H   0  0  0  0  0  0  0  0  0  0  0  0
   41.0340   32.0240   38.8640 H   0  0  0  0  0  0  0  0  0  0  0  0
   40.9050   33.2680   40.7290 H   0  0  0  0  0  0  0  0  0  0  0  0
   38.0250   33.6300   40.1970 H   0  0  0  0  0  0  0  0  0  0  0  0
   38.8650   33.8060   41.7670 H   0  0  0  0  0  0  0  0  0  0  0  0
   37.6180   31.6770   41.6510 H   0  0  0  0  0  0  0  0  0  0  0  0
   39.6920   31.0700   41.7420 C   0  0  0  0  0  0  0  0  0  0  0  0
   40.3070   31.7800   42.3200 H   0  0  0  0  0  0  0  0  0  0  0  0
   40.2870   30.5380   40.9510 H   0  0  0  0  0  0  0  0  0  0  0  0
   39.1240   30.0900   42.7270 C   0  0  0  0  0  3  0  0  0  0  0  0
   39.1600   28.7880   42.5330 C   0  0  0  0  0  3  0  0  0  0  0  0
   38.6070   27.7810   43.4880 C   0  0  0  0  0  0  0  0  0  0  0  0
   37.6750   28.1120   43.9780 H   0  0  0  0  0  0  0  0  0  0  0  0
   39.3630   27.6790   44.3030 H   0  0  0  0  0  0  0  0  0  0  0  0
   38.4520   26.4380   42.8820 C   0  0  0  0  0  0  0  0  0  0  0  0
   37.2160   26.2360   42.2720 C   0  0  0  0  0  0  0  0  0  0  0  0
   36.4440   26.9670   42.2340 H   0  0  0  0  0  0  0  0  0  0  0  0
   36.9640   25.0170   41.6740 C   0  0  0  0  0  0  0  0  0  0  0  0
   36.0410   24.7360   41.1650 H   0  0  0  0  0  0  0  0  0  0  0  0
   37.9600   24.0670   41.7180 C   0  0  0  0  0  3  0  0  0  0  0  0
   39.1760   24.3250   42.3440 C   0  0  0  0  0  3  0  0  0  0  0  0
   39.4250   25.5130   42.9270 N   0  0  0  0  0  0  0  0  0  0  0  0
  1  6  1  0  0  0  0
  1 13  1  0  0  0  0
  2  1  2  0  0  0  0
  3  4  2  0  0  0  0
  3  2  1  0  0  0  0
  4  5  1  0  0  0  0
  5  7  1  0  0  0  0
  5  6  2  0  0  0  0
  7 12  1  0  0  0  0
  8  9  1  0  0  0  0
  8  7  1  0  0  0  0
  9 10  1  0  0  0  0
 10 20  1  0  0  0  0
 10 11  1  0  0  0  0
 11 12  1  0  0  0  0
 11 22  1  0  0  0  0
 12 23  1  1  0  0  0
 12 24  1  0  0  0  0
 14  2  1  0  0  0  0
 15  3  1  0  0  0  0
 16  8  1  0  0  0  0
 17  8  1  0  0  0  0
 18  9  1  0  0  0  0
 19  9  1  0  0  0  0
 21 11  1  0  0  0  0
 24 25  1  0  0  0  0
 24 27  1  0  0  0  0
 26 24  1  0  0  0  0
 28 27  2  0  0  0  0
 28 29  1  0  0  0  0
 29 30  1  0  0  0  0
 29 31  1  0  0  0  0
 32 39  1  0  0  0  0
 32 29  1  0  0  0  0
 33 32  2  0  0  0  0
 34 33  1  0  0  0  0
 35 37  2  0  0  0  0
 35 33  1  0  0  0  0
 36 35  1  0  0  0  0
 37 38  1  0  0  0  0
 38 39  2  0  0  0  0
M  END
>  <minimizedAffinity>
-5.33691311

$$$$

 OpenBabel03242517293D

 39 41  0  0  1  0  0  0  0  0999 V2000
   39.6070   28.1320   42.3030 C   0  0  0  0  0  0  0  0  0  0  0  0
   38.6280   27.9430   43.3110 C   0  0  0  0  0  0  0  0  0  0  0  0
   37.4510   28.7200   43.2550 C   0  0  0  0  0  0  0  0  0  0  0  0
   37.3220   29.6060   42.2390 N   0  0  0  0  0  0  0  0  0  0  0  0
   38.2650   29.7760   41.2830 C   0  0  0  0  0  0  0  0  0  0  0  0
   39.3740   29.0350   41.3480 N   0  0  0  0  0  0  0  0  0  0  0  0
   38.0530   30.7130   40.2680 N   0  0  0  0  0  0  0  0  0  0  0  0
   37.8340   32.0880   40.5920 C   0  0  0  0  0  0  0  0  0  0  0  0
   37.2270   32.8770   39.4850 C   0  0  0  0  0  0  0  0  0  0  0  0
   37.5900   32.4890   38.1610 N   0  0  0  0  0  0  0  0  0  0  0  0
   38.5680   31.4540   38.1170 C   0  0  0  0  0  0  0  0  0  0  0  0
   38.0590   30.2590   38.8850 C   0  0  2  0  0  0  0  0  0  0  0  0
   40.4670   27.5180   42.4010 H   0  0  0  0  0  0  0  0  0  0  0  0
   38.6680   27.2560   44.1450 H   0  0  0  0  0  0  0  0  0  0  0  0
   36.6630   28.6380   43.9780 H   0  0  0  0  0  0  0  0  0  0  0  0
   38.7800   32.5550   40.9630 H   0  0  0  0  0  0  0  0  0  0  0  0
   37.1270   32.1020   41.4620 H   0  0  0  0  0  0  0  0  0  0  0  0
   37.4840   33.9520   39.6060 H   0  0  0  0  0  0  0  0  0  0  0  0
   36.1040   32.8580   39.5640 H   0  0  0  0  0  0  0  0  0  0  0  0
   36.8220   32.3550   37.4960 H   0  0  0  0  0  0  0  0  0  0  0  0
   39.4870   31.8060   38.6380 H   0  0  0  0  0  0  0  0  0  0  0  0
   38.8300   31.2030   37.0860 H   0  0  0  0  0  0  0  0  0  0  0  0
   38.8070   29.4390   38.8150 H   0  0  0  0  0  0  0  0  0  0  0  0
   36.7150   29.8090   38.4120 C   0  0  0  0  0  0  0  0  0  0  0  0
   36.5060   30.1910   37.3990 H   0  0  0  0  0  0  0  0  0  0  0  0
   35.9530   30.1550   39.1610 H   0  0  0  0  0  0  0  0  0  0  0  0
   36.7220   28.3110   38.3150 C   0  0  0  0  0  3  0  0  0  0  0  0
   36.4390   27.5330   39.3390 C   0  0  0  0  0  3  0  0  0  0  0  0
   36.4340   26.0400   39.2840 C   0  0  0  0  0  0  0  0  0  0  0  0
   36.4980   25.6430   38.2550 H   0  0  0  0  0  0  0  0  0  0  0  0
   35.4390   25.7190   39.6750 H   0  0  0  0  0  0  0  0  0  0  0  0
   37.4560   25.4290   40.1650 C   0  0  0  0  0  0  0  0  0  0  0  0
   36.9450   24.9480   41.3680 C   0  0  0  0  0  0  0  0  0  0  0  0
   35.9190   25.0050   41.6450 H   0  0  0  0  0  0  0  0  0  0  0  0
   37.8110   24.3570   42.2660 C   0  0  0  0  0  0  0  0  0  0  0  0
   37.5370   23.9430   43.2370 H   0  0  0  0  0  0  0  0  0  0  0  0
   39.1410   24.2800   41.9140 C   0  0  0  0  0  3  0  0  0  0  0  0
   39.5950   24.7790   40.6960 C   0  0  0  0  0  3  0  0  0  0  0  0
   38.7520   25.3540   39.8190 N   0  0  0  0  0  0  0  0  0  0  0  0
  1 13  1  0  0  0  0
  1  2  1  0  0  0  0
  2 14  1  0  0  0  0
  3  2  2  0  0  0  0
  3 15  1  0  0  0  0
  4  3  1  0  0  0  0
  5  6  1  0  0  0  0
  5  4  2  0  0  0  0
  6  1  2  0  0  0  0
  7  8  1  0  0  0  0
  7  5  1  0  0  0  0
  8 16  1  0  0  0  0
  8 17  1  0  0  0  0
  9 19  1  0  0  0  0
  9 18  1  0  0  0  0
  9  8  1  0  0  0  0
 10  9  1  0  0  0  0
 11 10  1  0  0  0  0
 11 21  1  0  0  0  0
 11 12  1  0  0  0  0
 12 23  1  6  0  0  0
 12  7  1  0  0  0  0
 20 10  1  0  0  0  0
 22 11  1  0  0  0  0
 24 12  1  0  0  0  0
 24 26  1  0  0  0  0
 25 24  1  0  0  0  0
 27 24  1  0  0  0  0
 27 28  2  0  0  0  0
 29 28  1  0  0  0  0
 29 31  1  0  0  0  0
 29 32  1  0  0  0  0
 30 29  1  0  0  0  0
 32 33  1  0  0  0  0
 33 34  1  0  0  0  0
 33 35  2  0  0  0  0
 35 36  1  0  0  0  0
 37 35  1  0  0  0  0
 38 37  2  0  0  0  0
 39 32  2  0  0  0  0
 39 38  1  0  0  0  0
M  END
>  <minimizedAffinity>
-5.22145271

$$$$

 OpenBabel03242517293D

 39 41  0  0  1  0  0  0  0  0999 V2000
   39.2110   24.3670   39.5080 C   0  0  0  0  0  0  0  0  0  0  0  0
   38.2440   23.3340   39.4270 C   0  0  0  0  0  0  0  0  0  0  0  0
   37.0330   23.4940   40.1350 C   0  0  0  0  0  0  0  0  0  0  0  0
   36.8630   24.6280   40.8550 N   0  0  0  0  0  0  0  0  0  0  0  0
   37.7960   25.6060   40.9250 C   0  0  0  0  0  0  0  0  0  0  0  0
   38.9370   25.4430   40.2500 N   0  0  0  0  0  0  0  0  0  0  0  0
   37.5400   26.7460   41.6920 N   0  0  0  0  0  0  0  0  0  0  0  0
   37.2610   26.6250   43.0890 C   0  0  0  0  0  0  0  0  0  0  0  0
   36.6170   27.8300   43.6800 C   0  0  0  0  0  0  0  0  0  0  0  0
   36.9950   29.0870   43.1180 N   0  0  0  0  0  0  0  0  0  0  0  0
   38.0170   28.9860   42.1310 C   0  0  0  0  0  0  0  0  0  0  0  0
   37.5640   28.0470   41.0400 C   0  0  2  0  0  0  0  0  0  0  0  0
   40.0980   24.1880   38.9540 H   0  0  0  0  0  0  0  0  0  0  0  0
   38.3160   22.4090   38.8720 H   0  0  0  0  0  0  0  0  0  0  0  0
   36.2510   22.7610   40.1250 H   0  0  0  0  0  0  0  0  0  0  0  0
   38.1860   26.3350   43.6460 H   0  0  0  0  0  0  0  0  0  0  0  0
   36.5550   25.7610   43.2000 H   0  0  0  0  0  0  0  0  0  0  0  0
   36.8260   27.8700   44.7710 H   0  0  0  0  0  0  0  0  0  0  0  0
   35.4960   27.7410   43.6230 H   0  0  0  0  0  0  0  0  0  0  0  0
   36.2320   29.7180   42.8540 H   0  0  0  0  0  0  0  0  0  0  0  0
   38.9210   28.5310   42.5950 H   0  0  0  0  0  0  0  0  0  0  0  0
   38.2890   29.9710   41.7430 H   0  0  0  0  0  0  0  0  0  0  0  0
   38.3480   28.0020   40.2530 H   0  0  0  0  0  0  0  0  0  0  0  0
   36.2400   28.4380   40.4670 C   0  0  0  0  0  0  0  0  0  0  0  0
   35.4950   28.5910   41.2660 H   0  0  0  0  0  0  0  0  0  0  0  0
   35.9290   27.6380   39.7440 H   0  0  0  0  0  0  0  0  0  0  0  0
   36.3970   29.7560   39.7660 C   0  0  0  0  0  3  0  0  0  0  0  0
   36.9660   29.8660   38.5830 C   0  0  0  0  0  3  0  0  0  0  0  0
   37.1410   31.1570   37.8520 C   0  0  0  0  0  0  0  0  0  0  0  0
   36.1990   31.5480   37.4280 H   0  0  0  0  0  0  0  0  0  0  0  0
   37.8000   30.9320   36.9790 H   0  0  0  0  0  0  0  0  0  0  0  0
   37.8390   32.1850   38.6580 C   0  0  0  0  0  0  0  0  0  0  0  0
   39.2170   31.9950   38.7400 C   0  0  0  0  0  0  0  0  0  0  0  0
   39.7350   31.1920   38.2730 H   0  0  0  0  0  0  0  0  0  0  0  0
   39.9670   32.8960   39.4690 C   0  0  0  0  0  0  0  0  0  0  0  0
   41.0480   32.8580   39.6080 H   0  0  0  0  0  0  0  0  0  0  0  0
   39.3000   33.9370   40.0760 C   0  0  0  0  0  3  0  0  0  0  0  0
   37.9210   34.0760   39.9600 C   0  0  0  0  0  3  0  0  0  0  0  0
   37.1870   33.2000   39.2500 N   0  0  0  0  0  0  0  0  0  0  0  0
  1  6  1  0  0  0  0
  2  1  2  0  0  0  0
  2  3  1  0  0  0  0
  3  4  2  0  0  0  0
  4  5  1  0  0  0  0
  5  7  1  0  0  0  0
  6  5  2  0  0  0  0
  7  8  1  0  0  0  0
  8 17  1  0  0  0  0
  8 16  1  0  0  0  0
  8  9  1  0  0  0  0
  9 18  1  0  0  0  0
 10  9  1  0  0  0  0
 11 21  1  0  0  0  0
 11 10  1  0  0  0  0
 12 23  1  6  0  0  0
 12  7  1  0  0  0  0
 12 11  1  0  0  0  0
 13  1  1  0  0  0  0
 14  2  1  0  0  0  0
 15  3  1  0  0  0  0
 19  9  1  0  0  0  0
 20 10  1  0  0  0  0
 22 11  1  0  0  0  0
 24 12  1  0  0  0  0
 24 25  1  0  0  0  0
 26 24  1  0  0  0  0
 27 24  1  0  0  0  0
 28 27  2  0  0  0  0
 29 28  1  0  0  0  0
 29 32  1  0  0  0  0
 30 29  1  0  0  0  0
 31 29  1  0  0  0  0
 32 33  2  0  0  0  0
 32 39  1  0  0  0  0
 33 35  1  0  0  0  0
 34 33  1  0  0  0  0
 35 36  1  0  0  0  0
 35 37  2  0  0  0  0
 38 37  1  0  0  0  0
 39 38  2  0  0  0  0
M  END
>  <minimizedAffinity>
-5.12853575

$$$$

 OpenBabel03242517293D

 39 41  0  0  1  0  0  0  0  0999 V2000
   37.9290   28.4850   38.3030 C   0  0  0  0  0  0  0  0  0  0  0  0
   36.6110   28.7320   37.8450 C   0  0  0  0  0  0  0  0  0  0  0  0
   35.6280   27.7430   38.0670 C   0  0  0  0  0  0  0  0  0  0  0  0
   36.0020   26.6090   38.7050 N   0  0  0  0  0  0  0  0  0  0  0  0
   37.2660   26.3850   39.1360 C   0  0  0  0  0  0  0  0  0  0  0  0
   38.1850   27.3290   38.9200 N   0  0  0  0  0  0  0  0  0  0  0  0
   37.5670   25.1860   39.7870 N   0  0  0  0  0  0  0  0  0  0  0  0
   37.3470   23.9350   39.1300 C   0  0  0  0  0  0  0  0  0  0  0  0
   37.3160   22.7680   40.0530 C   0  0  0  0  0  0  0  0  0  0  0  0
   38.1590   22.8490   41.2020 N   0  0  0  0  0  0  0  0  0  0  0  0
   38.9800   24.0140   41.2260 C   0  0  0  0  0  0  0  0  0  0  0  0
   38.1050   25.2400   41.1380 C   0  0  2  0  0  0  0  0  0  0  0  0
   38.6200   29.2660   38.1070 H   0  0  0  0  0  0  0  0  0  0  0  0
   36.2480   29.6130   37.3320 H   0  0  0  0  0  0  0  0  0  0  0  0
   34.6100   27.8530   37.7530 H   0  0  0  0  0  0  0  0  0  0  0  0
   38.0910   23.7930   38.3080 H   0  0  0  0  0  0  0  0  0  0  0  0
   36.3480   24.0110   38.6260 H   0  0  0  0  0  0  0  0  0  0  0  0
   37.5870   21.8440   39.4990 H   0  0  0  0  0  0  0  0  0  0  0  0
   36.2620   22.5750   40.4020 H   0  0  0  0  0  0  0  0  0  0  0  0
   37.7240   22.6370   42.1050 H   0  0  0  0  0  0  0  0  0  0  0  0
   39.6290   24.0140   40.3210 H   0  0  0  0  0  0  0  0  0  0  0  0
   39.6220   24.0250   42.1100 H   0  0  0  0  0  0  0  0  0  0  0  0
   38.7460   26.1470   41.1970 H   0  0  0  0  0  0  0  0  0  0  0  0
   37.0430   25.2560   42.1900 C   0  0  0  0  0  0  0  0  0  0  0  0
   37.3000   24.5760   43.0190 H   0  0  0  0  0  0  0  0  0  0  0  0
   36.0710   24.9800   41.7000 H   0  0  0  0  0  0  0  0  0  0  0  0
   36.9710   26.6390   42.7710 C   0  0  0  0  0  3  0  0  0  0  0  0
   37.9300   27.5260   42.6090 C   0  0  0  0  0  3  0  0  0  0  0  0
   37.8960   28.9110   43.1690 C   0  0  0  0  0  0  0  0  0  0  0  0
   38.7230   29.1170   43.8710 H   0  0  0  0  0  0  0  0  0  0  0  0
   36.9580   28.9790   43.7720 H   0  0  0  0  0  0  0  0  0  0  0  0
   37.8040   29.9540   42.1210 C   0  0  0  0  0  0  0  0  0  0  0  0
   36.5290   30.0930   41.5770 C   0  0  0  0  0  0  0  0  0  0  0  0
   35.6880   29.5140   41.8760 H   0  0  0  0  0  0  0  0  0  0  0  0
   36.3300   31.0370   40.5900 C   0  0  0  0  0  0  0  0  0  0  0  0
   35.3840   31.2440   40.0880 H   0  0  0  0  0  0  0  0  0  0  0  0
   37.4150   31.7900   40.2000 C   0  0  0  0  0  3  0  0  0  0  0  0
   38.6670   31.6060   40.7780 C   0  0  0  0  0  3  0  0  0  0  0  0
   38.8640   30.6860   41.7410 N   0  0  0  0  0  0  0  0  0  0  0  0
  1  6  1  0  0  0  0
  2  3  1  0  0  0  0
  2  1  2  0  0  0  0
  3  4  2  0  0  0  0
  4  5  1  0  0  0  0
  5  7  1  0  0  0  0
  6  5  2  0  0  0  0
  7 12  1  0  0  0  0
  8  7  1  0  0  0  0
  8  9  1  0  0  0  0
  9 19  1  0  0  0  0
  9 10  1  0  0  0  0
 10 11  1  0  0  0  0
 10 20  1  0  0  0  0
 11 22  1  0  0  0  0
 12 23  1  1  0  0  0
 12 11  1  0  0  0  0
 12 24  1  0  0  0  0
 13  1  1  0  0  0  0
 14  2  1  0  0  0  0
 15  3  1  0  0  0  0
 16  8  1  0  0  0  0
 17  8  1  0  0  0  0
 18  9  1  0  0  0  0
 21 11  1  0  0  0  0
 24 27  1  0  0  0  0
 24 25  1  0  0  0  0
 26 24  1  0  0  0  0
 28 27  2  0  0  0  0
 28 29  1  0  0  0  0
 29 31  1  0  0  0  0
 29 30  1  0  0  0  0
 32 29  1  0  0  0  0
 33 34  1  0  0  0  0
 33 32  2  0  0  0  0
 35 33  1  0  0  0  0
 36 35  1  0  0  0  0
 37 35  2  0  0  0  0
 37 38  1  0  0  0  0
 38 39  2  0  0  0  0
 39 32  1  0  0  0  0
M  END
>  <minimizedAffinity>
-5.127285

$$$$

 OpenBabel03242517293D

 39 41  0  0  1  0  0  0  0  0999 V2000
   38.5520   29.2480   37.2240 C   0  0  0  0  0  0  0  0  0  0  0  0
   39.4630   28.1630   37.2210 C   0  0  0  0  0  0  0  0  0  0  0  0
   40.6380   28.2730   37.9960 C   0  0  0  0  0  0  0  0  0  0  0  0
   40.8300   29.4140   38.7000 N   0  0  0  0  0  0  0  0  0  0  0  0
   39.9500   30.4430   38.6930 C   0  0  0  0  0  0  0  0  0  0  0  0
   38.8430   30.3260   37.9560 N   0  0  0  0  0  0  0  0  0  0  0  0
   40.2250   31.5860   39.4500 N   0  0  0  0  0  0  0  0  0  0  0  0
   41.4220   32.3330   39.2160 C   0  0  0  0  0  0  0  0  0  0  0  0
   41.7840   33.2510   40.3300 C   0  0  0  0  0  0  0  0  0  0  0  0
   40.6960   33.8260   41.0530 N   0  0  0  0  0  0  0  0  0  0  0  0
   39.4170   33.4950   40.5180 C   0  0  0  0  0  0  0  0  0  0  0  0
   39.2720   31.9940   40.4710 C   0  0  2  0  0  0  0  0  0  0  0  0
   37.6890   29.1040   36.6230 H   0  0  0  0  0  0  0  0  0  0  0  0
   39.3710   27.2280   36.6850 H   0  0  0  0  0  0  0  0  0  0  0  0
   41.3770   27.4980   38.0490 H   0  0  0  0  0  0  0  0  0  0  0  0
   41.3590   32.8720   38.2390 H   0  0  0  0  0  0  0  0  0  0  0  0
   42.2480   31.5830   39.0970 H   0  0  0  0  0  0  0  0  0  0  0  0
   42.4100   34.0840   39.9410 H   0  0  0  0  0  0  0  0  0  0  0  0
   42.4580   32.7270   41.0640 H   0  0  0  0  0  0  0  0  0  0  0  0
   40.7410   33.7620   42.0750 H   0  0  0  0  0  0  0  0  0  0  0  0
   39.3630   33.8590   39.4660 H   0  0  0  0  0  0  0  0  0  0  0  0
   38.6160   33.9710   41.0890 H   0  0  0  0  0  0  0  0  0  0  0  0
   38.2590   31.7410   40.0900 H   0  0  0  0  0  0  0  0  0  0  0  0
   39.5290   31.3560   41.7980 C   0  0  0  0  0  0  0  0  0  0  0  0
   39.3820   32.0800   42.6170 H   0  0  0  0  0  0  0  0  0  0  0  0
   40.5710   30.9390   41.7820 H   0  0  0  0  0  0  0  0  0  0  0  0
   38.5220   30.2620   42.0020 C   0  0  0  0  0  3  0  0  0  0  0  0
   38.6840   29.3070   42.8930 C   0  0  0  0  0  3  0  0  0  0  0  0
   37.7060   28.2020   43.1270 C   0  0  0  0  0  0  0  0  0  0  0  0
   36.8080   28.2720   42.4880 H   0  0  0  0  0  0  0  0  0  0  0  0
   37.3450   28.3250   44.1770 H   0  0  0  0  0  0  0  0  0  0  0  0
   38.3250   26.8590   43.0450 C   0  0  0  0  0  0  0  0  0  0  0  0
   39.5620   26.7700   43.6800 C   0  0  0  0  0  0  0  0  0  0  0  0
   40.0320   27.5820   44.1820 H   0  0  0  0  0  0  0  0  0  0  0  0
   40.2290   25.5620   43.6640 C   0  0  0  0  0  0  0  0  0  0  0  0
   41.1980   25.3640   44.1230 H   0  0  0  0  0  0  0  0  0  0  0  0
   39.6250   24.5080   43.0150 C   0  0  0  0  0  3  0  0  0  0  0  0
   38.3860   24.6550   42.3970 C   0  0  0  0  0  3  0  0  0  0  0  0
   37.7330   25.8320   42.4110 N   0  0  0  0  0  0  0  0  0  0  0  0
  1  6  1  0  0  0  0
  2  1  2  0  0  0  0
  2  3  1  0  0  0  0
  3 15  1  0  0  0  0
  3  4  2  0  0  0  0
  5  4  1  0  0  0  0
  5  7  1  0  0  0  0
  6  5  2  0  0  0  0
  7 12  1  0  0  0  0
  8  7  1  0  0  0  0
  8  9  1  0  0  0  0
  9 10  1  0  0  0  0
  9 19  1  0  0  0  0
 10 20  1  0  0  0  0
 11 10  1  0  0  0  0
 11 22  1  0  0  0  0
 12 23  1  6  0  0  0
 12 11  1  0  0  0  0
 12 24  1  0  0  0  0
 13  1  1  0  0  0  0
 14  2  1  0  0  0  0
 16  8  1  0  0  0  0
 17  8  1  0  0  0  0
 18  9  1  0  0  0  0
 21 11  1  0  0  0  0
 24 27  1  0  0  0  0
 24 25  1  0  0  0  0
 26 24  1  0  0  0  0
 27 28  2  0  0  0  0
 28 29  1  0  0  0  0
 29 31  1  0  0  0  0
 30 29  1  0  0  0  0
 32 29  1  0  0  0  0
 32 33  1  0  0  0  0
 33 34  1  0  0  0  0
 35 33  2  0  0  0  0
 35 36  1  0  0  0  0
 37 35  1  0  0  0  0
 38 39  1  0  0  0  0
 38 37  2  0  0  0  0
 39 32  2  0  0  0  0
M  END
>  <minimizedAffinity>
-5.11112261

$$$$
