
 OpenBabel03252506343D

 32 34  0  0  1  0  0  0  0  0999 V2000
   44.5060   35.5440   45.1020 C   0  0  0  0  0  0  0  0  0  0  0  0
   45.1740   35.5080   43.8550 C   0  0  0  0  0  0  0  0  0  0  0  0
   46.0910   34.5280   43.6340 C   0  0  0  0  0  0  0  0  0  0  0  0
   46.3170   33.6380   44.6180 N   0  0  0  0  0  0  0  0  0  0  0  0
   45.6800   33.6790   45.7960 C   0  0  0  0  0  0  0  0  0  0  0  0
   44.7690   34.6240   46.0630 N   0  0  0  0  0  0  0  0  0  0  0  0
   45.9960   32.6910   46.7730 N   0  0  0  0  0  0  0  0  0  0  0  0
   45.2080   32.4010   47.9620 C   0  0  0  0  0  0  0  0  0  0  0  0
   46.2990   32.1350   48.9860 C   0  0  0  0  0  0  0  0  0  0  0  0
   47.5980   31.9960   48.2280 C   0  0  0  0  0  0  0  0  0  0  0  0
   47.1320   31.7900   46.8010 C   0  0  1  0  0  0  0  0  0  0  0  0
   43.7640   36.2780   45.3740 H   0  0  0  0  0  0  0  0  0  0  0  0
   46.5710   34.5310   42.6930 H   0  0  0  0  0  0  0  0  0  0  0  0
   44.5300   31.5400   47.8220 H   0  0  0  0  0  0  0  0  0  0  0  0
   44.5640   33.2530   48.2470 H   0  0  0  0  0  0  0  0  0  0  0  0
   46.3450   33.0380   49.6390 H   0  0  0  0  0  0  0  0  0  0  0  0
   46.0570   31.2780   49.6260 H   0  0  0  0  0  0  0  0  0  0  0  0
   48.2820   32.8360   48.3570 H   0  0  0  0  0  0  0  0  0  0  0  0
   48.0430   31.0260   48.5600 H   0  0  0  0  0  0  0  0  0  0  0  0
   47.9250   32.0970   46.0880 H   0  0  0  0  0  0  0  0  0  0  0  0
   44.7820   36.5490   42.9570 N   0  0  0  0  0  0  0  0  0  0  0  0
   45.5450   37.0410   42.4510 H   0  0  0  0  0  0  0  0  0  0  0  0
   43.7920   36.8090   42.8070 H   0  0  0  0  0  0  0  0  0  0  0  0
   46.6470   30.0640   46.6210 S   0  0  0  0  0  0  0  0  0  0  0  0
   45.4230   29.8360   45.3430 C   0  0  0  0  0  0  0  0  0  0  0  0
   44.3800   28.9690   45.6440 C   0  0  0  0  0  0  0  0  0  0  0  0
   44.3000   28.4500   46.6080 H   0  0  0  0  0  0  0  0  0  0  0  0
   43.4000   28.7530   44.6900 C   0  0  0  0  0  0  0  0  0  0  0  0
   42.5900   28.0890   44.9070 H   0  0  0  0  0  0  0  0  0  0  0  0
   43.4480   29.3850   43.4500 C   0  0  0  0  0  3  0  0  0  0  0  0
   44.5110   30.2380   43.2030 C   0  0  0  0  0  3  0  0  0  0  0  0
   45.4810   30.4570   44.1390 N   0  0  0  0  0  0  0  0  0  0  0  0
  1 12  1  0  0  0  0
  1  6  1  0  0  0  0
  2  1  2  0  0  0  0
  3  2  1  0  0  0  0
  3  4  2  0  0  0  0
  4  5  1  0  0  0  0
  5  6  2  0  0  0  0
  5  7  1  0  0  0  0
  7 11  1  0  0  0  0
  7  8  1  0  0  0  0
  8 15  1  0  0  0  0
  8  9  1  0  0  0  0
  9 17  1  0  0  0  0
  9 16  1  0  0  0  0
 10 18  1  0  0  0  0
 10 19  1  0  0  0  0
 10  9  1  0  0  0  0
 11 20  1  6  0  0  0
 11 10  1  0  0  0  0
 13  3  1  0  0  0  0
 14  8  1  0  0  0  0
 21  2  1  0  0  0  0
 22 21  1  0  0  0  0
 23 21  1  0  0  0  0
 24 11  1  0  0  0  0
 25 26  1  0  0  0  0
 25 24  1  0  0  0  0
 26 27  1  0  0  0  0
 28 29  1  0  0  0  0
 28 26  2  0  0  0  0
 30 28  1  0  0  0  0
 31 30  2  0  0  0  0
 31 32  1  0  0  0  0
 32 25  2  0  0  0  0
M  END
>  <minimizedAffinity>
-5.17886972

>  <minimizedRMSD>
0.708958447

$$$$
