
 OpenBabel03252506343D

 32 34  0  0  1  0  0  0  0  0999 V2000
   44.4800   35.6840   44.9970 C   0  0  0  0  0  0  0  0  0  0  0  0
   45.1600   35.6630   43.7570 C   0  0  0  0  0  0  0  0  0  0  0  0
   46.0830   34.6910   43.5350 C   0  0  0  0  0  0  0  0  0  0  0  0
   46.3060   33.7930   44.5120 N   0  0  0  0  0  0  0  0  0  0  0  0
   45.6580   33.8190   45.6850 C   0  0  0  0  0  0  0  0  0  0  0  0
   44.7390   34.7560   45.9530 N   0  0  0  0  0  0  0  0  0  0  0  0
   45.9710   32.8230   46.6560 N   0  0  0  0  0  0  0  0  0  0  0  0
   45.1730   32.5170   47.8330 C   0  0  0  0  0  0  0  0  0  0  0  0
   46.2560   32.2480   48.8650 C   0  0  0  0  0  0  0  0  0  0  0  0
   47.5620   32.1230   48.1180 C   0  0  0  0  0  0  0  0  0  0  0  0
   47.1110   31.9280   46.6850 C   0  0  1  0  0  0  0  0  0  0  0  0
   43.7310   36.4110   45.2700 H   0  0  0  0  0  0  0  0  0  0  0  0
   46.5720   34.7060   42.5980 H   0  0  0  0  0  0  0  0  0  0  0  0
   44.5010   31.6550   47.6790 H   0  0  0  0  0  0  0  0  0  0  0  0
   44.5220   33.3640   48.1210 H   0  0  0  0  0  0  0  0  0  0  0  0
   46.2920   33.1440   49.5270 H   0  0  0  0  0  0  0  0  0  0  0  0
   46.0130   31.3830   49.4940 H   0  0  0  0  0  0  0  0  0  0  0  0
   48.2410   32.9650   48.2620 H   0  0  0  0  0  0  0  0  0  0  0  0
   48.0090   31.1530   48.4450 H   0  0  0  0  0  0  0  0  0  0  0  0
   47.9090   32.2460   45.9820 H   0  0  0  0  0  0  0  0  0  0  0  0
   44.7700   36.7110   42.8650 N   0  0  0  0  0  0  0  0  0  0  0  0
   45.5350   37.2120   42.3710 H   0  0  0  0  0  0  0  0  0  0  0  0
   43.7800   36.9670   42.7090 H   0  0  0  0  0  0  0  0  0  0  0  0
   46.6370   30.2020   46.4840 S   0  0  0  0  0  0  0  0  0  0  0  0
   46.2540   29.7990   44.7880 C   0  0  0  0  0  0  0  0  0  0  0  0
   44.9210   29.9160   44.4200 C   0  0  0  0  0  0  0  0  0  0  0  0
   44.1370   30.2370   45.1180 H   0  0  0  0  0  0  0  0  0  0  0  0
   44.5640   29.6160   43.1150 C   0  0  0  0  0  0  0  0  0  0  0  0
   43.5410   29.7020   42.8150 H   0  0  0  0  0  0  0  0  0  0  0  0
   45.5130   29.2050   42.1840 C   0  0  0  0  0  3  0  0  0  0  0  0
   46.8300   29.1040   42.6060 C   0  0  0  0  0  3  0  0  0  0  0  0
   47.1880   29.3990   43.8900 N   0  0  0  0  0  0  0  0  0  0  0  0
  1 12  1  0  0  0  0
  1  6  1  0  0  0  0
  2  1  2  0  0  0  0
  3  2  1  0  0  0  0
  3  4  2  0  0  0  0
  4  5  1  0  0  0  0
  5  6  2  0  0  0  0
  5  7  1  0  0  0  0
  7 11  1  0  0  0  0
  7  8  1  0  0  0  0
  8 15  1  0  0  0  0
  8  9  1  0  0  0  0
  9 17  1  0  0  0  0
  9 16  1  0  0  0  0
 10 18  1  0  0  0  0
 10 19  1  0  0  0  0
 10  9  1  0  0  0  0
 11 20  1  6  0  0  0
 11 10  1  0  0  0  0
 13  3  1  0  0  0  0
 14  8  1  0  0  0  0
 21  2  1  0  0  0  0
 22 21  1  0  0  0  0
 23 21  1  0  0  0  0
 24 11  1  0  0  0  0
 25 24  1  0  0  0  0
 26 25  1  0  0  0  0
 26 27  1  0  0  0  0
 28 26  2  0  0  0  0
 29 28  1  0  0  0  0
 30 31  2  0  0  0  0
 30 28  1  0  0  0  0
 31 32  1  0  0  0  0
 32 25  2  0  0  0  0
M  END
>  <minimizedAffinity>
-4.77049494

>  <minimizedRMSD>
0.47254926

$$$$
