
 OpenBabel03252509263D

 29 31  0  0  1  0  0  0  0  0999 V2000
   49.2150   33.2770   42.7100 C   0  0  1  0  0  0  0  0  0  0  0  0
   50.4380   34.2170   42.5170 C   0  0  0  0  0  0  0  0  0  0  0  0
   49.1410   34.1920   41.6500 C   0  0  2  0  0  0  0  0  0  0  0  0
   48.7000   33.4220   43.6830 H   0  0  0  0  0  0  0  0  0  0  0  0
   50.4700   35.0510   43.2290 H   0  0  0  0  0  0  0  0  0  0  0  0
   51.3540   33.8130   42.0810 H   0  0  0  0  0  0  0  0  0  0  0  0
   49.3670   33.8340   40.5990 H   0  0  0  0  0  0  0  0  0  0  0  0
   49.3000   29.5280   42.6710 C   0  0  0  0  0  0  0  0  0  0  0  0
   48.9040   30.8410   43.0360 C   0  0  0  0  0  0  0  0  0  0  0  0
   49.6070   31.8410   42.4510 C   0  0  0  0  0  0  0  0  0  0  0  0
   50.6410   31.5920   41.5630 N   0  0  0  0  0  0  0  0  0  0  0  0
   50.9830   30.3240   41.2470 C   0  0  0  0  0  0  0  0  0  0  0  0
   50.3090   29.2890   41.8050 N   0  0  0  0  0  0  0  0  0  0  0  0
   48.7710   28.6860   43.1090 H   0  0  0  0  0  0  0  0  0  0  0  0
   51.8050   30.2730   40.5450 H   0  0  0  0  0  0  0  0  0  0  0  0
   47.8820   31.0890   43.9650 N   0  0  0  0  0  0  0  0  0  0  0  0
   47.8950   30.4980   44.8330 H   0  0  0  0  0  0  0  0  0  0  0  0
   47.1350   31.7810   43.8820 H   0  0  0  0  0  0  0  0  0  0  0  0
   48.2240   35.3890   41.6930 C   0  0  0  0  0  0  0  0  0  0  0  0
   48.4870   36.1190   42.4860 H   0  0  0  0  0  0  0  0  0  0  0  0
   48.3780   35.9410   40.7330 H   0  0  0  0  0  0  0  0  0  0  0  0
   46.7940   34.9970   41.7480 C   0  0  0  0  0  0  0  0  0  0  0  0
   46.1110   34.2060   40.8550 C   0  0  0  0  0  0  0  0  0  0  0  0
   46.6940   33.8380   40.0240 H   0  0  0  0  0  0  0  0  0  0  0  0
   44.7890   33.9790   41.1140 C   0  0  0  0  0  0  0  0  0  0  0  0
   44.2500   33.3570   40.4110 H   0  0  0  0  0  0  0  0  0  0  0  0
   44.1450   34.4990   42.2030 C   0  0  0  0  0  3  0  0  0  0  0  0
   44.8580   35.2990   43.0960 C   0  0  0  0  0  3  0  0  0  0  0  0
   46.1480   35.5050   42.8190 N   0  0  0  0  0  0  0  0  0  0  0  0
  1  4  1  1  0  0  0
  2  1  1  0  0  0  0
  2  5  1  0  0  0  0
  3  7  1  6  0  0  0
  3 19  1  0  0  0  0
  3  2  1  0  0  0  0
  3  1  1  0  0  0  0
  6  2  1  0  0  0  0
  8  9  1  0  0  0  0
  8 14  1  0  0  0  0
  9 16  1  0  0  0  0
 10  1  1  0  0  0  0
 10  9  2  0  0  0  0
 11 10  1  0  0  0  0
 12 11  2  0  0  0  0
 12 13  1  0  0  0  0
 13  8  2  0  0  0  0
 15 12  1  0  0  0  0
 16 17  1  0  0  0  0
 18 16  1  0  0  0  0
 19 22  1  0  0  0  0
 19 20  1  0  0  0  0
 21 19  1  0  0  0  0
 22 29  1  0  0  0  0
 23 25  1  0  0  0  0
 23 22  2  0  0  0  0
 24 23  1  0  0  0  0
 25 27  2  0  0  0  0
 26 25  1  0  0  0  0
 27 28  1  0  0  0  0
 29 28  2  0  0  0  0
M  END
>  <minimizedAffinity>
-3.79939389

>  <minimizedRMSD>
5.38075781

$$$$
