
 OpenBabel03242516413D

 31 32  0  0  0  0  0  0  0  0999 V2000
   49.1140   33.8500   42.0800 C   0  0  0  0  0  0  0  0  0  0  0  0
   49.3860   33.8830   43.1710 H   0  0  0  0  0  0  0  0  0  0  0  0
   49.9990   34.2970   41.5700 H   0  0  0  0  0  0  0  0  0  0  0  0
   47.8940   34.6820   41.8510 C   0  0  0  0  0  0  0  0  0  0  0  0
   48.2210   35.7480   41.7650 H   0  0  0  0  0  0  0  0  0  0  0  0
   47.3470   34.4550   40.9390 H   0  0  0  0  0  0  0  0  0  0  0  0
   44.9140   35.1220   44.1050 C   0  0  0  0  0  0  0  0  0  0  0  0
   45.7960   35.2690   43.0100 C   0  0  0  0  0  0  0  0  0  0  0  0
   46.9770   34.5190   43.0070 C   0  0  0  0  0  0  0  0  0  0  0  0
   47.2230   33.6900   44.0450 N   0  0  0  0  0  0  0  0  0  0  0  0
   46.3510   33.5800   45.0710 C   0  0  0  0  0  0  0  0  0  0  0  0
   45.2060   34.2830   45.1130 N   0  0  0  0  0  0  0  0  0  0  0  0
   43.7150   35.8580   44.1510 N   0  0  0  0  0  0  0  0  0  0  0  0
   45.5690   35.9480   42.1830 H   0  0  0  0  0  0  0  0  0  0  0  0
   46.5360   32.9200   45.9090 H   0  0  0  0  0  0  0  0  0  0  0  0
   43.7270   36.9010   44.0110 H   0  0  0  0  0  0  0  0  0  0  0  0
   42.7860   35.4310   44.3170 H   0  0  0  0  0  0  0  0  0  0  0  0
   48.9300   32.5590   41.6530 O   0  0  0  0  0  0  0  0  0  0  0  0
   50.5110   30.4780   41.5650 O   0  0  0  0  0  0  0  0  0  0  0  0
   50.3420   31.8740   41.0440 P   0  0  2  0  0  0  0  0  0  0  0  0
   51.6220   32.8820   41.4500 O   0  0  0  0  0  0  0  0  0  0  0  0
   51.8560   32.7080   42.4090 H   0  0  0  0  0  0  0  0  0  0  0  0
   50.2540   31.8780   39.3320 O   0  0  0  0  0  0  0  0  0  0  0  0
   49.0180   32.1130   38.7450 C   0  0  0  0  0  0  0  0  0  0  0  0
   48.0380   31.1710   38.5550 C   0  0  0  0  0  0  0  0  0  0  0  0
   48.2600   30.1540   38.8980 H   0  0  0  0  0  0  0  0  0  0  0  0
   46.8250   31.4380   37.9690 C   0  0  0  0  0  0  0  0  0  0  0  0
   46.0620   30.6890   37.8240 H   0  0  0  0  0  0  0  0  0  0  0  0
   46.5570   32.7410   37.5360 C   0  0  0  0  0  0  0  0  0  0  0  0
   47.5670   33.6530   37.7480 C   0  0  0  0  0  0  0  0  0  0  0  0
   48.7740   33.3910   38.3290 N   0  0  0  0  0  0  0  0  0  0  0  0
  1  2  1  0  0  0  0
  3  1  1  0  0  0  0
  4  1  1  0  0  0  0
  4  9  1  0  0  0  0
  5  4  1  0  0  0  0
  6  4  1  0  0  0  0
  7 13  1  0  0  0  0
  7 12  1  0  0  0  0
  8  7  2  0  0  0  0
  9  8  1  0  0  0  0
  9 10  2  0  0  0  0
 10 11  1  0  0  0  0
 11 12  2  0  0  0  0
 11 15  1  0  0  0  0
 13 17  1  0  0  0  0
 14  8  1  0  0  0  0
 16 13  1  0  0  0  0
 18  1  1  0  0  0  0
 20 21  1  0  0  0  0
 20 19  2  1  0  0  0
 20 18  1  0  0  0  0
 21 22  1  0  0  0  0
 23 20  1  0  0  0  0
 24 23  1  0  0  0  0
 25 24  1  0  0  0  0
 25 26  1  0  0  0  0
 27 25  2  0  0  0  0
 28 27  1  0  0  0  0
 29 30  2  0  0  0  0
 29 27  1  0  0  0  0
 30 31  1  0  0  0  0
 31 24  2  0  0  0  0
M  END
>  <minimizedAffinity>
-4.52799845

>  <minimizedRMSD>
0.967003763

$$$$
