
 OpenBabel03252505443D

 41 44  0  0  1  0  0  0  0  0999 V2000
   37.6230   30.5810   40.6710 C   0  0  0  0  0  0  0  0  0  0  0  0
   38.8150   31.2390   40.8920 C   0  0  0  0  0  0  0  0  0  0  0  0
   39.5890   31.0180   42.0080 C   0  0  0  0  0  0  0  0  0  0  0  0
   39.1420   30.1070   42.9180 N   0  0  0  0  0  0  0  0  0  0  0  0
   37.9730   29.4550   42.7100 C   0  0  0  0  0  0  0  0  0  0  0  0
   37.2190   29.6770   41.6140 N   0  0  0  0  0  0  0  0  0  0  0  0
   39.1930   31.9670   40.1870 H   0  0  0  0  0  0  0  0  0  0  0  0
   40.5260   31.5390   42.1750 H   0  0  0  0  0  0  0  0  0  0  0  0
   37.4330   30.5810   38.2080 C   0  0  1  0  0  0  0  0  0  0  0  0
   37.1920   32.0730   38.6190 C   0  0  0  0  0  0  0  0  0  0  0  0
   36.7890   30.8630   39.4560 C   0  0  2  0  0  0  0  0  0  0  0  0
   38.5440   30.3760   38.1570 H   0  0  0  0  0  0  0  0  0  0  0  0
   38.0370   32.6310   39.0300 H   0  0  0  0  0  0  0  0  0  0  0  0
   36.3660   32.5770   38.1050 H   0  0  0  0  0  0  0  0  0  0  0  0
   35.7070   30.7120   39.6040 H   0  0  0  0  0  0  0  0  0  0  0  0
   36.7280   30.1830   36.9690 C   0  0  0  0  0  0  0  0  0  0  0  0
   35.8190   29.1140   37.0540 C   0  0  0  0  0  0  0  0  0  0  0  0
   35.1440   28.7210   35.9050 C   0  0  0  0  0  0  0  0  0  0  0  0
   35.4000   29.3950   34.7550 N   0  0  0  0  0  0  0  0  0  0  0  0
   36.2690   30.4050   34.7070 C   0  0  0  0  0  0  0  0  0  0  0  0
   36.9070   30.7660   35.8230 N   0  0  0  0  0  0  0  0  0  0  0  0
   35.6050   28.5680   37.9650 H   0  0  0  0  0  0  0  0  0  0  0  0
   34.4530   27.9160   35.9540 H   0  0  0  0  0  0  0  0  0  0  0  0
   36.4100   31.0220   33.3480 C   0  0  0  0  0  0  0  0  0  0  0  0
   36.8180   30.0890   32.4080 F   0  0  0  0  0  0  0  0  0  0  0  0
   37.4400   31.9930   33.4000 F   0  0  0  0  0  0  0  0  0  0  0  0
   35.2650   31.6920   33.0140 F   0  0  0  0  0  0  0  0  0  0  0  0
   37.4370   28.4640   43.6790 C   0  0  0  0  0  0  0  0  0  0  0  0
   36.8090   28.9780   44.4210 H   0  0  0  0  0  0  0  0  0  0  0  0
   38.2700   27.9490   44.2140 H   0  0  0  0  0  0  0  0  0  0  0  0
   36.6550   27.3900   42.9530 C   0  0  0  0  0  0  0  0  0  0  0  0
   35.8610   27.0420   43.6460 H   0  0  0  0  0  0  0  0  0  0  0  0
   36.1300   27.8160   42.0790 H   0  0  0  0  0  0  0  0  0  0  0  0
   37.5090   26.2350   42.6000 C   0  0  0  0  0  0  0  0  0  0  0  0
   36.9350   25.1840   41.8870 C   0  0  0  0  0  0  0  0  0  0  0  0
   35.8810   25.2590   41.6200 H   0  0  0  0  0  0  0  0  0  0  0  0
   37.6340   24.0590   41.5060 C   0  0  0  0  0  0  0  0  0  0  0  0
   37.1470   23.2570   40.9480 H   0  0  0  0  0  0  0  0  0  0  0  0
   38.9690   23.9560   41.8410 C   0  0  0  0  0  3  0  0  0  0  0  0
   39.5000   25.0120   42.5440 C   0  0  0  0  0  3  0  0  0  0  0  0
   38.8170   26.1210   42.9220 N   0  0  0  0  0  0  0  0  0  0  0  0
  1  2  2  0  0  0  0
  1  6  1  0  0  0  0
  2  3  1  0  0  0  0
  3  8  1  0  0  0  0
  3  4  2  0  0  0  0
  5  4  1  0  0  0  0
  5 28  1  0  0  0  0
  6  5  2  0  0  0  0
  7  2  1  0  0  0  0
  9 12  1  1  0  0  0
  9 10  1  0  0  0  0
  9 11  1  0  0  0  0
 10 13  1  0  0  0  0
 10 11  1  0  0  0  0
 11 15  1  1  0  0  0
 11  1  1  0  0  0  0
 14 10  1  0  0  0  0
 16 17  1  0  0  0  0
 16  9  1  0  0  0  0
 17 22  1  0  0  0  0
 18 23  1  0  0  0  0
 18 17  2  0  0  0  0
 19 18  1  0  0  0  0
 20 19  2  0  0  0  0
 20 21  1  0  0  0  0
 21 16  2  0  0  0  0
 24 26  1  0  0  0  0
 24 20  1  0  0  0  0
 25 24  1  0  0  0  0
 27 24  1  0  0  0  0
 28 30  1  0  0  0  0
 28 29  1  0  0  0  0
 31 32  1  0  0  0  0
 31 28  1  0  0  0  0
 33 31  1  0  0  0  0
 34 41  1  0  0  0  0
 34 31  1  0  0  0  0
 35 34  2  0  0  0  0
 36 35  1  0  0  0  0
 37 39  2  0  0  0  0
 37 35  1  0  0  0  0
 38 37  1  0  0  0  0
 39 40  1  0  0  0  0
 40 41  2  0  0  0  0
M  END
>  <minimizedAffinity>
-6.34218359

$$$$

 OpenBabel03252505443D

 41 44  0  0  1  0  0  0  0  0999 V2000
   35.8680   29.4500   37.7730 C   0  0  0  0  0  0  0  0  0  0  0  0
   36.8530   29.7700   36.8620 C   0  0  0  0  0  0  0  0  0  0  0  0
   36.6350   29.7710   35.5040 C   0  0  0  0  0  0  0  0  0  0  0  0
   35.3890   29.4390   35.0610 N   0  0  0  0  0  0  0  0  0  0  0  0
   34.4150   29.1230   35.9480 C   0  0  0  0  0  0  0  0  0  0  0  0
   34.6350   29.1240   37.2790 N   0  0  0  0  0  0  0  0  0  0  0  0
   37.8500   30.0370   37.1850 H   0  0  0  0  0  0  0  0  0  0  0  0
   37.4150   30.0240   34.7920 H   0  0  0  0  0  0  0  0  0  0  0  0
   36.1290   28.1320   39.8460 C   0  0  1  0  0  0  0  0  0  0  0  0
   34.9600   29.1260   40.1590 C   0  0  0  0  0  0  0  0  0  0  0  0
   36.1440   29.4330   39.2470 C   0  0  2  0  0  0  0  0  0  0  0  0
   35.7250   27.2370   39.2850 H   0  0  0  0  0  0  0  0  0  0  0  0
   34.0170   28.9890   39.6250 H   0  0  0  0  0  0  0  0  0  0  0  0
   34.9980   29.6030   41.1450 H   0  0  0  0  0  0  0  0  0  0  0  0
   36.8290   30.2270   39.5900 H   0  0  0  0  0  0  0  0  0  0  0  0
   36.9180   27.7440   41.0370 C   0  0  0  0  0  0  0  0  0  0  0  0
   37.0530   28.6940   42.0630 C   0  0  0  0  0  0  0  0  0  0  0  0
   37.7890   28.3550   43.1910 C   0  0  0  0  0  0  0  0  0  0  0  0
   38.3390   27.1160   43.2430 N   0  0  0  0  0  0  0  0  0  0  0  0
   38.1930   26.2360   42.2510 C   0  0  0  0  0  0  0  0  0  0  0  0
   37.4820   26.5830   41.1760 N   0  0  0  0  0  0  0  0  0  0  0  0
   36.6180   29.6860   42.0360 H   0  0  0  0  0  0  0  0  0  0  0  0
   37.8990   29.0620   43.9770 H   0  0  0  0  0  0  0  0  0  0  0  0
   38.8730   24.9230   42.4970 C   0  0  0  0  0  0  0  0  0  0  0  0
   39.6400   24.5380   41.4070 F   0  0  0  0  0  0  0  0  0  0  0  0
   37.8810   23.9230   42.6440 F   0  0  0  0  0  0  0  0  0  0  0  0
   39.5590   24.9620   43.6790 F   0  0  0  0  0  0  0  0  0  0  0  0
   33.0460   28.7420   35.5150 C   0  0  0  0  0  0  0  0  0  0  0  0
   33.0550   27.7110   35.1330 H   0  0  0  0  0  0  0  0  0  0  0  0
   32.6890   29.4190   34.7030 H   0  0  0  0  0  0  0  0  0  0  0  0
   32.0720   28.8890   36.6650 C   0  0  0  0  0  0  0  0  0  0  0  0
   31.3560   28.0430   36.5950 H   0  0  0  0  0  0  0  0  0  0  0  0
   32.5920   28.7680   37.6320 H   0  0  0  0  0  0  0  0  0  0  0  0
   31.3110   30.1550   36.5800 C   0  0  0  0  0  0  0  0  0  0  0  0
   31.3150   30.8460   35.3690 C   0  0  0  0  0  0  0  0  0  0  0  0
   31.8800   30.4250   34.5390 H   0  0  0  0  0  0  0  0  0  0  0  0
   30.6420   32.0340   35.1760 C   0  0  0  0  0  0  0  0  0  0  0  0
   30.6710   32.5450   34.2120 H   0  0  0  0  0  0  0  0  0  0  0  0
   29.9260   32.5750   36.2240 C   0  0  0  0  0  3  0  0  0  0  0  0
   29.9450   31.8640   37.4010 C   0  0  0  0  0  3  0  0  0  0  0  0
   30.6050   30.6960   37.5970 N   0  0  0  0  0  0  0  0  0  0  0  0
  1 11  1  0  0  0  0
  2  7  1  0  0  0  0
  2  1  2  0  0  0  0
  3  2  1  0  0  0  0
  4  3  2  0  0  0  0
  4  5  1  0  0  0  0
  5  6  2  0  0  0  0
  6  1  1  0  0  0  0
  8  3  1  0  0  0  0
  9 12  1  6  0  0  0
  9 10  1  0  0  0  0
  9 16  1  0  0  0  0
 10 14  1  0  0  0  0
 11 15  1  1  0  0  0
 11  9  1  0  0  0  0
 11 10  1  0  0  0  0
 13 10  1  0  0  0  0
 16 21  2  0  0  0  0
 16 17  1  0  0  0  0
 17 18  2  0  0  0  0
 18 19  1  0  0  0  0
 18 23  1  0  0  0  0
 20 24  1  0  0  0  0
 20 19  2  0  0  0  0
 21 20  1  0  0  0  0
 22 17  1  0  0  0  0
 24 26  1  0  0  0  0
 24 27  1  0  0  0  0
 25 24  1  0  0  0  0
 28  5  1  0  0  0  0
 28 31  1  0  0  0  0
 29 28  1  0  0  0  0
 30 28  1  0  0  0  0
 31 33  1  0  0  0  0
 32 31  1  0  0  0  0
 34 31  1  0  0  0  0
 34 41  1  0  0  0  0
 35 34  2  0  0  0  0
 36 35  1  0  0  0  0
 37 35  1  0  0  0  0
 37 39  2  0  0  0  0
 38 37  1  0  0  0  0
 39 40  1  0  0  0  0
 40 41  2  0  0  0  0
M  END
>  <minimizedAffinity>
-6.0256896

$$$$

 OpenBabel03252505443D

 41 44  0  0  1  0  0  0  0  0999 V2000
   40.3000   30.9040   42.1100 C   0  0  0  0  0  0  0  0  0  0  0  0
   41.6240   31.2740   42.2260 C   0  0  0  0  0  0  0  0  0  0  0  0
   42.1450   32.3740   41.5830 C   0  0  0  0  0  0  0  0  0  0  0  0
   41.3030   33.1120   40.8070 N   0  0  0  0  0  0  0  0  0  0  0  0
   40.0010   32.7560   40.6870 C   0  0  0  0  0  0  0  0  0  0  0  0
   39.4960   31.6770   41.3200 N   0  0  0  0  0  0  0  0  0  0  0  0
   42.3140   30.7070   42.8350 H   0  0  0  0  0  0  0  0  0  0  0  0
   43.1870   32.6600   41.6790 H   0  0  0  0  0  0  0  0  0  0  0  0
   39.1780   28.7100   41.9340 C   0  0  1  0  0  0  0  0  0  0  0  0
   38.2500   29.5500   42.8770 C   0  0  0  0  0  0  0  0  0  0  0  0
   39.7680   29.6840   42.8030 C   0  0  2  0  0  0  0  0  0  0  0  0
   38.9440   28.9560   40.8560 H   0  0  0  0  0  0  0  0  0  0  0  0
   37.7120   30.3950   42.4410 H   0  0  0  0  0  0  0  0  0  0  0  0
   37.8740   29.0220   43.7600 H   0  0  0  0  0  0  0  0  0  0  0  0
   40.3270   29.3980   43.7110 H   0  0  0  0  0  0  0  0  0  0  0  0
   39.1410   27.2550   42.2040 C   0  0  0  0  0  0  0  0  0  0  0  0
   40.0500   26.7460   43.1470 C   0  0  0  0  0  0  0  0  0  0  0  0
   40.0360   25.3840   43.4170 C   0  0  0  0  0  0  0  0  0  0  0  0
   39.1390   24.6130   42.7530 N   0  0  0  0  0  0  0  0  0  0  0  0
   38.2880   25.1260   41.8630 C   0  0  0  0  0  0  0  0  0  0  0  0
   38.3200   26.4380   41.6180 N   0  0  0  0  0  0  0  0  0  0  0  0
   40.7710   27.3500   43.6850 H   0  0  0  0  0  0  0  0  0  0  0  0
   40.7160   24.9840   44.1280 H   0  0  0  0  0  0  0  0  0  0  0  0
   37.3750   24.1140   41.2380 C   0  0  0  0  0  0  0  0  0  0  0  0
   37.9690   22.8630   41.1820 F   0  0  0  0  0  0  0  0  0  0  0  0
   37.1380   24.4910   39.8940 F   0  0  0  0  0  0  0  0  0  0  0  0
   36.1580   24.1300   41.8630 F   0  0  0  0  0  0  0  0  0  0  0  0
   39.0480   33.5210   39.8410 C   0  0  0  0  0  0  0  0  0  0  0  0
   39.3510   33.4470   38.7870 H   0  0  0  0  0  0  0  0  0  0  0  0
   39.0390   34.5970   40.1360 H   0  0  0  0  0  0  0  0  0  0  0  0
   37.6390   33.0020   40.0400 C   0  0  0  0  0  0  0  0  0  0  0  0
   37.5910   32.5750   41.0640 H   0  0  0  0  0  0  0  0  0  0  0  0
   36.9120   33.8340   40.0240 H   0  0  0  0  0  0  0  0  0  0  0  0
   37.3060   31.9340   39.0720 C   0  0  0  0  0  0  0  0  0  0  0  0
   36.5050   30.8790   39.5040 C   0  0  0  0  0  0  0  0  0  0  0  0
   36.1590   30.8860   40.5370 H   0  0  0  0  0  0  0  0  0  0  0  0
   36.1330   29.8300   38.6900 C   0  0  0  0  0  0  0  0  0  0  0  0
   35.5040   29.0220   39.0670 H   0  0  0  0  0  0  0  0  0  0  0  0
   36.5690   29.8140   37.3800 C   0  0  0  0  0  3  0  0  0  0  0  0
   37.3570   30.8720   36.9910 C   0  0  0  0  0  3  0  0  0  0  0  0
   37.7260   31.9050   37.7880 N   0  0  0  0  0  0  0  0  0  0  0  0
  1  2  1  0  0  0  0
  1 11  1  0  0  0  0
  2  7  1  0  0  0  0
  3  8  1  0  0  0  0
  3  2  2  0  0  0  0
  4  3  1  0  0  0  0
  5  4  2  0  0  0  0
  5  6  1  0  0  0  0
  6  1  2  0  0  0  0
  9 12  1  6  0  0  0
  9 16  1  0  0  0  0
  9 11  1  0  0  0  0
  9 10  1  0  0  0  0
 10 14  1  0  0  0  0
 11 10  1  0  0  0  0
 11 15  1  1  0  0  0
 13 10  1  0  0  0  0
 16 17  1  0  0  0  0
 17 18  2  0  0  0  0
 17 22  1  0  0  0  0
 18 23  1  0  0  0  0
 19 18  1  0  0  0  0
 20 19  2  0  0  0  0
 21 20  1  0  0  0  0
 21 16  2  0  0  0  0
 24 27  1  0  0  0  0
 24 20  1  0  0  0  0
 25 24  1  0  0  0  0
 26 24  1  0  0  0  0
 28 31  1  0  0  0  0
 28 30  1  0  0  0  0
 28  5  1  0  0  0  0
 29 28  1  0  0  0  0
 31 32  1  0  0  0  0
 33 31  1  0  0  0  0
 34 35  1  0  0  0  0
 34 31  1  0  0  0  0
 35 36  1  0  0  0  0
 37 38  1  0  0  0  0
 37 35  2  0  0  0  0
 39 37  1  0  0  0  0
 40 39  2  0  0  0  0
 40 41  1  0  0  0  0
 41 34  2  0  0  0  0
M  END
>  <minimizedAffinity>
-5.94550467

$$$$

 OpenBabel03252505443D

 41 44  0  0  1  0  0  0  0  0999 V2000
   37.5550   29.9670   39.1450 C   0  0  0  0  0  0  0  0  0  0  0  0
   36.2440   29.6510   38.8540 C   0  0  0  0  0  0  0  0  0  0  0  0
   35.3630   29.1950   39.8070 C   0  0  0  0  0  0  0  0  0  0  0  0
   35.8240   29.0560   41.0830 N   0  0  0  0  0  0  0  0  0  0  0  0
   37.1100   29.3640   41.3770 C   0  0  0  0  0  0  0  0  0  0  0  0
   37.9690   29.8110   40.4390 N   0  0  0  0  0  0  0  0  0  0  0  0
   35.8520   29.7510   37.8520 H   0  0  0  0  0  0  0  0  0  0  0  0
   34.3320   28.9490   39.5720 H   0  0  0  0  0  0  0  0  0  0  0  0
   39.2540   31.6060   38.4190 C   0  0  1  0  0  0  0  0  0  0  0  0
   38.1170   31.7210   37.3480 C   0  0  0  0  0  0  0  0  0  0  0  0
   38.4990   30.4380   38.0780 C   0  0  2  0  0  0  0  0  0  0  0  0
   38.9870   32.2300   39.3230 H   0  0  0  0  0  0  0  0  0  0  0  0
   37.1590   32.1390   37.6650 H   0  0  0  0  0  0  0  0  0  0  0  0
   38.4540   31.7800   36.3070 H   0  0  0  0  0  0  0  0  0  0  0  0
   38.9200   29.6290   37.4560 H   0  0  0  0  0  0  0  0  0  0  0  0
   40.6020   31.9200   37.8930 C   0  0  0  0  0  0  0  0  0  0  0  0
   41.0680   33.2370   38.0450 C   0  0  0  0  0  0  0  0  0  0  0  0
   42.3300   33.5560   37.5600 C   0  0  0  0  0  0  0  0  0  0  0  0
   43.0500   32.5730   36.9630 N   0  0  0  0  0  0  0  0  0  0  0  0
   42.5790   31.3320   36.8350 C   0  0  0  0  0  0  0  0  0  0  0  0
   41.3640   31.0470   37.3070 N   0  0  0  0  0  0  0  0  0  0  0  0
   40.5050   34.0310   38.5190 H   0  0  0  0  0  0  0  0  0  0  0  0
   42.6960   34.5480   37.6680 H   0  0  0  0  0  0  0  0  0  0  0  0
   43.5250   30.3900   36.1510 C   0  0  0  0  0  0  0  0  0  0  0  0
   42.9470   29.8200   35.0270 F   0  0  0  0  0  0  0  0  0  0  0  0
   43.8020   29.3150   37.0300 F   0  0  0  0  0  0  0  0  0  0  0  0
   44.7190   31.0120   35.9140 F   0  0  0  0  0  0  0  0  0  0  0  0
   37.6620   29.2170   42.7490 C   0  0  0  0  0  0  0  0  0  0  0  0
   37.4300   30.1160   43.3370 H   0  0  0  0  0  0  0  0  0  0  0  0
   38.7710   29.0900   42.7140 H   0  0  0  0  0  0  0  0  0  0  0  0
   37.1020   27.9740   43.4090 C   0  0  0  0  0  0  0  0  0  0  0  0
   37.0920   28.1640   44.5030 H   0  0  0  0  0  0  0  0  0  0  0  0
   36.0470   27.8210   43.1170 H   0  0  0  0  0  0  0  0  0  0  0  0
   37.9460   26.7870   43.1480 C   0  0  0  0  0  0  0  0  0  0  0  0
   39.2340   26.7640   43.6800 C   0  0  0  0  0  0  0  0  0  0  0  0
   39.5640   27.6220   44.2640 H   0  0  0  0  0  0  0  0  0  0  0  0
   40.1060   25.7120   43.5000 C   0  0  0  0  0  0  0  0  0  0  0  0
   41.1080   25.7330   43.9340 H   0  0  0  0  0  0  0  0  0  0  0  0
   39.6960   24.6220   42.7590 C   0  0  0  0  0  3  0  0  0  0  0  0
   38.4190   24.6810   42.2510 C   0  0  0  0  0  3  0  0  0  0  0  0
   37.5570   25.7140   42.4250 N   0  0  0  0  0  0  0  0  0  0  0  0
  1  6  1  0  0  0  0
  2  1  2  0  0  0  0
  2  3  1  0  0  0  0
  3  4  2  0  0  0  0
  4  5  1  0  0  0  0
  5 28  1  0  0  0  0
  6  5  2  0  0  0  0
  7  2  1  0  0  0  0
  8  3  1  0  0  0  0
  9 12  1  1  0  0  0
 10 13  1  0  0  0  0
 10 11  1  0  0  0  0
 10  9  1  0  0  0  0
 11 15  1  6  0  0  0
 11  9  1  0  0  0  0
 11  1  1  0  0  0  0
 14 10  1  0  0  0  0
 16 17  1  0  0  0  0
 16  9  1  0  0  0  0
 17 22  1  0  0  0  0
 18 23  1  0  0  0  0
 18 17  2  0  0  0  0
 19 18  1  0  0  0  0
 20 19  2  0  0  0  0
 20 21  1  0  0  0  0
 21 16  2  0  0  0  0
 24 20  1  0  0  0  0
 24 26  1  0  0  0  0
 25 24  1  0  0  0  0
 27 24  1  0  0  0  0
 28 29  1  0  0  0  0
 28 31  1  0  0  0  0
 30 28  1  0  0  0  0
 31 32  1  0  0  0  0
 33 31  1  0  0  0  0
 34 31  1  0  0  0  0
 34 35  1  0  0  0  0
 35 36  1  0  0  0  0
 37 35  2  0  0  0  0
 37 38  1  0  0  0  0
 39 37  1  0  0  0  0
 40 41  1  0  0  0  0
 40 39  2  0  0  0  0
 41 34  2  0  0  0  0
M  END
>  <minimizedAffinity>
-5.9418664

$$$$

 OpenBabel03252505443D

 41 44  0  0  1  0  0  0  0  0999 V2000
   37.6050   30.5420   40.7030 C   0  0  0  0  0  0  0  0  0  0  0  0
   38.7580   31.2690   40.9150 C   0  0  0  0  0  0  0  0  0  0  0  0
   39.5640   31.0780   42.0140 C   0  0  0  0  0  0  0  0  0  0  0  0
   39.1900   30.1280   42.9170 N   0  0  0  0  0  0  0  0  0  0  0  0
   38.0580   29.4100   42.7170 C   0  0  0  0  0  0  0  0  0  0  0  0
   37.2730   29.6020   41.6380 N   0  0  0  0  0  0  0  0  0  0  0  0
   39.0790   32.0290   40.2160 H   0  0  0  0  0  0  0  0  0  0  0  0
   40.4700   31.6530   42.1740 H   0  0  0  0  0  0  0  0  0  0  0  0
   37.1740   30.1560   38.3020 C   0  0  1  0  0  0  0  0  0  0  0  0
   37.3020   31.7120   38.4310 C   0  0  0  0  0  0  0  0  0  0  0  0
   36.7340   30.7920   39.5080 C   0  0  2  0  0  0  0  0  0  0  0  0
   38.2040   29.6960   38.2270 H   0  0  0  0  0  0  0  0  0  0  0  0
   38.2830   32.1240   38.6770 H   0  0  0  0  0  0  0  0  0  0  0  0
   36.5550   32.2940   37.8780 H   0  0  0  0  0  0  0  0  0  0  0  0
   35.6650   30.9220   39.7450 H   0  0  0  0  0  0  0  0  0  0  0  0
   36.2790   29.7200   37.2060 C   0  0  0  0  0  0  0  0  0  0  0  0
   36.8370   29.5980   35.9220 C   0  0  0  0  0  0  0  0  0  0  0  0
   36.0180   29.1910   34.8770 C   0  0  0  0  0  0  0  0  0  0  0  0
   34.7150   28.9290   35.1540 N   0  0  0  0  0  0  0  0  0  0  0  0
   34.2160   29.0540   36.3840 C   0  0  0  0  0  0  0  0  0  0  0  0
   35.0210   29.4480   37.3740 N   0  0  0  0  0  0  0  0  0  0  0  0
   37.8740   29.8030   35.6870 H   0  0  0  0  0  0  0  0  0  0  0  0
   36.4250   29.0930   33.9000 H   0  0  0  0  0  0  0  0  0  0  0  0
   32.7590   28.7170   36.4870 C   0  0  0  0  0  0  0  0  0  0  0  0
   32.0320   29.2900   35.4550 F   0  0  0  0  0  0  0  0  0  0  0  0
   32.2490   29.2850   37.6800 F   0  0  0  0  0  0  0  0  0  0  0  0
   32.5960   27.3650   36.6040 F   0  0  0  0  0  0  0  0  0  0  0  0
   37.6010   28.3730   43.6800 C   0  0  0  0  0  0  0  0  0  0  0  0
   37.0410   28.8510   44.4960 H   0  0  0  0  0  0  0  0  0  0  0  0
   38.4740   27.8310   44.1160 H   0  0  0  0  0  0  0  0  0  0  0  0
   36.7530   27.3380   42.9710 C   0  0  0  0  0  0  0  0  0  0  0  0
   35.9800   27.0020   43.6930 H   0  0  0  0  0  0  0  0  0  0  0  0
   36.2050   27.7950   42.1280 H   0  0  0  0  0  0  0  0  0  0  0  0
   37.5530   26.1620   42.5610 C   0  0  0  0  0  0  0  0  0  0  0  0
   36.9490   25.2050   41.7480 C   0  0  0  0  0  0  0  0  0  0  0  0
   35.9140   25.3640   41.4490 H   0  0  0  0  0  0  0  0  0  0  0  0
   37.5980   24.0710   41.3060 C   0  0  0  0  0  0  0  0  0  0  0  0
   37.0880   23.3450   40.6700 H   0  0  0  0  0  0  0  0  0  0  0  0
   38.9090   23.8630   41.6810 C   0  0  0  0  0  3  0  0  0  0  0  0
   39.4710   24.8290   42.4830 C   0  0  0  0  0  3  0  0  0  0  0  0
   38.8380   25.9450   42.9210 N   0  0  0  0  0  0  0  0  0  0  0  0
  1  2  2  0  0  0  0
  1  6  1  0  0  0  0
  2  3  1  0  0  0  0
  3  8  1  0  0  0  0
  3  4  2  0  0  0  0
  5  4  1  0  0  0  0
  5 28  1  0  0  0  0
  6  5  2  0  0  0  0
  7  2  1  0  0  0  0
  9 12  1  1  0  0  0
  9 10  1  0  0  0  0
  9 11  1  0  0  0  0
 10 13  1  0  0  0  0
 10 11  1  0  0  0  0
 11 15  1  1  0  0  0
 11  1  1  0  0  0  0
 14 10  1  0  0  0  0
 16 21  1  0  0  0  0
 16  9  1  0  0  0  0
 17 16  2  0  0  0  0
 18 19  2  0  0  0  0
 18 17  1  0  0  0  0
 19 20  1  0  0  0  0
 20 24  1  0  0  0  0
 20 21  2  0  0  0  0
 22 17  1  0  0  0  0
 23 18  1  0  0  0  0
 24 27  1  0  0  0  0
 24 26  1  0  0  0  0
 25 24  1  0  0  0  0
 28 30  1  0  0  0  0
 28 29  1  0  0  0  0
 31 28  1  0  0  0  0
 31 32  1  0  0  0  0
 33 31  1  0  0  0  0
 34 41  1  0  0  0  0
 34 31  1  0  0  0  0
 35 34  2  0  0  0  0
 36 35  1  0  0  0  0
 37 39  2  0  0  0  0
 37 35  1  0  0  0  0
 38 37  1  0  0  0  0
 39 40  1  0  0  0  0
 40 41  2  0  0  0  0
M  END
>  <minimizedAffinity>
-5.85714388

$$$$

 OpenBabel03252505443D

 41 44  0  0  1  0  0  0  0  0999 V2000
   37.2660   30.2820   40.5400 C   0  0  0  0  0  0  0  0  0  0  0  0
   38.3540   31.1240   40.6350 C   0  0  0  0  0  0  0  0  0  0  0  0
   39.2220   31.0970   41.7030 C   0  0  0  0  0  0  0  0  0  0  0  0
   38.9780   30.1940   42.6950 N   0  0  0  0  0  0  0  0  0  0  0  0
   37.9110   29.3630   42.6100 C   0  0  0  0  0  0  0  0  0  0  0  0
   37.0640   29.3950   41.5610 N   0  0  0  0  0  0  0  0  0  0  0  0
   38.5720   31.8500   39.8640 H   0  0  0  0  0  0  0  0  0  0  0  0
   40.0770   31.7610   41.7720 H   0  0  0  0  0  0  0  0  0  0  0  0
   36.2410   29.1550   38.5950 C   0  0  1  0  0  0  0  0  0  0  0  0
   36.9560   30.4100   37.9890 C   0  0  0  0  0  0  0  0  0  0  0  0
   36.3230   30.3540   39.3750 C   0  0  2  0  0  0  0  0  0  0  0  0
   36.9910   28.3200   38.7290 H   0  0  0  0  0  0  0  0  0  0  0  0
   38.0490   30.4310   38.0040 H   0  0  0  0  0  0  0  0  0  0  0  0
   36.3810   30.9640   37.2380 H   0  0  0  0  0  0  0  0  0  0  0  0
   35.4500   31.0080   39.5380 H   0  0  0  0  0  0  0  0  0  0  0  0
   35.0450   28.7260   37.8360 C   0  0  0  0  0  0  0  0  0  0  0  0
   35.1650   27.5830   37.0280 C   0  0  0  0  0  0  0  0  0  0  0  0
   34.0570   27.1590   36.3050 C   0  0  0  0  0  0  0  0  0  0  0  0
   32.9100   27.8760   36.4210 N   0  0  0  0  0  0  0  0  0  0  0  0
   32.8280   28.9570   37.1970 C   0  0  0  0  0  0  0  0  0  0  0  0
   33.9060   29.3470   37.8820 N   0  0  0  0  0  0  0  0  0  0  0  0
   36.0730   27.0010   36.9260 H   0  0  0  0  0  0  0  0  0  0  0  0
   34.1310   26.2960   35.6900 H   0  0  0  0  0  0  0  0  0  0  0  0
   31.4780   29.6090   37.1940 C   0  0  0  0  0  0  0  0  0  0  0  0
   31.5010   30.8190   36.5190 F   0  0  0  0  0  0  0  0  0  0  0  0
   31.1240   29.9180   38.5300 F   0  0  0  0  0  0  0  0  0  0  0  0
   30.5330   28.7310   36.7390 F   0  0  0  0  0  0  0  0  0  0  0  0
   37.5960   28.3720   43.6720 C   0  0  0  0  0  0  0  0  0  0  0  0
   37.1040   28.8800   44.5140 H   0  0  0  0  0  0  0  0  0  0  0  0
   38.5280   27.8860   44.0440 H   0  0  0  0  0  0  0  0  0  0  0  0
   36.7200   27.2690   43.1150 C   0  0  0  0  0  0  0  0  0  0  0  0
   36.0760   26.9140   43.9470 H   0  0  0  0  0  0  0  0  0  0  0  0
   36.0330   27.6670   42.3470 H   0  0  0  0  0  0  0  0  0  0  0  0
   37.5240   26.1260   42.6260 C   0  0  0  0  0  0  0  0  0  0  0  0
   36.8760   25.1260   41.9030 C   0  0  0  0  0  0  0  0  0  0  0  0
   35.8050   25.2290   41.7300 H   0  0  0  0  0  0  0  0  0  0  0  0
   37.5240   24.0180   41.4000 C   0  0  0  0  0  0  0  0  0  0  0  0
   36.9790   23.2570   40.8390 H   0  0  0  0  0  0  0  0  0  0  0  0
   38.8800   23.8800   41.6170 C   0  0  0  0  0  3  0  0  0  0  0  0
   39.4840   24.8870   42.3340 C   0  0  0  0  0  3  0  0  0  0  0  0
   38.8520   25.9790   42.8310 N   0  0  0  0  0  0  0  0  0  0  0  0
  1  2  2  0  0  0  0
  1  6  1  0  0  0  0
  2  3  1  0  0  0  0
  3  8  1  0  0  0  0
  3  4  2  0  0  0  0
  5  4  1  0  0  0  0
  5 28  1  0  0  0  0
  6  5  2  0  0  0  0
  7  2  1  0  0  0  0
  9 12  1  1  0  0  0
  9 11  1  0  0  0  0
 10 13  1  0  0  0  0
 10  9  1  0  0  0  0
 10 11  1  0  0  0  0
 11 15  1  1  0  0  0
 11  1  1  0  0  0  0
 14 10  1  0  0  0  0
 16 21  1  0  0  0  0
 16  9  1  0  0  0  0
 17 16  2  0  0  0  0
 18 19  2  0  0  0  0
 18 17  1  0  0  0  0
 19 20  1  0  0  0  0
 20 21  2  0  0  0  0
 22 17  1  0  0  0  0
 23 18  1  0  0  0  0
 24 20  1  0  0  0  0
 24 26  1  0  0  0  0
 25 24  1  0  0  0  0
 27 24  1  0  0  0  0
 28 30  1  0  0  0  0
 28 29  1  0  0  0  0
 31 28  1  0  0  0  0
 31 32  1  0  0  0  0
 33 31  1  0  0  0  0
 34 41  1  0  0  0  0
 34 31  1  0  0  0  0
 35 34  2  0  0  0  0
 36 35  1  0  0  0  0
 37 39  2  0  0  0  0
 37 35  1  0  0  0  0
 38 37  1  0  0  0  0
 39 40  1  0  0  0  0
 40 41  2  0  0  0  0
M  END
>  <minimizedAffinity>
-5.84674263

$$$$

 OpenBabel03252505443D

 41 44  0  0  1  0  0  0  0  0999 V2000
   35.5940   28.8170   37.5850 C   0  0  0  0  0  0  0  0  0  0  0  0
   36.5790   28.2740   36.7870 C   0  0  0  0  0  0  0  0  0  0  0  0
   36.3200   27.7520   35.5400 C   0  0  0  0  0  0  0  0  0  0  0  0
   35.0320   27.7840   35.0950 N   0  0  0  0  0  0  0  0  0  0  0  0
   34.0580   28.3160   35.8720 C   0  0  0  0  0  0  0  0  0  0  0  0
   34.3190   28.8250   37.0930 N   0  0  0  0  0  0  0  0  0  0  0  0
   37.6090   28.2350   37.1150 H   0  0  0  0  0  0  0  0  0  0  0  0
   37.1000   27.3260   34.9170 H   0  0  0  0  0  0  0  0  0  0  0  0
   36.0630   28.3570   39.9660 C   0  0  1  0  0  0  0  0  0  0  0  0
   34.7890   29.2690   39.9870 C   0  0  0  0  0  0  0  0  0  0  0  0
   35.9050   29.3550   38.9510 C   0  0  2  0  0  0  0  0  0  0  0  0
   35.7580   27.2840   39.7820 H   0  0  0  0  0  0  0  0  0  0  0  0
   33.8570   28.8510   39.5970 H   0  0  0  0  0  0  0  0  0  0  0  0
   34.7920   30.0660   40.7390 H   0  0  0  0  0  0  0  0  0  0  0  0
   36.4960   30.2870   38.9480 H   0  0  0  0  0  0  0  0  0  0  0  0
   36.9210   28.5040   41.1640 C   0  0  0  0  0  0  0  0  0  0  0  0
   36.5550   27.7880   42.3160 C   0  0  0  0  0  0  0  0  0  0  0  0
   37.3440   27.9090   43.4530 C   0  0  0  0  0  0  0  0  0  0  0  0
   38.4320   28.7170   43.3890 N   0  0  0  0  0  0  0  0  0  0  0  0
   38.7530   29.3840   42.2790 C   0  0  0  0  0  0  0  0  0  0  0  0
   37.9800   29.2530   41.1980 N   0  0  0  0  0  0  0  0  0  0  0  0
   35.6900   27.1400   42.3810 H   0  0  0  0  0  0  0  0  0  0  0  0
   37.0810   27.3730   44.3320 H   0  0  0  0  0  0  0  0  0  0  0  0
   39.9910   30.2200   42.4070 C   0  0  0  0  0  0  0  0  0  0  0  0
   40.4740   30.6030   41.1650 F   0  0  0  0  0  0  0  0  0  0  0  0
   41.0100   29.4280   42.9900 F   0  0  0  0  0  0  0  0  0  0  0  0
   39.7700   31.2590   43.2680 F   0  0  0  0  0  0  0  0  0  0  0  0
   32.6370   28.3600   35.4370 C   0  0  0  0  0  0  0  0  0  0  0  0
   31.9940   27.9720   36.2400 H   0  0  0  0  0  0  0  0  0  0  0  0
   32.4860   27.7340   34.5260 H   0  0  0  0  0  0  0  0  0  0  0  0
   32.2480   29.7750   35.0640 C   0  0  0  0  0  0  0  0  0  0  0  0
   33.1860   30.3660   35.0070 H   0  0  0  0  0  0  0  0  0  0  0  0
   31.8090   29.8030   34.0500 H   0  0  0  0  0  0  0  0  0  0  0  0
   31.3700   30.3890   36.0840 C   0  0  0  0  0  0  0  0  0  0  0  0
   30.8160   31.6390   35.8110 C   0  0  0  0  0  0  0  0  0  0  0  0
   31.0550   32.1100   34.8580 H   0  0  0  0  0  0  0  0  0  0  0  0
   29.9860   32.3040   36.6880 C   0  0  0  0  0  0  0  0  0  0  0  0
   29.5720   33.2830   36.4360 H   0  0  0  0  0  0  0  0  0  0  0  0
   29.6800   31.7150   37.8970 C   0  0  0  0  0  3  0  0  0  0  0  0
   30.2440   30.4820   38.1300 C   0  0  0  0  0  3  0  0  0  0  0  0
   31.0620   29.8240   37.2720 N   0  0  0  0  0  0  0  0  0  0  0  0
  1 11  1  0  0  0  0
  2  7  1  0  0  0  0
  2  1  2  0  0  0  0
  3  2  1  0  0  0  0
  4  3  2  0  0  0  0
  4  5  1  0  0  0  0
  5  6  2  0  0  0  0
  6  1  1  0  0  0  0
  8  3  1  0  0  0  0
  9 12  1  6  0  0  0
  9 10  1  0  0  0  0
  9 16  1  0  0  0  0
 10 14  1  0  0  0  0
 11 15  1  1  0  0  0
 11  9  1  0  0  0  0
 11 10  1  0  0  0  0
 13 10  1  0  0  0  0
 16 21  2  0  0  0  0
 16 17  1  0  0  0  0
 17 22  1  0  0  0  0
 17 18  2  0  0  0  0
 18 23  1  0  0  0  0
 19 18  1  0  0  0  0
 20 24  1  0  0  0  0
 20 19  2  0  0  0  0
 21 20  1  0  0  0  0
 24 26  1  0  0  0  0
 24 27  1  0  0  0  0
 25 24  1  0  0  0  0
 28  5  1  0  0  0  0
 28 29  1  0  0  0  0
 30 28  1  0  0  0  0
 31 28  1  0  0  0  0
 31 34  1  0  0  0  0
 32 31  1  0  0  0  0
 33 31  1  0  0  0  0
 34 41  1  0  0  0  0
 35 34  2  0  0  0  0
 35 37  1  0  0  0  0
 36 35  1  0  0  0  0
 37 39  2  0  0  0  0
 38 37  1  0  0  0  0
 39 40  1  0  0  0  0
 41 40  2  0  0  0  0
M  END
>  <minimizedAffinity>
-5.78461933

$$$$

 OpenBabel03252505443D

 41 44  0  0  1  0  0  0  0  0999 V2000
   34.7310   28.8300   36.3890 C   0  0  0  0  0  0  0  0  0  0  0  0
   35.6550   28.0060   35.7810 C   0  0  0  0  0  0  0  0  0  0  0  0
   36.9090   27.7860   36.3030 C   0  0  0  0  0  0  0  0  0  0  0  0
   37.2310   28.4160   37.4680 N   0  0  0  0  0  0  0  0  0  0  0  0
   36.3290   29.2270   38.0720 C   0  0  0  0  0  0  0  0  0  0  0  0
   35.1020   29.4390   37.5550 N   0  0  0  0  0  0  0  0  0  0  0  0
   35.4280   27.4930   34.8560 H   0  0  0  0  0  0  0  0  0  0  0  0
   37.6320   27.1360   35.8200 H   0  0  0  0  0  0  0  0  0  0  0  0
   32.3940   29.5720   36.6910 C   0  0  1  0  0  0  0  0  0  0  0  0
   32.2730   28.0980   36.1760 C   0  0  0  0  0  0  0  0  0  0  0  0
   33.3810   29.0700   35.7810 C   0  0  2  0  0  0  0  0  0  0  0  0
   32.5750   29.5700   37.8070 H   0  0  0  0  0  0  0  0  0  0  0  0
   32.6060   27.2970   36.8400 H   0  0  0  0  0  0  0  0  0  0  0  0
   31.5100   27.9280   35.4070 H   0  0  0  0  0  0  0  0  0  0  0  0
   33.4080   29.3730   34.7210 H   0  0  0  0  0  0  0  0  0  0  0  0
   31.2550   30.4350   36.3040 C   0  0  0  0  0  0  0  0  0  0  0  0
   30.2820   30.7020   37.2820 C   0  0  0  0  0  0  0  0  0  0  0  0
   29.2030   31.5090   36.9430 C   0  0  0  0  0  0  0  0  0  0  0  0
   29.1470   31.9990   35.6790 N   0  0  0  0  0  0  0  0  0  0  0  0
   30.0870   31.7270   34.7740 C   0  0  0  0  0  0  0  0  0  0  0  0
   31.1150   30.9490   35.1200 N   0  0  0  0  0  0  0  0  0  0  0  0
   30.3140   30.3180   38.2940 H   0  0  0  0  0  0  0  0  0  0  0  0
   28.4600   31.7210   37.6720 H   0  0  0  0  0  0  0  0  0  0  0  0
   29.8480   32.3630   33.4370 C   0  0  0  0  0  0  0  0  0  0  0  0
   29.7280   31.4110   32.4370 F   0  0  0  0  0  0  0  0  0  0  0  0
   30.9840   33.1380   33.0980 F   0  0  0  0  0  0  0  0  0  0  0  0
   28.7960   33.2340   33.5120 F   0  0  0  0  0  0  0  0  0  0  0  0
   36.6370   29.9470   39.3360 C   0  0  0  0  0  0  0  0  0  0  0  0
   36.4630   31.0240   39.1970 H   0  0  0  0  0  0  0  0  0  0  0  0
   37.7040   29.7940   39.6250 H   0  0  0  0  0  0  0  0  0  0  0  0
   35.7950   29.4000   40.4690 C   0  0  0  0  0  0  0  0  0  0  0  0
   35.2020   30.2470   40.8710 H   0  0  0  0  0  0  0  0  0  0  0  0
   35.0600   28.6680   40.0890 H   0  0  0  0  0  0  0  0  0  0  0  0
   36.6330   28.8560   41.5610 C   0  0  0  0  0  0  0  0  0  0  0  0
   36.5650   27.4890   41.8250 C   0  0  0  0  0  0  0  0  0  0  0  0
   35.8970   26.8800   41.2160 H   0  0  0  0  0  0  0  0  0  0  0  0
   37.2990   26.8740   42.8170 C   0  0  0  0  0  0  0  0  0  0  0  0
   37.2170   25.8000   42.9910 H   0  0  0  0  0  0  0  0  0  0  0  0
   38.1460   27.6390   43.5930 C   0  0  0  0  0  3  0  0  0  0  0  0
   38.1860   28.9830   43.3020 C   0  0  0  0  0  3  0  0  0  0  0  0
   37.4660   29.5930   42.3280 N   0  0  0  0  0  0  0  0  0  0  0  0
  1  6  1  0  0  0  0
  2  3  1  0  0  0  0
  2  1  2  0  0  0  0
  3  4  2  0  0  0  0
  4  5  1  0  0  0  0
  5 28  1  0  0  0  0
  6  5  2  0  0  0  0
  7  2  1  0  0  0  0
  8  3  1  0  0  0  0
  9 12  1  1  0  0  0
 10  9  1  0  0  0  0
 10 13  1  0  0  0  0
 11 15  1  6  0  0  0
 11 10  1  0  0  0  0
 11  1  1  0  0  0  0
 11  9  1  0  0  0  0
 14 10  1  0  0  0  0
 16  9  1  0  0  0  0
 16 17  1  0  0  0  0
 17 22  1  0  0  0  0
 18 17  2  0  0  0  0
 18 23  1  0  0  0  0
 19 18  1  0  0  0  0
 20 21  1  0  0  0  0
 20 19  2  0  0  0  0
 21 16  2  0  0  0  0
 24 27  1  0  0  0  0
 24 20  1  0  0  0  0
 25 24  1  0  0  0  0
 26 24  1  0  0  0  0
 28 30  1  0  0  0  0
 28 31  1  0  0  0  0
 29 28  1  0  0  0  0
 31 32  1  0  0  0  0
 31 34  1  0  0  0  0
 33 31  1  0  0  0  0
 34 35  2  0  0  0  0
 34 41  1  0  0  0  0
 35 37  1  0  0  0  0
 36 35  1  0  0  0  0
 37 38  1  0  0  0  0
 37 39  2  0  0  0  0
 40 39  1  0  0  0  0
 41 40  2  0  0  0  0
M  END
>  <minimizedAffinity>
-5.78408098

$$$$

 OpenBabel03252505443D

 41 44  0  0  1  0  0  0  0  0999 V2000
   35.8080   26.5560   38.5380 C   0  0  0  0  0  0  0  0  0  0  0  0
   35.1080   25.7350   37.6780 C   0  0  0  0  0  0  0  0  0  0  0  0
   35.0790   24.3670   37.8170 C   0  0  0  0  0  0  0  0  0  0  0  0
   35.7760   23.8200   38.8540 N   0  0  0  0  0  0  0  0  0  0  0  0
   36.4670   24.6190   39.7030 C   0  0  0  0  0  0  0  0  0  0  0  0
   36.4920   25.9590   39.5610 N   0  0  0  0  0  0  0  0  0  0  0  0
   34.5470   26.1410   36.8470 H   0  0  0  0  0  0  0  0  0  0  0  0
   34.5260   23.7270   37.1370 H   0  0  0  0  0  0  0  0  0  0  0  0
   36.4760   28.7720   39.4010 C   0  0  1  0  0  0  0  0  0  0  0  0
   34.9210   28.8680   39.2370 C   0  0  0  0  0  0  0  0  0  0  0  0
   35.8420   28.0430   38.3430 C   0  0  2  0  0  0  0  0  0  0  0  0
   36.7240   28.2740   40.3850 H   0  0  0  0  0  0  0  0  0  0  0  0
   34.3000   28.2660   39.9050 H   0  0  0  0  0  0  0  0  0  0  0  0
   34.5510   29.7970   38.7890 H   0  0  0  0  0  0  0  0  0  0  0  0
   35.9100   28.3610   37.2890 H   0  0  0  0  0  0  0  0  0  0  0  0
   37.1750   30.0660   39.2290 C   0  0  0  0  0  0  0  0  0  0  0  0
   37.0960   30.6840   37.9700 C   0  0  0  0  0  0  0  0  0  0  0  0
   37.7440   31.8980   37.7830 C   0  0  0  0  0  0  0  0  0  0  0  0
   38.4200   32.4270   38.8340 N   0  0  0  0  0  0  0  0  0  0  0  0
   38.4760   31.8150   40.0180 C   0  0  0  0  0  0  0  0  0  0  0  0
   37.8470   30.6480   40.1750 N   0  0  0  0  0  0  0  0  0  0  0  0
   36.5600   30.2740   37.1220 H   0  0  0  0  0  0  0  0  0  0  0  0
   37.6930   32.3790   36.8370 H   0  0  0  0  0  0  0  0  0  0  0  0
   39.2680   32.5590   41.0510 C   0  0  0  0  0  0  0  0  0  0  0  0
   38.7000   33.7910   41.3340 F   0  0  0  0  0  0  0  0  0  0  0  0
   40.5510   32.8360   40.5200 F   0  0  0  0  0  0  0  0  0  0  0  0
   39.4680   31.7680   42.1490 F   0  0  0  0  0  0  0  0  0  0  0  0
   37.2530   24.0700   40.8390 C   0  0  0  0  0  0  0  0  0  0  0  0
   38.3240   24.2480   40.6650 H   0  0  0  0  0  0  0  0  0  0  0  0
   37.0870   22.9700   40.9360 H   0  0  0  0  0  0  0  0  0  0  0  0
   36.8010   24.6970   42.1410 C   0  0  0  0  0  0  0  0  0  0  0  0
   35.7280   24.9560   42.0210 H   0  0  0  0  0  0  0  0  0  0  0  0
   36.8450   23.9600   42.9630 H   0  0  0  0  0  0  0  0  0  0  0  0
   37.5510   25.9360   42.4420 C   0  0  0  0  0  0  0  0  0  0  0  0
   36.8510   27.0180   42.9720 C   0  0  0  0  0  0  0  0  0  0  0  0
   35.7810   26.9050   43.1420 H   0  0  0  0  0  0  0  0  0  0  0  0
   37.4470   28.2200   43.2900 C   0  0  0  0  0  0  0  0  0  0  0  0
   36.8630   29.0440   43.7040 H   0  0  0  0  0  0  0  0  0  0  0  0
   38.8020   28.3720   43.0770 C   0  0  0  0  0  3  0  0  0  0  0  0
   39.4580   27.2830   42.5530 C   0  0  0  0  0  3  0  0  0  0  0  0
   38.8780   26.0980   42.2380 N   0  0  0  0  0  0  0  0  0  0  0  0
  1  6  1  0  0  0  0
  2  3  1  0  0  0  0
  2  1  2  0  0  0  0
  3  4  2  0  0  0  0
  4  5  1  0  0  0  0
  5 28  1  0  0  0  0
  6  5  2  0  0  0  0
  7  2  1  0  0  0  0
  8  3  1  0  0  0  0
  9 12  1  1  0  0  0
 10  9  1  0  0  0  0
 10 13  1  0  0  0  0
 11 15  1  6  0  0  0
 11  1  1  0  0  0  0
 11 10  1  0  0  0  0
 11  9  1  0  0  0  0
 14 10  1  0  0  0  0
 16  9  1  0  0  0  0
 16 21  1  0  0  0  0
 17 16  2  0  0  0  0
 18 17  1  0  0  0  0
 18 19  2  0  0  0  0
 19 20  1  0  0  0  0
 20 21  2  0  0  0  0
 20 24  1  0  0  0  0
 22 17  1  0  0  0  0
 23 18  1  0  0  0  0
 24 25  1  0  0  0  0
 24 27  1  0  0  0  0
 26 24  1  0  0  0  0
 28 30  1  0  0  0  0
 28 31  1  0  0  0  0
 29 28  1  0  0  0  0
 31 34  1  0  0  0  0
 31 33  1  0  0  0  0
 32 31  1  0  0  0  0
 34 35  1  0  0  0  0
 35 36  1  0  0  0  0
 35 37  2  0  0  0  0
 37 38  1  0  0  0  0
 39 37  1  0  0  0  0
 40 39  2  0  0  0  0
 41 34  2  0  0  0  0
 41 40  1  0  0  0  0
M  END
>  <minimizedAffinity>
-5.7395606

$$$$
