
 OpenBabel03242518293D

 20 21  0  0  0  0  0  0  0  0999 V2000
   39.1070   29.0780   42.7700 C   0  0  0  0  0  0  0  0  0  0  0  0
   40.3540   29.0180   42.8540 O   0  0  0  0  0  0  0  0  0  0  0  0
   38.3040   29.9800   42.0170 C   0  0  0  0  0  0  0  0  0  0  0  0
   39.0460   31.0240   41.4620 C   0  0  0  0  0  0  0  0  0  0  0  0
   38.3280   31.9700   40.6960 C   0  0  0  0  0  0  0  0  0  0  0  0
   36.9880   31.8120   40.5480 N   0  0  0  0  0  0  0  0  0  0  0  0
   36.3260   30.7690   41.1180 C   0  0  0  0  0  0  0  0  0  0  0  0
   36.9990   29.8560   41.8530 N   0  0  0  0  0  0  0  0  0  0  0  0
   40.1000   31.1690   41.5650 H   0  0  0  0  0  0  0  0  0  0  0  0
   38.8120   32.8160   40.2240 H   0  0  0  0  0  0  0  0  0  0  0  0
   35.2630   30.7630   40.9200 H   0  0  0  0  0  0  0  0  0  0  0  0
   38.3960   28.1270   43.5180 O   0  0  0  0  0  0  0  0  0  0  0  0
   38.3060   26.7960   43.0700 C   0  0  0  0  0  0  0  0  0  0  0  0
   37.1380   26.3520   42.4830 C   0  0  0  0  0  0  0  0  0  0  0  0
   36.3330   27.0790   42.4000 H   0  0  0  0  0  0  0  0  0  0  0  0
   37.0730   25.0480   42.0530 C   0  0  0  0  0  0  0  0  0  0  0  0
   36.1490   24.7140   41.5940 H   0  0  0  0  0  0  0  0  0  0  0  0
   38.1430   24.1810   42.1950 C   0  0  0  0  0  3  0  0  0  0  0  0
   39.2790   24.7120   42.7960 C   0  0  0  0  0  3  0  0  0  0  0  0
   39.3790   25.9750   43.2270 N   0  0  0  0  0  0  0  0  0  0  0  0
  1  2  2  0  0  0  0
  1 12  1  0  0  0  0
  3  1  1  0  0  0  0
  4  9  1  0  0  0  0
  4  3  2  0  0  0  0
  5  4  1  0  0  0  0
  6  5  2  0  0  0  0
  6  7  1  0  0  0  0
  7  8  2  0  0  0  0
  8  3  1  0  0  0  0
 10  5  1  0  0  0  0
 11  7  1  0  0  0  0
 13 20  1  0  0  0  0
 13 12  1  0  0  0  0
 14 13  2  0  0  0  0
 15 14  1  0  0  0  0
 16 18  2  0  0  0  0
 16 14  1  0  0  0  0
 17 16  1  0  0  0  0
 18 19  1  0  0  0  0
 19 20  2  0  0  0  0
M  END
>  <minimizedAffinity>
-4.41337442

$$$$

 OpenBabel03242518293D

 20 21  0  0  0  0  0  0  0  0999 V2000
   36.7510   30.9030   39.6430 C   0  0  0  0  0  0  0  0  0  0  0  0
   36.1830   30.3260   38.6890 O   0  0  0  0  0  0  0  0  0  0  0  0
   37.8390   31.8200   39.6140 C   0  0  0  0  0  0  0  0  0  0  0  0
   37.4870   33.0850   40.0880 C   0  0  0  0  0  0  0  0  0  0  0  0
   38.5080   34.0620   40.0950 C   0  0  0  0  0  0  0  0  0  0  0  0
   39.7440   33.7200   39.6500 N   0  0  0  0  0  0  0  0  0  0  0  0
   40.0190   32.4660   39.2010 C   0  0  0  0  0  0  0  0  0  0  0  0
   39.0540   31.5210   39.1880 N   0  0  0  0  0  0  0  0  0  0  0  0
   36.5210   33.3750   40.4430 H   0  0  0  0  0  0  0  0  0  0  0  0
   38.3360   35.0720   40.4440 H   0  0  0  0  0  0  0  0  0  0  0  0
   41.0420   32.3300   38.8770 H   0  0  0  0  0  0  0  0  0  0  0  0
   36.2510   30.6090   40.9210 O   0  0  0  0  0  0  0  0  0  0  0  0
   36.8240   29.5770   41.6870 C   0  0  0  0  0  0  0  0  0  0  0  0
   36.2770   28.3100   41.6400 C   0  0  0  0  0  0  0  0  0  0  0  0
   35.4090   28.1820   40.9960 H   0  0  0  0  0  0  0  0  0  0  0  0
   36.8540   27.3170   42.3960 C   0  0  0  0  0  0  0  0  0  0  0  0
   36.4130   26.3280   42.3500 H   0  0  0  0  0  0  0  0  0  0  0  0
   37.9590   27.5600   43.1940 C   0  0  0  0  0  3  0  0  0  0  0  0
   38.4440   28.8630   43.1790 C   0  0  0  0  0  3  0  0  0  0  0  0
   37.9090   29.8550   42.4570 N   0  0  0  0  0  0  0  0  0  0  0  0
  1 12  1  0  0  0  0
  2  1  2  0  0  0  0
  3  1  1  0  0  0  0
  3  4  1  0  0  0  0
  4  5  2  0  0  0  0
  4  9  1  0  0  0  0
  5 10  1  0  0  0  0
  6  5  1  0  0  0  0
  7  6  2  0  0  0  0
  8  7  1  0  0  0  0
  8  3  2  0  0  0  0
 11  7  1  0  0  0  0
 12 13  1  0  0  0  0
 13 20  1  0  0  0  0
 14 13  2  0  0  0  0
 14 16  1  0  0  0  0
 15 14  1  0  0  0  0
 16 18  2  0  0  0  0
 17 16  1  0  0  0  0
 19 18  1  0  0  0  0
 20 19  2  0  0  0  0
M  END
>  <minimizedAffinity>
-4.35959768

$$$$

 OpenBabel03242518293D

 20 21  0  0  0  0  0  0  0  0999 V2000
   36.7300   28.9770   41.7490 C   0  0  0  0  0  0  0  0  0  0  0  0
   35.8340   28.4360   41.0640 O   0  0  0  0  0  0  0  0  0  0  0  0
   37.4750   30.1580   41.4730 C   0  0  0  0  0  0  0  0  0  0  0  0
   36.7460   31.0930   40.7340 C   0  0  0  0  0  0  0  0  0  0  0  0
   37.4100   32.2990   40.4140 C   0  0  0  0  0  0  0  0  0  0  0  0
   38.6890   32.4740   40.8340 N   0  0  0  0  0  0  0  0  0  0  0  0
   39.3410   31.5210   41.5520 C   0  0  0  0  0  0  0  0  0  0  0  0
   38.7200   30.3620   41.8660 N   0  0  0  0  0  0  0  0  0  0  0  0
   35.7400   30.9760   40.3940 H   0  0  0  0  0  0  0  0  0  0  0  0
   36.9310   33.0860   39.8450 H   0  0  0  0  0  0  0  0  0  0  0  0
   40.3530   31.7900   41.8220 H   0  0  0  0  0  0  0  0  0  0  0  0
   37.0500   28.3380   42.9560 O   0  0  0  0  0  0  0  0  0  0  0  0
   37.8610   27.1880   42.9560 C   0  0  0  0  0  0  0  0  0  0  0  0
   39.0530   27.1940   43.6530 C   0  0  0  0  0  0  0  0  0  0  0  0
   39.3010   28.1170   44.1750 H   0  0  0  0  0  0  0  0  0  0  0  0
   39.8280   26.0600   43.6390 C   0  0  0  0  0  0  0  0  0  0  0  0
   40.7620   26.0810   44.1900 H   0  0  0  0  0  0  0  0  0  0  0  0
   39.4430   24.9230   42.9490 C   0  0  0  0  0  3  0  0  0  0  0  0
   38.2280   25.0050   42.2760 C   0  0  0  0  0  3  0  0  0  0  0  0
   37.4470   26.0910   42.2670 N   0  0  0  0  0  0  0  0  0  0  0  0
  1 12  1  0  0  0  0
  2  1  2  0  0  0  0
  3  1  1  0  0  0  0
  3  8  1  0  0  0  0
  4  3  2  0  0  0  0
  5  4  1  0  0  0  0
  5  6  2  0  0  0  0
  6  7  1  0  0  0  0
  7 11  1  0  0  0  0
  7  8  2  0  0  0  0
  9  4  1  0  0  0  0
 10  5  1  0  0  0  0
 12 13  1  0  0  0  0
 13 14  1  0  0  0  0
 14 15  1  0  0  0  0
 16 14  2  0  0  0  0
 16 17  1  0  0  0  0
 18 16  1  0  0  0  0
 19 18  2  0  0  0  0
 20 19  1  0  0  0  0
 20 13  2  0  0  0  0
M  END
>  <minimizedAffinity>
-4.35120773

$$$$

 OpenBabel03242518293D

 20 21  0  0  0  0  0  0  0  0999 V2000
   35.5090   29.2400   40.0160 C   0  0  0  0  0  0  0  0  0  0  0  0
   34.2660   29.1470   40.1240 O   0  0  0  0  0  0  0  0  0  0  0  0
   36.3010   30.3950   39.7570 C   0  0  0  0  0  0  0  0  0  0  0  0
   36.7010   30.4820   38.4220 C   0  0  0  0  0  0  0  0  0  0  0  0
   37.4930   31.6000   38.0740 C   0  0  0  0  0  0  0  0  0  0  0  0
   37.8110   32.5030   39.0370 N   0  0  0  0  0  0  0  0  0  0  0  0
   37.3870   32.3560   40.3200 C   0  0  0  0  0  0  0  0  0  0  0  0
   36.6280   31.2930   40.6690 N   0  0  0  0  0  0  0  0  0  0  0  0
   36.4620   29.7840   37.6490 H   0  0  0  0  0  0  0  0  0  0  0  0
   37.8530   31.7590   37.0660 H   0  0  0  0  0  0  0  0  0  0  0  0
   37.7110   33.1460   40.9840 H   0  0  0  0  0  0  0  0  0  0  0  0
   36.2290   28.0450   40.1710 O   0  0  0  0  0  0  0  0  0  0  0  0
   37.0420   27.8490   41.3020 C   0  0  0  0  0  0  0  0  0  0  0  0
   36.4720   27.8430   42.5590 C   0  0  0  0  0  0  0  0  0  0  0  0
   35.3950   27.9960   42.6010 H   0  0  0  0  0  0  0  0  0  0  0  0
   37.2860   27.6490   43.6490 C   0  0  0  0  0  0  0  0  0  0  0  0
   36.8230   27.6470   44.6300 H   0  0  0  0  0  0  0  0  0  0  0  0
   38.6510   27.4620   43.5140 C   0  0  0  0  0  3  0  0  0  0  0  0
   39.1400   27.4810   42.2120 C   0  0  0  0  0  3  0  0  0  0  0  0
   38.3790   27.6670   41.1270 N   0  0  0  0  0  0  0  0  0  0  0  0
  1  2  2  0  0  0  0
  1 12  1  0  0  0  0
  3  1  1  0  0  0  0
  3  8  1  0  0  0  0
  4  3  2  0  0  0  0
  5  4  1  0  0  0  0
  5  6  2  0  0  0  0
  6  7  1  0  0  0  0
  7  8  2  0  0  0  0
  7 11  1  0  0  0  0
  9  4  1  0  0  0  0
 10  5  1  0  0  0  0
 12 13  1  0  0  0  0
 13 14  1  0  0  0  0
 14 15  1  0  0  0  0
 14 16  2  0  0  0  0
 16 17  1  0  0  0  0
 18 16  1  0  0  0  0
 19 18  2  0  0  0  0
 20 13  2  0  0  0  0
 20 19  1  0  0  0  0
M  END
>  <minimizedAffinity>
-4.3365345

$$$$

 OpenBabel03242518293D

 20 21  0  0  0  0  0  0  0  0999 V2000
   36.7430   31.1580   40.3370 C   0  0  0  0  0  0  0  0  0  0  0  0
   37.3110   32.2450   40.5860 O   0  0  0  0  0  0  0  0  0  0  0  0
   36.5140   30.5360   39.0780 C   0  0  0  0  0  0  0  0  0  0  0  0
   37.3940   30.9840   38.0910 C   0  0  0  0  0  0  0  0  0  0  0  0
   37.2390   30.4190   36.8050 C   0  0  0  0  0  0  0  0  0  0  0  0
   36.2640   29.4940   36.6090 N   0  0  0  0  0  0  0  0  0  0  0  0
   35.4400   29.1030   37.6170 C   0  0  0  0  0  0  0  0  0  0  0  0
   35.5750   29.6330   38.8530 N   0  0  0  0  0  0  0  0  0  0  0  0
   38.1680   31.7100   38.2220 H   0  0  0  0  0  0  0  0  0  0  0  0
   37.8710   30.6990   35.9720 H   0  0  0  0  0  0  0  0  0  0  0  0
   34.7100   28.3600   37.3250 H   0  0  0  0  0  0  0  0  0  0  0  0
   36.2630   30.4490   41.4500 O   0  0  0  0  0  0  0  0  0  0  0  0
   37.0290   29.4130   42.0150 C   0  0  0  0  0  0  0  0  0  0  0  0
   36.5120   28.1350   42.0680 C   0  0  0  0  0  0  0  0  0  0  0  0
   35.5130   28.0000   41.6590 H   0  0  0  0  0  0  0  0  0  0  0  0
   37.2790   27.1380   42.6250 C   0  0  0  0  0  0  0  0  0  0  0  0
   36.8580   26.1390   42.6600 H   0  0  0  0  0  0  0  0  0  0  0  0
   38.5440   27.3890   43.1270 C   0  0  0  0  0  3  0  0  0  0  0  0
   38.9860   28.7040   43.0310 C   0  0  0  0  0  3  0  0  0  0  0  0
   38.2680   29.7000   42.4960 N   0  0  0  0  0  0  0  0  0  0  0  0
  1  2  2  0  0  0  0
  1 12  1  0  0  0  0
  3  1  1  0  0  0  0
  4  9  1  0  0  0  0
  4  3  2  0  0  0  0
  5  4  1  0  0  0  0
  6  5  2  0  0  0  0
  6  7  1  0  0  0  0
  7  8  2  0  0  0  0
  8  3  1  0  0  0  0
 10  5  1  0  0  0  0
 11  7  1  0  0  0  0
 12 13  1  0  0  0  0
 13 14  2  0  0  0  0
 13 20  1  0  0  0  0
 14 16  1  0  0  0  0
 15 14  1  0  0  0  0
 16 17  1  0  0  0  0
 16 18  2  0  0  0  0
 19 18  1  0  0  0  0
 20 19  2  0  0  0  0
M  END
>  <minimizedAffinity>
-4.23539877

$$$$

 OpenBabel03242518293D

 20 21  0  0  0  0  0  0  0  0999 V2000
   37.0010   27.0630   42.7420 C   0  0  0  0  0  0  0  0  0  0  0  0
   36.2330   27.3710   43.6800 O   0  0  0  0  0  0  0  0  0  0  0  0
   38.1620   26.2390   42.7700 C   0  0  0  0  0  0  0  0  0  0  0  0
   39.1650   26.7550   43.5920 C   0  0  0  0  0  0  0  0  0  0  0  0
   40.3570   26.0010   43.6800 C   0  0  0  0  0  0  0  0  0  0  0  0
   40.4540   24.8440   42.9750 N   0  0  0  0  0  0  0  0  0  0  0  0
   39.4350   24.3990   42.1920 C   0  0  0  0  0  0  0  0  0  0  0  0
   38.2890   25.1080   42.0980 N   0  0  0  0  0  0  0  0  0  0  0  0
   39.1110   27.6620   44.1550 H   0  0  0  0  0  0  0  0  0  0  0  0
   41.1940   26.3150   44.2900 H   0  0  0  0  0  0  0  0  0  0  0  0
   39.6440   23.4650   41.6880 H   0  0  0  0  0  0  0  0  0  0  0  0
   36.6800   27.5990   41.4850 O   0  0  0  0  0  0  0  0  0  0  0  0
   36.9250   28.9580   41.2100 C   0  0  0  0  0  0  0  0  0  0  0  0
   35.9390   29.7220   40.6190 C   0  0  0  0  0  0  0  0  0  0  0  0
   35.0040   29.2130   40.3930 H   0  0  0  0  0  0  0  0  0  0  0  0
   36.2000   31.0460   40.3610 C   0  0  0  0  0  0  0  0  0  0  0  0
   35.4160   31.6330   39.8950 H   0  0  0  0  0  0  0  0  0  0  0  0
   37.4190   31.6220   40.6770 C   0  0  0  0  0  3  0  0  0  0  0  0
   38.3530   30.7800   41.2710 C   0  0  0  0  0  3  0  0  0  0  0  0
   38.1340   29.4870   41.5380 N   0  0  0  0  0  0  0  0  0  0  0  0
  1  3  1  0  0  0  0
  1  2  2  0  0  0  0
  3  4  1  0  0  0  0
  4  5  2  0  0  0  0
  4  9  1  0  0  0  0
  5 10  1  0  0  0  0
  6  5  1  0  0  0  0
  7  6  2  0  0  0  0
  8  7  1  0  0  0  0
  8  3  2  0  0  0  0
 11  7  1  0  0  0  0
 12  1  1  0  0  0  0
 13 12  1  0  0  0  0
 13 20  1  0  0  0  0
 14 13  2  0  0  0  0
 15 14  1  0  0  0  0
 16 14  1  0  0  0  0
 16 18  2  0  0  0  0
 17 16  1  0  0  0  0
 18 19  1  0  0  0  0
 19 20  2  0  0  0  0
M  END
>  <minimizedAffinity>
-4.14782763

$$$$

 OpenBabel03242518293D

 20 21  0  0  0  0  0  0  0  0999 V2000
   37.8540   29.3180   42.4060 C   0  0  0  0  0  0  0  0  0  0  0  0
   38.8010   30.0320   42.8030 O   0  0  0  0  0  0  0  0  0  0  0  0
   37.0640   29.4530   41.2290 C   0  0  0  0  0  0  0  0  0  0  0  0
   37.7440   30.1030   40.1980 C   0  0  0  0  0  0  0  0  0  0  0  0
   37.0350   30.2820   38.9890 C   0  0  0  0  0  0  0  0  0  0  0  0
   35.7610   29.8190   38.9030 N   0  0  0  0  0  0  0  0  0  0  0  0
   35.1580   29.1930   39.9480 C   0  0  0  0  0  0  0  0  0  0  0  0
   35.8230   29.0150   41.1110 N   0  0  0  0  0  0  0  0  0  0  0  0
   38.7460   30.4750   40.2440 H   0  0  0  0  0  0  0  0  0  0  0  0
   37.4740   30.7740   38.1310 H   0  0  0  0  0  0  0  0  0  0  0  0
   34.1440   28.8750   39.7450 H   0  0  0  0  0  0  0  0  0  0  0  0
   37.5180   28.2330   43.2300 O   0  0  0  0  0  0  0  0  0  0  0  0
   38.1820   27.0000   43.0850 C   0  0  0  0  0  0  0  0  0  0  0  0
   39.4150   26.8170   43.6770 C   0  0  0  0  0  0  0  0  0  0  0  0
   39.8120   27.6620   44.2380 H   0  0  0  0  0  0  0  0  0  0  0  0
   40.0440   25.6050   43.5230 C   0  0  0  0  0  0  0  0  0  0  0  0
   41.0130   25.4760   43.9940 H   0  0  0  0  0  0  0  0  0  0  0  0
   39.4740   24.5770   42.7920 C   0  0  0  0  0  3  0  0  0  0  0  0
   38.2300   24.8480   42.2310 C   0  0  0  0  0  3  0  0  0  0  0  0
   37.5870   26.0150   42.3600 N   0  0  0  0  0  0  0  0  0  0  0  0
  1  2  2  0  0  0  0
  1 12  1  0  0  0  0
  3  1  1  0  0  0  0
  4  9  1  0  0  0  0
  4  3  2  0  0  0  0
  5  4  1  0  0  0  0
  6  5  2  0  0  0  0
  6  7  1  0  0  0  0
  7  8  2  0  0  0  0
  8  3  1  0  0  0  0
 10  5  1  0  0  0  0
 11  7  1  0  0  0  0
 13 12  1  0  0  0  0
 13 14  1  0  0  0  0
 14 15  1  0  0  0  0
 16 14  2  0  0  0  0
 16 17  1  0  0  0  0
 18 16  1  0  0  0  0
 19 20  1  0  0  0  0
 19 18  2  0  0  0  0
 20 13  2  0  0  0  0
M  END
>  <minimizedAffinity>
-4.13494015

$$$$

 OpenBabel03242518293D

 20 21  0  0  0  0  0  0  0  0999 V2000
   38.1610   29.1420   42.4890 C   0  0  0  0  0  0  0  0  0  0  0  0
   39.1400   28.6860   43.1200 O   0  0  0  0  0  0  0  0  0  0  0  0
   38.0650   30.3450   41.7340 C   0  0  0  0  0  0  0  0  0  0  0  0
   39.2570   31.0720   41.7300 C   0  0  0  0  0  0  0  0  0  0  0  0
   39.2530   32.2850   41.0040 C   0  0  0  0  0  0  0  0  0  0  0  0
   38.1150   32.6630   40.3670 N   0  0  0  0  0  0  0  0  0  0  0  0
   36.9870   31.9060   40.4120 C   0  0  0  0  0  0  0  0  0  0  0  0
   36.9740   30.7430   41.1030 N   0  0  0  0  0  0  0  0  0  0  0  0
   40.1630   30.7940   42.2230 H   0  0  0  0  0  0  0  0  0  0  0  0
   40.1270   32.9200   40.9390 H   0  0  0  0  0  0  0  0  0  0  0  0
   36.1540   32.3220   39.8620 H   0  0  0  0  0  0  0  0  0  0  0  0
   36.9920   28.3650   42.5260 O   0  0  0  0  0  0  0  0  0  0  0  0
   36.9280   27.1480   41.8230 C   0  0  0  0  0  0  0  0  0  0  0  0
   37.0570   25.9570   42.5100 C   0  0  0  0  0  0  0  0  0  0  0  0
   37.2070   26.0340   43.5860 H   0  0  0  0  0  0  0  0  0  0  0  0
   36.9910   24.7810   41.8030 C   0  0  0  0  0  0  0  0  0  0  0  0
   37.0950   23.8540   42.3570 H   0  0  0  0  0  0  0  0  0  0  0  0
   36.7990   24.7650   40.4320 C   0  0  0  0  0  3  0  0  0  0  0  0
   36.6780   26.0090   39.8220 C   0  0  0  0  0  3  0  0  0  0  0  0
   36.7380   27.1750   40.4770 N   0  0  0  0  0  0  0  0  0  0  0  0
  1 12  1  0  0  0  0
  1  2  2  0  0  0  0
  3  1  1  0  0  0  0
  4  3  1  0  0  0  0
  4  9  1  0  0  0  0
  5  4  2  0  0  0  0
  6  7  2  0  0  0  0
  6  5  1  0  0  0  0
  7  8  1  0  0  0  0
  8  3  2  0  0  0  0
 10  5  1  0  0  0  0
 11  7  1  0  0  0  0
 13 14  1  0  0  0  0
 13 12  1  0  0  0  0
 14 15  1  0  0  0  0
 16 17  1  0  0  0  0
 16 14  2  0  0  0  0
 18 16  1  0  0  0  0
 19 18  2  0  0  0  0
 19 20  1  0  0  0  0
 20 13  2  0  0  0  0
M  END
>  <minimizedAffinity>
-4.09967804

$$$$

 OpenBabel03242518293D

 20 21  0  0  0  0  0  0  0  0999 V2000
   36.6830   29.3260   41.4180 C   0  0  0  0  0  0  0  0  0  0  0  0
   35.5480   29.0170   40.9920 O   0  0  0  0  0  0  0  0  0  0  0  0
   37.4410   30.5050   41.1680 C   0  0  0  0  0  0  0  0  0  0  0  0
   36.7530   31.4280   40.3790 C   0  0  0  0  0  0  0  0  0  0  0  0
   37.4320   32.6310   40.0800 C   0  0  0  0  0  0  0  0  0  0  0  0
   38.6860   32.8140   40.5670 N   0  0  0  0  0  0  0  0  0  0  0  0
   39.2990   31.8710   41.3310 C   0  0  0  0  0  0  0  0  0  0  0  0
   38.6630   30.7150   41.6260 N   0  0  0  0  0  0  0  0  0  0  0  0
   35.7660   31.3060   39.9860 H   0  0  0  0  0  0  0  0  0  0  0  0
   36.9840   33.4100   39.4760 H   0  0  0  0  0  0  0  0  0  0  0  0
   40.2940   32.1440   41.6520 H   0  0  0  0  0  0  0  0  0  0  0  0
   37.2990   28.3860   42.2590 O   0  0  0  0  0  0  0  0  0  0  0  0
   37.4710   27.0570   41.8310 C   0  0  0  0  0  0  0  0  0  0  0  0
   36.8540   26.0340   42.5210 C   0  0  0  0  0  0  0  0  0  0  0  0
   36.2540   26.3240   43.3820 H   0  0  0  0  0  0  0  0  0  0  0  0
   37.0360   24.7430   42.0850 C   0  0  0  0  0  0  0  0  0  0  0  0
   36.5460   23.9500   42.6380 H   0  0  0  0  0  0  0  0  0  0  0  0
   37.8180   24.4530   40.9790 C   0  0  0  0  0  3  0  0  0  0  0  0
   38.4000   25.5440   40.3440 C   0  0  0  0  0  3  0  0  0  0  0  0
   38.2450   26.8130   40.7400 N   0  0  0  0  0  0  0  0  0  0  0  0
  1 12  1  0  0  0  0
  2  1  2  0  0  0  0
  3  1  1  0  0  0  0
  3  8  1  0  0  0  0
  4  3  2  0  0  0  0
  5  4  1  0  0  0  0
  5  6  2  0  0  0  0
  6  7  1  0  0  0  0
  7  8  2  0  0  0  0
  7 11  1  0  0  0  0
  9  4  1  0  0  0  0
 10  5  1  0  0  0  0
 13 12  1  0  0  0  0
 13 14  1  0  0  0  0
 14 15  1  0  0  0  0
 16 14  2  0  0  0  0
 16 17  1  0  0  0  0
 18 16  1  0  0  0  0
 19 20  1  0  0  0  0
 19 18  2  0  0  0  0
 20 13  2  0  0  0  0
M  END
>  <minimizedAffinity>
-4.08968306

$$$$
