
 OpenBabel03242517273D

 39 41  0  0  1  0  0  0  0  0999 V2000
   44.9890   34.6020   44.9170 C   0  0  0  0  0  0  0  0  0  0  0  0
   45.9150   34.5760   43.8440 C   0  0  0  0  0  0  0  0  0  0  0  0
   47.0500   33.7450   43.9590 C   0  0  0  0  0  0  0  0  0  0  0  0
   47.1930   33.0180   45.0920 N   0  0  0  0  0  0  0  0  0  0  0  0
   46.3010   33.0530   46.1100 C   0  0  0  0  0  0  0  0  0  0  0  0
   45.2310   33.8440   45.9890 N   0  0  0  0  0  0  0  0  0  0  0  0
   46.5250   32.2700   47.2470 N   0  0  0  0  0  0  0  0  0  0  0  0
   47.7210   32.4380   48.0110 C   0  0  0  0  0  0  0  0  0  0  0  0
   48.0180   31.2960   48.9200 C   0  0  0  0  0  0  0  0  0  0  0  0
   46.8890   30.6180   49.4700 N   0  0  0  0  0  0  0  0  0  0  0  0
   45.6420   31.2170   49.1310 C   0  0  0  0  0  0  0  0  0  0  0  0
   45.5190   31.2900   47.6280 C   0  0  2  0  0  0  0  0  0  0  0  0
   44.1580   35.2450   44.7700 H   0  0  0  0  0  0  0  0  0  0  0  0
   45.8600   35.1280   42.9160 H   0  0  0  0  0  0  0  0  0  0  0  0
   47.7960   33.6680   43.1930 H   0  0  0  0  0  0  0  0  0  0  0  0
   47.6970   33.4100   48.5630 H   0  0  0  0  0  0  0  0  0  0  0  0
   48.5610   32.5270   47.2740 H   0  0  0  0  0  0  0  0  0  0  0  0
   48.6500   31.6440   49.7650 H   0  0  0  0  0  0  0  0  0  0  0  0
   48.6640   30.5380   48.3940 H   0  0  0  0  0  0  0  0  0  0  0  0
   46.8870   29.5960   49.3930 H   0  0  0  0  0  0  0  0  0  0  0  0
   45.6320   32.2650   49.5080 H   0  0  0  0  0  0  0  0  0  0  0  0
   44.8080   30.6780   49.5890 H   0  0  0  0  0  0  0  0  0  0  0  0
   44.5280   31.7220   47.3670 H   0  0  0  0  0  0  0  0  0  0  0  0
   45.7220   29.9610   46.9760 C   0  0  0  0  0  0  0  0  0  0  0  0
   46.7500   29.5960   47.1380 H   0  0  0  0  0  0  0  0  0  0  0  0
   45.4780   30.0730   45.8860 H   0  0  0  0  0  0  0  0  0  0  0  0
   44.8040   28.9680   47.6270 C   0  0  0  0  0  0  0  0  0  0  0  0
   45.1170   27.6960   47.7630 C   0  0  0  0  0  0  0  0  0  0  0  0
   44.2320   26.6770   48.4050 C   0  0  0  0  0  0  0  0  0  0  0  0
   43.4210   27.1230   49.0070 H   0  0  0  0  0  0  0  0  0  0  0  0
   44.8760   26.1170   49.1250 H   0  0  0  0  0  0  0  0  0  0  0  0
   43.7080   25.6820   47.4410 C   0  0  0  0  0  0  0  0  0  0  0  0
   42.4100   25.9470   47.0100 C   0  0  0  0  0  0  0  0  0  0  0  0
   41.8340   26.7820   47.3320 H   0  0  0  0  0  0  0  0  0  0  0  0
   41.8220   25.0830   46.1090 C   0  0  0  0  0  0  0  0  0  0  0  0
   40.8170   25.1790   45.6960 H   0  0  0  0  0  0  0  0  0  0  0  0
   42.5630   24.0000   45.6880 C   0  0  0  0  0  0  0  0  0  0  0  0
   43.8560   23.7850   46.1540 C   0  0  0  0  0  0  0  0  0  0  0  0
   44.4320   24.6270   47.0320 N   0  0  0  0  0  0  0  0  0  0  0  0
  1  6  1  0  0  0  0
  2  3  1  0  0  0  0
  2  1  2  0  0  0  0
  3  4  2  0  0  0  0
  4  5  1  0  0  0  0
  5  7  1  0  0  0  0
  6  5  2  0  0  0  0
  7 12  1  0  0  0  0
  7  8  1  0  0  0  0
  8 16  1  0  0  0  0
  8  9  1  0  0  0  0
  9 10  1  0  0  0  0
  9 18  1  0  0  0  0
 11 10  1  0  0  0  0
 11 21  1  0  0  0  0
 11 22  1  0  0  0  0
 12 23  1  6  0  0  0
 12 11  1  0  0  0  0
 13  1  1  0  0  0  0
 14  2  1  0  0  0  0
 15  3  1  0  0  0  0
 17  8  1  0  0  0  0
 19  9  1  0  0  0  0
 20 10  1  0  0  0  0
 24 25  1  0  0  0  0
 24 27  1  0  0  0  0
 24 12  1  0  0  0  0
 26 24  1  0  0  0  0
 27 28  2  0  0  0  0
 28 29  1  0  0  0  0
 29 30  1  0  0  0  0
 29 31  1  0  0  0  0
 32 29  1  0  0  0  0
 33 34  1  0  0  0  0
 33 32  2  0  0  0  0
 35 33  1  0  0  0  0
 36 35  1  0  0  0  0
 37 35  2  0  0  0  0
 37 38  1  0  0  0  0
 38 39  2  0  0  0  0
 39 32  1  0  0  0  0
M  END
>  <minimizedAffinity>
-5.54075956

>  <minimizedRMSD>
0.231616974

$$$$
