
 OpenBabel03242521273D

 34 36  0  0  1  0  0  0  0  0999 V2000
   48.1310   33.5310   42.5390 C   0  0  1  0  0  0  0  0  0  0  0  0
   46.6560   33.7380   42.2830 C   0  0  2  0  0  0  0  0  0  0  0  0
   46.4300   34.6620   41.2830 O   0  0  0  0  0  0  0  0  0  0  0  0
   46.8150   34.0540   40.0980 C   0  0  0  0  0  0  0  0  0  0  0  0
   48.3160   33.9930   40.0680 C   0  0  2  0  0  0  0  0  0  0  0  0
   48.9530   33.4180   41.3050 C   0  0  2  0  0  0  0  0  0  0  0  0
   48.2000   32.5410   43.0810 H   0  0  0  0  0  0  0  0  0  0  0  0
   46.2770   32.7400   41.9490 H   0  0  0  0  0  0  0  0  0  0  0  0
   46.5070   34.7280   39.2730 H   0  0  0  0  0  0  0  0  0  0  0  0
   46.3490   33.0610   39.9470 H   0  0  0  0  0  0  0  0  0  0  0  0
   48.6580   33.3900   39.1950 H   0  0  0  0  0  0  0  0  0  0  0  0
   49.8880   34.0340   41.4640 H   0  0  0  0  0  0  0  0  0  0  0  0
   44.5720   35.7410   44.7350 C   0  0  0  0  0  0  0  0  0  0  0  0
   45.1900   35.3530   43.5370 C   0  0  0  0  0  0  0  0  0  0  0  0
   45.9820   34.1690   43.5160 C   0  0  0  0  0  0  0  0  0  0  0  0
   46.0960   33.4740   44.6680 N   0  0  0  0  0  0  0  0  0  0  0  0
   45.4860   33.8750   45.8140 C   0  0  0  0  0  0  0  0  0  0  0  0
   44.7270   35.0030   45.8490 N   0  0  0  0  0  0  0  0  0  0  0  0
   44.0040   36.6530   44.6080 H   0  0  0  0  0  0  0  0  0  0  0  0
   45.1240   35.8790   42.5950 H   0  0  0  0  0  0  0  0  0  0  0  0
   45.5930   33.2960   46.7400 H   0  0  0  0  0  0  0  0  0  0  0  0
   48.6450   34.4640   43.4480 O   0  0  0  0  0  0  0  0  0  0  0  0
   49.4240   34.1380   43.9320 H   0  0  0  0  0  0  0  0  0  0  0  0
   48.7410   35.3070   39.8320 O   0  0  0  0  0  0  0  0  0  0  0  0
   49.2230   35.6190   40.6400 H   0  0  0  0  0  0  0  0  0  0  0  0
   49.4310   32.1200   41.0990 O   0  0  0  0  0  0  0  0  0  0  0  0
   50.5140   31.7700   40.3090 C   0  0  0  0  0  0  0  0  0  0  0  0
   51.7550   31.6910   40.9050 C   0  0  0  0  0  0  0  0  0  0  0  0
   51.8500   31.9040   41.9710 H   0  0  0  0  0  0  0  0  0  0  0  0
   52.9020   31.3520   40.2200 C   0  0  0  0  0  0  0  0  0  0  0  0
   53.8480   31.3030   40.7260 H   0  0  0  0  0  0  0  0  0  0  0  0
   52.8250   31.0730   38.8680 C   0  0  0  0  0  0  0  0  0  0  0  0
   51.5650   31.1580   38.2870 C   0  0  0  0  0  0  0  0  0  0  0  0
   50.4590   31.4910   38.9740 N   0  0  0  0  0  0  0  0  0  0  0  0
  1  7  1  1  0  0  0
  1 22  1  0  0  0  0
  2  8  1  6  0  0  0
  2  1  1  0  0  0  0
  2 15  1  0  0  0  0
  3  2  1  0  0  0  0
  4  3  1  0  0  0  0
  5 11  1  6  0  0  0
  5  4  1  0  0  0  0
  5  6  1  0  0  0  0
  6 12  1  1  0  0  0
  6  1  1  0  0  0  0
  9  4  1  0  0  0  0
 10  4  1  0  0  0  0
 13 18  1  0  0  0  0
 14 13  2  0  0  0  0
 15 14  1  0  0  0  0
 15 16  2  0  0  0  0
 16 17  1  0  0  0  0
 17 18  2  0  0  0  0
 17 21  1  0  0  0  0
 19 13  1  0  0  0  0
 20 14  1  0  0  0  0
 22 23  1  0  0  0  0
 24  5  1  0  0  0  0
 24 25  1  0  0  0  0
 26  6  1  0  0  0  0
 27 28  1  0  0  0  0
 27 26  1  0  0  0  0
 28 29  1  0  0  0  0
 30 31  1  0  0  0  0
 30 28  2  0  0  0  0
 32 30  1  0  0  0  0
 33 32  2  0  0  0  0
 33 34  1  0  0  0  0
 34 27  2  0  0  0  0
M  END
>  <minimizedAffinity>
-5.71511793

>  <minimizedRMSD>
1.11263978

$$$$
