
 OpenBabel03252502433D

 44 48  0  0  1  0  0  0  0  0999 V2000
   48.7120   35.1560   41.3800 C   0  0  1  0  0  0  0  0  0  0  0  0
   49.6500   35.0990   42.4800 C   0  0  0  0  0  0  0  0  0  0  0  0
   49.4150   33.9680   41.4850 C   0  0  1  0  0  0  0  0  0  0  0  0
   48.9660   35.9710   40.6400 H   0  0  0  0  0  0  0  0  0  0  0  0
   49.4050   34.9480   43.5280 H   0  0  0  0  0  0  0  0  0  0  0  0
   50.6880   35.5370   42.3770 H   0  0  0  0  0  0  0  0  0  0  0  0
   50.0870   33.9050   40.5590 H   0  0  0  0  0  0  0  0  0  0  0  0
   49.7430   32.7100   42.0450 C   0  0  0  0  0  0  0  0  0  0  0  0
   51.0180   32.1210   41.9740 C   0  0  0  0  0  0  0  0  0  0  0  0
   51.7930   32.6530   41.4370 H   0  0  0  0  0  0  0  0  0  0  0  0
   51.2280   30.9060   42.5790 C   0  0  0  0  0  0  0  0  0  0  0  0
   52.2560   30.5370   42.4620 H   0  0  0  0  0  0  0  0  0  0  0  0
   50.2070   30.2670   43.2490 C   0  0  0  0  0  0  0  0  0  0  0  0
   48.9600   30.7750   43.3560 C   0  0  0  0  0  0  0  0  0  0  0  0
   48.7790   31.9710   42.7520 C   0  0  0  0  0  0  0  0  0  0  0  0
   47.7820   32.4210   42.8130 H   0  0  0  0  0  0  0  0  0  0  0  0
   47.7070   29.8970   44.2310 S   0  0  0  0  0  0  0  0  0  0  0  0
   48.4840   28.3980   44.8200 C   0  0  0  0  0  0  0  0  0  0  0  0
   47.6500   27.5850   45.5300 C   0  0  0  0  0  0  0  0  0  0  0  0
   46.6190   27.7830   45.7420 H   0  0  0  0  0  0  0  0  0  0  0  0
   48.1650   26.3930   46.0310 C   0  0  0  0  0  0  0  0  0  0  0  0
   47.5880   25.6850   46.6030 H   0  0  0  0  0  0  0  0  0  0  0  0
   49.4860   26.0840   45.7900 C   0  0  0  0  0  0  0  0  0  0  0  0
   49.9010   25.1610   46.1730 H   0  0  0  0  0  0  0  0  0  0  0  0
   50.2330   26.9640   45.0690 C   0  0  0  0  0  0  0  0  0  0  0  0
   51.2820   26.6660   44.9090 H   0  0  0  0  0  0  0  0  0  0  0  0
   49.8100   28.1670   44.5350 C   0  0  0  0  0  0  0  0  0  0  0  0
   50.6290   29.0380   43.7980 N   0  0  0  0  0  0  0  0  0  0  0  0
   51.6140   28.6460   43.7080 H   0  0  0  0  0  0  0  0  0  0  0  0
   47.2350   35.2520   41.6530 C   0  0  0  0  0  0  0  0  0  0  0  0
   47.1220   36.1980   42.2600 H   0  0  0  0  0  0  0  0  0  0  0  0
   46.6300   35.3380   40.7500 H   0  0  0  0  0  0  0  0  0  0  0  0
   46.9540   34.0380   42.4800 C   0  0  0  0  0  0  0  0  0  0  0  0
   47.8420   33.8250   43.1010 H   0  0  0  0  0  0  0  0  0  0  0  0
   46.5530   33.1890   41.9220 H   0  0  0  0  0  0  0  0  0  0  0  0
   44.5360   35.9180   44.6510 C   0  0  0  0  0  0  0  0  0  0  0  0
   45.3140   35.5440   43.5270 C   0  0  0  0  0  0  0  0  0  0  0  0
   46.0940   34.4290   43.6340 C   0  0  0  0  0  0  0  0  0  0  0  0
   46.0970   33.7210   44.8010 N   0  0  0  0  0  0  0  0  0  0  0  0
   45.3660   34.0840   45.8400 C   0  0  0  0  0  0  0  0  0  0  0  0
   44.5890   35.1700   45.7780 N   0  0  0  0  0  0  0  0  0  0  0  0
   43.8880   36.7810   44.6710 H   0  0  0  0  0  0  0  0  0  0  0  0
   45.1550   36.2250   42.7090 H   0  0  0  0  0  0  0  0  0  0  0  0
   45.3410   33.5480   46.7830 H   0  0  0  0  0  0  0  0  0  0  0  0
  1  4  1  6  0  0  0
  1  3  1  0  0  0  0
  1 30  1  0  0  0  0
  1  2  1  0  0  0  0
  2  5  1  0  0  0  0
  3  7  1  6  0  0  0
  3  8  1  0  0  0  0
  3  2  1  0  0  0  0
  6  2  1  0  0  0  0
  8 15  1  0  0  0  0
  9  8  2  0  0  0  0
  9 11  1  0  0  0  0
 10  9  1  0  0  0  0
 11 13  2  0  0  0  0
 12 11  1  0  0  0  0
 13 14  1  0  0  0  0
 13 28  1  0  0  0  0
 14 17  1  0  0  0  0
 15 16  1  0  0  0  0
 15 14  2  0  0  0  0
 17 18  1  0  0  0  0
 18 19  1  0  0  0  0
 19 20  1  0  0  0  0
 19 21  2  0  0  0  0
 21 22  1  0  0  0  0
 23 21  1  0  0  0  0
 23 24  1  0  0  0  0
 25 23  2  0  0  0  0
 26 25  1  0  0  0  0
 27 18  2  0  0  0  0
 27 25  1  0  0  0  0
 28 27  1  0  0  0  0
 29 28  1  0  0  0  0
 30 31  1  0  0  0  0
 30 33  1  0  0  0  0
 32 30  1  0  0  0  0
 33 34  1  0  0  0  0
 33 38  1  0  0  0  0
 35 33  1  0  0  0  0
 36 42  1  0  0  0  0
 36 41  1  0  0  0  0
 37 38  1  0  0  0  0
 37 36  2  0  0  0  0
 38 39  2  0  0  0  0
 39 40  1  0  0  0  0
 40 44  1  0  0  0  0
 41 40  2  0  0  0  0
 43 37  1  0  0  0  0
M  END
>  <minimizedAffinity>
-5.1407342

>  <minimizedRMSD>
0.753701925

$$$$
