
 OpenBabel03252502433D

 44 48  0  0  1  0  0  0  0  0999 V2000
   49.4230   34.5530   41.3850 C   0  0  1  0  0  0  0  0  0  0  0  0
   50.0320   34.4140   42.6910 C   0  0  0  0  0  0  0  0  0  0  0  0
   49.5260   33.2500   41.8450 C   0  0  1  0  0  0  0  0  0  0  0  0
   50.1280   35.0080   40.6300 H   0  0  0  0  0  0  0  0  0  0  0  0
   49.5580   34.6240   43.6470 H   0  0  0  0  0  0  0  0  0  0  0  0
   51.1570   34.3910   42.8050 H   0  0  0  0  0  0  0  0  0  0  0  0
   50.2660   32.7180   41.1500 H   0  0  0  0  0  0  0  0  0  0  0  0
   49.1850   32.1360   42.6490 C   0  0  0  0  0  0  0  0  0  0  0  0
   49.9550   30.9630   42.7440 C   0  0  0  0  0  0  0  0  0  0  0  0
   50.8560   30.9000   42.1490 H   0  0  0  0  0  0  0  0  0  0  0  0
   49.5380   29.9560   43.5790 C   0  0  0  0  0  0  0  0  0  0  0  0
   50.2110   29.0870   43.5790 H   0  0  0  0  0  0  0  0  0  0  0  0
   48.3820   30.0860   44.3160 C   0  0  0  0  0  0  0  0  0  0  0  0
   47.5940   31.1830   44.2730 C   0  0  0  0  0  0  0  0  0  0  0  0
   48.0260   32.1590   43.4440 C   0  0  0  0  0  0  0  0  0  0  0  0
   47.4180   33.0690   43.3770 H   0  0  0  0  0  0  0  0  0  0  0  0
   46.1280   31.2740   45.2460 S   0  0  0  0  0  0  0  0  0  0  0  0
   46.0430   29.7290   46.1440 C   0  0  0  0  0  0  0  0  0  0  0  0
   44.9570   29.6230   46.9610 C   0  0  0  0  0  0  0  0  0  0  0  0
   44.1980   30.3680   47.0880 H   0  0  0  0  0  0  0  0  0  0  0  0
   44.8030   28.4550   47.7010 C   0  0  0  0  0  0  0  0  0  0  0  0
   43.9810   28.2750   48.3750 H   0  0  0  0  0  0  0  0  0  0  0  0
   45.7480   27.4600   47.5800 C   0  0  0  0  0  0  0  0  0  0  0  0
   45.6440   26.5460   48.1490 H   0  0  0  0  0  0  0  0  0  0  0  0
   46.7960   27.6660   46.7360 C   0  0  0  0  0  0  0  0  0  0  0  0
   47.5210   26.8360   46.6780 H   0  0  0  0  0  0  0  0  0  0  0  0
   47.0300   28.7870   45.9630 C   0  0  0  0  0  0  0  0  0  0  0  0
   48.1330   28.9450   45.1070 N   0  0  0  0  0  0  0  0  0  0  0  0
   48.7590   28.0850   45.1350 H   0  0  0  0  0  0  0  0  0  0  0  0
   48.1020   35.2590   41.2400 C   0  0  0  0  0  0  0  0  0  0  0  0
   47.7030   35.3280   42.2940 H   0  0  0  0  0  0  0  0  0  0  0  0
   48.1890   36.2650   40.8300 H   0  0  0  0  0  0  0  0  0  0  0  0
   47.2910   34.3150   40.4120 C   0  0  0  0  0  0  0  0  0  0  0  0
   47.4980   33.2850   40.7520 H   0  0  0  0  0  0  0  0  0  0  0  0
   47.3600   34.4790   39.3340 H   0  0  0  0  0  0  0  0  0  0  0  0
   44.2830   34.8350   42.5970 C   0  0  0  0  0  0  0  0  0  0  0  0
   45.6190   34.8760   42.1280 C   0  0  0  0  0  0  0  0  0  0  0  0
   45.8850   34.3230   40.9080 C   0  0  0  0  0  0  0  0  0  0  0  0
   44.8690   33.7600   40.1910 N   0  0  0  0  0  0  0  0  0  0  0  0
   43.6280   33.7300   40.6430 C   0  0  0  0  0  0  0  0  0  0  0  0
   43.3250   34.2590   41.8320 N   0  0  0  0  0  0  0  0  0  0  0  0
   43.9680   35.2410   43.5460 H   0  0  0  0  0  0  0  0  0  0  0  0
   46.2580   35.3740   42.8370 H   0  0  0  0  0  0  0  0  0  0  0  0
   42.7950   33.2930   40.1030 H   0  0  0  0  0  0  0  0  0  0  0  0
  1  4  1  6  0  0  0
  1  3  1  0  0  0  0
  1  2  1  0  0  0  0
  2  6  1  0  0  0  0
  2  5  1  0  0  0  0
  3  7  1  6  0  0  0
  3  8  1  0  0  0  0
  3  2  1  0  0  0  0
  8  9  2  0  0  0  0
  8 15  1  0  0  0  0
  9 11  1  0  0  0  0
 10  9  1  0  0  0  0
 11 12  1  0  0  0  0
 11 13  2  0  0  0  0
 13 28  1  0  0  0  0
 14 13  1  0  0  0  0
 14 17  1  0  0  0  0
 15 14  2  0  0  0  0
 16 15  1  0  0  0  0
 17 18  1  0  0  0  0
 18 19  1  0  0  0  0
 19 20  1  0  0  0  0
 19 21  2  0  0  0  0
 21 22  1  0  0  0  0
 23 21  1  0  0  0  0
 23 24  1  0  0  0  0
 25 23  2  0  0  0  0
 26 25  1  0  0  0  0
 27 18  2  0  0  0  0
 27 25  1  0  0  0  0
 28 29  1  0  0  0  0
 28 27  1  0  0  0  0
 30  1  1  0  0  0  0
 30 31  1  0  0  0  0
 32 30  1  0  0  0  0
 33 34  1  0  0  0  0
 33 38  1  0  0  0  0
 33 30  1  0  0  0  0
 35 33  1  0  0  0  0
 36 42  1  0  0  0  0
 37 36  1  0  0  0  0
 37 43  1  0  0  0  0
 38 37  2  0  0  0  0
 39 40  2  0  0  0  0
 39 38  1  0  0  0  0
 40 41  1  0  0  0  0
 41 36  2  0  0  0  0
 44 40  1  0  0  0  0
M  END
>  <minimizedAffinity>
-4.94827366

>  <minimizedRMSD>
3.0492065

$$$$
