
 OpenBabel03252500313D

 56 61  0  0  1  0  0  0  0  0999 V2000
   46.0560   31.4770   47.6990 N   0  0  0  0  0  0  0  0  0  0  0  0
   46.9560   32.3490   48.3680 C   0  0  0  0  0  0  0  0  0  0  0  0
   48.3970   31.8360   48.3500 C   0  0  0  0  0  0  0  0  0  0  0  0
   48.3800   30.5590   49.1770 C   0  0  0  0  0  0  0  0  0  0  0  0
   47.5310   29.5920   48.3740 C   0  0  0  0  0  0  0  0  0  0  0  0
   46.1520   30.1530   48.1420 C   0  0  2  0  0  0  0  0  0  0  0  0
   46.6620   32.2320   49.4600 H   0  0  0  0  0  0  0  0  0  0  0  0
   46.8470   33.4110   48.2160 H   0  0  0  0  0  0  0  0  0  0  0  0
   48.7440   31.5700   47.3440 H   0  0  0  0  0  0  0  0  0  0  0  0
   49.0330   32.5810   48.8640 H   0  0  0  0  0  0  0  0  0  0  0  0
   49.4260   30.1930   49.1950 H   0  0  0  0  0  0  0  0  0  0  0  0
   47.9530   30.7430   50.1940 H   0  0  0  0  0  0  0  0  0  0  0  0
   47.4270   28.6590   48.9640 H   0  0  0  0  0  0  0  0  0  0  0  0
   48.1020   29.3960   47.4490 H   0  0  0  0  0  0  0  0  0  0  0  0
   45.7530   30.1990   49.2100 H   0  0  0  0  0  0  0  0  0  0  0  0
   45.2930   29.1630   47.4820 C   0  0  0  0  0  0  0  0  0  0  0  0
   45.0880   27.8910   47.9760 C   0  0  0  0  0  0  0  0  0  0  0  0
   45.5710   27.5680   48.8880 H   0  0  0  0  0  0  0  0  0  0  0  0
   44.2460   27.0100   47.2820 C   0  0  0  0  0  0  0  0  0  0  0  0
   44.1410   26.0180   47.7480 H   0  0  0  0  0  0  0  0  0  0  0  0
   43.5940   27.3330   46.1110 C   0  0  0  0  0  0  0  0  0  0  0  0
   43.8040   28.6020   45.6270 C   0  0  0  0  0  0  0  0  0  0  0  0
   44.6240   29.4520   46.3090 C   0  0  0  0  0  0  0  0  0  0  0  0
   44.7590   30.4560   45.8780 H   0  0  0  0  0  0  0  0  0  0  0  0
   42.9900   29.0640   44.1290 S   0  0  0  0  0  0  0  0  0  0  0  0
   42.0430   27.6600   43.6070 C   0  0  0  0  0  0  0  0  0  0  0  0
   41.3330   27.8280   42.4480 C   0  0  0  0  0  0  0  0  0  0  0  0
   41.3230   28.7210   41.8730 H   0  0  0  0  0  0  0  0  0  0  0  0
   40.5660   26.7540   41.9860 C   0  0  0  0  0  0  0  0  0  0  0  0
   39.9960   26.8550   41.0770 H   0  0  0  0  0  0  0  0  0  0  0  0
   40.5480   25.5750   42.6990 C   0  0  0  0  0  0  0  0  0  0  0  0
   39.9650   24.7470   42.3540 H   0  0  0  0  0  0  0  0  0  0  0  0
   41.2990   25.5080   43.8540 C   0  0  0  0  0  0  0  0  0  0  0  0
   41.2420   24.5410   44.3780 H   0  0  0  0  0  0  0  0  0  0  0  0
   42.0790   26.5250   44.3710 C   0  0  0  0  0  0  0  0  0  0  0  0
   42.7890   26.3160   45.5550 N   0  0  0  0  0  0  0  0  0  0  0  0
   42.7010   25.3840   46.0100 H   0  0  0  0  0  0  0  0  0  0  0  0
   45.8350   31.7560   46.3200 C   0  0  0  0  0  0  0  0  0  0  0  0
   44.7930   31.5780   46.0480 H   0  0  0  0  0  0  0  0  0  0  0  0
   46.5070   31.0770   45.7190 H   0  0  0  0  0  0  0  0  0  0  0  0
   46.2820   33.6830   44.6140 C   0  0  1  0  0  0  0  0  0  0  0  0
   45.3230   34.1480   45.5470 C   0  0  0  0  0  0  0  0  0  0  0  0
   46.2910   33.1420   46.0590 C   0  0  1  0  0  0  0  0  0  0  0  0
   47.1430   34.3330   44.3230 H   0  0  0  0  0  0  0  0  0  0  0  0
   44.2680   33.7870   45.4630 H   0  0  0  0  0  0  0  0  0  0  0  0
   45.3480   35.1960   45.9200 H   0  0  0  0  0  0  0  0  0  0  0  0
   47.2430   33.4180   46.5420 H   0  0  0  0  0  0  0  0  0  0  0  0
   44.6950   32.6170   43.0080 C   0  0  0  0  0  0  0  0  0  0  0  0
   46.0170   32.6900   43.5320 C   0  0  0  0  0  0  0  0  0  0  0  0
   46.9850   31.8550   43.0360 C   0  0  0  0  0  0  0  0  0  0  0  0
   46.6240   30.9840   42.0480 N   0  0  0  0  0  0  0  0  0  0  0  0
   45.3510   30.9280   41.5560 C   0  0  0  0  0  0  0  0  0  0  0  0
   44.3630   31.7460   42.0300 N   0  0  0  0  0  0  0  0  0  0  0  0
   43.8910   33.2400   43.3530 H   0  0  0  0  0  0  0  0  0  0  0  0
   47.9780   31.9030   43.4230 H   0  0  0  0  0  0  0  0  0  0  0  0
   45.2960   30.1760   40.7910 H   0  0  0  0  0  0  0  0  0  0  0  0
  1  6  1  0  0  0  0
  1  2  1  0  0  0  0
  2  7  1  0  0  0  0
  3  2  1  0  0  0  0
  3 10  1  0  0  0  0
  3  4  1  0  0  0  0
  4 11  1  0  0  0  0
  4 12  1  0  0  0  0
  5 13  1  0  0  0  0
  5  4  1  0  0  0  0
  6  5  1  0  0  0  0
  6 15  1  1  0  0  0
  8  2  1  0  0  0  0
  9  3  1  0  0  0  0
 14  5  1  0  0  0  0
 16 17  1  0  0  0  0
 16  6  1  0  0  0  0
 17 18  1  0  0  0  0
 19 20  1  0  0  0  0
 19 17  2  0  0  0  0
 21 19  1  0  0  0  0
 22 21  2  0  0  0  0
 22 23  1  0  0  0  0
 23 16  2  0  0  0  0
 24 23  1  0  0  0  0
 25 22  1  0  0  0  0
 26 25  1  0  0  0  0
 26 35  1  0  0  0  0
 27 26  2  0  0  0  0
 28 27  1  0  0  0  0
 29 27  1  0  0  0  0
 29 31  2  0  0  0  0
 30 29  1  0  0  0  0
 31 33  1  0  0  0  0
 32 31  1  0  0  0  0
 33 35  2  0  0  0  0
 33 34  1  0  0  0  0
 35 36  1  0  0  0  0
 36 37  1  0  0  0  0
 36 21  1  0  0  0  0
 38  1  1  0  0  0  0
 39 38  1  0  0  0  0
 40 38  1  0  0  0  0
 41 44  1  6  0  0  0
 41 42  1  0  0  0  0
 41 43  1  0  0  0  0
 42 46  1  0  0  0  0
 42 43  1  0  0  0  0
 43 38  1  0  0  0  0
 43 47  1  1  0  0  0
 45 42  1  0  0  0  0
 48 54  1  0  0  0  0
 48 49  1  0  0  0  0
 49 41  1  0  0  0  0
 50 55  1  0  0  0  0
 50 49  2  0  0  0  0
 51 50  1  0  0  0  0
 52 53  1  0  0  0  0
 52 51  2  0  0  0  0
 53 48  2  0  0  0  0
 56 52  1  0  0  0  0
M  END
>  <minimizedAffinity>
-4.74145937

>  <minimizedRMSD>
1.97939372

$$$$
