
 OpenBabel03242523193D

 50 55  0  0  0  0  0  0  0  0999 V2000
   44.6770   31.6690   42.9310 Cl  0  0  0  0  0  0  0  0  0  0  0  0
   44.6790   33.4310   42.8090 C   0  0  0  0  0  0  0  0  0  0  0  0
   45.5750   34.0930   43.6730 C   0  0  0  0  0  0  0  0  0  0  0  0
   45.4970   35.4640   43.4940 C   0  0  0  0  0  0  0  0  0  0  0  0
   44.7340   36.1840   42.6590 C   0  0  0  0  0  0  0  0  0  0  0  0
   43.8940   35.4620   41.8570 C   0  0  0  0  0  0  0  0  0  0  0  0
   43.8510   34.1120   41.9140 C   0  0  0  0  0  0  0  0  0  0  0  0
   46.1140   36.1420   44.1220 H   0  0  0  0  0  0  0  0  0  0  0  0
   44.7030   37.2380   42.5490 H   0  0  0  0  0  0  0  0  0  0  0  0
   43.2120   35.8850   41.1280 H   0  0  0  0  0  0  0  0  0  0  0  0
   42.9690   33.2890   41.0830 C   0  0  0  0  0  0  0  0  0  0  0  0
   42.9730   33.6380   39.7310 C   0  0  0  0  0  0  0  0  0  0  0  0
   43.5810   34.4440   39.3460 H   0  0  0  0  0  0  0  0  0  0  0  0
   42.1650   32.9200   38.8470 C   0  0  0  0  0  0  0  0  0  0  0  0
   42.2110   33.2400   37.7960 H   0  0  0  0  0  0  0  0  0  0  0  0
   41.3520   31.8740   39.2250 C   0  0  0  0  0  0  0  0  0  0  0  0
   41.3870   31.5770   40.5620 C   0  0  0  0  0  0  0  0  0  0  0  0
   42.1580   32.2450   41.4700 C   0  0  0  0  0  0  0  0  0  0  0  0
   42.1850   32.0190   42.5080 H   0  0  0  0  0  0  0  0  0  0  0  0
   40.3700   30.2410   41.1520 S   0  0  0  0  0  0  0  0  0  0  0  0
   39.5050   29.5910   39.7390 C   0  0  0  0  0  0  0  0  0  0  0  0
   38.6390   28.5430   39.8910 C   0  0  0  0  0  0  0  0  0  0  0  0
   38.5020   28.1280   40.8970 H   0  0  0  0  0  0  0  0  0  0  0  0
   37.9420   27.9970   38.8380 C   0  0  0  0  0  0  0  0  0  0  0  0
   37.2830   27.1710   39.0640 H   0  0  0  0  0  0  0  0  0  0  0  0
   38.1460   28.5500   37.5910 C   0  0  0  0  0  0  0  0  0  0  0  0
   37.6190   28.1460   36.7630 H   0  0  0  0  0  0  0  0  0  0  0  0
   39.0260   29.6060   37.4820 C   0  0  0  0  0  0  0  0  0  0  0  0
   39.1290   29.9850   36.4530 H   0  0  0  0  0  0  0  0  0  0  0  0
   39.7380   30.1710   38.5180 C   0  0  0  0  0  0  0  0  0  0  0  0
   40.5910   31.2440   38.2140 N   0  0  0  0  0  0  0  0  0  0  0  0
   40.6630   31.5790   37.2320 H   0  0  0  0  0  0  0  0  0  0  0  0
   46.5080   33.4590   44.6480 C   0  0  0  0  0  0  0  0  0  0  0  0
   45.9570   33.8070   45.6610 O   0  0  0  0  0  0  0  0  0  0  0  0
   47.5690   32.7690   43.9010 C   0  0  0  0  0  0  0  0  0  0  0  0
   48.4070   33.3240   43.0130 C   0  0  0  0  0  0  0  0  0  0  0  0
   49.2450   32.4300   42.3790 C   0  0  0  0  0  0  0  0  0  0  0  0
   49.1520   31.0650   42.7130 N   0  0  0  0  0  0  0  0  0  0  0  0
   48.3060   30.5980   43.5970 C   0  0  0  0  0  0  0  0  0  0  0  0
   47.4500   31.4590   44.2500 N   0  0  0  0  0  0  0  0  0  0  0  0
   49.9870   32.6900   41.6310 H   0  0  0  0  0  0  0  0  0  0  0  0
   48.3510   29.5250   43.7490 H   0  0  0  0  0  0  0  0  0  0  0  0
   48.5770   34.7120   42.7670 C   0  0  0  0  0  0  0  0  0  0  0  0
   49.5810   35.3380   42.0960 C   0  0  0  0  0  0  0  0  0  0  0  0
   48.3250   35.2070   41.2800 C   0  0  0  0  0  0  0  0  0  0  0  0
   48.1360   35.3600   43.5470 H   0  0  0  0  0  0  0  0  0  0  0  0
   49.9280   36.3960   42.1640 H   0  0  0  0  0  0  0  0  0  0  0  0
   50.4340   34.7270   41.6750 H   0  0  0  0  0  0  0  0  0  0  0  0
   48.2380   34.3790   40.5640 H   0  0  0  0  0  0  0  0  0  0  0  0
   47.6480   36.0710   41.2100 H   0  0  0  0  0  0  0  0  0  0  0  0
  2  1  1  0  0  0  0
  2  3  1  0  0  0  0
  3 33  1  0  0  0  0
  4  3  2  0  0  0  0
  4  8  1  0  0  0  0
  5  4  1  0  0  0  0
  6  7  1  0  0  0  0
  6  5  2  0  0  0  0
  7  2  2  0  0  0  0
  9  5  1  0  0  0  0
 10  6  1  0  0  0  0
 11 18  1  0  0  0  0
 11  7  1  0  0  0  0
 12 11  2  0  0  0  0
 13 12  1  0  0  0  0
 14 16  2  0  0  0  0
 14 12  1  0  0  0  0
 15 14  1  0  0  0  0
 16 17  1  0  0  0  0
 17 20  1  0  0  0  0
 17 18  2  0  0  0  0
 18 19  1  0  0  0  0
 21 22  1  0  0  0  0
 21 20  1  0  0  0  0
 22 23  1  0  0  0  0
 24 25  1  0  0  0  0
 24 22  2  0  0  0  0
 26 24  1  0  0  0  0
 27 26  1  0  0  0  0
 28 26  2  0  0  0  0
 28 30  1  0  0  0  0
 29 28  1  0  0  0  0
 30 21  2  0  0  0  0
 31 30  1  0  0  0  0
 31 16  1  0  0  0  0
 32 31  1  0  0  0  0
 33 34  2  0  0  0  0
 35 40  1  0  0  0  0
 35 33  1  0  0  0  0
 36 35  2  0  0  0  0
 37 38  2  0  0  0  0
 37 36  1  0  0  0  0
 38 39  1  0  0  0  0
 39 42  1  0  0  0  0
 39 40  2  0  0  0  0
 41 37  1  0  0  0  0
 43 36  1  0  0  0  0
 43 46  1  0  0  0  0
 44 47  1  0  0  0  0
 44 43  1  0  0  0  0
 45 44  1  0  0  0  0
 45 43  1  0  0  0  0
 48 44  1  0  0  0  0
 49 45  1  0  0  0  0
 50 45  1  0  0  0  0
M  END
>  <minimizedAffinity>
-6.52019167

>  <minimizedRMSD>
0.158687264

$$$$
