
 OpenBabel03242523183D

 50 55  0  0  0  0  0  0  0  0999 V2000
   44.5170   31.6940   43.0680 Cl  0  0  0  0  0  0  0  0  0  0  0  0
   44.5530   33.4340   42.7670 C   0  0  0  0  0  0  0  0  0  0  0  0
   45.4870   34.1580   43.5360 C   0  0  0  0  0  0  0  0  0  0  0  0
   45.4330   35.5060   43.2210 C   0  0  0  0  0  0  0  0  0  0  0  0
   44.6620   36.1550   42.3370 C   0  0  0  0  0  0  0  0  0  0  0  0
   43.7850   35.3770   41.6350 C   0  0  0  0  0  0  0  0  0  0  0  0
   43.7150   34.0410   41.8290 C   0  0  0  0  0  0  0  0  0  0  0  0
   46.0820   36.2280   43.7610 H   0  0  0  0  0  0  0  0  0  0  0  0
   44.6510   37.1930   42.1210 H   0  0  0  0  0  0  0  0  0  0  0  0
   43.0920   35.7410   40.8830 H   0  0  0  0  0  0  0  0  0  0  0  0
   42.7930   33.1600   41.1090 C   0  0  0  0  0  0  0  0  0  0  0  0
   43.2190   32.8160   39.8250 C   0  0  0  0  0  0  0  0  0  0  0  0
   44.1520   33.1750   39.4130 H   0  0  0  0  0  0  0  0  0  0  0  0
   42.4140   31.9830   39.0470 C   0  0  0  0  0  0  0  0  0  0  0  0
   42.8020   31.7470   38.0460 H   0  0  0  0  0  0  0  0  0  0  0  0
   41.2080   31.4670   39.4680 C   0  0  0  0  0  0  0  0  0  0  0  0
   40.8390   31.8360   40.7350 C   0  0  0  0  0  0  0  0  0  0  0  0
   41.5860   32.6490   41.5390 C   0  0  0  0  0  0  0  0  0  0  0  0
   41.3030   32.9400   42.5210 H   0  0  0  0  0  0  0  0  0  0  0  0
   39.2950   31.2230   41.3740 S   0  0  0  0  0  0  0  0  0  0  0  0
   38.5780   30.2100   40.0980 C   0  0  0  0  0  0  0  0  0  0  0  0
   37.3730   29.5980   40.3090 C   0  0  0  0  0  0  0  0  0  0  0  0
   36.8770   29.7530   41.2750 H   0  0  0  0  0  0  0  0  0  0  0  0
   36.7680   28.8040   39.3630 C   0  0  0  0  0  0  0  0  0  0  0  0
   35.8170   28.3660   39.6270 H   0  0  0  0  0  0  0  0  0  0  0  0
   37.4290   28.6360   38.1620 C   0  0  0  0  0  0  0  0  0  0  0  0
   36.9820   28.0280   37.4170 H   0  0  0  0  0  0  0  0  0  0  0  0
   38.6410   29.2710   37.9920 C   0  0  0  0  0  0  0  0  0  0  0  0
   39.0970   29.0840   37.0070 H   0  0  0  0  0  0  0  0  0  0  0  0
   39.2690   30.0720   38.9220 C   0  0  0  0  0  0  0  0  0  0  0  0
   40.5050   30.6350   38.5670 N   0  0  0  0  0  0  0  0  0  0  0  0
   40.9080   30.4380   37.6280 H   0  0  0  0  0  0  0  0  0  0  0  0
   46.4330   33.6040   44.5460 C   0  0  0  0  0  0  0  0  0  0  0  0
   45.8720   33.9950   45.5370 O   0  0  0  0  0  0  0  0  0  0  0  0
   47.5120   32.8990   43.8400 C   0  0  0  0  0  0  0  0  0  0  0  0
   48.3720   33.4360   42.9620 C   0  0  0  0  0  0  0  0  0  0  0  0
   49.2260   32.5300   42.3680 C   0  0  0  0  0  0  0  0  0  0  0  0
   49.1250   31.1720   42.7270 N   0  0  0  0  0  0  0  0  0  0  0  0
   48.2570   30.7230   43.6000 C   0  0  0  0  0  0  0  0  0  0  0  0
   47.3850   31.5960   44.2130 N   0  0  0  0  0  0  0  0  0  0  0  0
   49.9860   32.7750   41.6330 H   0  0  0  0  0  0  0  0  0  0  0  0
   48.2990   29.6530   43.7750 H   0  0  0  0  0  0  0  0  0  0  0  0
   48.5480   34.8190   42.6910 C   0  0  0  0  0  0  0  0  0  0  0  0
   49.6120   35.4420   42.1170 C   0  0  0  0  0  0  0  0  0  0  0  0
   48.4570   35.2630   41.1700 C   0  0  0  0  0  0  0  0  0  0  0  0
   48.0120   35.4820   43.3950 H   0  0  0  0  0  0  0  0  0  0  0  0
   49.9330   36.5090   42.1890 H   0  0  0  0  0  0  0  0  0  0  0  0
   50.5160   34.8350   41.8150 H   0  0  0  0  0  0  0  0  0  0  0  0
   48.4640   34.4120   40.4760 H   0  0  0  0  0  0  0  0  0  0  0  0
   47.7790   36.1120   40.9970 H   0  0  0  0  0  0  0  0  0  0  0  0
  2  1  1  0  0  0  0
  2  3  1  0  0  0  0
  3 33  1  0  0  0  0
  4  3  2  0  0  0  0
  4  8  1  0  0  0  0
  5  4  1  0  0  0  0
  6  7  1  0  0  0  0
  6  5  2  0  0  0  0
  7  2  2  0  0  0  0
  9  5  1  0  0  0  0
 10  6  1  0  0  0  0
 11 18  1  0  0  0  0
 11  7  1  0  0  0  0
 12 11  2  0  0  0  0
 13 12  1  0  0  0  0
 14 16  2  0  0  0  0
 14 12  1  0  0  0  0
 15 14  1  0  0  0  0
 16 17  1  0  0  0  0
 17 20  1  0  0  0  0
 17 18  2  0  0  0  0
 18 19  1  0  0  0  0
 21 22  1  0  0  0  0
 21 20  1  0  0  0  0
 22 23  1  0  0  0  0
 24 25  1  0  0  0  0
 24 22  2  0  0  0  0
 26 24  1  0  0  0  0
 27 26  1  0  0  0  0
 28 26  2  0  0  0  0
 28 30  1  0  0  0  0
 29 28  1  0  0  0  0
 30 21  2  0  0  0  0
 31 30  1  0  0  0  0
 31 16  1  0  0  0  0
 32 31  1  0  0  0  0
 33 34  2  0  0  0  0
 35 40  1  0  0  0  0
 35 33  1  0  0  0  0
 36 35  2  0  0  0  0
 37 38  2  0  0  0  0
 37 36  1  0  0  0  0
 38 39  1  0  0  0  0
 39 42  1  0  0  0  0
 39 40  2  0  0  0  0
 41 37  1  0  0  0  0
 43 36  1  0  0  0  0
 43 46  1  0  0  0  0
 44 47  1  0  0  0  0
 44 43  1  0  0  0  0
 45 44  1  0  0  0  0
 45 43  1  0  0  0  0
 48 44  1  0  0  0  0
 49 45  1  0  0  0  0
 50 45  1  0  0  0  0
M  END
>  <minimizedAffinity>
-6.76995945

>  <minimizedRMSD>
0.593520224

$$$$
