
 OpenBabel03252504103D

 38 41  0  0  0  0  0  0  0  0999 V2000
   47.9210   30.7570   48.9000 C   0  0  0  0  0  0  0  0  0  0  0  0
   46.8690   31.6460   48.8520 C   0  0  0  0  0  0  0  0  0  0  0  0
   46.9420   32.5780   49.3660 H   0  0  0  0  0  0  0  0  0  0  0  0
   45.7460   31.2930   48.1340 C   0  0  0  0  0  0  0  0  0  0  0  0
   44.9470   32.0520   48.1420 H   0  0  0  0  0  0  0  0  0  0  0  0
   45.5760   30.1110   47.4450 C   0  0  0  0  0  0  0  0  0  0  0  0
   46.6550   29.2670   47.5280 C   0  0  0  0  0  0  0  0  0  0  0  0
   47.7900   29.5710   48.2270 C   0  0  0  0  0  0  0  0  0  0  0  0
   48.6190   28.8580   48.2570 H   0  0  0  0  0  0  0  0  0  0  0  0
   46.5600   27.7040   46.6790 S   0  0  0  0  0  0  0  0  0  0  0  0
   44.9680   27.6440   45.8870 C   0  0  0  0  0  0  0  0  0  0  0  0
   44.5950   26.5550   45.1480 C   0  0  0  0  0  0  0  0  0  0  0  0
   45.3030   25.7180   45.0570 H   0  0  0  0  0  0  0  0  0  0  0  0
   43.3800   26.4400   44.5070 C   0  0  0  0  0  0  0  0  0  0  0  0
   43.1760   25.5550   43.9560 H   0  0  0  0  0  0  0  0  0  0  0  0
   42.5270   27.5140   44.6520 C   0  0  0  0  0  0  0  0  0  0  0  0
   41.5700   27.4720   44.1710 H   0  0  0  0  0  0  0  0  0  0  0  0
   42.9200   28.6050   45.4000 C   0  0  0  0  0  0  0  0  0  0  0  0
   42.1700   29.4080   45.4540 H   0  0  0  0  0  0  0  0  0  0  0  0
   44.1350   28.7200   46.0410 C   0  0  0  0  0  0  0  0  0  0  0  0
   44.3550   29.9150   46.7600 N   0  0  0  0  0  0  0  0  0  0  0  0
   43.6410   30.6480   46.7950 H   0  0  0  0  0  0  0  0  0  0  0  0
   50.7540   30.4750   51.2080 C   0  0  0  0  0  0  0  0  0  0  0  0
   51.4280   31.6720   50.9970 C   0  0  0  0  0  0  0  0  0  0  0  0
   50.9000   32.5700   50.0570 C   0  0  0  0  0  0  0  0  0  0  0  0
   49.7630   32.2290   49.4040 N   0  0  0  0  0  0  0  0  0  0  0  0
   49.1410   31.0600   49.6390 C   0  0  0  0  0  0  0  0  0  0  0  0
   49.6240   30.1800   50.5330 N   0  0  0  0  0  0  0  0  0  0  0  0
   51.4180   33.5090   49.8830 H   0  0  0  0  0  0  0  0  0  0  0  0
   52.6680   31.9560   51.7610 C   0  0  0  0  0  0  0  0  0  0  0  0
   52.4670   31.6790   53.1070 F   0  0  0  0  0  0  0  0  0  0  0  0
   53.6510   31.0800   51.3350 F   0  0  0  0  0  0  0  0  0  0  0  0
   53.1140   33.2300   51.6780 F   0  0  0  0  0  0  0  0  0  0  0  0
   51.2680   29.6200   52.1120 O   0  0  0  0  0  0  0  0  0  0  0  0
   51.8680   28.3650   51.8750 C   0  0  0  0  0  0  0  0  0  0  0  0
   50.9570   27.3950   52.2940 F   0  0  0  0  0  0  0  0  0  0  0  0
   52.1810   28.2460   50.5490 F   0  0  0  0  0  0  0  0  0  0  0  0
   52.9630   28.2010   52.6890 F   0  0  0  0  0  0  0  0  0  0  0  0
  1 27  1  0  0  0  0
  2  1  1  0  0  0  0
  2  3  1  0  0  0  0
  4  5  1  0  0  0  0
  4  2  2  0  0  0  0
  6  7  2  0  0  0  0
  6  4  1  0  0  0  0
  7  8  1  0  0  0  0
  8  9  1  0  0  0  0
  8  1  2  0  0  0  0
 10  7  1  0  0  0  0
 11 20  1  0  0  0  0
 11 10  1  0  0  0  0
 12 11  2  0  0  0  0
 13 12  1  0  0  0  0
 14 16  2  0  0  0  0
 14 12  1  0  0  0  0
 15 14  1  0  0  0  0
 16 18  1  0  0  0  0
 17 16  1  0  0  0  0
 18 19  1  0  0  0  0
 18 20  2  0  0  0  0
 20 21  1  0  0  0  0
 21 22  1  0  0  0  0
 21  6  1  0  0  0  0
 23 34  1  0  0  0  0
 24 23  1  0  0  0  0
 24 30  1  0  0  0  0
 25 24  2  0  0  0  0
 26 27  2  0  0  0  0
 26 25  1  0  0  0  0
 27 28  1  0  0  0  0
 28 23  2  0  0  0  0
 29 25  1  0  0  0  0
 30 31  1  0  0  0  0
 32 30  1  0  0  0  0
 33 30  1  0  0  0  0
 35 34  1  0  0  0  0
 35 36  1  0  0  0  0
 35 38  1  0  0  0  0
 37 35  1  0  0  0  0
M  END
>  <minimizedAffinity>
-5.72575188

>  <minimizedRMSD>
9.54263592

$$$$
