
 OpenBabel03252503093D

 40 44  0  0  1  0  0  0  0  0999 V2000
   46.2230   34.1580   40.5400 C   0  0  0  0  0  0  0  0  0  0  0  0
   44.8480   34.0530   40.5760 C   0  0  0  0  0  0  0  0  0  0  0  0
   44.2800   34.4420   41.4310 H   0  0  0  0  0  0  0  0  0  0  0  0
   44.1120   33.4650   39.5840 C   0  0  0  0  0  0  0  0  0  0  0  0
   43.0450   33.4070   39.6620 H   0  0  0  0  0  0  0  0  0  0  0  0
   44.7990   32.9470   38.4770 C   0  0  0  0  0  0  0  0  0  0  0  0
   46.1710   33.0510   38.4360 C   0  0  0  0  0  0  0  0  0  0  0  0
   46.8450   33.6470   39.4550 C   0  0  0  0  0  0  0  0  0  0  0  0
   47.9210   33.7680   39.4940 H   0  0  0  0  0  0  0  0  0  0  0  0
   47.0770   32.4120   37.0450 S   0  0  0  0  0  0  0  0  0  0  0  0
   45.8750   31.6180   35.9940 C   0  0  0  0  0  0  0  0  0  0  0  0
   46.2750   30.9630   34.8830 C   0  0  0  0  0  0  0  0  0  0  0  0
   47.3520   30.9480   34.6610 H   0  0  0  0  0  0  0  0  0  0  0  0
   45.4190   30.3280   34.0180 C   0  0  0  0  0  0  0  0  0  0  0  0
   45.8110   29.8270   33.1480 H   0  0  0  0  0  0  0  0  0  0  0  0
   44.0590   30.3950   34.3610 C   0  0  0  0  0  0  0  0  0  0  0  0
   43.3590   29.9070   33.7040 H   0  0  0  0  0  0  0  0  0  0  0  0
   43.6610   31.0720   35.5050 C   0  0  0  0  0  0  0  0  0  0  0  0
   42.6020   31.0550   35.6650 H   0  0  0  0  0  0  0  0  0  0  0  0
   44.5860   31.7150   36.3690 C   0  0  0  0  0  0  0  0  0  0  0  0
   44.0230   32.3110   37.4940 N   0  0  0  0  0  0  0  0  0  0  0  0
   42.9690   32.2920   37.6220 H   0  0  0  0  0  0  0  0  0  0  0  0
   46.8440   34.8190   41.7420 C   0  0  1  0  0  3  0  0  0  0  0  0
   48.0450   35.2990   41.7710 O   0  0  0  0  0  1  0  0  0  0  0  0
   45.4660   36.1950   43.1930 C   0  0  0  0  0  0  0  0  0  0  0  0
   46.1050   34.9590   42.9470 C   0  0  0  0  0  0  0  0  0  0  0  0
   45.9180   33.9870   43.9070 C   0  0  0  0  0  0  0  0  0  0  0  0
   45.1720   34.2060   45.0060 N   0  0  0  0  0  0  0  0  0  0  0  0
   44.5720   35.4080   45.2100 C   0  0  0  0  0  0  0  0  0  0  0  0
   44.7280   36.3940   44.2920 N   0  0  0  0  0  0  0  0  0  0  0  0
   45.5780   36.9960   42.4760 H   0  0  0  0  0  0  0  0  0  0  0  0
   43.9910   35.4810   46.1310 H   0  0  0  0  0  0  0  0  0  0  0  0
   46.5340   32.7520   43.7330 C   0  0  0  0  0  0  0  0  0  0  0  0
   47.8160   32.2800   43.9170 C   0  0  0  0  0  0  0  0  0  0  0  0
   48.1420   31.0230   43.6680 C   0  0  0  0  0  0  0  0  0  0  0  0
   47.1510   30.1790   43.2130 C   0  0  0  0  0  0  0  0  0  0  0  0
   45.6680   31.3030   43.1530 S   0  0  0  0  0  0  0  0  0  0  0  0
   48.6810   32.7640   44.2980 H   0  0  0  0  0  0  0  0  0  0  0  0
   48.9990   30.3820   43.7050 H   0  0  0  0  0  0  0  0  0  0  0  0
   46.9310   29.1640   42.8990 H   0  0  0  0  0  0  0  0  0  0  0  0
  1  2  1  0  0  0  0
  1 23  1  0  0  0  0
  2  3  1  0  0  0  0
  4  5  1  0  0  0  0
  4  2  2  0  0  0  0
  6  4  1  0  0  0  0
  7  6  2  0  0  0  0
  7  8  1  0  0  0  0
  8  9  1  0  0  0  0
  8  1  2  0  0  0  0
 10  7  1  0  0  0  0
 11 20  1  0  0  0  0
 11 10  1  0  0  0  0
 12 11  2  0  0  0  0
 13 12  1  0  0  0  0
 14 16  2  0  0  0  0
 14 12  1  0  0  0  0
 15 14  1  0  0  0  0
 16 18  1  0  0  0  0
 17 16  1  0  0  0  0
 18 19  1  0  0  0  0
 18 20  2  0  0  0  0
 20 21  1  0  0  0  0
 21 22  1  0  0  0  0
 21  6  1  0  0  0  0
 23 24  1  6  0  0  0
 23 26  1  0  0  0  0
 25 30  1  0  0  0  0
 26 25  2  0  0  0  0
 26 27  1  0  0  0  0
 27 28  2  0  0  0  0
 28 29  1  0  0  0  0
 29 32  1  0  0  0  0
 30 29  2  0  0  0  0
 31 25  1  0  0  0  0
 33 27  1  0  0  0  0
 33 34  2  0  0  0  0
 34 38  1  0  0  0  0
 35 39  1  0  0  0  0
 35 34  1  0  0  0  0
 36 35  2  0  0  0  0
 37 36  1  0  0  0  0
 37 33  1  0  0  0  0
 40 36  1  0  0  0  0
M  END
>  <minimizedAffinity>
-5.66692066

>  <minimizedRMSD>
1.17885351

$$$$
