
 OpenBabel03242518503D

 36 39  0  0  0  0  0  0  0  0999 V2000
   46.3190   32.1860   47.1330 C   0  0  0  0  0  0  0  0  0  0  0  0
   46.0360   30.9020   46.7240 C   0  0  0  0  0  0  0  0  0  0  0  0
   45.2290   30.6540   46.0550 H   0  0  0  0  0  0  0  0  0  0  0  0
   46.7740   29.8040   47.1320 C   0  0  0  0  0  0  0  0  0  0  0  0
   46.4980   28.7970   46.7750 H   0  0  0  0  0  0  0  0  0  0  0  0
   47.8620   29.9300   47.9900 C   0  0  0  0  0  0  0  0  0  0  0  0
   48.1210   31.2220   48.3810 C   0  0  0  0  0  0  0  0  0  0  0  0
   47.3990   32.2860   47.9820 C   0  0  0  0  0  0  0  0  0  0  0  0
   47.6420   33.3030   48.3270 H   0  0  0  0  0  0  0  0  0  0  0  0
   49.4920   31.5180   49.4810 S   0  0  0  0  0  0  0  0  0  0  0  0
   50.2250   29.9210   49.7730 C   0  0  0  0  0  0  0  0  0  0  0  0
   51.3170   29.9020   50.5770 C   0  0  0  0  0  0  0  0  0  0  0  0
   51.7290   30.8020   51.0230 H   0  0  0  0  0  0  0  0  0  0  0  0
   51.9010   28.6610   50.8170 C   0  0  0  0  0  0  0  0  0  0  0  0
   52.7680   28.6090   51.4550 H   0  0  0  0  0  0  0  0  0  0  0  0
   51.4220   27.4770   50.2810 C   0  0  0  0  0  0  0  0  0  0  0  0
   51.8710   26.5230   50.4700 H   0  0  0  0  0  0  0  0  0  0  0  0
   50.2980   27.5960   49.4680 C   0  0  0  0  0  0  0  0  0  0  0  0
   49.9340   26.6440   49.0520 H   0  0  0  0  0  0  0  0  0  0  0  0
   49.6870   28.8010   49.2010 C   0  0  0  0  0  0  0  0  0  0  0  0
   48.5760   28.7770   48.3590 N   0  0  0  0  0  0  0  0  0  0  0  0
   48.2480   27.8650   47.9740 H   0  0  0  0  0  0  0  0  0  0  0  0
   45.5380   33.3310   46.6920 C   0  0  0  0  0  0  0  0  0  0  0  0
   44.6720   33.7340   47.5220 O   0  0  0  0  0  0  0  0  0  0  0  0
   44.9490   35.5870   43.8840 C   0  0  0  0  0  0  0  0  0  0  0  0
   45.9890   35.3120   42.9700 C   0  0  0  0  0  0  0  0  0  0  0  0
   46.8830   34.3270   43.3610 C   0  0  0  0  0  0  0  0  0  0  0  0
   46.6770   33.7410   44.5440 N   0  0  0  0  0  0  0  0  0  0  0  0
   45.6980   33.9950   45.4130 C   0  0  0  0  0  0  0  0  0  0  0  0
   44.8120   34.9510   45.0580 N   0  0  0  0  0  0  0  0  0  0  0  0
   44.2370   36.3560   43.6040 H   0  0  0  0  0  0  0  0  0  0  0  0
   46.1070   35.8170   42.0340 H   0  0  0  0  0  0  0  0  0  0  0  0
   47.9790   34.0230   42.4320 C   0  0  0  0  0  0  0  0  0  0  0  0
   49.1710   33.9100   43.1290 F   0  0  0  0  0  0  0  0  0  0  0  0
   48.1250   35.1610   41.6200 F   0  0  0  0  0  0  0  0  0  0  0  0
   47.7740   32.9000   41.7020 F   0  0  0  0  0  0  0  0  0  0  0  0
  1  8  1  0  0  0  0
  2  4  1  0  0  0  0
  2  1  2  0  0  0  0
  3  2  1  0  0  0  0
  4  6  2  0  0  0  0
  5  4  1  0  0  0  0
  6 21  1  0  0  0  0
  6  7  1  0  0  0  0
  7 10  1  0  0  0  0
  8  9  1  0  0  0  0
  8  7  2  0  0  0  0
 10 11  1  0  0  0  0
 11 12  1  0  0  0  0
 12 14  2  0  0  0  0
 12 13  1  0  0  0  0
 14 15  1  0  0  0  0
 16 17  1  0  0  0  0
 16 14  1  0  0  0  0
 18 16  2  0  0  0  0
 19 18  1  0  0  0  0
 20 18  1  0  0  0  0
 20 11  2  0  0  0  0
 21 20  1  0  0  0  0
 22 21  1  0  0  0  0
 23  1  1  0  0  0  0
 23 24  2  0  0  0  0
 25 30  1  0  0  0  0
 26 27  1  0  0  0  0
 26 25  2  0  0  0  0
 27 28  2  0  0  0  0
 28 29  1  0  0  0  0
 29 23  1  0  0  0  0
 30 29  2  0  0  0  0
 31 25  1  0  0  0  0
 32 26  1  0  0  0  0
 33 34  1  0  0  0  0
 33 27  1  0  0  0  0
 35 33  1  0  0  0  0
 36 33  1  0  0  0  0
M  END
>  <minimizedAffinity>
-6.4527688

>  <minimizedRMSD>
1.53705001

$$$$
