
 OpenBabel03242523193D

 50 55  0  0  0  0  0  0  0  0999 V2000
   44.6260   31.8210   42.8390 Cl  0  0  0  0  0  0  0  0  0  0  0  0
   44.6210   33.5860   42.7820 C   0  0  0  0  0  0  0  0  0  0  0  0
   45.4500   34.2200   43.7290 C   0  0  0  0  0  0  0  0  0  0  0  0
   45.3730   35.5970   43.5960 C   0  0  0  0  0  0  0  0  0  0  0  0
   44.6630   36.3430   42.7370 C   0  0  0  0  0  0  0  0  0  0  0  0
   43.8860   35.6470   41.8530 C   0  0  0  0  0  0  0  0  0  0  0  0
   43.8510   34.2950   41.8570 C   0  0  0  0  0  0  0  0  0  0  0  0
   45.9400   36.2540   44.2900 H   0  0  0  0  0  0  0  0  0  0  0  0
   44.6310   37.4000   42.6640 H   0  0  0  0  0  0  0  0  0  0  0  0
   43.2530   36.0930   41.0940 H   0  0  0  0  0  0  0  0  0  0  0  0
   43.0360   33.4990   40.9380 C   0  0  0  0  0  0  0  0  0  0  0  0
   43.4640   33.5470   39.6100 C   0  0  0  0  0  0  0  0  0  0  0  0
   44.3260   34.1240   39.3030 H   0  0  0  0  0  0  0  0  0  0  0  0
   42.7570   32.8260   38.6460 C   0  0  0  0  0  0  0  0  0  0  0  0
   43.1430   32.9030   37.6190 H   0  0  0  0  0  0  0  0  0  0  0  0
   41.6480   32.0580   38.9200 C   0  0  0  0  0  0  0  0  0  0  0  0
   41.2720   32.0480   40.2380 C   0  0  0  0  0  0  0  0  0  0  0  0
   41.9250   32.7330   41.2220 C   0  0  0  0  0  0  0  0  0  0  0  0
   41.6360   32.7290   42.2440 H   0  0  0  0  0  0  0  0  0  0  0  0
   39.8480   31.0830   40.6990 S   0  0  0  0  0  0  0  0  0  0  0  0
   39.2360   30.3270   39.2070 C   0  0  0  0  0  0  0  0  0  0  0  0
   38.1340   29.5180   39.2540 C   0  0  0  0  0  0  0  0  0  0  0  0
   37.6530   29.3580   40.2260 H   0  0  0  0  0  0  0  0  0  0  0  0
   37.6160   28.9060   38.1370 C   0  0  0  0  0  0  0  0  0  0  0  0
   36.7420   28.2860   38.2810 H   0  0  0  0  0  0  0  0  0  0  0  0
   38.2540   29.1350   36.9360 C   0  0  0  0  0  0  0  0  0  0  0  0
   37.8720   28.6740   36.0610 H   0  0  0  0  0  0  0  0  0  0  0  0
   39.3620   29.9570   36.9330 C   0  0  0  0  0  0  0  0  0  0  0  0
   39.8080   30.0850   35.9350 H   0  0  0  0  0  0  0  0  0  0  0  0
   39.9020   30.5830   38.0360 C   0  0  0  0  0  0  0  0  0  0  0  0
   41.0370   31.3840   37.8380 N   0  0  0  0  0  0  0  0  0  0  0  0
   41.4350   31.4840   36.8810 H   0  0  0  0  0  0  0  0  0  0  0  0
   46.3200   33.5570   44.7430 C   0  0  0  0  0  0  0  0  0  0  0  0
   45.7450   33.9340   45.7320 O   0  0  0  0  0  0  0  0  0  0  0  0
   47.3790   32.8190   44.0400 C   0  0  0  0  0  0  0  0  0  0  0  0
   48.2180   33.3160   43.1200 C   0  0  0  0  0  0  0  0  0  0  0  0
   49.0540   32.3820   42.5420 C   0  0  0  0  0  0  0  0  0  0  0  0
   48.9580   31.0410   42.9600 N   0  0  0  0  0  0  0  0  0  0  0  0
   48.1110   30.6320   43.8720 C   0  0  0  0  0  0  0  0  0  0  0  0
   47.2570   31.5330   44.4700 N   0  0  0  0  0  0  0  0  0  0  0  0
   49.7960   32.5940   41.7800 H   0  0  0  0  0  0  0  0  0  0  0  0
   48.1540   29.5700   44.0910 H   0  0  0  0  0  0  0  0  0  0  0  0
   48.3910   34.6850   42.7870 C   0  0  0  0  0  0  0  0  0  0  0  0
   49.3950   35.2660   42.0760 C   0  0  0  0  0  0  0  0  0  0  0  0
   48.1350   35.0880   41.2730 C   0  0  0  0  0  0  0  0  0  0  0  0
   47.9540   35.3810   43.5260 H   0  0  0  0  0  0  0  0  0  0  0  0
   49.7450   36.3260   42.0770 H   0  0  0  0  0  0  0  0  0  0  0  0
   50.2450   34.6280   41.6910 H   0  0  0  0  0  0  0  0  0  0  0  0
   48.0440   34.2170   40.6100 H   0  0  0  0  0  0  0  0  0  0  0  0
   47.4600   35.9480   41.1520 H   0  0  0  0  0  0  0  0  0  0  0  0
  2  1  1  0  0  0  0
  2  3  1  0  0  0  0
  3 33  1  0  0  0  0
  4  3  2  0  0  0  0
  4  8  1  0  0  0  0
  5  4  1  0  0  0  0
  6  7  1  0  0  0  0
  6  5  2  0  0  0  0
  7  2  2  0  0  0  0
  9  5  1  0  0  0  0
 10  6  1  0  0  0  0
 11 18  1  0  0  0  0
 11  7  1  0  0  0  0
 12 11  2  0  0  0  0
 13 12  1  0  0  0  0
 14 16  2  0  0  0  0
 14 12  1  0  0  0  0
 15 14  1  0  0  0  0
 16 17  1  0  0  0  0
 17 20  1  0  0  0  0
 17 18  2  0  0  0  0
 18 19  1  0  0  0  0
 21 22  1  0  0  0  0
 21 20  1  0  0  0  0
 22 23  1  0  0  0  0
 24 25  1  0  0  0  0
 24 22  2  0  0  0  0
 26 24  1  0  0  0  0
 27 26  1  0  0  0  0
 28 26  2  0  0  0  0
 28 30  1  0  0  0  0
 29 28  1  0  0  0  0
 30 21  2  0  0  0  0
 31 30  1  0  0  0  0
 31 16  1  0  0  0  0
 32 31  1  0  0  0  0
 33 34  2  0  0  0  0
 35 40  1  0  0  0  0
 35 33  1  0  0  0  0
 36 35  2  0  0  0  0
 37 38  2  0  0  0  0
 37 36  1  0  0  0  0
 38 39  1  0  0  0  0
 39 42  1  0  0  0  0
 39 40  2  0  0  0  0
 41 37  1  0  0  0  0
 43 36  1  0  0  0  0
 43 46  1  0  0  0  0
 44 47  1  0  0  0  0
 44 43  1  0  0  0  0
 45 44  1  0  0  0  0
 45 43  1  0  0  0  0
 48 44  1  0  0  0  0
 49 45  1  0  0  0  0
 50 45  1  0  0  0  0
M  END
>  <minimizedAffinity>
-6.69193411

>  <minimizedRMSD>
1.13388574

$$$$
