
 OpenBabel03252503093D

 40 44  0  0  1  0  0  0  0  0999 V2000
   46.8490   34.2110   40.5400 C   0  0  0  0  0  0  0  0  0  0  0  0
   47.7870   34.2240   39.5280 C   0  0  0  0  0  0  0  0  0  0  0  0
   48.7480   34.7390   39.6620 H   0  0  0  0  0  0  0  0  0  0  0  0
   47.5940   33.6220   38.3140 C   0  0  0  0  0  0  0  0  0  0  0  0
   48.3550   33.6640   37.5610 H   0  0  0  0  0  0  0  0  0  0  0  0
   46.3760   32.9590   38.0970 C   0  0  0  0  0  0  0  0  0  0  0  0
   45.4400   32.9420   39.1040 C   0  0  0  0  0  0  0  0  0  0  0  0
   45.6920   33.5600   40.2900 C   0  0  0  0  0  0  0  0  0  0  0  0
   45.0060   33.5890   41.1280 H   0  0  0  0  0  0  0  0  0  0  0  0
   43.8860   32.1070   38.8690 S   0  0  0  0  0  0  0  0  0  0  0  0
   43.8840   31.5330   37.1810 C   0  0  0  0  0  0  0  0  0  0  0  0
   42.7910   30.9190   36.6760 C   0  0  0  0  0  0  0  0  0  0  0  0
   41.9260   30.7910   37.3420 H   0  0  0  0  0  0  0  0  0  0  0  0
   42.7050   30.4460   35.3900 C   0  0  0  0  0  0  0  0  0  0  0  0
   41.8010   29.9650   35.0570 H   0  0  0  0  0  0  0  0  0  0  0  0
   43.8490   30.6400   34.6010 C   0  0  0  0  0  0  0  0  0  0  0  0
   43.8150   30.2800   33.5870 H   0  0  0  0  0  0  0  0  0  0  0  0
   44.9660   31.2700   35.1320 C   0  0  0  0  0  0  0  0  0  0  0  0
   45.7750   31.3610   34.4370 H   0  0  0  0  0  0  0  0  0  0  0  0
   45.0070   31.7430   36.4700 C   0  0  0  0  0  0  0  0  0  0  0  0
   46.1870   32.3880   36.8290 N   0  0  0  0  0  0  0  0  0  0  0  0
   46.9810   32.4540   36.1250 H   0  0  0  0  0  0  0  0  0  0  0  0
   47.2470   34.9520   41.7880 C   0  0  1  0  0  3  0  0  0  0  0  0
   48.3840   35.5490   41.9510 O   0  0  0  0  0  1  0  0  0  0  0  0
   45.6580   36.2550   43.0810 C   0  0  0  0  0  0  0  0  0  0  0  0
   46.3520   35.0400   42.8870 C   0  0  0  0  0  0  0  0  0  0  0  0
   46.0610   34.0350   43.7860 C   0  0  0  0  0  0  0  0  0  0  0  0
   45.1710   34.2060   44.7810 N   0  0  0  0  0  0  0  0  0  0  0  0
   44.5230   35.3890   44.9370 C   0  0  0  0  0  0  0  0  0  0  0  0
   44.7770   36.4060   44.0780 N   0  0  0  0  0  0  0  0  0  0  0  0
   45.8460   37.0800   42.4080 H   0  0  0  0  0  0  0  0  0  0  0  0
   43.8230   35.4220   45.7750 H   0  0  0  0  0  0  0  0  0  0  0  0
   46.7230   32.8180   43.6600 C   0  0  0  0  0  0  0  0  0  0  0  0
   48.0470   32.4340   43.6790 C   0  0  0  0  0  0  0  0  0  0  0  0
   48.4130   31.1730   43.5320 C   0  0  0  0  0  0  0  0  0  0  0  0
   47.4210   30.2310   43.3580 C   0  0  0  0  0  0  0  0  0  0  0  0
   45.8750   31.2670   43.4150 S   0  0  0  0  0  0  0  0  0  0  0  0
   48.9280   33.0040   43.8470 H   0  0  0  0  0  0  0  0  0  0  0  0
   49.3060   30.5830   43.5000 H   0  0  0  0  0  0  0  0  0  0  0  0
   47.2220   29.1750   43.2100 H   0  0  0  0  0  0  0  0  0  0  0  0
  1 23  1  0  0  0  0
  2  3  1  0  0  0  0
  2  1  2  0  0  0  0
  4  2  1  0  0  0  0
  5  4  1  0  0  0  0
  6  4  2  0  0  0  0
  6  7  1  0  0  0  0
  7  8  2  0  0  0  0
  8  1  1  0  0  0  0
  8  9  1  0  0  0  0
 10  7  1  0  0  0  0
 11 10  1  0  0  0  0
 12 11  1  0  0  0  0
 12 13  1  0  0  0  0
 14 12  2  0  0  0  0
 15 14  1  0  0  0  0
 16 18  2  0  0  0  0
 16 14  1  0  0  0  0
 17 16  1  0  0  0  0
 18 20  1  0  0  0  0
 19 18  1  0  0  0  0
 20 21  1  0  0  0  0
 20 11  2  0  0  0  0
 21  6  1  0  0  0  0
 22 21  1  0  0  0  0
 23 24  1  6  0  0  0
 23 26  1  0  0  0  0
 25 30  1  0  0  0  0
 26 25  2  0  0  0  0
 26 27  1  0  0  0  0
 27 28  2  0  0  0  0
 28 29  1  0  0  0  0
 29 32  1  0  0  0  0
 30 29  2  0  0  0  0
 31 25  1  0  0  0  0
 33 34  2  0  0  0  0
 33 27  1  0  0  0  0
 34 38  1  0  0  0  0
 35 34  1  0  0  0  0
 36 37  1  0  0  0  0
 36 35  2  0  0  0  0
 37 33  1  0  0  0  0
 39 35  1  0  0  0  0
 40 36  1  0  0  0  0
M  END
>  <minimizedAffinity>
-5.70413637

>  <minimizedRMSD>
1.33966899

$$$$
