
 OpenBabel03252503093D

 40 44  0  0  1  0  0  0  0  0999 V2000
   46.2120   34.1620   40.5620 C   0  0  0  0  0  0  0  0  0  0  0  0
   44.8330   34.1170   40.5660 C   0  0  0  0  0  0  0  0  0  0  0  0
   44.2610   34.5590   41.3930 H   0  0  0  0  0  0  0  0  0  0  0  0
   44.0950   33.5300   39.5750 C   0  0  0  0  0  0  0  0  0  0  0  0
   43.0250   33.5200   39.6260 H   0  0  0  0  0  0  0  0  0  0  0  0
   44.7870   32.9450   38.5030 C   0  0  0  0  0  0  0  0  0  0  0  0
   46.1610   32.9900   38.4940 C   0  0  0  0  0  0  0  0  0  0  0  0
   46.8370   33.5890   39.5100 C   0  0  0  0  0  0  0  0  0  0  0  0
   47.9160   33.6650   39.5730 H   0  0  0  0  0  0  0  0  0  0  0  0
   47.0730   32.2660   37.1480 S   0  0  0  0  0  0  0  0  0  0  0  0
   45.8630   31.4910   36.0930 C   0  0  0  0  0  0  0  0  0  0  0  0
   46.2630   30.7820   35.0130 C   0  0  0  0  0  0  0  0  0  0  0  0
   47.3420   30.7130   34.8200 H   0  0  0  0  0  0  0  0  0  0  0  0
   45.4000   30.1560   34.1480 C   0  0  0  0  0  0  0  0  0  0  0  0
   45.7900   29.6100   33.3040 H   0  0  0  0  0  0  0  0  0  0  0  0
   44.0360   30.2930   34.4540 C   0  0  0  0  0  0  0  0  0  0  0  0
   43.3330   29.8150   33.7940 H   0  0  0  0  0  0  0  0  0  0  0  0
   43.6410   31.0240   35.5640 C   0  0  0  0  0  0  0  0  0  0  0  0
   42.5780   31.0590   35.6960 H   0  0  0  0  0  0  0  0  0  0  0  0
   44.5710   31.6560   36.4300 C   0  0  0  0  0  0  0  0  0  0  0  0
   44.0080   32.3120   37.5210 N   0  0  0  0  0  0  0  0  0  0  0  0
   42.9510   32.3430   37.6220 H   0  0  0  0  0  0  0  0  0  0  0  0
   46.8300   34.8340   41.7580 C   0  0  1  0  0  3  0  0  0  0  0  0
   48.0260   35.3290   41.7800 O   0  0  0  0  0  1  0  0  0  0  0  0
   45.4590   36.2050   43.2200 C   0  0  0  0  0  0  0  0  0  0  0  0
   46.0950   34.9700   42.9660 C   0  0  0  0  0  0  0  0  0  0  0  0
   45.9100   33.9940   43.9230 C   0  0  0  0  0  0  0  0  0  0  0  0
   45.1680   34.2090   45.0250 N   0  0  0  0  0  0  0  0  0  0  0  0
   44.5710   35.4100   45.2360 C   0  0  0  0  0  0  0  0  0  0  0  0
   44.7250   36.4000   44.3230 N   0  0  0  0  0  0  0  0  0  0  0  0
   45.5690   37.0090   42.5070 H   0  0  0  0  0  0  0  0  0  0  0  0
   43.9920   35.4790   46.1600 H   0  0  0  0  0  0  0  0  0  0  0  0
   46.5240   32.7590   43.7410 C   0  0  0  0  0  0  0  0  0  0  0  0
   47.8060   32.2840   43.9170 C   0  0  0  0  0  0  0  0  0  0  0  0
   48.1300   31.0290   43.6610 C   0  0  0  0  0  0  0  0  0  0  0  0
   47.1360   30.1870   43.2070 C   0  0  0  0  0  0  0  0  0  0  0  0
   45.6540   31.3130   43.1590 S   0  0  0  0  0  0  0  0  0  0  0  0
   48.6740   32.7660   44.2970 H   0  0  0  0  0  0  0  0  0  0  0  0
   48.9870   30.3860   43.6930 H   0  0  0  0  0  0  0  0  0  0  0  0
   46.9130   29.1740   42.8900 H   0  0  0  0  0  0  0  0  0  0  0  0
  1  2  1  0  0  0  0
  1 23  1  0  0  0  0
  2  3  1  0  0  0  0
  4  5  1  0  0  0  0
  4  2  2  0  0  0  0
  6  4  1  0  0  0  0
  7  6  2  0  0  0  0
  7  8  1  0  0  0  0
  8  9  1  0  0  0  0
  8  1  2  0  0  0  0
 10  7  1  0  0  0  0
 11 20  1  0  0  0  0
 11 10  1  0  0  0  0
 12 11  2  0  0  0  0
 13 12  1  0  0  0  0
 14 16  2  0  0  0  0
 14 12  1  0  0  0  0
 15 14  1  0  0  0  0
 16 18  1  0  0  0  0
 17 16  1  0  0  0  0
 18 19  1  0  0  0  0
 18 20  2  0  0  0  0
 20 21  1  0  0  0  0
 21 22  1  0  0  0  0
 21  6  1  0  0  0  0
 23 24  1  6  0  0  0
 23 26  1  0  0  0  0
 25 30  1  0  0  0  0
 26 25  2  0  0  0  0
 26 27  1  0  0  0  0
 27 28  2  0  0  0  0
 28 29  1  0  0  0  0
 29 32  1  0  0  0  0
 30 29  2  0  0  0  0
 31 25  1  0  0  0  0
 33 34  2  0  0  0  0
 33 27  1  0  0  0  0
 34 38  1  0  0  0  0
 35 39  1  0  0  0  0
 35 34  1  0  0  0  0
 36 35  2  0  0  0  0
 37 36  1  0  0  0  0
 37 33  1  0  0  0  0
 40 36  1  0  0  0  0
M  END
>  <minimizedAffinity>
-5.62786198

>  <minimizedRMSD>
1.91569901

$$$$
