
 OpenBabel03252502433D

 44 48  0  0  1  0  0  0  0  0999 V2000
   48.4320   35.1710   41.4860 C   0  0  1  0  0  0  0  0  0  0  0  0
   49.2710   34.8280   42.6140 C   0  0  0  0  0  0  0  0  0  0  0  0
   49.3450   34.1560   41.2480 C   0  0  1  0  0  0  0  0  0  0  0  0
   48.5800   36.2390   41.1490 H   0  0  0  0  0  0  0  0  0  0  0  0
   48.9750   34.2430   43.4820 H   0  0  0  0  0  0  0  0  0  0  0  0
   50.2070   35.4220   42.8390 H   0  0  0  0  0  0  0  0  0  0  0  0
   50.0890   34.5630   40.4780 H   0  0  0  0  0  0  0  0  0  0  0  0
   49.8670   32.8440   41.3440 C   0  0  0  0  0  0  0  0  0  0  0  0
   50.9230   32.4740   42.1970 C   0  0  0  0  0  0  0  0  0  0  0  0
   51.3790   33.2460   42.8040 H   0  0  0  0  0  0  0  0  0  0  0  0
   51.3300   31.1620   42.2260 C   0  0  0  0  0  0  0  0  0  0  0  0
   52.1580   30.9820   42.9240 H   0  0  0  0  0  0  0  0  0  0  0  0
   50.7170   30.2180   41.4320 C   0  0  0  0  0  0  0  0  0  0  0  0
   49.6990   30.5030   40.5910 C   0  0  0  0  0  0  0  0  0  0  0  0
   49.3170   31.7990   40.5810 C   0  0  0  0  0  0  0  0  0  0  0  0
   48.4950   32.0780   39.9120 H   0  0  0  0  0  0  0  0  0  0  0  0
   48.9660   29.2370   39.6080 S   0  0  0  0  0  0  0  0  0  0  0  0
   49.8450   27.7340   40.0170 C   0  0  0  0  0  0  0  0  0  0  0  0
   49.4040   26.6350   39.3410 C   0  0  0  0  0  0  0  0  0  0  0  0
   48.6080   26.6220   38.6240 H   0  0  0  0  0  0  0  0  0  0  0  0
   50.0270   25.4160   39.5920 C   0  0  0  0  0  0  0  0  0  0  0  0
   49.7510   24.4910   39.1100 H   0  0  0  0  0  0  0  0  0  0  0  0
   51.0570   25.3690   40.5060 C   0  0  0  0  0  0  0  0  0  0  0  0
   51.5520   24.4300   40.7110 H   0  0  0  0  0  0  0  0  0  0  0  0
   51.4200   26.5240   41.1260 C   0  0  0  0  0  0  0  0  0  0  0  0
   52.2500   26.4280   41.8460 H   0  0  0  0  0  0  0  0  0  0  0  0
   50.8630   27.7750   40.9420 C   0  0  0  0  0  0  0  0  0  0  0  0
   51.2810   28.9360   41.6130 N   0  0  0  0  0  0  0  0  0  0  0  0
   52.0820   28.7210   42.2790 H   0  0  0  0  0  0  0  0  0  0  0  0
   46.9480   34.9290   41.5480 C   0  0  0  0  0  0  0  0  0  0  0  0
   46.5190   35.9070   41.9150 H   0  0  0  0  0  0  0  0  0  0  0  0
   46.5050   34.6900   40.5820 H   0  0  0  0  0  0  0  0  0  0  0  0
   46.8130   33.8550   42.5790 C   0  0  0  0  0  0  0  0  0  0  0  0
   47.7450   33.8190   43.1720 H   0  0  0  0  0  0  0  0  0  0  0  0
   46.4620   32.8940   42.1950 H   0  0  0  0  0  0  0  0  0  0  0  0
   44.5140   36.0070   44.6210 C   0  0  0  0  0  0  0  0  0  0  0  0
   45.2680   35.5190   43.5260 C   0  0  0  0  0  0  0  0  0  0  0  0
   45.9780   34.3660   43.7040 C   0  0  0  0  0  0  0  0  0  0  0  0
   45.9350   33.7320   44.9110 N   0  0  0  0  0  0  0  0  0  0  0  0
   45.2270   34.2010   45.9230 C   0  0  0  0  0  0  0  0  0  0  0  0
   44.5190   35.3270   45.7920 N   0  0  0  0  0  0  0  0  0  0  0  0
   43.9200   36.9080   44.5860 H   0  0  0  0  0  0  0  0  0  0  0  0
   45.1520   36.1580   42.6670 H   0  0  0  0  0  0  0  0  0  0  0  0
   45.1690   33.7260   46.8960 H   0  0  0  0  0  0  0  0  0  0  0  0
  1  4  1  6  0  0  0
  1 30  1  0  0  0  0
  1  2  1  0  0  0  0
  2  6  1  0  0  0  0
  2  5  1  0  0  0  0
  3  7  1  6  0  0  0
  3  8  1  0  0  0  0
  3  1  1  0  0  0  0
  3  2  1  0  0  0  0
  8  9  1  0  0  0  0
  9 11  2  0  0  0  0
  9 10  1  0  0  0  0
 11 12  1  0  0  0  0
 13 28  1  0  0  0  0
 13 11  1  0  0  0  0
 14 13  2  0  0  0  0
 15 14  1  0  0  0  0
 15  8  2  0  0  0  0
 16 15  1  0  0  0  0
 17 18  1  0  0  0  0
 17 14  1  0  0  0  0
 18 27  1  0  0  0  0
 19 21  1  0  0  0  0
 19 18  2  0  0  0  0
 20 19  1  0  0  0  0
 21 23  2  0  0  0  0
 22 21  1  0  0  0  0
 23 24  1  0  0  0  0
 23 25  1  0  0  0  0
 25 26  1  0  0  0  0
 27 25  2  0  0  0  0
 27 28  1  0  0  0  0
 28 29  1  0  0  0  0
 30 31  1  0  0  0  0
 30 33  1  0  0  0  0
 32 30  1  0  0  0  0
 33 34  1  0  0  0  0
 33 38  1  0  0  0  0
 35 33  1  0  0  0  0
 36 41  1  0  0  0  0
 37 38  1  0  0  0  0
 37 36  2  0  0  0  0
 38 39  2  0  0  0  0
 39 40  1  0  0  0  0
 40 44  1  0  0  0  0
 41 40  2  0  0  0  0
 42 36  1  0  0  0  0
 43 37  1  0  0  0  0
M  END
>  <minimizedAffinity>
-4.66389751

>  <minimizedRMSD>
2.52712393

$$$$
