
 OpenBabel03252504103D

 38 41  0  0  0  0  0  0  0  0999 V2000
   46.0010   32.6680   43.5390 C   0  0  0  0  0  0  0  0  0  0  0  0
   46.0110   33.9690   43.9950 C   0  0  0  0  0  0  0  0  0  0  0  0
   46.7830   34.2890   44.6580 H   0  0  0  0  0  0  0  0  0  0  0  0
   45.0100   34.8190   43.5720 C   0  0  0  0  0  0  0  0  0  0  0  0
   45.0840   35.8400   43.9770 H   0  0  0  0  0  0  0  0  0  0  0  0
   43.9820   34.4790   42.7190 C   0  0  0  0  0  0  0  0  0  0  0  0
   44.0240   33.1750   42.2980 C   0  0  0  0  0  0  0  0  0  0  0  0
   44.9950   32.2940   42.6890 C   0  0  0  0  0  0  0  0  0  0  0  0
   44.9760   31.2640   42.3210 H   0  0  0  0  0  0  0  0  0  0  0  0
   42.7480   32.6120   41.1900 S   0  0  0  0  0  0  0  0  0  0  0  0
   41.6710   33.9990   40.8980 C   0  0  0  0  0  0  0  0  0  0  0  0
   40.5840   33.8780   40.0780 C   0  0  0  0  0  0  0  0  0  0  0  0
   40.3910   32.9040   39.6030 H   0  0  0  0  0  0  0  0  0  0  0  0
   39.7080   34.9070   39.8060 C   0  0  0  0  0  0  0  0  0  0  0  0
   38.8890   34.7220   39.1570 H   0  0  0  0  0  0  0  0  0  0  0  0
   39.9910   36.1080   40.4240 C   0  0  0  0  0  0  0  0  0  0  0  0
   39.3380   36.9390   40.2440 H   0  0  0  0  0  0  0  0  0  0  0  0
   41.0920   36.2110   41.2480 C   0  0  0  0  0  0  0  0  0  0  0  0
   41.2320   37.2080   41.6920 H   0  0  0  0  0  0  0  0  0  0  0  0
   41.9690   35.1820   41.5200 C   0  0  0  0  0  0  0  0  0  0  0  0
   43.0390   35.4800   42.3900 N   0  0  0  0  0  0  0  0  0  0  0  0
   43.1470   36.4180   42.7900 H   0  0  0  0  0  0  0  0  0  0  0  0
   47.9070   30.2270   45.4980 C   0  0  0  0  0  0  0  0  0  0  0  0
   48.9690   29.9310   44.6510 C   0  0  0  0  0  0  0  0  0  0  0  0
   49.0190   30.5770   43.4070 C   0  0  0  0  0  0  0  0  0  0  0  0
   48.0360   31.4540   43.0930 N   0  0  0  0  0  0  0  0  0  0  0  0
   47.0260   31.7120   43.9420 C   0  0  0  0  0  0  0  0  0  0  0  0
   46.9510   31.1090   45.1410 N   0  0  0  0  0  0  0  0  0  0  0  0
   49.8440   30.3540   42.7360 H   0  0  0  0  0  0  0  0  0  0  0  0
   49.9980   28.9550   45.0850 C   0  0  0  0  0  0  0  0  0  0  0  0
   50.4020   29.2400   46.3840 F   0  0  0  0  0  0  0  0  0  0  0  0
   49.4150   27.7010   45.1350 F   0  0  0  0  0  0  0  0  0  0  0  0
   51.1130   28.9180   44.3200 F   0  0  0  0  0  0  0  0  0  0  0  0
   47.8670   29.6030   46.6910 O   0  0  0  0  0  0  0  0  0  0  0  0
   46.9530   28.6190   47.1240 C   0  0  0  0  0  0  0  0  0  0  0  0
   46.0900   29.2400   48.0280 F   0  0  0  0  0  0  0  0  0  0  0  0
   46.2910   28.0970   46.0470 F   0  0  0  0  0  0  0  0  0  0  0  0
   47.6030   27.6560   47.8570 F   0  0  0  0  0  0  0  0  0  0  0  0
  1 27  1  0  0  0  0
  1  2  1  0  0  0  0
  2  3  1  0  0  0  0
  4  5  1  0  0  0  0
  4  2  2  0  0  0  0
  6  4  1  0  0  0  0
  7  8  1  0  0  0  0
  7  6  2  0  0  0  0
  8  1  2  0  0  0  0
  9  8  1  0  0  0  0
 10  7  1  0  0  0  0
 11 10  1  0  0  0  0
 11 20  1  0  0  0  0
 12 11  2  0  0  0  0
 13 12  1  0  0  0  0
 14 12  1  0  0  0  0
 14 16  2  0  0  0  0
 15 14  1  0  0  0  0
 16 18  1  0  0  0  0
 17 16  1  0  0  0  0
 18 20  2  0  0  0  0
 18 19  1  0  0  0  0
 20 21  1  0  0  0  0
 21  6  1  0  0  0  0
 21 22  1  0  0  0  0
 23 34  1  0  0  0  0
 24 30  1  0  0  0  0
 24 23  2  0  0  0  0
 25 24  1  0  0  0  0
 26 25  2  0  0  0  0
 26 27  1  0  0  0  0
 27 28  2  0  0  0  0
 28 23  1  0  0  0  0
 29 25  1  0  0  0  0
 30 32  1  0  0  0  0
 30 31  1  0  0  0  0
 33 30  1  0  0  0  0
 34 35  1  0  0  0  0
 35 38  1  0  0  0  0
 35 36  1  0  0  0  0
 37 35  1  0  0  0  0
M  END
>  <minimizedAffinity>
-5.36979866

>  <minimizedRMSD>
9.60626888

$$$$
