
 OpenBabel03252504103D

 38 41  0  0  0  0  0  0  0  0999 V2000
   47.4100   31.3680   46.8210 C   0  0  0  0  0  0  0  0  0  0  0  0
   47.3200   30.0290   46.5050 C   0  0  0  0  0  0  0  0  0  0  0  0
   46.7260   29.7230   45.6730 H   0  0  0  0  0  0  0  0  0  0  0  0
   48.0080   29.1240   47.2860 C   0  0  0  0  0  0  0  0  0  0  0  0
   47.8870   28.0750   46.9720 H   0  0  0  0  0  0  0  0  0  0  0  0
   48.7930   29.4420   48.3730 C   0  0  0  0  0  0  0  0  0  0  0  0
   48.8460   30.7860   48.6400 C   0  0  0  0  0  0  0  0  0  0  0  0
   48.1820   31.7230   47.8960 C   0  0  0  0  0  0  0  0  0  0  0  0
   48.2610   32.7820   48.1560 H   0  0  0  0  0  0  0  0  0  0  0  0
   49.8280   31.3260   50.0230 S   0  0  0  0  0  0  0  0  0  0  0  0
   50.5380   29.8660   50.7510 C   0  0  0  0  0  0  0  0  0  0  0  0
   51.3530   29.9560   51.8460 C   0  0  0  0  0  0  0  0  0  0  0  0
   51.5590   30.9540   52.2640 H   0  0  0  0  0  0  0  0  0  0  0  0
   51.9380   28.8700   52.4620 C   0  0  0  0  0  0  0  0  0  0  0  0
   52.5570   29.0350   53.3080 H   0  0  0  0  0  0  0  0  0  0  0  0
   51.6490   27.6430   51.9020 C   0  0  0  0  0  0  0  0  0  0  0  0
   52.0810   26.7680   52.3450 H   0  0  0  0  0  0  0  0  0  0  0  0
   50.8250   27.5710   50.7970 C   0  0  0  0  0  0  0  0  0  0  0  0
   50.6580   26.5490   50.4260 H   0  0  0  0  0  0  0  0  0  0  0  0
   50.2420   28.6570   50.1810 C   0  0  0  0  0  0  0  0  0  0  0  0
   49.4280   28.3820   49.0610 N   0  0  0  0  0  0  0  0  0  0  0  0
   49.2870   27.4210   48.7350 H   0  0  0  0  0  0  0  0  0  0  0  0
   46.3080   33.4600   44.0220 C   0  0  0  0  0  0  0  0  0  0  0  0
   45.3790   34.2990   44.6260 C   0  0  0  0  0  0  0  0  0  0  0  0
   45.1370   34.1350   45.9980 C   0  0  0  0  0  0  0  0  0  0  0  0
   45.8190   33.1730   46.6650 N   0  0  0  0  0  0  0  0  0  0  0  0
   46.7110   32.3830   46.0420 C   0  0  0  0  0  0  0  0  0  0  0  0
   46.9630   32.5170   44.7280 N   0  0  0  0  0  0  0  0  0  0  0  0
   44.4130   34.7840   46.4820 H   0  0  0  0  0  0  0  0  0  0  0  0
   44.6810   35.3240   43.8100 C   0  0  0  0  0  0  0  0  0  0  0  0
   45.6010   36.2400   43.3160 F   0  0  0  0  0  0  0  0  0  0  0  0
   44.1340   34.7000   42.7040 F   0  0  0  0  0  0  0  0  0  0  0  0
   43.7300   36.0270   44.4650 F   0  0  0  0  0  0  0  0  0  0  0  0
   46.5340   33.6250   42.7040 O   0  0  0  0  0  0  0  0  0  0  0  0
   47.7140   34.0760   42.0760 C   0  0  0  0  0  0  0  0  0  0  0  0
   48.4520   34.7570   43.0450 F   0  0  0  0  0  0  0  0  0  0  0  0
   48.3960   33.0120   41.5540 F   0  0  0  0  0  0  0  0  0  0  0  0
   47.4140   35.0230   41.1270 F   0  0  0  0  0  0  0  0  0  0  0  0
  1  8  1  0  0  0  0
  2  1  2  0  0  0  0
  2  4  1  0  0  0  0
  3  2  1  0  0  0  0
  4  6  2  0  0  0  0
  5  4  1  0  0  0  0
  6  7  1  0  0  0  0
  6 21  1  0  0  0  0
  7 10  1  0  0  0  0
  8  9  1  0  0  0  0
  8  7  2  0  0  0  0
 10 11  1  0  0  0  0
 11 12  1  0  0  0  0
 12 13  1  0  0  0  0
 12 14  2  0  0  0  0
 14 15  1  0  0  0  0
 16 17  1  0  0  0  0
 16 14  1  0  0  0  0
 18 16  2  0  0  0  0
 19 18  1  0  0  0  0
 20 11  2  0  0  0  0
 20 18  1  0  0  0  0
 21 20  1  0  0  0  0
 22 21  1  0  0  0  0
 23 24  2  0  0  0  0
 23 28  1  0  0  0  0
 24 25  1  0  0  0  0
 25 29  1  0  0  0  0
 25 26  2  0  0  0  0
 27 26  1  0  0  0  0
 27  1  1  0  0  0  0
 28 27  2  0  0  0  0
 30 33  1  0  0  0  0
 30 24  1  0  0  0  0
 31 30  1  0  0  0  0
 32 30  1  0  0  0  0
 34 23  1  0  0  0  0
 35 34  1  0  0  0  0
 35 36  1  0  0  0  0
 37 35  1  0  0  0  0
 38 35  1  0  0  0  0
M  END
>  <minimizedAffinity>
-6.67076588

>  <minimizedRMSD>
1.77824092

$$$$
