
 OpenBabel03252504093D

 38 41  0  0  0  0  0  0  0  0999 V2000
   47.8330   30.9850   44.6610 C   0  0  0  0  0  0  0  0  0  0  0  0
   47.5740   30.5170   45.9320 C   0  0  0  0  0  0  0  0  0  0  0  0
   46.8210   30.9880   46.5240 H   0  0  0  0  0  0  0  0  0  0  0  0
   48.3070   29.4450   46.3970 C   0  0  0  0  0  0  0  0  0  0  0  0
   48.0430   29.1280   47.4180 H   0  0  0  0  0  0  0  0  0  0  0  0
   49.2910   28.7860   45.6930 C   0  0  0  0  0  0  0  0  0  0  0  0
   49.5050   29.2940   44.4370 C   0  0  0  0  0  0  0  0  0  0  0  0
   48.8060   30.3550   43.9310 C   0  0  0  0  0  0  0  0  0  0  0  0
   49.0210   30.7170   42.9220 H   0  0  0  0  0  0  0  0  0  0  0  0
   50.7550   28.5280   43.4270 S   0  0  0  0  0  0  0  0  0  0  0  0
   51.4520   27.2020   44.3870 C   0  0  0  0  0  0  0  0  0  0  0  0
   52.4480   26.4180   43.8760 C   0  0  0  0  0  0  0  0  0  0  0  0
   52.8090   26.6270   42.8570 H   0  0  0  0  0  0  0  0  0  0  0  0
   53.0340   25.3740   44.5610 C   0  0  0  0  0  0  0  0  0  0  0  0
   53.8030   24.8170   44.0840 H   0  0  0  0  0  0  0  0  0  0  0  0
   52.5500   25.1510   45.8330 C   0  0  0  0  0  0  0  0  0  0  0  0
   52.9740   24.3500   46.4060 H   0  0  0  0  0  0  0  0  0  0  0  0
   51.5440   25.9520   46.3330 C   0  0  0  0  0  0  0  0  0  0  0  0
   51.2270   25.6950   47.3540 H   0  0  0  0  0  0  0  0  0  0  0  0
   50.9580   26.9960   45.6480 C   0  0  0  0  0  0  0  0  0  0  0  0
   49.9430   27.7020   46.3270 N   0  0  0  0  0  0  0  0  0  0  0  0
   49.6650   27.4420   47.2780 H   0  0  0  0  0  0  0  0  0  0  0  0
   47.0730   34.1720   43.0200 C   0  0  0  0  0  0  0  0  0  0  0  0
   45.6840   34.2060   43.0660 C   0  0  0  0  0  0  0  0  0  0  0  0
   45.0180   33.1260   43.6630 C   0  0  0  0  0  0  0  0  0  0  0  0
   45.7570   32.1080   44.1660 N   0  0  0  0  0  0  0  0  0  0  0  0
   47.1000   32.1150   44.1010 C   0  0  0  0  0  0  0  0  0  0  0  0
   47.7660   33.1360   43.5340 N   0  0  0  0  0  0  0  0  0  0  0  0
   43.9330   33.1400   43.7050 H   0  0  0  0  0  0  0  0  0  0  0  0
   44.9630   35.3670   42.4880 C   0  0  0  0  0  0  0  0  0  0  0  0
   45.5520   36.5500   42.9170 F   0  0  0  0  0  0  0  0  0  0  0  0
   45.1230   35.3380   41.1140 F   0  0  0  0  0  0  0  0  0  0  0  0
   43.6490   35.4390   42.8000 F   0  0  0  0  0  0  0  0  0  0  0  0
   47.7040   35.2140   42.4450 O   0  0  0  0  0  0  0  0  0  0  0  0
   48.9520   35.2150   41.7860 C   0  0  0  0  0  0  0  0  0  0  0  0
   49.9330   35.2290   42.7790 F   0  0  0  0  0  0  0  0  0  0  0  0
   49.0480   34.1180   40.9760 F   0  0  0  0  0  0  0  0  0  0  0  0
   49.1250   36.3920   41.0980 F   0  0  0  0  0  0  0  0  0  0  0  0
  1  2  1  0  0  0  0
  2  4  2  0  0  0  0
  2  3  1  0  0  0  0
  4  5  1  0  0  0  0
  6 21  1  0  0  0  0
  6  4  1  0  0  0  0
  7  6  2  0  0  0  0
  8  7  1  0  0  0  0
  8  1  2  0  0  0  0
  9  8  1  0  0  0  0
 10 11  1  0  0  0  0
 10  7  1  0  0  0  0
 11 20  1  0  0  0  0
 12 11  2  0  0  0  0
 12 14  1  0  0  0  0
 13 12  1  0  0  0  0
 14 16  2  0  0  0  0
 15 14  1  0  0  0  0
 16 18  1  0  0  0  0
 16 17  1  0  0  0  0
 18 19  1  0  0  0  0
 20 21  1  0  0  0  0
 20 18  2  0  0  0  0
 21 22  1  0  0  0  0
 23 24  2  0  0  0  0
 23 28  1  0  0  0  0
 24 25  1  0  0  0  0
 25 29  1  0  0  0  0
 25 26  2  0  0  0  0
 27 26  1  0  0  0  0
 27  1  1  0  0  0  0
 28 27  2  0  0  0  0
 30 33  1  0  0  0  0
 30 31  1  0  0  0  0
 30 24  1  0  0  0  0
 32 30  1  0  0  0  0
 34 23  1  0  0  0  0
 35 34  1  0  0  0  0
 35 36  1  0  0  0  0
 37 35  1  0  0  0  0
 38 35  1  0  0  0  0
M  END
>  <minimizedAffinity>
-5.12034416

>  <minimizedRMSD>
1.62646496

$$$$
