
 OpenBabel03242514343D

 39 42  0  0  0  0  0  0  0  0999 V2000
   39.0600   33.6480   40.1510 C   0  0  0  0  0  0  0  0  0  0  0  0
   37.7900   33.5000   39.7280 C   0  0  0  0  0  0  0  0  0  0  0  0
   37.2770   34.2270   39.1200 H   0  0  0  0  0  0  0  0  0  0  0  0
   37.1470   32.3220   40.1280 C   0  0  0  0  0  0  0  0  0  0  0  0
   36.1170   32.2340   39.7680 H   0  0  0  0  0  0  0  0  0  0  0  0
   37.7110   31.3420   40.8990 C   0  0  0  0  0  0  0  0  0  0  0  0
   39.0070   31.5310   41.3090 C   0  0  0  0  0  0  0  0  0  0  0  0
   39.6490   32.6520   40.9400 C   0  0  0  0  0  0  0  0  0  0  0  0
   40.6880   32.7880   41.2770 H   0  0  0  0  0  0  0  0  0  0  0  0
   39.7800   30.2780   42.3140 S   0  0  0  0  0  0  0  0  0  0  0  0
   38.5640   29.0100   42.5370 C   0  0  0  0  0  0  0  0  0  0  0  0
   38.9600   27.9510   43.2840 C   0  0  0  0  0  0  0  0  0  0  0  0
   39.9400   27.8480   43.7320 H   0  0  0  0  0  0  0  0  0  0  0  0
   38.0720   26.8980   43.5180 C   0  0  0  0  0  0  0  0  0  0  0  0
   38.3420   26.0320   44.1070 H   0  0  0  0  0  0  0  0  0  0  0  0
   36.8140   26.9680   42.9780 C   0  0  0  0  0  0  0  0  0  0  0  0
   36.1210   26.1630   43.1510 H   0  0  0  0  0  0  0  0  0  0  0  0
   36.4980   28.0780   42.2340 C   0  0  0  0  0  0  0  0  0  0  0  0
   35.4730   28.0640   41.8350 H   0  0  0  0  0  0  0  0  0  0  0  0
   37.3310   29.1480   41.9690 C   0  0  0  0  0  0  0  0  0  0  0  0
   36.8970   30.2230   41.1980 N   0  0  0  0  0  0  0  0  0  0  0  0
   35.9200   30.1650   40.8420 H   0  0  0  0  0  0  0  0  0  0  0  0
   39.8860   34.8420   39.8110 C   0  0  0  0  0  0  0  0  0  0  0  0
   39.1820   35.8970   40.0740 O   0  0  0  0  0  0  0  0  0  0  0  0
   41.0990   35.1700   39.3230 O   0  0  0  0  0  0  0  0  0  0  0  0
   42.8920   33.3190   39.3860 O   0  0  0  0  0  0  0  0  0  0  0  0
   42.1320   34.1990   38.4430 P   0  0  2  0  0  0  0  0  0  0  0  0
   43.2460   35.1650   37.6400 O   0  0  0  0  0  0  0  0  0  0  0  0
   43.9780   35.4420   38.2200 H   0  0  0  0  0  0  0  0  0  0  0  0
   41.2440   33.2450   37.3340 O   0  0  0  0  0  0  0  0  0  0  0  0
   40.4770   31.0390   37.8170 C   0  0  0  0  0  0  0  0  0  0  0  0
   41.4360   31.8670   37.2590 C   0  0  0  0  0  0  0  0  0  0  0  0
   42.5510   31.2830   36.6460 C   0  0  0  0  0  0  0  0  0  0  0  0
   42.6350   29.9210   36.6320 N   0  0  0  0  0  0  0  0  0  0  0  0
   41.6900   29.1540   37.1800 C   0  0  0  0  0  0  0  0  0  0  0  0
   40.6290   29.7100   37.7630 N   0  0  0  0  0  0  0  0  0  0  0  0
   39.5880   31.4380   38.3070 H   0  0  0  0  0  0  0  0  0  0  0  0
   43.2450   31.9760   36.2390 H   0  0  0  0  0  0  0  0  0  0  0  0
   41.8890   28.0900   37.0940 H   0  0  0  0  0  0  0  0  0  0  0  0
  1  8  1  0  0  0  0
  2  4  1  0  0  0  0
  2  1  2  0  0  0  0
  3  2  1  0  0  0  0
  4  6  2  0  0  0  0
  5  4  1  0  0  0  0
  6 21  1  0  0  0  0
  6  7  1  0  0  0  0
  7 10  1  0  0  0  0
  8  9  1  0  0  0  0
  8  7  2  0  0  0  0
 10 11  1  0  0  0  0
 11 12  1  0  0  0  0
 12 14  2  0  0  0  0
 12 13  1  0  0  0  0
 14 15  1  0  0  0  0
 16 17  1  0  0  0  0
 16 14  1  0  0  0  0
 18 16  2  0  0  0  0
 19 18  1  0  0  0  0
 20 18  1  0  0  0  0
 20 11  2  0  0  0  0
 21 20  1  0  0  0  0
 22 21  1  0  0  0  0
 23 24  2  0  0  0  0
 23  1  1  0  0  0  0
 25 23  1  0  0  0  0
 27 25  1  0  0  0  0
 27 26  2  1  0  0  0
 28 29  1  0  0  0  0
 28 27  1  0  0  0  0
 30 27  1  0  0  0  0
 31 37  1  0  0  0  0
 32 30  1  0  0  0  0
 32 31  2  0  0  0  0
 33 32  1  0  0  0  0
 34 33  2  0  0  0  0
 34 35  1  0  0  0  0
 35 36  2  0  0  0  0
 36 31  1  0  0  0  0
 38 33  1  0  0  0  0
 39 35  1  0  0  0  0
M  END
>  <minimizedAffinity>
-6.91819382

$$$$

 OpenBabel03242514343D

 39 42  0  0  0  0  0  0  0  0999 V2000
   38.3210   32.8070   39.2480 C   0  0  0  0  0  0  0  0  0  0  0  0
   37.8620   33.9290   39.8360 C   0  0  0  0  0  0  0  0  0  0  0  0
   36.8300   34.2390   39.8000 H   0  0  0  0  0  0  0  0  0  0  0  0
   38.8160   34.6960   40.5150 C   0  0  0  0  0  0  0  0  0  0  0  0
   38.4110   35.6000   40.9800 H   0  0  0  0  0  0  0  0  0  0  0  0
   40.1450   34.3870   40.6150 C   0  0  0  0  0  0  0  0  0  0  0  0
   40.5730   33.2360   40.0030 C   0  0  0  0  0  0  0  0  0  0  0  0
   39.6790   32.4790   39.3430 C   0  0  0  0  0  0  0  0  0  0  0  0
   40.0370   31.5590   38.8580 H   0  0  0  0  0  0  0  0  0  0  0  0
   42.2970   32.7950   40.1090 S   0  0  0  0  0  0  0  0  0  0  0  0
   43.0690   34.0740   41.0610 C   0  0  0  0  0  0  0  0  0  0  0  0
   44.4020   33.9230   41.2600 C   0  0  0  0  0  0  0  0  0  0  0  0
   44.9900   33.0970   40.8820 H   0  0  0  0  0  0  0  0  0  0  0  0
   45.1030   34.8790   42.0000 C   0  0  0  0  0  0  0  0  0  0  0  0
   46.1660   34.8030   42.1850 H   0  0  0  0  0  0  0  0  0  0  0  0
   44.4160   35.9510   42.5070 C   0  0  0  0  0  0  0  0  0  0  0  0
   44.9450   36.6940   43.0780 H   0  0  0  0  0  0  0  0  0  0  0  0
   43.0680   36.0230   42.2570 C   0  0  0  0  0  0  0  0  0  0  0  0
   42.5850   36.9090   42.6940 H   0  0  0  0  0  0  0  0  0  0  0  0
   42.3220   35.1120   41.5350 C   0  0  0  0  0  0  0  0  0  0  0  0
   40.9540   35.2910   41.3460 N   0  0  0  0  0  0  0  0  0  0  0  0
   40.5410   36.1440   41.7790 H   0  0  0  0  0  0  0  0  0  0  0  0
   37.4350   31.8780   38.4880 C   0  0  0  0  0  0  0  0  0  0  0  0
   37.8700   31.8280   37.2690 O   0  0  0  0  0  0  0  0  0  0  0  0
   36.3500   31.0970   38.6550 O   0  0  0  0  0  0  0  0  0  0  0  0
   34.8700   29.1800   39.5400 O   0  0  0  0  0  0  0  0  0  0  0  0
   36.0680   30.0070   39.8880 P   0  0  2  0  0  0  0  0  0  0  0  0
   35.7130   30.8490   41.2960 O   0  0  0  0  0  0  0  0  0  0  0  0
   34.7850   31.1430   41.3250 H   0  0  0  0  0  0  0  0  0  0  0  0
   37.4340   29.0010   40.1100 O   0  0  0  0  0  0  0  0  0  0  0  0
   38.8320   28.8530   42.0370 C   0  0  0  0  0  0  0  0  0  0  0  0
   37.7090   28.4260   41.3490 C   0  0  0  0  0  0  0  0  0  0  0  0
   36.9020   27.4390   41.9290 C   0  0  0  0  0  0  0  0  0  0  0  0
   37.2690   26.9470   43.1480 N   0  0  0  0  0  0  0  0  0  0  0  0
   38.3590   27.3820   43.7820 C   0  0  0  0  0  0  0  0  0  0  0  0
   39.1260   28.3220   43.2300 N   0  0  0  0  0  0  0  0  0  0  0  0
   39.4960   29.6180   41.6340 H   0  0  0  0  0  0  0  0  0  0  0  0
   36.0590   27.1600   41.3470 H   0  0  0  0  0  0  0  0  0  0  0  0
   38.5260   26.9020   44.7410 H   0  0  0  0  0  0  0  0  0  0  0  0
  1  8  2  0  0  0  0
  1  2  1  0  0  0  0
  2  4  2  0  0  0  0
  3  2  1  0  0  0  0
  4  6  1  0  0  0  0
  4  5  1  0  0  0  0
  6 21  1  0  0  0  0
  7 10  1  0  0  0  0
  7  6  2  0  0  0  0
  8  7  1  0  0  0  0
  9  8  1  0  0  0  0
 10 11  1  0  0  0  0
 11 12  2  0  0  0  0
 11 20  1  0  0  0  0
 12 14  1  0  0  0  0
 13 12  1  0  0  0  0
 14 15  1  0  0  0  0
 14 16  2  0  0  0  0
 16 17  1  0  0  0  0
 18 16  1  0  0  0  0
 18 19  1  0  0  0  0
 20 18  2  0  0  0  0
 21 20  1  0  0  0  0
 21 22  1  0  0  0  0
 23 25  1  0  0  0  0
 23  1  1  0  0  0  0
 24 23  2  0  0  0  0
 25 27  1  0  0  0  0
 27 26  2  6  0  0  0
 27 30  1  0  0  0  0
 27 28  1  0  0  0  0
 28 29  1  0  0  0  0
 30 32  1  0  0  0  0
 31 36  1  0  0  0  0
 32 33  1  0  0  0  0
 32 31  2  0  0  0  0
 33 34  2  0  0  0  0
 34 35  1  0  0  0  0
 35 39  1  0  0  0  0
 36 35  2  0  0  0  0
 37 31  1  0  0  0  0
 38 33  1  0  0  0  0
M  END
>  <minimizedAffinity>
-6.73269939

$$$$

 OpenBabel03242514343D

 39 42  0  0  0  0  0  0  0  0999 V2000
   37.3850   28.8470   41.2770 C   0  0  0  0  0  0  0  0  0  0  0  0
   36.2330   29.5190   41.0980 C   0  0  0  0  0  0  0  0  0  0  0  0
   35.2600   29.0540   41.1410 H   0  0  0  0  0  0  0  0  0  0  0  0
   36.3580   30.8910   40.8460 C   0  0  0  0  0  0  0  0  0  0  0  0
   35.4030   31.4060   40.7040 H   0  0  0  0  0  0  0  0  0  0  0  0
   37.5440   31.5700   40.7720 C   0  0  0  0  0  0  0  0  0  0  0  0
   38.6960   30.8480   40.9610 C   0  0  0  0  0  0  0  0  0  0  0  0
   38.6060   29.5300   41.2050 C   0  0  0  0  0  0  0  0  0  0  0  0
   39.5390   28.9660   41.3540 H   0  0  0  0  0  0  0  0  0  0  0  0
   40.2630   31.6940   40.8730 S   0  0  0  0  0  0  0  0  0  0  0  0
   39.8840   33.3910   40.5360 C   0  0  0  0  0  0  0  0  0  0  0  0
   40.9550   34.2150   40.4300 C   0  0  0  0  0  0  0  0  0  0  0  0
   41.9850   33.8990   40.5370 H   0  0  0  0  0  0  0  0  0  0  0  0
   40.7610   35.5730   40.1660 C   0  0  0  0  0  0  0  0  0  0  0  0
   41.5830   36.2690   40.0720 H   0  0  0  0  0  0  0  0  0  0  0  0
   39.4790   36.0360   40.0200 C   0  0  0  0  0  0  0  0  0  0  0  0
   39.3160   37.0800   39.8160 H   0  0  0  0  0  0  0  0  0  0  0  0
   38.4540   35.1310   40.1430 C   0  0  0  0  0  0  0  0  0  0  0  0
   37.4550   35.5760   40.0130 H   0  0  0  0  0  0  0  0  0  0  0  0
   38.5830   33.7810   40.4030 C   0  0  0  0  0  0  0  0  0  0  0  0
   37.4650   32.9580   40.5070 N   0  0  0  0  0  0  0  0  0  0  0  0
   36.5410   33.4230   40.3770 H   0  0  0  0  0  0  0  0  0  0  0  0
   37.4270   27.3830   41.5590 C   0  0  0  0  0  0  0  0  0  0  0  0
   36.6920   27.1610   42.6030 O   0  0  0  0  0  0  0  0  0  0  0  0
   37.9730   26.2430   41.0920 O   0  0  0  0  0  0  0  0  0  0  0  0
   38.3220   23.7050   40.8000 O   0  0  0  0  0  0  0  0  0  0  0  0
   37.9490   24.7390   41.8160 P   0  0  2  0  0  0  0  0  0  0  0  0
   36.3880   24.4020   42.3350 O   0  0  0  0  0  0  0  0  0  0  0  0
   35.8230   24.0780   41.6120 H   0  0  0  0  0  0  0  0  0  0  0  0
   39.0470   24.6980   43.1280 O   0  0  0  0  0  0  0  0  0  0  0  0
   40.2270   26.6210   43.9020 C   0  0  0  0  0  0  0  0  0  0  0  0
   40.2020   25.4780   43.1210 C   0  0  0  0  0  0  0  0  0  0  0  0
   41.3350   25.1590   42.3630 C   0  0  0  0  0  0  0  0  0  0  0  0
   42.4100   25.9970   42.4330 N   0  0  0  0  0  0  0  0  0  0  0  0
   42.3990   27.0910   43.1970 C   0  0  0  0  0  0  0  0  0  0  0  0
   41.3210   27.3940   43.9190 N   0  0  0  0  0  0  0  0  0  0  0  0
   39.3750   26.9190   44.5120 H   0  0  0  0  0  0  0  0  0  0  0  0
   41.2460   24.2700   41.7890 H   0  0  0  0  0  0  0  0  0  0  0  0
   43.3220   27.6610   43.1540 H   0  0  0  0  0  0  0  0  0  0  0  0
  1 23  1  0  0  0  0
  2  3  1  0  0  0  0
  2  1  2  0  0  0  0
  4  2  1  0  0  0  0
  5  4  1  0  0  0  0
  6  4  2  0  0  0  0
  6  7  1  0  0  0  0
  7  8  2  0  0  0  0
  8  1  1  0  0  0  0
  8  9  1  0  0  0  0
 10  7  1  0  0  0  0
 11 10  1  0  0  0  0
 12 11  1  0  0  0  0
 12 13  1  0  0  0  0
 14 12  2  0  0  0  0
 15 14  1  0  0  0  0
 16 18  2  0  0  0  0
 16 14  1  0  0  0  0
 17 16  1  0  0  0  0
 18 20  1  0  0  0  0
 19 18  1  0  0  0  0
 20 21  1  0  0  0  0
 20 11  2  0  0  0  0
 21  6  1  0  0  0  0
 22 21  1  0  0  0  0
 23 24  2  0  0  0  0
 25 23  1  0  0  0  0
 25 27  1  0  0  0  0
 27 26  2  6  0  0  0
 27 28  1  0  0  0  0
 27 30  1  0  0  0  0
 29 28  1  0  0  0  0
 31 36  1  0  0  0  0
 31 37  1  0  0  0  0
 32 30  1  0  0  0  0
 32 31  2  0  0  0  0
 33 34  2  0  0  0  0
 33 32  1  0  0  0  0
 34 35  1  0  0  0  0
 35 36  2  0  0  0  0
 38 33  1  0  0  0  0
 39 35  1  0  0  0  0
M  END
>  <minimizedAffinity>
-6.52388382

$$$$

 OpenBabel03242514343D

 39 42  0  0  0  0  0  0  0  0999 V2000
   36.6660   28.6700   39.7920 C   0  0  0  0  0  0  0  0  0  0  0  0
   35.7350   29.4130   40.4190 C   0  0  0  0  0  0  0  0  0  0  0  0
   34.7890   29.0210   40.7560 H   0  0  0  0  0  0  0  0  0  0  0  0
   36.0610   30.7600   40.6190 C   0  0  0  0  0  0  0  0  0  0  0  0
   35.2830   31.3350   41.1300 H   0  0  0  0  0  0  0  0  0  0  0  0
   37.2320   31.3500   40.2280 C   0  0  0  0  0  0  0  0  0  0  0  0
   38.1550   30.5580   39.5920 C   0  0  0  0  0  0  0  0  0  0  0  0
   37.8690   29.2620   39.3870 C   0  0  0  0  0  0  0  0  0  0  0  0
   38.6200   28.6400   38.8760 H   0  0  0  0  0  0  0  0  0  0  0  0
   39.6950   31.2880   39.0660 S   0  0  0  0  0  0  0  0  0  0  0  0
   39.6180   32.9910   39.5460 C   0  0  0  0  0  0  0  0  0  0  0  0
   40.7090   33.7310   39.2320 C   0  0  0  0  0  0  0  0  0  0  0  0
   41.5850   33.3490   38.7250 H   0  0  0  0  0  0  0  0  0  0  0  0
   40.7450   35.0870   39.5690 C   0  0  0  0  0  0  0  0  0  0  0  0
   41.5930   35.7180   39.3400 H   0  0  0  0  0  0  0  0  0  0  0  0
   39.6660   35.6320   40.2130 C   0  0  0  0  0  0  0  0  0  0  0  0
   39.6820   36.6760   40.4780 H   0  0  0  0  0  0  0  0  0  0  0  0
   38.6040   34.8080   40.4920 C   0  0  0  0  0  0  0  0  0  0  0  0
   37.7750   35.3160   41.0090 H   0  0  0  0  0  0  0  0  0  0  0  0
   38.5100   33.4650   40.1860 C   0  0  0  0  0  0  0  0  0  0  0  0
   37.3770   32.7280   40.5200 N   0  0  0  0  0  0  0  0  0  0  0  0
   36.6190   33.2510   41.0080 H   0  0  0  0  0  0  0  0  0  0  0  0
   36.4770   27.2190   39.5050 C   0  0  0  0  0  0  0  0  0  0  0  0
   36.3250   27.0860   38.2250 O   0  0  0  0  0  0  0  0  0  0  0  0
   36.4080   26.0280   40.1330 O   0  0  0  0  0  0  0  0  0  0  0  0
   38.8020   25.2110   39.6340 O   0  0  0  0  0  0  0  0  0  0  0  0
   37.6820   25.0640   40.6160 P   0  0  2  0  0  0  0  0  0  0  0  0
   37.1950   23.4580   40.5970 O   0  0  0  0  0  0  0  0  0  0  0  0
   37.2270   23.0750   39.7030 H   0  0  0  0  0  0  0  0  0  0  0  0
   38.2070   25.5220   42.1800 O   0  0  0  0  0  0  0  0  0  0  0  0
   39.4610   27.5510   42.1770 C   0  0  0  0  0  0  0  0  0  0  0  0
   38.3130   26.8640   42.5370 C   0  0  0  0  0  0  0  0  0  0  0  0
   37.3150   27.5490   43.2410 C   0  0  0  0  0  0  0  0  0  0  0  0
   37.5280   28.8630   43.5390 N   0  0  0  0  0  0  0  0  0  0  0  0
   38.6470   29.4930   43.1750 C   0  0  0  0  0  0  0  0  0  0  0  0
   39.5960   28.8420   42.5050 N   0  0  0  0  0  0  0  0  0  0  0  0
   40.2700   27.0690   41.6280 H   0  0  0  0  0  0  0  0  0  0  0  0
   36.4640   26.9610   43.4840 H   0  0  0  0  0  0  0  0  0  0  0  0
   38.6770   30.5350   43.4780 H   0  0  0  0  0  0  0  0  0  0  0  0
  1  2  1  0  0  0  0
  2  4  2  0  0  0  0
  2  3  1  0  0  0  0
  4  5  1  0  0  0  0
  6 21  1  0  0  0  0
  6  4  1  0  0  0  0
  7  6  2  0  0  0  0
  8  7  1  0  0  0  0
  8  1  2  0  0  0  0
  9  8  1  0  0  0  0
 10 11  1  0  0  0  0
 10  7  1  0  0  0  0
 11 20  1  0  0  0  0
 12 11  2  0  0  0  0
 12 14  1  0  0  0  0
 13 12  1  0  0  0  0
 14 16  2  0  0  0  0
 15 14  1  0  0  0  0
 16 17  1  0  0  0  0
 16 18  1  0  0  0  0
 18 19  1  0  0  0  0
 20 18  2  0  0  0  0
 20 21  1  0  0  0  0
 21 22  1  0  0  0  0
 23  1  1  0  0  0  0
 23 25  1  0  0  0  0
 24 23  2  0  0  0  0
 25 27  1  0  0  0  0
 27 26  2  6  0  0  0
 27 30  1  0  0  0  0
 28 27  1  0  0  0  0
 29 28  1  0  0  0  0
 30 32  1  0  0  0  0
 31 36  2  0  0  0  0
 31 32  1  0  0  0  0
 32 33  2  0  0  0  0
 33 38  1  0  0  0  0
 33 34  1  0  0  0  0
 35 39  1  0  0  0  0
 35 34  2  0  0  0  0
 36 35  1  0  0  0  0
 37 31  1  0  0  0  0
M  END
>  <minimizedAffinity>
-6.33393764

$$$$

 OpenBabel03242514343D

 39 42  0  0  0  0  0  0  0  0999 V2000
   37.5920   31.1300   38.9260 C   0  0  0  0  0  0  0  0  0  0  0  0
   37.0070   30.6540   37.8110 C   0  0  0  0  0  0  0  0  0  0  0  0
   36.8010   31.2600   36.9430 H   0  0  0  0  0  0  0  0  0  0  0  0
   36.6670   29.2960   37.8310 C   0  0  0  0  0  0  0  0  0  0  0  0
   36.1920   28.9430   36.9100 H   0  0  0  0  0  0  0  0  0  0  0  0
   36.8850   28.4480   38.8810 C   0  0  0  0  0  0  0  0  0  0  0  0
   37.4850   28.9710   40.0000 C   0  0  0  0  0  0  0  0  0  0  0  0
   37.8220   30.2720   40.0090 C   0  0  0  0  0  0  0  0  0  0  0  0
   38.3030   30.6760   40.9130 H   0  0  0  0  0  0  0  0  0  0  0  0
   37.7890   27.9000   41.3920 S   0  0  0  0  0  0  0  0  0  0  0  0
   37.1840   26.3030   40.9210 C   0  0  0  0  0  0  0  0  0  0  0  0
   37.3230   25.3320   41.8560 C   0  0  0  0  0  0  0  0  0  0  0  0
   37.7670   25.4780   42.8330 H   0  0  0  0  0  0  0  0  0  0  0  0
   36.8760   24.0370   41.5800 C   0  0  0  0  0  0  0  0  0  0  0  0
   36.9650   23.2290   42.2940 H   0  0  0  0  0  0  0  0  0  0  0  0
   36.3040   23.7860   40.3610 C   0  0  0  0  0  0  0  0  0  0  0  0
   35.9560   22.7920   40.1360 H   0  0  0  0  0  0  0  0  0  0  0  0
   36.2040   24.8290   39.4740 C   0  0  0  0  0  0  0  0  0  0  0  0
   35.7340   24.5520   38.5180 H   0  0  0  0  0  0  0  0  0  0  0  0
   36.6260   26.1260   39.6890 C   0  0  0  0  0  0  0  0  0  0  0  0
   36.4700   27.1050   38.7110 N   0  0  0  0  0  0  0  0  0  0  0  0
   36.0210   26.7960   37.8230 H   0  0  0  0  0  0  0  0  0  0  0  0
   38.0190   32.5520   39.0660 C   0  0  0  0  0  0  0  0  0  0  0  0
   36.9490   33.2780   39.1510 O   0  0  0  0  0  0  0  0  0  0  0  0
   39.1320   33.3090   39.1250 O   0  0  0  0  0  0  0  0  0  0  0  0
   40.4950   32.6480   41.2120 O   0  0  0  0  0  0  0  0  0  0  0  0
   39.9280   33.8330   40.4960 P   0  0  2  0  0  0  0  0  0  0  0  0
   38.8240   34.5690   41.5250 O   0  0  0  0  0  0  0  0  0  0  0  0
   38.3210   33.9200   42.0490 H   0  0  0  0  0  0  0  0  0  0  0  0
   41.1800   34.9200   40.0710 O   0  0  0  0  0  0  0  0  0  0  0  0
   43.4390   34.1610   40.1780 C   0  0  0  0  0  0  0  0  0  0  0  0
   42.3260   34.4730   39.4160 C   0  0  0  0  0  0  0  0  0  0  0  0
   42.4030   34.3250   38.0260 C   0  0  0  0  0  0  0  0  0  0  0  0
   43.5770   33.8810   37.4930 N   0  0  0  0  0  0  0  0  0  0  0  0
   44.6310   33.5890   38.2590 C   0  0  0  0  0  0  0  0  0  0  0  0
   44.5570   33.7290   39.5820 N   0  0  0  0  0  0  0  0  0  0  0  0
   43.4370   34.2560   41.2650 H   0  0  0  0  0  0  0  0  0  0  0  0
   41.5140   34.5830   37.5050 H   0  0  0  0  0  0  0  0  0  0  0  0
   45.4950   33.2460   37.6980 H   0  0  0  0  0  0  0  0  0  0  0  0
  1 23  1  0  0  0  0
  1  8  1  0  0  0  0
  2  4  1  0  0  0  0
  2  1  2  0  0  0  0
  3  2  1  0  0  0  0
  4  6  2  0  0  0  0
  5  4  1  0  0  0  0
  6  7  1  0  0  0  0
  7  8  2  0  0  0  0
  7 10  1  0  0  0  0
  8  9  1  0  0  0  0
 11 10  1  0  0  0  0
 11 12  1  0  0  0  0
 12 13  1  0  0  0  0
 14 12  2  0  0  0  0
 14 15  1  0  0  0  0
 16 14  1  0  0  0  0
 17 16  1  0  0  0  0
 18 20  1  0  0  0  0
 18 16  2  0  0  0  0
 19 18  1  0  0  0  0
 20 11  2  0  0  0  0
 21  6  1  0  0  0  0
 21 20  1  0  0  0  0
 22 21  1  0  0  0  0
 23 25  1  0  0  0  0
 23 24  2  0  0  0  0
 25 27  1  0  0  0  0
 27 26  2  1  0  0  0
 27 28  1  0  0  0  0
 28 29  1  0  0  0  0
 30 27  1  0  0  0  0
 31 37  1  0  0  0  0
 32 30  1  0  0  0  0
 32 31  2  0  0  0  0
 33 32  1  0  0  0  0
 34 33  2  0  0  0  0
 34 35  1  0  0  0  0
 35 36  2  0  0  0  0
 36 31  1  0  0  0  0
 38 33  1  0  0  0  0
 39 35  1  0  0  0  0
M  END
>  <minimizedAffinity>
-6.01307583

$$$$

 OpenBabel03242514343D

 39 42  0  0  0  0  0  0  0  0999 V2000
   40.2280   33.3380   40.4200 C   0  0  0  0  0  0  0  0  0  0  0  0
   38.9420   33.4790   40.0450 C   0  0  0  0  0  0  0  0  0  0  0  0
   38.5730   34.3340   39.5000 H   0  0  0  0  0  0  0  0  0  0  0  0
   38.0820   32.4360   40.4060 C   0  0  0  0  0  0  0  0  0  0  0  0
   37.0450   32.5830   40.0870 H   0  0  0  0  0  0  0  0  0  0  0  0
   38.4540   31.3150   41.0960 C   0  0  0  0  0  0  0  0  0  0  0  0
   39.7730   31.2070   41.4600 C   0  0  0  0  0  0  0  0  0  0  0  0
   40.6220   32.1940   41.1270 C   0  0  0  0  0  0  0  0  0  0  0  0
   41.6770   32.0930   41.4250 H   0  0  0  0  0  0  0  0  0  0  0  0
   40.3020   29.7620   42.3600 S   0  0  0  0  0  0  0  0  0  0  0  0
   38.8560   28.7580   42.5630 C   0  0  0  0  0  0  0  0  0  0  0  0
   39.0480   27.5950   43.2330 C   0  0  0  0  0  0  0  0  0  0  0  0
   39.9990   27.2660   43.6310 H   0  0  0  0  0  0  0  0  0  0  0  0
   37.9690   26.7330   43.4450 C   0  0  0  0  0  0  0  0  0  0  0  0
   38.0720   25.7950   43.9740 H   0  0  0  0  0  0  0  0  0  0  0  0
   36.7370   27.0940   42.9660 C   0  0  0  0  0  0  0  0  0  0  0  0
   35.8970   26.4380   43.1230 H   0  0  0  0  0  0  0  0  0  0  0  0
   36.6340   28.2900   42.2990 C   0  0  0  0  0  0  0  0  0  0  0  0
   35.6160   28.5110   41.9440 H   0  0  0  0  0  0  0  0  0  0  0  0
   37.6610   29.1810   42.0580 C   0  0  0  0  0  0  0  0  0  0  0  0
   37.4370   30.3690   41.3680 N   0  0  0  0  0  0  0  0  0  0  0  0
   36.4580   30.5350   41.0510 H   0  0  0  0  0  0  0  0  0  0  0  0
   41.2720   34.3560   40.1110 C   0  0  0  0  0  0  0  0  0  0  0  0
   40.7250   35.2700   39.3730 O   0  0  0  0  0  0  0  0  0  0  0  0
   42.5730   34.6240   40.3420 O   0  0  0  0  0  0  0  0  0  0  0  0
   43.9840   34.2990   38.2080 O   0  0  0  0  0  0  0  0  0  0  0  0
   43.8970   33.8850   39.6440 P   0  0  2  0  0  0  0  0  0  0  0  0
   43.6810   32.2200   39.6800 O   0  0  0  0  0  0  0  0  0  0  0  0
   43.1090   31.9080   38.9570 H   0  0  0  0  0  0  0  0  0  0  0  0
   45.3260   34.3300   40.4740 O   0  0  0  0  0  0  0  0  0  0  0  0
   45.2240   33.5290   42.7170 C   0  0  0  0  0  0  0  0  0  0  0  0
   45.3080   34.5970   41.8410 C   0  0  0  0  0  0  0  0  0  0  0  0
   45.3720   35.8930   42.3680 C   0  0  0  0  0  0  0  0  0  0  0  0
   45.3460   36.0350   43.7240 N   0  0  0  0  0  0  0  0  0  0  0  0
   45.2640   34.9810   44.5400 C   0  0  0  0  0  0  0  0  0  0  0  0
   45.2040   33.7480   44.0380 N   0  0  0  0  0  0  0  0  0  0  0  0
   45.1710   32.4980   42.3640 H   0  0  0  0  0  0  0  0  0  0  0  0
   45.4360   36.6630   41.6390 H   0  0  0  0  0  0  0  0  0  0  0  0
   45.2540   35.2450   45.5930 H   0  0  0  0  0  0  0  0  0  0  0  0
  1  8  1  0  0  0  0
  2  4  1  0  0  0  0
  2  1  2  0  0  0  0
  3  2  1  0  0  0  0
  4  6  2  0  0  0  0
  5  4  1  0  0  0  0
  6 21  1  0  0  0  0
  6  7  1  0  0  0  0
  7 10  1  0  0  0  0
  8  9  1  0  0  0  0
  8  7  2  0  0  0  0
 10 11  1  0  0  0  0
 11 12  1  0  0  0  0
 12 14  2  0  0  0  0
 12 13  1  0  0  0  0
 14 15  1  0  0  0  0
 16 17  1  0  0  0  0
 16 14  1  0  0  0  0
 18 16  2  0  0  0  0
 19 18  1  0  0  0  0
 20 18  1  0  0  0  0
 20 11  2  0  0  0  0
 21 20  1  0  0  0  0
 22 21  1  0  0  0  0
 23 25  1  0  0  0  0
 23  1  1  0  0  0  0
 24 23  2  0  0  0  0
 27 26  2  6  0  0  0
 27 28  1  0  0  0  0
 27 25  1  0  0  0  0
 27 30  1  0  0  0  0
 29 28  1  0  0  0  0
 30 32  1  0  0  0  0
 31 36  1  0  0  0  0
 32 33  1  0  0  0  0
 32 31  2  0  0  0  0
 33 34  2  0  0  0  0
 34 35  1  0  0  0  0
 35 39  1  0  0  0  0
 36 35  2  0  0  0  0
 37 31  1  0  0  0  0
 38 33  1  0  0  0  0
M  END
>  <minimizedAffinity>
-6.0122962

$$$$

 OpenBabel03242514343D

 39 42  0  0  0  0  0  0  0  0999 V2000
   36.9700   28.8220   41.0930 C   0  0  0  0  0  0  0  0  0  0  0  0
   35.8730   29.5840   40.9250 C   0  0  0  0  0  0  0  0  0  0  0  0
   34.8680   29.1910   40.9440 H   0  0  0  0  0  0  0  0  0  0  0  0
   36.1020   30.9490   40.7170 C   0  0  0  0  0  0  0  0  0  0  0  0
   35.1900   31.5390   40.5840 H   0  0  0  0  0  0  0  0  0  0  0  0
   37.3350   31.5400   40.6750 C   0  0  0  0  0  0  0  0  0  0  0  0
   38.4290   30.7300   40.8520 C   0  0  0  0  0  0  0  0  0  0  0  0
   38.2390   29.4150   41.0520 C   0  0  0  0  0  0  0  0  0  0  0  0
   39.1260   28.7790   41.1920 H   0  0  0  0  0  0  0  0  0  0  0  0
   40.0550   31.4600   40.8050 S   0  0  0  0  0  0  0  0  0  0  0  0
   39.8060   33.1900   40.5180 C   0  0  0  0  0  0  0  0  0  0  0  0
   40.9370   33.9340   40.4480 C   0  0  0  0  0  0  0  0  0  0  0  0
   41.9390   33.5400   40.5540 H   0  0  0  0  0  0  0  0  0  0  0  0
   40.8460   35.3110   40.2250 C   0  0  0  0  0  0  0  0  0  0  0  0
   41.7190   35.9460   40.1610 H   0  0  0  0  0  0  0  0  0  0  0  0
   39.6040   35.8720   40.0830 C   0  0  0  0  0  0  0  0  0  0  0  0
   39.5210   36.9310   39.9110 H   0  0  0  0  0  0  0  0  0  0  0  0
   38.5130   35.0420   40.1680 C   0  0  0  0  0  0  0  0  0  0  0  0
   37.5520   35.5640   40.0440 H   0  0  0  0  0  0  0  0  0  0  0  0
   38.5390   33.6790   40.3870 C   0  0  0  0  0  0  0  0  0  0  0  0
   37.3620   32.9380   40.4540 N   0  0  0  0  0  0  0  0  0  0  0  0
   36.4770   33.4750   40.3310 H   0  0  0  0  0  0  0  0  0  0  0  0
   36.9000   27.3510   41.3270 C   0  0  0  0  0  0  0  0  0  0  0  0
   36.9640   27.1530   42.6060 O   0  0  0  0  0  0  0  0  0  0  0  0
   36.8000   26.1880   40.6540 O   0  0  0  0  0  0  0  0  0  0  0  0
   37.8300   24.0420   39.6640 O   0  0  0  0  0  0  0  0  0  0  0  0
   37.9090   25.5350   39.5920 P   0  0  2  0  0  0  0  0  0  0  0  0
   39.4560   25.9850   40.0650 O   0  0  0  0  0  0  0  0  0  0  0  0
   39.7970   25.4260   40.7860 H   0  0  0  0  0  0  0  0  0  0  0  0
   37.5820   26.0660   37.9980 O   0  0  0  0  0  0  0  0  0  0  0  0
   38.4230   28.2650   37.6200 C   0  0  0  0  0  0  0  0  0  0  0  0
   37.3390   27.4100   37.7250 C   0  0  0  0  0  0  0  0  0  0  0  0
   36.0530   27.9350   37.5530 C   0  0  0  0  0  0  0  0  0  0  0  0
   35.9340   29.2680   37.2910 N   0  0  0  0  0  0  0  0  0  0  0  0
   37.0020   30.0630   37.1960 C   0  0  0  0  0  0  0  0  0  0  0  0
   38.2260   29.5640   37.3590 N   0  0  0  0  0  0  0  0  0  0  0  0
   39.4480   27.9130   37.7450 H   0  0  0  0  0  0  0  0  0  0  0  0
   35.2690   27.2230   37.6470 H   0  0  0  0  0  0  0  0  0  0  0  0
   36.7560   31.0990   36.9830 H   0  0  0  0  0  0  0  0  0  0  0  0
  1 23  1  0  0  0  0
  2  3  1  0  0  0  0
  2  1  2  0  0  0  0
  4  2  1  0  0  0  0
  5  4  1  0  0  0  0
  6  4  2  0  0  0  0
  6  7  1  0  0  0  0
  7  8  2  0  0  0  0
  8  1  1  0  0  0  0
  8  9  1  0  0  0  0
 10  7  1  0  0  0  0
 11 10  1  0  0  0  0
 12 11  1  0  0  0  0
 12 13  1  0  0  0  0
 14 12  2  0  0  0  0
 15 14  1  0  0  0  0
 16 18  2  0  0  0  0
 16 14  1  0  0  0  0
 17 16  1  0  0  0  0
 18 20  1  0  0  0  0
 19 18  1  0  0  0  0
 20 21  1  0  0  0  0
 20 11  2  0  0  0  0
 21  6  1  0  0  0  0
 22 21  1  0  0  0  0
 23 24  2  0  0  0  0
 25 23  1  0  0  0  0
 27 26  2  1  0  0  0
 27 28  1  0  0  0  0
 27 25  1  0  0  0  0
 28 29  1  0  0  0  0
 30 27  1  0  0  0  0
 31 32  1  0  0  0  0
 31 37  1  0  0  0  0
 32 30  1  0  0  0  0
 33 38  1  0  0  0  0
 33 32  2  0  0  0  0
 34 33  1  0  0  0  0
 35 34  2  0  0  0  0
 35 36  1  0  0  0  0
 36 31  2  0  0  0  0
 39 35  1  0  0  0  0
M  END
>  <minimizedAffinity>
-5.92413664

$$$$

 OpenBabel03242514343D

 39 42  0  0  0  0  0  0  0  0999 V2000
   39.5250   31.6980   40.1420 C   0  0  0  0  0  0  0  0  0  0  0  0
   39.6330   31.6520   41.4830 C   0  0  0  0  0  0  0  0  0  0  0  0
   40.0200   32.4650   42.0770 H   0  0  0  0  0  0  0  0  0  0  0  0
   39.2080   30.4640   42.0900 C   0  0  0  0  0  0  0  0  0  0  0  0
   39.3110   30.4590   43.1790 H   0  0  0  0  0  0  0  0  0  0  0  0
   38.7060   29.3790   41.4240 C   0  0  0  0  0  0  0  0  0  0  0  0
   38.6110   29.4660   40.0580 C   0  0  0  0  0  0  0  0  0  0  0  0
   39.0110   30.5950   39.4490 C   0  0  0  0  0  0  0  0  0  0  0  0
   38.9290   30.6490   38.3520 H   0  0  0  0  0  0  0  0  0  0  0  0
   37.9610   28.0750   39.1510 S   0  0  0  0  0  0  0  0  0  0  0  0
   37.5750   26.8410   40.3620 C   0  0  0  0  0  0  0  0  0  0  0  0
   37.0610   25.6870   39.8700 C   0  0  0  0  0  0  0  0  0  0  0  0
   36.8820   25.4930   38.8200 H   0  0  0  0  0  0  0  0  0  0  0  0
   36.7230   24.6510   40.7450 C   0  0  0  0  0  0  0  0  0  0  0  0
   36.3100   23.7130   40.4000 H   0  0  0  0  0  0  0  0  0  0  0  0
   36.9250   24.8350   42.0870 C   0  0  0  0  0  0  0  0  0  0  0  0
   36.6700   24.0440   42.7720 H   0  0  0  0  0  0  0  0  0  0  0  0
   37.4510   26.0350   42.4980 C   0  0  0  0  0  0  0  0  0  0  0  0
   37.5850   26.1080   43.5880 H   0  0  0  0  0  0  0  0  0  0  0  0
   37.8030   27.0930   41.6830 C   0  0  0  0  0  0  0  0  0  0  0  0
   38.3300   28.2670   42.2160 N   0  0  0  0  0  0  0  0  0  0  0  0
   38.4380   28.2900   43.2520 H   0  0  0  0  0  0  0  0  0  0  0  0
   39.9290   32.8910   39.3430 C   0  0  0  0  0  0  0  0  0  0  0  0
   39.3790   33.9330   39.8840 O   0  0  0  0  0  0  0  0  0  0  0  0
   40.6600   33.2280   38.2630 O   0  0  0  0  0  0  0  0  0  0  0  0
   42.5490   34.6260   39.3230 O   0  0  0  0  0  0  0  0  0  0  0  0
   42.2750   33.6470   38.2240 P   0  0  2  0  0  0  0  0  0  0  0  0
   42.6120   34.4110   36.7680 O   0  0  0  0  0  0  0  0  0  0  0  0
   42.3540   35.3500   36.7770 H   0  0  0  0  0  0  0  0  0  0  0  0
   43.2510   32.2550   38.4200 O   0  0  0  0  0  0  0  0  0  0  0  0
   42.5100   29.9960   38.6090 C   0  0  0  0  0  0  0  0  0  0  0  0
   42.9120   31.0500   37.8070 C   0  0  0  0  0  0  0  0  0  0  0  0
   42.9600   30.8570   36.4210 C   0  0  0  0  0  0  0  0  0  0  0  0
   42.6070   29.6340   35.9310 N   0  0  0  0  0  0  0  0  0  0  0  0
   42.2240   28.6400   36.7350 C   0  0  0  0  0  0  0  0  0  0  0  0
   42.1780   28.8230   38.0540 N   0  0  0  0  0  0  0  0  0  0  0  0
   42.4530   30.0880   39.6940 H   0  0  0  0  0  0  0  0  0  0  0  0
   43.2770   31.7070   35.8680 H   0  0  0  0  0  0  0  0  0  0  0  0
   41.9720   27.7250   36.2070 H   0  0  0  0  0  0  0  0  0  0  0  0
  1  2  1  0  0  0  0
  2  3  1  0  0  0  0
  2  4  2  0  0  0  0
  4  5  1  0  0  0  0
  6  4  1  0  0  0  0
  6 21  1  0  0  0  0
  7  6  2  0  0  0  0
  8  7  1  0  0  0  0
  8  1  2  0  0  0  0
  9  8  1  0  0  0  0
 10  7  1  0  0  0  0
 10 11  1  0  0  0  0
 11 20  1  0  0  0  0
 12 11  2  0  0  0  0
 12 14  1  0  0  0  0
 13 12  1  0  0  0  0
 14 16  2  0  0  0  0
 15 14  1  0  0  0  0
 16 18  1  0  0  0  0
 16 17  1  0  0  0  0
 18 19  1  0  0  0  0
 20 21  1  0  0  0  0
 20 18  2  0  0  0  0
 21 22  1  0  0  0  0
 23 24  2  0  0  0  0
 23  1  1  0  0  0  0
 25 23  1  0  0  0  0
 27 25  1  0  0  0  0
 27 30  1  0  0  0  0
 27 26  2  1  0  0  0
 28 29  1  0  0  0  0
 28 27  1  0  0  0  0
 31 37  1  0  0  0  0
 32 30  1  0  0  0  0
 32 31  2  0  0  0  0
 33 32  1  0  0  0  0
 34 33  2  0  0  0  0
 34 35  1  0  0  0  0
 35 36  2  0  0  0  0
 36 31  1  0  0  0  0
 38 33  1  0  0  0  0
 39 35  1  0  0  0  0
M  END
>  <minimizedAffinity>
-5.87207699

$$$$

 OpenBabel03242514343D

 39 42  0  0  0  0  0  0  0  0999 V2000
   37.1610   28.9600   41.1600 C   0  0  0  0  0  0  0  0  0  0  0  0
   36.0510   29.7080   41.0100 C   0  0  0  0  0  0  0  0  0  0  0  0
   35.0520   29.3050   41.0520 H   0  0  0  0  0  0  0  0  0  0  0  0
   36.2610   31.0750   40.7890 C   0  0  0  0  0  0  0  0  0  0  0  0
   35.3400   31.6530   40.6710 H   0  0  0  0  0  0  0  0  0  0  0  0
   37.4870   31.6790   40.7180 C   0  0  0  0  0  0  0  0  0  0  0  0
   38.5930   30.8820   40.8770 C   0  0  0  0  0  0  0  0  0  0  0  0
   38.4210   29.5660   41.0900 C   0  0  0  0  0  0  0  0  0  0  0  0
   39.3180   28.9400   41.2160 H   0  0  0  0  0  0  0  0  0  0  0  0
   40.2100   31.6290   40.7920 S   0  0  0  0  0  0  0  0  0  0  0  0
   39.9350   33.3540   40.5000 C   0  0  0  0  0  0  0  0  0  0  0  0
   41.0560   34.1100   40.4020 C   0  0  0  0  0  0  0  0  0  0  0  0
   42.0650   33.7280   40.4890 H   0  0  0  0  0  0  0  0  0  0  0  0
   40.9460   35.4840   40.1720 C   0  0  0  0  0  0  0  0  0  0  0  0
   41.8100   36.1290   40.0860 H   0  0  0  0  0  0  0  0  0  0  0  0
   39.6950   36.0310   40.0510 C   0  0  0  0  0  0  0  0  0  0  0  0
   39.5960   37.0880   39.8740 H   0  0  0  0  0  0  0  0  0  0  0  0
   38.6150   35.1900   40.1650 C   0  0  0  0  0  0  0  0  0  0  0  0
   37.6460   35.7000   40.0570 H   0  0  0  0  0  0  0  0  0  0  0  0
   38.6610   33.8290   40.3910 C   0  0  0  0  0  0  0  0  0  0  0  0
   37.4940   33.0750   40.4870 N   0  0  0  0  0  0  0  0  0  0  0  0
   36.6010   33.6010   40.3790 H   0  0  0  0  0  0  0  0  0  0  0  0
   37.1120   27.4900   41.4050 C   0  0  0  0  0  0  0  0  0  0  0  0
   37.7660   27.2500   42.4980 O   0  0  0  0  0  0  0  0  0  0  0  0
   36.6230   26.3550   40.8670 O   0  0  0  0  0  0  0  0  0  0  0  0
   37.6310   26.4650   38.4970 O   0  0  0  0  0  0  0  0  0  0  0  0
   37.2420   25.5010   39.5730 P   0  0  2  0  0  0  0  0  0  0  0  0
   36.0470   24.4990   38.9520 O   0  0  0  0  0  0  0  0  0  0  0  0
   35.4370   24.9770   38.3620 H   0  0  0  0  0  0  0  0  0  0  0  0
   38.6040   24.5880   40.0660 O   0  0  0  0  0  0  0  0  0  0  0  0
   39.4870   22.9910   38.5310 C   0  0  0  0  0  0  0  0  0  0  0  0
   38.7560   23.2590   39.6760 C   0  0  0  0  0  0  0  0  0  0  0  0
   38.2060   22.1860   40.3870 C   0  0  0  0  0  0  0  0  0  0  0  0
   38.4190   20.9260   39.9100 N   0  0  0  0  0  0  0  0  0  0  0  0
   39.1300   20.7040   38.8020 C   0  0  0  0  0  0  0  0  0  0  0  0
   39.6530   21.7260   38.1260 N   0  0  0  0  0  0  0  0  0  0  0  0
   39.9390   23.7870   37.9380 H   0  0  0  0  0  0  0  0  0  0  0  0
   37.6590   22.4650   41.2540 H   0  0  0  0  0  0  0  0  0  0  0  0
   39.2170   19.6530   38.5440 H   0  0  0  0  0  0  0  0  0  0  0  0
  1 23  1  0  0  0  0
  2  3  1  0  0  0  0
  2  1  2  0  0  0  0
  4  2  1  0  0  0  0
  5  4  1  0  0  0  0
  6  4  2  0  0  0  0
  6  7  1  0  0  0  0
  7  8  2  0  0  0  0
  8  1  1  0  0  0  0
  8  9  1  0  0  0  0
 10  7  1  0  0  0  0
 11 10  1  0  0  0  0
 12 13  1  0  0  0  0
 12 11  1  0  0  0  0
 14 12  2  0  0  0  0
 15 14  1  0  0  0  0
 16 18  2  0  0  0  0
 16 14  1  0  0  0  0
 17 16  1  0  0  0  0
 18 20  1  0  0  0  0
 19 18  1  0  0  0  0
 20 21  1  0  0  0  0
 20 11  2  0  0  0  0
 21  6  1  0  0  0  0
 22 21  1  0  0  0  0
 23 24  2  0  0  0  0
 25 23  1  0  0  0  0
 27 26  2  6  0  0  0
 27 30  1  0  0  0  0
 27 25  1  0  0  0  0
 28 27  1  0  0  0  0
 29 28  1  0  0  0  0
 31 32  1  0  0  0  0
 32 30  1  0  0  0  0
 32 33  2  0  0  0  0
 33 38  1  0  0  0  0
 34 33  1  0  0  0  0
 35 34  2  0  0  0  0
 36 31  2  0  0  0  0
 36 35  1  0  0  0  0
 37 31  1  0  0  0  0
 39 35  1  0  0  0  0
M  END
>  <minimizedAffinity>
-5.85770988

$$$$
