
 OpenBabel03242523193D

 50 55  0  0  0  0  0  0  0  0999 V2000
   44.6920   31.8210   42.7550 Cl  0  0  0  0  0  0  0  0  0  0  0  0
   44.6560   33.5870   42.7530 C   0  0  0  0  0  0  0  0  0  0  0  0
   45.4520   34.2060   43.7380 C   0  0  0  0  0  0  0  0  0  0  0  0
   45.3520   35.5840   43.6470 C   0  0  0  0  0  0  0  0  0  0  0  0
   44.6470   36.3440   42.7960 C   0  0  0  0  0  0  0  0  0  0  0  0
   43.9030   35.6620   41.8740 C   0  0  0  0  0  0  0  0  0  0  0  0
   43.8920   34.3110   41.8350 C   0  0  0  0  0  0  0  0  0  0  0  0
   45.8920   36.2290   44.3730 H   0  0  0  0  0  0  0  0  0  0  0  0
   44.5970   37.4020   42.7550 H   0  0  0  0  0  0  0  0  0  0  0  0
   43.2780   36.1210   41.1150 H   0  0  0  0  0  0  0  0  0  0  0  0
   43.1120   33.5290   40.8730 C   0  0  0  0  0  0  0  0  0  0  0  0
   43.5840   33.6030   39.5620 C   0  0  0  0  0  0  0  0  0  0  0  0
   44.4530   34.1880   39.2950 H   0  0  0  0  0  0  0  0  0  0  0  0
   42.9120   32.8970   38.5620 C   0  0  0  0  0  0  0  0  0  0  0  0
   43.3320   32.9940   37.5500 H   0  0  0  0  0  0  0  0  0  0  0  0
   41.7970   32.1210   38.7860 C   0  0  0  0  0  0  0  0  0  0  0  0
   41.3780   32.0850   40.0900 C   0  0  0  0  0  0  0  0  0  0  0  0
   41.9960   32.7550   41.1060 C   0  0  0  0  0  0  0  0  0  0  0  0
   41.6720   32.7310   42.1180 H   0  0  0  0  0  0  0  0  0  0  0  0
   39.9420   31.1090   40.4840 S   0  0  0  0  0  0  0  0  0  0  0  0
   39.3840   30.3770   38.9600 C   0  0  0  0  0  0  0  0  0  0  0  0
   38.2840   29.5640   38.9560 C   0  0  0  0  0  0  0  0  0  0  0  0
   37.7710   29.3850   39.9080 H   0  0  0  0  0  0  0  0  0  0  0  0
   37.8050   28.9710   37.8110 C   0  0  0  0  0  0  0  0  0  0  0  0
   36.9290   28.3460   37.9140 H   0  0  0  0  0  0  0  0  0  0  0  0
   38.4820   29.2240   36.6360 C   0  0  0  0  0  0  0  0  0  0  0  0
   38.1310   28.7770   35.7410 H   0  0  0  0  0  0  0  0  0  0  0  0
   39.5860   30.0490   36.6860 C   0  0  0  0  0  0  0  0  0  0  0  0
   40.0660   30.1970   35.7050 H   0  0  0  0  0  0  0  0  0  0  0  0
   40.0880   30.6560   37.8170 C   0  0  0  0  0  0  0  0  0  0  0  0
   41.2260   31.4660   37.6710 N   0  0  0  0  0  0  0  0  0  0  0  0
   41.6540   31.5840   36.7300 H   0  0  0  0  0  0  0  0  0  0  0  0
   46.3110   33.5260   44.7500 C   0  0  0  0  0  0  0  0  0  0  0  0
   45.7300   33.8910   45.7390 O   0  0  0  0  0  0  0  0  0  0  0  0
   47.3740   32.7950   44.0450 C   0  0  0  0  0  0  0  0  0  0  0  0
   48.2100   33.2970   43.1250 C   0  0  0  0  0  0  0  0  0  0  0  0
   49.0520   32.3700   42.5460 C   0  0  0  0  0  0  0  0  0  0  0  0
   48.9630   31.0270   42.9630 N   0  0  0  0  0  0  0  0  0  0  0  0
   48.1190   30.6120   43.8750 C   0  0  0  0  0  0  0  0  0  0  0  0
   47.2610   31.5080   44.4740 N   0  0  0  0  0  0  0  0  0  0  0  0
   49.7920   32.5860   41.7840 H   0  0  0  0  0  0  0  0  0  0  0  0
   48.1680   29.5500   44.0920 H   0  0  0  0  0  0  0  0  0  0  0  0
   48.3760   34.6680   42.7940 C   0  0  0  0  0  0  0  0  0  0  0  0
   49.3690   35.2540   42.0730 C   0  0  0  0  0  0  0  0  0  0  0  0
   48.1010   35.0740   41.2840 C   0  0  0  0  0  0  0  0  0  0  0  0
   47.9440   35.3610   43.5400 H   0  0  0  0  0  0  0  0  0  0  0  0
   49.7160   36.3150   42.0730 H   0  0  0  0  0  0  0  0  0  0  0  0
   50.2170   34.6200   41.6770 H   0  0  0  0  0  0  0  0  0  0  0  0
   48.0050   34.2050   40.6200 H   0  0  0  0  0  0  0  0  0  0  0  0
   47.4220   35.9320   41.1730 H   0  0  0  0  0  0  0  0  0  0  0  0
  2  1  1  0  0  0  0
  2  3  1  0  0  0  0
  3 33  1  0  0  0  0
  4  3  2  0  0  0  0
  4  8  1  0  0  0  0
  5  4  1  0  0  0  0
  6  5  2  0  0  0  0
  7  6  1  0  0  0  0
  7  2  2  0  0  0  0
  9  5  1  0  0  0  0
 10  6  1  0  0  0  0
 11 18  1  0  0  0  0
 11  7  1  0  0  0  0
 12 11  2  0  0  0  0
 13 12  1  0  0  0  0
 14 16  2  0  0  0  0
 14 12  1  0  0  0  0
 15 14  1  0  0  0  0
 16 17  1  0  0  0  0
 17 20  1  0  0  0  0
 17 18  2  0  0  0  0
 18 19  1  0  0  0  0
 21 20  1  0  0  0  0
 22 21  1  0  0  0  0
 22 23  1  0  0  0  0
 24 25  1  0  0  0  0
 24 22  2  0  0  0  0
 26 28  2  0  0  0  0
 26 24  1  0  0  0  0
 27 26  1  0  0  0  0
 28 30  1  0  0  0  0
 29 28  1  0  0  0  0
 30 21  2  0  0  0  0
 31 30  1  0  0  0  0
 31 16  1  0  0  0  0
 32 31  1  0  0  0  0
 33 34  2  0  0  0  0
 35 40  1  0  0  0  0
 35 33  1  0  0  0  0
 36 35  2  0  0  0  0
 37 38  2  0  0  0  0
 37 36  1  0  0  0  0
 38 39  1  0  0  0  0
 39 42  1  0  0  0  0
 39 40  2  0  0  0  0
 41 37  1  0  0  0  0
 43 36  1  0  0  0  0
 43 46  1  0  0  0  0
 44 43  1  0  0  0  0
 45 44  1  0  0  0  0
 45 43  1  0  0  0  0
 47 44  1  0  0  0  0
 48 44  1  0  0  0  0
 49 45  1  0  0  0  0
 50 45  1  0  0  0  0
M  END
>  <minimizedAffinity>
-6.71973896

>  <minimizedRMSD>
1.09087944

$$$$
