
 OpenBabel03252504093D

 38 41  0  0  0  0  0  0  0  0999 V2000
   47.5980   31.0450   44.9610 C   0  0  0  0  0  0  0  0  0  0  0  0
   47.7990   30.0090   44.0750 C   0  0  0  0  0  0  0  0  0  0  0  0
   47.5100   30.1240   43.0540 H   0  0  0  0  0  0  0  0  0  0  0  0
   48.3720   28.8460   44.5460 C   0  0  0  0  0  0  0  0  0  0  0  0
   48.4990   28.0630   43.7800 H   0  0  0  0  0  0  0  0  0  0  0  0
   48.7690   28.6210   45.8460 C   0  0  0  0  0  0  0  0  0  0  0  0
   48.5460   29.6860   46.6820 C   0  0  0  0  0  0  0  0  0  0  0  0
   47.9810   30.8600   46.2630 C   0  0  0  0  0  0  0  0  0  0  0  0
   47.8270   31.6750   46.9760 H   0  0  0  0  0  0  0  0  0  0  0  0
   49.0180   29.5210   48.3910 S   0  0  0  0  0  0  0  0  0  0  0  0
   49.7080   27.8920   48.5790 C   0  0  0  0  0  0  0  0  0  0  0  0
   50.1670   27.4640   49.7950 C   0  0  0  0  0  0  0  0  0  0  0  0
   50.0980   28.1510   50.6520 H   0  0  0  0  0  0  0  0  0  0  0  0
   50.7130   26.2180   50.0150 C   0  0  0  0  0  0  0  0  0  0  0  0
   51.0430   25.9710   50.9930 H   0  0  0  0  0  0  0  0  0  0  0  0
   50.7780   25.3930   48.9110 C   0  0  0  0  0  0  0  0  0  0  0  0
   51.1940   24.4140   49.0320 H   0  0  0  0  0  0  0  0  0  0  0  0
   50.3100   25.8420   47.6930 C   0  0  0  0  0  0  0  0  0  0  0  0
   50.4050   25.1120   46.8760 H   0  0  0  0  0  0  0  0  0  0  0  0
   49.7640   27.0880   47.4730 C   0  0  0  0  0  0  0  0  0  0  0  0
   49.3400   27.3660   46.1550 N   0  0  0  0  0  0  0  0  0  0  0  0
   49.4400   26.6670   45.4120 H   0  0  0  0  0  0  0  0  0  0  0  0
   46.9500   34.1450   43.1170 C   0  0  0  0  0  0  0  0  0  0  0  0
   45.8410   34.6580   43.7800 C   0  0  0  0  0  0  0  0  0  0  0  0
   45.3220   33.9290   44.8590 C   0  0  0  0  0  0  0  0  0  0  0  0
   45.9250   32.7650   45.2040 N   0  0  0  0  0  0  0  0  0  0  0  0
   46.9980   32.3050   44.5360 C   0  0  0  0  0  0  0  0  0  0  0  0
   47.5170   32.9830   43.4980 N   0  0  0  0  0  0  0  0  0  0  0  0
   44.4550   34.3180   45.3850 H   0  0  0  0  0  0  0  0  0  0  0  0
   45.2490   35.9410   43.3270 C   0  0  0  0  0  0  0  0  0  0  0  0
   46.2590   36.8260   42.9670 F   0  0  0  0  0  0  0  0  0  0  0  0
   44.5240   35.7030   42.1730 F   0  0  0  0  0  0  0  0  0  0  0  0
   44.4750   36.5700   44.2400 F   0  0  0  0  0  0  0  0  0  0  0  0
   47.4420   34.8530   42.0820 O   0  0  0  0  0  0  0  0  0  0  0  0
   48.7930   35.0300   41.7170 C   0  0  0  0  0  0  0  0  0  0  0  0
   49.4950   35.3100   42.8900 F   0  0  0  0  0  0  0  0  0  0  0  0
   49.2540   33.9060   41.0900 F   0  0  0  0  0  0  0  0  0  0  0  0
   48.9310   36.1570   40.9420 F   0  0  0  0  0  0  0  0  0  0  0  0
  1  8  1  0  0  0  0
  2  4  1  0  0  0  0
  2  1  2  0  0  0  0
  3  2  1  0  0  0  0
  4  6  2  0  0  0  0
  5  4  1  0  0  0  0
  6 21  1  0  0  0  0
  6  7  1  0  0  0  0
  7 10  1  0  0  0  0
  8  7  2  0  0  0  0
  8  9  1  0  0  0  0
 10 11  1  0  0  0  0
 11 12  1  0  0  0  0
 12 14  2  0  0  0  0
 12 13  1  0  0  0  0
 14 15  1  0  0  0  0
 16 17  1  0  0  0  0
 16 14  1  0  0  0  0
 18 16  2  0  0  0  0
 19 18  1  0  0  0  0
 20 18  1  0  0  0  0
 20 11  2  0  0  0  0
 21 20  1  0  0  0  0
 22 21  1  0  0  0  0
 23 28  2  0  0  0  0
 23 24  1  0  0  0  0
 24 25  2  0  0  0  0
 25 26  1  0  0  0  0
 25 29  1  0  0  0  0
 27  1  1  0  0  0  0
 27 26  2  0  0  0  0
 28 27  1  0  0  0  0
 30 24  1  0  0  0  0
 30 33  1  0  0  0  0
 31 30  1  0  0  0  0
 32 30  1  0  0  0  0
 34 23  1  0  0  0  0
 35 34  1  0  0  0  0
 35 36  1  0  0  0  0
 37 35  1  0  0  0  0
 38 35  1  0  0  0  0
M  END
>  <minimizedAffinity>
-5.51368523

>  <minimizedRMSD>
1.05942786

$$$$
