
 OpenBabel03252502303D

 37 40  0  0  0  0  0  0  0  0999 V2000
   47.0230   31.6850   44.5220 C   0  0  0  0  0  0  0  0  0  0  0  0
   48.1120   30.8890   44.2410 C   0  0  0  0  0  0  0  0  0  0  0  0
   48.8920   31.2000   43.5720 H   0  0  0  0  0  0  0  0  0  0  0  0
   48.1660   29.6390   44.8680 C   0  0  0  0  0  0  0  0  0  0  0  0
   49.0410   29.0490   44.6160 H   0  0  0  0  0  0  0  0  0  0  0  0
   47.2230   29.1420   45.7410 C   0  0  0  0  0  0  0  0  0  0  0  0
   46.1720   29.9960   45.9690 C   0  0  0  0  0  0  0  0  0  0  0  0
   46.0650   31.2140   45.3910 C   0  0  0  0  0  0  0  0  0  0  0  0
   45.2060   31.8290   45.6200 H   0  0  0  0  0  0  0  0  0  0  0  0
   44.8930   29.4490   47.0850 S   0  0  0  0  0  0  0  0  0  0  0  0
   45.3620   27.8300   47.6400 C   0  0  0  0  0  0  0  0  0  0  0  0
   44.5340   27.1870   48.5160 C   0  0  0  0  0  0  0  0  0  0  0  0
   43.6120   27.6700   48.8560 H   0  0  0  0  0  0  0  0  0  0  0  0
   44.8320   25.9260   48.9920 C   0  0  0  0  0  0  0  0  0  0  0  0
   44.1340   25.4760   49.6820 H   0  0  0  0  0  0  0  0  0  0  0  0
   45.9980   25.3390   48.5500 C   0  0  0  0  0  0  0  0  0  0  0  0
   46.2520   24.3510   48.9090 H   0  0  0  0  0  0  0  0  0  0  0  0
   46.7960   26.0320   47.6660 C   0  0  0  0  0  0  0  0  0  0  0  0
   47.6920   25.4990   47.3690 H   0  0  0  0  0  0  0  0  0  0  0  0
   46.5250   27.2920   47.1730 C   0  0  0  0  0  0  0  0  0  0  0  0
   47.4330   27.8650   46.2830 N   0  0  0  0  0  0  0  0  0  0  0  0
   48.2850   27.3310   46.0150 H   0  0  0  0  0  0  0  0  0  0  0  0
   47.7590   34.7230   42.3990 C   0  0  0  0  0  0  0  0  0  0  0  0
   47.9320   33.4390   42.9640 C   0  0  0  0  0  0  0  0  0  0  0  0
   46.9620   32.9840   43.8720 C   0  0  0  0  0  0  0  0  0  0  0  0
   45.9220   33.8040   44.1520 N   0  0  0  0  0  0  0  0  0  0  0  0
   45.7850   35.0250   43.5960 C   0  0  0  0  0  0  0  0  0  0  0  0
   46.6950   35.4730   42.7330 N   0  0  0  0  0  0  0  0  0  0  0  0
   48.7560   32.8160   42.7280 H   0  0  0  0  0  0  0  0  0  0  0  0
   48.7980   35.1750   41.4440 C   0  0  0  0  0  0  0  0  0  0  0  0
   48.3760   35.1020   40.1410 F   0  0  0  0  0  0  0  0  0  0  0  0
   49.1450   36.4930   41.7680 F   0  0  0  0  0  0  0  0  0  0  0  0
   49.9650   34.4320   41.6400 F   0  0  0  0  0  0  0  0  0  0  0  0
   44.6140   35.8750   43.9490 C   0  0  0  0  0  0  0  0  0  0  0  0
   43.5610   35.6590   43.0980 F   0  0  0  0  0  0  0  0  0  0  0  0
   44.9860   37.2320   43.9180 F   0  0  0  0  0  0  0  0  0  0  0  0
   44.1780   35.6530   45.2370 F   0  0  0  0  0  0  0  0  0  0  0  0
  1  8  1  0  0  0  0
  2  1  2  0  0  0  0
  2  4  1  0  0  0  0
  3  2  1  0  0  0  0
  4  6  2  0  0  0  0
  5  4  1  0  0  0  0
  6  7  1  0  0  0  0
  6 21  1  0  0  0  0
  7 10  1  0  0  0  0
  8  9  1  0  0  0  0
  8  7  2  0  0  0  0
 10 11  1  0  0  0  0
 11 12  1  0  0  0  0
 12 13  1  0  0  0  0
 12 14  2  0  0  0  0
 14 15  1  0  0  0  0
 16 17  1  0  0  0  0
 16 14  1  0  0  0  0
 18 16  2  0  0  0  0
 19 18  1  0  0  0  0
 20 11  2  0  0  0  0
 20 18  1  0  0  0  0
 21 20  1  0  0  0  0
 22 21  1  0  0  0  0
 23 28  2  0  0  0  0
 23 24  1  0  0  0  0
 24 25  2  0  0  0  0
 25 26  1  0  0  0  0
 25  1  1  0  0  0  0
 27 34  1  0  0  0  0
 27 26  2  0  0  0  0
 28 27  1  0  0  0  0
 29 24  1  0  0  0  0
 30 33  1  0  0  0  0
 30 32  1  0  0  0  0
 30 23  1  0  0  0  0
 31 30  1  0  0  0  0
 34 37  1  0  0  0  0
 35 34  1  0  0  0  0
 36 34  1  0  0  0  0
M  END
>  <minimizedAffinity>
-6.91684818

>  <minimizedRMSD>
0.595680118

$$$$
