
 OpenBabel03242514343D

 39 42  0  0  0  0  0  0  0  0999 V2000
   48.2100   33.5470   38.3760 C   0  0  0  0  0  0  0  0  0  0  0  0
   47.5970   33.9150   37.2350 C   0  0  0  0  0  0  0  0  0  0  0  0
   46.7680   34.6040   37.2010 H   0  0  0  0  0  0  0  0  0  0  0  0
   48.1000   33.3450   36.0590 C   0  0  0  0  0  0  0  0  0  0  0  0
   47.5790   33.6630   35.1510 H   0  0  0  0  0  0  0  0  0  0  0  0
   49.1450   32.4630   36.0000 C   0  0  0  0  0  0  0  0  0  0  0  0
   49.7440   32.1130   37.1840 C   0  0  0  0  0  0  0  0  0  0  0  0
   49.2820   32.6460   38.3280 C   0  0  0  0  0  0  0  0  0  0  0  0
   49.7720   32.3560   39.2700 H   0  0  0  0  0  0  0  0  0  0  0  0
   51.1090   30.9680   37.1520 S   0  0  0  0  0  0  0  0  0  0  0  0
   51.3520   30.5470   35.4490 C   0  0  0  0  0  0  0  0  0  0  0  0
   52.3600   29.6730   35.2060 C   0  0  0  0  0  0  0  0  0  0  0  0
   52.9950   29.2400   35.9680 H   0  0  0  0  0  0  0  0  0  0  0  0
   52.6320   29.2780   33.8940 C   0  0  0  0  0  0  0  0  0  0  0  0
   53.4250   28.5840   33.6500 H   0  0  0  0  0  0  0  0  0  0  0  0
   51.8650   29.7910   32.8820 C   0  0  0  0  0  0  0  0  0  0  0  0
   52.0640   29.4940   31.8660 H   0  0  0  0  0  0  0  0  0  0  0  0
   50.8650   30.6700   33.2190 C   0  0  0  0  0  0  0  0  0  0  0  0
   50.2920   31.0390   32.3540 H   0  0  0  0  0  0  0  0  0  0  0  0
   50.5490   31.0960   34.4940 C   0  0  0  0  0  0  0  0  0  0  0  0
   49.5080   31.9950   34.7150 N   0  0  0  0  0  0  0  0  0  0  0  0
   48.9940   32.3170   33.8650 H   0  0  0  0  0  0  0  0  0  0  0  0
   47.8000   34.0660   39.7130 C   0  0  0  0  0  0  0  0  0  0  0  0
   46.5610   33.7340   39.9010 O   0  0  0  0  0  0  0  0  0  0  0  0
   48.2880   34.7570   40.7620 O   0  0  0  0  0  0  0  0  0  0  0  0
   49.5960   35.2840   42.9200 O   0  0  0  0  0  0  0  0  0  0  0  0
   49.0860   34.1450   42.0940 P   0  0  2  0  0  0  0  0  0  0  0  0
   50.4130   33.2540   41.5800 O   0  0  0  0  0  0  0  0  0  0  0  0
   51.1750   33.8210   41.3670 H   0  0  0  0  0  0  0  0  0  0  0  0
   48.0250   33.1730   43.0210 O   0  0  0  0  0  0  0  0  0  0  0  0
   46.2760   34.7860   43.1930 C   0  0  0  0  0  0  0  0  0  0  0  0
   46.9910   33.7440   43.7600 C   0  0  0  0  0  0  0  0  0  0  0  0
   46.6430   33.3150   45.0470 C   0  0  0  0  0  0  0  0  0  0  0  0
   45.6130   33.9490   45.6770 N   0  0  0  0  0  0  0  0  0  0  0  0
   44.9450   34.9490   45.1000 C   0  0  0  0  0  0  0  0  0  0  0  0
   45.2760   35.3580   43.8760 N   0  0  0  0  0  0  0  0  0  0  0  0
   46.5020   35.1620   42.1950 H   0  0  0  0  0  0  0  0  0  0  0  0
   47.2330   32.5130   45.4190 H   0  0  0  0  0  0  0  0  0  0  0  0
   44.1510   35.3570   45.7180 H   0  0  0  0  0  0  0  0  0  0  0  0
  1 23  1  0  0  0  0
  2  1  2  0  0  0  0
  3  2  1  0  0  0  0
  4  2  1  0  0  0  0
  5  4  1  0  0  0  0
  6  4  2  0  0  0  0
  6  7  1  0  0  0  0
  7  8  2  0  0  0  0
  8  1  1  0  0  0  0
  8  9  1  0  0  0  0
 10  7  1  0  0  0  0
 11 10  1  0  0  0  0
 12 11  1  0  0  0  0
 12 13  1  0  0  0  0
 14 12  2  0  0  0  0
 15 14  1  0  0  0  0
 16 18  2  0  0  0  0
 16 14  1  0  0  0  0
 17 16  1  0  0  0  0
 18 20  1  0  0  0  0
 19 18  1  0  0  0  0
 20 21  1  0  0  0  0
 20 11  2  0  0  0  0
 21  6  1  0  0  0  0
 22 21  1  0  0  0  0
 23 24  2  0  0  0  0
 23 25  1  0  0  0  0
 25 27  1  0  0  0  0
 27 26  2  1  0  0  0
 27 30  1  0  0  0  0
 28 27  1  0  0  0  0
 29 28  1  0  0  0  0
 30 32  1  0  0  0  0
 31 32  2  0  0  0  0
 31 36  1  0  0  0  0
 32 33  1  0  0  0  0
 33 38  1  0  0  0  0
 33 34  2  0  0  0  0
 35 34  1  0  0  0  0
 35 39  1  0  0  0  0
 36 35  2  0  0  0  0
 37 31  1  0  0  0  0
M  END
>  <minimizedAffinity>
-5.54015589

>  <minimizedRMSD>
1.23185515

$$$$
