
 OpenBabel03252504103D

 38 41  0  0  0  0  0  0  0  0999 V2000
   47.8330   31.0870   44.5720 C   0  0  0  0  0  0  0  0  0  0  0  0
   48.4420   30.3060   43.6120 C   0  0  0  0  0  0  0  0  0  0  0  0
   48.4120   30.6090   42.5900 H   0  0  0  0  0  0  0  0  0  0  0  0
   49.0740   29.1480   44.0150 C   0  0  0  0  0  0  0  0  0  0  0  0
   49.5370   28.5780   43.1940 H   0  0  0  0  0  0  0  0  0  0  0  0
   49.1550   28.6920   45.3130 C   0  0  0  0  0  0  0  0  0  0  0  0
   48.5340   29.5090   46.2230 C   0  0  0  0  0  0  0  0  0  0  0  0
   47.8930   30.6670   45.8750 C   0  0  0  0  0  0  0  0  0  0  0  0
   47.4150   31.2770   46.6440 H   0  0  0  0  0  0  0  0  0  0  0  0
   48.5680   29.0290   47.9370 S   0  0  0  0  0  0  0  0  0  0  0  0
   49.4700   27.4980   48.0250 C   0  0  0  0  0  0  0  0  0  0  0  0
   49.6670   26.8710   49.2250 C   0  0  0  0  0  0  0  0  0  0  0  0
   49.2550   27.3370   50.1330 H   0  0  0  0  0  0  0  0  0  0  0  0
   50.3550   25.6850   49.3690 C   0  0  0  0  0  0  0  0  0  0  0  0
   50.4600   25.2700   50.3410 H   0  0  0  0  0  0  0  0  0  0  0  0
   50.8530   25.1410   48.2030 C   0  0  0  0  0  0  0  0  0  0  0  0
   51.3950   24.2180   48.2630 H   0  0  0  0  0  0  0  0  0  0  0  0
   50.6430   25.7860   47.0030 C   0  0  0  0  0  0  0  0  0  0  0  0
   51.0780   25.2730   46.1330 H   0  0  0  0  0  0  0  0  0  0  0  0
   49.9560   26.9720   46.8580 C   0  0  0  0  0  0  0  0  0  0  0  0
   49.8460   27.4800   45.5450 N   0  0  0  0  0  0  0  0  0  0  0  0
   50.2600   26.9820   44.7520 H   0  0  0  0  0  0  0  0  0  0  0  0
   47.0380   34.3050   43.0110 C   0  0  0  0  0  0  0  0  0  0  0  0
   45.8210   34.6280   43.6020 C   0  0  0  0  0  0  0  0  0  0  0  0
   45.2820   33.7310   44.5350 C   0  0  0  0  0  0  0  0  0  0  0  0
   45.9710   32.5980   44.8160 N   0  0  0  0  0  0  0  0  0  0  0  0
   47.1460   32.3240   44.2220 C   0  0  0  0  0  0  0  0  0  0  0  0
   47.6860   33.1650   43.3240 N   0  0  0  0  0  0  0  0  0  0  0  0
   44.3320   33.9720   45.0030 H   0  0  0  0  0  0  0  0  0  0  0  0
   45.1420   35.8930   43.2280 C   0  0  0  0  0  0  0  0  0  0  0  0
   46.0780   36.9110   43.0970 F   0  0  0  0  0  0  0  0  0  0  0  0
   44.5790   35.7310   41.9740 F   0  0  0  0  0  0  0  0  0  0  0  0
   44.2060   36.3230   44.1040 F   0  0  0  0  0  0  0  0  0  0  0  0
   47.5480   35.1730   42.1160 O   0  0  0  0  0  0  0  0  0  0  0  0
   48.8600   35.2160   41.6010 C   0  0  0  0  0  0  0  0  0  0  0  0
   49.7120   35.4430   42.6830 F   0  0  0  0  0  0  0  0  0  0  0  0
   49.1420   34.0440   40.9550 F   0  0  0  0  0  0  0  0  0  0  0  0
   49.0160   36.3130   40.7890 F   0  0  0  0  0  0  0  0  0  0  0  0
  1  8  1  0  0  0  0
  2  4  1  0  0  0  0
  2  1  2  0  0  0  0
  3  2  1  0  0  0  0
  4  6  2  0  0  0  0
  5  4  1  0  0  0  0
  6 21  1  0  0  0  0
  6  7  1  0  0  0  0
  7 10  1  0  0  0  0
  8  7  2  0  0  0  0
  8  9  1  0  0  0  0
 10 11  1  0  0  0  0
 11 12  1  0  0  0  0
 12 14  2  0  0  0  0
 12 13  1  0  0  0  0
 14 15  1  0  0  0  0
 16 17  1  0  0  0  0
 16 14  1  0  0  0  0
 18 16  2  0  0  0  0
 19 18  1  0  0  0  0
 20 18  1  0  0  0  0
 20 11  2  0  0  0  0
 21 20  1  0  0  0  0
 22 21  1  0  0  0  0
 23 28  2  0  0  0  0
 23 24  1  0  0  0  0
 24 25  2  0  0  0  0
 25 26  1  0  0  0  0
 25 29  1  0  0  0  0
 27  1  1  0  0  0  0
 27 26  2  0  0  0  0
 28 27  1  0  0  0  0
 30 24  1  0  0  0  0
 30 33  1  0  0  0  0
 31 30  1  0  0  0  0
 32 30  1  0  0  0  0
 34 23  1  0  0  0  0
 35 34  1  0  0  0  0
 35 36  1  0  0  0  0
 37 35  1  0  0  0  0
 38 35  1  0  0  0  0
M  END
>  <minimizedAffinity>
-5.57623672

>  <minimizedRMSD>
1.11391497

$$$$
