
 OpenBabel03252504103D

 38 41  0  0  0  0  0  0  0  0999 V2000
   47.7850   31.1790   44.7300 C   0  0  0  0  0  0  0  0  0  0  0  0
   47.5470   30.5880   45.9520 C   0  0  0  0  0  0  0  0  0  0  0  0
   46.8480   31.0330   46.6250 H   0  0  0  0  0  0  0  0  0  0  0  0
   48.2260   29.4280   46.2630 C   0  0  0  0  0  0  0  0  0  0  0  0
   47.9820   29.0150   47.2540 H   0  0  0  0  0  0  0  0  0  0  0  0
   49.1390   28.7940   45.4470 C   0  0  0  0  0  0  0  0  0  0  0  0
   49.3360   29.4270   44.2460 C   0  0  0  0  0  0  0  0  0  0  0  0
   48.6880   30.5770   43.8910 C   0  0  0  0  0  0  0  0  0  0  0  0
   48.8850   31.0380   42.9190 H   0  0  0  0  0  0  0  0  0  0  0  0
   50.4950   28.7060   43.1020 S   0  0  0  0  0  0  0  0  0  0  0  0
   51.1410   27.2420   43.8790 C   0  0  0  0  0  0  0  0  0  0  0  0
   52.0650   26.4620   43.2390 C   0  0  0  0  0  0  0  0  0  0  0  0
   52.3980   26.7620   42.2340 H   0  0  0  0  0  0  0  0  0  0  0  0
   52.6090   25.3140   43.7790 C   0  0  0  0  0  0  0  0  0  0  0  0
   53.3210   24.7710   43.2090 H   0  0  0  0  0  0  0  0  0  0  0  0
   52.1610   24.9800   45.0400 C   0  0  0  0  0  0  0  0  0  0  0  0
   52.5540   24.0970   45.5020 H   0  0  0  0  0  0  0  0  0  0  0  0
   51.2280   25.7790   45.6690 C   0  0  0  0  0  0  0  0  0  0  0  0
   50.9360   25.4270   46.6700 H   0  0  0  0  0  0  0  0  0  0  0  0
   50.6850   26.9250   45.1300 C   0  0  0  0  0  0  0  0  0  0  0  0
   49.7430   27.6100   45.9280 N   0  0  0  0  0  0  0  0  0  0  0  0
   49.4870   27.2620   46.8570 H   0  0  0  0  0  0  0  0  0  0  0  0
   47.0080   34.3360   43.0390 C   0  0  0  0  0  0  0  0  0  0  0  0
   45.7940   34.6900   43.6170 C   0  0  0  0  0  0  0  0  0  0  0  0
   45.2510   33.8360   44.5870 C   0  0  0  0  0  0  0  0  0  0  0  0
   45.9330   32.7110   44.9140 N   0  0  0  0  0  0  0  0  0  0  0  0
   47.1050   32.4050   44.3300 C   0  0  0  0  0  0  0  0  0  0  0  0
   47.6500   33.2050   43.3980 N   0  0  0  0  0  0  0  0  0  0  0  0
   44.3030   34.1010   45.0460 H   0  0  0  0  0  0  0  0  0  0  0  0
   45.1230   35.9440   43.1930 C   0  0  0  0  0  0  0  0  0  0  0  0
   46.0590   36.9630   43.0700 F   0  0  0  0  0  0  0  0  0  0  0  0
   44.6020   35.7510   41.9250 F   0  0  0  0  0  0  0  0  0  0  0  0
   44.1570   36.3880   44.0280 F   0  0  0  0  0  0  0  0  0  0  0  0
   47.5220   35.1630   42.1090 O   0  0  0  0  0  0  0  0  0  0  0  0
   48.8430   35.1970   41.6150 C   0  0  0  0  0  0  0  0  0  0  0  0
   49.6780   35.4310   42.7080 F   0  0  0  0  0  0  0  0  0  0  0  0
   49.1310   34.0190   40.9830 F   0  0  0  0  0  0  0  0  0  0  0  0
   49.0160   36.2870   40.7960 F   0  0  0  0  0  0  0  0  0  0  0  0
  1  2  1  0  0  0  0
  2  4  2  0  0  0  0
  2  3  1  0  0  0  0
  4  5  1  0  0  0  0
  6 21  1  0  0  0  0
  6  4  1  0  0  0  0
  7  6  2  0  0  0  0
  8  7  1  0  0  0  0
  8  1  2  0  0  0  0
  9  8  1  0  0  0  0
 10 11  1  0  0  0  0
 10  7  1  0  0  0  0
 11 20  1  0  0  0  0
 12 14  1  0  0  0  0
 12 11  2  0  0  0  0
 13 12  1  0  0  0  0
 14 16  2  0  0  0  0
 15 14  1  0  0  0  0
 16 17  1  0  0  0  0
 16 18  1  0  0  0  0
 18 19  1  0  0  0  0
 20 18  2  0  0  0  0
 20 21  1  0  0  0  0
 21 22  1  0  0  0  0
 23 28  2  0  0  0  0
 23 24  1  0  0  0  0
 24 25  2  0  0  0  0
 25 26  1  0  0  0  0
 25 29  1  0  0  0  0
 27  1  1  0  0  0  0
 27 26  2  0  0  0  0
 28 27  1  0  0  0  0
 30 24  1  0  0  0  0
 30 33  1  0  0  0  0
 31 30  1  0  0  0  0
 32 30  1  0  0  0  0
 34 23  1  0  0  0  0
 35 34  1  0  0  0  0
 35 36  1  0  0  0  0
 37 35  1  0  0  0  0
 38 35  1  0  0  0  0
M  END
>  <minimizedAffinity>
-5.19163704

>  <minimizedRMSD>
1.5729152

$$$$
