
 OpenBabel03242518503D

 36 39  0  0  0  0  0  0  0  0999 V2000
   46.4230   32.2770   46.5880 C   0  0  0  0  0  0  0  0  0  0  0  0
   46.5940   31.3390   45.5930 C   0  0  0  0  0  0  0  0  0  0  0  0
   46.0990   31.3870   44.6370 H   0  0  0  0  0  0  0  0  0  0  0  0
   47.4320   30.2460   45.7280 C   0  0  0  0  0  0  0  0  0  0  0  0
   47.5280   29.5260   44.8980 H   0  0  0  0  0  0  0  0  0  0  0  0
   48.1650   30.0230   46.8900 C   0  0  0  0  0  0  0  0  0  0  0  0
   47.9750   30.9740   47.8640 C   0  0  0  0  0  0  0  0  0  0  0  0
   47.1570   32.0360   47.7280 C   0  0  0  0  0  0  0  0  0  0  0  0
   47.0320   32.7680   48.5400 H   0  0  0  0  0  0  0  0  0  0  0  0
   48.8580   30.8040   49.4030 S   0  0  0  0  0  0  0  0  0  0  0  0
   49.8490   29.3340   49.2260 C   0  0  0  0  0  0  0  0  0  0  0  0
   50.6360   29.0100   50.2820 C   0  0  0  0  0  0  0  0  0  0  0  0
   50.6670   29.6070   51.1880 H   0  0  0  0  0  0  0  0  0  0  0  0
   51.4140   27.8640   50.1600 C   0  0  0  0  0  0  0  0  0  0  0  0
   52.0490   27.5760   50.9820 H   0  0  0  0  0  0  0  0  0  0  0  0
   51.4160   27.0600   49.0310 C   0  0  0  0  0  0  0  0  0  0  0  0
   52.0140   26.1750   48.9420 H   0  0  0  0  0  0  0  0  0  0  0  0
   50.5770   27.4700   47.9990 C   0  0  0  0  0  0  0  0  0  0  0  0
   50.5930   26.8190   47.1120 H   0  0  0  0  0  0  0  0  0  0  0  0
   49.7890   28.5980   48.0740 C   0  0  0  0  0  0  0  0  0  0  0  0
   49.0060   28.9000   46.9590 N   0  0  0  0  0  0  0  0  0  0  0  0
   49.0370   28.2700   46.1290 H   0  0  0  0  0  0  0  0  0  0  0  0
   45.5410   33.4240   46.4300 C   0  0  0  0  0  0  0  0  0  0  0  0
   44.7810   33.6490   47.4160 O   0  0  0  0  0  0  0  0  0  0  0  0
   44.5730   36.1090   44.1560 C   0  0  0  0  0  0  0  0  0  0  0  0
   45.4030   35.9480   43.0250 C   0  0  0  0  0  0  0  0  0  0  0  0
   46.2930   34.8850   43.0830 C   0  0  0  0  0  0  0  0  0  0  0  0
   46.2780   34.1280   44.1850 N   0  0  0  0  0  0  0  0  0  0  0  0
   45.4980   34.2740   45.2570 C   0  0  0  0  0  0  0  0  0  0  0  0
   44.6210   35.3020   45.2270 N   0  0  0  0  0  0  0  0  0  0  0  0
   43.8700   36.9350   44.1370 H   0  0  0  0  0  0  0  0  0  0  0  0
   45.3730   36.5880   42.1690 H   0  0  0  0  0  0  0  0  0  0  0  0
   47.1720   34.6950   41.9230 C   0  0  0  0  0  0  0  0  0  0  0  0
   47.9970   33.6020   42.1310 F   0  0  0  0  0  0  0  0  0  0  0  0
   48.0260   35.8110   41.8990 F   0  0  0  0  0  0  0  0  0  0  0  0
   46.5020   34.5410   40.7560 F   0  0  0  0  0  0  0  0  0  0  0  0
  1  8  1  0  0  0  0
  2  4  1  0  0  0  0
  2  1  2  0  0  0  0
  3  2  1  0  0  0  0
  4  6  2  0  0  0  0
  5  4  1  0  0  0  0
  6 21  1  0  0  0  0
  6  7  1  0  0  0  0
  7 10  1  0  0  0  0
  8  7  2  0  0  0  0
  8  9  1  0  0  0  0
 11 10  1  0  0  0  0
 11 12  1  0  0  0  0
 12 13  1  0  0  0  0
 14 12  2  0  0  0  0
 14 15  1  0  0  0  0
 16 14  1  0  0  0  0
 17 16  1  0  0  0  0
 18 20  1  0  0  0  0
 18 16  2  0  0  0  0
 19 18  1  0  0  0  0
 20 11  2  0  0  0  0
 21 20  1  0  0  0  0
 22 21  1  0  0  0  0
 23  1  1  0  0  0  0
 23 24  2  0  0  0  0
 25 30  1  0  0  0  0
 26 27  1  0  0  0  0
 26 25  2  0  0  0  0
 27 28  2  0  0  0  0
 28 29  1  0  0  0  0
 29 23  1  0  0  0  0
 30 29  2  0  0  0  0
 31 25  1  0  0  0  0
 32 26  1  0  0  0  0
 33 34  1  0  0  0  0
 33 27  1  0  0  0  0
 35 33  1  0  0  0  0
 36 33  1  0  0  0  0
M  END
>  <minimizedAffinity>
-6.42018175

>  <minimizedRMSD>
0.876662493

$$$$
