
 OpenBabel03242523193D

 50 55  0  0  0  0  0  0  0  0999 V2000
   44.3210   31.9240   42.8080 Cl  0  0  0  0  0  0  0  0  0  0  0  0
   44.5160   33.6770   42.7260 C   0  0  0  0  0  0  0  0  0  0  0  0
   45.4550   34.2210   43.6260 C   0  0  0  0  0  0  0  0  0  0  0  0
   45.5300   35.5960   43.4760 C   0  0  0  0  0  0  0  0  0  0  0  0
   44.8720   36.4100   42.6390 C   0  0  0  0  0  0  0  0  0  0  0  0
   43.9810   35.8000   41.8000 C   0  0  0  0  0  0  0  0  0  0  0  0
   43.7910   34.4620   41.8250 C   0  0  0  0  0  0  0  0  0  0  0  0
   46.2000   36.1900   44.1340 H   0  0  0  0  0  0  0  0  0  0  0  0
   44.9580   37.4630   42.5510 H   0  0  0  0  0  0  0  0  0  0  0  0
   43.3690   36.3090   41.0630 H   0  0  0  0  0  0  0  0  0  0  0  0
   42.8490   33.7550   40.9540 C   0  0  0  0  0  0  0  0  0  0  0  0
   41.5060   34.0090   41.2450 C   0  0  0  0  0  0  0  0  0  0  0  0
   41.2050   34.6710   42.0440 H   0  0  0  0  0  0  0  0  0  0  0  0
   40.5210   33.3840   40.4770 C   0  0  0  0  0  0  0  0  0  0  0  0
   39.4840   33.6220   40.7530 H   0  0  0  0  0  0  0  0  0  0  0  0
   40.7880   32.5230   39.4370 C   0  0  0  0  0  0  0  0  0  0  0  0
   42.1200   32.3110   39.1960 C   0  0  0  0  0  0  0  0  0  0  0  0
   43.1240   32.8940   39.9140 C   0  0  0  0  0  0  0  0  0  0  0  0
   44.1590   32.7320   39.7320 H   0  0  0  0  0  0  0  0  0  0  0  0
   42.5720   31.2130   37.8710 S   0  0  0  0  0  0  0  0  0  0  0  0
   41.0530   30.6300   37.1470 C   0  0  0  0  0  0  0  0  0  0  0  0
   41.0880   29.7590   36.0930 C   0  0  0  0  0  0  0  0  0  0  0  0
   42.0690   29.4410   35.7190 H   0  0  0  0  0  0  0  0  0  0  0  0
   39.9500   29.2750   35.4920 C   0  0  0  0  0  0  0  0  0  0  0  0
   40.0860   28.5920   34.6670 H   0  0  0  0  0  0  0  0  0  0  0  0
   38.7380   29.7020   35.9950 C   0  0  0  0  0  0  0  0  0  0  0  0
   37.8470   29.3420   35.5480 H   0  0  0  0  0  0  0  0  0  0  0  0
   38.7480   30.5800   37.0590 C   0  0  0  0  0  0  0  0  0  0  0  0
   37.7400   30.8680   37.3960 H   0  0  0  0  0  0  0  0  0  0  0  0
   39.8720   31.0810   37.6790 C   0  0  0  0  0  0  0  0  0  0  0  0
   39.6830   31.9670   38.7510 N   0  0  0  0  0  0  0  0  0  0  0  0
   38.7170   32.2190   39.0440 H   0  0  0  0  0  0  0  0  0  0  0  0
   46.2870   33.4710   44.6100 C   0  0  0  0  0  0  0  0  0  0  0  0
   45.7250   33.8270   45.6130 O   0  0  0  0  0  0  0  0  0  0  0  0
   47.3150   32.7190   43.8760 C   0  0  0  0  0  0  0  0  0  0  0  0
   48.2350   33.2310   43.0460 C   0  0  0  0  0  0  0  0  0  0  0  0
   49.0190   32.2910   42.4080 C   0  0  0  0  0  0  0  0  0  0  0  0
   48.7940   30.9280   42.6810 N   0  0  0  0  0  0  0  0  0  0  0  0
   47.8740   30.5040   43.5120 C   0  0  0  0  0  0  0  0  0  0  0  0
   47.0690   31.4120   44.1660 N   0  0  0  0  0  0  0  0  0  0  0  0
   49.8110   32.5130   41.7010 H   0  0  0  0  0  0  0  0  0  0  0  0
   47.8190   29.4260   43.6210 H   0  0  0  0  0  0  0  0  0  0  0  0
   48.5350   34.6070   42.8630 C   0  0  0  0  0  0  0  0  0  0  0  0
   49.6290   35.1670   42.2840 C   0  0  0  0  0  0  0  0  0  0  0  0
   48.4250   35.1690   41.3830 C   0  0  0  0  0  0  0  0  0  0  0  0
   48.0960   35.2640   43.6370 H   0  0  0  0  0  0  0  0  0  0  0  0
   50.0570   36.1900   42.4150 H   0  0  0  0  0  0  0  0  0  0  0  0
   50.4560   34.5010   41.8970 H   0  0  0  0  0  0  0  0  0  0  0  0
   48.3190   34.3750   40.6320 H   0  0  0  0  0  0  0  0  0  0  0  0
   47.8270   36.0890   41.3020 H   0  0  0  0  0  0  0  0  0  0  0  0
  2  1  1  0  0  0  0
  2  3  1  0  0  0  0
  3 33  1  0  0  0  0
  4  3  2  0  0  0  0
  4  8  1  0  0  0  0
  5  4  1  0  0  0  0
  6  7  1  0  0  0  0
  6  5  2  0  0  0  0
  7  2  2  0  0  0  0
  9  5  1  0  0  0  0
 10  6  1  0  0  0  0
 11 12  1  0  0  0  0
 11  7  1  0  0  0  0
 12 13  1  0  0  0  0
 14 15  1  0  0  0  0
 14 12  2  0  0  0  0
 16 14  1  0  0  0  0
 17 16  2  0  0  0  0
 17 18  1  0  0  0  0
 18 11  2  0  0  0  0
 19 18  1  0  0  0  0
 20 17  1  0  0  0  0
 21 30  1  0  0  0  0
 21 20  1  0  0  0  0
 22 21  2  0  0  0  0
 23 22  1  0  0  0  0
 24 26  2  0  0  0  0
 24 22  1  0  0  0  0
 25 24  1  0  0  0  0
 26 28  1  0  0  0  0
 27 26  1  0  0  0  0
 28 29  1  0  0  0  0
 28 30  2  0  0  0  0
 30 31  1  0  0  0  0
 31 32  1  0  0  0  0
 31 16  1  0  0  0  0
 33 34  2  0  0  0  0
 35 40  1  0  0  0  0
 35 33  1  0  0  0  0
 36 35  2  0  0  0  0
 37 38  2  0  0  0  0
 37 36  1  0  0  0  0
 38 39  1  0  0  0  0
 39 42  1  0  0  0  0
 39 40  2  0  0  0  0
 41 37  1  0  0  0  0
 43 36  1  0  0  0  0
 43 46  1  0  0  0  0
 44 47  1  0  0  0  0
 44 43  1  0  0  0  0
 45 44  1  0  0  0  0
 45 43  1  0  0  0  0
 48 44  1  0  0  0  0
 49 45  1  0  0  0  0
 50 45  1  0  0  0  0
M  END
>  <minimizedAffinity>
-6.74767637

>  <minimizedRMSD>
1.10827661

$$$$
