
 OpenBabel03252502433D

 44 48  0  0  1  0  0  0  0  0999 V2000
   48.7390   34.9350   41.4970 C   0  0  1  0  0  0  0  0  0  0  0  0
   49.5990   34.7610   42.6490 C   0  0  0  0  0  0  0  0  0  0  0  0
   49.6120   33.8620   41.4170 C   0  0  1  0  0  0  0  0  0  0  0  0
   48.9120   35.9240   40.9780 H   0  0  0  0  0  0  0  0  0  0  0  0
   49.3100   34.3440   43.6100 H   0  0  0  0  0  0  0  0  0  0  0  0
   50.5590   35.3500   42.7470 H   0  0  0  0  0  0  0  0  0  0  0  0
   50.3460   34.1040   40.5710 H   0  0  0  0  0  0  0  0  0  0  0  0
   50.0950   32.5680   41.7250 C   0  0  0  0  0  0  0  0  0  0  0  0
   49.4400   31.6610   42.5770 C   0  0  0  0  0  0  0  0  0  0  0  0
   48.5170   31.9820   43.0440 H   0  0  0  0  0  0  0  0  0  0  0  0
   49.9910   30.4200   42.7820 C   0  0  0  0  0  0  0  0  0  0  0  0
   49.4000   29.7930   43.4640 H   0  0  0  0  0  0  0  0  0  0  0  0
   51.1690   30.0620   42.1650 C   0  0  0  0  0  0  0  0  0  0  0  0
   51.8500   30.8820   41.3350 C   0  0  0  0  0  0  0  0  0  0  0  0
   51.2890   32.0970   41.1500 C   0  0  0  0  0  0  0  0  0  0  0  0
   51.8070   32.7960   40.4840 H   0  0  0  0  0  0  0  0  0  0  0  0
   53.3520   30.3480   40.5830 S   0  0  0  0  0  0  0  0  0  0  0  0
   53.6230   28.6800   41.1650 C   0  0  0  0  0  0  0  0  0  0  0  0
   54.7570   28.1020   40.6760 C   0  0  0  0  0  0  0  0  0  0  0  0
   55.4510   28.5620   40.0030 H   0  0  0  0  0  0  0  0  0  0  0  0
   55.0550   26.8010   41.0730 C   0  0  0  0  0  0  0  0  0  0  0  0
   55.9250   26.2570   40.7430 H   0  0  0  0  0  0  0  0  0  0  0  0
   54.1980   26.1560   41.9380 C   0  0  0  0  0  0  0  0  0  0  0  0
   54.4150   25.1450   42.2570 H   0  0  0  0  0  0  0  0  0  0  0  0
   53.0920   26.8240   42.3680 C   0  0  0  0  0  0  0  0  0  0  0  0
   52.4430   26.2590   43.0580 H   0  0  0  0  0  0  0  0  0  0  0  0
   52.7170   28.1100   42.0290 C   0  0  0  0  0  0  0  0  0  0  0  0
   51.5610   28.7500   42.5050 N   0  0  0  0  0  0  0  0  0  0  0  0
   51.0180   28.1100   43.1600 H   0  0  0  0  0  0  0  0  0  0  0  0
   47.2510   34.7610   41.6340 C   0  0  0  0  0  0  0  0  0  0  0  0
   46.8740   35.7850   41.9260 H   0  0  0  0  0  0  0  0  0  0  0  0
   46.7610   34.4560   40.7100 H   0  0  0  0  0  0  0  0  0  0  0  0
   47.1160   33.7900   42.7630 C   0  0  0  0  0  0  0  0  0  0  0  0
   48.0010   33.8870   43.4160 H   0  0  0  0  0  0  0  0  0  0  0  0
   46.8620   32.7720   42.4600 H   0  0  0  0  0  0  0  0  0  0  0  0
   44.6030   36.0130   44.4470 C   0  0  0  0  0  0  0  0  0  0  0  0
   45.4690   35.4800   43.4610 C   0  0  0  0  0  0  0  0  0  0  0  0
   46.1660   34.3460   43.7680 C   0  0  0  0  0  0  0  0  0  0  0  0
   46.0040   33.7720   44.9960 N   0  0  0  0  0  0  0  0  0  0  0  0
   45.1920   34.2820   45.9040 C   0  0  0  0  0  0  0  0  0  0  0  0
   44.4930   35.3920   45.6450 N   0  0  0  0  0  0  0  0  0  0  0  0
   44.0100   36.9030   44.3050 H   0  0  0  0  0  0  0  0  0  0  0  0
   45.4380   36.0740   42.5640 H   0  0  0  0  0  0  0  0  0  0  0  0
   45.0370   33.8560   46.8900 H   0  0  0  0  0  0  0  0  0  0  0  0
  1  4  1  6  0  0  0
  1 30  1  0  0  0  0
  1  2  1  0  0  0  0
  2  6  1  0  0  0  0
  2  5  1  0  0  0  0
  3  7  1  6  0  0  0
  3  1  1  0  0  0  0
  3  8  1  0  0  0  0
  3  2  1  0  0  0  0
  8  9  1  0  0  0  0
  9 11  2  0  0  0  0
  9 10  1  0  0  0  0
 11 12  1  0  0  0  0
 13 28  1  0  0  0  0
 13 11  1  0  0  0  0
 14 13  2  0  0  0  0
 15 14  1  0  0  0  0
 15  8  2  0  0  0  0
 16 15  1  0  0  0  0
 17 18  1  0  0  0  0
 17 14  1  0  0  0  0
 18 27  1  0  0  0  0
 19 21  1  0  0  0  0
 19 18  2  0  0  0  0
 20 19  1  0  0  0  0
 21 23  2  0  0  0  0
 22 21  1  0  0  0  0
 23 24  1  0  0  0  0
 23 25  1  0  0  0  0
 25 26  1  0  0  0  0
 27 25  2  0  0  0  0
 27 28  1  0  0  0  0
 28 29  1  0  0  0  0
 30 31  1  0  0  0  0
 30 33  1  0  0  0  0
 32 30  1  0  0  0  0
 33 34  1  0  0  0  0
 33 38  1  0  0  0  0
 35 33  1  0  0  0  0
 36 41  1  0  0  0  0
 37 38  1  0  0  0  0
 37 36  2  0  0  0  0
 38 39  2  0  0  0  0
 39 40  1  0  0  0  0
 40 44  1  0  0  0  0
 41 40  2  0  0  0  0
 42 36  1  0  0  0  0
 43 37  1  0  0  0  0
M  END
>  <minimizedAffinity>
-5.03339577

>  <minimizedRMSD>
1.89379668

$$$$
