
 OpenBabel03252503093D

 40 44  0  0  1  0  0  0  0  0999 V2000
   46.2100   34.1620   40.5630 C   0  0  0  0  0  0  0  0  0  0  0  0
   44.8320   34.1170   40.5660 C   0  0  0  0  0  0  0  0  0  0  0  0
   44.2590   34.5590   41.3930 H   0  0  0  0  0  0  0  0  0  0  0  0
   44.0940   33.5290   39.5730 C   0  0  0  0  0  0  0  0  0  0  0  0
   43.0240   33.5200   39.6250 H   0  0  0  0  0  0  0  0  0  0  0  0
   44.7870   32.9450   38.5020 C   0  0  0  0  0  0  0  0  0  0  0  0
   46.1610   32.9900   38.4930 C   0  0  0  0  0  0  0  0  0  0  0  0
   46.8360   33.5890   39.5110 C   0  0  0  0  0  0  0  0  0  0  0  0
   47.9150   33.6660   39.5740 H   0  0  0  0  0  0  0  0  0  0  0  0
   47.0730   32.2670   37.1480 S   0  0  0  0  0  0  0  0  0  0  0  0
   45.8650   31.4910   36.0920 C   0  0  0  0  0  0  0  0  0  0  0  0
   46.2640   30.7830   35.0120 C   0  0  0  0  0  0  0  0  0  0  0  0
   47.3440   30.7140   34.8190 H   0  0  0  0  0  0  0  0  0  0  0  0
   45.4020   30.1570   34.1460 C   0  0  0  0  0  0  0  0  0  0  0  0
   45.7930   29.6120   33.3030 H   0  0  0  0  0  0  0  0  0  0  0  0
   44.0390   30.2940   34.4520 C   0  0  0  0  0  0  0  0  0  0  0  0
   43.3350   29.8160   33.7910 H   0  0  0  0  0  0  0  0  0  0  0  0
   43.6420   31.0240   35.5620 C   0  0  0  0  0  0  0  0  0  0  0  0
   42.5800   31.0590   35.6930 H   0  0  0  0  0  0  0  0  0  0  0  0
   44.5730   31.6560   36.4300 C   0  0  0  0  0  0  0  0  0  0  0  0
   44.0080   32.3110   37.5190 N   0  0  0  0  0  0  0  0  0  0  0  0
   42.9510   32.3420   37.6200 H   0  0  0  0  0  0  0  0  0  0  0  0
   46.8290   34.8340   41.7580 C   0  0  1  0  0  3  0  0  0  0  0  0
   48.0250   35.3290   41.7790 O   0  0  0  0  0  1  0  0  0  0  0  0
   45.4590   36.2050   43.2200 C   0  0  0  0  0  0  0  0  0  0  0  0
   46.0950   34.9700   42.9670 C   0  0  0  0  0  0  0  0  0  0  0  0
   45.9100   33.9940   43.9230 C   0  0  0  0  0  0  0  0  0  0  0  0
   45.1680   34.2090   45.0250 N   0  0  0  0  0  0  0  0  0  0  0  0
   44.5710   35.4100   45.2370 C   0  0  0  0  0  0  0  0  0  0  0  0
   44.7250   36.4000   44.3240 N   0  0  0  0  0  0  0  0  0  0  0  0
   45.5690   37.0090   42.5070 H   0  0  0  0  0  0  0  0  0  0  0  0
   43.9930   35.4790   46.1610 H   0  0  0  0  0  0  0  0  0  0  0  0
   46.5230   32.7590   43.7410 C   0  0  0  0  0  0  0  0  0  0  0  0
   47.8050   32.2840   43.9170 C   0  0  0  0  0  0  0  0  0  0  0  0
   48.1300   31.0280   43.6610 C   0  0  0  0  0  0  0  0  0  0  0  0
   47.1350   30.1870   43.2070 C   0  0  0  0  0  0  0  0  0  0  0  0
   45.6540   31.3130   43.1590 S   0  0  0  0  0  0  0  0  0  0  0  0
   48.6730   32.7660   44.2970 H   0  0  0  0  0  0  0  0  0  0  0  0
   48.9860   30.3860   43.6920 H   0  0  0  0  0  0  0  0  0  0  0  0
   46.9120   29.1740   42.8900 H   0  0  0  0  0  0  0  0  0  0  0  0
  1  2  1  0  0  0  0
  1 23  1  0  0  0  0
  2  3  1  0  0  0  0
  4  5  1  0  0  0  0
  4  2  2  0  0  0  0
  6  4  1  0  0  0  0
  7  6  2  0  0  0  0
  7  8  1  0  0  0  0
  8  9  1  0  0  0  0
  8  1  2  0  0  0  0
 10  7  1  0  0  0  0
 11 20  1  0  0  0  0
 11 10  1  0  0  0  0
 12 11  2  0  0  0  0
 13 12  1  0  0  0  0
 14 16  2  0  0  0  0
 14 12  1  0  0  0  0
 15 14  1  0  0  0  0
 16 18  1  0  0  0  0
 17 16  1  0  0  0  0
 18 19  1  0  0  0  0
 18 20  2  0  0  0  0
 20 21  1  0  0  0  0
 21 22  1  0  0  0  0
 21  6  1  0  0  0  0
 23 24  1  6  0  0  0
 23 26  1  0  0  0  0
 25 30  1  0  0  0  0
 26 25  2  0  0  0  0
 26 27  1  0  0  0  0
 27 28  2  0  0  0  0
 28 29  1  0  0  0  0
 29 32  1  0  0  0  0
 30 29  2  0  0  0  0
 31 25  1  0  0  0  0
 33 34  2  0  0  0  0
 33 27  1  0  0  0  0
 34 38  1  0  0  0  0
 35 39  1  0  0  0  0
 35 34  1  0  0  0  0
 36 35  2  0  0  0  0
 37 36  1  0  0  0  0
 37 33  1  0  0  0  0
 40 36  1  0  0  0  0
M  END
>  <minimizedAffinity>
-5.62622356

>  <minimizedRMSD>
1.24330127

$$$$
