
 OpenBabel03252502433D

 44 48  0  0  1  0  0  0  0  0999 V2000
   48.9010   35.1510   41.7060 C   0  0  1  0  0  0  0  0  0  0  0  0
   49.6050   34.5670   42.8280 C   0  0  0  0  0  0  0  0  0  0  0  0
   49.5880   33.9820   41.4190 C   0  0  1  0  0  0  0  0  0  0  0  0
   49.2840   36.1820   41.4490 H   0  0  0  0  0  0  0  0  0  0  0  0
   49.1600   34.0040   43.6440 H   0  0  0  0  0  0  0  0  0  0  0  0
   50.6360   34.9320   43.1160 H   0  0  0  0  0  0  0  0  0  0  0  0
   50.4300   34.2700   40.6980 H   0  0  0  0  0  0  0  0  0  0  0  0
   49.8190   32.5860   41.4360 C   0  0  0  0  0  0  0  0  0  0  0  0
   49.2310   31.6760   40.5390 C   0  0  0  0  0  0  0  0  0  0  0  0
   48.5400   32.0660   39.8040 H   0  0  0  0  0  0  0  0  0  0  0  0
   49.5510   30.3430   40.6330 C   0  0  0  0  0  0  0  0  0  0  0  0
   49.0360   29.7220   39.8870 H   0  0  0  0  0  0  0  0  0  0  0  0
   50.4360   29.8980   41.5900 C   0  0  0  0  0  0  0  0  0  0  0  0
   51.0380   30.7150   42.4820 C   0  0  0  0  0  0  0  0  0  0  0  0
   50.7060   32.0210   42.3700 C   0  0  0  0  0  0  0  0  0  0  0  0
   51.1710   32.7220   43.0730 H   0  0  0  0  0  0  0  0  0  0  0  0
   52.1590   30.0680   43.6760 S   0  0  0  0  0  0  0  0  0  0  0  0
   52.2290   28.3070   43.3740 C   0  0  0  0  0  0  0  0  0  0  0  0
   53.0630   27.6340   44.2180 C   0  0  0  0  0  0  0  0  0  0  0  0
   53.6420   28.0740   45.0030 H   0  0  0  0  0  0  0  0  0  0  0  0
   53.1830   26.2560   44.0610 C   0  0  0  0  0  0  0  0  0  0  0  0
   53.8140   25.6360   44.6770 H   0  0  0  0  0  0  0  0  0  0  0  0
   52.4610   25.6330   43.0680 C   0  0  0  0  0  0  0  0  0  0  0  0
   52.5430   24.5620   42.9330 H   0  0  0  0  0  0  0  0  0  0  0  0
   51.6570   26.3960   42.2800 C   0  0  0  0  0  0  0  0  0  0  0  0
   51.1020   25.8450   41.5020 H   0  0  0  0  0  0  0  0  0  0  0  0
   51.4740   27.7650   42.3600 C   0  0  0  0  0  0  0  0  0  0  0  0
   50.6290   28.5030   41.5160 N   0  0  0  0  0  0  0  0  0  0  0  0
   50.1500   27.8660   40.8090 H   0  0  0  0  0  0  0  0  0  0  0  0
   47.3980   35.2260   41.7160 C   0  0  0  0  0  0  0  0  0  0  0  0
   47.1690   36.1800   42.2750 H   0  0  0  0  0  0  0  0  0  0  0  0
   46.9590   35.2860   40.7200 H   0  0  0  0  0  0  0  0  0  0  0  0
   46.9940   34.0230   42.5060 C   0  0  0  0  0  0  0  0  0  0  0  0
   47.8330   33.7380   43.1650 H   0  0  0  0  0  0  0  0  0  0  0  0
   46.5640   33.2120   41.9140 H   0  0  0  0  0  0  0  0  0  0  0  0
   44.5480   35.9940   44.5600 C   0  0  0  0  0  0  0  0  0  0  0  0
   45.3520   35.5810   43.4690 C   0  0  0  0  0  0  0  0  0  0  0  0
   46.1070   34.4540   43.6240 C   0  0  0  0  0  0  0  0  0  0  0  0
   46.0600   33.7720   44.8050 N   0  0  0  0  0  0  0  0  0  0  0  0
   45.3050   34.1720   45.8130 C   0  0  0  0  0  0  0  0  0  0  0  0
   44.5520   35.2700   45.7040 N   0  0  0  0  0  0  0  0  0  0  0  0
   43.9160   36.8700   44.5410 H   0  0  0  0  0  0  0  0  0  0  0  0
   45.2320   36.2470   42.6320 H   0  0  0  0  0  0  0  0  0  0  0  0
   45.2420   33.6580   46.7660 H   0  0  0  0  0  0  0  0  0  0  0  0
  1  4  1  6  0  0  0
  1 30  1  0  0  0  0
  1  2  1  0  0  0  0
  2  6  1  0  0  0  0
  2  5  1  0  0  0  0
  3  7  1  6  0  0  0
  3  8  1  0  0  0  0
  3  1  1  0  0  0  0
  3  2  1  0  0  0  0
  8 15  1  0  0  0  0
  9 11  1  0  0  0  0
  9  8  2  0  0  0  0
 10  9  1  0  0  0  0
 11 13  2  0  0  0  0
 12 11  1  0  0  0  0
 13 14  1  0  0  0  0
 14 17  1  0  0  0  0
 15 14  2  0  0  0  0
 15 16  1  0  0  0  0
 18 17  1  0  0  0  0
 18 19  1  0  0  0  0
 19 20  1  0  0  0  0
 21 19  2  0  0  0  0
 21 22  1  0  0  0  0
 23 21  1  0  0  0  0
 24 23  1  0  0  0  0
 25 27  1  0  0  0  0
 25 23  2  0  0  0  0
 26 25  1  0  0  0  0
 27 18  2  0  0  0  0
 28 13  1  0  0  0  0
 28 27  1  0  0  0  0
 29 28  1  0  0  0  0
 30 31  1  0  0  0  0
 30 33  1  0  0  0  0
 32 30  1  0  0  0  0
 33 34  1  0  0  0  0
 33 38  1  0  0  0  0
 35 33  1  0  0  0  0
 36 41  1  0  0  0  0
 37 38  1  0  0  0  0
 37 36  2  0  0  0  0
 38 39  2  0  0  0  0
 39 40  1  0  0  0  0
 40 44  1  0  0  0  0
 41 40  2  0  0  0  0
 42 36  1  0  0  0  0
 43 37  1  0  0  0  0
M  END
>  <minimizedAffinity>
-4.72442436

>  <minimizedRMSD>
2.55358744

$$$$
