
 OpenBabel03242523183D

 50 55  0  0  0  0  0  0  0  0999 V2000
   44.4060   31.6930   43.0210 Cl  0  0  0  0  0  0  0  0  0  0  0  0
   44.4490   33.4240   42.6730 C   0  0  0  0  0  0  0  0  0  0  0  0
   45.4030   34.1610   43.4030 C   0  0  0  0  0  0  0  0  0  0  0  0
   45.3530   35.5000   43.0520 C   0  0  0  0  0  0  0  0  0  0  0  0
   44.5690   36.1320   42.1670 C   0  0  0  0  0  0  0  0  0  0  0  0
   43.6720   35.3420   41.5030 C   0  0  0  0  0  0  0  0  0  0  0  0
   43.5960   34.0120   41.7350 C   0  0  0  0  0  0  0  0  0  0  0  0
   46.0180   36.2320   43.5590 H   0  0  0  0  0  0  0  0  0  0  0  0
   44.5610   37.1640   41.9230 H   0  0  0  0  0  0  0  0  0  0  0  0
   42.9670   35.6900   40.7560 H   0  0  0  0  0  0  0  0  0  0  0  0
   42.6540   33.1190   41.0580 C   0  0  0  0  0  0  0  0  0  0  0  0
   43.0450   32.7500   39.7690 C   0  0  0  0  0  0  0  0  0  0  0  0
   43.9680   33.0990   39.3250 H   0  0  0  0  0  0  0  0  0  0  0  0
   42.2190   31.9020   39.0290 C   0  0  0  0  0  0  0  0  0  0  0  0
   42.5810   31.6470   38.0230 H   0  0  0  0  0  0  0  0  0  0  0  0
   41.0250   31.3980   39.4920 C   0  0  0  0  0  0  0  0  0  0  0  0
   40.6900   31.7920   40.7600 C   0  0  0  0  0  0  0  0  0  0  0  0
   41.4590   32.6190   41.5280 C   0  0  0  0  0  0  0  0  0  0  0  0
   41.2020   32.9290   42.5120 H   0  0  0  0  0  0  0  0  0  0  0  0
   39.1620   31.1940   41.4520 S   0  0  0  0  0  0  0  0  0  0  0  0
   38.4110   30.1570   40.2150 C   0  0  0  0  0  0  0  0  0  0  0  0
   37.2100   29.5520   40.4690 C   0  0  0  0  0  0  0  0  0  0  0  0
   36.7410   29.7270   41.4440 H   0  0  0  0  0  0  0  0  0  0  0  0
   36.5810   28.7400   39.5540 C   0  0  0  0  0  0  0  0  0  0  0  0
   35.6350   28.3090   39.8520 H   0  0  0  0  0  0  0  0  0  0  0  0
   37.2090   28.5490   38.3400 C   0  0  0  0  0  0  0  0  0  0  0  0
   36.7410   27.9270   37.6190 H   0  0  0  0  0  0  0  0  0  0  0  0
   38.4160   29.1780   38.1260 C   0  0  0  0  0  0  0  0  0  0  0  0
   38.8470   28.9710   37.1330 H   0  0  0  0  0  0  0  0  0  0  0  0
   39.0700   29.9950   39.0230 C   0  0  0  0  0  0  0  0  0  0  0  0
   40.2970   30.5500   38.6260 N   0  0  0  0  0  0  0  0  0  0  0  0
   40.6750   30.3340   37.6810 H   0  0  0  0  0  0  0  0  0  0  0  0
   46.3660   33.6270   44.4080 C   0  0  0  0  0  0  0  0  0  0  0  0
   45.8030   34.0110   45.4020 O   0  0  0  0  0  0  0  0  0  0  0  0
   47.4530   32.9400   43.6970 C   0  0  0  0  0  0  0  0  0  0  0  0
   48.3140   33.4950   42.8320 C   0  0  0  0  0  0  0  0  0  0  0  0
   49.1760   32.6030   42.2280 C   0  0  0  0  0  0  0  0  0  0  0  0
   49.0820   31.2390   42.5670 N   0  0  0  0  0  0  0  0  0  0  0  0
   48.2120   30.7720   43.4280 C   0  0  0  0  0  0  0  0  0  0  0  0
   47.3320   31.6300   44.0500 N   0  0  0  0  0  0  0  0  0  0  0  0
   49.9380   32.8640   41.5020 H   0  0  0  0  0  0  0  0  0  0  0  0
   48.2600   29.7000   43.5880 H   0  0  0  0  0  0  0  0  0  0  0  0
   48.4830   34.8830   42.5820 C   0  0  0  0  0  0  0  0  0  0  0  0
   49.5640   35.5270   42.0690 C   0  0  0  0  0  0  0  0  0  0  0  0
   48.4620   35.3400   41.0630 C   0  0  0  0  0  0  0  0  0  0  0  0
   47.9020   35.5310   43.2640 H   0  0  0  0  0  0  0  0  0  0  0  0
   49.8650   36.5980   42.1660 H   0  0  0  0  0  0  0  0  0  0  0  0
   50.4910   34.9360   41.8070 H   0  0  0  0  0  0  0  0  0  0  0  0
   48.5160   34.4960   40.3620 H   0  0  0  0  0  0  0  0  0  0  0  0
   47.7810   36.1810   40.8630 H   0  0  0  0  0  0  0  0  0  0  0  0
  2  1  1  0  0  0  0
  2  3  1  0  0  0  0
  3 33  1  0  0  0  0
  4  3  2  0  0  0  0
  4  8  1  0  0  0  0
  5  4  1  0  0  0  0
  6  7  1  0  0  0  0
  6  5  2  0  0  0  0
  7  2  2  0  0  0  0
  9  5  1  0  0  0  0
 10  6  1  0  0  0  0
 11 18  1  0  0  0  0
 11  7  1  0  0  0  0
 12 11  2  0  0  0  0
 13 12  1  0  0  0  0
 14 16  2  0  0  0  0
 14 12  1  0  0  0  0
 15 14  1  0  0  0  0
 16 17  1  0  0  0  0
 17 20  1  0  0  0  0
 17 18  2  0  0  0  0
 18 19  1  0  0  0  0
 21 22  1  0  0  0  0
 21 20  1  0  0  0  0
 22 23  1  0  0  0  0
 24 25  1  0  0  0  0
 24 22  2  0  0  0  0
 26 24  1  0  0  0  0
 27 26  1  0  0  0  0
 28 26  2  0  0  0  0
 28 30  1  0  0  0  0
 29 28  1  0  0  0  0
 30 21  2  0  0  0  0
 31 30  1  0  0  0  0
 31 16  1  0  0  0  0
 32 31  1  0  0  0  0
 33 34  2  0  0  0  0
 35 40  1  0  0  0  0
 35 33  1  0  0  0  0
 36 35  2  0  0  0  0
 37 38  2  0  0  0  0
 37 36  1  0  0  0  0
 38 39  1  0  0  0  0
 39 42  1  0  0  0  0
 39 40  2  0  0  0  0
 41 37  1  0  0  0  0
 43 36  1  0  0  0  0
 43 46  1  0  0  0  0
 44 47  1  0  0  0  0
 44 43  1  0  0  0  0
 45 44  1  0  0  0  0
 45 43  1  0  0  0  0
 48 44  1  0  0  0  0
 49 45  1  0  0  0  0
 50 45  1  0  0  0  0
M  END
>  <minimizedAffinity>
-6.77615118

>  <minimizedRMSD>
1.26929677

$$$$
