
 OpenBabel03242514333D

 39 42  0  0  0  0  0  0  0  0999 V2000
   48.6420   32.9810   39.0460 C   0  0  0  0  0  0  0  0  0  0  0  0
   48.0740   34.1940   39.1850 C   0  0  0  0  0  0  0  0  0  0  0  0
   48.0330   34.9250   38.3920 H   0  0  0  0  0  0  0  0  0  0  0  0
   47.5240   34.4720   40.4420 C   0  0  0  0  0  0  0  0  0  0  0  0
   47.0720   35.4650   40.5190 H   0  0  0  0  0  0  0  0  0  0  0  0
   47.5270   33.6130   41.5070 C   0  0  0  0  0  0  0  0  0  0  0  0
   48.1150   32.3860   41.3260 C   0  0  0  0  0  0  0  0  0  0  0  0
   48.6520   32.0920   40.1280 C   0  0  0  0  0  0  0  0  0  0  0  0
   49.1200   31.1040   40.0000 H   0  0  0  0  0  0  0  0  0  0  0  0
   48.1400   31.2360   42.6880 S   0  0  0  0  0  0  0  0  0  0  0  0
   47.3280   32.0550   44.0330 C   0  0  0  0  0  0  0  0  0  0  0  0
   47.2420   31.3380   45.1800 C   0  0  0  0  0  0  0  0  0  0  0  0
   47.6280   30.3350   45.3080 H   0  0  0  0  0  0  0  0  0  0  0  0
   46.6180   31.8950   46.3000 C   0  0  0  0  0  0  0  0  0  0  0  0
   46.5260   31.3630   47.2360 H   0  0  0  0  0  0  0  0  0  0  0  0
   46.1090   33.1630   46.2020 C   0  0  0  0  0  0  0  0  0  0  0  0
   45.6260   33.6040   47.0570 H   0  0  0  0  0  0  0  0  0  0  0  0
   46.2410   33.8170   45.0010 C   0  0  0  0  0  0  0  0  0  0  0  0
   45.8080   34.8280   45.0000 H   0  0  0  0  0  0  0  0  0  0  0  0
   46.8450   33.3180   43.8640 C   0  0  0  0  0  0  0  0  0  0  0  0
   46.9200   34.0770   42.6970 N   0  0  0  0  0  0  0  0  0  0  0  0
   46.4950   35.0280   42.7440 H   0  0  0  0  0  0  0  0  0  0  0  0
   49.2700   32.5270   37.7720 C   0  0  0  0  0  0  0  0  0  0  0  0
   50.3770   31.9230   38.0720 O   0  0  0  0  0  0  0  0  0  0  0  0
   49.0660   32.5460   36.4400 O   0  0  0  0  0  0  0  0  0  0  0  0
   47.7150   31.1710   34.7290 O   0  0  0  0  0  0  0  0  0  0  0  0
   49.0510   31.2410   35.4000 P   0  0  2  0  0  0  0  0  0  0  0  0
   49.2490   29.8290   36.2850 O   0  0  0  0  0  0  0  0  0  0  0  0
   48.4170   29.5310   36.6930 H   0  0  0  0  0  0  0  0  0  0  0  0
   50.2890   31.4040   34.2310 O   0  0  0  0  0  0  0  0  0  0  0  0
   49.6850   33.0830   32.6480 C   0  0  0  0  0  0  0  0  0  0  0  0
   49.9930   31.7600   32.9160 C   0  0  0  0  0  0  0  0  0  0  0  0
   49.9930   30.8430   31.8580 C   0  0  0  0  0  0  0  0  0  0  0  0
   49.6860   31.3040   30.6110 N   0  0  0  0  0  0  0  0  0  0  0  0
   49.3940   32.5870   30.3890 C   0  0  0  0  0  0  0  0  0  0  0  0
   49.3950   33.4600   31.3960 N   0  0  0  0  0  0  0  0  0  0  0  0
   49.6700   33.8400   33.4320 H   0  0  0  0  0  0  0  0  0  0  0  0
   50.2370   29.8480   32.1360 H   0  0  0  0  0  0  0  0  0  0  0  0
   49.1710   32.8090   29.3500 H   0  0  0  0  0  0  0  0  0  0  0  0
  1  2  2  0  0  0  0
  1  8  1  0  0  0  0
  2  4  1  0  0  0  0
  3  2  1  0  0  0  0
  4  5  1  0  0  0  0
  4  6  2  0  0  0  0
  6 21  1  0  0  0  0
  7  6  1  0  0  0  0
  7 10  1  0  0  0  0
  8  7  2  0  0  0  0
  9  8  1  0  0  0  0
 10 11  1  0  0  0  0
 11 12  1  0  0  0  0
 12 13  1  0  0  0  0
 12 14  2  0  0  0  0
 14 15  1  0  0  0  0
 16 14  1  0  0  0  0
 16 17  1  0  0  0  0
 18 16  2  0  0  0  0
 19 18  1  0  0  0  0
 20 11  2  0  0  0  0
 20 18  1  0  0  0  0
 21 22  1  0  0  0  0
 21 20  1  0  0  0  0
 23 24  2  0  0  0  0
 23  1  1  0  0  0  0
 25 23  1  0  0  0  0
 27 26  2  6  0  0  0
 27 28  1  0  0  0  0
 27 25  1  0  0  0  0
 28 29  1  0  0  0  0
 30 27  1  0  0  0  0
 31 32  1  0  0  0  0
 31 37  1  0  0  0  0
 32 30  1  0  0  0  0
 33 38  1  0  0  0  0
 33 32  2  0  0  0  0
 34 33  1  0  0  0  0
 35 34  2  0  0  0  0
 35 36  1  0  0  0  0
 36 31  2  0  0  0  0
 39 35  1  0  0  0  0
M  END
>  <minimizedAffinity>
-5.51796627

>  <minimizedRMSD>
9.95952511

$$$$
