
 OpenBabel03242518503D

 36 39  0  0  0  0  0  0  0  0999 V2000
   46.3370   32.3500   46.6520 C   0  0  0  0  0  0  0  0  0  0  0  0
   46.4590   31.3540   45.7080 C   0  0  0  0  0  0  0  0  0  0  0  0
   45.9390   31.3590   44.7640 H   0  0  0  0  0  0  0  0  0  0  0  0
   47.2750   30.2490   45.8840 C   0  0  0  0  0  0  0  0  0  0  0  0
   47.3320   29.4800   45.0940 H   0  0  0  0  0  0  0  0  0  0  0  0
   48.0340   30.0740   47.0370 C   0  0  0  0  0  0  0  0  0  0  0  0
   47.8930   31.0830   47.9590 C   0  0  0  0  0  0  0  0  0  0  0  0
   47.0960   32.1550   47.7850 C   0  0  0  0  0  0  0  0  0  0  0  0
   47.0100   32.9350   48.5560 H   0  0  0  0  0  0  0  0  0  0  0  0
   48.8140   30.9780   49.4810 S   0  0  0  0  0  0  0  0  0  0  0  0
   49.7640   29.4770   49.3630 C   0  0  0  0  0  0  0  0  0  0  0  0
   50.5720   29.1950   50.4160 C   0  0  0  0  0  0  0  0  0  0  0  0
   50.6430   29.8400   51.2850 H   0  0  0  0  0  0  0  0  0  0  0  0
   51.3220   28.0240   50.3400 C   0  0  0  0  0  0  0  0  0  0  0  0
   51.9720   27.7680   51.1590 H   0  0  0  0  0  0  0  0  0  0  0  0
   51.2730   27.1590   49.2590 C   0  0  0  0  0  0  0  0  0  0  0  0
   51.8470   26.2550   49.2050 H   0  0  0  0  0  0  0  0  0  0  0  0
   50.4160   27.5290   48.2280 C   0  0  0  0  0  0  0  0  0  0  0  0
   50.3930   26.8280   47.3790 H   0  0  0  0  0  0  0  0  0  0  0  0
   49.6560   28.6790   48.2580 C   0  0  0  0  0  0  0  0  0  0  0  0
   48.8500   28.9370   47.1490 N   0  0  0  0  0  0  0  0  0  0  0  0
   48.8450   28.2600   46.3550 H   0  0  0  0  0  0  0  0  0  0  0  0
   45.4780   33.5070   46.4510 C   0  0  0  0  0  0  0  0  0  0  0  0
   44.7090   33.7710   47.4200 O   0  0  0  0  0  0  0  0  0  0  0  0
   44.5750   36.1350   44.0860 C   0  0  0  0  0  0  0  0  0  0  0  0
   45.4290   35.9400   42.9790 C   0  0  0  0  0  0  0  0  0  0  0  0
   46.3120   34.8750   43.0850 C   0  0  0  0  0  0  0  0  0  0  0  0
   46.2690   34.1480   44.2050 N   0  0  0  0  0  0  0  0  0  0  0  0
   45.4660   34.3260   45.2550 C   0  0  0  0  0  0  0  0  0  0  0  0
   44.5950   35.3570   45.1780 N   0  0  0  0  0  0  0  0  0  0  0  0
   43.8770   36.9640   44.0290 H   0  0  0  0  0  0  0  0  0  0  0  0
   45.4220   36.5570   42.1050 H   0  0  0  0  0  0  0  0  0  0  0  0
   47.2160   34.6500   41.9500 C   0  0  0  0  0  0  0  0  0  0  0  0
   48.0390   33.5670   42.2100 F   0  0  0  0  0  0  0  0  0  0  0  0
   48.0680   35.7680   41.9070 F   0  0  0  0  0  0  0  0  0  0  0  0
   46.5710   34.4570   40.7740 F   0  0  0  0  0  0  0  0  0  0  0  0
  1  8  1  0  0  0  0
  2  4  1  0  0  0  0
  2  1  2  0  0  0  0
  3  2  1  0  0  0  0
  4  6  2  0  0  0  0
  5  4  1  0  0  0  0
  6 21  1  0  0  0  0
  6  7  1  0  0  0  0
  7 10  1  0  0  0  0
  8  7  2  0  0  0  0
  8  9  1  0  0  0  0
 11 10  1  0  0  0  0
 11 12  1  0  0  0  0
 12 13  1  0  0  0  0
 14 12  2  0  0  0  0
 14 15  1  0  0  0  0
 16 14  1  0  0  0  0
 17 16  1  0  0  0  0
 18 20  1  0  0  0  0
 18 16  2  0  0  0  0
 19 18  1  0  0  0  0
 20 11  2  0  0  0  0
 21 20  1  0  0  0  0
 22 21  1  0  0  0  0
 23  1  1  0  0  0  0
 23 24  2  0  0  0  0
 25 30  1  0  0  0  0
 26 27  1  0  0  0  0
 26 25  2  0  0  0  0
 27 28  2  0  0  0  0
 28 29  1  0  0  0  0
 29 23  1  0  0  0  0
 30 29  2  0  0  0  0
 31 25  1  0  0  0  0
 32 26  1  0  0  0  0
 33 34  1  0  0  0  0
 33 27  1  0  0  0  0
 35 33  1  0  0  0  0
 36 33  1  0  0  0  0
M  END
>  <minimizedAffinity>
-6.41550779

>  <minimizedRMSD>
0.769335091

$$$$
