
 OpenBabel03252502313D

 37 40  0  0  0  0  0  0  0  0999 V2000
   47.0330   31.6970   44.4970 C   0  0  0  0  0  0  0  0  0  0  0  0
   48.1180   30.8980   44.2140 C   0  0  0  0  0  0  0  0  0  0  0  0
   48.8990   31.2050   43.5430 H   0  0  0  0  0  0  0  0  0  0  0  0
   48.1710   29.6480   44.8410 C   0  0  0  0  0  0  0  0  0  0  0  0
   49.0420   29.0550   44.5880 H   0  0  0  0  0  0  0  0  0  0  0  0
   47.2280   29.1530   45.7170 C   0  0  0  0  0  0  0  0  0  0  0  0
   46.1790   30.0110   45.9460 C   0  0  0  0  0  0  0  0  0  0  0  0
   46.0760   31.2300   45.3690 C   0  0  0  0  0  0  0  0  0  0  0  0
   45.2190   31.8480   45.5980 H   0  0  0  0  0  0  0  0  0  0  0  0
   44.9010   29.4690   47.0650 S   0  0  0  0  0  0  0  0  0  0  0  0
   45.3660   27.8490   47.6200 C   0  0  0  0  0  0  0  0  0  0  0  0
   44.5390   27.2080   48.4980 C   0  0  0  0  0  0  0  0  0  0  0  0
   43.6190   27.6940   48.8390 H   0  0  0  0  0  0  0  0  0  0  0  0
   44.8330   25.9480   48.9730 C   0  0  0  0  0  0  0  0  0  0  0  0
   44.1350   25.5000   49.6640 H   0  0  0  0  0  0  0  0  0  0  0  0
   45.9950   25.3550   48.5290 C   0  0  0  0  0  0  0  0  0  0  0  0
   46.2480   24.3680   48.8870 H   0  0  0  0  0  0  0  0  0  0  0  0
   46.7950   26.0460   47.6430 C   0  0  0  0  0  0  0  0  0  0  0  0
   47.6880   25.5100   47.3450 H   0  0  0  0  0  0  0  0  0  0  0  0
   46.5270   27.3060   47.1500 C   0  0  0  0  0  0  0  0  0  0  0  0
   47.4340   27.8770   46.2580 N   0  0  0  0  0  0  0  0  0  0  0  0
   48.2850   27.3390   45.9880 H   0  0  0  0  0  0  0  0  0  0  0  0
   47.7850   34.7400   42.3860 C   0  0  0  0  0  0  0  0  0  0  0  0
   47.9550   33.4560   42.9520 C   0  0  0  0  0  0  0  0  0  0  0  0
   46.9750   32.9970   43.8470 C   0  0  0  0  0  0  0  0  0  0  0  0
   45.9280   33.8110   44.1120 N   0  0  0  0  0  0  0  0  0  0  0  0
   45.7930   35.0320   43.5550 C   0  0  0  0  0  0  0  0  0  0  0  0
   46.7120   35.4850   42.7050 N   0  0  0  0  0  0  0  0  0  0  0  0
   48.7850   32.8370   42.7280 H   0  0  0  0  0  0  0  0  0  0  0  0
   48.8340   35.1970   41.4450 C   0  0  0  0  0  0  0  0  0  0  0  0
   48.4300   35.1250   40.1370 F   0  0  0  0  0  0  0  0  0  0  0  0
   49.1720   36.5160   41.7760 F   0  0  0  0  0  0  0  0  0  0  0  0
   50.0010   34.4570   41.6560 F   0  0  0  0  0  0  0  0  0  0  0  0
   44.6130   35.8770   43.8920 C   0  0  0  0  0  0  0  0  0  0  0  0
   43.5660   35.6400   43.0410 F   0  0  0  0  0  0  0  0  0  0  0  0
   44.9740   37.2360   43.8440 F   0  0  0  0  0  0  0  0  0  0  0  0
   44.1740   35.6680   45.1820 F   0  0  0  0  0  0  0  0  0  0  0  0
  1  8  1  0  0  0  0
  2  1  2  0  0  0  0
  2  4  1  0  0  0  0
  3  2  1  0  0  0  0
  4  6  2  0  0  0  0
  5  4  1  0  0  0  0
  6  7  1  0  0  0  0
  6 21  1  0  0  0  0
  7 10  1  0  0  0  0
  8  9  1  0  0  0  0
  8  7  2  0  0  0  0
 10 11  1  0  0  0  0
 11 12  1  0  0  0  0
 12 13  1  0  0  0  0
 12 14  2  0  0  0  0
 14 15  1  0  0  0  0
 16 17  1  0  0  0  0
 16 14  1  0  0  0  0
 18 16  2  0  0  0  0
 19 18  1  0  0  0  0
 20 11  2  0  0  0  0
 20 18  1  0  0  0  0
 21 20  1  0  0  0  0
 22 21  1  0  0  0  0
 23 28  2  0  0  0  0
 23 24  1  0  0  0  0
 24 25  2  0  0  0  0
 25 26  1  0  0  0  0
 25  1  1  0  0  0  0
 27 34  1  0  0  0  0
 27 26  2  0  0  0  0
 28 27  1  0  0  0  0
 29 24  1  0  0  0  0
 30 33  1  0  0  0  0
 30 32  1  0  0  0  0
 30 23  1  0  0  0  0
 31 30  1  0  0  0  0
 34 37  1  0  0  0  0
 35 34  1  0  0  0  0
 36 34  1  0  0  0  0
M  END
>  <minimizedAffinity>
-6.90336466

>  <minimizedRMSD>
0.553168535

$$$$
