
 OpenBabel03252504103D

 38 41  0  0  0  0  0  0  0  0999 V2000
   47.9380   30.9830   44.3920 C   0  0  0  0  0  0  0  0  0  0  0  0
   48.9450   30.4740   43.5980 C   0  0  0  0  0  0  0  0  0  0  0  0
   49.1930   30.9630   42.6830 H   0  0  0  0  0  0  0  0  0  0  0  0
   49.6010   29.3370   44.0220 C   0  0  0  0  0  0  0  0  0  0  0  0
   50.3900   28.9900   43.3360 H   0  0  0  0  0  0  0  0  0  0  0  0
   49.3370   28.6500   45.1880 C   0  0  0  0  0  0  0  0  0  0  0  0
   48.3290   29.2020   45.9360 C   0  0  0  0  0  0  0  0  0  0  0  0
   47.6480   30.3280   45.5590 C   0  0  0  0  0  0  0  0  0  0  0  0
   46.8530   30.7230   46.1970 H   0  0  0  0  0  0  0  0  0  0  0  0
   47.8930   28.4070   47.4680 S   0  0  0  0  0  0  0  0  0  0  0  0
   48.9640   26.9960   47.6390 C   0  0  0  0  0  0  0  0  0  0  0  0
   48.8700   26.1750   48.7290 C   0  0  0  0  0  0  0  0  0  0  0  0
   48.1160   26.4090   49.4960 H   0  0  0  0  0  0  0  0  0  0  0  0
   49.6640   25.0660   48.9270 C   0  0  0  0  0  0  0  0  0  0  0  0
   49.5210   24.4860   49.8040 H   0  0  0  0  0  0  0  0  0  0  0  0
   50.5930   24.8150   47.9380 C   0  0  0  0  0  0  0  0  0  0  0  0
   51.2340   23.9630   48.0470 H   0  0  0  0  0  0  0  0  0  0  0  0
   50.6740   25.6540   46.8460 C   0  0  0  0  0  0  0  0  0  0  0  0
   51.4430   25.3690   46.1150 H   0  0  0  0  0  0  0  0  0  0  0  0
   49.8790   26.7630   46.6470 C   0  0  0  0  0  0  0  0  0  0  0  0
   50.1100   27.5000   45.4650 N   0  0  0  0  0  0  0  0  0  0  0  0
   50.8350   27.2120   44.8000 H   0  0  0  0  0  0  0  0  0  0  0  0
   47.0990   34.2330   42.9220 C   0  0  0  0  0  0  0  0  0  0  0  0
   45.7790   34.4060   43.3210 C   0  0  0  0  0  0  0  0  0  0  0  0
   45.1860   33.3980   44.0940 C   0  0  0  0  0  0  0  0  0  0  0  0
   45.9250   32.3090   44.4160 N   0  0  0  0  0  0  0  0  0  0  0  0
   47.2010   32.1810   44.0100 C   0  0  0  0  0  0  0  0  0  0  0  0
   47.7950   33.1310   43.2670 N   0  0  0  0  0  0  0  0  0  0  0  0
   44.1540   33.5220   44.4120 H   0  0  0  0  0  0  0  0  0  0  0  0
   45.0500   35.6350   42.9180 C   0  0  0  0  0  0  0  0  0  0  0  0
   45.8650   36.7460   43.0930 F   0  0  0  0  0  0  0  0  0  0  0  0
   44.7930   35.5630   41.5600 F   0  0  0  0  0  0  0  0  0  0  0  0
   43.9040   35.8700   43.5950 F   0  0  0  0  0  0  0  0  0  0  0  0
   47.6610   35.2060   42.1790 O   0  0  0  0  0  0  0  0  0  0  0  0
   48.9620   35.2410   41.6380 C   0  0  0  0  0  0  0  0  0  0  0  0
   49.8390   35.4440   42.7050 F   0  0  0  0  0  0  0  0  0  0  0  0
   49.2170   34.0750   40.9700 F   0  0  0  0  0  0  0  0  0  0  0  0
   49.1140   36.3480   40.8370 F   0  0  0  0  0  0  0  0  0  0  0  0
  1  8  1  0  0  0  0
  2  4  1  0  0  0  0
  2  1  2  0  0  0  0
  3  2  1  0  0  0  0
  4  6  2  0  0  0  0
  5  4  1  0  0  0  0
  6 21  1  0  0  0  0
  6  7  1  0  0  0  0
  7 10  1  0  0  0  0
  8  7  2  0  0  0  0
  8  9  1  0  0  0  0
 10 11  1  0  0  0  0
 11 12  1  0  0  0  0
 12 14  2  0  0  0  0
 12 13  1  0  0  0  0
 14 15  1  0  0  0  0
 16 17  1  0  0  0  0
 16 14  1  0  0  0  0
 18 16  2  0  0  0  0
 19 18  1  0  0  0  0
 20 18  1  0  0  0  0
 20 11  2  0  0  0  0
 21 20  1  0  0  0  0
 22 21  1  0  0  0  0
 23 28  2  0  0  0  0
 23 24  1  0  0  0  0
 24 25  2  0  0  0  0
 25 29  1  0  0  0  0
 25 26  1  0  0  0  0
 27  1  1  0  0  0  0
 27 26  2  0  0  0  0
 28 27  1  0  0  0  0
 30 31  1  0  0  0  0
 30 24  1  0  0  0  0
 30 33  1  0  0  0  0
 32 30  1  0  0  0  0
 34 23  1  0  0  0  0
 35 34  1  0  0  0  0
 35 36  1  0  0  0  0
 37 35  1  0  0  0  0
 38 35  1  0  0  0  0
M  END
>  <minimizedAffinity>
-5.56795692

>  <minimizedRMSD>
0.991797805

$$$$
