
 OpenBabel03242514333D

 39 42  0  0  0  0  0  0  0  0999 V2000
   47.5250   33.2090   38.0000 C   0  0  0  0  0  0  0  0  0  0  0  0
   48.7050   33.3570   37.3680 C   0  0  0  0  0  0  0  0  0  0  0  0
   49.5230   33.9370   37.7630 H   0  0  0  0  0  0  0  0  0  0  0  0
   48.8250   32.7010   36.1360 C   0  0  0  0  0  0  0  0  0  0  0  0
   49.7940   32.8410   35.6490 H   0  0  0  0  0  0  0  0  0  0  0  0
   47.8460   31.9430   35.5530 C   0  0  0  0  0  0  0  0  0  0  0  0
   46.6590   31.8170   36.2290 C   0  0  0  0  0  0  0  0  0  0  0  0
   46.5150   32.4360   37.4140 C   0  0  0  0  0  0  0  0  0  0  0  0
   45.5570   32.3260   37.9430 H   0  0  0  0  0  0  0  0  0  0  0  0
   45.3570   30.8380   35.5050 S   0  0  0  0  0  0  0  0  0  0  0  0
   45.9990   30.2340   33.9690 C   0  0  0  0  0  0  0  0  0  0  0  0
   45.1500   29.4540   33.2530 C   0  0  0  0  0  0  0  0  0  0  0  0
   44.1450   29.1970   33.5600 H   0  0  0  0  0  0  0  0  0  0  0  0
   45.5630   28.9280   32.0260 C   0  0  0  0  0  0  0  0  0  0  0  0
   44.9230   28.3030   31.4180 H   0  0  0  0  0  0  0  0  0  0  0  0
   46.8260   29.2180   31.5780 C   0  0  0  0  0  0  0  0  0  0  0  0
   47.1560   28.8190   30.6350 H   0  0  0  0  0  0  0  0  0  0  0  0
   47.6170   30.0150   32.3690 C   0  0  0  0  0  0  0  0  0  0  0  0
   48.6160   30.2030   31.9450 H   0  0  0  0  0  0  0  0  0  0  0  0
   47.2660   30.5620   33.5870 C   0  0  0  0  0  0  0  0  0  0  0  0
   48.1570   31.3590   34.3020 N   0  0  0  0  0  0  0  0  0  0  0  0
   49.0900   31.5080   33.8620 H   0  0  0  0  0  0  0  0  0  0  0  0
   47.2370   33.8400   39.3200 C   0  0  0  0  0  0  0  0  0  0  0  0
   46.0810   33.4080   39.7190 O   0  0  0  0  0  0  0  0  0  0  0  0
   47.7740   34.6990   40.2090 O   0  0  0  0  0  0  0  0  0  0  0  0
   49.0720   35.5830   42.2530 O   0  0  0  0  0  0  0  0  0  0  0  0
   48.5610   34.3210   41.6320 P   0  0  2  0  0  0  0  0  0  0  0  0
   49.8870   33.3510   41.2860 O   0  0  0  0  0  0  0  0  0  0  0  0
   50.6530   33.8710   40.9840 H   0  0  0  0  0  0  0  0  0  0  0  0
   47.4910   33.5270   42.7060 O   0  0  0  0  0  0  0  0  0  0  0  0
   45.9200   35.3200   42.7840 C   0  0  0  0  0  0  0  0  0  0  0  0
   46.5200   34.2390   43.4070 C   0  0  0  0  0  0  0  0  0  0  0  0
   46.1240   33.9120   44.7090 C   0  0  0  0  0  0  0  0  0  0  0  0
   45.1640   34.6800   45.2990 N   0  0  0  0  0  0  0  0  0  0  0  0
   44.6060   35.7150   44.6680 C   0  0  0  0  0  0  0  0  0  0  0  0
   44.9830   36.0260   43.4280 N   0  0  0  0  0  0  0  0  0  0  0  0
   46.1880   35.6210   41.7710 H   0  0  0  0  0  0  0  0  0  0  0  0
   46.6250   33.0720   45.1260 H   0  0  0  0  0  0  0  0  0  0  0  0
   43.8570   36.2340   45.2590 H   0  0  0  0  0  0  0  0  0  0  0  0
  1 23  1  0  0  0  0
  2  3  1  0  0  0  0
  2  1  2  0  0  0  0
  4  2  1  0  0  0  0
  5  4  1  0  0  0  0
  6  4  2  0  0  0  0
  6  7  1  0  0  0  0
  7  8  2  0  0  0  0
  8  9  1  0  0  0  0
  8  1  1  0  0  0  0
 10  7  1  0  0  0  0
 11 10  1  0  0  0  0
 12 13  1  0  0  0  0
 12 11  2  0  0  0  0
 14 12  1  0  0  0  0
 15 14  1  0  0  0  0
 16 14  2  0  0  0  0
 16 18  1  0  0  0  0
 17 16  1  0  0  0  0
 18 20  2  0  0  0  0
 19 18  1  0  0  0  0
 20 11  1  0  0  0  0
 20 21  1  0  0  0  0
 21  6  1  0  0  0  0
 22 21  1  0  0  0  0
 23 24  2  0  0  0  0
 23 25  1  0  0  0  0
 25 27  1  0  0  0  0
 27 26  2  1  0  0  0
 27 30  1  0  0  0  0
 28 27  1  0  0  0  0
 29 28  1  0  0  0  0
 30 32  1  0  0  0  0
 31 32  2  0  0  0  0
 31 36  1  0  0  0  0
 32 33  1  0  0  0  0
 33 38  1  0  0  0  0
 33 34  2  0  0  0  0
 35 39  1  0  0  0  0
 35 34  1  0  0  0  0
 36 35  2  0  0  0  0
 37 31  1  0  0  0  0
M  END
>  <minimizedAffinity>
-5.64819098

>  <minimizedRMSD>
2.30688572

$$$$
