
 OpenBabel03252506353D

 46 50  0  0  1  0  0  0  0  0999 V2000
   44.4550   35.7090   44.9860 C   0  0  0  0  0  0  0  0  0  0  0  0
   45.1310   35.7270   43.7570 C   0  0  0  0  0  0  0  0  0  0  0  0
   46.0870   34.7790   43.5020 C   0  0  0  0  0  0  0  0  0  0  0  0
   46.3110   33.8690   44.4910 N   0  0  0  0  0  0  0  0  0  0  0  0
   45.6630   33.8620   45.6550 C   0  0  0  0  0  0  0  0  0  0  0  0
   44.7210   34.7790   45.9330 N   0  0  0  0  0  0  0  0  0  0  0  0
   45.9980   32.8550   46.5980 N   0  0  0  0  0  0  0  0  0  0  0  0
   45.1940   32.5450   47.7830 C   0  0  0  0  0  0  0  0  0  0  0  0
   46.2680   32.2350   48.8020 C   0  0  0  0  0  0  0  0  0  0  0  0
   47.5730   32.1300   48.0550 C   0  0  0  0  0  0  0  0  0  0  0  0
   47.1210   31.9580   46.6240 C   0  0  1  0  0  0  0  0  0  0  0  0
   43.7000   36.4590   45.1840 H   0  0  0  0  0  0  0  0  0  0  0  0
   46.5970   34.7960   42.5680 H   0  0  0  0  0  0  0  0  0  0  0  0
   44.6990   33.4730   48.1440 H   0  0  0  0  0  0  0  0  0  0  0  0
   44.4710   31.7440   47.6240 H   0  0  0  0  0  0  0  0  0  0  0  0
   46.0560   31.2000   49.1820 H   0  0  0  0  0  0  0  0  0  0  0  0
   46.2890   32.9240   49.6570 H   0  0  0  0  0  0  0  0  0  0  0  0
   48.1760   31.2670   48.4160 H   0  0  0  0  0  0  0  0  0  0  0  0
   48.0980   33.1010   48.1840 H   0  0  0  0  0  0  0  0  0  0  0  0
   47.9320   32.2730   45.9360 H   0  0  0  0  0  0  0  0  0  0  0  0
   44.7570   36.7640   42.8410 N   0  0  0  0  0  0  0  0  0  0  0  0
   44.7290   36.5570   41.8320 H   0  0  0  0  0  0  0  0  0  0  0  0
   44.5150   37.7140   43.1700 H   0  0  0  0  0  0  0  0  0  0  0  0
   46.6660   30.2360   46.3750 S   0  0  0  0  0  0  0  0  0  0  0  0
   46.3330   29.8270   44.6900 C   0  0  0  0  0  0  0  0  0  0  0  0
   45.0960   30.1500   44.1710 C   0  0  0  0  0  0  0  0  0  0  0  0
   44.3330   30.6490   44.7900 H   0  0  0  0  0  0  0  0  0  0  0  0
   44.7730   29.8540   42.8420 C   0  0  0  0  0  0  0  0  0  0  0  0
   43.7860   30.1380   42.5080 H   0  0  0  0  0  0  0  0  0  0  0  0
   45.6570   29.2340   41.9890 C   0  0  0  0  0  0  0  0  0  0  0  0
   46.8680   28.9390   42.5600 C   0  0  0  0  0  0  0  0  0  0  0  0
   47.2370   29.1990   43.8330 C   0  0  0  0  0  0  0  0  0  0  0  0
   48.1970   28.9490   44.2380 H   0  0  0  0  0  0  0  0  0  0  0  0
   48.0890   28.1340   41.5430 S   0  0  0  0  0  0  0  0  0  0  0  0
   47.3590   27.9140   39.9350 C   0  0  0  0  0  0  0  0  0  0  0  0
   48.0790   27.3160   38.9350 C   0  0  0  0  0  0  0  0  0  0  0  0
   49.0990   26.9760   39.1300 H   0  0  0  0  0  0  0  0  0  0  0  0
   47.5630   27.1190   37.6650 C   0  0  0  0  0  0  0  0  0  0  0  0
   48.1260   26.6470   36.8740 H   0  0  0  0  0  0  0  0  0  0  0  0
   46.2760   27.5520   37.4350 C   0  0  0  0  0  0  0  0  0  0  0  0
   45.8470   27.4110   36.4550 H   0  0  0  0  0  0  0  0  0  0  0  0
   45.5870   28.1480   38.4710 C   0  0  0  0  0  0  0  0  0  0  0  0
   44.5710   28.4610   38.1950 H   0  0  0  0  0  0  0  0  0  0  0  0
   46.0760   28.3570   39.7420 C   0  0  0  0  0  0  0  0  0  0  0  0
   45.2260   28.9850   40.6700 N   0  0  0  0  0  0  0  0  0  0  0  0
   44.2730   29.2690   40.3830 H   0  0  0  0  0  0  0  0  0  0  0  0
  1 12  1  0  0  0  0
  1  6  1  0  0  0  0
  2  1  2  0  0  0  0
  3  2  1  0  0  0  0
  3  4  2  0  0  0  0
  4  5  1  0  0  0  0
  5  6  2  0  0  0  0
  5  7  1  0  0  0  0
  7 11  1  0  0  0  0
  7  8  1  0  0  0  0
  8 14  1  0  0  0  0
  8  9  1  0  0  0  0
  9 16  1  0  0  0  0
  9 17  1  0  0  0  0
 10 19  1  0  0  0  0
 10 18  1  0  0  0  0
 10  9  1  0  0  0  0
 11 20  1  6  0  0  0
 11 10  1  0  0  0  0
 13  3  1  0  0  0  0
 15  8  1  0  0  0  0
 21 23  1  0  0  0  0
 21  2  1  0  0  0  0
 22 21  1  0  0  0  0
 24 11  1  0  0  0  0
 25 24  1  0  0  0  0
 26 25  1  0  0  0  0
 26 27  1  0  0  0  0
 28 26  2  0  0  0  0
 29 28  1  0  0  0  0
 30 31  2  0  0  0  0
 30 28  1  0  0  0  0
 31 32  1  0  0  0  0
 32 33  1  0  0  0  0
 32 25  2  0  0  0  0
 34 31  1  0  0  0  0
 35 34  1  0  0  0  0
 36 37  1  0  0  0  0
 36 35  2  0  0  0  0
 38 36  1  0  0  0  0
 39 38  1  0  0  0  0
 40 38  2  0  0  0  0
 40 42  1  0  0  0  0
 41 40  1  0  0  0  0
 42 44  2  0  0  0  0
 43 42  1  0  0  0  0
 44 35  1  0  0  0  0
 44 45  1  0  0  0  0
 45 30  1  0  0  0  0
 46 45  1  0  0  0  0
M  END
>  <minimizedAffinity>
-4.76554775

>  <minimizedRMSD>
1.11045599

$$$$
