
 OpenBabel03252509003D

 58 62  0  0  1  0  0  0  0  0999 V2000
   44.6450   31.9290   38.9950 N   0  0  0  0  0  0  0  0  0  0  0  0
   43.3720   31.3370   39.1770 C   0  0  0  0  0  0  0  0  0  0  0  0
   42.6240   31.7910   40.4120 C   0  0  0  0  0  0  0  0  0  0  0  0
   42.8690   33.2180   40.7960 C   0  0  0  0  0  0  0  0  0  0  0  0
   43.7630   33.9240   39.8050 C   0  0  0  0  0  0  0  0  0  0  0  0
   45.0410   33.0130   39.7620 C   0  0  2  0  0  0  0  0  0  0  0  0
   43.3440   30.2480   39.1630 H   0  0  0  0  0  0  0  0  0  0  0  0
   42.7380   31.6680   38.3070 H   0  0  0  0  0  0  0  0  0  0  0  0
   42.8700   31.0950   41.2520 H   0  0  0  0  0  0  0  0  0  0  0  0
   41.5340   31.6720   40.2230 H   0  0  0  0  0  0  0  0  0  0  0  0
   41.9220   33.7720   40.9880 H   0  0  0  0  0  0  0  0  0  0  0  0
   43.4220   33.2270   41.7780 H   0  0  0  0  0  0  0  0  0  0  0  0
   43.3280   33.9950   38.8040 H   0  0  0  0  0  0  0  0  0  0  0  0
   44.0510   34.9050   40.2310 H   0  0  0  0  0  0  0  0  0  0  0  0
   45.2980   32.8550   40.8240 H   0  0  0  0  0  0  0  0  0  0  0  0
   45.6390   31.0300   38.4960 C   0  0  0  0  0  0  0  0  0  0  0  0
   46.6320   31.3150   38.9280 H   0  0  0  0  0  0  0  0  0  0  0  0
   45.7180   31.1280   37.4120 H   0  0  0  0  0  0  0  0  0  0  0  0
   45.3290   29.6440   38.9690 C   0  0  0  0  0  0  0  0  0  0  0  0
   44.2470   29.5430   39.2200 H   0  0  0  0  0  0  0  0  0  0  0  0
   45.8780   29.3480   39.8710 H   0  0  0  0  0  0  0  0  0  0  0  0
   47.0040   27.0310   36.8490 C   0  0  0  0  0  0  0  0  0  0  0  0
   46.7500   27.9440   37.8900 C   0  0  0  0  0  0  0  0  0  0  0  0
   45.5910   28.6820   37.8660 C   0  0  0  0  0  0  0  0  0  0  0  0
   44.7490   28.4940   36.8400 N   0  0  0  0  0  0  0  0  0  0  0  0
   45.0020   27.6170   35.8480 C   0  0  0  0  0  0  0  0  0  0  0  0
   46.1270   26.8810   35.8440 N   0  0  0  0  0  0  0  0  0  0  0  0
   47.9300   26.4610   36.8950 H   0  0  0  0  0  0  0  0  0  0  0  0
   47.4560   28.0740   38.7100 H   0  0  0  0  0  0  0  0  0  0  0  0
   44.2760   27.5190   35.0540 H   0  0  0  0  0  0  0  0  0  0  0  0
   45.9400   33.8240   39.0780 O   0  0  0  0  0  0  0  0  0  0  0  0
   47.7260   32.1720   40.1350 O   0  0  0  0  0  0  0  0  0  0  0  0
   47.4900   33.1710   39.0120 P   0  0  2  0  0  0  0  0  0  0  0  0
   48.5650   34.4650   39.3310 O   0  0  0  0  0  0  0  0  0  0  0  0
   48.7240   34.9880   38.5080 H   0  0  0  0  0  0  0  0  0  0  0  0
   47.8490   32.5480   37.5070 O   0  0  0  0  0  0  0  0  0  0  0  0
   48.9800   31.8670   37.1390 C   0  0  0  0  0  0  0  0  0  0  0  0
   50.2180   32.1870   37.6580 C   0  0  0  0  0  0  0  0  0  0  0  0
   50.2980   32.9920   38.3700 H   0  0  0  0  0  0  0  0  0  0  0  0
   51.3260   31.4680   37.2540 C   0  0  0  0  0  0  0  0  0  0  0  0
   52.2720   31.7890   37.7180 H   0  0  0  0  0  0  0  0  0  0  0  0
   51.2660   30.4310   36.3450 C   0  0  0  0  0  0  0  0  0  0  0  0
   50.0420   30.1000   35.8200 C   0  0  0  0  0  0  0  0  0  0  0  0
   48.9560   30.8250   36.2340 C   0  0  0  0  0  0  0  0  0  0  0  0
   47.9830   30.5620   35.8160 H   0  0  0  0  0  0  0  0  0  0  0  0
   49.9230   28.7690   34.6450 S   0  0  0  0  0  0  0  0  0  0  0  0
   51.5830   28.1530   34.4380 C   0  0  0  0  0  0  0  0  0  0  0  0
   51.7270   27.1240   33.5770 C   0  0  0  0  0  0  0  0  0  0  0  0
   50.9080   26.6770   33.0300 H   0  0  0  0  0  0  0  0  0  0  0  0
   52.9750   26.5780   33.3500 C   0  0  0  0  0  0  0  0  0  0  0  0
   53.0950   25.7540   32.6610 H   0  0  0  0  0  0  0  0  0  0  0  0
   54.0520   27.1130   34.0230 C   0  0  0  0  0  0  0  0  0  0  0  0
   55.0480   26.7170   33.8760 H   0  0  0  0  0  0  0  0  0  0  0  0
   53.8300   28.1650   34.8890 C   0  0  0  0  0  0  0  0  0  0  0  0
   54.7260   28.5470   35.3950 H   0  0  0  0  0  0  0  0  0  0  0  0
   52.6020   28.7390   35.1450 C   0  0  0  0  0  0  0  0  0  0  0  0
   52.4960   29.8160   36.0560 N   0  0  0  0  0  0  0  0  0  0  0  0
   53.3860   30.1250   36.4970 H   0  0  0  0  0  0  0  0  0  0  0  0
  1  2  1  0  0  0  0
  1  6  1  0  0  0  0
  2  3  1  0  0  0  0
  3  4  1  0  0  0  0
  3  9  1  0  0  0  0
  4 11  1  0  0  0  0
  4 12  1  0  0  0  0
  5 14  1  0  0  0  0
  5  4  1  0  0  0  0
  6  5  1  0  0  0  0
  6 15  1  1  0  0  0
  7  2  1  0  0  0  0
  8  2  1  0  0  0  0
 10  3  1  0  0  0  0
 13  5  1  0  0  0  0
 16 17  1  0  0  0  0
 16 19  1  0  0  0  0
 16  1  1  0  0  0  0
 18 16  1  0  0  0  0
 19 20  1  0  0  0  0
 19 21  1  0  0  0  0
 22 28  1  0  0  0  0
 22 23  1  0  0  0  0
 23 29  1  0  0  0  0
 24 23  2  0  0  0  0
 24 19  1  0  0  0  0
 25 24  1  0  0  0  0
 26 25  2  0  0  0  0
 27 26  1  0  0  0  0
 27 22  2  0  0  0  0
 30 26  1  0  0  0  0
 31  6  1  0  0  0  0
 33 31  1  0  0  0  0
 33 34  1  0  0  0  0
 33 32  2  1  0  0  0
 35 34  1  0  0  0  0
 36 33  1  0  0  0  0
 37 36  1  0  0  0  0
 37 38  1  0  0  0  0
 38 39  1  0  0  0  0
 40 38  2  0  0  0  0
 40 41  1  0  0  0  0
 42 40  1  0  0  0  0
 43 44  1  0  0  0  0
 43 42  2  0  0  0  0
 44 37  2  0  0  0  0
 45 44  1  0  0  0  0
 46 43  1  0  0  0  0
 47 46  1  0  0  0  0
 47 56  1  0  0  0  0
 48 47  2  0  0  0  0
 49 48  1  0  0  0  0
 50 48  1  0  0  0  0
 50 52  2  0  0  0  0
 51 50  1  0  0  0  0
 52 54  1  0  0  0  0
 53 52  1  0  0  0  0
 54 56  2  0  0  0  0
 54 55  1  0  0  0  0
 56 57  1  0  0  0  0
 57 42  1  0  0  0  0
 57 58  1  0  0  0  0
M  END
>  <minimizedAffinity>
-2.56763601

>  <minimizedRMSD>
11.2392998

$$$$
