
 OpenBabel03252502563D

 50 54  0  0  0  0  0  0  0  0999 V2000
   43.9070   26.3130   47.1090 O   0  0  0  0  0  0  0  0  0  0  0  0
   44.8760   27.3030   47.7380 P   0  0  2  0  0  0  0  0  0  0  0  0
   44.6760   27.3000   49.4070 O   0  0  0  0  0  0  0  0  0  0  0  0
   45.5290   27.2520   49.9130 H   0  0  0  0  0  0  0  0  0  0  0  0
   44.4540   28.8600   47.1840 O   0  0  0  0  0  0  0  0  0  0  0  0
   45.2290   30.0820   44.4520 Br  0  0  0  0  0  0  0  0  0  0  0  0
   45.7650   30.6580   46.2220 C   0  0  0  0  0  0  0  0  0  0  0  0
   46.5930   31.7450   46.2730 C   0  0  0  0  0  0  0  0  0  0  0  0
   46.9580   32.1300   47.5650 C   0  0  0  0  0  0  0  0  0  0  0  0
   46.5270   31.4770   48.7030 C   0  0  0  0  0  0  0  0  0  0  0  0
   45.6960   30.3930   48.5630 C   0  0  0  0  0  0  0  0  0  0  0  0
   45.3000   29.9640   47.3130 C   0  0  0  0  0  0  0  0  0  0  0  0
   47.6120   32.9820   47.6860 H   0  0  0  0  0  0  0  0  0  0  0  0
   46.8550   31.8380   49.6700 H   0  0  0  0  0  0  0  0  0  0  0  0
   45.3630   29.8880   49.4560 H   0  0  0  0  0  0  0  0  0  0  0  0
   47.1150   32.5170   45.1420 C   0  0  0  0  0  0  0  0  0  0  0  0
   48.1690   32.8470   45.2890 H   0  0  0  0  0  0  0  0  0  0  0  0
   47.1320   31.8240   44.2570 H   0  0  0  0  0  0  0  0  0  0  0  0
   44.6310   35.3000   45.2410 C   0  0  0  0  0  0  0  0  0  0  0  0
   44.8050   35.8770   43.9810 C   0  0  0  0  0  0  0  0  0  0  0  0
   45.7470   35.3180   43.1330 C   0  0  0  0  0  0  0  0  0  0  0  0
   46.4700   34.2420   43.5400 N   0  0  0  0  0  0  0  0  0  0  0  0
   46.2790   33.6950   44.7820 C   0  0  0  0  0  0  0  0  0  0  0  0
   45.3550   34.2490   45.6020 N   0  0  0  0  0  0  0  0  0  0  0  0
   43.9410   35.6270   45.9960 H   0  0  0  0  0  0  0  0  0  0  0  0
   44.1780   36.7310   43.7580 H   0  0  0  0  0  0  0  0  0  0  0  0
   45.8680   35.7770   42.1630 H   0  0  0  0  0  0  0  0  0  0  0  0
   46.4390   26.8680   47.3080 O   0  0  0  0  0  0  0  0  0  0  0  0
   47.0700   27.1140   46.1040 C   0  0  0  0  0  0  0  0  0  0  0  0
   46.6020   26.5300   44.9450 C   0  0  0  0  0  0  0  0  0  0  0  0
   45.7440   25.8910   45.0250 H   0  0  0  0  0  0  0  0  0  0  0  0
   47.2550   26.7960   43.7600 C   0  0  0  0  0  0  0  0  0  0  0  0
   46.8130   26.2920   42.9110 H   0  0  0  0  0  0  0  0  0  0  0  0
   48.3590   27.6110   43.6270 C   0  0  0  0  0  0  0  0  0  0  0  0
   48.7670   28.1570   44.8190 C   0  0  0  0  0  0  0  0  0  0  0  0
   48.1710   27.9350   46.0070 C   0  0  0  0  0  0  0  0  0  0  0  0
   48.5070   28.3750   46.9460 H   0  0  0  0  0  0  0  0  0  0  0  0
   50.1810   29.2410   44.8430 S   0  0  0  0  0  0  0  0  0  0  0  0
   50.7380   29.3350   43.1560 C   0  0  0  0  0  0  0  0  0  0  0  0
   51.8160   30.0870   42.7930 C   0  0  0  0  0  0  0  0  0  0  0  0
   52.3580   30.6520   43.5690 H   0  0  0  0  0  0  0  0  0  0  0  0
   52.3320   30.2270   41.5040 C   0  0  0  0  0  0  0  0  0  0  0  0
   53.1820   30.8370   41.3070 H   0  0  0  0  0  0  0  0  0  0  0  0
   51.6430   29.5130   40.5410 C   0  0  0  0  0  0  0  0  0  0  0  0
   51.9950   29.5800   39.5140 H   0  0  0  0  0  0  0  0  0  0  0  0
   50.5450   28.7440   40.8880 C   0  0  0  0  0  0  0  0  0  0  0  0
   50.0610   28.2110   40.0540 H   0  0  0  0  0  0  0  0  0  0  0  0
   50.0760   28.6380   42.1790 C   0  0  0  0  0  0  0  0  0  0  0  0
   48.9600   27.8230   42.3630 N   0  0  0  0  0  0  0  0  0  0  0  0
   48.5070   27.3220   41.5700 H   0  0  0  0  0  0  0  0  0  0  0  0
  2  1  2  6  0  0  0
  2  3  1  0  0  0  0
  3  4  1  0  0  0  0
  5 12  1  0  0  0  0
  5  2  1  0  0  0  0
  6  7  1  0  0  0  0
  7  8  2  0  0  0  0
  7 12  1  0  0  0  0
  8  9  1  0  0  0  0
  9 13  1  0  0  0  0
  9 10  2  0  0  0  0
 10 14  1  0  0  0  0
 11 10  1  0  0  0  0
 11 15  1  0  0  0  0
 12 11  2  0  0  0  0
 16 17  1  0  0  0  0
 16  8  1  0  0  0  0
 18 16  1  0  0  0  0
 19 24  1  0  0  0  0
 19 25  1  0  0  0  0
 20 19  2  0  0  0  0
 21 22  2  0  0  0  0
 21 20  1  0  0  0  0
 22 23  1  0  0  0  0
 23 16  1  0  0  0  0
 23 24  2  0  0  0  0
 26 20  1  0  0  0  0
 27 21  1  0  0  0  0
 28  2  1  0  0  0  0
 29 28  1  0  0  0  0
 30 31  1  0  0  0  0
 30 29  2  0  0  0  0
 32 30  1  0  0  0  0
 33 32  1  0  0  0  0
 34 32  2  0  0  0  0
 34 35  1  0  0  0  0
 35 38  1  0  0  0  0
 35 36  2  0  0  0  0
 36 29  1  0  0  0  0
 36 37  1  0  0  0  0
 39 38  1  0  0  0  0
 40 39  1  0  0  0  0
 40 41  1  0  0  0  0
 42 40  2  0  0  0  0
 43 42  1  0  0  0  0
 44 46  2  0  0  0  0
 44 42  1  0  0  0  0
 45 44  1  0  0  0  0
 46 48  1  0  0  0  0
 47 46  1  0  0  0  0
 48 49  1  0  0  0  0
 48 39  2  0  0  0  0
 49 34  1  0  0  0  0
 50 49  1  0  0  0  0
M  END
>  <minimizedAffinity>
-5.09763575

>  <minimizedRMSD>
3.56905341

$$$$
