
 OpenBabel03252502563D

 50 54  0  0  0  0  0  0  0  0999 V2000
   44.2140   26.1380   47.0270 O   0  0  0  0  0  0  0  0  0  0  0  0
   44.9280   27.1900   47.8630 P   0  0  2  0  0  0  0  0  0  0  0  0
   44.5330   26.9830   49.4830 O   0  0  0  0  0  0  0  0  0  0  0  0
   45.3160   27.0110   50.0940 H   0  0  0  0  0  0  0  0  0  0  0  0
   44.3290   28.7160   47.3900 O   0  0  0  0  0  0  0  0  0  0  0  0
   45.5750   29.9100   44.8250 Br  0  0  0  0  0  0  0  0  0  0  0  0
   45.6460   30.6050   46.6310 C   0  0  0  0  0  0  0  0  0  0  0  0
   46.3340   31.7750   46.7970 C   0  0  0  0  0  0  0  0  0  0  0  0
   46.3630   32.2440   48.1110 C   0  0  0  0  0  0  0  0  0  0  0  0
   45.7530   31.5920   49.1650 C   0  0  0  0  0  0  0  0  0  0  0  0
   45.0810   30.4220   48.9120 C   0  0  0  0  0  0  0  0  0  0  0  0
   45.0160   29.9070   47.6340 C   0  0  0  0  0  0  0  0  0  0  0  0
   46.8910   33.1640   48.3210 H   0  0  0  0  0  0  0  0  0  0  0  0
   45.8220   32.0230   50.1570 H   0  0  0  0  0  0  0  0  0  0  0  0
   44.6070   29.9180   49.7400 H   0  0  0  0  0  0  0  0  0  0  0  0
   47.0200   32.5540   45.7630 C   0  0  0  0  0  0  0  0  0  0  0  0
   48.0060   32.9510   46.0970 H   0  0  0  0  0  0  0  0  0  0  0  0
   47.2460   31.8470   44.9190 H   0  0  0  0  0  0  0  0  0  0  0  0
   44.5450   35.3220   45.3850 C   0  0  0  0  0  0  0  0  0  0  0  0
   44.7740   35.7260   44.0680 C   0  0  0  0  0  0  0  0  0  0  0  0
   45.7500   35.0600   43.3420 C   0  0  0  0  0  0  0  0  0  0  0  0
   46.4500   34.0500   43.9190 N   0  0  0  0  0  0  0  0  0  0  0  0
   46.2050   33.6730   45.2130 C   0  0  0  0  0  0  0  0  0  0  0  0
   45.2500   34.3290   45.9130 N   0  0  0  0  0  0  0  0  0  0  0  0
   43.8250   35.7450   46.0600 H   0  0  0  0  0  0  0  0  0  0  0  0
   44.1610   36.5420   43.7070 H   0  0  0  0  0  0  0  0  0  0  0  0
   45.9130   35.3860   42.3260 H   0  0  0  0  0  0  0  0  0  0  0  0
   46.5800   27.0420   47.6110 O   0  0  0  0  0  0  0  0  0  0  0  0
   47.2270   26.0640   46.8810 C   0  0  0  0  0  0  0  0  0  0  0  0
   47.5440   26.2840   45.5560 C   0  0  0  0  0  0  0  0  0  0  0  0
   47.2690   27.2300   45.1330 H   0  0  0  0  0  0  0  0  0  0  0  0
   48.1890   25.2870   44.8560 C   0  0  0  0  0  0  0  0  0  0  0  0
   48.3930   25.5560   43.8280 H   0  0  0  0  0  0  0  0  0  0  0  0
   48.5550   24.0620   45.3710 C   0  0  0  0  0  0  0  0  0  0  0  0
   48.2080   23.9150   46.6930 C   0  0  0  0  0  0  0  0  0  0  0  0
   47.5790   24.8500   47.4280 C   0  0  0  0  0  0  0  0  0  0  0  0
   47.3090   24.7190   48.4770 H   0  0  0  0  0  0  0  0  0  0  0  0
   48.6010   22.3920   47.5320 S   0  0  0  0  0  0  0  0  0  0  0  0
   49.4140   21.3750   46.3190 C   0  0  0  0  0  0  0  0  0  0  0  0
   49.8630   20.1210   46.6110 C   0  0  0  0  0  0  0  0  0  0  0  0
   49.7140   19.7270   47.6300 H   0  0  0  0  0  0  0  0  0  0  0  0
   50.5090   19.2470   45.7370 C   0  0  0  0  0  0  0  0  0  0  0  0
   50.8270   18.2800   46.0500 H   0  0  0  0  0  0  0  0  0  0  0  0
   50.6860   19.7550   44.4630 C   0  0  0  0  0  0  0  0  0  0  0  0
   51.1840   19.1230   43.7330 H   0  0  0  0  0  0  0  0  0  0  0  0
   50.2400   21.0260   44.1440 C   0  0  0  0  0  0  0  0  0  0  0  0
   50.4260   21.3440   43.1060 H   0  0  0  0  0  0  0  0  0  0  0  0
   49.6050   21.8520   45.0480 C   0  0  0  0  0  0  0  0  0  0  0  0
   49.2170   23.1000   44.5700 N   0  0  0  0  0  0  0  0  0  0  0  0
   49.3950   23.3960   43.5880 H   0  0  0  0  0  0  0  0  0  0  0  0
  2  1  2  6  0  0  0
  2  3  1  0  0  0  0
  3  4  1  0  0  0  0
  5 12  1  0  0  0  0
  5  2  1  0  0  0  0
  6  7  1  0  0  0  0
  7  8  2  0  0  0  0
  7 12  1  0  0  0  0
  8  9  1  0  0  0  0
  9 13  1  0  0  0  0
  9 10  2  0  0  0  0
 10 14  1  0  0  0  0
 11 10  1  0  0  0  0
 11 15  1  0  0  0  0
 12 11  2  0  0  0  0
 16 17  1  0  0  0  0
 16  8  1  0  0  0  0
 18 16  1  0  0  0  0
 19 24  1  0  0  0  0
 19 25  1  0  0  0  0
 20 19  2  0  0  0  0
 21 22  2  0  0  0  0
 21 20  1  0  0  0  0
 22 23  1  0  0  0  0
 23 16  1  0  0  0  0
 23 24  2  0  0  0  0
 26 20  1  0  0  0  0
 27 21  1  0  0  0  0
 28  2  1  0  0  0  0
 29 36  1  0  0  0  0
 29 28  1  0  0  0  0
 30 29  2  0  0  0  0
 31 30  1  0  0  0  0
 32 34  2  0  0  0  0
 32 30  1  0  0  0  0
 33 32  1  0  0  0  0
 34 35  1  0  0  0  0
 35 36  2  0  0  0  0
 35 38  1  0  0  0  0
 36 37  1  0  0  0  0
 39 40  1  0  0  0  0
 39 38  1  0  0  0  0
 40 41  1  0  0  0  0
 42 43  1  0  0  0  0
 42 40  2  0  0  0  0
 44 42  1  0  0  0  0
 45 44  1  0  0  0  0
 46 44  2  0  0  0  0
 46 48  1  0  0  0  0
 47 46  1  0  0  0  0
 48 39  2  0  0  0  0
 49 48  1  0  0  0  0
 49 34  1  0  0  0  0
 50 49  1  0  0  0  0
M  END
>  <minimizedAffinity>
-5.00611162

>  <minimizedRMSD>
1.28354144

$$$$
