
 OpenBabel03252502243D

 47 51  0  0  1  0  0  0  0  0999 V2000
   46.9770   34.6470   42.3210 N   0  0  0  0  0  0  0  0  0  0  0  0
   48.4130   34.8520   42.3850 C   0  0  0  0  0  0  0  0  0  0  0  0
   48.7130   35.6580   41.1020 C   0  0  0  0  0  0  0  0  0  0  0  0
   48.4750   34.7620   39.9130 C   0  0  0  0  0  0  0  0  0  0  0  0
   47.2170   33.9830   39.9790 C   0  0  0  0  0  0  0  0  0  0  0  0
   46.2870   34.3170   41.1000 C   0  0  1  0  0  0  0  0  0  0  0  0
   48.9440   33.8810   42.3330 H   0  0  0  0  0  0  0  0  0  0  0  0
   48.6600   35.4500   43.2750 H   0  0  0  0  0  0  0  0  0  0  0  0
   49.7590   35.9760   41.1290 H   0  0  0  0  0  0  0  0  0  0  0  0
   47.9780   36.4930   41.0900 H   0  0  0  0  0  0  0  0  0  0  0  0
   49.3400   34.0540   39.8750 H   0  0  0  0  0  0  0  0  0  0  0  0
   48.5750   35.3740   38.9890 H   0  0  0  0  0  0  0  0  0  0  0  0
   47.4040   32.8790   39.9700 H   0  0  0  0  0  0  0  0  0  0  0  0
   46.6520   34.1680   39.0360 H   0  0  0  0  0  0  0  0  0  0  0  0
   45.6560   35.1910   40.8540 H   0  0  0  0  0  0  0  0  0  0  0  0
   44.4840   35.8550   44.8440 C   0  0  0  0  0  0  0  0  0  0  0  0
   45.2220   35.8120   43.6540 C   0  0  0  0  0  0  0  0  0  0  0  0
   46.1750   34.7710   43.5070 C   0  0  0  0  0  0  0  0  0  0  0  0
   46.3100   33.8860   44.5240 N   0  0  0  0  0  0  0  0  0  0  0  0
   45.5760   33.9630   45.6600 C   0  0  0  0  0  0  0  0  0  0  0  0
   44.6640   34.9540   45.8100 N   0  0  0  0  0  0  0  0  0  0  0  0
   43.7970   36.6950   44.8250 H   0  0  0  0  0  0  0  0  0  0  0  0
   45.1400   36.4970   42.8280 H   0  0  0  0  0  0  0  0  0  0  0  0
   45.6920   33.2560   46.4580 H   0  0  0  0  0  0  0  0  0  0  0  0
   45.4630   33.2160   41.3230 O   0  0  0  0  0  0  0  0  0  0  0  0
   44.0990   33.1400   41.1130 C   0  0  0  0  0  0  0  0  0  0  0  0
   43.2600   34.0130   40.4550 C   0  0  0  0  0  0  0  0  0  0  0  0
   43.7380   34.8720   40.0500 H   0  0  0  0  0  0  0  0  0  0  0  0
   41.9150   33.7200   40.3740 C   0  0  0  0  0  0  0  0  0  0  0  0
   41.3380   34.4820   39.8300 H   0  0  0  0  0  0  0  0  0  0  0  0
   41.3200   32.5990   40.9100 C   0  0  0  0  0  0  0  0  0  0  0  0
   42.1570   31.7300   41.5650 C   0  0  0  0  0  0  0  0  0  0  0  0
   43.4940   32.0010   41.6560 C   0  0  0  0  0  0  0  0  0  0  0  0
   44.0820   31.2500   42.1970 H   0  0  0  0  0  0  0  0  0  0  0  0
   41.4550   30.2570   42.2820 S   0  0  0  0  0  0  0  0  0  0  0  0
   39.7190   30.3140   41.9270 C   0  0  0  0  0  0  0  0  0  0  0  0
   38.9800   29.2680   42.3930 C   0  0  0  0  0  0  0  0  0  0  0  0
   39.3950   28.4500   42.9400 H   0  0  0  0  0  0  0  0  0  0  0  0
   37.6180   29.2360   42.1590 C   0  0  0  0  0  0  0  0  0  0  0  0
   36.9410   28.4570   42.4820 H   0  0  0  0  0  0  0  0  0  0  0  0
   37.0490   30.2760   41.4540 C   0  0  0  0  0  0  0  0  0  0  0  0
   35.9860   30.2830   41.2530 H   0  0  0  0  0  0  0  0  0  0  0  0
   37.8560   31.3050   41.0120 C   0  0  0  0  0  0  0  0  0  0  0  0
   37.3390   32.0990   40.4590 H   0  0  0  0  0  0  0  0  0  0  0  0
   39.2190   31.3790   41.2220 C   0  0  0  0  0  0  0  0  0  0  0  0
   39.9270   32.4780   40.7220 N   0  0  0  0  0  0  0  0  0  0  0  0
   39.3950   33.2070   40.2030 H   0  0  0  0  0  0  0  0  0  0  0  0
  1  2  1  0  0  0  0
  1 18  1  0  0  0  0
  2  8  1  0  0  0  0
  3  9  1  0  0  0  0
  3  2  1  0  0  0  0
  4  5  1  0  0  0  0
  4  3  1  0  0  0  0
  5  6  1  0  0  0  0
  6 15  1  6  0  0  0
  6 25  1  0  0  0  0
  6  1  1  0  0  0  0
  7  2  1  0  0  0  0
 10  3  1  0  0  0  0
 11  4  1  0  0  0  0
 12  4  1  0  0  0  0
 13  5  1  0  0  0  0
 14  5  1  0  0  0  0
 16 21  1  0  0  0  0
 17 16  2  0  0  0  0
 18 17  1  0  0  0  0
 18 19  2  0  0  0  0
 19 20  1  0  0  0  0
 20 21  2  0  0  0  0
 20 24  1  0  0  0  0
 22 16  1  0  0  0  0
 23 17  1  0  0  0  0
 26 25  1  0  0  0  0
 26 33  1  0  0  0  0
 27 26  2  0  0  0  0
 28 27  1  0  0  0  0
 29 27  1  0  0  0  0
 29 31  2  0  0  0  0
 30 29  1  0  0  0  0
 31 32  1  0  0  0  0
 32 33  2  0  0  0  0
 32 35  1  0  0  0  0
 33 34  1  0  0  0  0
 36 35  1  0  0  0  0
 36 37  1  0  0  0  0
 37 38  1  0  0  0  0
 39 37  2  0  0  0  0
 39 40  1  0  0  0  0
 41 39  1  0  0  0  0
 42 41  1  0  0  0  0
 43 45  1  0  0  0  0
 43 41  2  0  0  0  0
 44 43  1  0  0  0  0
 45 36  2  0  0  0  0
 46 31  1  0  0  0  0
 46 45  1  0  0  0  0
 47 46  1  0  0  0  0
M  END
>  <minimizedAffinity>
-7.38632917

>  <minimizedRMSD>
0.303436726

$$$$
