
 OpenBabel03242516233D

 42 46  0  0  0  0  0  0  0  0999 V2000
   49.4730   29.5690   49.1960 C   0  0  0  0  0  0  0  0  0  0  0  0
   48.9400   28.7030   48.2640 C   0  0  0  0  0  0  0  0  0  0  0  0
   48.2720   29.0820   47.5010 H   0  0  0  0  0  0  0  0  0  0  0  0
   49.2730   27.3660   48.3300 C   0  0  0  0  0  0  0  0  0  0  0  0
   48.8070   26.7430   47.5540 H   0  0  0  0  0  0  0  0  0  0  0  0
   50.1150   26.8210   49.2740 C   0  0  0  0  0  0  0  0  0  0  0  0
   50.6150   27.7270   50.1730 C   0  0  0  0  0  0  0  0  0  0  0  0
   50.3220   29.0630   50.1600 C   0  0  0  0  0  0  0  0  0  0  0  0
   50.7480   29.7170   50.8920 H   0  0  0  0  0  0  0  0  0  0  0  0
   51.7150   27.1260   51.4380 S   0  0  0  0  0  0  0  0  0  0  0  0
   51.8890   25.3740   51.1820 C   0  0  0  0  0  0  0  0  0  0  0  0
   52.6930   24.6600   52.0290 C   0  0  0  0  0  0  0  0  0  0  0  0
   53.2050   25.1740   52.8370 H   0  0  0  0  0  0  0  0  0  0  0  0
   52.8650   23.3020   51.8790 C   0  0  0  0  0  0  0  0  0  0  0  0
   53.4980   22.7390   52.5480 H   0  0  0  0  0  0  0  0  0  0  0  0
   52.1930   22.6920   50.8400 C   0  0  0  0  0  0  0  0  0  0  0  0
   52.3080   21.6290   50.6950 H   0  0  0  0  0  0  0  0  0  0  0  0
   51.3940   23.4480   50.0080 C   0  0  0  0  0  0  0  0  0  0  0  0
   50.8990   22.8840   49.2110 H   0  0  0  0  0  0  0  0  0  0  0  0
   51.2060   24.8060   50.1380 C   0  0  0  0  0  0  0  0  0  0  0  0
   50.3540   25.4300   49.2030 N   0  0  0  0  0  0  0  0  0  0  0  0
   49.9000   24.8680   48.4580 H   0  0  0  0  0  0  0  0  0  0  0  0
   49.1200   31.3140   49.2160 S   0  0  0  0  0  0  0  0  0  0  0  0
   46.0420   32.7590   47.0620 C   0  0  0  0  0  0  0  0  0  0  0  0
   47.2930   32.4550   47.5360 C   0  0  0  0  0  0  0  0  0  0  0  0
   47.4790   31.6720   48.6540 C   0  0  0  0  0  0  0  0  0  0  0  0
   46.3770   31.1650   49.3370 C   0  0  0  0  0  0  0  0  0  0  0  0
   45.1120   31.4570   48.8810 C   0  0  0  0  0  0  0  0  0  0  0  0
   44.9650   32.2470   47.7540 C   0  0  0  0  0  0  0  0  0  0  0  0
   48.1770   32.8280   47.0340 H   0  0  0  0  0  0  0  0  0  0  0  0
   46.5930   30.5560   50.2100 H   0  0  0  0  0  0  0  0  0  0  0  0
   44.2770   31.0430   49.4420 H   0  0  0  0  0  0  0  0  0  0  0  0
   43.9490   32.4460   47.4360 H   0  0  0  0  0  0  0  0  0  0  0  0
   44.7180   35.3490   44.8450 C   0  0  0  0  0  0  0  0  0  0  0  0
   45.4610   35.2100   43.6820 C   0  0  0  0  0  0  0  0  0  0  0  0
   46.4290   34.2180   43.6550 C   0  0  0  0  0  0  0  0  0  0  0  0
   46.6350   33.4070   44.7470 N   0  0  0  0  0  0  0  0  0  0  0  0
   45.8660   33.5890   45.8750 C   0  0  0  0  0  0  0  0  0  0  0  0
   44.9160   34.5590   45.9110 N   0  0  0  0  0  0  0  0  0  0  0  0
   43.9700   36.1350   44.8330 H   0  0  0  0  0  0  0  0  0  0  0  0
   45.3190   35.8370   42.8080 H   0  0  0  0  0  0  0  0  0  0  0  0
   47.0690   34.0250   42.7890 H   0  0  0  0  0  0  0  0  0  0  0  0
  1 23  1  0  0  0  0
  1  8  1  0  0  0  0
  2  4  1  0  0  0  0
  2  1  2  0  0  0  0
  3  2  1  0  0  0  0
  4  6  2  0  0  0  0
  5  4  1  0  0  0  0
  6  7  1  0  0  0  0
  7 10  1  0  0  0  0
  8  7  2  0  0  0  0
  8  9  1  0  0  0  0
 11 10  1  0  0  0  0
 11 12  1  0  0  0  0
 12 13  1  0  0  0  0
 14 12  2  0  0  0  0
 14 15  1  0  0  0  0
 16 14  1  0  0  0  0
 17 16  1  0  0  0  0
 18 20  1  0  0  0  0
 18 16  2  0  0  0  0
 19 18  1  0  0  0  0
 20 11  2  0  0  0  0
 21  6  1  0  0  0  0
 21 20  1  0  0  0  0
 22 21  1  0  0  0  0
 24 25  2  0  0  0  0
 24 29  1  0  0  0  0
 25 26  1  0  0  0  0
 26 23  1  0  0  0  0
 26 27  2  0  0  0  0
 27 31  1  0  0  0  0
 28 27  1  0  0  0  0
 28 32  1  0  0  0  0
 29 28  2  0  0  0  0
 30 25  1  0  0  0  0
 33 29  1  0  0  0  0
 34 39  1  0  0  0  0
 35 34  2  0  0  0  0
 36 35  1  0  0  0  0
 36 37  2  0  0  0  0
 37 38  1  0  0  0  0
 38 39  2  0  0  0  0
 38 24  1  0  0  0  0
 40 34  1  0  0  0  0
 41 35  1  0  0  0  0
 42 36  1  0  0  0  0
M  END
>  <minimizedAffinity>
-6.50602674

>  <minimizedRMSD>
1.82762802

$$$$
