
 OpenBabel03252506133D

 49 53  0  0  0  0  0  0  0  0999 V2000
   48.1290   34.6300   37.0730 O   0  0  0  0  0  0  0  0  0  0  0  0
   47.2620   33.4080   37.2610 P   0  0  2  0  0  0  0  0  0  0  0  0
   45.9190   33.4620   36.2120 O   0  0  0  0  0  0  0  0  0  0  0  0
   45.9840   34.2770   35.6900 H   0  0  0  0  0  0  0  0  0  0  0  0
   46.6890   33.2710   38.8400 O   0  0  0  0  0  0  0  0  0  0  0  0
   45.1900   33.4220   41.2200 F   0  0  0  0  0  0  0  0  0  0  0  0
   46.3550   34.0350   41.0850 C   0  0  0  0  0  0  0  0  0  0  0  0
   46.8530   34.7720   42.1440 C   0  0  0  0  0  0  0  0  0  0  0  0
   48.0750   35.4510   42.0940 C   0  0  0  0  0  0  0  0  0  0  0  0
   48.8370   35.3900   40.9270 C   0  0  0  0  0  0  0  0  0  0  0  0
   48.3120   34.6470   39.8930 C   0  0  0  0  0  0  0  0  0  0  0  0
   47.1260   33.9830   39.9270 C   0  0  0  0  0  0  0  0  0  0  0  0
   48.3990   36.0120   42.9740 H   0  0  0  0  0  0  0  0  0  0  0  0
   49.7720   35.9290   40.9340 H   0  0  0  0  0  0  0  0  0  0  0  0
   48.9990   34.6750   39.0560 H   0  0  0  0  0  0  0  0  0  0  0  0
   45.6660   34.0580   45.5420 C   0  0  0  0  0  0  0  0  0  0  0  0
   44.6800   35.0460   45.7200 C   0  0  0  0  0  0  0  0  0  0  0  0
   44.4220   35.9660   44.6620 C   0  0  0  0  0  0  0  0  0  0  0  0
   45.1680   35.8150   43.5250 N   0  0  0  0  0  0  0  0  0  0  0  0
   46.0940   34.8640   43.3960 C   0  0  0  0  0  0  0  0  0  0  0  0
   46.3380   33.9970   44.3940 N   0  0  0  0  0  0  0  0  0  0  0  0
   44.1090   35.1470   46.6120 H   0  0  0  0  0  0  0  0  0  0  0  0
   43.6710   36.7350   44.7680 H   0  0  0  0  0  0  0  0  0  0  0  0
   45.9080   33.1530   46.6040 N   0  0  0  0  0  0  0  0  0  0  0  0
   45.7420   32.1160   46.6780 H   0  0  0  0  0  0  0  0  0  0  0  0
   46.3180   33.4190   47.5300 H   0  0  0  0  0  0  0  0  0  0  0  0
   48.1410   32.0470   36.7630 O   0  0  0  0  0  0  0  0  0  0  0  0
   47.5000   31.1180   35.9520 C   0  0  0  0  0  0  0  0  0  0  0  0
   46.5930   30.2650   36.5500 C   0  0  0  0  0  0  0  0  0  0  0  0
   46.3990   30.3330   37.6150 H   0  0  0  0  0  0  0  0  0  0  0  0
   45.9440   29.3330   35.7600 C   0  0  0  0  0  0  0  0  0  0  0  0
   45.2370   28.6890   36.3070 H   0  0  0  0  0  0  0  0  0  0  0  0
   46.1420   29.1900   34.4010 C   0  0  0  0  0  0  0  0  0  0  0  0
   47.0360   30.0410   33.8500 C   0  0  0  0  0  0  0  0  0  0  0  0
   47.6860   30.9630   34.5890 C   0  0  0  0  0  0  0  0  0  0  0  0
   48.4130   31.6490   34.1260 H   0  0  0  0  0  0  0  0  0  0  0  0
   47.3500   29.9240   32.0990 S   0  0  0  0  0  0  0  0  0  0  0  0
   46.3050   28.6030   31.5130 C   0  0  0  0  0  0  0  0  0  0  0  0
   46.3700   28.3180   30.1710 C   0  0  0  0  0  0  0  0  0  0  0  0
   47.0230   28.8670   29.5010 H   0  0  0  0  0  0  0  0  0  0  0  0
   45.6010   27.3170   29.6310 C   0  0  0  0  0  0  0  0  0  0  0  0
   45.6420   27.0840   28.5880 H   0  0  0  0  0  0  0  0  0  0  0  0
   44.7750   26.6200   30.4740 C   0  0  0  0  0  0  0  0  0  0  0  0
   44.1720   25.8340   30.0440 H   0  0  0  0  0  0  0  0  0  0  0  0
   44.7510   26.9490   31.8010 C   0  0  0  0  0  0  0  0  0  0  0  0
   44.0610   26.3350   32.3890 H   0  0  0  0  0  0  0  0  0  0  0  0
   45.4990   27.9410   32.4010 C   0  0  0  0  0  0  0  0  0  0  0  0
   45.3980   28.1930   33.7680 N   0  0  0  0  0  0  0  0  0  0  0  0
   44.7320   27.5910   34.2970 H   0  0  0  0  0  0  0  0  0  0  0  0
  2  1  2  6  0  0  0
  2  5  1  0  0  0  0
  3  2  1  0  0  0  0
  4  3  1  0  0  0  0
  5 12  1  0  0  0  0
  7  6  1  0  0  0  0
  7  8  1  0  0  0  0
  8 20  1  0  0  0  0
  9  8  2  0  0  0  0
  9 13  1  0  0  0  0
 10 14  1  0  0  0  0
 10  9  1  0  0  0  0
 11 12  1  0  0  0  0
 11 10  2  0  0  0  0
 12  7  2  0  0  0  0
 15 11  1  0  0  0  0
 16 17  1  0  0  0  0
 16 24  1  0  0  0  0
 17 22  1  0  0  0  0
 18 23  1  0  0  0  0
 18 17  2  0  0  0  0
 19 18  1  0  0  0  0
 20 19  2  0  0  0  0
 20 21  1  0  0  0  0
 21 16  2  0  0  0  0
 24 25  1  0  0  0  0
 24 26  1  0  0  0  0
 27  2  1  0  0  0  0
 28 29  1  0  0  0  0
 28 27  1  0  0  0  0
 29 30  1  0  0  0  0
 31 32  1  0  0  0  0
 31 29  2  0  0  0  0
 33 31  1  0  0  0  0
 34 33  2  0  0  0  0
 34 35  1  0  0  0  0
 35 28  2  0  0  0  0
 36 35  1  0  0  0  0
 37 34  1  0  0  0  0
 38 37  1  0  0  0  0
 38 47  1  0  0  0  0
 39 38  2  0  0  0  0
 40 39  1  0  0  0  0
 41 39  1  0  0  0  0
 41 43  2  0  0  0  0
 42 41  1  0  0  0  0
 43 45  1  0  0  0  0
 44 43  1  0  0  0  0
 45 46  1  0  0  0  0
 45 47  2  0  0  0  0
 47 48  1  0  0  0  0
 48 49  1  0  0  0  0
 48 33  1  0  0  0  0
M  END
>  <minimizedAffinity>
-7.43415737

>  <minimizedRMSD>
2.22279525

$$$$
