
 OpenBabel03252502563D

 50 54  0  0  0  0  0  0  0  0999 V2000
   43.9070   26.3130   47.1090 O   0  0  0  0  0  0  0  0  0  0  0  0
   44.8760   27.3030   47.7380 P   0  0  2  0  0  0  0  0  0  0  0  0
   44.6760   27.3000   49.4070 O   0  0  0  0  0  0  0  0  0  0  0  0
   45.5290   27.2520   49.9130 H   0  0  0  0  0  0  0  0  0  0  0  0
   44.4540   28.8600   47.1840 O   0  0  0  0  0  0  0  0  0  0  0  0
   45.2280   30.0820   44.4520 Br  0  0  0  0  0  0  0  0  0  0  0  0
   45.7650   30.6580   46.2220 C   0  0  0  0  0  0  0  0  0  0  0  0
   46.5930   31.7450   46.2730 C   0  0  0  0  0  0  0  0  0  0  0  0
   46.9580   32.1300   47.5650 C   0  0  0  0  0  0  0  0  0  0  0  0
   46.5270   31.4770   48.7030 C   0  0  0  0  0  0  0  0  0  0  0  0
   45.6960   30.3930   48.5630 C   0  0  0  0  0  0  0  0  0  0  0  0
   45.3000   29.9640   47.3130 C   0  0  0  0  0  0  0  0  0  0  0  0
   47.6130   32.9820   47.6860 H   0  0  0  0  0  0  0  0  0  0  0  0
   46.8560   31.8380   49.6700 H   0  0  0  0  0  0  0  0  0  0  0  0
   45.3630   29.8880   49.4570 H   0  0  0  0  0  0  0  0  0  0  0  0
   47.1150   32.5160   45.1420 C   0  0  0  0  0  0  0  0  0  0  0  0
   48.1690   32.8470   45.2890 H   0  0  0  0  0  0  0  0  0  0  0  0
   47.1320   31.8240   44.2570 H   0  0  0  0  0  0  0  0  0  0  0  0
   44.6310   35.3000   45.2410 C   0  0  0  0  0  0  0  0  0  0  0  0
   44.8050   35.8760   43.9810 C   0  0  0  0  0  0  0  0  0  0  0  0
   45.7480   35.3180   43.1330 C   0  0  0  0  0  0  0  0  0  0  0  0
   46.4700   34.2420   43.5400 N   0  0  0  0  0  0  0  0  0  0  0  0
   46.2790   33.6950   44.7820 C   0  0  0  0  0  0  0  0  0  0  0  0
   45.3550   34.2480   45.6020 N   0  0  0  0  0  0  0  0  0  0  0  0
   43.9410   35.6260   45.9960 H   0  0  0  0  0  0  0  0  0  0  0  0
   44.1790   36.7310   43.7580 H   0  0  0  0  0  0  0  0  0  0  0  0
   45.8690   35.7770   42.1630 H   0  0  0  0  0  0  0  0  0  0  0  0
   46.4390   26.8680   47.3080 O   0  0  0  0  0  0  0  0  0  0  0  0
   47.0690   27.1140   46.1040 C   0  0  0  0  0  0  0  0  0  0  0  0
   46.6020   26.5300   44.9450 C   0  0  0  0  0  0  0  0  0  0  0  0
   45.7450   25.8900   45.0250 H   0  0  0  0  0  0  0  0  0  0  0  0
   47.2550   26.7960   43.7590 C   0  0  0  0  0  0  0  0  0  0  0  0
   46.8130   26.2920   42.9110 H   0  0  0  0  0  0  0  0  0  0  0  0
   48.3570   27.6120   43.6260 C   0  0  0  0  0  0  0  0  0  0  0  0
   48.7660   28.1570   44.8180 C   0  0  0  0  0  0  0  0  0  0  0  0
   48.1710   27.9350   46.0050 C   0  0  0  0  0  0  0  0  0  0  0  0
   48.5060   28.3750   46.9450 H   0  0  0  0  0  0  0  0  0  0  0  0
   50.1800   29.2420   44.8440 S   0  0  0  0  0  0  0  0  0  0  0  0
   50.7380   29.3360   43.1550 C   0  0  0  0  0  0  0  0  0  0  0  0
   51.8150   30.0890   42.7920 C   0  0  0  0  0  0  0  0  0  0  0  0
   52.3560   30.6530   43.5680 H   0  0  0  0  0  0  0  0  0  0  0  0
   52.3310   30.2280   41.5030 C   0  0  0  0  0  0  0  0  0  0  0  0
   53.1810   30.8380   41.3060 H   0  0  0  0  0  0  0  0  0  0  0  0
   51.6420   29.5140   40.5400 C   0  0  0  0  0  0  0  0  0  0  0  0
   51.9930   29.5820   39.5140 H   0  0  0  0  0  0  0  0  0  0  0  0
   50.5440   28.7440   40.8880 C   0  0  0  0  0  0  0  0  0  0  0  0
   50.0610   28.2120   40.0530 H   0  0  0  0  0  0  0  0  0  0  0  0
   50.0740   28.6400   42.1800 C   0  0  0  0  0  0  0  0  0  0  0  0
   48.9600   27.8240   42.3620 N   0  0  0  0  0  0  0  0  0  0  0  0
   48.5060   27.3230   41.5710 H   0  0  0  0  0  0  0  0  0  0  0  0
  2  1  2  6  0  0  0
  2  3  1  0  0  0  0
  3  4  1  0  0  0  0
  5 12  1  0  0  0  0
  5  2  1  0  0  0  0
  6  7  1  0  0  0  0
  7  8  2  0  0  0  0
  7 12  1  0  0  0  0
  8  9  1  0  0  0  0
  9 13  1  0  0  0  0
  9 10  2  0  0  0  0
 10 14  1  0  0  0  0
 11 10  1  0  0  0  0
 11 15  1  0  0  0  0
 12 11  2  0  0  0  0
 16 17  1  0  0  0  0
 16  8  1  0  0  0  0
 18 16  1  0  0  0  0
 19 24  1  0  0  0  0
 19 25  1  0  0  0  0
 20 19  2  0  0  0  0
 21 22  2  0  0  0  0
 21 20  1  0  0  0  0
 22 23  1  0  0  0  0
 23 16  1  0  0  0  0
 23 24  2  0  0  0  0
 26 20  1  0  0  0  0
 27 21  1  0  0  0  0
 28  2  1  0  0  0  0
 29 28  1  0  0  0  0
 30 31  1  0  0  0  0
 30 29  2  0  0  0  0
 32 30  1  0  0  0  0
 33 32  1  0  0  0  0
 34 32  2  0  0  0  0
 34 35  1  0  0  0  0
 35 38  1  0  0  0  0
 35 36  2  0  0  0  0
 36 29  1  0  0  0  0
 36 37  1  0  0  0  0
 39 38  1  0  0  0  0
 40 39  1  0  0  0  0
 40 41  1  0  0  0  0
 42 40  2  0  0  0  0
 43 42  1  0  0  0  0
 44 46  2  0  0  0  0
 44 42  1  0  0  0  0
 45 44  1  0  0  0  0
 46 48  1  0  0  0  0
 47 46  1  0  0  0  0
 48 49  1  0  0  0  0
 48 39  2  0  0  0  0
 49 34  1  0  0  0  0
 50 49  1  0  0  0  0
M  END
>  <minimizedAffinity>
-5.09715843

>  <minimizedRMSD>
3.77223015

$$$$
