
 OpenBabel03242517433D

 32 35  0  0  0  0  0  0  0  0999 V2000
   44.6690   34.6410   41.3410 C   0  0  0  0  0  0  0  0  0  0  0  0
   43.8400   35.7040   41.6330 C   0  0  0  0  0  0  0  0  0  0  0  0
   44.1940   36.5200   42.2460 H   0  0  0  0  0  0  0  0  0  0  0  0
   42.5590   35.6830   41.1200 C   0  0  0  0  0  0  0  0  0  0  0  0
   41.9540   36.5480   41.3850 H   0  0  0  0  0  0  0  0  0  0  0  0
   42.0250   34.6850   40.3330 C   0  0  0  0  0  0  0  0  0  0  0  0
   42.8930   33.6540   40.0730 C   0  0  0  0  0  0  0  0  0  0  0  0
   44.1720   33.6260   40.5570 C   0  0  0  0  0  0  0  0  0  0  0  0
   44.8430   32.8020   40.3400 H   0  0  0  0  0  0  0  0  0  0  0  0
   42.3410   32.2960   39.0690 S   0  0  0  0  0  0  0  0  0  0  0  0
   40.6550   32.6630   38.6220 C   0  0  0  0  0  0  0  0  0  0  0  0
   39.9650   31.7960   37.8500 C   0  0  0  0  0  0  0  0  0  0  0  0
   40.4430   30.8700   37.4990 H   0  0  0  0  0  0  0  0  0  0  0  0
   38.6470   32.0150   37.4620 C   0  0  0  0  0  0  0  0  0  0  0  0
   38.1160   31.3160   36.8480 H   0  0  0  0  0  0  0  0  0  0  0  0
   38.0700   33.1820   37.9130 C   0  0  0  0  0  0  0  0  0  0  0  0
   37.0460   33.3710   37.6220 H   0  0  0  0  0  0  0  0  0  0  0  0
   38.7980   34.0350   38.6920 C   0  0  0  0  0  0  0  0  0  0  0  0
   38.2560   34.9350   39.0030 H   0  0  0  0  0  0  0  0  0  0  0  0
   40.1030   33.8330   39.0860 C   0  0  0  0  0  0  0  0  0  0  0  0
   40.7120   34.8080   39.8910 N   0  0  0  0  0  0  0  0  0  0  0  0
   40.1630   35.6510   40.1650 H   0  0  0  0  0  0  0  0  0  0  0  0
   46.3450   34.5700   41.9550 S   0  0  0  0  0  0  0  0  0  0  0  0
   45.3070   34.6120   44.5320 C   0  0  0  0  0  0  0  0  0  0  0  0
   46.2460   34.0160   43.6570 C   0  0  0  0  0  0  0  0  0  0  0  0
   47.0650   33.0120   44.1550 C   0  0  0  0  0  0  0  0  0  0  0  0
   46.9360   32.6390   45.4590 N   0  0  0  0  0  0  0  0  0  0  0  0
   46.0230   33.2350   46.2650 C   0  0  0  0  0  0  0  0  0  0  0  0
   45.2180   34.2060   45.8180 N   0  0  0  0  0  0  0  0  0  0  0  0
   44.6800   35.3830   44.1410 H   0  0  0  0  0  0  0  0  0  0  0  0
   47.7830   32.5460   43.5150 H   0  0  0  0  0  0  0  0  0  0  0  0
   46.0340   32.8380   47.2720 H   0  0  0  0  0  0  0  0  0  0  0  0
  1  2  1  0  0  0  0
  1 23  1  0  0  0  0
  2  3  1  0  0  0  0
  4  5  1  0  0  0  0
  4  2  2  0  0  0  0
  6  4  1  0  0  0  0
  7  6  2  0  0  0  0
  7  8  1  0  0  0  0
  8  1  2  0  0  0  0
  9  8  1  0  0  0  0
 10  7  1  0  0  0  0
 11 10  1  0  0  0  0
 11 20  1  0  0  0  0
 12 11  2  0  0  0  0
 13 12  1  0  0  0  0
 14 12  1  0  0  0  0
 14 16  2  0  0  0  0
 15 14  1  0  0  0  0
 16 18  1  0  0  0  0
 17 16  1  0  0  0  0
 18 19  1  0  0  0  0
 18 20  2  0  0  0  0
 20 21  1  0  0  0  0
 21 22  1  0  0  0  0
 21  6  1  0  0  0  0
 23 25  1  0  0  0  0
 24 29  1  0  0  0  0
 25 26  1  0  0  0  0
 25 24  2  0  0  0  0
 26 27  2  0  0  0  0
 27 28  1  0  0  0  0
 28 32  1  0  0  0  0
 29 28  2  0  0  0  0
 30 24  1  0  0  0  0
 31 26  1  0  0  0  0
M  END
>  <minimizedAffinity>
-5.92322159

>  <minimizedRMSD>
2.57689595

$$$$
