
 OpenBabel03252502253D

 47 51  0  0  1  0  0  0  0  0999 V2000
   46.9800   34.6400   42.3290 N   0  0  0  0  0  0  0  0  0  0  0  0
   48.4160   34.8450   42.3920 C   0  0  0  0  0  0  0  0  0  0  0  0
   48.7140   35.6560   41.1120 C   0  0  0  0  0  0  0  0  0  0  0  0
   48.4750   34.7650   39.9190 C   0  0  0  0  0  0  0  0  0  0  0  0
   47.2170   33.9850   39.9840 C   0  0  0  0  0  0  0  0  0  0  0  0
   46.2890   34.3150   41.1070 C   0  0  1  0  0  0  0  0  0  0  0  0
   48.9470   33.8740   42.3350 H   0  0  0  0  0  0  0  0  0  0  0  0
   48.6640   35.4390   43.2840 H   0  0  0  0  0  0  0  0  0  0  0  0
   49.7610   35.9740   41.1390 H   0  0  0  0  0  0  0  0  0  0  0  0
   47.9800   36.4910   41.1040 H   0  0  0  0  0  0  0  0  0  0  0  0
   49.3410   34.0570   39.8780 H   0  0  0  0  0  0  0  0  0  0  0  0
   48.5740   35.3810   38.9980 H   0  0  0  0  0  0  0  0  0  0  0  0
   47.4040   32.8810   39.9710 H   0  0  0  0  0  0  0  0  0  0  0  0
   46.6510   34.1740   39.0420 H   0  0  0  0  0  0  0  0  0  0  0  0
   45.6580   35.1900   40.8650 H   0  0  0  0  0  0  0  0  0  0  0  0
   44.4860   35.8340   44.8570 C   0  0  0  0  0  0  0  0  0  0  0  0
   45.2220   35.7960   43.6660 C   0  0  0  0  0  0  0  0  0  0  0  0
   46.1790   34.7600   43.5160 C   0  0  0  0  0  0  0  0  0  0  0  0
   46.3200   33.8740   44.5320 N   0  0  0  0  0  0  0  0  0  0  0  0
   45.5880   33.9460   45.6690 C   0  0  0  0  0  0  0  0  0  0  0  0
   44.6710   34.9330   45.8210 N   0  0  0  0  0  0  0  0  0  0  0  0
   43.7950   36.6710   44.8400 H   0  0  0  0  0  0  0  0  0  0  0  0
   45.1350   36.4810   42.8410 H   0  0  0  0  0  0  0  0  0  0  0  0
   45.7070   33.2390   46.4670 H   0  0  0  0  0  0  0  0  0  0  0  0
   45.4650   33.2130   41.3260 O   0  0  0  0  0  0  0  0  0  0  0  0
   44.1010   33.1370   41.1150 C   0  0  0  0  0  0  0  0  0  0  0  0
   43.2630   34.0100   40.4560 C   0  0  0  0  0  0  0  0  0  0  0  0
   43.7420   34.8680   40.0510 H   0  0  0  0  0  0  0  0  0  0  0  0
   41.9190   33.7180   40.3750 C   0  0  0  0  0  0  0  0  0  0  0  0
   41.3430   34.4790   39.8280 H   0  0  0  0  0  0  0  0  0  0  0  0
   41.3220   32.5970   40.9110 C   0  0  0  0  0  0  0  0  0  0  0  0
   42.1580   31.7290   41.5660 C   0  0  0  0  0  0  0  0  0  0  0  0
   43.4940   32.0000   41.6590 C   0  0  0  0  0  0  0  0  0  0  0  0
   44.0820   31.2480   42.2020 H   0  0  0  0  0  0  0  0  0  0  0  0
   41.4550   30.2570   42.2850 S   0  0  0  0  0  0  0  0  0  0  0  0
   39.7200   30.3140   41.9290 C   0  0  0  0  0  0  0  0  0  0  0  0
   38.9790   29.2690   42.3940 C   0  0  0  0  0  0  0  0  0  0  0  0
   39.3940   28.4510   42.9430 H   0  0  0  0  0  0  0  0  0  0  0  0
   37.6190   29.2380   42.1590 C   0  0  0  0  0  0  0  0  0  0  0  0
   36.9410   28.4580   42.4820 H   0  0  0  0  0  0  0  0  0  0  0  0
   37.0490   30.2770   41.4530 C   0  0  0  0  0  0  0  0  0  0  0  0
   35.9860   30.2850   41.2510 H   0  0  0  0  0  0  0  0  0  0  0  0
   37.8580   31.3040   41.0120 C   0  0  0  0  0  0  0  0  0  0  0  0
   37.3410   32.0990   40.4570 H   0  0  0  0  0  0  0  0  0  0  0  0
   39.2200   31.3780   41.2220 C   0  0  0  0  0  0  0  0  0  0  0  0
   39.9290   32.4770   40.7210 N   0  0  0  0  0  0  0  0  0  0  0  0
   39.3980   33.2050   40.2020 H   0  0  0  0  0  0  0  0  0  0  0  0
  1  2  1  0  0  0  0
  1 18  1  0  0  0  0
  2  8  1  0  0  0  0
  3  9  1  0  0  0  0
  3  2  1  0  0  0  0
  4  5  1  0  0  0  0
  4  3  1  0  0  0  0
  5  6  1  0  0  0  0
  6 15  1  6  0  0  0
  6 25  1  0  0  0  0
  6  1  1  0  0  0  0
  7  2  1  0  0  0  0
 10  3  1  0  0  0  0
 11  4  1  0  0  0  0
 12  4  1  0  0  0  0
 13  5  1  0  0  0  0
 14  5  1  0  0  0  0
 16 21  1  0  0  0  0
 17 16  2  0  0  0  0
 18 17  1  0  0  0  0
 18 19  2  0  0  0  0
 19 20  1  0  0  0  0
 20 21  2  0  0  0  0
 20 24  1  0  0  0  0
 22 16  1  0  0  0  0
 23 17  1  0  0  0  0
 26 25  1  0  0  0  0
 26 33  1  0  0  0  0
 27 26  2  0  0  0  0
 28 27  1  0  0  0  0
 29 27  1  0  0  0  0
 29 31  2  0  0  0  0
 30 29  1  0  0  0  0
 31 32  1  0  0  0  0
 32 33  2  0  0  0  0
 32 35  1  0  0  0  0
 33 34  1  0  0  0  0
 36 35  1  0  0  0  0
 36 37  1  0  0  0  0
 37 38  1  0  0  0  0
 39 37  2  0  0  0  0
 39 40  1  0  0  0  0
 41 39  1  0  0  0  0
 42 41  1  0  0  0  0
 43 45  1  0  0  0  0
 43 41  2  0  0  0  0
 44 43  1  0  0  0  0
 45 36  2  0  0  0  0
 46 31  1  0  0  0  0
 46 45  1  0  0  0  0
 47 46  1  0  0  0  0
M  END
>  <minimizedAffinity>
-7.38427162

>  <minimizedRMSD>
0.908286929

$$$$
