
 OpenBabel03252502563D

 50 54  0  0  0  0  0  0  0  0999 V2000
   44.2730   26.0980   47.0400 O   0  0  0  0  0  0  0  0  0  0  0  0
   44.9430   27.1640   47.8950 P   0  0  2  0  0  0  0  0  0  0  0  0
   44.4810   26.9700   49.4990 O   0  0  0  0  0  0  0  0  0  0  0  0
   45.2370   27.0100   50.1420 H   0  0  0  0  0  0  0  0  0  0  0  0
   44.3550   28.6800   47.3810 O   0  0  0  0  0  0  0  0  0  0  0  0
   45.5760   29.8770   44.8050 Br  0  0  0  0  0  0  0  0  0  0  0  0
   45.6550   30.5770   46.6100 C   0  0  0  0  0  0  0  0  0  0  0  0
   46.3380   31.7500   46.7680 C   0  0  0  0  0  0  0  0  0  0  0  0
   46.3730   32.2220   48.0820 C   0  0  0  0  0  0  0  0  0  0  0  0
   45.7740   31.5690   49.1410 C   0  0  0  0  0  0  0  0  0  0  0  0
   45.1070   30.3950   48.8950 C   0  0  0  0  0  0  0  0  0  0  0  0
   45.0370   29.8760   47.6180 C   0  0  0  0  0  0  0  0  0  0  0  0
   46.8970   33.1460   48.2860 H   0  0  0  0  0  0  0  0  0  0  0  0
   45.8470   32.0020   50.1320 H   0  0  0  0  0  0  0  0  0  0  0  0
   44.6410   29.8890   49.7270 H   0  0  0  0  0  0  0  0  0  0  0  0
   47.0120   32.5320   45.7280 C   0  0  0  0  0  0  0  0  0  0  0  0
   48.0070   32.9180   46.0480 H   0  0  0  0  0  0  0  0  0  0  0  0
   47.2170   31.8290   44.8750 H   0  0  0  0  0  0  0  0  0  0  0  0
   44.5460   35.3150   45.4100 C   0  0  0  0  0  0  0  0  0  0  0  0
   44.7640   35.7340   44.0960 C   0  0  0  0  0  0  0  0  0  0  0  0
   45.7290   35.0740   43.3530 C   0  0  0  0  0  0  0  0  0  0  0  0
   46.4300   34.0530   43.9090 N   0  0  0  0  0  0  0  0  0  0  0  0
   46.1970   33.6610   45.2010 C   0  0  0  0  0  0  0  0  0  0  0  0
   45.2510   34.3130   45.9180 N   0  0  0  0  0  0  0  0  0  0  0  0
   43.8350   35.7330   46.0980 H   0  0  0  0  0  0  0  0  0  0  0  0
   44.1510   36.5580   43.7520 H   0  0  0  0  0  0  0  0  0  0  0  0
   45.8840   35.4120   42.3390 H   0  0  0  0  0  0  0  0  0  0  0  0
   46.6060   27.0250   47.7150 O   0  0  0  0  0  0  0  0  0  0  0  0
   47.2830   26.2250   46.8160 C   0  0  0  0  0  0  0  0  0  0  0  0
   47.7580   24.9910   47.2070 C   0  0  0  0  0  0  0  0  0  0  0  0
   47.5780   24.6910   48.2210 H   0  0  0  0  0  0  0  0  0  0  0  0
   48.4280   24.2170   46.2830 C   0  0  0  0  0  0  0  0  0  0  0  0
   48.7600   23.2690   46.6870 H   0  0  0  0  0  0  0  0  0  0  0  0
   48.6730   24.5740   44.9760 C   0  0  0  0  0  0  0  0  0  0  0  0
   48.1730   25.8130   44.6580 C   0  0  0  0  0  0  0  0  0  0  0  0
   47.5110   26.6140   45.5140 C   0  0  0  0  0  0  0  0  0  0  0  0
   47.1190   27.5960   45.2480 H   0  0  0  0  0  0  0  0  0  0  0  0
   48.3940   26.4460   43.0060 S   0  0  0  0  0  0  0  0  0  0  0  0
   49.2890   25.1820   42.1280 C   0  0  0  0  0  0  0  0  0  0  0  0
   49.6390   25.3240   40.8170 C   0  0  0  0  0  0  0  0  0  0  0  0
   49.3580   26.2500   40.2890 H   0  0  0  0  0  0  0  0  0  0  0  0
   50.3370   24.3980   40.0420 C   0  0  0  0  0  0  0  0  0  0  0  0
   50.5700   24.5900   39.0210 H   0  0  0  0  0  0  0  0  0  0  0  0
   50.6810   23.2430   40.7180 C   0  0  0  0  0  0  0  0  0  0  0  0
   51.2280   22.4800   40.1700 H   0  0  0  0  0  0  0  0  0  0  0  0
   50.3360   23.0780   42.0500 C   0  0  0  0  0  0  0  0  0  0  0  0
   50.6530   22.1260   42.5030 H   0  0  0  0  0  0  0  0  0  0  0  0
   49.6440   24.0260   42.7730 C   0  0  0  0  0  0  0  0  0  0  0  0
   49.3740   23.7090   44.1010 N   0  0  0  0  0  0  0  0  0  0  0  0
   49.6760   22.8060   44.5250 H   0  0  0  0  0  0  0  0  0  0  0  0
  2  1  2  6  0  0  0
  2  3  1  0  0  0  0
  3  4  1  0  0  0  0
  5 12  1  0  0  0  0
  5  2  1  0  0  0  0
  6  7  1  0  0  0  0
  7  8  2  0  0  0  0
  7 12  1  0  0  0  0
  8  9  1  0  0  0  0
  9 13  1  0  0  0  0
  9 10  2  0  0  0  0
 10 14  1  0  0  0  0
 11 10  1  0  0  0  0
 11 15  1  0  0  0  0
 12 11  2  0  0  0  0
 16 17  1  0  0  0  0
 16  8  1  0  0  0  0
 18 16  1  0  0  0  0
 19 24  1  0  0  0  0
 19 25  1  0  0  0  0
 20 19  2  0  0  0  0
 21 22  2  0  0  0  0
 21 20  1  0  0  0  0
 22 23  1  0  0  0  0
 23 16  1  0  0  0  0
 23 24  2  0  0  0  0
 26 20  1  0  0  0  0
 27 21  1  0  0  0  0
 28  2  1  0  0  0  0
 29 30  1  0  0  0  0
 29 28  1  0  0  0  0
 30 31  1  0  0  0  0
 32 33  1  0  0  0  0
 32 30  2  0  0  0  0
 34 32  1  0  0  0  0
 35 34  2  0  0  0  0
 35 36  1  0  0  0  0
 36 29  2  0  0  0  0
 37 36  1  0  0  0  0
 38 35  1  0  0  0  0
 39 48  1  0  0  0  0
 39 38  1  0  0  0  0
 40 39  2  0  0  0  0
 41 40  1  0  0  0  0
 42 44  2  0  0  0  0
 42 40  1  0  0  0  0
 43 42  1  0  0  0  0
 44 46  1  0  0  0  0
 45 44  1  0  0  0  0
 46 47  1  0  0  0  0
 46 48  2  0  0  0  0
 48 49  1  0  0  0  0
 49 50  1  0  0  0  0
 49 34  1  0  0  0  0
M  END
>  <minimizedAffinity>
-4.82193899

>  <minimizedRMSD>
0.660889208

$$$$
