
 OpenBabel03242523123D

 59 65  0  0  1  0  0  0  0  0999 V2000
   46.5730   32.1880   45.6930 C   0  0  0  0  0  0  0  0  0  0  0  0
   46.7280   32.8030   44.4310 C   0  0  0  0  0  0  0  0  0  0  0  0
   47.5870   32.0880   43.6310 C   0  0  0  0  0  0  0  0  0  0  0  0
   48.2290   30.9380   43.9700 C   0  0  0  0  0  0  0  0  0  0  0  0
   48.0250   30.3980   45.2360 C   0  0  0  0  0  0  0  0  0  0  0  0
   47.1820   31.0360   46.1080 C   0  0  0  0  0  0  0  0  0  0  0  0
   48.8070   29.2550   45.2670 O   0  0  0  0  0  0  0  0  0  0  0  0
   49.4410   29.0620   44.0170 C   0  0  2  0  0  0  0  0  0  0  0  0
   49.0980   30.1800   43.2070 O   0  0  0  0  0  0  0  0  0  0  0  0
   45.9480   32.4960   46.5600 H   0  0  0  0  0  0  0  0  0  0  0  0
   47.7160   32.5250   42.6910 H   0  0  0  0  0  0  0  0  0  0  0  0
   47.1050   30.5340   47.0340 H   0  0  0  0  0  0  0  0  0  0  0  0
   50.5440   29.0080   44.1470 H   0  0  0  0  0  0  0  0  0  0  0  0
   45.0860   36.0380   43.4960 C   0  0  0  0  0  0  0  0  0  0  0  0
   45.8900   34.9170   43.2990 C   0  0  0  0  0  0  0  0  0  0  0  0
   46.0270   34.0040   44.3010 C   0  0  0  0  0  0  0  0  0  0  0  0
   45.3510   34.2520   45.4660 N   0  0  0  0  0  0  0  0  0  0  0  0
   44.5790   35.3280   45.6520 C   0  0  0  0  0  0  0  0  0  0  0  0
   44.4520   36.2000   44.6840 N   0  0  0  0  0  0  0  0  0  0  0  0
   44.9710   36.7670   42.7090 H   0  0  0  0  0  0  0  0  0  0  0  0
   44.0220   35.5790   46.5440 H   0  0  0  0  0  0  0  0  0  0  0  0
   46.5440   34.8080   42.0720 N   0  0  0  0  0  0  0  0  0  0  0  0
   47.8770   35.2840   41.8780 C   0  0  0  0  0  0  0  0  0  0  0  0
   48.4890   34.9310   40.5530 C   0  0  0  0  0  0  0  0  0  0  0  0
   48.1810   33.6580   40.0860 N   0  0  0  0  0  0  0  0  0  0  0  0
   46.8970   33.2100   40.2400 C   0  0  0  0  0  0  0  0  0  0  0  0
   46.0130   34.2430   40.8960 C   0  0  0  0  0  0  0  0  0  0  0  0
   48.5830   35.0200   42.7000 H   0  0  0  0  0  0  0  0  0  0  0  0
   47.8200   36.4080   41.9240 H   0  0  0  0  0  0  0  0  0  0  0  0
   48.0990   35.6830   39.8080 H   0  0  0  0  0  0  0  0  0  0  0  0
   49.5750   35.1510   40.6150 H   0  0  0  0  0  0  0  0  0  0  0  0
   48.8420   33.1710   39.4840 H   0  0  0  0  0  0  0  0  0  0  0  0
   46.7630   32.2420   40.7850 H   0  0  0  0  0  0  0  0  0  0  0  0
   46.4350   33.0030   39.2310 H   0  0  0  0  0  0  0  0  0  0  0  0
   45.0740   33.6910   41.1770 H   0  0  0  0  0  0  0  0  0  0  0  0
   45.7240   34.9660   40.0950 H   0  0  0  0  0  0  0  0  0  0  0  0
   48.8980   27.9050   43.4510 O   0  0  0  0  0  0  0  0  0  0  0  0
   49.2090   26.6080   43.7410 C   0  0  0  0  0  0  0  0  0  0  0  0
   50.3660   25.9330   43.4110 C   0  0  0  0  0  0  0  0  0  0  0  0
   51.1110   26.4900   42.8600 H   0  0  0  0  0  0  0  0  0  0  0  0
   50.5030   24.6160   43.7910 C   0  0  0  0  0  0  0  0  0  0  0  0
   51.4490   24.1580   43.4890 H   0  0  0  0  0  0  0  0  0  0  0  0
   49.5550   23.9100   44.4910 C   0  0  0  0  0  0  0  0  0  0  0  0
   48.4230   24.5850   44.8100 C   0  0  0  0  0  0  0  0  0  0  0  0
   48.2540   25.8730   44.4540 C   0  0  0  0  0  0  0  0  0  0  0  0
   47.3130   26.3650   44.7420 H   0  0  0  0  0  0  0  0  0  0  0  0
   47.1450   23.7340   45.7180 S   0  0  0  0  0  0  0  0  0  0  0  0
   47.7740   22.0850   45.9750 C   0  0  0  0  0  0  0  0  0  0  0  0
   46.9270   21.2560   46.6660 C   0  0  0  0  0  0  0  0  0  0  0  0
   45.9410   21.5470   47.0460 H   0  0  0  0  0  0  0  0  0  0  0  0
   47.3230   19.9510   46.9180 C   0  0  0  0  0  0  0  0  0  0  0  0
   46.7210   19.2310   47.4550 H   0  0  0  0  0  0  0  0  0  0  0  0
   48.5550   19.5290   46.4650 C   0  0  0  0  0  0  0  0  0  0  0  0
   48.8760   18.5150   46.6540 H   0  0  0  0  0  0  0  0  0  0  0  0
   49.3370   20.4360   45.7780 C   0  0  0  0  0  0  0  0  0  0  0  0
   50.3040   20.0220   45.4490 H   0  0  0  0  0  0  0  0  0  0  0  0
   48.9940   21.7440   45.4990 C   0  0  0  0  0  0  0  0  0  0  0  0
   49.8620   22.5770   44.7950 N   0  0  0  0  0  0  0  0  0  0  0  0
   50.7680   22.1540   44.5010 H   0  0  0  0  0  0  0  0  0  0  0  0
  1  6  1  0  0  0  0
  1 10  1  0  0  0  0
  2  1  2  0  0  0  0
  3  4  2  0  0  0  0
  3  2  1  0  0  0  0
  4  5  1  0  0  0  0
  5  7  1  0  0  0  0
  5  6  2  0  0  0  0
  6 12  1  0  0  0  0
  8 13  1  1  0  0  0
  8  7  1  0  0  0  0
  9  4  1  0  0  0  0
  9  8  1  0  0  0  0
 11  3  1  0  0  0  0
 14 19  1  0  0  0  0
 15 14  2  0  0  0  0
 15 16  1  0  0  0  0
 16  2  1  0  0  0  0
 16 17  2  0  0  0  0
 17 18  1  0  0  0  0
 18 21  1  0  0  0  0
 19 18  2  0  0  0  0
 20 14  1  0  0  0  0
 22 15  1  0  0  0  0
 23 29  1  0  0  0  0
 23 22  1  0  0  0  0
 23 28  1  0  0  0  0
 24 31  1  0  0  0  0
 24 23  1  0  0  0  0
 25 26  1  0  0  0  0
 25 24  1  0  0  0  0
 26 33  1  0  0  0  0
 26 27  1  0  0  0  0
 27 35  1  0  0  0  0
 27 22  1  0  0  0  0
 30 24  1  0  0  0  0
 32 25  1  0  0  0  0
 34 26  1  0  0  0  0
 36 27  1  0  0  0  0
 37 38  1  0  0  0  0
 37  8  1  0  0  0  0
 38 45  1  0  0  0  0
 39 38  2  0  0  0  0
 39 41  1  0  0  0  0
 40 39  1  0  0  0  0
 41 43  2  0  0  0  0
 42 41  1  0  0  0  0
 43 58  1  0  0  0  0
 43 44  1  0  0  0  0
 44 47  1  0  0  0  0
 45 46  1  0  0  0  0
 45 44  2  0  0  0  0
 47 48  1  0  0  0  0
 48 49  1  0  0  0  0
 49 51  2  0  0  0  0
 49 50  1  0  0  0  0
 51 52  1  0  0  0  0
 53 54  1  0  0  0  0
 53 51  1  0  0  0  0
 55 53  2  0  0  0  0
 56 55  1  0  0  0  0
 57 55  1  0  0  0  0
 57 48  2  0  0  0  0
 58 57  1  0  0  0  0
 59 58  1  0  0  0  0
M  END
>  <minimizedAffinity>
-5.06212759

>  <minimizedRMSD>
2.45101905

$$$$
