
 OpenBabel03242523123D

 59 65  0  0  1  0  0  0  0  0999 V2000
   45.5920   31.4680   44.1170 C   0  0  0  0  0  0  0  0  0  0  0  0
   46.5310   32.5180   44.0300 C   0  0  0  0  0  0  0  0  0  0  0  0
   47.8180   32.0350   44.0030 C   0  0  0  0  0  0  0  0  0  0  0  0
   48.1840   30.7260   44.0550 C   0  0  0  0  0  0  0  0  0  0  0  0
   47.1950   29.7500   44.1450 C   0  0  0  0  0  0  0  0  0  0  0  0
   45.8800   30.1320   44.1750 C   0  0  0  0  0  0  0  0  0  0  0  0
   47.8840   28.5490   44.1830 O   0  0  0  0  0  0  0  0  0  0  0  0
   49.2740   28.7770   44.0620 C   0  0  2  0  0  0  0  0  0  0  0  0
   49.4570   30.1870   44.0300 O   0  0  0  0  0  0  0  0  0  0  0  0
   44.4810   31.5100   44.1470 H   0  0  0  0  0  0  0  0  0  0  0  0
   48.5300   32.7960   43.9380 H   0  0  0  0  0  0  0  0  0  0  0  0
   45.2240   29.3080   44.2420 H   0  0  0  0  0  0  0  0  0  0  0  0
   49.8140   28.3410   44.9300 H   0  0  0  0  0  0  0  0  0  0  0  0
   45.2020   35.9760   43.4690 C   0  0  0  0  0  0  0  0  0  0  0  0
   45.8780   34.8040   43.1350 C   0  0  0  0  0  0  0  0  0  0  0  0
   45.9550   33.7900   44.0420 C   0  0  0  0  0  0  0  0  0  0  0  0
   45.3510   33.9930   45.2540 N   0  0  0  0  0  0  0  0  0  0  0  0
   44.7030   35.1190   45.5730 C   0  0  0  0  0  0  0  0  0  0  0  0
   44.6330   36.0880   44.6950 N   0  0  0  0  0  0  0  0  0  0  0  0
   45.1350   36.7840   42.7570 H   0  0  0  0  0  0  0  0  0  0  0  0
   44.2080   35.3390   46.5090 H   0  0  0  0  0  0  0  0  0  0  0  0
   46.4710   34.7460   41.8740 N   0  0  0  0  0  0  0  0  0  0  0  0
   47.8130   35.1810   41.6470 C   0  0  0  0  0  0  0  0  0  0  0  0
   48.3500   34.8870   40.2760 C   0  0  0  0  0  0  0  0  0  0  0  0
   47.9680   33.6600   39.7470 N   0  0  0  0  0  0  0  0  0  0  0  0
   46.6750   33.2540   39.9320 C   0  0  0  0  0  0  0  0  0  0  0  0
   45.8650   34.2780   40.6910 C   0  0  0  0  0  0  0  0  0  0  0  0
   48.5430   34.8370   42.4170 H   0  0  0  0  0  0  0  0  0  0  0  0
   47.8060   36.3010   41.7640 H   0  0  0  0  0  0  0  0  0  0  0  0
   47.9600   35.7000   39.5970 H   0  0  0  0  0  0  0  0  0  0  0  0
   49.4470   35.0610   40.3000 H   0  0  0  0  0  0  0  0  0  0  0  0
   48.5810   33.1860   39.0850 H   0  0  0  0  0  0  0  0  0  0  0  0
   46.5250   32.2590   40.4230 H   0  0  0  0  0  0  0  0  0  0  0  0
   46.1610   33.1300   38.9350 H   0  0  0  0  0  0  0  0  0  0  0  0
   44.9170   33.7460   40.9820 H   0  0  0  0  0  0  0  0  0  0  0  0
   45.5720   35.0610   39.9510 H   0  0  0  0  0  0  0  0  0  0  0  0
   49.6780   28.2360   42.8380 O   0  0  0  0  0  0  0  0  0  0  0  0
   50.9250   28.2610   42.2850 C   0  0  0  0  0  0  0  0  0  0  0  0
   52.0520   27.6070   42.7390 C   0  0  0  0  0  0  0  0  0  0  0  0
   51.9380   27.0090   43.6310 H   0  0  0  0  0  0  0  0  0  0  0  0
   53.2340   27.7510   42.0440 C   0  0  0  0  0  0  0  0  0  0  0  0
   54.0760   27.1990   42.4730 H   0  0  0  0  0  0  0  0  0  0  0  0
   53.3760   28.5120   40.9090 C   0  0  0  0  0  0  0  0  0  0  0  0
   52.2610   29.1490   40.4740 C   0  0  0  0  0  0  0  0  0  0  0  0
   51.0900   29.0310   41.1280 C   0  0  0  0  0  0  0  0  0  0  0  0
   50.2210   29.5730   40.7230 H   0  0  0  0  0  0  0  0  0  0  0  0
   52.3690   30.1560   39.0050 S   0  0  0  0  0  0  0  0  0  0  0  0
   54.0680   30.0310   38.4770 C   0  0  0  0  0  0  0  0  0  0  0  0
   54.3640   30.7460   37.3440 C   0  0  0  0  0  0  0  0  0  0  0  0
   53.6440   31.3540   36.7820 H   0  0  0  0  0  0  0  0  0  0  0  0
   55.6590   30.7140   36.8480 C   0  0  0  0  0  0  0  0  0  0  0  0
   55.9800   31.2460   35.9630 H   0  0  0  0  0  0  0  0  0  0  0  0
   56.6070   29.9650   37.5130 C   0  0  0  0  0  0  0  0  0  0  0  0
   57.6210   29.9310   37.1390 H   0  0  0  0  0  0  0  0  0  0  0  0
   56.2130   29.2790   38.6450 C   0  0  0  0  0  0  0  0  0  0  0  0
   57.0280   28.7060   39.1150 H   0  0  0  0  0  0  0  0  0  0  0  0
   54.9420   29.2750   39.1800 C   0  0  0  0  0  0  0  0  0  0  0  0
   54.6520   28.5460   40.3310 N   0  0  0  0  0  0  0  0  0  0  0  0
   55.4460   28.0140   40.7520 H   0  0  0  0  0  0  0  0  0  0  0  0
  1 10  1  0  0  0  0
  1  6  1  0  0  0  0
  2 16  1  0  0  0  0
  2  1  2  0  0  0  0
  3  2  1  0  0  0  0
  3  4  2  0  0  0  0
  4  5  1  0  0  0  0
  5  6  2  0  0  0  0
  5  7  1  0  0  0  0
  6 12  1  0  0  0  0
  8  7  1  0  0  0  0
  8 13  1  1  0  0  0
  9  4  1  0  0  0  0
  9  8  1  0  0  0  0
 11  3  1  0  0  0  0
 14 19  1  0  0  0  0
 15 14  2  0  0  0  0
 15 16  1  0  0  0  0
 16 17  2  0  0  0  0
 17 18  1  0  0  0  0
 18 21  1  0  0  0  0
 19 18  2  0  0  0  0
 20 14  1  0  0  0  0
 22 15  1  0  0  0  0
 23 29  1  0  0  0  0
 23 22  1  0  0  0  0
 23 28  1  0  0  0  0
 24 31  1  0  0  0  0
 24 23  1  0  0  0  0
 25 26  1  0  0  0  0
 25 24  1  0  0  0  0
 26 33  1  0  0  0  0
 26 27  1  0  0  0  0
 27 35  1  0  0  0  0
 27 22  1  0  0  0  0
 30 24  1  0  0  0  0
 32 25  1  0  0  0  0
 34 26  1  0  0  0  0
 36 27  1  0  0  0  0
 37  8  1  0  0  0  0
 38 39  1  0  0  0  0
 38 37  1  0  0  0  0
 39 40  1  0  0  0  0
 41 42  1  0  0  0  0
 41 39  2  0  0  0  0
 43 41  1  0  0  0  0
 44 43  2  0  0  0  0
 44 45  1  0  0  0  0
 45 38  2  0  0  0  0
 46 45  1  0  0  0  0
 47 44  1  0  0  0  0
 48 47  1  0  0  0  0
 48 57  1  0  0  0  0
 49 48  2  0  0  0  0
 50 49  1  0  0  0  0
 51 49  1  0  0  0  0
 51 53  2  0  0  0  0
 52 51  1  0  0  0  0
 53 55  1  0  0  0  0
 54 53  1  0  0  0  0
 55 56  1  0  0  0  0
 55 57  2  0  0  0  0
 57 58  1  0  0  0  0
 58 59  1  0  0  0  0
 58 43  1  0  0  0  0
M  END
>  <minimizedAffinity>
-5.65993786

>  <minimizedRMSD>
3.95971918

$$$$
