
 OpenBabel03242523113D

 59 65  0  0  1  0  0  0  0  0999 V2000
   46.4890   32.0560   45.5670 C   0  0  0  0  0  0  0  0  0  0  0  0
   46.7350   32.7560   44.3660 C   0  0  0  0  0  0  0  0  0  0  0  0
   47.6540   32.0960   43.5850 C   0  0  0  0  0  0  0  0  0  0  0  0
   48.2730   30.9250   43.8910 C   0  0  0  0  0  0  0  0  0  0  0  0
   47.9780   30.2990   45.0990 C   0  0  0  0  0  0  0  0  0  0  0  0
   47.0700   30.8770   45.9470 C   0  0  0  0  0  0  0  0  0  0  0  0
   48.7610   29.1570   45.1090 O   0  0  0  0  0  0  0  0  0  0  0  0
   49.4860   29.0490   43.9000 C   0  0  2  0  0  0  0  0  0  0  0  0
   49.2000   30.2200   43.1450 O   0  0  0  0  0  0  0  0  0  0  0  0
   45.8000   32.3040   46.4040 H   0  0  0  0  0  0  0  0  0  0  0  0
   47.8510   32.5960   42.6890 H   0  0  0  0  0  0  0  0  0  0  0  0
   46.9270   30.3140   46.8280 H   0  0  0  0  0  0  0  0  0  0  0  0
   50.5770   28.9850   44.1080 H   0  0  0  0  0  0  0  0  0  0  0  0
   45.1050   36.0190   43.5100 C   0  0  0  0  0  0  0  0  0  0  0  0
   45.9010   34.8970   43.2840 C   0  0  0  0  0  0  0  0  0  0  0  0
   46.0400   33.9630   44.2660 C   0  0  0  0  0  0  0  0  0  0  0  0
   45.3760   34.1920   45.4410 N   0  0  0  0  0  0  0  0  0  0  0  0
   44.6130   35.2690   45.6560 C   0  0  0  0  0  0  0  0  0  0  0  0
   44.4830   36.1610   44.7070 N   0  0  0  0  0  0  0  0  0  0  0  0
   44.9880   36.7640   42.7390 H   0  0  0  0  0  0  0  0  0  0  0  0
   44.0650   35.5050   46.5580 H   0  0  0  0  0  0  0  0  0  0  0  0
   46.5430   34.8090   42.0490 N   0  0  0  0  0  0  0  0  0  0  0  0
   47.8730   35.2910   41.8500 C   0  0  0  0  0  0  0  0  0  0  0  0
   48.4730   34.9600   40.5140 C   0  0  0  0  0  0  0  0  0  0  0  0
   48.1640   33.6940   40.0300 N   0  0  0  0  0  0  0  0  0  0  0  0
   46.8830   33.2410   40.1890 C   0  0  0  0  0  0  0  0  0  0  0  0
   46.0020   34.2610   40.8700 C   0  0  0  0  0  0  0  0  0  0  0  0
   48.5870   35.0150   42.6610 H   0  0  0  0  0  0  0  0  0  0  0  0
   47.8140   36.4140   41.9150 H   0  0  0  0  0  0  0  0  0  0  0  0
   48.0750   35.7230   39.7850 H   0  0  0  0  0  0  0  0  0  0  0  0
   49.5600   35.1820   40.5690 H   0  0  0  0  0  0  0  0  0  0  0  0
   48.8210   33.2180   39.4140 H   0  0  0  0  0  0  0  0  0  0  0  0
   46.7560   32.2630   40.7200 H   0  0  0  0  0  0  0  0  0  0  0  0
   46.4120   33.0480   39.1810 H   0  0  0  0  0  0  0  0  0  0  0  0
   45.0670   33.7020   41.1510 H   0  0  0  0  0  0  0  0  0  0  0  0
   45.7040   34.9960   40.0830 H   0  0  0  0  0  0  0  0  0  0  0  0
   48.9920   27.9340   43.2180 O   0  0  0  0  0  0  0  0  0  0  0  0
   49.7050   26.9730   42.5620 C   0  0  0  0  0  0  0  0  0  0  0  0
   49.6490   26.6630   41.2190 C   0  0  0  0  0  0  0  0  0  0  0  0
   48.9670   27.2440   40.6160 H   0  0  0  0  0  0  0  0  0  0  0  0
   50.4510   25.6520   40.7330 C   0  0  0  0  0  0  0  0  0  0  0  0
   50.3430   25.4730   39.6580 H   0  0  0  0  0  0  0  0  0  0  0  0
   51.3180   24.9130   41.5010 C   0  0  0  0  0  0  0  0  0  0  0  0
   51.3610   25.2280   42.8190 C   0  0  0  0  0  0  0  0  0  0  0  0
   50.5930   26.2110   43.3300 C   0  0  0  0  0  0  0  0  0  0  0  0
   50.6760   26.4170   44.4070 H   0  0  0  0  0  0  0  0  0  0  0  0
   52.4640   24.3130   43.8810 S   0  0  0  0  0  0  0  0  0  0  0  0
   53.2710   23.1350   42.8130 C   0  0  0  0  0  0  0  0  0  0  0  0
   54.1750   22.3190   43.4460 C   0  0  0  0  0  0  0  0  0  0  0  0
   54.4080   22.3580   44.5170 H   0  0  0  0  0  0  0  0  0  0  0  0
   54.8560   21.3670   42.7030 C   0  0  0  0  0  0  0  0  0  0  0  0
   55.5840   20.6840   43.1200 H   0  0  0  0  0  0  0  0  0  0  0  0
   54.6040   21.2720   41.3500 C   0  0  0  0  0  0  0  0  0  0  0  0
   55.1280   20.5350   40.7590 H   0  0  0  0  0  0  0  0  0  0  0  0
   53.6770   22.1360   40.8030 C   0  0  0  0  0  0  0  0  0  0  0  0
   53.5330   21.9960   39.7200 H   0  0  0  0  0  0  0  0  0  0  0  0
   52.9700   23.1010   41.4940 C   0  0  0  0  0  0  0  0  0  0  0  0
   52.0560   23.9230   40.8400 N   0  0  0  0  0  0  0  0  0  0  0  0
   51.9430   23.7640   39.8150 H   0  0  0  0  0  0  0  0  0  0  0  0
  1  6  1  0  0  0  0
  1 10  1  0  0  0  0
  2  1  2  0  0  0  0
  3  4  2  0  0  0  0
  3  2  1  0  0  0  0
  4  5  1  0  0  0  0
  5  7  1  0  0  0  0
  5  6  2  0  0  0  0
  6 12  1  0  0  0  0
  8 13  1  1  0  0  0
  8  7  1  0  0  0  0
  9  4  1  0  0  0  0
  9  8  1  0  0  0  0
 11  3  1  0  0  0  0
 14 19  1  0  0  0  0
 15 14  2  0  0  0  0
 15 16  1  0  0  0  0
 16  2  1  0  0  0  0
 16 17  2  0  0  0  0
 17 18  1  0  0  0  0
 18 21  1  0  0  0  0
 19 18  2  0  0  0  0
 20 14  1  0  0  0  0
 22 15  1  0  0  0  0
 23 29  1  0  0  0  0
 23 22  1  0  0  0  0
 23 28  1  0  0  0  0
 24 31  1  0  0  0  0
 24 23  1  0  0  0  0
 25 26  1  0  0  0  0
 25 24  1  0  0  0  0
 26 33  1  0  0  0  0
 26 27  1  0  0  0  0
 27 35  1  0  0  0  0
 27 22  1  0  0  0  0
 30 24  1  0  0  0  0
 32 25  1  0  0  0  0
 34 26  1  0  0  0  0
 36 27  1  0  0  0  0
 37  8  1  0  0  0  0
 38 37  1  0  0  0  0
 38 45  1  0  0  0  0
 39 38  2  0  0  0  0
 40 39  1  0  0  0  0
 41 39  1  0  0  0  0
 41 43  2  0  0  0  0
 42 41  1  0  0  0  0
 43 44  1  0  0  0  0
 44 45  2  0  0  0  0
 44 47  1  0  0  0  0
 45 46  1  0  0  0  0
 48 49  1  0  0  0  0
 48 47  1  0  0  0  0
 49 50  1  0  0  0  0
 51 52  1  0  0  0  0
 51 49  2  0  0  0  0
 53 51  1  0  0  0  0
 54 53  1  0  0  0  0
 55 53  2  0  0  0  0
 55 57  1  0  0  0  0
 56 55  1  0  0  0  0
 57 48  2  0  0  0  0
 58 57  1  0  0  0  0
 58 43  1  0  0  0  0
 59 58  1  0  0  0  0
M  END
>  <minimizedAffinity>
-4.65487337

>  <minimizedRMSD>
0.961999357

$$$$
