
 OpenBabel03242517433D

 32 35  0  0  0  0  0  0  0  0999 V2000
   38.2280   31.7340   40.8620 C   0  0  0  0  0  0  0  0  0  0  0  0
   36.9210   31.3860   40.5970 C   0  0  0  0  0  0  0  0  0  0  0  0
   36.2150   32.1330   40.2630 H   0  0  0  0  0  0  0  0  0  0  0  0
   36.5550   30.0680   40.7740 C   0  0  0  0  0  0  0  0  0  0  0  0
   35.5110   29.8560   40.5490 H   0  0  0  0  0  0  0  0  0  0  0  0
   37.3870   29.0520   41.1970 C   0  0  0  0  0  0  0  0  0  0  0  0
   38.6750   29.4540   41.4460 C   0  0  0  0  0  0  0  0  0  0  0  0
   39.0900   30.7490   41.2860 C   0  0  0  0  0  0  0  0  0  0  0  0
   40.1130   31.0460   41.4870 H   0  0  0  0  0  0  0  0  0  0  0  0
   39.8610   28.2520   41.9980 S   0  0  0  0  0  0  0  0  0  0  0  0
   38.9870   26.7010   42.0920 C   0  0  0  0  0  0  0  0  0  0  0  0
   39.6420   25.5890   42.4890 C   0  0  0  0  0  0  0  0  0  0  0  0
   40.7090   25.6420   42.7520 H   0  0  0  0  0  0  0  0  0  0  0  0
   39.0260   24.3450   42.5870 C   0  0  0  0  0  0  0  0  0  0  0  0
   39.5620   23.4740   42.9030 H   0  0  0  0  0  0  0  0  0  0  0  0
   37.6910   24.3040   42.2510 C   0  0  0  0  0  0  0  0  0  0  0  0
   37.1930   23.3460   42.3210 H   0  0  0  0  0  0  0  0  0  0  0  0
   37.0610   25.4480   41.8540 C   0  0  0  0  0  0  0  0  0  0  0  0
   36.0020   25.3180   41.6090 H   0  0  0  0  0  0  0  0  0  0  0  0
   37.6560   26.6870   41.7530 C   0  0  0  0  0  0  0  0  0  0  0  0
   36.8680   27.7690   41.3280 N   0  0  0  0  0  0  0  0  0  0  0  0
   35.8640   27.6040   41.1040 H   0  0  0  0  0  0  0  0  0  0  0  0
   38.8050   33.4130   40.6660 S   0  0  0  0  0  0  0  0  0  0  0  0
   41.0810   34.3490   39.3760 C   0  0  0  0  0  0  0  0  0  0  0  0
   40.0470   33.3820   39.3750 C   0  0  0  0  0  0  0  0  0  0  0  0
   40.0340   32.4340   38.3610 C   0  0  0  0  0  0  0  0  0  0  0  0
   41.0100   32.4670   37.4110 N   0  0  0  0  0  0  0  0  0  0  0  0
   41.9840   33.4100   37.4470 C   0  0  0  0  0  0  0  0  0  0  0  0
   42.0270   34.3390   38.4100 N   0  0  0  0  0  0  0  0  0  0  0  0
   41.0850   35.0740   40.1590 H   0  0  0  0  0  0  0  0  0  0  0  0
   39.2640   31.6930   38.3370 H   0  0  0  0  0  0  0  0  0  0  0  0
   42.6880   33.3130   36.6310 H   0  0  0  0  0  0  0  0  0  0  0  0
  1  8  1  0  0  0  0
  2  4  1  0  0  0  0
  2  1  2  0  0  0  0
  3  2  1  0  0  0  0
  4  6  2  0  0  0  0
  5  4  1  0  0  0  0
  6 21  1  0  0  0  0
  6  7  1  0  0  0  0
  7 10  1  0  0  0  0
  8  7  2  0  0  0  0
  8  9  1  0  0  0  0
 10 11  1  0  0  0  0
 11 12  1  0  0  0  0
 12 14  2  0  0  0  0
 12 13  1  0  0  0  0
 14 15  1  0  0  0  0
 16 17  1  0  0  0  0
 16 14  1  0  0  0  0
 18 16  2  0  0  0  0
 19 18  1  0  0  0  0
 20 18  1  0  0  0  0
 20 11  2  0  0  0  0
 21 20  1  0  0  0  0
 22 21  1  0  0  0  0
 23  1  1  0  0  0  0
 24 30  1  0  0  0  0
 25 24  1  0  0  0  0
 25 23  1  0  0  0  0
 26 25  2  0  0  0  0
 27 28  2  0  0  0  0
 27 26  1  0  0  0  0
 28 29  1  0  0  0  0
 29 24  2  0  0  0  0
 31 26  1  0  0  0  0
 32 28  1  0  0  0  0
M  END
>  <minimizedAffinity>
-5.63136959

$$$$

 OpenBabel03242517433D

 32 35  0  0  0  0  0  0  0  0999 V2000
   36.9070   30.4610   39.3450 C   0  0  0  0  0  0  0  0  0  0  0  0
   36.8540   30.7500   37.9980 C   0  0  0  0  0  0  0  0  0  0  0  0
   35.9980   30.4530   37.4100 H   0  0  0  0  0  0  0  0  0  0  0  0
   37.9220   31.4210   37.4400 C   0  0  0  0  0  0  0  0  0  0  0  0
   37.8220   31.6200   36.3740 H   0  0  0  0  0  0  0  0  0  0  0  0
   39.0520   31.8360   38.1130 C   0  0  0  0  0  0  0  0  0  0  0  0
   39.0510   31.5230   39.4500 C   0  0  0  0  0  0  0  0  0  0  0  0
   38.0170   30.8590   40.0530 C   0  0  0  0  0  0  0  0  0  0  0  0
   38.0360   30.6220   41.1100 H   0  0  0  0  0  0  0  0  0  0  0  0
   40.4440   31.9960   40.4460 S   0  0  0  0  0  0  0  0  0  0  0  0
   41.5770   32.8280   39.3500 C   0  0  0  0  0  0  0  0  0  0  0  0
   42.7440   33.3060   39.8340 C   0  0  0  0  0  0  0  0  0  0  0  0
   42.9910   33.1820   40.8980 H   0  0  0  0  0  0  0  0  0  0  0  0
   43.6780   33.9640   39.0380 C   0  0  0  0  0  0  0  0  0  0  0  0
   44.5970   34.3360   39.4400 H   0  0  0  0  0  0  0  0  0  0  0  0
   43.3450   34.1070   37.7100 C   0  0  0  0  0  0  0  0  0  0  0  0
   44.0570   34.6160   37.0740 H   0  0  0  0  0  0  0  0  0  0  0  0
   42.1570   33.6110   37.2550 C   0  0  0  0  0  0  0  0  0  0  0  0
   41.9810   33.7710   36.1870 H   0  0  0  0  0  0  0  0  0  0  0  0
   41.2230   32.9560   38.0290 C   0  0  0  0  0  0  0  0  0  0  0  0
   40.0470   32.5040   37.4090 N   0  0  0  0  0  0  0  0  0  0  0  0
   39.9160   32.6760   36.3890 H   0  0  0  0  0  0  0  0  0  0  0  0
   35.5770   29.5950   40.1660 S   0  0  0  0  0  0  0  0  0  0  0  0
   36.6020   27.0150   40.0710 C   0  0  0  0  0  0  0  0  0  0  0  0
   36.2940   28.1240   40.8950 C   0  0  0  0  0  0  0  0  0  0  0  0
   36.5640   28.0290   42.2530 C   0  0  0  0  0  0  0  0  0  0  0  0
   37.1110   26.8810   42.7420 N   0  0  0  0  0  0  0  0  0  0  0  0
   37.3920   25.8400   41.9190 C   0  0  0  0  0  0  0  0  0  0  0  0
   37.1450   25.8970   40.6040 N   0  0  0  0  0  0  0  0  0  0  0  0
   36.3920   27.0950   39.0270 H   0  0  0  0  0  0  0  0  0  0  0  0
   36.3410   28.8530   42.8980 H   0  0  0  0  0  0  0  0  0  0  0  0
   37.8220   24.9980   42.4440 H   0  0  0  0  0  0  0  0  0  0  0  0
  1  8  1  0  0  0  0
  1 23  1  0  0  0  0
  2  1  2  0  0  0  0
  3  2  1  0  0  0  0
  4  2  1  0  0  0  0
  4  6  2  0  0  0  0
  5  4  1  0  0  0  0
  6  7  1  0  0  0  0
  7  8  2  0  0  0  0
  7 10  1  0  0  0  0
  8  9  1  0  0  0  0
 11 12  1  0  0  0  0
 11 10  1  0  0  0  0
 12 13  1  0  0  0  0
 14 15  1  0  0  0  0
 14 12  2  0  0  0  0
 16 14  1  0  0  0  0
 17 16  1  0  0  0  0
 18 16  2  0  0  0  0
 18 20  1  0  0  0  0
 19 18  1  0  0  0  0
 20 11  2  0  0  0  0
 21 20  1  0  0  0  0
 21  6  1  0  0  0  0
 22 21  1  0  0  0  0
 23 25  1  0  0  0  0
 24 29  2  0  0  0  0
 24 25  1  0  0  0  0
 25 26  2  0  0  0  0
 26 27  1  0  0  0  0
 26 31  1  0  0  0  0
 28 32  1  0  0  0  0
 28 27  2  0  0  0  0
 29 28  1  0  0  0  0
 30 24  1  0  0  0  0
M  END
>  <minimizedAffinity>
-5.51867104

$$$$

 OpenBabel03242517433D

 32 35  0  0  0  0  0  0  0  0999 V2000
   38.8340   31.4200   41.1330 C   0  0  0  0  0  0  0  0  0  0  0  0
   39.6040   31.0020   42.1970 C   0  0  0  0  0  0  0  0  0  0  0  0
   40.2190   31.7080   42.7360 H   0  0  0  0  0  0  0  0  0  0  0  0
   39.5580   29.6660   42.5420 C   0  0  0  0  0  0  0  0  0  0  0  0
   40.1870   29.3980   43.3890 H   0  0  0  0  0  0  0  0  0  0  0  0
   38.8050   28.6990   41.9110 C   0  0  0  0  0  0  0  0  0  0  0  0
   38.0580   29.1700   40.8600 C   0  0  0  0  0  0  0  0  0  0  0  0
   38.0670   30.4840   40.4770 C   0  0  0  0  0  0  0  0  0  0  0  0
   37.4700   30.8370   39.6440 H   0  0  0  0  0  0  0  0  0  0  0  0
   37.0360   28.0350   39.9520 S   0  0  0  0  0  0  0  0  0  0  0  0
   37.2680   26.4410   40.7140 C   0  0  0  0  0  0  0  0  0  0  0  0
   36.6080   25.3670   40.2290 C   0  0  0  0  0  0  0  0  0  0  0  0
   35.9310   25.4780   39.3700 H   0  0  0  0  0  0  0  0  0  0  0  0
   36.7410   24.0920   40.7720 C   0  0  0  0  0  0  0  0  0  0  0  0
   36.2080   23.2530   40.3740 H   0  0  0  0  0  0  0  0  0  0  0  0
   37.5930   23.9790   41.8470 C   0  0  0  0  0  0  0  0  0  0  0  0
   37.7100   22.9960   42.2840 H   0  0  0  0  0  0  0  0  0  0  0  0
   38.2450   25.0860   42.3110 C   0  0  0  0  0  0  0  0  0  0  0  0
   38.9010   24.8980   43.1670 H   0  0  0  0  0  0  0  0  0  0  0  0
   38.1250   26.3540   41.7850 C   0  0  0  0  0  0  0  0  0  0  0  0
   38.8660   27.3900   42.3770 N   0  0  0  0  0  0  0  0  0  0  0  0
   39.4780   27.1710   43.1900 H   0  0  0  0  0  0  0  0  0  0  0  0
   38.8210   33.1270   40.6050 S   0  0  0  0  0  0  0  0  0  0  0  0
   40.1780   32.4420   38.2800 C   0  0  0  0  0  0  0  0  0  0  0  0
   40.1370   33.3030   39.4020 C   0  0  0  0  0  0  0  0  0  0  0  0
   41.1290   34.2650   39.5300 C   0  0  0  0  0  0  0  0  0  0  0  0
   42.1010   34.3450   38.5780 N   0  0  0  0  0  0  0  0  0  0  0  0
   42.1050   33.5010   37.5170 C   0  0  0  0  0  0  0  0  0  0  0  0
   41.1630   32.5620   37.3620 N   0  0  0  0  0  0  0  0  0  0  0  0
   39.4110   31.7050   38.1880 H   0  0  0  0  0  0  0  0  0  0  0  0
   41.1210   34.9280   40.3690 H   0  0  0  0  0  0  0  0  0  0  0  0
   42.9340   33.6810   36.8440 H   0  0  0  0  0  0  0  0  0  0  0  0
  1  2  1  0  0  0  0
  2  4  2  0  0  0  0
  2  3  1  0  0  0  0
  4  5  1  0  0  0  0
  6 21  1  0  0  0  0
  6  4  1  0  0  0  0
  7  6  2  0  0  0  0
  8  7  1  0  0  0  0
  8  1  2  0  0  0  0
  9  8  1  0  0  0  0
 10 11  1  0  0  0  0
 10  7  1  0  0  0  0
 11 20  1  0  0  0  0
 12 11  2  0  0  0  0
 12 14  1  0  0  0  0
 13 12  1  0  0  0  0
 14 16  2  0  0  0  0
 15 14  1  0  0  0  0
 16 17  1  0  0  0  0
 16 18  1  0  0  0  0
 18 19  1  0  0  0  0
 20 18  2  0  0  0  0
 20 21  1  0  0  0  0
 21 22  1  0  0  0  0
 23  1  1  0  0  0  0
 24 25  1  0  0  0  0
 25 26  2  0  0  0  0
 25 23  1  0  0  0  0
 26 31  1  0  0  0  0
 27 26  1  0  0  0  0
 28 27  2  0  0  0  0
 29 28  1  0  0  0  0
 29 24  2  0  0  0  0
 30 24  1  0  0  0  0
 32 28  1  0  0  0  0
M  END
>  <minimizedAffinity>
-5.40886211

$$$$

 OpenBabel03242517433D

 32 35  0  0  0  0  0  0  0  0999 V2000
   37.2520   31.4450   39.3890 C   0  0  0  0  0  0  0  0  0  0  0  0
   36.8170   30.8970   38.2010 C   0  0  0  0  0  0  0  0  0  0  0  0
   36.6540   31.5270   37.3390 H   0  0  0  0  0  0  0  0  0  0  0  0
   36.5990   29.5350   38.1590 C   0  0  0  0  0  0  0  0  0  0  0  0
   36.2560   29.1640   37.1950 H   0  0  0  0  0  0  0  0  0  0  0  0
   36.7790   28.6600   39.2090 C   0  0  0  0  0  0  0  0  0  0  0  0
   37.2140   29.2580   40.3660 C   0  0  0  0  0  0  0  0  0  0  0  0
   37.4450   30.6030   40.4610 C   0  0  0  0  0  0  0  0  0  0  0  0
   37.7890   31.0560   41.3840 H   0  0  0  0  0  0  0  0  0  0  0  0
   37.4900   28.2510   41.8040 S   0  0  0  0  0  0  0  0  0  0  0  0
   37.0970   26.5810   41.3230 C   0  0  0  0  0  0  0  0  0  0  0  0
   37.2140   25.5820   42.2240 C   0  0  0  0  0  0  0  0  0  0  0  0
   37.5520   25.8000   43.2480 H   0  0  0  0  0  0  0  0  0  0  0  0
   36.9230   24.2550   41.9210 C   0  0  0  0  0  0  0  0  0  0  0  0
   37.0230   23.4760   42.6490 H   0  0  0  0  0  0  0  0  0  0  0  0
   36.5030   24.0070   40.6330 C   0  0  0  0  0  0  0  0  0  0  0  0
   36.2720   22.9820   40.3770 H   0  0  0  0  0  0  0  0  0  0  0  0
   36.3960   25.0420   39.7490 C   0  0  0  0  0  0  0  0  0  0  0  0
   36.0540   24.7490   38.7510 H   0  0  0  0  0  0  0  0  0  0  0  0
   36.6790   26.3610   40.0330 C   0  0  0  0  0  0  0  0  0  0  0  0
   36.5160   27.3090   39.0100 N   0  0  0  0  0  0  0  0  0  0  0  0
   36.1890   26.9900   38.0740 H   0  0  0  0  0  0  0  0  0  0  0  0
   37.5640   33.1960   39.5510 S   0  0  0  0  0  0  0  0  0  0  0  0
   40.1710   32.6740   38.7440 C   0  0  0  0  0  0  0  0  0  0  0  0
   39.3420   33.3960   39.6370 C   0  0  0  0  0  0  0  0  0  0  0  0
   39.9470   34.2430   40.5560 C   0  0  0  0  0  0  0  0  0  0  0  0
   41.3050   34.3480   40.5660 N   0  0  0  0  0  0  0  0  0  0  0  0
   42.0630   33.6390   39.6940 C   0  0  0  0  0  0  0  0  0  0  0  0
   41.5140   32.8140   38.7940 N   0  0  0  0  0  0  0  0  0  0  0  0
   39.6980   32.0250   38.0400 H   0  0  0  0  0  0  0  0  0  0  0  0
   39.3440   34.8000   41.2410 H   0  0  0  0  0  0  0  0  0  0  0  0
   43.1230   33.8230   39.8170 H   0  0  0  0  0  0  0  0  0  0  0  0
  1 23  1  0  0  0  0
  1  8  1  0  0  0  0
  2  1  2  0  0  0  0
  3  2  1  0  0  0  0
  4  2  1  0  0  0  0
  4  6  2  0  0  0  0
  5  4  1  0  0  0  0
  6  7  1  0  0  0  0
  7  8  2  0  0  0  0
  7 10  1  0  0  0  0
  8  9  1  0  0  0  0
 11 10  1  0  0  0  0
 11 12  1  0  0  0  0
 12 13  1  0  0  0  0
 14 12  2  0  0  0  0
 14 15  1  0  0  0  0
 16 14  1  0  0  0  0
 17 16  1  0  0  0  0
 18 20  1  0  0  0  0
 18 16  2  0  0  0  0
 19 18  1  0  0  0  0
 20 11  2  0  0  0  0
 21  6  1  0  0  0  0
 21 20  1  0  0  0  0
 22 21  1  0  0  0  0
 23 25  1  0  0  0  0
 24 29  2  0  0  0  0
 24 25  1  0  0  0  0
 25 26  2  0  0  0  0
 26 27  1  0  0  0  0
 26 31  1  0  0  0  0
 28 32  1  0  0  0  0
 28 27  2  0  0  0  0
 29 28  1  0  0  0  0
 30 24  1  0  0  0  0
M  END
>  <minimizedAffinity>
-5.32778502

$$$$

 OpenBabel03242517433D

 32 35  0  0  0  0  0  0  0  0999 V2000
   40.2960   33.1640   39.8410 C   0  0  0  0  0  0  0  0  0  0  0  0
   38.9430   33.3090   39.6220 C   0  0  0  0  0  0  0  0  0  0  0  0
   38.5690   34.1460   39.0500 H   0  0  0  0  0  0  0  0  0  0  0  0
   38.0960   32.3590   40.1560 C   0  0  0  0  0  0  0  0  0  0  0  0
   37.0410   32.5280   39.9490 H   0  0  0  0  0  0  0  0  0  0  0  0
   38.4850   31.2630   40.8980 C   0  0  0  0  0  0  0  0  0  0  0  0
   39.8410   31.1680   41.0840 C   0  0  0  0  0  0  0  0  0  0  0  0
   40.7230   32.0830   40.5770 C   0  0  0  0  0  0  0  0  0  0  0  0
   41.7920   31.9890   40.7350 H   0  0  0  0  0  0  0  0  0  0  0  0
   40.4880   29.8050   42.0230 S   0  0  0  0  0  0  0  0  0  0  0  0
   39.0790   28.8320   42.5180 C   0  0  0  0  0  0  0  0  0  0  0  0
   39.2650   27.7150   43.2550 C   0  0  0  0  0  0  0  0  0  0  0  0
   40.2810   27.4090   43.5450 H   0  0  0  0  0  0  0  0  0  0  0  0
   38.2140   26.9070   43.6780 C   0  0  0  0  0  0  0  0  0  0  0  0
   38.3810   26.0250   44.2610 H   0  0  0  0  0  0  0  0  0  0  0  0
   36.9520   27.3100   43.3010 C   0  0  0  0  0  0  0  0  0  0  0  0
   36.1210   26.6960   43.6210 H   0  0  0  0  0  0  0  0  0  0  0  0
   36.8020   28.4450   42.5570 C   0  0  0  0  0  0  0  0  0  0  0  0
   35.7640   28.6860   42.3060 H   0  0  0  0  0  0  0  0  0  0  0  0
   37.8310   29.2560   42.1300 C   0  0  0  0  0  0  0  0  0  0  0  0
   37.5100   30.3920   41.3700 N   0  0  0  0  0  0  0  0  0  0  0  0
   36.5090   30.5860   41.1520 H   0  0  0  0  0  0  0  0  0  0  0  0
   41.4770   34.3390   39.1940 S   0  0  0  0  0  0  0  0  0  0  0  0
   44.1010   33.6090   38.6460 C   0  0  0  0  0  0  0  0  0  0  0  0
   42.7350   33.3870   38.3450 C   0  0  0  0  0  0  0  0  0  0  0  0
   42.4180   32.4280   37.3930 C   0  0  0  0  0  0  0  0  0  0  0  0
   43.4250   31.7400   36.7860 N   0  0  0  0  0  0  0  0  0  0  0  0
   44.7220   31.9820   37.1020 C   0  0  0  0  0  0  0  0  0  0  0  0
   45.0630   32.8990   38.0160 N   0  0  0  0  0  0  0  0  0  0  0  0
   44.3360   34.3480   39.3800 H   0  0  0  0  0  0  0  0  0  0  0  0
   41.3950   32.2410   37.1470 H   0  0  0  0  0  0  0  0  0  0  0  0
   45.4100   31.3620   36.5420 H   0  0  0  0  0  0  0  0  0  0  0  0
  1  8  1  0  0  0  0
  2  1  2  0  0  0  0
  2  4  1  0  0  0  0
  3  2  1  0  0  0  0
  4  6  2  0  0  0  0
  5  4  1  0  0  0  0
  6  7  1  0  0  0  0
  6 21  1  0  0  0  0
  7 10  1  0  0  0  0
  8  9  1  0  0  0  0
  8  7  2  0  0  0  0
 10 11  1  0  0  0  0
 11 12  1  0  0  0  0
 12 13  1  0  0  0  0
 12 14  2  0  0  0  0
 14 15  1  0  0  0  0
 16 17  1  0  0  0  0
 16 14  1  0  0  0  0
 18 16  2  0  0  0  0
 19 18  1  0  0  0  0
 20 11  2  0  0  0  0
 20 18  1  0  0  0  0
 21 20  1  0  0  0  0
 22 21  1  0  0  0  0
 23  1  1  0  0  0  0
 24 30  1  0  0  0  0
 25 24  1  0  0  0  0
 25 23  1  0  0  0  0
 26 25  2  0  0  0  0
 27 28  2  0  0  0  0
 27 26  1  0  0  0  0
 28 29  1  0  0  0  0
 29 24  2  0  0  0  0
 31 26  1  0  0  0  0
 32 28  1  0  0  0  0
M  END
>  <minimizedAffinity>
-5.20268965

$$$$

 OpenBabel03242517433D

 32 35  0  0  0  0  0  0  0  0999 V2000
   38.9200   30.8590   39.5270 C   0  0  0  0  0  0  0  0  0  0  0  0
   38.6500   29.9150   38.5600 C   0  0  0  0  0  0  0  0  0  0  0  0
   37.7000   29.3990   38.5520 H   0  0  0  0  0  0  0  0  0  0  0  0
   39.6250   29.6570   37.6180 C   0  0  0  0  0  0  0  0  0  0  0  0
   39.3520   28.9030   36.8820 H   0  0  0  0  0  0  0  0  0  0  0  0
   40.8610   30.2660   37.5540 C   0  0  0  0  0  0  0  0  0  0  0  0
   41.0760   31.1960   38.5390 C   0  0  0  0  0  0  0  0  0  0  0  0
   40.1430   31.4880   39.4970 C   0  0  0  0  0  0  0  0  0  0  0  0
   40.3330   32.2280   40.2670 H   0  0  0  0  0  0  0  0  0  0  0  0
   42.6280   32.0610   38.5820 S   0  0  0  0  0  0  0  0  0  0  0  0
   43.5810   31.4390   37.2110 C   0  0  0  0  0  0  0  0  0  0  0  0
   44.8230   31.9190   36.9880 C   0  0  0  0  0  0  0  0  0  0  0  0
   45.2420   32.6910   37.6500 H   0  0  0  0  0  0  0  0  0  0  0  0
   45.6250   31.4800   35.9390 C   0  0  0  0  0  0  0  0  0  0  0  0
   46.6070   31.8730   35.7780 H   0  0  0  0  0  0  0  0  0  0  0  0
   45.0780   30.5140   35.1230 C   0  0  0  0  0  0  0  0  0  0  0  0
   45.6850   30.1590   34.3010 H   0  0  0  0  0  0  0  0  0  0  0  0
   43.8180   30.0510   35.3780 C   0  0  0  0  0  0  0  0  0  0  0  0
   43.4690   29.2850   34.6790 H   0  0  0  0  0  0  0  0  0  0  0  0
   43.0130   30.4750   36.4130 C   0  0  0  0  0  0  0  0  0  0  0  0
   41.7390   29.8970   36.5410 N   0  0  0  0  0  0  0  0  0  0  0  0
   41.4430   29.1710   35.8540 H   0  0  0  0  0  0  0  0  0  0  0  0
   37.7270   31.2670   40.7930 S   0  0  0  0  0  0  0  0  0  0  0  0
   36.4830   28.8770   41.4730 C   0  0  0  0  0  0  0  0  0  0  0  0
   37.5140   29.7940   41.7920 C   0  0  0  0  0  0  0  0  0  0  0  0
   38.3310   29.5150   42.8780 C   0  0  0  0  0  0  0  0  0  0  0  0
   38.1130   28.3760   43.5940 N   0  0  0  0  0  0  0  0  0  0  0  0
   37.1150   27.5230   43.2570 C   0  0  0  0  0  0  0  0  0  0  0  0
   36.3090   27.7610   42.2150 N   0  0  0  0  0  0  0  0  0  0  0  0
   35.8600   29.0990   40.6350 H   0  0  0  0  0  0  0  0  0  0  0  0
   39.1160   30.1910   43.1400 H   0  0  0  0  0  0  0  0  0  0  0  0
   37.0620   26.6630   43.9130 H   0  0  0  0  0  0  0  0  0  0  0  0
  1 23  1  0  0  0  0
  2  1  2  0  0  0  0
  3  2  1  0  0  0  0
  4  2  1  0  0  0  0
  5  4  1  0  0  0  0
  6  4  2  0  0  0  0
  6  7  1  0  0  0  0
  7 10  1  0  0  0  0
  7  8  2  0  0  0  0
  8  1  1  0  0  0  0
  8  9  1  0  0  0  0
 11 10  1  0  0  0  0
 12 11  1  0  0  0  0
 12 13  1  0  0  0  0
 14 12  2  0  0  0  0
 15 14  1  0  0  0  0
 16 18  2  0  0  0  0
 16 14  1  0  0  0  0
 17 16  1  0  0  0  0
 18 20  1  0  0  0  0
 19 18  1  0  0  0  0
 20 21  1  0  0  0  0
 20 11  2  0  0  0  0
 21  6  1  0  0  0  0
 22 21  1  0  0  0  0
 23 25  1  0  0  0  0
 24 25  2  0  0  0  0
 24 29  1  0  0  0  0
 25 26  1  0  0  0  0
 26 31  1  0  0  0  0
 26 27  2  0  0  0  0
 28 27  1  0  0  0  0
 28 32  1  0  0  0  0
 29 28  2  0  0  0  0
 30 24  1  0  0  0  0
M  END
>  <minimizedAffinity>
-5.13644266

$$$$

 OpenBabel03242517433D

 32 35  0  0  0  0  0  0  0  0999 V2000
   34.1160   28.8690   36.9930 C   0  0  0  0  0  0  0  0  0  0  0  0
   35.2240   29.1780   36.2330 C   0  0  0  0  0  0  0  0  0  0  0  0
   35.1530   29.2190   35.1560 H   0  0  0  0  0  0  0  0  0  0  0  0
   36.4110   29.4270   36.8930 C   0  0  0  0  0  0  0  0  0  0  0  0
   37.2480   29.6640   36.2400 H   0  0  0  0  0  0  0  0  0  0  0  0
   36.5920   29.3950   38.2600 C   0  0  0  0  0  0  0  0  0  0  0  0
   35.4570   29.0840   38.9660 C   0  0  0  0  0  0  0  0  0  0  0  0
   34.2570   28.8290   38.3610 C   0  0  0  0  0  0  0  0  0  0  0  0
   33.3710   28.5850   38.9380 H   0  0  0  0  0  0  0  0  0  0  0  0
   35.5410   29.0070   40.7400 S   0  0  0  0  0  0  0  0  0  0  0  0
   37.2270   29.3890   41.1730 C   0  0  0  0  0  0  0  0  0  0  0  0
   37.5940   29.4070   42.4730 C   0  0  0  0  0  0  0  0  0  0  0  0
   36.8560   29.1860   43.2570 H   0  0  0  0  0  0  0  0  0  0  0  0
   38.8910   29.6950   42.8860 C   0  0  0  0  0  0  0  0  0  0  0  0
   39.1640   29.7050   43.9210 H   0  0  0  0  0  0  0  0  0  0  0  0
   39.7980   29.9680   41.8860 C   0  0  0  0  0  0  0  0  0  0  0  0
   40.8120   30.1960   42.1860 H   0  0  0  0  0  0  0  0  0  0  0  0
   39.3910   29.9420   40.5820 C   0  0  0  0  0  0  0  0  0  0  0  0
   40.1800   30.1710   39.8590 H   0  0  0  0  0  0  0  0  0  0  0  0
   38.1110   29.6570   40.1570 C   0  0  0  0  0  0  0  0  0  0  0  0
   37.8530   29.6700   38.7760 N   0  0  0  0  0  0  0  0  0  0  0  0
   38.6310   29.8930   38.1200 H   0  0  0  0  0  0  0  0  0  0  0  0
   32.5330   28.5300   36.2390 S   0  0  0  0  0  0  0  0  0  0  0  0
   30.8220   29.9990   37.8620 C   0  0  0  0  0  0  0  0  0  0  0  0
   31.4770   29.9290   36.6080 C   0  0  0  0  0  0  0  0  0  0  0  0
   31.2740   30.9610   35.7020 C   0  0  0  0  0  0  0  0  0  0  0  0
   30.4580   31.9950   36.0480 N   0  0  0  0  0  0  0  0  0  0  0  0
   29.8500   32.0250   37.2590 C   0  0  0  0  0  0  0  0  0  0  0  0
   30.0230   31.0480   38.1580 N   0  0  0  0  0  0  0  0  0  0  0  0
   30.9840   29.2020   38.5540 H   0  0  0  0  0  0  0  0  0  0  0  0
   31.7560   30.9320   34.7480 H   0  0  0  0  0  0  0  0  0  0  0  0
   29.2340   32.9050   37.3950 H   0  0  0  0  0  0  0  0  0  0  0  0
  1  8  1  0  0  0  0
  2  4  1  0  0  0  0
  2  1  2  0  0  0  0
  3  2  1  0  0  0  0
  4  6  2  0  0  0  0
  5  4  1  0  0  0  0
  6 21  1  0  0  0  0
  6  7  1  0  0  0  0
  7 10  1  0  0  0  0
  8  9  1  0  0  0  0
  8  7  2  0  0  0  0
 10 11  1  0  0  0  0
 11 12  1  0  0  0  0
 12 14  2  0  0  0  0
 12 13  1  0  0  0  0
 14 15  1  0  0  0  0
 16 17  1  0  0  0  0
 16 14  1  0  0  0  0
 18 16  2  0  0  0  0
 19 18  1  0  0  0  0
 20 18  1  0  0  0  0
 20 11  2  0  0  0  0
 21 20  1  0  0  0  0
 22 21  1  0  0  0  0
 23 25  1  0  0  0  0
 23  1  1  0  0  0  0
 24 29  1  0  0  0  0
 24 30  1  0  0  0  0
 25 24  2  0  0  0  0
 26 27  2  0  0  0  0
 26 25  1  0  0  0  0
 27 28  1  0  0  0  0
 28 32  1  0  0  0  0
 28 29  2  0  0  0  0
 31 26  1  0  0  0  0
M  END
>  <minimizedAffinity>
-5.09577465

$$$$

 OpenBabel03242517433D

 32 35  0  0  0  0  0  0  0  0999 V2000
   39.0840   28.9280   42.2820 C   0  0  0  0  0  0  0  0  0  0  0  0
   38.1640   28.3420   43.1250 C   0  0  0  0  0  0  0  0  0  0  0  0
   37.7360   28.9060   43.9410 H   0  0  0  0  0  0  0  0  0  0  0  0
   37.8190   27.0260   42.8910 C   0  0  0  0  0  0  0  0  0  0  0  0
   37.0900   26.6210   43.5900 H   0  0  0  0  0  0  0  0  0  0  0  0
   38.3150   26.2340   41.8780 C   0  0  0  0  0  0  0  0  0  0  0  0
   39.2260   26.8670   41.0690 C   0  0  0  0  0  0  0  0  0  0  0  0
   39.6020   28.1690   41.2580 C   0  0  0  0  0  0  0  0  0  0  0  0
   40.3220   28.6510   40.6070 H   0  0  0  0  0  0  0  0  0  0  0  0
   39.9500   25.9670   39.7190 S   0  0  0  0  0  0  0  0  0  0  0  0
   39.2410   24.3330   39.7750 C   0  0  0  0  0  0  0  0  0  0  0  0
   39.6090   23.4130   38.8570 C   0  0  0  0  0  0  0  0  0  0  0  0
   40.3420   23.6740   38.0800 H   0  0  0  0  0  0  0  0  0  0  0  0
   39.0980   22.1190   38.8390 C   0  0  0  0  0  0  0  0  0  0  0  0
   39.4020   21.4040   38.1030 H   0  0  0  0  0  0  0  0  0  0  0  0
   38.1820   21.8170   39.8220 C   0  0  0  0  0  0  0  0  0  0  0  0
   37.7720   20.8160   39.8250 H   0  0  0  0  0  0  0  0  0  0  0  0
   37.8330   22.7720   40.7340 C   0  0  0  0  0  0  0  0  0  0  0  0
   37.1000   22.4400   41.4760 H   0  0  0  0  0  0  0  0  0  0  0  0
   38.3290   24.0570   40.7660 C   0  0  0  0  0  0  0  0  0  0  0  0
   37.8690   24.9210   41.7720 N   0  0  0  0  0  0  0  0  0  0  0  0
   37.1700   24.5680   42.4600 H   0  0  0  0  0  0  0  0  0  0  0  0
   39.6000   30.6250   42.4970 S   0  0  0  0  0  0  0  0  0  0  0  0
   39.1290   32.8960   40.9670 C   0  0  0  0  0  0  0  0  0  0  0  0
   38.6800   31.5960   41.3050 C   0  0  0  0  0  0  0  0  0  0  0  0
   37.5310   31.1170   40.6910 C   0  0  0  0  0  0  0  0  0  0  0  0
   36.8810   31.9080   39.7930 N   0  0  0  0  0  0  0  0  0  0  0  0
   37.3440   33.1480   39.4960 C   0  0  0  0  0  0  0  0  0  0  0  0
   38.4490   33.6420   40.0690 N   0  0  0  0  0  0  0  0  0  0  0  0
   40.0140   33.2570   41.4430 H   0  0  0  0  0  0  0  0  0  0  0  0
   37.1710   30.1390   40.9280 H   0  0  0  0  0  0  0  0  0  0  0  0
   36.7280   33.6600   38.7680 H   0  0  0  0  0  0  0  0  0  0  0  0
  1 23  1  0  0  0  0
  1  2  1  0  0  0  0
  2  3  1  0  0  0  0
  4  2  2  0  0  0  0
  4  5  1  0  0  0  0
  6  4  1  0  0  0  0
  7  8  1  0  0  0  0
  7  6  2  0  0  0  0
  8  1  2  0  0  0  0
  9  8  1  0  0  0  0
 10 11  1  0  0  0  0
 10  7  1  0  0  0  0
 11 20  1  0  0  0  0
 12 11  2  0  0  0  0
 13 12  1  0  0  0  0
 14 12  1  0  0  0  0
 14 16  2  0  0  0  0
 15 14  1  0  0  0  0
 16 17  1  0  0  0  0
 16 18  1  0  0  0  0
 18 20  2  0  0  0  0
 18 19  1  0  0  0  0
 20 21  1  0  0  0  0
 21  6  1  0  0  0  0
 21 22  1  0  0  0  0
 24 25  1  0  0  0  0
 24 30  1  0  0  0  0
 25 23  1  0  0  0  0
 26 31  1  0  0  0  0
 26 25  2  0  0  0  0
 27 26  1  0  0  0  0
 28 27  2  0  0  0  0
 28 29  1  0  0  0  0
 29 24  2  0  0  0  0
 32 28  1  0  0  0  0
M  END
>  <minimizedAffinity>
-5.03678846

$$$$

 OpenBabel03242517433D

 32 35  0  0  0  0  0  0  0  0999 V2000
   38.0070   26.1010   42.0240 C   0  0  0  0  0  0  0  0  0  0  0  0
   36.9130   26.7050   42.6070 C   0  0  0  0  0  0  0  0  0  0  0  0
   36.2430   26.1330   43.2320 H   0  0  0  0  0  0  0  0  0  0  0  0
   36.7110   28.0480   42.3630 C   0  0  0  0  0  0  0  0  0  0  0  0
   35.8320   28.4660   42.8510 H   0  0  0  0  0  0  0  0  0  0  0  0
   37.5110   28.8520   41.5800 C   0  0  0  0  0  0  0  0  0  0  0  0
   38.5850   28.2000   41.0250 C   0  0  0  0  0  0  0  0  0  0  0  0
   38.8310   26.8710   41.2350 C   0  0  0  0  0  0  0  0  0  0  0  0
   39.6850   26.3740   40.7880 H   0  0  0  0  0  0  0  0  0  0  0  0
   39.7050   29.1120   39.9910 S   0  0  0  0  0  0  0  0  0  0  0  0
   39.0870   30.7830   39.9420 C   0  0  0  0  0  0  0  0  0  0  0  0
   39.7440   31.7170   39.2210 C   0  0  0  0  0  0  0  0  0  0  0  0
   40.6550   31.4460   38.6690 H   0  0  0  0  0  0  0  0  0  0  0  0
   39.3190   33.0400   39.1360 C   0  0  0  0  0  0  0  0  0  0  0  0
   39.8540   33.7670   38.5590 H   0  0  0  0  0  0  0  0  0  0  0  0
   38.1760   33.3540   39.8360 C   0  0  0  0  0  0  0  0  0  0  0  0
   37.8300   34.3780   39.7830 H   0  0  0  0  0  0  0  0  0  0  0  0
   37.5370   32.3840   40.5540 C   0  0  0  0  0  0  0  0  0  0  0  0
   36.6390   32.7270   41.0760 H   0  0  0  0  0  0  0  0  0  0  0  0
   37.9440   31.0700   40.6480 C   0  0  0  0  0  0  0  0  0  0  0  0
   37.1740   30.1920   41.4290 N   0  0  0  0  0  0  0  0  0  0  0  0
   36.3260   30.5580   41.9110 H   0  0  0  0  0  0  0  0  0  0  0  0
   38.3600   24.3680   42.2740 S   0  0  0  0  0  0  0  0  0  0  0  0
   36.2600   23.9080   40.5150 C   0  0  0  0  0  0  0  0  0  0  0  0
   37.5350   23.4790   40.9560 C   0  0  0  0  0  0  0  0  0  0  0  0
   38.1050   22.3720   40.3420 C   0  0  0  0  0  0  0  0  0  0  0  0
   37.4230   21.7430   39.3450 N   0  0  0  0  0  0  0  0  0  0  0  0
   36.2030   22.1860   38.9510 C   0  0  0  0  0  0  0  0  0  0  0  0
   35.6230   23.2500   39.5210 N   0  0  0  0  0  0  0  0  0  0  0  0
   35.8280   24.7600   40.9920 H   0  0  0  0  0  0  0  0  0  0  0  0
   39.0670   22.0270   40.6560 H   0  0  0  0  0  0  0  0  0  0  0  0
   35.7810   21.5900   38.1510 H   0  0  0  0  0  0  0  0  0  0  0  0
  1 23  1  0  0  0  0
  1  2  1  0  0  0  0
  2  3  1  0  0  0  0
  4  2  2  0  0  0  0
  4  5  1  0  0  0  0
  6  4  1  0  0  0  0
  7  8  1  0  0  0  0
  7  6  2  0  0  0  0
  8  1  2  0  0  0  0
  9  8  1  0  0  0  0
 10  7  1  0  0  0  0
 11 10  1  0  0  0  0
 11 20  1  0  0  0  0
 12 11  2  0  0  0  0
 13 12  1  0  0  0  0
 14 12  1  0  0  0  0
 14 16  2  0  0  0  0
 15 14  1  0  0  0  0
 16 18  1  0  0  0  0
 17 16  1  0  0  0  0
 18 20  2  0  0  0  0
 18 19  1  0  0  0  0
 20 21  1  0  0  0  0
 21  6  1  0  0  0  0
 21 22  1  0  0  0  0
 24 25  1  0  0  0  0
 24 30  1  0  0  0  0
 25 23  1  0  0  0  0
 26 31  1  0  0  0  0
 26 25  2  0  0  0  0
 27 26  1  0  0  0  0
 28 27  2  0  0  0  0
 28 29  1  0  0  0  0
 29 24  2  0  0  0  0
 32 28  1  0  0  0  0
M  END
>  <minimizedAffinity>
-5.01253223

$$$$
