
 OpenBabel03242523113D

 59 65  0  0  1  0  0  0  0  0999 V2000
   46.4300   31.9840   45.4910 C   0  0  0  0  0  0  0  0  0  0  0  0
   46.7450   32.7410   44.3410 C   0  0  0  0  0  0  0  0  0  0  0  0
   47.7160   32.1230   43.5900 C   0  0  0  0  0  0  0  0  0  0  0  0
   48.3250   30.9420   43.8800 C   0  0  0  0  0  0  0  0  0  0  0  0
   47.9600   30.2600   45.0370 C   0  0  0  0  0  0  0  0  0  0  0  0
   46.9960   30.7930   45.8520 C   0  0  0  0  0  0  0  0  0  0  0  0
   48.7500   29.1220   45.0440 O   0  0  0  0  0  0  0  0  0  0  0  0
   49.5510   29.0750   43.8790 C   0  0  2  0  0  0  0  0  0  0  0  0
   49.3030   30.2780   43.1620 O   0  0  0  0  0  0  0  0  0  0  0  0
   45.6880   32.1890   46.2930 H   0  0  0  0  0  0  0  0  0  0  0  0
   47.9640   32.6650   42.7320 H   0  0  0  0  0  0  0  0  0  0  0  0
   46.8030   30.1880   46.6950 H   0  0  0  0  0  0  0  0  0  0  0  0
   50.6270   29.0070   44.1520 H   0  0  0  0  0  0  0  0  0  0  0  0
   45.1060   36.0080   43.5170 C   0  0  0  0  0  0  0  0  0  0  0  0
   45.9030   34.8890   43.2790 C   0  0  0  0  0  0  0  0  0  0  0  0
   46.0470   33.9470   44.2530 C   0  0  0  0  0  0  0  0  0  0  0  0
   45.3870   34.1650   45.4330 N   0  0  0  0  0  0  0  0  0  0  0  0
   44.6230   35.2400   45.6590 C   0  0  0  0  0  0  0  0  0  0  0  0
   44.4880   36.1390   44.7180 N   0  0  0  0  0  0  0  0  0  0  0  0
   44.9850   36.7580   42.7530 H   0  0  0  0  0  0  0  0  0  0  0  0
   44.0780   35.4680   46.5650 H   0  0  0  0  0  0  0  0  0  0  0  0
   46.5410   34.8120   42.0420 N   0  0  0  0  0  0  0  0  0  0  0  0
   47.8680   35.3020   41.8410 C   0  0  0  0  0  0  0  0  0  0  0  0
   48.4650   34.9820   40.5000 C   0  0  0  0  0  0  0  0  0  0  0  0
   48.1590   33.7180   40.0090 N   0  0  0  0  0  0  0  0  0  0  0  0
   46.8810   33.2570   40.1690 C   0  0  0  0  0  0  0  0  0  0  0  0
   45.9980   34.2690   40.8600 C   0  0  0  0  0  0  0  0  0  0  0  0
   48.5870   35.0240   42.6470 H   0  0  0  0  0  0  0  0  0  0  0  0
   47.8040   36.4240   41.9130 H   0  0  0  0  0  0  0  0  0  0  0  0
   48.0600   35.7480   39.7770 H   0  0  0  0  0  0  0  0  0  0  0  0
   49.5500   35.2090   40.5520 H   0  0  0  0  0  0  0  0  0  0  0  0
   48.8160   33.2490   39.3870 H   0  0  0  0  0  0  0  0  0  0  0  0
   46.7600   32.2760   40.6940 H   0  0  0  0  0  0  0  0  0  0  0  0
   46.4070   33.0700   39.1620 H   0  0  0  0  0  0  0  0  0  0  0  0
   45.0670   33.7040   41.1410 H   0  0  0  0  0  0  0  0  0  0  0  0
   45.6930   35.0080   40.0800 H   0  0  0  0  0  0  0  0  0  0  0  0
   49.1090   27.9900   43.1160 O   0  0  0  0  0  0  0  0  0  0  0  0
   49.8440   27.2100   42.2710 C   0  0  0  0  0  0  0  0  0  0  0  0
   50.4250   27.5880   41.0790 C   0  0  0  0  0  0  0  0  0  0  0  0
   50.2850   28.6160   40.7770 H   0  0  0  0  0  0  0  0  0  0  0  0
   51.1360   26.6540   40.3550 C   0  0  0  0  0  0  0  0  0  0  0  0
   51.5630   27.0390   39.4240 H   0  0  0  0  0  0  0  0  0  0  0  0
   51.3120   25.3470   40.7420 C   0  0  0  0  0  0  0  0  0  0  0  0
   50.7360   24.9890   41.9160 C   0  0  0  0  0  0  0  0  0  0  0  0
   50.0340   25.8740   42.6480 C   0  0  0  0  0  0  0  0  0  0  0  0
   49.5910   25.5210   43.5920 H   0  0  0  0  0  0  0  0  0  0  0  0
   50.9220   23.3080   42.4820 S   0  0  0  0  0  0  0  0  0  0  0  0
   51.9030   22.4990   41.2310 C   0  0  0  0  0  0  0  0  0  0  0  0
   52.1650   21.1750   41.4810 C   0  0  0  0  0  0  0  0  0  0  0  0
   51.8160   20.6260   42.3650 H   0  0  0  0  0  0  0  0  0  0  0  0
   52.9200   20.4560   40.5690 C   0  0  0  0  0  0  0  0  0  0  0  0
   53.1730   19.4110   40.6860 H   0  0  0  0  0  0  0  0  0  0  0  0
   53.3850   21.0950   39.4380 C   0  0  0  0  0  0  0  0  0  0  0  0
   53.9760   20.5460   38.7180 H   0  0  0  0  0  0  0  0  0  0  0  0
   53.0700   22.4280   39.2740 C   0  0  0  0  0  0  0  0  0  0  0  0
   53.4780   22.8640   38.3470 H   0  0  0  0  0  0  0  0  0  0  0  0
   52.3240   23.1920   40.1480 C   0  0  0  0  0  0  0  0  0  0  0  0
   52.0650   24.5350   39.8820 N   0  0  0  0  0  0  0  0  0  0  0  0
   52.4660   24.9160   38.9980 H   0  0  0  0  0  0  0  0  0  0  0  0
  1  6  1  0  0  0  0
  1 10  1  0  0  0  0
  2  1  2  0  0  0  0
  3  4  2  0  0  0  0
  3  2  1  0  0  0  0
  4  5  1  0  0  0  0
  5  7  1  0  0  0  0
  5  6  2  0  0  0  0
  6 12  1  0  0  0  0
  8 13  1  1  0  0  0
  8  7  1  0  0  0  0
  9  8  1  0  0  0  0
  9  4  1  0  0  0  0
 11  3  1  0  0  0  0
 14 19  1  0  0  0  0
 15 14  2  0  0  0  0
 15 16  1  0  0  0  0
 16  2  1  0  0  0  0
 16 17  2  0  0  0  0
 17 18  1  0  0  0  0
 18 21  1  0  0  0  0
 19 18  2  0  0  0  0
 20 14  1  0  0  0  0
 22 15  1  0  0  0  0
 23 29  1  0  0  0  0
 23 22  1  0  0  0  0
 23 28  1  0  0  0  0
 24 31  1  0  0  0  0
 24 23  1  0  0  0  0
 25 26  1  0  0  0  0
 25 24  1  0  0  0  0
 26 33  1  0  0  0  0
 26 27  1  0  0  0  0
 27 35  1  0  0  0  0
 27 22  1  0  0  0  0
 30 24  1  0  0  0  0
 32 25  1  0  0  0  0
 34 26  1  0  0  0  0
 36 27  1  0  0  0  0
 37  8  1  0  0  0  0
 38 45  1  0  0  0  0
 38 37  1  0  0  0  0
 39 38  2  0  0  0  0
 40 39  1  0  0  0  0
 41 43  2  0  0  0  0
 41 39  1  0  0  0  0
 42 41  1  0  0  0  0
 43 44  1  0  0  0  0
 44 47  1  0  0  0  0
 44 45  2  0  0  0  0
 45 46  1  0  0  0  0
 48 49  1  0  0  0  0
 48 47  1  0  0  0  0
 49 50  1  0  0  0  0
 51 52  1  0  0  0  0
 51 49  2  0  0  0  0
 53 51  1  0  0  0  0
 54 53  1  0  0  0  0
 55 53  2  0  0  0  0
 55 57  1  0  0  0  0
 56 55  1  0  0  0  0
 57 48  2  0  0  0  0
 58 57  1  0  0  0  0
 58 43  1  0  0  0  0
 59 58  1  0  0  0  0
M  END
>  <minimizedAffinity>
-4.63896084

>  <minimizedRMSD>
1.29370248

$$$$
