
 OpenBabel03242516233D

 42 46  0  0  0  0  0  0  0  0999 V2000
   38.9070   34.6920   40.0240 C   0  0  0  0  0  0  0  0  0  0  0  0
   39.1710   36.0350   40.2000 C   0  0  0  0  0  0  0  0  0  0  0  0
   38.4190   36.7670   39.9390 H   0  0  0  0  0  0  0  0  0  0  0  0
   40.3980   36.4110   40.7060 C   0  0  0  0  0  0  0  0  0  0  0  0
   40.5300   37.4970   40.8160 H   0  0  0  0  0  0  0  0  0  0  0  0
   41.3970   35.5300   41.0570 C   0  0  0  0  0  0  0  0  0  0  0  0
   41.0790   34.2110   40.8620 C   0  0  0  0  0  0  0  0  0  0  0  0
   39.8820   33.7760   40.3630 C   0  0  0  0  0  0  0  0  0  0  0  0
   39.6980   32.7290   40.2360 H   0  0  0  0  0  0  0  0  0  0  0  0
   42.3030   32.9870   41.2830 S   0  0  0  0  0  0  0  0  0  0  0  0
   43.7240   33.8660   41.8940 C   0  0  0  0  0  0  0  0  0  0  0  0
   44.8210   33.1510   42.2920 C   0  0  0  0  0  0  0  0  0  0  0  0
   44.8020   32.0670   42.2280 H   0  0  0  0  0  0  0  0  0  0  0  0
   45.9490   33.7780   42.7740 C   0  0  0  0  0  0  0  0  0  0  0  0
   46.8130   33.2140   43.0870 H   0  0  0  0  0  0  0  0  0  0  0  0
   45.9260   35.1550   42.8370 C   0  0  0  0  0  0  0  0  0  0  0  0
   46.7950   35.6770   43.2100 H   0  0  0  0  0  0  0  0  0  0  0  0
   44.8010   35.8390   42.4250 C   0  0  0  0  0  0  0  0  0  0  0  0
   44.8690   36.9280   42.5100 H   0  0  0  0  0  0  0  0  0  0  0  0
   43.6620   35.2340   41.9410 C   0  0  0  0  0  0  0  0  0  0  0  0
   42.5970   36.0790   41.5620 N   0  0  0  0  0  0  0  0  0  0  0  0
   42.6920   37.1090   41.6540 H   0  0  0  0  0  0  0  0  0  0  0  0
   37.3640   34.0810   39.3790 S   0  0  0  0  0  0  0  0  0  0  0  0
   37.3000   30.1470   40.2320 C   0  0  0  0  0  0  0  0  0  0  0  0
   37.3030   31.5170   40.3190 C   0  0  0  0  0  0  0  0  0  0  0  0
   37.3640   32.3190   39.2010 C   0  0  0  0  0  0  0  0  0  0  0  0
   37.4260   31.7410   37.9360 C   0  0  0  0  0  0  0  0  0  0  0  0
   37.4250   30.3710   37.8220 C   0  0  0  0  0  0  0  0  0  0  0  0
   37.3630   29.5970   38.9680 C   0  0  0  0  0  0  0  0  0  0  0  0
   37.2560   32.0070   41.2830 H   0  0  0  0  0  0  0  0  0  0  0  0
   37.4730   32.4290   37.0970 H   0  0  0  0  0  0  0  0  0  0  0  0
   37.4740   29.9570   36.8170 H   0  0  0  0  0  0  0  0  0  0  0  0
   37.3640   28.5240   38.8250 H   0  0  0  0  0  0  0  0  0  0  0  0
   38.0530   28.8690   43.5740 C   0  0  0  0  0  0  0  0  0  0  0  0
   37.1830   27.8010   43.7310 C   0  0  0  0  0  0  0  0  0  0  0  0
   36.3260   27.5130   42.6800 C   0  0  0  0  0  0  0  0  0  0  0  0
   36.3480   28.2650   41.5290 N   0  0  0  0  0  0  0  0  0  0  0  0
   37.2350   29.3160   41.4280 C   0  0  0  0  0  0  0  0  0  0  0  0
   38.0770   29.6050   42.4530 N   0  0  0  0  0  0  0  0  0  0  0  0
   38.7100   29.0680   44.4150 H   0  0  0  0  0  0  0  0  0  0  0  0
   37.1470   27.1920   44.6290 H   0  0  0  0  0  0  0  0  0  0  0  0
   35.6030   26.6930   42.7010 H   0  0  0  0  0  0  0  0  0  0  0  0
  1  2  2  0  0  0  0
  1  8  1  0  0  0  0
  2  4  1  0  0  0  0
  3  2  1  0  0  0  0
  4  5  1  0  0  0  0
  4  6  2  0  0  0  0
  6 21  1  0  0  0  0
  7  6  1  0  0  0  0
  7 10  1  0  0  0  0
  8  7  2  0  0  0  0
  9  8  1  0  0  0  0
 10 11  1  0  0  0  0
 11 20  2  0  0  0  0
 11 12  1  0  0  0  0
 12 14  2  0  0  0  0
 13 12  1  0  0  0  0
 14 16  1  0  0  0  0
 14 15  1  0  0  0  0
 16 17  1  0  0  0  0
 18 19  1  0  0  0  0
 18 16  2  0  0  0  0
 20 18  1  0  0  0  0
 21 22  1  0  0  0  0
 21 20  1  0  0  0  0
 23  1  1  0  0  0  0
 24 25  1  0  0  0  0
 24 38  1  0  0  0  0
 25 30  1  0  0  0  0
 26 23  1  0  0  0  0
 26 25  2  0  0  0  0
 27 26  1  0  0  0  0
 28 27  2  0  0  0  0
 28 29  1  0  0  0  0
 29 24  2  0  0  0  0
 31 27  1  0  0  0  0
 32 28  1  0  0  0  0
 33 29  1  0  0  0  0
 34 35  1  0  0  0  0
 34 40  1  0  0  0  0
 35 41  1  0  0  0  0
 36 42  1  0  0  0  0
 36 35  2  0  0  0  0
 37 36  1  0  0  0  0
 38 37  2  0  0  0  0
 38 39  1  0  0  0  0
 39 34  2  0  0  0  0
M  END
>  <minimizedAffinity>
-7.39016533

$$$$

 OpenBabel03242516233D

 42 46  0  0  0  0  0  0  0  0999 V2000
   39.3170   33.5720   40.1560 C   0  0  0  0  0  0  0  0  0  0  0  0
   38.0050   33.4600   39.7470 C   0  0  0  0  0  0  0  0  0  0  0  0
   37.5630   34.2430   39.1460 H   0  0  0  0  0  0  0  0  0  0  0  0
   37.2840   32.3450   40.1200 C   0  0  0  0  0  0  0  0  0  0  0  0
   36.2470   32.3320   39.7550 H   0  0  0  0  0  0  0  0  0  0  0  0
   37.7870   31.3140   40.8820 C   0  0  0  0  0  0  0  0  0  0  0  0
   39.0940   31.4770   41.2590 C   0  0  0  0  0  0  0  0  0  0  0  0
   39.8600   32.5600   40.9230 C   0  0  0  0  0  0  0  0  0  0  0  0
   40.8770   32.6250   41.2500 H   0  0  0  0  0  0  0  0  0  0  0  0
   39.8430   30.2010   42.2490 S   0  0  0  0  0  0  0  0  0  0  0  0
   38.6010   28.9530   42.5090 C   0  0  0  0  0  0  0  0  0  0  0  0
   38.9220   27.8470   43.2490 C   0  0  0  0  0  0  0  0  0  0  0  0
   39.9220   27.7540   43.6610 H   0  0  0  0  0  0  0  0  0  0  0  0
   38.0010   26.8490   43.4820 C   0  0  0  0  0  0  0  0  0  0  0  0
   38.2540   25.9780   44.0650 H   0  0  0  0  0  0  0  0  0  0  0  0
   36.7440   27.0120   42.9390 C   0  0  0  0  0  0  0  0  0  0  0  0
   36.0000   26.2480   43.1030 H   0  0  0  0  0  0  0  0  0  0  0  0
   36.4610   28.1420   42.1990 C   0  0  0  0  0  0  0  0  0  0  0  0
   35.4410   28.1890   41.8060 H   0  0  0  0  0  0  0  0  0  0  0  0
   37.3650   29.1520   41.9530 C   0  0  0  0  0  0  0  0  0  0  0  0
   36.9160   30.2410   41.1770 N   0  0  0  0  0  0  0  0  0  0  0  0
   35.9410   30.2570   40.8170 H   0  0  0  0  0  0  0  0  0  0  0  0
   40.3510   34.9620   39.7410 S   0  0  0  0  0  0  0  0  0  0  0  0
   43.8120   34.7290   41.7830 C   0  0  0  0  0  0  0  0  0  0  0  0
   42.5040   34.9350   41.4210 C   0  0  0  0  0  0  0  0  0  0  0  0
   42.0510   34.6760   40.1460 C   0  0  0  0  0  0  0  0  0  0  0  0
   42.9310   34.1910   39.1830 C   0  0  0  0  0  0  0  0  0  0  0  0
   44.2460   33.9770   39.5210 C   0  0  0  0  0  0  0  0  0  0  0  0
   44.6660   34.2490   40.8120 C   0  0  0  0  0  0  0  0  0  0  0  0
   41.7870   35.3110   42.1400 H   0  0  0  0  0  0  0  0  0  0  0  0
   42.5100   34.0080   38.1980 H   0  0  0  0  0  0  0  0  0  0  0  0
   44.9030   33.5980   38.7400 H   0  0  0  0  0  0  0  0  0  0  0  0
   45.7100   34.0630   41.0270 H   0  0  0  0  0  0  0  0  0  0  0  0
   45.4570   34.2710   45.0170 C   0  0  0  0  0  0  0  0  0  0  0  0
   45.1890   35.4470   45.7020 C   0  0  0  0  0  0  0  0  0  0  0  0
   44.4360   36.4110   45.0490 C   0  0  0  0  0  0  0  0  0  0  0  0
   43.9760   36.1970   43.7700 N   0  0  0  0  0  0  0  0  0  0  0  0
   44.2720   35.0090   43.1380 C   0  0  0  0  0  0  0  0  0  0  0  0
   45.0100   34.0600   43.7700 N   0  0  0  0  0  0  0  0  0  0  0  0
   46.0490   33.5390   45.5560 H   0  0  0  0  0  0  0  0  0  0  0  0
   45.5390   35.6400   46.7100 H   0  0  0  0  0  0  0  0  0  0  0  0
   44.1680   37.3720   45.4990 H   0  0  0  0  0  0  0  0  0  0  0  0
  1  8  1  0  0  0  0
  2  4  1  0  0  0  0
  2  1  2  0  0  0  0
  3  2  1  0  0  0  0
  4  6  2  0  0  0  0
  5  4  1  0  0  0  0
  6 21  1  0  0  0  0
  6  7  1  0  0  0  0
  7 10  1  0  0  0  0
  8  9  1  0  0  0  0
  8  7  2  0  0  0  0
 10 11  1  0  0  0  0
 11 12  1  0  0  0  0
 12 14  2  0  0  0  0
 12 13  1  0  0  0  0
 14 15  1  0  0  0  0
 16 17  1  0  0  0  0
 16 14  1  0  0  0  0
 18 16  2  0  0  0  0
 19 18  1  0  0  0  0
 20 18  1  0  0  0  0
 20 11  2  0  0  0  0
 21 20  1  0  0  0  0
 22 21  1  0  0  0  0
 23 26  1  0  0  0  0
 23  1  1  0  0  0  0
 24 38  1  0  0  0  0
 25 24  1  0  0  0  0
 25 30  1  0  0  0  0
 26 25  2  0  0  0  0
 27 28  2  0  0  0  0
 27 26  1  0  0  0  0
 28 29  1  0  0  0  0
 29 33  1  0  0  0  0
 29 24  2  0  0  0  0
 31 27  1  0  0  0  0
 32 28  1  0  0  0  0
 34 40  1  0  0  0  0
 34 35  1  0  0  0  0
 35 41  1  0  0  0  0
 36 42  1  0  0  0  0
 36 35  2  0  0  0  0
 37 36  1  0  0  0  0
 38 39  1  0  0  0  0
 38 37  2  0  0  0  0
 39 34  2  0  0  0  0
M  END
>  <minimizedAffinity>
-7.38372803

$$$$

 OpenBabel03242516233D

 42 46  0  0  0  0  0  0  0  0999 V2000
   36.8310   28.9890   39.9540 C   0  0  0  0  0  0  0  0  0  0  0  0
   35.8890   29.8090   40.5380 C   0  0  0  0  0  0  0  0  0  0  0  0
   34.9460   29.3930   40.8660 H   0  0  0  0  0  0  0  0  0  0  0  0
   36.1760   31.1500   40.6890 C   0  0  0  0  0  0  0  0  0  0  0  0
   35.3740   31.7350   41.1630 H   0  0  0  0  0  0  0  0  0  0  0  0
   37.3550   31.7420   40.2940 C   0  0  0  0  0  0  0  0  0  0  0  0
   38.2530   30.8800   39.7210 C   0  0  0  0  0  0  0  0  0  0  0  0
   38.0270   29.5420   39.5420 C   0  0  0  0  0  0  0  0  0  0  0  0
   38.7720   28.9240   39.0870 H   0  0  0  0  0  0  0  0  0  0  0  0
   39.8130   31.5430   39.1730 S   0  0  0  0  0  0  0  0  0  0  0  0
   39.7930   33.2830   39.5420 C   0  0  0  0  0  0  0  0  0  0  0  0
   40.8860   34.0390   39.2180 C   0  0  0  0  0  0  0  0  0  0  0  0
   41.7410   33.5640   38.7440 H   0  0  0  0  0  0  0  0  0  0  0  0
   40.9270   35.3900   39.4810 C   0  0  0  0  0  0  0  0  0  0  0  0
   41.7900   35.9860   39.2250 H   0  0  0  0  0  0  0  0  0  0  0  0
   39.8190   35.9490   40.0830 C   0  0  0  0  0  0  0  0  0  0  0  0
   39.8200   37.0060   40.3030 H   0  0  0  0  0  0  0  0  0  0  0  0
   38.7370   35.1520   40.3940 C   0  0  0  0  0  0  0  0  0  0  0  0
   37.9030   35.6770   40.8690 H   0  0  0  0  0  0  0  0  0  0  0  0
   38.6730   33.8000   40.1410 C   0  0  0  0  0  0  0  0  0  0  0  0
   37.4920   33.1300   40.5210 N   0  0  0  0  0  0  0  0  0  0  0  0
   36.7170   33.6550   40.9710 H   0  0  0  0  0  0  0  0  0  0  0  0
   36.5800   27.2430   39.7030 S   0  0  0  0  0  0  0  0  0  0  0  0
   39.3360   26.0730   42.3930 C   0  0  0  0  0  0  0  0  0  0  0  0
   38.5980   26.7940   41.4870 C   0  0  0  0  0  0  0  0  0  0  0  0
   37.4920   26.2630   40.8610 C   0  0  0  0  0  0  0  0  0  0  0  0
   37.0960   24.9580   41.1420 C   0  0  0  0  0  0  0  0  0  0  0  0
   37.8200   24.2160   42.0450 C   0  0  0  0  0  0  0  0  0  0  0  0
   38.9260   24.7830   42.6550 C   0  0  0  0  0  0  0  0  0  0  0  0
   38.8710   27.8120   41.2410 H   0  0  0  0  0  0  0  0  0  0  0  0
   36.2170   24.6000   40.6140 H   0  0  0  0  0  0  0  0  0  0  0  0
   37.4790   23.2000   42.2370 H   0  0  0  0  0  0  0  0  0  0  0  0
   39.4610   24.1570   43.3580 H   0  0  0  0  0  0  0  0  0  0  0  0
   41.9740   28.4660   43.2230 C   0  0  0  0  0  0  0  0  0  0  0  0
   42.7000   27.8350   44.2220 C   0  0  0  0  0  0  0  0  0  0  0  0
   42.2820   26.5750   44.6190 C   0  0  0  0  0  0  0  0  0  0  0  0
   41.1870   25.9810   44.0350 N   0  0  0  0  0  0  0  0  0  0  0  0
   40.5040   26.6540   43.0460 C   0  0  0  0  0  0  0  0  0  0  0  0
   40.9070   27.8890   42.6510 N   0  0  0  0  0  0  0  0  0  0  0  0
   42.3280   29.4510   42.9370 H   0  0  0  0  0  0  0  0  0  0  0  0
   43.5670   28.2810   44.6990 H   0  0  0  0  0  0  0  0  0  0  0  0
   42.7830   25.9920   45.3980 H   0  0  0  0  0  0  0  0  0  0  0  0
  1  2  1  0  0  0  0
  2  4  2  0  0  0  0
  2  3  1  0  0  0  0
  4  5  1  0  0  0  0
  6 21  1  0  0  0  0
  6  4  1  0  0  0  0
  7  6  2  0  0  0  0
  8  7  1  0  0  0  0
  8  1  2  0  0  0  0
  9  8  1  0  0  0  0
 10 11  1  0  0  0  0
 10  7  1  0  0  0  0
 11 20  1  0  0  0  0
 12 14  1  0  0  0  0
 12 11  2  0  0  0  0
 13 12  1  0  0  0  0
 14 16  2  0  0  0  0
 15 14  1  0  0  0  0
 16 17  1  0  0  0  0
 16 18  1  0  0  0  0
 18 19  1  0  0  0  0
 20 18  2  0  0  0  0
 20 21  1  0  0  0  0
 21 22  1  0  0  0  0
 23  1  1  0  0  0  0
 23 26  1  0  0  0  0
 24 29  1  0  0  0  0
 24 38  1  0  0  0  0
 25 24  2  0  0  0  0
 26 27  2  0  0  0  0
 26 25  1  0  0  0  0
 27 28  1  0  0  0  0
 28 32  1  0  0  0  0
 28 29  2  0  0  0  0
 29 33  1  0  0  0  0
 30 25  1  0  0  0  0
 31 27  1  0  0  0  0
 34 35  1  0  0  0  0
 35 36  2  0  0  0  0
 35 41  1  0  0  0  0
 36 42  1  0  0  0  0
 37 36  1  0  0  0  0
 38 37  2  0  0  0  0
 39 38  1  0  0  0  0
 39 34  2  0  0  0  0
 40 34  1  0  0  0  0
M  END
>  <minimizedAffinity>
-7.35954666

$$$$

 OpenBabel03242516233D

 42 46  0  0  0  0  0  0  0  0999 V2000
   38.7470   32.5180   38.5050 C   0  0  0  0  0  0  0  0  0  0  0  0
   38.1780   33.3160   39.4760 C   0  0  0  0  0  0  0  0  0  0  0  0
   37.1010   33.3820   39.5520 H   0  0  0  0  0  0  0  0  0  0  0  0
   39.0050   34.0160   40.3300 C   0  0  0  0  0  0  0  0  0  0  0  0
   38.4750   34.6280   41.0740 H   0  0  0  0  0  0  0  0  0  0  0  0
   40.3810   33.9760   40.2870 C   0  0  0  0  0  0  0  0  0  0  0  0
   40.8900   33.1670   39.3050 C   0  0  0  0  0  0  0  0  0  0  0  0
   40.1240   32.4500   38.4270 C   0  0  0  0  0  0  0  0  0  0  0  0
   40.5860   31.8360   37.6820 H   0  0  0  0  0  0  0  0  0  0  0  0
   42.6610   33.0440   39.1610 S   0  0  0  0  0  0  0  0  0  0  0  0
   43.3560   34.0820   40.4270 C   0  0  0  0  0  0  0  0  0  0  0  0
   44.7170   34.1670   40.5370 C   0  0  0  0  0  0  0  0  0  0  0  0
   45.3440   33.6030   39.8520 H   0  0  0  0  0  0  0  0  0  0  0  0
   45.3110   34.9550   41.4990 C   0  0  0  0  0  0  0  0  0  0  0  0
   46.3840   35.0220   41.5840 H   0  0  0  0  0  0  0  0  0  0  0  0
   44.4760   35.6530   42.3450 C   0  0  0  0  0  0  0  0  0  0  0  0
   44.9100   36.2790   43.1100 H   0  0  0  0  0  0  0  0  0  0  0  0
   43.1090   35.5390   42.2020 C   0  0  0  0  0  0  0  0  0  0  0  0
   42.5230   36.1270   42.9150 H   0  0  0  0  0  0  0  0  0  0  0  0
   42.4920   34.7590   41.2480 C   0  0  0  0  0  0  0  0  0  0  0  0
   41.0820   34.7530   41.2360 N   0  0  0  0  0  0  0  0  0  0  0  0
   40.5530   35.3210   41.9260 H   0  0  0  0  0  0  0  0  0  0  0  0
   37.7890   31.5660   37.3440 S   0  0  0  0  0  0  0  0  0  0  0  0
   36.5650   28.8440   40.0440 C   0  0  0  0  0  0  0  0  0  0  0  0
   37.2390   29.8470   39.3930 C   0  0  0  0  0  0  0  0  0  0  0  0
   36.8800   30.2670   38.1310 C   0  0  0  0  0  0  0  0  0  0  0  0
   35.8040   29.6690   37.4820 C   0  0  0  0  0  0  0  0  0  0  0  0
   35.1130   28.6620   38.1140 C   0  0  0  0  0  0  0  0  0  0  0  0
   35.5030   28.2660   39.3810 C   0  0  0  0  0  0  0  0  0  0  0  0
   38.0820   30.3390   39.8630 H   0  0  0  0  0  0  0  0  0  0  0  0
   35.5740   30.0460   36.4890 H   0  0  0  0  0  0  0  0  0  0  0  0
   34.2790   28.2190   37.5730 H   0  0  0  0  0  0  0  0  0  0  0  0
   34.9260   27.4700   39.8350 H   0  0  0  0  0  0  0  0  0  0  0  0
   37.3010   26.6390   42.8670 C   0  0  0  0  0  0  0  0  0  0  0  0
   37.6940   27.5040   43.8780 C   0  0  0  0  0  0  0  0  0  0  0  0
   37.7090   28.8600   43.5910 C   0  0  0  0  0  0  0  0  0  0  0  0
   37.3440   29.3190   42.3460 N   0  0  0  0  0  0  0  0  0  0  0  0
   36.9610   28.4140   41.3810 C   0  0  0  0  0  0  0  0  0  0  0  0
   36.9450   27.0840   41.6530 N   0  0  0  0  0  0  0  0  0  0  0  0
   37.3010   25.5850   43.1250 H   0  0  0  0  0  0  0  0  0  0  0  0
   37.9860   27.1680   44.8670 H   0  0  0  0  0  0  0  0  0  0  0  0
   38.0020   29.6250   44.3160 H   0  0  0  0  0  0  0  0  0  0  0  0
  1  2  1  0  0  0  0
  2  3  1  0  0  0  0
  2  4  2  0  0  0  0
  4  5  1  0  0  0  0
  6  4  1  0  0  0  0
  6 21  1  0  0  0  0
  7  6  2  0  0  0  0
  8  1  2  0  0  0  0
  8  7  1  0  0  0  0
  9  8  1  0  0  0  0
 10  7  1  0  0  0  0
 10 11  1  0  0  0  0
 11 12  2  0  0  0  0
 11 20  1  0  0  0  0
 12 14  1  0  0  0  0
 13 12  1  0  0  0  0
 14 15  1  0  0  0  0
 14 16  2  0  0  0  0
 16 17  1  0  0  0  0
 18 16  1  0  0  0  0
 18 19  1  0  0  0  0
 20 18  2  0  0  0  0
 21 20  1  0  0  0  0
 21 22  1  0  0  0  0
 23 26  1  0  0  0  0
 23  1  1  0  0  0  0
 24 38  1  0  0  0  0
 25 30  1  0  0  0  0
 25 24  1  0  0  0  0
 26 25  2  0  0  0  0
 27 28  2  0  0  0  0
 27 26  1  0  0  0  0
 28 29  1  0  0  0  0
 29 33  1  0  0  0  0
 29 24  2  0  0  0  0
 31 27  1  0  0  0  0
 32 28  1  0  0  0  0
 34 40  1  0  0  0  0
 34 35  1  0  0  0  0
 35 41  1  0  0  0  0
 36 35  2  0  0  0  0
 36 42  1  0  0  0  0
 37 36  1  0  0  0  0
 38 39  1  0  0  0  0
 38 37  2  0  0  0  0
 39 34  2  0  0  0  0
M  END
>  <minimizedAffinity>
-6.95729256

$$$$

 OpenBabel03242516233D

 42 46  0  0  0  0  0  0  0  0999 V2000
   39.4350   31.5410   39.5670 C   0  0  0  0  0  0  0  0  0  0  0  0
   38.2870   31.7870   40.2900 C   0  0  0  0  0  0  0  0  0  0  0  0
   37.8990   32.7950   40.3540 H   0  0  0  0  0  0  0  0  0  0  0  0
   37.6570   30.7330   40.9180 C   0  0  0  0  0  0  0  0  0  0  0  0
   36.7500   31.0110   41.4730 H   0  0  0  0  0  0  0  0  0  0  0  0
   38.0970   29.4280   40.8760 C   0  0  0  0  0  0  0  0  0  0  0  0
   39.2410   29.2430   40.1440 C   0  0  0  0  0  0  0  0  0  0  0  0
   39.9110   30.2480   39.5000 C   0  0  0  0  0  0  0  0  0  0  0  0
   40.8000   30.0340   38.9440 H   0  0  0  0  0  0  0  0  0  0  0  0
   39.8970   27.5920   40.0250 S   0  0  0  0  0  0  0  0  0  0  0  0
   38.8120   26.5350   40.9590 C   0  0  0  0  0  0  0  0  0  0  0  0
   39.0930   25.1980   41.0300 C   0  0  0  0  0  0  0  0  0  0  0  0
   39.9690   24.8100   40.5180 H   0  0  0  0  0  0  0  0  0  0  0  0
   38.2880   24.3330   41.7380 C   0  0  0  0  0  0  0  0  0  0  0  0
   38.5100   23.2790   41.7940 H   0  0  0  0  0  0  0  0  0  0  0  0
   37.1880   24.8720   42.3720 C   0  0  0  0  0  0  0  0  0  0  0  0
   36.5370   24.2210   42.9350 H   0  0  0  0  0  0  0  0  0  0  0  0
   36.9400   26.2260   42.2750 C   0  0  0  0  0  0  0  0  0  0  0  0
   36.0480   26.5670   42.8080 H   0  0  0  0  0  0  0  0  0  0  0  0
   37.7300   27.1100   41.5740 C   0  0  0  0  0  0  0  0  0  0  0  0
   37.3370   28.4640   41.5750 N   0  0  0  0  0  0  0  0  0  0  0  0
   36.4840   28.7580   42.0900 H   0  0  0  0  0  0  0  0  0  0  0  0
   40.3390   32.8170   38.7130 S   0  0  0  0  0  0  0  0  0  0  0  0
   42.0510   35.4240   41.2570 C   0  0  0  0  0  0  0  0  0  0  0  0
   41.7880   34.3430   40.4520 C   0  0  0  0  0  0  0  0  0  0  0  0
   40.6180   34.2370   39.7330 C   0  0  0  0  0  0  0  0  0  0  0  0
   39.6620   35.2450   39.8110 C   0  0  0  0  0  0  0  0  0  0  0  0
   39.9020   36.3380   40.6100 C   0  0  0  0  0  0  0  0  0  0  0  0
   41.0880   36.4110   41.3190 C   0  0  0  0  0  0  0  0  0  0  0  0
   42.5060   33.5380   40.3630 H   0  0  0  0  0  0  0  0  0  0  0  0
   38.7630   35.0990   39.2200 H   0  0  0  0  0  0  0  0  0  0  0  0
   39.1300   37.1050   40.6450 H   0  0  0  0  0  0  0  0  0  0  0  0
   41.2290   37.2920   41.9320 H   0  0  0  0  0  0  0  0  0  0  0  0
   44.4220   36.3880   43.8680 C   0  0  0  0  0  0  0  0  0  0  0  0
   45.6020   35.7570   43.5030 C   0  0  0  0  0  0  0  0  0  0  0  0
   45.5870   34.9910   42.3480 C   0  0  0  0  0  0  0  0  0  0  0  0
   44.4390   34.8690   41.6000 N   0  0  0  0  0  0  0  0  0  0  0  0
   43.2960   35.5190   42.0100 C   0  0  0  0  0  0  0  0  0  0  0  0
   43.3020   36.2720   43.1410 N   0  0  0  0  0  0  0  0  0  0  0  0
   44.4680   36.9800   44.7770 H   0  0  0  0  0  0  0  0  0  0  0  0
   46.5210   35.8380   44.0750 H   0  0  0  0  0  0  0  0  0  0  0  0
   46.4620   34.4530   41.9710 H   0  0  0  0  0  0  0  0  0  0  0  0
  1  2  1  0  0  0  0
  2  3  1  0  0  0  0
  2  4  2  0  0  0  0
  4  5  1  0  0  0  0
  6  4  1  0  0  0  0
  6 21  1  0  0  0  0
  7  6  2  0  0  0  0
  8  1  2  0  0  0  0
  8  7  1  0  0  0  0
  9  8  1  0  0  0  0
 10  7  1  0  0  0  0
 10 11  1  0  0  0  0
 11 12  2  0  0  0  0
 11 20  1  0  0  0  0
 12 14  1  0  0  0  0
 13 12  1  0  0  0  0
 14 15  1  0  0  0  0
 14 16  2  0  0  0  0
 16 17  1  0  0  0  0
 18 16  1  0  0  0  0
 18 19  1  0  0  0  0
 20 21  1  0  0  0  0
 20 18  2  0  0  0  0
 21 22  1  0  0  0  0
 23  1  1  0  0  0  0
 23 26  1  0  0  0  0
 24 29  1  0  0  0  0
 24 38  1  0  0  0  0
 25 24  2  0  0  0  0
 26 27  2  0  0  0  0
 26 25  1  0  0  0  0
 27 28  1  0  0  0  0
 28 32  1  0  0  0  0
 28 29  2  0  0  0  0
 29 33  1  0  0  0  0
 30 25  1  0  0  0  0
 31 27  1  0  0  0  0
 34 40  1  0  0  0  0
 35 34  1  0  0  0  0
 35 41  1  0  0  0  0
 36 35  2  0  0  0  0
 37 38  2  0  0  0  0
 37 36  1  0  0  0  0
 38 39  1  0  0  0  0
 39 34  2  0  0  0  0
 42 36  1  0  0  0  0
M  END
>  <minimizedAffinity>
-6.83808804

$$$$

 OpenBabel03242516233D

 42 46  0  0  0  0  0  0  0  0999 V2000
   38.1120   27.6910   42.2520 C   0  0  0  0  0  0  0  0  0  0  0  0
   37.1020   26.9420   42.8200 C   0  0  0  0  0  0  0  0  0  0  0  0
   36.4690   27.3840   43.5780 H   0  0  0  0  0  0  0  0  0  0  0  0
   36.9250   25.6390   42.4030 C   0  0  0  0  0  0  0  0  0  0  0  0
   36.1000   25.1110   42.9030 H   0  0  0  0  0  0  0  0  0  0  0  0
   37.6940   25.0180   41.4440 C   0  0  0  0  0  0  0  0  0  0  0  0
   38.6810   25.8090   40.9150 C   0  0  0  0  0  0  0  0  0  0  0  0
   38.9070   27.1060   41.2870 C   0  0  0  0  0  0  0  0  0  0  0  0
   39.6960   27.6680   40.8330 H   0  0  0  0  0  0  0  0  0  0  0  0
   39.7350   25.1030   39.6660 S   0  0  0  0  0  0  0  0  0  0  0  0
   39.1880   23.4280   39.4130 C   0  0  0  0  0  0  0  0  0  0  0  0
   39.8390   22.6540   38.4920 C   0  0  0  0  0  0  0  0  0  0  0  0
   40.6730   23.0730   37.9370 H   0  0  0  0  0  0  0  0  0  0  0  0
   39.4590   21.3510   38.2550 C   0  0  0  0  0  0  0  0  0  0  0  0
   39.9730   20.7400   37.5290 H   0  0  0  0  0  0  0  0  0  0  0  0
   38.3960   20.8620   38.9850 C   0  0  0  0  0  0  0  0  0  0  0  0
   38.0730   19.8440   38.8220 H   0  0  0  0  0  0  0  0  0  0  0  0
   37.7670   21.6760   39.9040 C   0  0  0  0  0  0  0  0  0  0  0  0
   36.9350   21.2070   40.4370 H   0  0  0  0  0  0  0  0  0  0  0  0
   38.1290   22.9800   40.1580 C   0  0  0  0  0  0  0  0  0  0  0  0
   37.3810   23.6770   41.1310 N   0  0  0  0  0  0  0  0  0  0  0  0
   36.5960   23.2040   41.6200 H   0  0  0  0  0  0  0  0  0  0  0  0
   38.4420   29.3820   42.7050 S   0  0  0  0  0  0  0  0  0  0  0  0
   38.4090   32.5600   40.2340 C   0  0  0  0  0  0  0  0  0  0  0  0
   38.7300   31.6490   41.2100 C   0  0  0  0  0  0  0  0  0  0  0  0
   37.9750   30.5190   41.4300 C   0  0  0  0  0  0  0  0  0  0  0  0
   36.8480   30.2760   40.6500 C   0  0  0  0  0  0  0  0  0  0  0  0
   36.5050   31.1730   39.6670 C   0  0  0  0  0  0  0  0  0  0  0  0
   37.2880   32.2980   39.4740 C   0  0  0  0  0  0  0  0  0  0  0  0
   39.5990   31.8000   41.8380 H   0  0  0  0  0  0  0  0  0  0  0  0
   36.2960   29.3670   40.8760 H   0  0  0  0  0  0  0  0  0  0  0  0
   35.6170   30.9480   39.0780 H   0  0  0  0  0  0  0  0  0  0  0  0
   36.9760   32.9730   38.6870 H   0  0  0  0  0  0  0  0  0  0  0  0
   39.3750   36.0840   40.0970 C   0  0  0  0  0  0  0  0  0  0  0  0
   40.6830   36.0580   39.6370 C   0  0  0  0  0  0  0  0  0  0  0  0
   41.2430   34.8190   39.3700 C   0  0  0  0  0  0  0  0  0  0  0  0
   40.5190   33.6650   39.5580 N   0  0  0  0  0  0  0  0  0  0  0  0
   39.2230   33.7500   40.0160 C   0  0  0  0  0  0  0  0  0  0  0  0
   38.6660   34.9600   40.2810 N   0  0  0  0  0  0  0  0  0  0  0  0
   38.9670   37.0700   40.2970 H   0  0  0  0  0  0  0  0  0  0  0  0
   41.2750   36.9540   39.4800 H   0  0  0  0  0  0  0  0  0  0  0  0
   42.2660   34.6870   39.0030 H   0  0  0  0  0  0  0  0  0  0  0  0
  1 23  1  0  0  0  0
  1  2  1  0  0  0  0
  2  3  1  0  0  0  0
  4  2  2  0  0  0  0
  4  5  1  0  0  0  0
  6  4  1  0  0  0  0
  7  8  1  0  0  0  0
  7  6  2  0  0  0  0
  8  1  2  0  0  0  0
  9  8  1  0  0  0  0
 10  7  1  0  0  0  0
 11 10  1  0  0  0  0
 11 20  1  0  0  0  0
 12 11  2  0  0  0  0
 13 12  1  0  0  0  0
 14 12  1  0  0  0  0
 14 16  2  0  0  0  0
 15 14  1  0  0  0  0
 16 18  1  0  0  0  0
 17 16  1  0  0  0  0
 18 20  2  0  0  0  0
 18 19  1  0  0  0  0
 20 21  1  0  0  0  0
 21  6  1  0  0  0  0
 21 22  1  0  0  0  0
 24 25  1  0  0  0  0
 25 26  2  0  0  0  0
 25 30  1  0  0  0  0
 26 23  1  0  0  0  0
 27 31  1  0  0  0  0
 27 26  1  0  0  0  0
 28 27  2  0  0  0  0
 29 28  1  0  0  0  0
 29 24  2  0  0  0  0
 32 28  1  0  0  0  0
 33 29  1  0  0  0  0
 34 39  1  0  0  0  0
 34 40  1  0  0  0  0
 35 34  2  0  0  0  0
 36 37  2  0  0  0  0
 36 35  1  0  0  0  0
 37 38  1  0  0  0  0
 38 24  1  0  0  0  0
 38 39  2  0  0  0  0
 41 35  1  0  0  0  0
 42 36  1  0  0  0  0
M  END
>  <minimizedAffinity>
-6.81829023

$$$$

 OpenBabel03242516233D

 42 46  0  0  0  0  0  0  0  0999 V2000
   39.9480   32.4110   39.5560 C   0  0  0  0  0  0  0  0  0  0  0  0
   39.5620   33.7350   39.5800 C   0  0  0  0  0  0  0  0  0  0  0  0
   38.6620   34.0400   39.0650 H   0  0  0  0  0  0  0  0  0  0  0  0
   40.3420   34.6430   40.2660 C   0  0  0  0  0  0  0  0  0  0  0  0
   39.9670   35.6760   40.2370 H   0  0  0  0  0  0  0  0  0  0  0  0
   41.4980   34.3200   40.9430 C   0  0  0  0  0  0  0  0  0  0  0  0
   41.8320   32.9920   40.8850 C   0  0  0  0  0  0  0  0  0  0  0  0
   41.1010   32.0450   40.2210 C   0  0  0  0  0  0  0  0  0  0  0  0
   41.4180   31.0230   40.2160 H   0  0  0  0  0  0  0  0  0  0  0  0
   43.3110   32.4670   41.7260 S   0  0  0  0  0  0  0  0  0  0  0  0
   44.0200   33.9150   42.4780 C   0  0  0  0  0  0  0  0  0  0  0  0
   45.1780   33.7860   43.1960 C   0  0  0  0  0  0  0  0  0  0  0  0
   45.6400   32.8070   43.2910 H   0  0  0  0  0  0  0  0  0  0  0  0
   45.7720   34.8720   43.8000 C   0  0  0  0  0  0  0  0  0  0  0  0
   46.6850   34.7700   44.3650 H   0  0  0  0  0  0  0  0  0  0  0  0
   45.1500   36.0940   43.6510 C   0  0  0  0  0  0  0  0  0  0  0  0
   45.5900   36.9650   44.1120 H   0  0  0  0  0  0  0  0  0  0  0  0
   43.9830   36.1810   42.9200 C   0  0  0  0  0  0  0  0  0  0  0  0
   43.5590   37.1870   42.8530 H   0  0  0  0  0  0  0  0  0  0  0  0
   43.3720   35.1100   42.3070 C   0  0  0  0  0  0  0  0  0  0  0  0
   42.1820   35.3700   41.5960 N   0  0  0  0  0  0  0  0  0  0  0  0
   41.8020   36.3360   41.5510 H   0  0  0  0  0  0  0  0  0  0  0  0
   39.0280   31.1450   38.7060 S   0  0  0  0  0  0  0  0  0  0  0  0
   37.9500   28.2950   41.3360 C   0  0  0  0  0  0  0  0  0  0  0  0
   38.6530   29.0910   40.4660 C   0  0  0  0  0  0  0  0  0  0  0  0
   38.0670   30.1560   39.8170 C   0  0  0  0  0  0  0  0  0  0  0  0
   36.7250   30.4490   40.0370 C   0  0  0  0  0  0  0  0  0  0  0  0
   35.9990   29.6660   40.9040 C   0  0  0  0  0  0  0  0  0  0  0  0
   36.6210   28.6040   41.5380 C   0  0  0  0  0  0  0  0  0  0  0  0
   39.6990   28.8980   40.2670 H   0  0  0  0  0  0  0  0  0  0  0  0
   36.3250   31.3000   39.4930 H   0  0  0  0  0  0  0  0  0  0  0  0
   34.9520   29.9270   41.0490 H   0  0  0  0  0  0  0  0  0  0  0  0
   36.0070   28.0200   42.2120 H   0  0  0  0  0  0  0  0  0  0  0  0
   39.7690   26.4030   43.8830 C   0  0  0  0  0  0  0  0  0  0  0  0
   39.8180   25.1130   43.3740 C   0  0  0  0  0  0  0  0  0  0  0  0
   39.2210   24.8870   42.1440 C   0  0  0  0  0  0  0  0  0  0  0  0
   38.6070   25.9110   41.4620 N   0  0  0  0  0  0  0  0  0  0  0  0
   38.5880   27.1730   42.0150 C   0  0  0  0  0  0  0  0  0  0  0  0
   39.1700   27.4030   43.2200 N   0  0  0  0  0  0  0  0  0  0  0  0
   40.2450   26.5450   44.8470 H   0  0  0  0  0  0  0  0  0  0  0  0
   40.2970   24.2890   43.8920 H   0  0  0  0  0  0  0  0  0  0  0  0
   39.2040   23.9080   41.6540 H   0  0  0  0  0  0  0  0  0  0  0  0
  1  2  2  0  0  0  0
  1  8  1  0  0  0  0
  2  4  1  0  0  0  0
  3  2  1  0  0  0  0
  4  6  2  0  0  0  0
  5  4  1  0  0  0  0
  6 21  1  0  0  0  0
  7  6  1  0  0  0  0
  7 10  1  0  0  0  0
  8  7  2  0  0  0  0
  9  8  1  0  0  0  0
 10 11  1  0  0  0  0
 11 12  1  0  0  0  0
 12 13  1  0  0  0  0
 12 14  2  0  0  0  0
 14 15  1  0  0  0  0
 16 14  1  0  0  0  0
 16 17  1  0  0  0  0
 18 16  2  0  0  0  0
 19 18  1  0  0  0  0
 20 11  2  0  0  0  0
 20 18  1  0  0  0  0
 21 20  1  0  0  0  0
 22 21  1  0  0  0  0
 23  1  1  0  0  0  0
 23 26  1  0  0  0  0
 24 29  1  0  0  0  0
 24 38  1  0  0  0  0
 25 24  2  0  0  0  0
 26 27  2  0  0  0  0
 26 25  1  0  0  0  0
 27 28  1  0  0  0  0
 28 32  1  0  0  0  0
 28 29  2  0  0  0  0
 29 33  1  0  0  0  0
 30 25  1  0  0  0  0
 31 27  1  0  0  0  0
 34 40  1  0  0  0  0
 35 34  1  0  0  0  0
 35 41  1  0  0  0  0
 36 35  2  0  0  0  0
 37 38  2  0  0  0  0
 37 36  1  0  0  0  0
 38 39  1  0  0  0  0
 39 34  2  0  0  0  0
 42 36  1  0  0  0  0
M  END
>  <minimizedAffinity>
-6.80405903

$$$$

 OpenBabel03242516233D

 42 46  0  0  0  0  0  0  0  0999 V2000
   36.9770   30.4140   39.2360 C   0  0  0  0  0  0  0  0  0  0  0  0
   36.9320   30.7910   37.9100 C   0  0  0  0  0  0  0  0  0  0  0  0
   36.0730   30.5270   37.3070 H   0  0  0  0  0  0  0  0  0  0  0  0
   37.9910   31.5000   37.3830 C   0  0  0  0  0  0  0  0  0  0  0  0
   37.8780   31.7620   36.3210 H   0  0  0  0  0  0  0  0  0  0  0  0
   39.1120   31.8680   38.0950 C   0  0  0  0  0  0  0  0  0  0  0  0
   39.1020   31.4670   39.4060 C   0  0  0  0  0  0  0  0  0  0  0  0
   38.0830   30.7620   39.9860 C   0  0  0  0  0  0  0  0  0  0  0  0
   38.1390   30.4810   41.0160 H   0  0  0  0  0  0  0  0  0  0  0  0
   40.5060   31.8910   40.4170 S   0  0  0  0  0  0  0  0  0  0  0  0
   41.6370   32.7910   39.3800 C   0  0  0  0  0  0  0  0  0  0  0  0
   42.8120   33.2390   39.9190 C   0  0  0  0  0  0  0  0  0  0  0  0
   43.0310   33.0370   40.9640 H   0  0  0  0  0  0  0  0  0  0  0  0
   43.7250   33.9420   39.1650 C   0  0  0  0  0  0  0  0  0  0  0  0
   44.6520   34.2940   39.5900 H   0  0  0  0  0  0  0  0  0  0  0  0
   43.4050   34.1740   37.8430 C   0  0  0  0  0  0  0  0  0  0  0  0
   44.1000   34.7220   37.2250 H   0  0  0  0  0  0  0  0  0  0  0  0
   42.2100   33.7060   37.3380 C   0  0  0  0  0  0  0  0  0  0  0  0
   42.0380   33.9340   36.2820 H   0  0  0  0  0  0  0  0  0  0  0  0
   41.2820   33.0010   38.0730 C   0  0  0  0  0  0  0  0  0  0  0  0
   40.1090   32.5930   37.4050 N   0  0  0  0  0  0  0  0  0  0  0  0
   39.9730   32.8260   36.4020 H   0  0  0  0  0  0  0  0  0  0  0  0
   35.6750   29.4980   40.0320 S   0  0  0  0  0  0  0  0  0  0  0  0
   37.1080   25.8530   40.9640 C   0  0  0  0  0  0  0  0  0  0  0  0
   36.6240   26.9510   40.2960 C   0  0  0  0  0  0  0  0  0  0  0  0
   36.2930   28.1160   40.9510 C   0  0  0  0  0  0  0  0  0  0  0  0
   36.4470   28.2020   42.3320 C   0  0  0  0  0  0  0  0  0  0  0  0
   36.9290   27.1160   43.0240 C   0  0  0  0  0  0  0  0  0  0  0  0
   37.2510   25.9620   42.3320 C   0  0  0  0  0  0  0  0  0  0  0  0
   36.4900   26.9250   39.2220 H   0  0  0  0  0  0  0  0  0  0  0  0
   36.1670   29.1490   42.7860 H   0  0  0  0  0  0  0  0  0  0  0  0
   37.0340   27.2230   44.1020 H   0  0  0  0  0  0  0  0  0  0  0  0
   37.6270   25.1360   42.9220 H   0  0  0  0  0  0  0  0  0  0  0  0
   38.0020   23.6110   38.2170 C   0  0  0  0  0  0  0  0  0  0  0  0
   38.1140   22.3670   38.8190 C   0  0  0  0  0  0  0  0  0  0  0  0
   37.8810   22.2920   40.1830 C   0  0  0  0  0  0  0  0  0  0  0  0
   37.5500   23.4180   40.9020 N   0  0  0  0  0  0  0  0  0  0  0  0
   37.4530   24.6280   40.2520 C   0  0  0  0  0  0  0  0  0  0  0  0
   37.6810   24.7100   38.9150 N   0  0  0  0  0  0  0  0  0  0  0  0
   38.1920   23.6340   37.1490 H   0  0  0  0  0  0  0  0  0  0  0  0
   38.3720   21.4650   38.2740 H   0  0  0  0  0  0  0  0  0  0  0  0
   37.9420   21.3610   40.7540 H   0  0  0  0  0  0  0  0  0  0  0  0
  1  8  1  0  0  0  0
  1 23  1  0  0  0  0
  2  1  2  0  0  0  0
  3  2  1  0  0  0  0
  4  2  1  0  0  0  0
  4  6  2  0  0  0  0
  5  4  1  0  0  0  0
  6  7  1  0  0  0  0
  7  8  2  0  0  0  0
  7 10  1  0  0  0  0
  8  9  1  0  0  0  0
 11 12  1  0  0  0  0
 11 10  1  0  0  0  0
 12 13  1  0  0  0  0
 14 15  1  0  0  0  0
 14 12  2  0  0  0  0
 16 14  1  0  0  0  0
 17 16  1  0  0  0  0
 18 16  2  0  0  0  0
 18 20  1  0  0  0  0
 19 18  1  0  0  0  0
 20 11  2  0  0  0  0
 21 20  1  0  0  0  0
 21  6  1  0  0  0  0
 22 21  1  0  0  0  0
 23 26  1  0  0  0  0
 24 29  1  0  0  0  0
 25 26  1  0  0  0  0
 25 24  2  0  0  0  0
 26 27  2  0  0  0  0
 27 31  1  0  0  0  0
 27 28  1  0  0  0  0
 28 32  1  0  0  0  0
 29 33  1  0  0  0  0
 29 28  2  0  0  0  0
 30 25  1  0  0  0  0
 34 35  2  0  0  0  0
 34 39  1  0  0  0  0
 35 36  1  0  0  0  0
 36 42  1  0  0  0  0
 36 37  2  0  0  0  0
 38 37  1  0  0  0  0
 38 24  1  0  0  0  0
 39 38  2  0  0  0  0
 40 34  1  0  0  0  0
 41 35  1  0  0  0  0
M  END
>  <minimizedAffinity>
-6.69010496

$$$$

 OpenBabel03242516233D

 42 46  0  0  0  0  0  0  0  0999 V2000
   36.7410   29.0090   39.8760 C   0  0  0  0  0  0  0  0  0  0  0  0
   35.8560   29.8230   40.5510 C   0  0  0  0  0  0  0  0  0  0  0  0
   34.9210   29.4150   40.9110 H   0  0  0  0  0  0  0  0  0  0  0  0
   36.1890   31.1460   40.7510 C   0  0  0  0  0  0  0  0  0  0  0  0
   35.4310   31.7270   41.2960 H   0  0  0  0  0  0  0  0  0  0  0  0
   37.3610   31.7270   40.3190 C   0  0  0  0  0  0  0  0  0  0  0  0
   38.2010   30.8720   39.6550 C   0  0  0  0  0  0  0  0  0  0  0  0
   37.9280   29.5510   39.4250 C   0  0  0  0  0  0  0  0  0  0  0  0
   38.6300   28.9380   38.8990 H   0  0  0  0  0  0  0  0  0  0  0  0
   39.7460   31.5220   39.0520 S   0  0  0  0  0  0  0  0  0  0  0  0
   39.7960   33.2420   39.5060 C   0  0  0  0  0  0  0  0  0  0  0  0
   40.8910   33.9840   39.1580 C   0  0  0  0  0  0  0  0  0  0  0  0
   41.7040   33.5120   38.6140 H   0  0  0  0  0  0  0  0  0  0  0  0
   40.9840   35.3190   39.4830 C   0  0  0  0  0  0  0  0  0  0  0  0
   41.8480   35.9050   39.2080 H   0  0  0  0  0  0  0  0  0  0  0  0
   39.9280   35.8750   40.1730 C   0  0  0  0  0  0  0  0  0  0  0  0
   39.9700   36.9200   40.4430 H   0  0  0  0  0  0  0  0  0  0  0  0
   38.8420   35.0920   40.5050 C   0  0  0  0  0  0  0  0  0  0  0  0
   38.0500   35.6140   41.0510 H   0  0  0  0  0  0  0  0  0  0  0  0
   38.7260   33.7560   40.1910 C   0  0  0  0  0  0  0  0  0  0  0  0
   37.5490   33.0980   40.6040 N   0  0  0  0  0  0  0  0  0  0  0  0
   36.8160   33.6200   41.1220 H   0  0  0  0  0  0  0  0  0  0  0  0
   36.4270   27.2850   39.5550 S   0  0  0  0  0  0  0  0  0  0  0  0
   33.6550   27.9080   36.7030 C   0  0  0  0  0  0  0  0  0  0  0  0
   34.4960   28.0450   37.7790 C   0  0  0  0  0  0  0  0  0  0  0  0
   35.3670   27.0470   38.1570 C   0  0  0  0  0  0  0  0  0  0  0  0
   35.4100   25.8560   37.4380 C   0  0  0  0  0  0  0  0  0  0  0  0
   34.5770   25.6940   36.3560 C   0  0  0  0  0  0  0  0  0  0  0  0
   33.7150   26.7190   36.0060 C   0  0  0  0  0  0  0  0  0  0  0  0
   34.4950   28.9560   38.3650 H   0  0  0  0  0  0  0  0  0  0  0  0
   36.1180   25.1100   37.7880 H   0  0  0  0  0  0  0  0  0  0  0  0
   34.6400   24.7480   35.8200 H   0  0  0  0  0  0  0  0  0  0  0  0
   33.0810   26.5420   35.1460 H   0  0  0  0  0  0  0  0  0  0  0  0
   31.9740   30.4150   34.6410 C   0  0  0  0  0  0  0  0  0  0  0  0
   31.0510   30.9950   35.4990 C   0  0  0  0  0  0  0  0  0  0  0  0
   31.0020   30.5220   36.8010 C   0  0  0  0  0  0  0  0  0  0  0  0
   31.8430   29.5150   37.2150 N   0  0  0  0  0  0  0  0  0  0  0  0
   32.7410   28.9770   36.3190 C   0  0  0  0  0  0  0  0  0  0  0  0
   32.7950   29.4340   35.0420 N   0  0  0  0  0  0  0  0  0  0  0  0
   31.9850   30.8090   33.6290 H   0  0  0  0  0  0  0  0  0  0  0  0
   30.3770   31.7900   35.1970 H   0  0  0  0  0  0  0  0  0  0  0  0
   30.3120   30.9090   37.5570 H   0  0  0  0  0  0  0  0  0  0  0  0
  1  2  1  0  0  0  0
  2  4  2  0  0  0  0
  2  3  1  0  0  0  0
  4  5  1  0  0  0  0
  6 21  1  0  0  0  0
  6  4  1  0  0  0  0
  7  6  2  0  0  0  0
  8  7  1  0  0  0  0
  8  1  2  0  0  0  0
  9  8  1  0  0  0  0
 10 11  1  0  0  0  0
 10  7  1  0  0  0  0
 11 20  1  0  0  0  0
 12 14  1  0  0  0  0
 12 11  2  0  0  0  0
 13 12  1  0  0  0  0
 14 16  2  0  0  0  0
 15 14  1  0  0  0  0
 16 17  1  0  0  0  0
 16 18  1  0  0  0  0
 18 19  1  0  0  0  0
 20 18  2  0  0  0  0
 20 21  1  0  0  0  0
 21 22  1  0  0  0  0
 23  1  1  0  0  0  0
 24 25  1  0  0  0  0
 25 26  2  0  0  0  0
 25 30  1  0  0  0  0
 26 23  1  0  0  0  0
 27 31  1  0  0  0  0
 27 26  1  0  0  0  0
 28 27  2  0  0  0  0
 29 28  1  0  0  0  0
 29 24  2  0  0  0  0
 32 28  1  0  0  0  0
 33 29  1  0  0  0  0
 34 39  2  0  0  0  0
 34 35  1  0  0  0  0
 35 36  2  0  0  0  0
 36 37  1  0  0  0  0
 36 42  1  0  0  0  0
 38 24  1  0  0  0  0
 38 37  2  0  0  0  0
 39 38  1  0  0  0  0
 40 34  1  0  0  0  0
 41 35  1  0  0  0  0
M  END
>  <minimizedAffinity>
-6.66398859

$$$$
