
 OpenBabel03252502563D

 50 54  0  0  0  0  0  0  0  0999 V2000
   44.3090   26.0950   47.0140 O   0  0  0  0  0  0  0  0  0  0  0  0
   44.9620   27.1600   47.8820 P   0  0  2  0  0  0  0  0  0  0  0  0
   44.4880   26.9500   49.4810 O   0  0  0  0  0  0  0  0  0  0  0  0
   45.2380   26.9910   50.1310 H   0  0  0  0  0  0  0  0  0  0  0  0
   44.3660   28.6750   47.3750 O   0  0  0  0  0  0  0  0  0  0  0  0
   45.5920   29.8780   44.8050 Br  0  0  0  0  0  0  0  0  0  0  0  0
   45.6610   30.5770   46.6100 C   0  0  0  0  0  0  0  0  0  0  0  0
   46.3380   31.7530   46.7720 C   0  0  0  0  0  0  0  0  0  0  0  0
   46.3660   32.2250   48.0860 C   0  0  0  0  0  0  0  0  0  0  0  0
   45.7650   31.5680   49.1420 C   0  0  0  0  0  0  0  0  0  0  0  0
   45.1040   30.3910   48.8930 C   0  0  0  0  0  0  0  0  0  0  0  0
   45.0410   29.8740   47.6150 C   0  0  0  0  0  0  0  0  0  0  0  0
   46.8840   33.1510   48.2930 H   0  0  0  0  0  0  0  0  0  0  0  0
   45.8320   32.0010   50.1330 H   0  0  0  0  0  0  0  0  0  0  0  0
   44.6370   29.8840   49.7230 H   0  0  0  0  0  0  0  0  0  0  0  0
   47.0130   32.5380   45.7350 C   0  0  0  0  0  0  0  0  0  0  0  0
   48.0060   32.9280   46.0590 H   0  0  0  0  0  0  0  0  0  0  0  0
   47.2240   31.8370   44.8830 H   0  0  0  0  0  0  0  0  0  0  0  0
   44.5420   35.3170   45.4120 C   0  0  0  0  0  0  0  0  0  0  0  0
   44.7590   35.7340   44.0980 C   0  0  0  0  0  0  0  0  0  0  0  0
   45.7250   35.0750   43.3550 C   0  0  0  0  0  0  0  0  0  0  0  0
   46.4290   34.0560   43.9140 N   0  0  0  0  0  0  0  0  0  0  0  0
   46.1960   33.6650   45.2070 C   0  0  0  0  0  0  0  0  0  0  0  0
   45.2490   34.3160   45.9220 N   0  0  0  0  0  0  0  0  0  0  0  0
   43.8300   35.7340   46.0990 H   0  0  0  0  0  0  0  0  0  0  0  0
   44.1450   36.5560   43.7520 H   0  0  0  0  0  0  0  0  0  0  0  0
   45.8800   35.4110   42.3410 H   0  0  0  0  0  0  0  0  0  0  0  0
   46.6280   27.0370   47.7160 O   0  0  0  0  0  0  0  0  0  0  0  0
   47.3190   26.2440   46.8210 C   0  0  0  0  0  0  0  0  0  0  0  0
   47.7980   25.0110   47.2140 C   0  0  0  0  0  0  0  0  0  0  0  0
   47.6090   24.7070   48.2250 H   0  0  0  0  0  0  0  0  0  0  0  0
   48.4830   24.2440   46.2950 C   0  0  0  0  0  0  0  0  0  0  0  0
   48.8160   23.2970   46.6990 H   0  0  0  0  0  0  0  0  0  0  0  0
   48.7400   24.6070   44.9900 C   0  0  0  0  0  0  0  0  0  0  0  0
   48.2350   25.8440   44.6720 C   0  0  0  0  0  0  0  0  0  0  0  0
   47.5580   26.6370   45.5230 C   0  0  0  0  0  0  0  0  0  0  0  0
   47.1630   27.6180   45.2560 H   0  0  0  0  0  0  0  0  0  0  0  0
   48.4700   26.4840   43.0240 S   0  0  0  0  0  0  0  0  0  0  0  0
   49.3820   25.2280   42.1520 C   0  0  0  0  0  0  0  0  0  0  0  0
   49.7450   25.3770   40.8460 C   0  0  0  0  0  0  0  0  0  0  0  0
   49.4640   26.3010   40.3170 H   0  0  0  0  0  0  0  0  0  0  0  0
   50.4570   24.4580   40.0740 C   0  0  0  0  0  0  0  0  0  0  0  0
   50.7000   24.6540   39.0570 H   0  0  0  0  0  0  0  0  0  0  0  0
   50.8010   23.3030   40.7510 C   0  0  0  0  0  0  0  0  0  0  0  0
   51.3580   22.5450   40.2060 H   0  0  0  0  0  0  0  0  0  0  0  0
   50.4430   23.1310   42.0780 C   0  0  0  0  0  0  0  0  0  0  0  0
   50.7610   22.1800   42.5320 H   0  0  0  0  0  0  0  0  0  0  0  0
   49.7380   24.0730   42.7970 C   0  0  0  0  0  0  0  0  0  0  0  0
   49.4550   23.7480   44.1210 N   0  0  0  0  0  0  0  0  0  0  0  0
   49.7570   22.8470   44.5460 H   0  0  0  0  0  0  0  0  0  0  0  0
  2  1  2  6  0  0  0
  2  3  1  0  0  0  0
  3  4  1  0  0  0  0
  5 12  1  0  0  0  0
  5  2  1  0  0  0  0
  6  7  1  0  0  0  0
  7  8  2  0  0  0  0
  7 12  1  0  0  0  0
  8  9  1  0  0  0  0
  9 13  1  0  0  0  0
  9 10  2  0  0  0  0
 10 14  1  0  0  0  0
 11 10  1  0  0  0  0
 11 15  1  0  0  0  0
 12 11  2  0  0  0  0
 16 17  1  0  0  0  0
 16  8  1  0  0  0  0
 18 16  1  0  0  0  0
 19 24  1  0  0  0  0
 19 25  1  0  0  0  0
 20 19  2  0  0  0  0
 21 22  2  0  0  0  0
 21 20  1  0  0  0  0
 22 23  1  0  0  0  0
 23 16  1  0  0  0  0
 23 24  2  0  0  0  0
 26 20  1  0  0  0  0
 27 21  1  0  0  0  0
 28  2  1  0  0  0  0
 29 30  1  0  0  0  0
 29 28  1  0  0  0  0
 30 31  1  0  0  0  0
 32 33  1  0  0  0  0
 32 30  2  0  0  0  0
 34 32  1  0  0  0  0
 35 34  2  0  0  0  0
 35 36  1  0  0  0  0
 36 29  2  0  0  0  0
 37 36  1  0  0  0  0
 38 35  1  0  0  0  0
 39 48  1  0  0  0  0
 39 38  1  0  0  0  0
 40 39  2  0  0  0  0
 41 40  1  0  0  0  0
 42 44  2  0  0  0  0
 42 40  1  0  0  0  0
 43 42  1  0  0  0  0
 44 46  1  0  0  0  0
 45 44  1  0  0  0  0
 46 47  1  0  0  0  0
 46 48  2  0  0  0  0
 48 49  1  0  0  0  0
 49 50  1  0  0  0  0
 49 34  1  0  0  0  0
M  END
>  <minimizedAffinity>
-4.81628704

>  <minimizedRMSD>
1.12000644

$$$$
