
 OpenBabel03252502243D

 47 51  0  0  1  0  0  0  0  0999 V2000
   46.9790   34.6410   42.3260 N   0  0  0  0  0  0  0  0  0  0  0  0
   48.4150   34.8460   42.3900 C   0  0  0  0  0  0  0  0  0  0  0  0
   48.7130   35.6560   41.1080 C   0  0  0  0  0  0  0  0  0  0  0  0
   48.4740   34.7630   39.9170 C   0  0  0  0  0  0  0  0  0  0  0  0
   47.2160   33.9840   39.9820 C   0  0  0  0  0  0  0  0  0  0  0  0
   46.2880   34.3140   41.1050 C   0  0  1  0  0  0  0  0  0  0  0  0
   48.9460   33.8750   42.3340 H   0  0  0  0  0  0  0  0  0  0  0  0
   48.6630   35.4410   43.2810 H   0  0  0  0  0  0  0  0  0  0  0  0
   49.7600   35.9740   41.1350 H   0  0  0  0  0  0  0  0  0  0  0  0
   47.9790   36.4910   41.1000 H   0  0  0  0  0  0  0  0  0  0  0  0
   49.3400   34.0560   39.8760 H   0  0  0  0  0  0  0  0  0  0  0  0
   48.5730   35.3790   38.9950 H   0  0  0  0  0  0  0  0  0  0  0  0
   47.4040   32.8800   39.9700 H   0  0  0  0  0  0  0  0  0  0  0  0
   46.6500   34.1720   39.0400 H   0  0  0  0  0  0  0  0  0  0  0  0
   45.6570   35.1900   40.8620 H   0  0  0  0  0  0  0  0  0  0  0  0
   44.4860   35.8390   44.8540 C   0  0  0  0  0  0  0  0  0  0  0  0
   45.2220   35.7990   43.6630 C   0  0  0  0  0  0  0  0  0  0  0  0
   46.1780   34.7620   43.5130 C   0  0  0  0  0  0  0  0  0  0  0  0
   46.3180   33.8760   44.5300 N   0  0  0  0  0  0  0  0  0  0  0  0
   45.5860   33.9500   45.6670 C   0  0  0  0  0  0  0  0  0  0  0  0
   44.6700   34.9370   45.8190 N   0  0  0  0  0  0  0  0  0  0  0  0
   43.7960   36.6760   44.8360 H   0  0  0  0  0  0  0  0  0  0  0  0
   45.1360   36.4840   42.8370 H   0  0  0  0  0  0  0  0  0  0  0  0
   45.7050   33.2420   46.4650 H   0  0  0  0  0  0  0  0  0  0  0  0
   45.4640   33.2130   41.3250 O   0  0  0  0  0  0  0  0  0  0  0  0
   44.1000   33.1370   41.1150 C   0  0  0  0  0  0  0  0  0  0  0  0
   43.2620   34.0100   40.4550 C   0  0  0  0  0  0  0  0  0  0  0  0
   43.7410   34.8680   40.0500 H   0  0  0  0  0  0  0  0  0  0  0  0
   41.9170   33.7170   40.3750 C   0  0  0  0  0  0  0  0  0  0  0  0
   41.3420   34.4790   39.8280 H   0  0  0  0  0  0  0  0  0  0  0  0
   41.3210   32.5960   40.9100 C   0  0  0  0  0  0  0  0  0  0  0  0
   42.1580   31.7280   41.5660 C   0  0  0  0  0  0  0  0  0  0  0  0
   43.4940   31.9990   41.6590 C   0  0  0  0  0  0  0  0  0  0  0  0
   44.0810   31.2480   42.2010 H   0  0  0  0  0  0  0  0  0  0  0  0
   41.4550   30.2560   42.2840 S   0  0  0  0  0  0  0  0  0  0  0  0
   39.7190   30.3140   41.9290 C   0  0  0  0  0  0  0  0  0  0  0  0
   38.9790   29.2690   42.3940 C   0  0  0  0  0  0  0  0  0  0  0  0
   39.3940   28.4510   42.9430 H   0  0  0  0  0  0  0  0  0  0  0  0
   37.6170   29.2360   42.1590 C   0  0  0  0  0  0  0  0  0  0  0  0
   36.9400   28.4570   42.4820 H   0  0  0  0  0  0  0  0  0  0  0  0
   37.0480   30.2770   41.4540 C   0  0  0  0  0  0  0  0  0  0  0  0
   35.9860   30.2840   41.2510 H   0  0  0  0  0  0  0  0  0  0  0  0
   37.8580   31.3040   41.0110 C   0  0  0  0  0  0  0  0  0  0  0  0
   37.3410   32.0990   40.4570 H   0  0  0  0  0  0  0  0  0  0  0  0
   39.2190   31.3780   41.2220 C   0  0  0  0  0  0  0  0  0  0  0  0
   39.9280   32.4760   40.7200 N   0  0  0  0  0  0  0  0  0  0  0  0
   39.3970   33.2050   40.2020 H   0  0  0  0  0  0  0  0  0  0  0  0
  1  2  1  0  0  0  0
  1 18  1  0  0  0  0
  2  8  1  0  0  0  0
  3  9  1  0  0  0  0
  3  2  1  0  0  0  0
  4  5  1  0  0  0  0
  4  3  1  0  0  0  0
  5  6  1  0  0  0  0
  6 15  1  6  0  0  0
  6 25  1  0  0  0  0
  6  1  1  0  0  0  0
  7  2  1  0  0  0  0
 10  3  1  0  0  0  0
 11  4  1  0  0  0  0
 12  4  1  0  0  0  0
 13  5  1  0  0  0  0
 14  5  1  0  0  0  0
 16 21  1  0  0  0  0
 17 16  2  0  0  0  0
 18 17  1  0  0  0  0
 18 19  2  0  0  0  0
 19 20  1  0  0  0  0
 20 21  2  0  0  0  0
 20 24  1  0  0  0  0
 22 16  1  0  0  0  0
 23 17  1  0  0  0  0
 26 25  1  0  0  0  0
 26 33  1  0  0  0  0
 27 26  2  0  0  0  0
 28 27  1  0  0  0  0
 29 27  1  0  0  0  0
 29 31  2  0  0  0  0
 30 29  1  0  0  0  0
 31 32  1  0  0  0  0
 32 33  2  0  0  0  0
 32 35  1  0  0  0  0
 33 34  1  0  0  0  0
 36 35  1  0  0  0  0
 36 37  1  0  0  0  0
 37 38  1  0  0  0  0
 39 37  2  0  0  0  0
 39 40  1  0  0  0  0
 41 39  1  0  0  0  0
 42 41  1  0  0  0  0
 43 45  1  0  0  0  0
 43 41  2  0  0  0  0
 44 43  1  0  0  0  0
 45 36  2  0  0  0  0
 46 31  1  0  0  0  0
 46 45  1  0  0  0  0
 47 46  1  0  0  0  0
M  END
>  <minimizedAffinity>
-7.3841176

>  <minimizedRMSD>
1.29717088

$$$$
