
 OpenBabel03252505473D

 42 46  0  0  1  0  0  0  0  0999 V2000
   49.1130   27.2530   42.6440 C   0  0  0  0  0  0  0  0  0  0  0  0
   47.7760   27.5590   42.6710 C   0  0  0  0  0  0  0  0  0  0  0  0
   47.2320   27.2300   41.8040 H   0  0  0  0  0  0  0  0  0  0  0  0
   47.1600   28.2240   43.7020 C   0  0  0  0  0  0  0  0  0  0  0  0
   46.0830   28.3850   43.5590 H   0  0  0  0  0  0  0  0  0  0  0  0
   47.8690   28.6410   44.8080 C   0  0  0  0  0  0  0  0  0  0  0  0
   49.2080   28.3770   44.8630 C   0  0  0  0  0  0  0  0  0  0  0  0
   49.7680   27.7120   43.8100 C   0  0  0  0  0  0  0  0  0  0  0  0
   50.8430   27.5700   43.9880 H   0  0  0  0  0  0  0  0  0  0  0  0
   50.1170   28.9190   46.2970 S   0  0  0  0  0  0  0  0  0  0  0  0
   48.9390   29.7260   47.3630 C   0  0  0  0  0  0  0  0  0  0  0  0
   49.4500   30.2120   48.5210 C   0  0  0  0  0  0  0  0  0  0  0  0
   50.4830   30.1370   48.8120 H   0  0  0  0  0  0  0  0  0  0  0  0
   48.6110   30.8560   49.4150 C   0  0  0  0  0  0  0  0  0  0  0  0
   48.9810   31.2540   50.3410 H   0  0  0  0  0  0  0  0  0  0  0  0
   47.2910   30.9740   49.0850 C   0  0  0  0  0  0  0  0  0  0  0  0
   46.6260   31.4750   49.7740 H   0  0  0  0  0  0  0  0  0  0  0  0
   46.8500   30.4580   47.8980 C   0  0  0  0  0  0  0  0  0  0  0  0
   45.7730   30.5960   47.7130 H   0  0  0  0  0  0  0  0  0  0  0  0
   47.6270   29.8050   46.9630 C   0  0  0  0  0  0  0  0  0  0  0  0
   47.0880   29.3020   45.7600 N   0  0  0  0  0  0  0  0  0  0  0  0
   46.0650   29.4730   45.6580 H   0  0  0  0  0  0  0  0  0  0  0  0
   49.9990   26.6410   41.8310 O   0  0  0  0  0  0  0  0  0  0  0  0
   53.4200   27.5530   41.2540 C   0  0  0  0  0  0  0  0  0  0  0  0
   54.0400   26.7850   42.2740 C   0  0  0  0  0  0  0  0  0  0  0  0
   53.2870   25.9810   43.1260 C   0  0  0  0  0  0  0  0  0  0  0  0
   51.9460   25.9820   42.9190 N   0  0  0  0  0  0  0  0  0  0  0  0
   51.3640   26.7320   41.9270 C   0  0  0  0  0  0  0  0  0  0  0  0
   52.0920   27.4990   41.1150 N   0  0  0  0  0  0  0  0  0  0  0  0
   55.1200   26.8500   42.3630 H   0  0  0  0  0  0  0  0  0  0  0  0
   53.7480   25.4060   43.8890 H   0  0  0  0  0  0  0  0  0  0  0  0
   54.2700   28.3940   40.3930 C   0  0  1  0  0  0  0  0  0  0  0  0
   53.8270   29.9010   40.4630 C   0  0  1  0  0  0  0  0  0  0  0  0
   55.1890   29.3660   40.8470 C   0  0  0  0  0  0  0  0  0  0  0  0
   54.3030   28.0050   39.3410 H   0  0  0  0  0  0  0  0  0  0  0  0
   53.1380   30.1930   41.2500 H   0  0  0  0  0  0  0  0  0  0  0  0
   56.0600   29.6310   40.1900 H   0  0  0  0  0  0  0  0  0  0  0  0
   55.4520   29.5500   41.9150 H   0  0  0  0  0  0  0  0  0  0  0  0
   53.8010   30.5880   39.1180 C   0  0  0  0  0  0  0  0  0  0  0  0
   53.4290   31.8990   39.1830 F   0  0  0  0  0  0  0  0  0  0  0  0
   55.0990   30.5370   38.5670 F   0  0  0  0  0  0  0  0  0  0  0  0
   53.0140   29.8870   38.2180 F   0  0  0  0  0  0  0  0  0  0  0  0
  1  2  2  0  0  0  0
  1  8  1  0  0  0  0
  2  4  1  0  0  0  0
  3  2  1  0  0  0  0
  4  6  2  0  0  0  0
  5  4  1  0  0  0  0
  6  7  1  0  0  0  0
  6 21  1  0  0  0  0
  7 10  1  0  0  0  0
  8  9  1  0  0  0  0
  8  7  2  0  0  0  0
 10 11  1  0  0  0  0
 11 12  1  0  0  0  0
 12 13  1  0  0  0  0
 12 14  2  0  0  0  0
 14 15  1  0  0  0  0
 16 14  1  0  0  0  0
 16 17  1  0  0  0  0
 18 16  2  0  0  0  0
 19 18  1  0  0  0  0
 20 11  2  0  0  0  0
 20 18  1  0  0  0  0
 21 20  1  0  0  0  0
 22 21  1  0  0  0  0
 23 28  1  0  0  0  0
 23  1  1  0  0  0  0
 24 25  1  0  0  0  0
 25 30  1  0  0  0  0
 25 26  2  0  0  0  0
 26 31  1  0  0  0  0
 27 26  1  0  0  0  0
 28 27  2  0  0  0  0
 29 24  2  0  0  0  0
 29 28  1  0  0  0  0
 32 35  1  6  0  0  0
 32 33  1  0  0  0  0
 32 34  1  0  0  0  0
 32 24  1  0  0  0  0
 33 34  1  0  0  0  0
 33 36  1  1  0  0  0
 34 38  1  0  0  0  0
 37 34  1  0  0  0  0
 39 40  1  0  0  0  0
 39 33  1  0  0  0  0
 41 39  1  0  0  0  0
 42 39  1  0  0  0  0
M  END
>  <minimizedAffinity>
-2.69189692

>  <minimizedRMSD>
8.90598011

$$$$
