
 OpenBabel03242517433D

 32 35  0  0  0  0  0  0  0  0999 V2000
   46.4940   34.9060   42.1460 C   0  0  0  0  0  0  0  0  0  0  0  0
   45.8080   35.7010   43.0410 C   0  0  0  0  0  0  0  0  0  0  0  0
   46.3260   36.1530   43.8750 H   0  0  0  0  0  0  0  0  0  0  0  0
   44.4580   35.8930   42.8320 C   0  0  0  0  0  0  0  0  0  0  0  0
   43.9750   36.5290   43.5710 H   0  0  0  0  0  0  0  0  0  0  0  0
   43.7200   35.3570   41.7970 C   0  0  0  0  0  0  0  0  0  0  0  0
   44.4520   34.5750   40.9360 C   0  0  0  0  0  0  0  0  0  0  0  0
   45.7920   34.3530   41.0990 C   0  0  0  0  0  0  0  0  0  0  0  0
   46.3520   33.7320   40.4090 H   0  0  0  0  0  0  0  0  0  0  0  0
   43.6320   33.8170   39.5540 S   0  0  0  0  0  0  0  0  0  0  0  0
   41.9250   34.3150   39.6570 C   0  0  0  0  0  0  0  0  0  0  0  0
   41.0470   33.8870   38.7250 C   0  0  0  0  0  0  0  0  0  0  0  0
   41.3870   33.2320   37.9080 H   0  0  0  0  0  0  0  0  0  0  0  0
   39.6990   34.2350   38.7400 C   0  0  0  0  0  0  0  0  0  0  0  0
   39.0190   33.8830   37.9920 H   0  0  0  0  0  0  0  0  0  0  0  0
   39.2990   35.0520   39.7720 C   0  0  0  0  0  0  0  0  0  0  0  0
   38.2540   35.3350   39.8020 H   0  0  0  0  0  0  0  0  0  0  0  0
   40.2130   35.4680   40.6970 C   0  0  0  0  0  0  0  0  0  0  0  0
   39.8020   36.1160   41.4790 H   0  0  0  0  0  0  0  0  0  0  0  0
   41.5500   35.1330   40.6960 C   0  0  0  0  0  0  0  0  0  0  0  0
   42.3630   35.6440   41.7210 N   0  0  0  0  0  0  0  0  0  0  0  0
   41.9350   36.2570   42.4470 H   0  0  0  0  0  0  0  0  0  0  0  0
   48.2430   34.5930   42.3250 S   0  0  0  0  0  0  0  0  0  0  0  0
   47.5130   32.4330   43.9110 C   0  0  0  0  0  0  0  0  0  0  0  0
   48.4060   32.9130   42.9230 C   0  0  0  0  0  0  0  0  0  0  0  0
   49.3870   32.0520   42.4490 C   0  0  0  0  0  0  0  0  0  0  0  0
   49.4540   30.7860   42.9470 N   0  0  0  0  0  0  0  0  0  0  0  0
   48.5790   30.3640   43.8930 C   0  0  0  0  0  0  0  0  0  0  0  0
   47.6200   31.1670   44.3730 N   0  0  0  0  0  0  0  0  0  0  0  0
   46.7610   33.1000   44.2700 H   0  0  0  0  0  0  0  0  0  0  0  0
   50.0740   32.3900   41.7030 H   0  0  0  0  0  0  0  0  0  0  0  0
   48.7510   29.3380   44.1930 H   0  0  0  0  0  0  0  0  0  0  0  0
  1 23  1  0  0  0  0
  1  2  1  0  0  0  0
  2  3  1  0  0  0  0
  4  2  2  0  0  0  0
  4  5  1  0  0  0  0
  6  4  1  0  0  0  0
  7  8  1  0  0  0  0
  7  6  2  0  0  0  0
  8  1  2  0  0  0  0
  9  8  1  0  0  0  0
 10 11  1  0  0  0  0
 10  7  1  0  0  0  0
 11 20  1  0  0  0  0
 12 14  1  0  0  0  0
 12 11  2  0  0  0  0
 13 12  1  0  0  0  0
 14 16  2  0  0  0  0
 15 14  1  0  0  0  0
 16 17  1  0  0  0  0
 16 18  1  0  0  0  0
 18 19  1  0  0  0  0
 20 18  2  0  0  0  0
 20 21  1  0  0  0  0
 21  6  1  0  0  0  0
 21 22  1  0  0  0  0
 23 25  1  0  0  0  0
 24 30  1  0  0  0  0
 24 29  1  0  0  0  0
 25 24  2  0  0  0  0
 26 25  1  0  0  0  0
 26 27  2  0  0  0  0
 27 28  1  0  0  0  0
 28 32  1  0  0  0  0
 28 29  2  0  0  0  0
 31 26  1  0  0  0  0
M  END
>  <minimizedAffinity>
-5.91599703

>  <minimizedRMSD>
4.76631641

$$$$
