
 OpenBabel03252501363D

 38 41  0  0  0  0  0  0  0  0999 V2000
   38.4130   31.3150   38.9470 C   0  0  0  0  0  0  0  0  0  0  0  0
   37.9410   30.7140   37.7980 C   0  0  0  0  0  0  0  0  0  0  0  0
   37.9220   31.2870   36.8800 H   0  0  0  0  0  0  0  0  0  0  0  0
   37.5090   29.4060   37.8420 C   0  0  0  0  0  0  0  0  0  0  0  0
   37.1550   29.0140   36.8910 H   0  0  0  0  0  0  0  0  0  0  0  0
   37.5120   28.6310   38.9830 C   0  0  0  0  0  0  0  0  0  0  0  0
   37.9850   29.2510   40.1110 C   0  0  0  0  0  0  0  0  0  0  0  0
   38.4150   30.5380   40.0860 C   0  0  0  0  0  0  0  0  0  0  0  0
   38.7800   30.9670   41.0280 H   0  0  0  0  0  0  0  0  0  0  0  0
   38.0190   28.3090   41.6200 S   0  0  0  0  0  0  0  0  0  0  0  0
   37.3850   26.6950   41.2460 C   0  0  0  0  0  0  0  0  0  0  0  0
   37.2950   25.7560   42.2260 C   0  0  0  0  0  0  0  0  0  0  0  0
   37.6180   26.0060   43.2480 H   0  0  0  0  0  0  0  0  0  0  0  0
   36.8130   24.4860   42.0020 C   0  0  0  0  0  0  0  0  0  0  0  0
   36.7450   23.7530   42.7770 H   0  0  0  0  0  0  0  0  0  0  0  0
   36.4130   24.1870   40.7200 C   0  0  0  0  0  0  0  0  0  0  0  0
   36.0380   23.2130   40.5260 H   0  0  0  0  0  0  0  0  0  0  0  0
   36.5170   25.1580   39.7570 C   0  0  0  0  0  0  0  0  0  0  0  0
   36.1750   24.8320   38.7600 H   0  0  0  0  0  0  0  0  0  0  0  0
   36.9970   26.4360   39.9560 C   0  0  0  0  0  0  0  0  0  0  0  0
   37.0330   27.3090   38.8430 N   0  0  0  0  0  0  0  0  0  0  0  0
   36.6990   26.9580   37.9220 H   0  0  0  0  0  0  0  0  0  0  0  0
   38.8560   32.6320   38.9360 O   0  0  0  0  0  0  0  0  0  0  0  0
   40.2300   32.8910   39.0070 C   0  0  0  0  0  0  0  0  0  0  0  0
   41.1690   32.0240   39.0200 O   0  0  0  0  0  0  0  0  0  0  0  0
   40.7300   34.2310   39.0750 N   0  0  0  0  0  0  0  0  0  0  0  0
   40.0880   35.0370   39.0620 H   0  0  0  0  0  0  0  0  0  0  0  0
   42.1850   34.1870   39.1550 C   0  0  0  0  0  0  0  0  0  0  0  0
   43.0220   34.1500   38.0670 C   0  0  0  0  0  0  0  0  0  0  0  0
   44.3830   34.1150   38.3580 C   0  0  0  0  0  0  0  0  0  0  0  0
   44.7580   34.1200   39.6470 N   0  0  0  0  0  0  0  0  0  0  0  0
   43.9070   34.1570   40.6780 C   0  0  0  0  0  0  0  0  0  0  0  0
   42.5730   34.1920   40.4510 N   0  0  0  0  0  0  0  0  0  0  0  0
   45.0460   34.0850   37.5030 H   0  0  0  0  0  0  0  0  0  0  0  0
   44.3110   34.1580   41.6790 H   0  0  0  0  0  0  0  0  0  0  0  0
   42.4330   34.1520   36.7870 N   0  0  0  0  0  0  0  0  0  0  0  0
   42.0030   33.3410   36.2730 H   0  0  0  0  0  0  0  0  0  0  0  0
   42.5610   35.1650   36.5400 H   0  0  0  0  0  0  0  0  0  0  0  0
  1  8  1  0  0  0  0
  2  4  1  0  0  0  0
  2  1  2  0  0  0  0
  3  2  1  0  0  0  0
  4  6  2  0  0  0  0
  5  4  1  0  0  0  0
  6  7  1  0  0  0  0
  7 10  1  0  0  0  0
  8  7  2  0  0  0  0
  8  9  1  0  0  0  0
 11 10  1  0  0  0  0
 11 12  1  0  0  0  0
 12 13  1  0  0  0  0
 14 12  2  0  0  0  0
 14 15  1  0  0  0  0
 16 14  1  0  0  0  0
 17 16  1  0  0  0  0
 18 20  1  0  0  0  0
 18 16  2  0  0  0  0
 19 18  1  0  0  0  0
 20 11  2  0  0  0  0
 21  6  1  0  0  0  0
 21 20  1  0  0  0  0
 22 21  1  0  0  0  0
 23  1  1  0  0  0  0
 23 24  1  0  0  0  0
 24 25  2  0  0  0  0
 24 26  1  0  0  0  0
 26 28  1  0  0  0  0
 27 26  1  0  0  0  0
 28 33  1  0  0  0  0
 29 30  1  0  0  0  0
 29 28  2  0  0  0  0
 30 31  2  0  0  0  0
 31 32  1  0  0  0  0
 32 35  1  0  0  0  0
 33 32  2  0  0  0  0
 34 30  1  0  0  0  0
 36 29  1  0  0  0  0
 37 36  1  0  0  0  0
 38 36  1  0  0  0  0
M  END
>  <minimizedAffinity>
-6.45476484

$$$$

 OpenBabel03252501363D

 38 41  0  0  0  0  0  0  0  0999 V2000
   36.6070   29.7390   41.0910 C   0  0  0  0  0  0  0  0  0  0  0  0
   36.9530   29.1880   42.3070 C   0  0  0  0  0  0  0  0  0  0  0  0
   37.0430   29.8380   43.1670 H   0  0  0  0  0  0  0  0  0  0  0  0
   37.1730   27.8310   42.4020 C   0  0  0  0  0  0  0  0  0  0  0  0
   37.4400   27.4840   43.3970 H   0  0  0  0  0  0  0  0  0  0  0  0
   37.0710   26.9570   41.3380 C   0  0  0  0  0  0  0  0  0  0  0  0
   36.7270   27.5300   40.1410 C   0  0  0  0  0  0  0  0  0  0  0  0
   36.5060   28.8640   40.0290 C   0  0  0  0  0  0  0  0  0  0  0  0
   36.2340   29.2500   39.0390 H   0  0  0  0  0  0  0  0  0  0  0  0
   36.5760   26.4610   38.7260 S   0  0  0  0  0  0  0  0  0  0  0  0
   36.9370   24.8130   39.2730 C   0  0  0  0  0  0  0  0  0  0  0  0
   36.8980   23.7800   38.3880 C   0  0  0  0  0  0  0  0  0  0  0  0
   36.6410   23.9760   37.3370 H   0  0  0  0  0  0  0  0  0  0  0  0
   37.1680   22.4780   38.7480 C   0  0  0  0  0  0  0  0  0  0  0  0
   37.1350   21.6710   38.0480 H   0  0  0  0  0  0  0  0  0  0  0  0
   37.4880   22.2480   40.0660 C   0  0  0  0  0  0  0  0  0  0  0  0
   37.7000   21.2510   40.3640 H   0  0  0  0  0  0  0  0  0  0  0  0
   37.5190   23.3130   40.9300 C   0  0  0  0  0  0  0  0  0  0  0  0
   37.7830   23.0370   41.9640 H   0  0  0  0  0  0  0  0  0  0  0  0
   37.2520   24.6240   40.5950 C   0  0  0  0  0  0  0  0  0  0  0  0
   37.3310   25.5970   41.6190 N   0  0  0  0  0  0  0  0  0  0  0  0
   37.5860   25.2910   42.5800 H   0  0  0  0  0  0  0  0  0  0  0  0
   36.3780   31.1050   40.9620 O   0  0  0  0  0  0  0  0  0  0  0  0
   37.3950   31.9220   40.4540 C   0  0  0  0  0  0  0  0  0  0  0  0
   37.2980   32.7390   39.4770 O   0  0  0  0  0  0  0  0  0  0  0  0
   38.7090   31.9100   41.0210 N   0  0  0  0  0  0  0  0  0  0  0  0
   38.9330   31.3050   41.8260 H   0  0  0  0  0  0  0  0  0  0  0  0
   39.5500   32.8430   40.2820 C   0  0  0  0  0  0  0  0  0  0  0  0
   39.6100   34.1930   40.5230 C   0  0  0  0  0  0  0  0  0  0  0  0
   40.4800   34.9110   39.7060 C   0  0  0  0  0  0  0  0  0  0  0  0
   41.1720   34.2400   38.7710 N   0  0  0  0  0  0  0  0  0  0  0  0
   41.0830   32.9220   38.5690 C   0  0  0  0  0  0  0  0  0  0  0  0
   40.2520   32.1770   39.3360 N   0  0  0  0  0  0  0  0  0  0  0  0
   40.5310   35.9750   39.8930 H   0  0  0  0  0  0  0  0  0  0  0  0
   41.6830   32.4780   37.7900 H   0  0  0  0  0  0  0  0  0  0  0  0
   38.8030   34.7110   41.5550 N   0  0  0  0  0  0  0  0  0  0  0  0
   37.7750   34.9340   41.5200 H   0  0  0  0  0  0  0  0  0  0  0  0
   39.5250   34.7940   42.3140 H   0  0  0  0  0  0  0  0  0  0  0  0
  1  2  1  0  0  0  0
  2  4  2  0  0  0  0
  2  3  1  0  0  0  0
  4  5  1  0  0  0  0
  6 21  1  0  0  0  0
  6  4  1  0  0  0  0
  7  6  2  0  0  0  0
  8  7  1  0  0  0  0
  8  1  2  0  0  0  0
  9  8  1  0  0  0  0
 10 11  1  0  0  0  0
 10  7  1  0  0  0  0
 11 20  1  0  0  0  0
 12 14  1  0  0  0  0
 12 11  2  0  0  0  0
 13 12  1  0  0  0  0
 14 16  2  0  0  0  0
 15 14  1  0  0  0  0
 16 17  1  0  0  0  0
 16 18  1  0  0  0  0
 18 19  1  0  0  0  0
 20 18  2  0  0  0  0
 20 21  1  0  0  0  0
 21 22  1  0  0  0  0
 23  1  1  0  0  0  0
 24 23  1  0  0  0  0
 24 26  1  0  0  0  0
 25 24  2  0  0  0  0
 26 27  1  0  0  0  0
 28 29  1  0  0  0  0
 28 26  1  0  0  0  0
 29 36  1  0  0  0  0
 30 34  1  0  0  0  0
 30 29  2  0  0  0  0
 31 30  1  0  0  0  0
 32 31  2  0  0  0  0
 32 33  1  0  0  0  0
 33 28  2  0  0  0  0
 35 32  1  0  0  0  0
 36 38  1  0  0  0  0
 37 36  1  0  0  0  0
M  END
>  <minimizedAffinity>
-6.25418425

$$$$

 OpenBabel03252501363D

 38 41  0  0  0  0  0  0  0  0999 V2000
   37.8560   31.2290   40.5820 C   0  0  0  0  0  0  0  0  0  0  0  0
   36.8930   30.9750   39.6270 C   0  0  0  0  0  0  0  0  0  0  0  0
   36.4760   31.8060   39.0740 H   0  0  0  0  0  0  0  0  0  0  0  0
   36.4850   29.6780   39.3990 C   0  0  0  0  0  0  0  0  0  0  0  0
   35.7240   29.5720   38.6300 H   0  0  0  0  0  0  0  0  0  0  0  0
   36.9830   28.5830   40.0750 C   0  0  0  0  0  0  0  0  0  0  0  0
   37.9380   28.8620   41.0180 C   0  0  0  0  0  0  0  0  0  0  0  0
   38.3510   30.1320   41.2560 C   0  0  0  0  0  0  0  0  0  0  0  0
   39.1200   30.2780   42.0270 H   0  0  0  0  0  0  0  0  0  0  0  0
   38.6260   27.4960   41.9290 S   0  0  0  0  0  0  0  0  0  0  0  0
   37.8390   26.0210   41.3360 C   0  0  0  0  0  0  0  0  0  0  0  0
   38.1750   24.8130   41.8620 C   0  0  0  0  0  0  0  0  0  0  0  0
   38.9360   24.7600   42.6550 H   0  0  0  0  0  0  0  0  0  0  0  0
   37.6010   23.6310   41.4470 C   0  0  0  0  0  0  0  0  0  0  0  0
   37.8710   22.6850   41.8650 H   0  0  0  0  0  0  0  0  0  0  0  0
   36.6510   23.7130   40.4550 C   0  0  0  0  0  0  0  0  0  0  0  0
   36.1970   22.8140   40.1200 H   0  0  0  0  0  0  0  0  0  0  0  0
   36.3370   24.9480   39.9470 C   0  0  0  0  0  0  0  0  0  0  0  0
   35.5680   24.9200   39.1580 H   0  0  0  0  0  0  0  0  0  0  0  0
   36.8960   26.1440   40.3460 C   0  0  0  0  0  0  0  0  0  0  0  0
   36.4500   27.3260   39.7100 N   0  0  0  0  0  0  0  0  0  0  0  0
   35.7210   27.2520   38.9710 H   0  0  0  0  0  0  0  0  0  0  0  0
   38.2880   32.5250   40.8360 O   0  0  0  0  0  0  0  0  0  0  0  0
   39.4110   33.0150   40.1580 C   0  0  0  0  0  0  0  0  0  0  0  0
   39.6130   34.2230   39.7930 O   0  0  0  0  0  0  0  0  0  0  0  0
   40.4930   32.1510   39.7930 N   0  0  0  0  0  0  0  0  0  0  0  0
   40.4740   31.1480   40.0320 H   0  0  0  0  0  0  0  0  0  0  0  0
   41.5030   32.9320   39.0910 C   0  0  0  0  0  0  0  0  0  0  0  0
   41.5020   33.1680   37.7380 C   0  0  0  0  0  0  0  0  0  0  0  0
   42.5570   33.9430   37.2630 C   0  0  0  0  0  0  0  0  0  0  0  0
   43.4680   34.3850   38.1440 N   0  0  0  0  0  0  0  0  0  0  0  0
   43.4320   34.1320   39.4560 C   0  0  0  0  0  0  0  0  0  0  0  0
   42.4270   33.3830   39.9710 N   0  0  0  0  0  0  0  0  0  0  0  0
   42.5600   34.1300   36.1970 H   0  0  0  0  0  0  0  0  0  0  0  0
   44.2140   34.5350   40.0810 H   0  0  0  0  0  0  0  0  0  0  0  0
   40.4530   32.6140   36.9780 N   0  0  0  0  0  0  0  0  0  0  0  0
   40.3560   31.6240   36.6360 H   0  0  0  0  0  0  0  0  0  0  0  0
   39.8450   33.4670   36.8770 H   0  0  0  0  0  0  0  0  0  0  0  0
  1 23  1  0  0  0  0
  1  8  1  0  0  0  0
  2  1  2  0  0  0  0
  3  2  1  0  0  0  0
  4  2  1  0  0  0  0
  4  6  2  0  0  0  0
  5  4  1  0  0  0  0
  6  7  1  0  0  0  0
  7  8  2  0  0  0  0
  7 10  1  0  0  0  0
  8  9  1  0  0  0  0
 11 12  1  0  0  0  0
 11 10  1  0  0  0  0
 12 13  1  0  0  0  0
 14 12  2  0  0  0  0
 14 15  1  0  0  0  0
 16 14  1  0  0  0  0
 17 16  1  0  0  0  0
 18 20  1  0  0  0  0
 18 16  2  0  0  0  0
 19 18  1  0  0  0  0
 20 11  2  0  0  0  0
 21  6  1  0  0  0  0
 21 20  1  0  0  0  0
 22 21  1  0  0  0  0
 24 23  1  0  0  0  0
 25 24  2  0  0  0  0
 26 27  1  0  0  0  0
 26 24  1  0  0  0  0
 28 26  1  0  0  0  0
 28 33  1  0  0  0  0
 29 28  2  0  0  0  0
 30 29  1  0  0  0  0
 30 31  2  0  0  0  0
 31 32  1  0  0  0  0
 32 33  2  0  0  0  0
 32 35  1  0  0  0  0
 34 30  1  0  0  0  0
 36 29  1  0  0  0  0
 37 36  1  0  0  0  0
 38 36  1  0  0  0  0
M  END
>  <minimizedAffinity>
-6.1752739

$$$$

 OpenBabel03252501363D

 38 41  0  0  0  0  0  0  0  0999 V2000
   38.6550   30.7620   41.5870 C   0  0  0  0  0  0  0  0  0  0  0  0
   38.9340   30.0400   42.7290 C   0  0  0  0  0  0  0  0  0  0  0  0
   39.4070   30.5420   43.5610 H   0  0  0  0  0  0  0  0  0  0  0  0
   38.6050   28.7020   42.7860 C   0  0  0  0  0  0  0  0  0  0  0  0
   38.8600   28.2120   43.7230 H   0  0  0  0  0  0  0  0  0  0  0  0
   38.0000   28.0120   41.7550 C   0  0  0  0  0  0  0  0  0  0  0  0
   37.7350   28.7530   40.6320 C   0  0  0  0  0  0  0  0  0  0  0  0
   38.0520   30.0700   40.5580 C   0  0  0  0  0  0  0  0  0  0  0  0
   37.8080   30.5970   39.6260 H   0  0  0  0  0  0  0  0  0  0  0  0
   36.9550   27.9260   39.2620 S   0  0  0  0  0  0  0  0  0  0  0  0
   36.7060   26.2370   39.7410 C   0  0  0  0  0  0  0  0  0  0  0  0
   36.1220   25.3640   38.8760 C   0  0  0  0  0  0  0  0  0  0  0  0
   35.8070   25.7150   37.8820 H   0  0  0  0  0  0  0  0  0  0  0  0
   35.9010   24.0400   39.1860 C   0  0  0  0  0  0  0  0  0  0  0  0
   35.4410   23.3600   38.5010 H   0  0  0  0  0  0  0  0  0  0  0  0
   36.3000   23.6160   40.4320 C   0  0  0  0  0  0  0  0  0  0  0  0
   36.1390   22.5990   40.6910 H   0  0  0  0  0  0  0  0  0  0  0  0
   36.8860   24.5220   41.2780 C   0  0  0  0  0  0  0  0  0  0  0  0
   37.1730   24.0970   42.2540 H   0  0  0  0  0  0  0  0  0  0  0  0
   37.1180   25.8520   40.9920 C   0  0  0  0  0  0  0  0  0  0  0  0
   37.7350   26.6440   41.9880 N   0  0  0  0  0  0  0  0  0  0  0  0
   37.9900   26.1990   42.8930 H   0  0  0  0  0  0  0  0  0  0  0  0
   38.9740   32.1120   41.4980 O   0  0  0  0  0  0  0  0  0  0  0  0
   40.2090   32.4870   40.9550 C   0  0  0  0  0  0  0  0  0  0  0  0
   41.1090   31.7050   40.4980 O   0  0  0  0  0  0  0  0  0  0  0  0
   40.5890   33.8640   40.8610 N   0  0  0  0  0  0  0  0  0  0  0  0
   39.9560   34.6120   41.1820 H   0  0  0  0  0  0  0  0  0  0  0  0
   41.9210   33.9460   40.2730 C   0  0  0  0  0  0  0  0  0  0  0  0
   43.0910   33.8830   40.9900 C   0  0  0  0  0  0  0  0  0  0  0  0
   44.2600   33.9760   40.2390 C   0  0  0  0  0  0  0  0  0  0  0  0
   44.1510   34.1180   38.9080 N   0  0  0  0  0  0  0  0  0  0  0  0
   42.9890   34.1750   38.2490 C   0  0  0  0  0  0  0  0  0  0  0  0
   41.8220   34.0890   38.9320 N   0  0  0  0  0  0  0  0  0  0  0  0
   45.1840   33.9270   40.7990 H   0  0  0  0  0  0  0  0  0  0  0  0
   43.0100   34.2910   37.1760 H   0  0  0  0  0  0  0  0  0  0  0  0
   42.9960   33.7310   42.3870 N   0  0  0  0  0  0  0  0  0  0  0  0
   42.7930   34.4720   43.1050 H   0  0  0  0  0  0  0  0  0  0  0  0
   43.1840   32.6990   42.4610 H   0  0  0  0  0  0  0  0  0  0  0  0
  1  2  1  0  0  0  0
  2  4  2  0  0  0  0
  2  3  1  0  0  0  0
  4  5  1  0  0  0  0
  6 21  1  0  0  0  0
  6  4  1  0  0  0  0
  7  6  2  0  0  0  0
  8  7  1  0  0  0  0
  8  1  2  0  0  0  0
  9  8  1  0  0  0  0
 10 11  1  0  0  0  0
 10  7  1  0  0  0  0
 11 20  1  0  0  0  0
 12 14  1  0  0  0  0
 12 11  2  0  0  0  0
 13 12  1  0  0  0  0
 14 16  2  0  0  0  0
 15 14  1  0  0  0  0
 16 17  1  0  0  0  0
 16 18  1  0  0  0  0
 18 19  1  0  0  0  0
 20 18  2  0  0  0  0
 20 21  1  0  0  0  0
 21 22  1  0  0  0  0
 23  1  1  0  0  0  0
 24 23  1  0  0  0  0
 25 24  2  0  0  0  0
 26 24  1  0  0  0  0
 26 27  1  0  0  0  0
 28 26  1  0  0  0  0
 28 29  1  0  0  0  0
 29 36  1  0  0  0  0
 30 34  1  0  0  0  0
 30 29  2  0  0  0  0
 31 30  1  0  0  0  0
 32 31  2  0  0  0  0
 32 33  1  0  0  0  0
 33 28  2  0  0  0  0
 35 32  1  0  0  0  0
 36 38  1  0  0  0  0
 36 37  1  0  0  0  0
M  END
>  <minimizedAffinity>
-6.13309193

$$$$

 OpenBabel03252501363D

 38 41  0  0  0  0  0  0  0  0999 V2000
   38.6340   30.4350   41.4670 C   0  0  0  0  0  0  0  0  0  0  0  0
   38.8380   29.6960   42.6130 C   0  0  0  0  0  0  0  0  0  0  0  0
   39.3000   30.1730   43.4670 H   0  0  0  0  0  0  0  0  0  0  0  0
   38.4490   28.3730   42.6480 C   0  0  0  0  0  0  0  0  0  0  0  0
   38.6470   27.8680   43.5900 H   0  0  0  0  0  0  0  0  0  0  0  0
   37.8570   27.7160   41.5900 C   0  0  0  0  0  0  0  0  0  0  0  0
   37.6660   28.4730   40.4630 C   0  0  0  0  0  0  0  0  0  0  0  0
   38.0420   29.7760   40.4100 C   0  0  0  0  0  0  0  0  0  0  0  0
   37.8580   30.3180   39.4740 H   0  0  0  0  0  0  0  0  0  0  0  0
   36.9050   27.6890   39.0580 S   0  0  0  0  0  0  0  0  0  0  0  0
   36.5660   26.0090   39.5150 C   0  0  0  0  0  0  0  0  0  0  0  0
   35.9790   25.1670   38.6220 C   0  0  0  0  0  0  0  0  0  0  0  0
   35.7180   25.5370   37.6190 H   0  0  0  0  0  0  0  0  0  0  0  0
   35.6890   23.8520   38.9140 C   0  0  0  0  0  0  0  0  0  0  0  0
   35.2280   23.1960   38.2070 H   0  0  0  0  0  0  0  0  0  0  0  0
   36.0210   23.4040   40.1710 C   0  0  0  0  0  0  0  0  0  0  0  0
   35.8070   22.3930   40.4160 H   0  0  0  0  0  0  0  0  0  0  0  0
   36.6120   24.2800   41.0460 C   0  0  0  0  0  0  0  0  0  0  0  0
   36.8430   23.8370   42.0290 H   0  0  0  0  0  0  0  0  0  0  0  0
   36.9120   25.5990   40.7780 C   0  0  0  0  0  0  0  0  0  0  0  0
   37.5240   26.3590   41.8030 N   0  0  0  0  0  0  0  0  0  0  0  0
   37.7240   25.8990   42.7140 H   0  0  0  0  0  0  0  0  0  0  0  0
   39.0140   31.7710   41.4000 O   0  0  0  0  0  0  0  0  0  0  0  0
   40.0610   32.1410   40.5470 C   0  0  0  0  0  0  0  0  0  0  0  0
   41.1730   31.5310   40.3970 O   0  0  0  0  0  0  0  0  0  0  0  0
   39.9670   33.3060   39.7200 N   0  0  0  0  0  0  0  0  0  0  0  0
   39.1200   33.8940   39.7270 H   0  0  0  0  0  0  0  0  0  0  0  0
   41.2020   33.4450   38.9590 C   0  0  0  0  0  0  0  0  0  0  0  0
   41.3590   33.0480   37.6550 C   0  0  0  0  0  0  0  0  0  0  0  0
   42.6200   33.2730   37.1070 C   0  0  0  0  0  0  0  0  0  0  0  0
   43.5570   33.8430   37.8810 N   0  0  0  0  0  0  0  0  0  0  0  0
   43.3610   34.2150   39.1500 C   0  0  0  0  0  0  0  0  0  0  0  0
   42.1530   34.0200   39.7310 N   0  0  0  0  0  0  0  0  0  0  0  0
   42.7480   32.9610   36.0790 H   0  0  0  0  0  0  0  0  0  0  0  0
   44.1820   34.6670   39.6870 H   0  0  0  0  0  0  0  0  0  0  0  0
   40.2510   32.4670   37.0090 N   0  0  0  0  0  0  0  0  0  0  0  0
   39.9020   31.4780   37.0910 H   0  0  0  0  0  0  0  0  0  0  0  0
   39.9170   33.2970   36.4570 H   0  0  0  0  0  0  0  0  0  0  0  0
  1  2  1  0  0  0  0
  2  4  2  0  0  0  0
  2  3  1  0  0  0  0
  4  5  1  0  0  0  0
  6 21  1  0  0  0  0
  6  4  1  0  0  0  0
  7  6  2  0  0  0  0
  8  7  1  0  0  0  0
  8  1  2  0  0  0  0
  9  8  1  0  0  0  0
 10 11  1  0  0  0  0
 10  7  1  0  0  0  0
 11 20  1  0  0  0  0
 12 14  1  0  0  0  0
 12 11  2  0  0  0  0
 13 12  1  0  0  0  0
 14 16  2  0  0  0  0
 15 14  1  0  0  0  0
 16 17  1  0  0  0  0
 16 18  1  0  0  0  0
 18 19  1  0  0  0  0
 20 18  2  0  0  0  0
 20 21  1  0  0  0  0
 21 22  1  0  0  0  0
 23  1  1  0  0  0  0
 24 23  1  0  0  0  0
 25 24  2  0  0  0  0
 26 27  1  0  0  0  0
 26 24  1  0  0  0  0
 28 26  1  0  0  0  0
 28 33  1  0  0  0  0
 29 28  2  0  0  0  0
 30 29  1  0  0  0  0
 30 31  2  0  0  0  0
 31 32  1  0  0  0  0
 32 35  1  0  0  0  0
 32 33  2  0  0  0  0
 34 30  1  0  0  0  0
 36 37  1  0  0  0  0
 36 29  1  0  0  0  0
 38 36  1  0  0  0  0
M  END
>  <minimizedAffinity>
-6.05349493

$$$$

 OpenBabel03252501363D

 38 41  0  0  0  0  0  0  0  0999 V2000
   37.8530   30.7610   38.3390 C   0  0  0  0  0  0  0  0  0  0  0  0
   37.0670   30.4840   37.2400 C   0  0  0  0  0  0  0  0  0  0  0  0
   36.9200   31.2550   36.4960 H   0  0  0  0  0  0  0  0  0  0  0  0
   36.4880   29.2380   37.1130 C   0  0  0  0  0  0  0  0  0  0  0  0
   35.8860   29.1080   36.2170 H   0  0  0  0  0  0  0  0  0  0  0  0
   36.6420   28.2200   38.0310 C   0  0  0  0  0  0  0  0  0  0  0  0
   37.4280   28.5210   39.1140 C   0  0  0  0  0  0  0  0  0  0  0  0
   38.0040   29.7410   39.2550 C   0  0  0  0  0  0  0  0  0  0  0  0
   38.6200   29.9090   40.1480 H   0  0  0  0  0  0  0  0  0  0  0  0
   37.6700   27.2520   40.3380 S   0  0  0  0  0  0  0  0  0  0  0  0
   36.7660   25.8240   39.8000 C   0  0  0  0  0  0  0  0  0  0  0  0
   36.7720   24.6920   40.5540 C   0  0  0  0  0  0  0  0  0  0  0  0
   37.3420   24.6710   41.4950 H   0  0  0  0  0  0  0  0  0  0  0  0
   36.0920   23.5500   40.1930 C   0  0  0  0  0  0  0  0  0  0  0  0
   36.1020   22.6630   40.7900 H   0  0  0  0  0  0  0  0  0  0  0  0
   35.3850   23.5910   39.0140 C   0  0  0  0  0  0  0  0  0  0  0  0
   34.8530   22.7210   38.7170 H   0  0  0  0  0  0  0  0  0  0  0  0
   35.4000   24.7490   38.2790 C   0  0  0  0  0  0  0  0  0  0  0  0
   34.8080   24.6930   37.3510 H   0  0  0  0  0  0  0  0  0  0  0  0
   36.0730   25.9040   38.6180 C   0  0  0  0  0  0  0  0  0  0  0  0
   35.9760   27.0080   37.7390 N   0  0  0  0  0  0  0  0  0  0  0  0
   35.4050   26.9100   36.8740 H   0  0  0  0  0  0  0  0  0  0  0  0
   38.4500   32.0060   38.4960 O   0  0  0  0  0  0  0  0  0  0  0  0
   39.8310   32.1310   38.2990 C   0  0  0  0  0  0  0  0  0  0  0  0
   40.7450   31.9320   39.1680 O   0  0  0  0  0  0  0  0  0  0  0  0
   40.3660   32.5170   37.0290 N   0  0  0  0  0  0  0  0  0  0  0  0
   39.7450   32.7010   36.2260 H   0  0  0  0  0  0  0  0  0  0  0  0
   41.8190   32.5780   37.1290 C   0  0  0  0  0  0  0  0  0  0  0  0
   42.6590   31.5210   36.8830 C   0  0  0  0  0  0  0  0  0  0  0  0
   44.0180   31.7880   37.0310 C   0  0  0  0  0  0  0  0  0  0  0  0
   44.3870   33.0270   37.3940 N   0  0  0  0  0  0  0  0  0  0  0  0
   43.5330   34.0300   37.6230 C   0  0  0  0  0  0  0  0  0  0  0  0
   42.2000   33.8240   37.4930 N   0  0  0  0  0  0  0  0  0  0  0  0
   44.6840   30.9570   36.8390 H   0  0  0  0  0  0  0  0  0  0  0  0
   43.9320   34.9900   37.9100 H   0  0  0  0  0  0  0  0  0  0  0  0
   42.0770   30.2930   36.5120 N   0  0  0  0  0  0  0  0  0  0  0  0
   41.6290   29.5750   37.1370 H   0  0  0  0  0  0  0  0  0  0  0  0
   42.2310   30.3370   35.4730 H   0  0  0  0  0  0  0  0  0  0  0  0
  1 23  1  0  0  0  0
  1  8  1  0  0  0  0
  2  1  2  0  0  0  0
  3  2  1  0  0  0  0
  4  2  1  0  0  0  0
  4  6  2  0  0  0  0
  5  4  1  0  0  0  0
  6  7  1  0  0  0  0
  7  8  2  0  0  0  0
  7 10  1  0  0  0  0
  8  9  1  0  0  0  0
 11 10  1  0  0  0  0
 11 12  1  0  0  0  0
 12 13  1  0  0  0  0
 14 12  2  0  0  0  0
 14 15  1  0  0  0  0
 16 14  1  0  0  0  0
 17 16  1  0  0  0  0
 18 20  1  0  0  0  0
 18 16  2  0  0  0  0
 19 18  1  0  0  0  0
 20 11  2  0  0  0  0
 21  6  1  0  0  0  0
 21 20  1  0  0  0  0
 22 21  1  0  0  0  0
 24 23  1  0  0  0  0
 24 25  2  0  0  0  0
 26 28  1  0  0  0  0
 26 24  1  0  0  0  0
 27 26  1  0  0  0  0
 28 33  1  0  0  0  0
 29 30  1  0  0  0  0
 29 28  2  0  0  0  0
 30 31  2  0  0  0  0
 31 32  1  0  0  0  0
 32 35  1  0  0  0  0
 33 32  2  0  0  0  0
 34 30  1  0  0  0  0
 36 29  1  0  0  0  0
 36 37  1  0  0  0  0
 38 36  1  0  0  0  0
M  END
>  <minimizedAffinity>
-5.8893795

$$$$

 OpenBabel03252501363D

 38 41  0  0  0  0  0  0  0  0999 V2000
   37.7360   27.7680   42.2710 C   0  0  0  0  0  0  0  0  0  0  0  0
   36.5020   28.1930   41.8260 C   0  0  0  0  0  0  0  0  0  0  0  0
   35.6630   27.5130   41.8900 H   0  0  0  0  0  0  0  0  0  0  0  0
   36.3630   29.4660   41.3150 C   0  0  0  0  0  0  0  0  0  0  0  0
   35.3570   29.7160   40.9890 H   0  0  0  0  0  0  0  0  0  0  0  0
   37.3990   30.3720   41.2120 C   0  0  0  0  0  0  0  0  0  0  0  0
   38.6150   29.9240   41.6600 C   0  0  0  0  0  0  0  0  0  0  0  0
   38.7700   28.6750   42.1660 C   0  0  0  0  0  0  0  0  0  0  0  0
   39.7740   28.3880   42.5050 H   0  0  0  0  0  0  0  0  0  0  0  0
   39.9970   31.0420   41.5570 S   0  0  0  0  0  0  0  0  0  0  0  0
   39.3970   32.5540   40.8500 C   0  0  0  0  0  0  0  0  0  0  0  0
   40.2480   33.5970   40.6520 C   0  0  0  0  0  0  0  0  0  0  0  0
   41.3060   33.4930   40.9350 H   0  0  0  0  0  0  0  0  0  0  0  0
   39.8470   34.7960   40.1080 C   0  0  0  0  0  0  0  0  0  0  0  0
   40.5210   35.6110   39.9560 H   0  0  0  0  0  0  0  0  0  0  0  0
   38.5210   34.9110   39.7600 C   0  0  0  0  0  0  0  0  0  0  0  0
   38.1900   35.8280   39.3380 H   0  0  0  0  0  0  0  0  0  0  0  0
   37.6910   33.8400   39.9720 C   0  0  0  0  0  0  0  0  0  0  0  0
   36.6470   34.0200   39.6650 H   0  0  0  0  0  0  0  0  0  0  0  0
   38.0680   32.6300   40.5160 C   0  0  0  0  0  0  0  0  0  0  0  0
   37.0750   31.6330   40.6630 N   0  0  0  0  0  0  0  0  0  0  0  0
   36.1030   31.8470   40.3580 H   0  0  0  0  0  0  0  0  0  0  0  0
   37.9090   26.4900   42.7920 O   0  0  0  0  0  0  0  0  0  0  0  0
   37.5960   25.3810   41.9970 C   0  0  0  0  0  0  0  0  0  0  0  0
   36.7420   24.4690   42.2640 O   0  0  0  0  0  0  0  0  0  0  0  0
   38.2480   25.1620   40.7410 N   0  0  0  0  0  0  0  0  0  0  0  0
   38.9560   25.8230   40.3890 H   0  0  0  0  0  0  0  0  0  0  0  0
   37.7330   23.9310   40.1530 C   0  0  0  0  0  0  0  0  0  0  0  0
   36.6450   23.8650   39.3180 C   0  0  0  0  0  0  0  0  0  0  0  0
   36.3170   22.5920   38.8590 C   0  0  0  0  0  0  0  0  0  0  0  0
   37.0730   21.5580   39.2610 N   0  0  0  0  0  0  0  0  0  0  0  0
   38.1270   21.6670   40.0760 C   0  0  0  0  0  0  0  0  0  0  0  0
   38.4890   22.8820   40.5510 N   0  0  0  0  0  0  0  0  0  0  0  0
   35.4600   22.5360   38.2020 H   0  0  0  0  0  0  0  0  0  0  0  0
   38.6690   20.7710   40.3390 H   0  0  0  0  0  0  0  0  0  0  0  0
   35.9800   25.0690   39.0130 N   0  0  0  0  0  0  0  0  0  0  0  0
   35.2840   25.5900   39.6040 H   0  0  0  0  0  0  0  0  0  0  0  0
   36.3880   25.2540   38.0610 H   0  0  0  0  0  0  0  0  0  0  0  0
  1 23  1  0  0  0  0
  2  3  1  0  0  0  0
  2  1  2  0  0  0  0
  4  2  1  0  0  0  0
  5  4  1  0  0  0  0
  6  4  2  0  0  0  0
  6  7  1  0  0  0  0
  7  8  2  0  0  0  0
  8  1  1  0  0  0  0
  8  9  1  0  0  0  0
 10  7  1  0  0  0  0
 11 10  1  0  0  0  0
 12 11  1  0  0  0  0
 12 13  1  0  0  0  0
 14 12  2  0  0  0  0
 15 14  1  0  0  0  0
 16 18  2  0  0  0  0
 16 14  1  0  0  0  0
 17 16  1  0  0  0  0
 18 20  1  0  0  0  0
 19 18  1  0  0  0  0
 20 21  1  0  0  0  0
 20 11  2  0  0  0  0
 21  6  1  0  0  0  0
 22 21  1  0  0  0  0
 24 25  2  0  0  0  0
 24 23  1  0  0  0  0
 26 24  1  0  0  0  0
 27 26  1  0  0  0  0
 28 33  1  0  0  0  0
 28 26  1  0  0  0  0
 29 28  2  0  0  0  0
 30 31  2  0  0  0  0
 30 29  1  0  0  0  0
 31 32  1  0  0  0  0
 32 35  1  0  0  0  0
 32 33  2  0  0  0  0
 34 30  1  0  0  0  0
 36 29  1  0  0  0  0
 36 37  1  0  0  0  0
 38 36  1  0  0  0  0
M  END
>  <minimizedAffinity>
-5.87221432

$$$$

 OpenBabel03252501363D

 38 41  0  0  0  0  0  0  0  0999 V2000
   36.9530   31.1030   39.9550 C   0  0  0  0  0  0  0  0  0  0  0  0
   36.0040   30.4130   40.6800 C   0  0  0  0  0  0  0  0  0  0  0  0
   35.9070   30.6140   41.7380 H   0  0  0  0  0  0  0  0  0  0  0  0
   35.2030   29.4860   40.0450 C   0  0  0  0  0  0  0  0  0  0  0  0
   34.4840   28.9910   40.6930 H   0  0  0  0  0  0  0  0  0  0  0  0
   35.2840   29.1910   38.7000 C   0  0  0  0  0  0  0  0  0  0  0  0
   36.2350   29.8910   38.0030 C   0  0  0  0  0  0  0  0  0  0  0  0
   37.0320   30.8050   38.6110 C   0  0  0  0  0  0  0  0  0  0  0  0
   37.7700   31.3260   37.9880 H   0  0  0  0  0  0  0  0  0  0  0  0
   36.3940   29.5600   36.2610 S   0  0  0  0  0  0  0  0  0  0  0  0
   35.1940   28.3200   35.8510 C   0  0  0  0  0  0  0  0  0  0  0  0
   35.0920   27.8700   34.5710 C   0  0  0  0  0  0  0  0  0  0  0  0
   35.7570   28.2810   33.7970 H   0  0  0  0  0  0  0  0  0  0  0  0
   34.1820   26.9100   34.1870 C   0  0  0  0  0  0  0  0  0  0  0  0
   34.1070   26.5610   33.1790 H   0  0  0  0  0  0  0  0  0  0  0  0
   33.3560   26.4060   35.1650 C   0  0  0  0  0  0  0  0  0  0  0  0
   32.6470   25.6640   34.8900 H   0  0  0  0  0  0  0  0  0  0  0  0
   33.4870   26.8820   36.4440 C   0  0  0  0  0  0  0  0  0  0  0  0
   32.7860   26.4230   37.1620 H   0  0  0  0  0  0  0  0  0  0  0  0
   34.3890   27.8420   36.8540 C   0  0  0  0  0  0  0  0  0  0  0  0
   34.3840   28.2140   38.2180 N   0  0  0  0  0  0  0  0  0  0  0  0
   33.7060   27.7530   38.8600 H   0  0  0  0  0  0  0  0  0  0  0  0
   37.7750   32.0430   40.5650 O   0  0  0  0  0  0  0  0  0  0  0  0
   39.0470   32.2860   40.0320 C   0  0  0  0  0  0  0  0  0  0  0  0
   40.0560   31.5040   40.0810 O   0  0  0  0  0  0  0  0  0  0  0  0
   39.3410   33.5070   39.3440 N   0  0  0  0  0  0  0  0  0  0  0  0
   38.6190   34.2310   39.2160 H   0  0  0  0  0  0  0  0  0  0  0  0
   40.7350   33.4830   38.9180 C   0  0  0  0  0  0  0  0  0  0  0  0
   41.1760   32.9480   37.7330 C   0  0  0  0  0  0  0  0  0  0  0  0
   42.5490   33.0290   37.5130 C   0  0  0  0  0  0  0  0  0  0  0  0
   43.3110   33.6080   38.4550 N   0  0  0  0  0  0  0  0  0  0  0  0
   42.8390   34.1160   39.5970 C   0  0  0  0  0  0  0  0  0  0  0  0
   41.5120   34.0650   39.8610 N   0  0  0  0  0  0  0  0  0  0  0  0
   42.9010   32.6090   36.5800 H   0  0  0  0  0  0  0  0  0  0  0  0
   43.5380   34.5610   40.2900 H   0  0  0  0  0  0  0  0  0  0  0  0
   40.2160   32.3830   36.8720 N   0  0  0  0  0  0  0  0  0  0  0  0
   39.7670   31.4340   36.9390 H   0  0  0  0  0  0  0  0  0  0  0  0
   40.1090   33.1760   36.1890 H   0  0  0  0  0  0  0  0  0  0  0  0
  1 23  1  0  0  0  0
  1  2  1  0  0  0  0
  2  3  1  0  0  0  0
  4  2  2  0  0  0  0
  4  5  1  0  0  0  0
  6  4  1  0  0  0  0
  7  8  1  0  0  0  0
  7  6  2  0  0  0  0
  8  1  2  0  0  0  0
  9  8  1  0  0  0  0
 10  7  1  0  0  0  0
 11 10  1  0  0  0  0
 11 20  1  0  0  0  0
 12 11  2  0  0  0  0
 13 12  1  0  0  0  0
 14 12  1  0  0  0  0
 14 16  2  0  0  0  0
 15 14  1  0  0  0  0
 16 18  1  0  0  0  0
 17 16  1  0  0  0  0
 18 20  2  0  0  0  0
 18 19  1  0  0  0  0
 20 21  1  0  0  0  0
 21  6  1  0  0  0  0
 21 22  1  0  0  0  0
 24 25  2  0  0  0  0
 24 23  1  0  0  0  0
 26 24  1  0  0  0  0
 27 26  1  0  0  0  0
 28 26  1  0  0  0  0
 28 33  1  0  0  0  0
 29 28  2  0  0  0  0
 30 29  1  0  0  0  0
 30 31  2  0  0  0  0
 31 32  1  0  0  0  0
 32 33  2  0  0  0  0
 32 35  1  0  0  0  0
 34 30  1  0  0  0  0
 36 37  1  0  0  0  0
 36 29  1  0  0  0  0
 38 36  1  0  0  0  0
M  END
>  <minimizedAffinity>
-5.83808708

$$$$

 OpenBabel03252501363D

 38 41  0  0  0  0  0  0  0  0999 V2000
   37.3770   32.0700   39.6730 C   0  0  0  0  0  0  0  0  0  0  0  0
   36.6520   31.3690   40.6140 C   0  0  0  0  0  0  0  0  0  0  0  0
   36.6270   31.7350   41.6320 H   0  0  0  0  0  0  0  0  0  0  0  0
   35.9790   30.2250   40.2410 C   0  0  0  0  0  0  0  0  0  0  0  0
   35.4340   29.7380   41.0460 H   0  0  0  0  0  0  0  0  0  0  0  0
   35.9770   29.7150   38.9590 C   0  0  0  0  0  0  0  0  0  0  0  0
   36.7050   30.4300   38.0440 C   0  0  0  0  0  0  0  0  0  0  0  0
   37.3740   31.5570   38.3930 C   0  0  0  0  0  0  0  0  0  0  0  0
   37.9360   32.0770   37.6050 H   0  0  0  0  0  0  0  0  0  0  0  0
   36.7460   29.8290   36.3690 S   0  0  0  0  0  0  0  0  0  0  0  0
   35.7630   28.3540   36.3160 C   0  0  0  0  0  0  0  0  0  0  0  0
   35.6180   27.6750   35.1460 C   0  0  0  0  0  0  0  0  0  0  0  0
   36.1130   28.0490   34.2380 H   0  0  0  0  0  0  0  0  0  0  0  0
   34.8690   26.5240   35.0380 C   0  0  0  0  0  0  0  0  0  0  0  0
   34.7590   25.9960   34.1150 H   0  0  0  0  0  0  0  0  0  0  0  0
   34.2550   26.0690   36.1820 C   0  0  0  0  0  0  0  0  0  0  0  0
   33.6730   25.1830   36.1210 H   0  0  0  0  0  0  0  0  0  0  0  0
   34.4230   26.7780   37.3440 C   0  0  0  0  0  0  0  0  0  0  0  0
   33.8970   26.3420   38.2100 H   0  0  0  0  0  0  0  0  0  0  0  0
   35.1670   27.9320   37.4780 C   0  0  0  0  0  0  0  0  0  0  0  0
   35.2310   28.5320   38.7570 N   0  0  0  0  0  0  0  0  0  0  0  0
   34.7190   28.0850   39.5450 H   0  0  0  0  0  0  0  0  0  0  0  0
   38.0670   33.2270   40.0170 O   0  0  0  0  0  0  0  0  0  0  0  0
   39.4450   33.2960   39.7790 C   0  0  0  0  0  0  0  0  0  0  0  0
   40.2850   32.3390   39.8840 O   0  0  0  0  0  0  0  0  0  0  0  0
   40.0670   34.5200   39.3730 N   0  0  0  0  0  0  0  0  0  0  0  0
   39.5100   35.3780   39.2370 H   0  0  0  0  0  0  0  0  0  0  0  0
   41.4980   34.2930   39.2180 C   0  0  0  0  0  0  0  0  0  0  0  0
   42.4080   34.3360   40.2450 C   0  0  0  0  0  0  0  0  0  0  0  0
   43.7300   34.0860   39.8860 C   0  0  0  0  0  0  0  0  0  0  0  0
   44.0010   33.8300   38.5970 N   0  0  0  0  0  0  0  0  0  0  0  0
   43.0830   33.7980   37.6260 C   0  0  0  0  0  0  0  0  0  0  0  0
   41.7820   34.0330   37.9200 N   0  0  0  0  0  0  0  0  0  0  0  0
   44.4500   34.1200   40.6930 H   0  0  0  0  0  0  0  0  0  0  0  0
   43.4050   33.5820   36.6190 H   0  0  0  0  0  0  0  0  0  0  0  0
   41.9240   34.6220   41.5360 N   0  0  0  0  0  0  0  0  0  0  0  0
   41.6760   35.5620   41.9400 H   0  0  0  0  0  0  0  0  0  0  0  0
   41.8980   33.6480   41.9300 H   0  0  0  0  0  0  0  0  0  0  0  0
  1 23  1  0  0  0  0
  1  2  1  0  0  0  0
  2  3  1  0  0  0  0
  4  2  2  0  0  0  0
  4  5  1  0  0  0  0
  6  4  1  0  0  0  0
  7  8  1  0  0  0  0
  7  6  2  0  0  0  0
  8  1  2  0  0  0  0
  9  8  1  0  0  0  0
 10  7  1  0  0  0  0
 11 10  1  0  0  0  0
 11 20  1  0  0  0  0
 12 11  2  0  0  0  0
 13 12  1  0  0  0  0
 14 12  1  0  0  0  0
 14 16  2  0  0  0  0
 15 14  1  0  0  0  0
 16 18  1  0  0  0  0
 17 16  1  0  0  0  0
 18 20  2  0  0  0  0
 18 19  1  0  0  0  0
 20 21  1  0  0  0  0
 21  6  1  0  0  0  0
 21 22  1  0  0  0  0
 24 25  2  0  0  0  0
 24 23  1  0  0  0  0
 26 24  1  0  0  0  0
 27 26  1  0  0  0  0
 28 26  1  0  0  0  0
 28 29  1  0  0  0  0
 29 36  1  0  0  0  0
 30 29  2  0  0  0  0
 30 34  1  0  0  0  0
 31 30  1  0  0  0  0
 32 33  1  0  0  0  0
 32 31  2  0  0  0  0
 33 28  2  0  0  0  0
 35 32  1  0  0  0  0
 36 38  1  0  0  0  0
 36 37  1  0  0  0  0
M  END
>  <minimizedAffinity>
-5.71312428

$$$$
