
 OpenBabel03252506133D

 49 53  0  0  0  0  0  0  0  0999 V2000
   47.8490   33.9470   36.8080 O   0  0  0  0  0  0  0  0  0  0  0  0
   46.5920   33.1740   37.1230 P   0  0  2  0  0  0  0  0  0  0  0  0
   45.2180   34.0150   36.5640 O   0  0  0  0  0  0  0  0  0  0  0  0
   45.5230   34.8330   36.1420 H   0  0  0  0  0  0  0  0  0  0  0  0
   46.4070   32.9060   38.7760 O   0  0  0  0  0  0  0  0  0  0  0  0
   44.9830   33.2750   41.1790 F   0  0  0  0  0  0  0  0  0  0  0  0
   46.1500   33.8590   40.9590 C   0  0  0  0  0  0  0  0  0  0  0  0
   46.6890   34.6740   41.9360 C   0  0  0  0  0  0  0  0  0  0  0  0
   47.9160   35.3310   41.7940 C   0  0  0  0  0  0  0  0  0  0  0  0
   48.6410   35.1630   40.6130 C   0  0  0  0  0  0  0  0  0  0  0  0
   48.0760   34.3430   39.6620 C   0  0  0  0  0  0  0  0  0  0  0  0
   46.8840   33.7000   39.7870 C   0  0  0  0  0  0  0  0  0  0  0  0
   48.2730   35.9590   42.6130 H   0  0  0  0  0  0  0  0  0  0  0  0
   49.5810   35.6870   40.5470 H   0  0  0  0  0  0  0  0  0  0  0  0
   48.7370   34.2910   38.8050 H   0  0  0  0  0  0  0  0  0  0  0  0
   45.3950   34.1150   45.3240 C   0  0  0  0  0  0  0  0  0  0  0  0
   44.6320   35.2770   45.5410 C   0  0  0  0  0  0  0  0  0  0  0  0
   44.5630   36.2620   44.5130 C   0  0  0  0  0  0  0  0  0  0  0  0
   45.2580   35.9970   43.3650 N   0  0  0  0  0  0  0  0  0  0  0  0
   45.9700   34.8810   43.1990 C   0  0  0  0  0  0  0  0  0  0  0  0
   46.0360   33.9530   44.1680 N   0  0  0  0  0  0  0  0  0  0  0  0
   44.0980   35.4640   46.4420 H   0  0  0  0  0  0  0  0  0  0  0  0
   43.9860   37.1650   44.6490 H   0  0  0  0  0  0  0  0  0  0  0  0
   45.4510   33.1470   46.3570 N   0  0  0  0  0  0  0  0  0  0  0  0
   45.0770   32.1640   46.4020 H   0  0  0  0  0  0  0  0  0  0  0  0
   45.9110   33.2950   47.2860 H   0  0  0  0  0  0  0  0  0  0  0  0
   46.6090   31.7360   36.2240 O   0  0  0  0  0  0  0  0  0  0  0  0
   45.3960   31.2390   35.7660 C   0  0  0  0  0  0  0  0  0  0  0  0
   45.3000   30.9230   34.4260 C   0  0  0  0  0  0  0  0  0  0  0  0
   46.1520   31.0640   33.7690 H   0  0  0  0  0  0  0  0  0  0  0  0
   44.1000   30.4250   33.9490 C   0  0  0  0  0  0  0  0  0  0  0  0
   44.1010   30.1960   32.8700 H   0  0  0  0  0  0  0  0  0  0  0  0
   42.9770   30.2200   34.7260 C   0  0  0  0  0  0  0  0  0  0  0  0
   43.1090   30.5410   36.0330 C   0  0  0  0  0  0  0  0  0  0  0  0
   44.2620   31.0270   36.5310 C   0  0  0  0  0  0  0  0  0  0  0  0
   44.3530   31.2840   37.5990 H   0  0  0  0  0  0  0  0  0  0  0  0
   41.7050   30.3060   37.1060 S   0  0  0  0  0  0  0  0  0  0  0  0
   40.4090   29.6570   36.0660 C   0  0  0  0  0  0  0  0  0  0  0  0
   39.2080   29.3910   36.6760 C   0  0  0  0  0  0  0  0  0  0  0  0
   39.0530   29.5650   37.7360 H   0  0  0  0  0  0  0  0  0  0  0  0
   38.1520   28.8890   35.9540 C   0  0  0  0  0  0  0  0  0  0  0  0
   37.2120   28.6770   36.4150 H   0  0  0  0  0  0  0  0  0  0  0  0
   38.3440   28.6680   34.6140 C   0  0  0  0  0  0  0  0  0  0  0  0
   37.5110   28.2730   34.0510 H   0  0  0  0  0  0  0  0  0  0  0  0
   39.5620   28.9520   34.0620 C   0  0  0  0  0  0  0  0  0  0  0  0
   39.6130   28.7410   32.9900 H   0  0  0  0  0  0  0  0  0  0  0  0
   40.6560   29.4560   34.7340 C   0  0  0  0  0  0  0  0  0  0  0  0
   41.8550   29.7110   34.0710 N   0  0  0  0  0  0  0  0  0  0  0  0
   41.8680   29.4980   33.0510 H   0  0  0  0  0  0  0  0  0  0  0  0
  2  1  2  6  0  0  0
  2  5  1  0  0  0  0
  3  2  1  0  0  0  0
  4  3  1  0  0  0  0
  5 12  1  0  0  0  0
  7  6  1  0  0  0  0
  7  8  1  0  0  0  0
  8 20  1  0  0  0  0
  9  8  2  0  0  0  0
  9 13  1  0  0  0  0
 10  9  1  0  0  0  0
 11 12  1  0  0  0  0
 11 10  2  0  0  0  0
 12  7  2  0  0  0  0
 14 10  1  0  0  0  0
 15 11  1  0  0  0  0
 16 17  1  0  0  0  0
 16 24  1  0  0  0  0
 17 22  1  0  0  0  0
 18 23  1  0  0  0  0
 18 17  2  0  0  0  0
 19 18  1  0  0  0  0
 20 19  2  0  0  0  0
 20 21  1  0  0  0  0
 21 16  2  0  0  0  0
 24 25  1  0  0  0  0
 24 26  1  0  0  0  0
 27  2  1  0  0  0  0
 28 27  1  0  0  0  0
 28 35  1  0  0  0  0
 29 28  2  0  0  0  0
 30 29  1  0  0  0  0
 31 29  1  0  0  0  0
 31 33  2  0  0  0  0
 32 31  1  0  0  0  0
 33 34  1  0  0  0  0
 34 35  2  0  0  0  0
 34 37  1  0  0  0  0
 35 36  1  0  0  0  0
 38 39  1  0  0  0  0
 38 37  1  0  0  0  0
 39 40  1  0  0  0  0
 41 42  1  0  0  0  0
 41 39  2  0  0  0  0
 43 41  1  0  0  0  0
 44 43  1  0  0  0  0
 45 43  2  0  0  0  0
 45 47  1  0  0  0  0
 46 45  1  0  0  0  0
 47 38  2  0  0  0  0
 48 33  1  0  0  0  0
 48 47  1  0  0  0  0
 49 48  1  0  0  0  0
M  END
>  <minimizedAffinity>
-7.70287561

>  <minimizedRMSD>
3.2345221

$$$$
