
 OpenBabel03252502563D

 50 54  0  0  0  0  0  0  0  0999 V2000
   44.2720   26.0970   47.0430 O   0  0  0  0  0  0  0  0  0  0  0  0
   44.9430   27.1640   47.8960 P   0  0  2  0  0  0  0  0  0  0  0  0
   44.4810   26.9720   49.5010 O   0  0  0  0  0  0  0  0  0  0  0  0
   45.2370   27.0120   50.1430 H   0  0  0  0  0  0  0  0  0  0  0  0
   44.3550   28.6790   47.3810 O   0  0  0  0  0  0  0  0  0  0  0  0
   45.5760   29.8760   44.8050 Br  0  0  0  0  0  0  0  0  0  0  0  0
   45.6550   30.5760   46.6090 C   0  0  0  0  0  0  0  0  0  0  0  0
   46.3380   31.7490   46.7680 C   0  0  0  0  0  0  0  0  0  0  0  0
   46.3730   32.2210   48.0810 C   0  0  0  0  0  0  0  0  0  0  0  0
   45.7740   31.5680   49.1400 C   0  0  0  0  0  0  0  0  0  0  0  0
   45.1070   30.3940   48.8950 C   0  0  0  0  0  0  0  0  0  0  0  0
   45.0370   29.8750   47.6170 C   0  0  0  0  0  0  0  0  0  0  0  0
   46.8960   33.1460   48.2860 H   0  0  0  0  0  0  0  0  0  0  0  0
   45.8470   32.0010   50.1310 H   0  0  0  0  0  0  0  0  0  0  0  0
   44.6420   29.8880   49.7270 H   0  0  0  0  0  0  0  0  0  0  0  0
   47.0110   32.5310   45.7270 C   0  0  0  0  0  0  0  0  0  0  0  0
   48.0070   32.9170   46.0470 H   0  0  0  0  0  0  0  0  0  0  0  0
   47.2160   31.8280   44.8750 H   0  0  0  0  0  0  0  0  0  0  0  0
   44.5460   35.3150   45.4110 C   0  0  0  0  0  0  0  0  0  0  0  0
   44.7640   35.7350   44.0970 C   0  0  0  0  0  0  0  0  0  0  0  0
   45.7290   35.0750   43.3530 C   0  0  0  0  0  0  0  0  0  0  0  0
   46.4300   34.0530   43.9090 N   0  0  0  0  0  0  0  0  0  0  0  0
   46.1960   33.6600   45.2010 C   0  0  0  0  0  0  0  0  0  0  0  0
   45.2510   34.3120   45.9190 N   0  0  0  0  0  0  0  0  0  0  0  0
   43.8350   35.7330   46.0990 H   0  0  0  0  0  0  0  0  0  0  0  0
   44.1510   36.5580   43.7530 H   0  0  0  0  0  0  0  0  0  0  0  0
   45.8830   35.4130   42.3390 H   0  0  0  0  0  0  0  0  0  0  0  0
   46.6050   27.0230   47.7160 O   0  0  0  0  0  0  0  0  0  0  0  0
   47.2810   26.2230   46.8160 C   0  0  0  0  0  0  0  0  0  0  0  0
   47.7490   24.9860   47.2050 C   0  0  0  0  0  0  0  0  0  0  0  0
   47.5660   24.6840   48.2180 H   0  0  0  0  0  0  0  0  0  0  0  0
   48.4190   24.2110   46.2810 C   0  0  0  0  0  0  0  0  0  0  0  0
   48.7470   23.2610   46.6840 H   0  0  0  0  0  0  0  0  0  0  0  0
   48.6690   24.5700   44.9750 C   0  0  0  0  0  0  0  0  0  0  0  0
   48.1750   25.8120   44.6600 C   0  0  0  0  0  0  0  0  0  0  0  0
   47.5130   26.6140   45.5160 C   0  0  0  0  0  0  0  0  0  0  0  0
   47.1260   27.5980   45.2510 H   0  0  0  0  0  0  0  0  0  0  0  0
   48.4030   26.4480   43.0100 S   0  0  0  0  0  0  0  0  0  0  0  0
   49.2940   25.1840   42.1300 C   0  0  0  0  0  0  0  0  0  0  0  0
   49.6480   25.3270   40.8220 C   0  0  0  0  0  0  0  0  0  0  0  0
   49.3720   26.2550   40.2950 H   0  0  0  0  0  0  0  0  0  0  0  0
   50.3440   24.4000   40.0460 C   0  0  0  0  0  0  0  0  0  0  0  0
   50.5810   24.5930   39.0250 H   0  0  0  0  0  0  0  0  0  0  0  0
   50.6820   23.2420   40.7200 C   0  0  0  0  0  0  0  0  0  0  0  0
   51.2260   22.4790   40.1700 H   0  0  0  0  0  0  0  0  0  0  0  0
   50.3330   23.0750   42.0500 C   0  0  0  0  0  0  0  0  0  0  0  0
   50.6450   22.1210   42.5010 H   0  0  0  0  0  0  0  0  0  0  0  0
   49.6430   24.0250   42.7730 C   0  0  0  0  0  0  0  0  0  0  0  0
   49.3680   23.7040   44.1000 N   0  0  0  0  0  0  0  0  0  0  0  0
   49.6660   22.8000   44.5230 H   0  0  0  0  0  0  0  0  0  0  0  0
  2  1  2  6  0  0  0
  2  3  1  0  0  0  0
  3  4  1  0  0  0  0
  5 12  1  0  0  0  0
  5  2  1  0  0  0  0
  6  7  1  0  0  0  0
  7  8  2  0  0  0  0
  7 12  1  0  0  0  0
  8  9  1  0  0  0  0
  9 13  1  0  0  0  0
  9 10  2  0  0  0  0
 10 14  1  0  0  0  0
 11 10  1  0  0  0  0
 11 15  1  0  0  0  0
 12 11  2  0  0  0  0
 16 17  1  0  0  0  0
 16  8  1  0  0  0  0
 18 16  1  0  0  0  0
 19 24  1  0  0  0  0
 19 25  1  0  0  0  0
 20 19  2  0  0  0  0
 21 22  2  0  0  0  0
 21 20  1  0  0  0  0
 22 23  1  0  0  0  0
 23 16  1  0  0  0  0
 23 24  2  0  0  0  0
 26 20  1  0  0  0  0
 27 21  1  0  0  0  0
 28  2  1  0  0  0  0
 29 30  1  0  0  0  0
 29 28  1  0  0  0  0
 30 31  1  0  0  0  0
 32 33  1  0  0  0  0
 32 30  2  0  0  0  0
 34 32  1  0  0  0  0
 35 34  2  0  0  0  0
 35 36  1  0  0  0  0
 36 29  2  0  0  0  0
 37 36  1  0  0  0  0
 38 35  1  0  0  0  0
 39 48  1  0  0  0  0
 39 38  1  0  0  0  0
 40 39  2  0  0  0  0
 41 40  1  0  0  0  0
 42 44  2  0  0  0  0
 42 40  1  0  0  0  0
 43 42  1  0  0  0  0
 44 46  1  0  0  0  0
 45 44  1  0  0  0  0
 46 47  1  0  0  0  0
 46 48  2  0  0  0  0
 48 49  1  0  0  0  0
 49 50  1  0  0  0  0
 49 34  1  0  0  0  0
M  END
>  <minimizedAffinity>
-4.81987906

>  <minimizedRMSD>
0.899353504

$$$$
