
 OpenBabel03252509013D

 58 62  0  0  1  0  0  0  0  0999 V2000
   47.1760   34.2790   42.9870 N   0  0  0  0  0  0  0  0  0  0  0  0
   46.5540   35.4040   42.3940 C   0  0  0  0  0  0  0  0  0  0  0  0
   45.0610   35.5050   42.6210 C   0  0  0  0  0  0  0  0  0  0  0  0
   44.5990   34.9820   43.9460 C   0  0  0  0  0  0  0  0  0  0  0  0
   45.7520   34.5330   44.8090 C   0  0  0  0  0  0  0  0  0  0  0  0
   46.4960   33.4900   43.9010 C   0  0  2  0  0  0  0  0  0  0  0  0
   46.7300   35.5410   41.3270 H   0  0  0  0  0  0  0  0  0  0  0  0
   46.9930   36.3120   42.8930 H   0  0  0  0  0  0  0  0  0  0  0  0
   44.5380   34.9930   41.7760 H   0  0  0  0  0  0  0  0  0  0  0  0
   44.7710   36.5780   42.5580 H   0  0  0  0  0  0  0  0  0  0  0  0
   43.9250   35.6980   44.4700 H   0  0  0  0  0  0  0  0  0  0  0  0
   43.9700   34.0650   43.7610 H   0  0  0  0  0  0  0  0  0  0  0  0
   46.4370   35.3440   45.0750 H   0  0  0  0  0  0  0  0  0  0  0  0
   45.3430   33.9970   45.6890 H   0  0  0  0  0  0  0  0  0  0  0  0
   45.6940   32.8220   43.5420 H   0  0  0  0  0  0  0  0  0  0  0  0
   48.1970   33.6860   42.1810 C   0  0  0  0  0  0  0  0  0  0  0  0
   48.8760   33.0880   42.8410 H   0  0  0  0  0  0  0  0  0  0  0  0
   48.8030   34.4650   41.7150 H   0  0  0  0  0  0  0  0  0  0  0  0
   47.5680   32.7330   41.2130 C   0  0  0  0  0  0  0  0  0  0  0  0
   46.4640   32.8860   41.1670 H   0  0  0  0  0  0  0  0  0  0  0  0
   47.7170   31.6760   41.4660 H   0  0  0  0  0  0  0  0  0  0  0  0
   49.3600   32.3330   37.9340 C   0  0  0  0  0  0  0  0  0  0  0  0
   48.8700   32.0740   39.2270 C   0  0  0  0  0  0  0  0  0  0  0  0
   48.0820   33.0140   39.8470 C   0  0  0  0  0  0  0  0  0  0  0  0
   47.8160   34.1460   39.1800 N   0  0  0  0  0  0  0  0  0  0  0  0
   48.2900   34.3850   37.9410 C   0  0  0  0  0  0  0  0  0  0  0  0
   49.0630   33.4850   37.3100 N   0  0  0  0  0  0  0  0  0  0  0  0
   49.9820   31.5700   37.4690 H   0  0  0  0  0  0  0  0  0  0  0  0
   49.1050   31.1430   39.7430 H   0  0  0  0  0  0  0  0  0  0  0  0
   48.0320   35.3210   37.4660 H   0  0  0  0  0  0  0  0  0  0  0  0
   47.3640   32.8950   44.8110 O   0  0  0  0  0  0  0  0  0  0  0  0
   45.5660   30.9560   44.6020 O   0  0  0  0  0  0  0  0  0  0  0  0
   46.8250   31.3900   45.3380 P   0  0  2  0  0  0  0  0  0  0  0  0
   46.3420   31.6030   46.9660 O   0  0  0  0  0  0  0  0  0  0  0  0
   47.1270   31.5590   47.5650 H   0  0  0  0  0  0  0  0  0  0  0  0
   48.0300   30.2370   45.2940 O   0  0  0  0  0  0  0  0  0  0  0  0
   48.2270   29.2090   46.1780 C   0  0  0  0  0  0  0  0  0  0  0  0
   49.4450   29.0090   46.7960 C   0  0  0  0  0  0  0  0  0  0  0  0
   50.2620   29.6780   46.5770 H   0  0  0  0  0  0  0  0  0  0  0  0
   49.5910   27.9590   47.6790 C   0  0  0  0  0  0  0  0  0  0  0  0
   50.5940   27.8730   48.1250 H   0  0  0  0  0  0  0  0  0  0  0  0
   48.5720   27.0800   47.9850 C   0  0  0  0  0  0  0  0  0  0  0  0
   47.3530   27.2650   47.3800 C   0  0  0  0  0  0  0  0  0  0  0  0
   47.2300   28.3140   46.5070 C   0  0  0  0  0  0  0  0  0  0  0  0
   46.2620   28.4600   46.0270 H   0  0  0  0  0  0  0  0  0  0  0  0
   46.0140   26.1540   47.7490 S   0  0  0  0  0  0  0  0  0  0  0  0
   46.6640   24.9790   48.9210 C   0  0  0  0  0  0  0  0  0  0  0  0
   45.8040   24.0290   49.3440 C   0  0  0  0  0  0  0  0  0  0  0  0
   44.7760   23.9570   49.0140 H   0  0  0  0  0  0  0  0  0  0  0  0
   46.2150   23.0740   50.2510 C   0  0  0  0  0  0  0  0  0  0  0  0
   45.5290   22.3120   50.5940 H   0  0  0  0  0  0  0  0  0  0  0  0
   47.5170   23.1230   50.7050 C   0  0  0  0  0  0  0  0  0  0  0  0
   47.8820   22.3960   51.4160 H   0  0  0  0  0  0  0  0  0  0  0  0
   48.3410   24.1230   50.2290 C   0  0  0  0  0  0  0  0  0  0  0  0
   49.3640   24.1090   50.6260 H   0  0  0  0  0  0  0  0  0  0  0  0
   47.9710   25.0950   49.3230 C   0  0  0  0  0  0  0  0  0  0  0  0
   48.9050   26.0720   48.9060 N   0  0  0  0  0  0  0  0  0  0  0  0
   49.8550   25.9970   49.3240 H   0  0  0  0  0  0  0  0  0  0  0  0
  1  6  1  0  0  0  0
  2  3  1  0  0  0  0
  2  8  1  0  0  0  0
  2  1  1  0  0  0  0
  3  4  1  0  0  0  0
  4 11  1  0  0  0  0
  4  5  1  0  0  0  0
  5 13  1  0  0  0  0
  5 14  1  0  0  0  0
  6 15  1  6  0  0  0
  6  5  1  0  0  0  0
  6 31  1  0  0  0  0
  7  2  1  0  0  0  0
  9  3  1  0  0  0  0
 10  3  1  0  0  0  0
 12  4  1  0  0  0  0
 16 17  1  0  0  0  0
 16  1  1  0  0  0  0
 18 16  1  0  0  0  0
 19 21  1  0  0  0  0
 19 16  1  0  0  0  0
 20 19  1  0  0  0  0
 22 23  1  0  0  0  0
 23 29  1  0  0  0  0
 23 24  2  0  0  0  0
 24 19  1  0  0  0  0
 25 24  1  0  0  0  0
 26 25  2  0  0  0  0
 27 22  2  0  0  0  0
 27 26  1  0  0  0  0
 28 22  1  0  0  0  0
 30 26  1  0  0  0  0
 31 33  1  0  0  0  0
 33 32  2  6  0  0  0
 33 34  1  0  0  0  0
 34 35  1  0  0  0  0
 36 33  1  0  0  0  0
 36 37  1  0  0  0  0
 37 44  2  0  0  0  0
 37 38  1  0  0  0  0
 38 40  2  0  0  0  0
 39 38  1  0  0  0  0
 40 42  1  0  0  0  0
 40 41  1  0  0  0  0
 42 57  1  0  0  0  0
 43 46  1  0  0  0  0
 43 42  2  0  0  0  0
 44 43  1  0  0  0  0
 45 44  1  0  0  0  0
 46 47  1  0  0  0  0
 47 56  2  0  0  0  0
 47 48  1  0  0  0  0
 48 50  2  0  0  0  0
 49 48  1  0  0  0  0
 50 51  1  0  0  0  0
 50 52  1  0  0  0  0
 52 53  1  0  0  0  0
 54 55  1  0  0  0  0
 54 52  2  0  0  0  0
 56 54  1  0  0  0  0
 57 56  1  0  0  0  0
 57 58  1  0  0  0  0
M  END
>  <minimizedAffinity>
-5.10049343

>  <minimizedRMSD>
0.989351511

$$$$
