
 OpenBabel03252505483D

 42 46  0  0  1  0  0  0  0  0999 V2000
   37.9990   32.4240   38.9070 C   0  0  0  0  0  0  0  0  0  0  0  0
   37.6440   33.5360   39.6280 C   0  0  0  0  0  0  0  0  0  0  0  0
   36.5920   33.7530   39.6130 H   0  0  0  0  0  0  0  0  0  0  0  0
   38.5340   34.3200   40.3190 C   0  0  0  0  0  0  0  0  0  0  0  0
   38.0780   35.1710   40.8420 H   0  0  0  0  0  0  0  0  0  0  0  0
   39.8820   34.0310   40.3320 C   0  0  0  0  0  0  0  0  0  0  0  0
   40.3210   32.9390   39.6380 C   0  0  0  0  0  0  0  0  0  0  0  0
   39.3930   32.1950   38.9690 C   0  0  0  0  0  0  0  0  0  0  0  0
   39.8840   31.3540   38.4600 H   0  0  0  0  0  0  0  0  0  0  0  0
   42.0660   32.5720   39.6590 S   0  0  0  0  0  0  0  0  0  0  0  0
   42.8320   33.8300   40.6620 C   0  0  0  0  0  0  0  0  0  0  0  0
   44.1750   33.7170   40.7970 C   0  0  0  0  0  0  0  0  0  0  0  0
   44.7730   32.9430   40.3500 H   0  0  0  0  0  0  0  0  0  0  0  0
   44.8610   34.6500   41.5580 C   0  0  0  0  0  0  0  0  0  0  0  0
   45.9250   34.5930   41.6870 H   0  0  0  0  0  0  0  0  0  0  0  0
   44.1420   35.6530   42.1460 C   0  0  0  0  0  0  0  0  0  0  0  0
   44.6660   36.3870   42.7410 H   0  0  0  0  0  0  0  0  0  0  0  0
   42.7880   35.6990   41.9620 C   0  0  0  0  0  0  0  0  0  0  0  0
   42.2870   36.5390   42.4690 H   0  0  0  0  0  0  0  0  0  0  0  0
   42.0430   34.8070   41.2190 C   0  0  0  0  0  0  0  0  0  0  0  0
   40.6440   34.9300   41.0820 N   0  0  0  0  0  0  0  0  0  0  0  0
   40.2470   35.7490   41.5910 H   0  0  0  0  0  0  0  0  0  0  0  0
   37.4110   31.4750   38.1490 O   0  0  0  0  0  0  0  0  0  0  0  0
   36.9900   28.4530   40.0370 C   0  0  0  0  0  0  0  0  0  0  0  0
   35.8640   27.9140   39.3620 C   0  0  0  0  0  0  0  0  0  0  0  0
   35.2800   28.5830   38.2890 C   0  0  0  0  0  0  0  0  0  0  0  0
   35.8500   29.7630   37.9400 N   0  0  0  0  0  0  0  0  0  0  0  0
   36.9390   30.2710   38.6050 C   0  0  0  0  0  0  0  0  0  0  0  0
   37.4920   29.6230   39.6310 N   0  0  0  0  0  0  0  0  0  0  0  0
   35.4780   26.9620   39.7140 H   0  0  0  0  0  0  0  0  0  0  0  0
   34.4390   28.1820   37.7830 H   0  0  0  0  0  0  0  0  0  0  0  0
   37.5550   27.7030   41.1730 C   0  0  1  0  0  0  0  0  0  0  0  0
   36.7160   27.9440   42.4800 C   0  0  1  0  0  0  0  0  0  0  0  0
   36.9410   26.6050   41.8150 C   0  0  0  0  0  0  0  0  0  0  0  0
   38.6440   27.9280   41.3140 H   0  0  0  0  0  0  0  0  0  0  0  0
   35.7460   28.4220   42.3820 H   0  0  0  0  0  0  0  0  0  0  0  0
   37.5920   25.8590   42.3450 H   0  0  0  0  0  0  0  0  0  0  0  0
   35.9980   26.1110   41.4820 H   0  0  0  0  0  0  0  0  0  0  0  0
   37.5630   28.1620   43.7120 C   0  0  0  0  0  0  0  0  0  0  0  0
   38.2140   29.3610   43.7200 F   0  0  0  0  0  0  0  0  0  0  0  0
   36.7210   28.1220   44.8440 F   0  0  0  0  0  0  0  0  0  0  0  0
   38.4470   27.1100   43.9000 F   0  0  0  0  0  0  0  0  0  0  0  0
  1  8  2  0  0  0  0
  1  2  1  0  0  0  0
  2  4  2  0  0  0  0
  3  2  1  0  0  0  0
  4  6  1  0  0  0  0
  4  5  1  0  0  0  0
  6 21  1  0  0  0  0
  7 10  1  0  0  0  0
  7  6  2  0  0  0  0
  8  7  1  0  0  0  0
  9  8  1  0  0  0  0
 10 11  1  0  0  0  0
 11 12  2  0  0  0  0
 11 20  1  0  0  0  0
 12 14  1  0  0  0  0
 13 12  1  0  0  0  0
 14 15  1  0  0  0  0
 14 16  2  0  0  0  0
 16 17  1  0  0  0  0
 18 16  1  0  0  0  0
 18 19  1  0  0  0  0
 20 18  2  0  0  0  0
 21 20  1  0  0  0  0
 21 22  1  0  0  0  0
 23 28  1  0  0  0  0
 23  1  1  0  0  0  0
 24 32  1  0  0  0  0
 25 30  1  0  0  0  0
 25 24  2  0  0  0  0
 26 25  1  0  0  0  0
 27 26  2  0  0  0  0
 27 28  1  0  0  0  0
 28 29  2  0  0  0  0
 29 24  1  0  0  0  0
 31 26  1  0  0  0  0
 32 35  1  1  0  0  0
 32 34  1  0  0  0  0
 32 33  1  0  0  0  0
 33 36  1  6  0  0  0
 33 39  1  0  0  0  0
 34 37  1  0  0  0  0
 34 33  1  0  0  0  0
 38 34  1  0  0  0  0
 39 40  1  0  0  0  0
 39 42  1  0  0  0  0
 39 41  1  0  0  0  0
M  END
>  <minimizedAffinity>
-7.47264624

$$$$

 OpenBabel03252505483D

 42 46  0  0  1  0  0  0  0  0999 V2000
   36.6980   28.7430   39.9960 C   0  0  0  0  0  0  0  0  0  0  0  0
   35.8690   29.6290   40.6370 C   0  0  0  0  0  0  0  0  0  0  0  0
   34.9540   29.1960   40.9950 H   0  0  0  0  0  0  0  0  0  0  0  0
   36.1600   30.9590   40.8190 C   0  0  0  0  0  0  0  0  0  0  0  0
   35.3850   31.5240   41.3530 H   0  0  0  0  0  0  0  0  0  0  0  0
   37.3390   31.5030   40.3550 C   0  0  0  0  0  0  0  0  0  0  0  0
   38.2220   30.6890   39.7040 C   0  0  0  0  0  0  0  0  0  0  0  0
   37.8820   29.3760   39.5520 C   0  0  0  0  0  0  0  0  0  0  0  0
   38.6790   28.8430   39.0150 H   0  0  0  0  0  0  0  0  0  0  0  0
   39.7440   31.4000   39.1080 S   0  0  0  0  0  0  0  0  0  0  0  0
   39.7020   33.1240   39.5570 C   0  0  0  0  0  0  0  0  0  0  0  0
   40.7890   33.8410   39.1820 C   0  0  0  0  0  0  0  0  0  0  0  0
   41.6350   33.4400   38.6530 H   0  0  0  0  0  0  0  0  0  0  0  0
   40.8480   35.1910   39.4860 C   0  0  0  0  0  0  0  0  0  0  0  0
   41.6940   35.7910   39.2050 H   0  0  0  0  0  0  0  0  0  0  0  0
   39.7960   35.7450   40.1590 C   0  0  0  0  0  0  0  0  0  0  0  0
   39.8300   36.7980   40.4010 H   0  0  0  0  0  0  0  0  0  0  0  0
   38.7340   34.9550   40.5020 C   0  0  0  0  0  0  0  0  0  0  0  0
   37.9290   35.4810   41.0410 H   0  0  0  0  0  0  0  0  0  0  0  0
   38.6090   33.6090   40.2320 C   0  0  0  0  0  0  0  0  0  0  0  0
   37.4730   32.8670   40.6250 N   0  0  0  0  0  0  0  0  0  0  0  0
   36.7590   33.4360   41.1280 H   0  0  0  0  0  0  0  0  0  0  0  0
   36.7220   27.4370   39.6600 O   0  0  0  0  0  0  0  0  0  0  0  0
   38.3980   25.5570   42.2160 C   0  0  0  0  0  0  0  0  0  0  0  0
   37.8370   24.2770   41.9660 C   0  0  0  0  0  0  0  0  0  0  0  0
   36.9130   24.0840   40.9430 C   0  0  0  0  0  0  0  0  0  0  0  0
   36.5890   25.1820   40.2150 N   0  0  0  0  0  0  0  0  0  0  0  0
   37.1400   26.4130   40.4710 C   0  0  0  0  0  0  0  0  0  0  0  0
   38.0260   26.5890   41.4530 N   0  0  0  0  0  0  0  0  0  0  0  0
   38.1590   23.4580   42.6020 H   0  0  0  0  0  0  0  0  0  0  0  0
   36.4930   23.1280   40.7540 H   0  0  0  0  0  0  0  0  0  0  0  0
   39.3620   25.6990   43.3210 C   0  0  1  0  0  0  0  0  0  0  0  0
   40.5990   26.5640   42.8810 C   0  0  1  0  0  0  0  0  0  0  0  0
   39.6470   26.8990   44.0090 C   0  0  0  0  0  0  0  0  0  0  0  0
   39.6620   24.7010   43.7370 H   0  0  0  0  0  0  0  0  0  0  0  0
   40.5260   27.1210   41.9520 H   0  0  0  0  0  0  0  0  0  0  0  0
   40.0380   26.8360   45.0600 H   0  0  0  0  0  0  0  0  0  0  0  0
   39.1110   27.8660   43.8630 H   0  0  0  0  0  0  0  0  0  0  0  0
   41.9240   26.0080   43.3480 C   0  0  0  0  0  0  0  0  0  0  0  0
   42.1300   24.7110   42.9780 F   0  0  0  0  0  0  0  0  0  0  0  0
   42.9560   26.7860   42.7820 F   0  0  0  0  0  0  0  0  0  0  0  0
   42.0770   26.1700   44.7160 F   0  0  0  0  0  0  0  0  0  0  0  0
  1  2  1  0  0  0  0
  2  4  2  0  0  0  0
  2  3  1  0  0  0  0
  4  5  1  0  0  0  0
  6 21  1  0  0  0  0
  6  4  1  0  0  0  0
  7  6  2  0  0  0  0
  8  7  1  0  0  0  0
  8  1  2  0  0  0  0
  9  8  1  0  0  0  0
 10 11  1  0  0  0  0
 10  7  1  0  0  0  0
 11 20  1  0  0  0  0
 12 14  1  0  0  0  0
 12 11  2  0  0  0  0
 13 12  1  0  0  0  0
 14 16  2  0  0  0  0
 15 14  1  0  0  0  0
 16 17  1  0  0  0  0
 16 18  1  0  0  0  0
 18 19  1  0  0  0  0
 20 18  2  0  0  0  0
 20 21  1  0  0  0  0
 21 22  1  0  0  0  0
 23  1  1  0  0  0  0
 23 28  1  0  0  0  0
 24 32  1  0  0  0  0
 25 24  1  0  0  0  0
 25 30  1  0  0  0  0
 26 25  2  0  0  0  0
 27 28  2  0  0  0  0
 27 26  1  0  0  0  0
 28 29  1  0  0  0  0
 29 24  2  0  0  0  0
 31 26  1  0  0  0  0
 32 35  1  1  0  0  0
 32 34  1  0  0  0  0
 33 36  1  6  0  0  0
 33 32  1  0  0  0  0
 33 39  1  0  0  0  0
 33 34  1  0  0  0  0
 34 37  1  0  0  0  0
 38 34  1  0  0  0  0
 39 42  1  0  0  0  0
 40 39  1  0  0  0  0
 41 39  1  0  0  0  0
M  END
>  <minimizedAffinity>
-7.17812347

$$$$

 OpenBabel03252505483D

 42 46  0  0  1  0  0  0  0  0999 V2000
   37.3840   31.9250   39.7210 C   0  0  0  0  0  0  0  0  0  0  0  0
   37.1010   31.2940   38.5360 C   0  0  0  0  0  0  0  0  0  0  0  0
   37.0260   31.9540   37.6920 H   0  0  0  0  0  0  0  0  0  0  0  0
   36.9230   29.9380   38.4120 C   0  0  0  0  0  0  0  0  0  0  0  0
   36.7020   29.6020   37.3900 H   0  0  0  0  0  0  0  0  0  0  0  0
   37.0210   29.1010   39.5020 C   0  0  0  0  0  0  0  0  0  0  0  0
   37.3000   29.6490   40.7220 C   0  0  0  0  0  0  0  0  0  0  0  0
   37.4690   31.0010   40.7880 C   0  0  0  0  0  0  0  0  0  0  0  0
   37.6870   31.3010   41.8230 H   0  0  0  0  0  0  0  0  0  0  0  0
   37.4260   28.5590   42.1280 S   0  0  0  0  0  0  0  0  0  0  0  0
   37.1280   26.9120   41.5150 C   0  0  0  0  0  0  0  0  0  0  0  0
   37.1820   25.9340   42.4500 C   0  0  0  0  0  0  0  0  0  0  0  0
   37.3860   26.0940   43.4940 H   0  0  0  0  0  0  0  0  0  0  0  0
   36.9620   24.6200   42.0700 C   0  0  0  0  0  0  0  0  0  0  0  0
   36.9970   23.8180   42.7840 H   0  0  0  0  0  0  0  0  0  0  0  0
   36.6990   24.3680   40.7530 C   0  0  0  0  0  0  0  0  0  0  0  0
   36.5260   23.3470   40.4450 H   0  0  0  0  0  0  0  0  0  0  0  0
   36.6610   25.4100   39.8690 C   0  0  0  0  0  0  0  0  0  0  0  0
   36.4420   25.1190   38.8290 H   0  0  0  0  0  0  0  0  0  0  0  0
   36.8690   26.7380   40.1780 C   0  0  0  0  0  0  0  0  0  0  0  0
   36.8110   27.7530   39.1980 N   0  0  0  0  0  0  0  0  0  0  0  0
   36.5990   27.3970   38.2420 H   0  0  0  0  0  0  0  0  0  0  0  0
   37.6090   33.1750   40.1760 O   0  0  0  0  0  0  0  0  0  0  0  0
   40.9840   34.0820   39.3630 C   0  0  0  0  0  0  0  0  0  0  0  0
   41.0490   35.3400   40.0160 C   0  0  0  0  0  0  0  0  0  0  0  0
   39.9550   35.8450   40.7140 C   0  0  0  0  0  0  0  0  0  0  0  0
   38.8430   35.0690   40.7250 N   0  0  0  0  0  0  0  0  0  0  0  0
   38.7970   33.8540   40.0860 C   0  0  0  0  0  0  0  0  0  0  0  0
   39.8500   33.3770   39.4220 N   0  0  0  0  0  0  0  0  0  0  0  0
   41.9830   35.8890   39.9510 H   0  0  0  0  0  0  0  0  0  0  0  0
   40.0020   36.7850   41.2030 H   0  0  0  0  0  0  0  0  0  0  0  0
   42.1710   33.6060   38.6310 C   0  0  1  0  0  0  0  0  0  0  0  0
   41.7570   32.7260   37.3960 C   0  0  1  0  0  0  0  0  0  0  0  0
   42.5500   34.0130   37.3330 C   0  0  0  0  0  0  0  0  0  0  0  0
   42.8910   33.0800   39.3110 H   0  0  0  0  0  0  0  0  0  0  0  0
   40.7150   32.7370   37.0900 H   0  0  0  0  0  0  0  0  0  0  0  0
   43.6330   33.9470   37.0430 H   0  0  0  0  0  0  0  0  0  0  0  0
   42.0490   34.8130   36.7390 H   0  0  0  0  0  0  0  0  0  0  0  0
   42.6000   31.4840   37.2280 C   0  0  0  0  0  0  0  0  0  0  0  0
   43.9390   31.7380   37.1640 F   0  0  0  0  0  0  0  0  0  0  0  0
   42.3750   30.6410   38.3370 F   0  0  0  0  0  0  0  0  0  0  0  0
   42.1780   30.7410   36.1370 F   0  0  0  0  0  0  0  0  0  0  0  0
  1 23  1  0  0  0  0
  1  8  1  0  0  0  0
  2  1  2  0  0  0  0
  3  2  1  0  0  0  0
  4  2  1  0  0  0  0
  4  6  2  0  0  0  0
  5  4  1  0  0  0  0
  6  7  1  0  0  0  0
  7  8  2  0  0  0  0
  7 10  1  0  0  0  0
  8  9  1  0  0  0  0
 11 10  1  0  0  0  0
 11 12  1  0  0  0  0
 12 13  1  0  0  0  0
 14 12  2  0  0  0  0
 14 15  1  0  0  0  0
 16 14  1  0  0  0  0
 17 16  1  0  0  0  0
 18 20  1  0  0  0  0
 18 16  2  0  0  0  0
 19 18  1  0  0  0  0
 20 11  2  0  0  0  0
 21  6  1  0  0  0  0
 21 20  1  0  0  0  0
 22 21  1  0  0  0  0
 24 29  2  0  0  0  0
 24 25  1  0  0  0  0
 25 26  2  0  0  0  0
 26 27  1  0  0  0  0
 26 31  1  0  0  0  0
 28 23  1  0  0  0  0
 28 27  2  0  0  0  0
 29 28  1  0  0  0  0
 30 25  1  0  0  0  0
 32 35  1  1  0  0  0
 32 24  1  0  0  0  0
 33 36  1  6  0  0  0
 33 32  1  0  0  0  0
 34 33  1  0  0  0  0
 34 32  1  0  0  0  0
 37 34  1  0  0  0  0
 38 34  1  0  0  0  0
 39 33  1  0  0  0  0
 39 41  1  0  0  0  0
 40 39  1  0  0  0  0
 42 39  1  0  0  0  0
M  END
>  <minimizedAffinity>
-6.98452044

$$$$

 OpenBabel03252505483D

 42 46  0  0  1  0  0  0  0  0999 V2000
   37.7880   29.8290   37.9500 C   0  0  0  0  0  0  0  0  0  0  0  0
   36.9630   30.9250   37.9860 C   0  0  0  0  0  0  0  0  0  0  0  0
   35.9820   30.7520   37.5860 H   0  0  0  0  0  0  0  0  0  0  0  0
   37.3350   32.1500   38.4840 C   0  0  0  0  0  0  0  0  0  0  0  0
   36.5500   32.9160   38.4350 H   0  0  0  0  0  0  0  0  0  0  0  0
   38.5970   32.3610   38.9960 C   0  0  0  0  0  0  0  0  0  0  0  0
   39.4820   31.3200   38.9980 C   0  0  0  0  0  0  0  0  0  0  0  0
   39.0600   30.1250   38.4910 C   0  0  0  0  0  0  0  0  0  0  0  0
   39.8690   29.3840   38.5560 H   0  0  0  0  0  0  0  0  0  0  0  0
   41.1130   31.6010   39.6610 S   0  0  0  0  0  0  0  0  0  0  0  0
   41.1560   33.3040   40.1860 C   0  0  0  0  0  0  0  0  0  0  0  0
   42.3310   33.7080   40.7240 C   0  0  0  0  0  0  0  0  0  0  0  0
   43.1980   33.0830   40.8450 H   0  0  0  0  0  0  0  0  0  0  0  0
   42.4610   35.0170   41.1610 C   0  0  0  0  0  0  0  0  0  0  0  0
   43.3780   35.3730   41.5930 H   0  0  0  0  0  0  0  0  0  0  0  0
   41.3850   35.8490   41.0290 C   0  0  0  0  0  0  0  0  0  0  0  0
   41.4750   36.8710   41.3660 H   0  0  0  0  0  0  0  0  0  0  0  0
   40.2330   35.3650   40.4750 C   0  0  0  0  0  0  0  0  0  0  0  0
   39.4160   36.1010   40.4050 H   0  0  0  0  0  0  0  0  0  0  0  0
   40.0340   34.0780   40.0190 C   0  0  0  0  0  0  0  0  0  0  0  0
   38.8070   33.6620   39.4590 N   0  0  0  0  0  0  0  0  0  0  0  0
   38.0870   34.4160   39.4280 H   0  0  0  0  0  0  0  0  0  0  0  0
   37.7470   28.5410   37.5510 O   0  0  0  0  0  0  0  0  0  0  0  0
   37.3330   26.3250   40.3420 C   0  0  0  0  0  0  0  0  0  0  0  0
   36.5790   25.3000   39.7130 C   0  0  0  0  0  0  0  0  0  0  0  0
   36.2330   25.3850   38.3670 C   0  0  0  0  0  0  0  0  0  0  0  0
   36.6570   26.4930   37.7090 N   0  0  0  0  0  0  0  0  0  0  0  0
   37.3860   27.4750   38.3340 C   0  0  0  0  0  0  0  0  0  0  0  0
   37.7140   27.3860   39.6230 N   0  0  0  0  0  0  0  0  0  0  0  0
   36.2840   24.4520   40.3220 H   0  0  0  0  0  0  0  0  0  0  0  0
   35.6690   24.6200   37.8950 H   0  0  0  0  0  0  0  0  0  0  0  0
   37.6580   26.1830   41.7720 C   0  0  1  0  0  0  0  0  0  0  0  0
   36.7200   27.0860   42.6540 C   0  0  1  0  0  0  0  0  0  0  0  0
   36.8290   25.5800   42.7430 C   0  0  0  0  0  0  0  0  0  0  0  0
   38.7450   26.3730   41.9680 H   0  0  0  0  0  0  0  0  0  0  0  0
   35.8430   27.5210   42.1840 H   0  0  0  0  0  0  0  0  0  0  0  0
   37.3060   25.1420   43.6610 H   0  0  0  0  0  0  0  0  0  0  0  0
   35.8690   25.0530   42.5310 H   0  0  0  0  0  0  0  0  0  0  0  0
   37.4470   27.8150   43.7600 C   0  0  0  0  0  0  0  0  0  0  0  0
   38.6200   27.2210   44.1250 F   0  0  0  0  0  0  0  0  0  0  0  0
   37.7480   29.1180   43.3100 F   0  0  0  0  0  0  0  0  0  0  0  0
   36.6200   28.0080   44.8550 F   0  0  0  0  0  0  0  0  0  0  0  0
  1  2  2  0  0  0  0
  1  8  1  0  0  0  0
  2  4  1  0  0  0  0
  3  2  1  0  0  0  0
  4  6  2  0  0  0  0
  5  4  1  0  0  0  0
  6  7  1  0  0  0  0
  6 21  1  0  0  0  0
  7 10  1  0  0  0  0
  8  9  1  0  0  0  0
  8  7  2  0  0  0  0
 10 11  1  0  0  0  0
 11 12  1  0  0  0  0
 12 13  1  0  0  0  0
 12 14  2  0  0  0  0
 14 15  1  0  0  0  0
 16 14  1  0  0  0  0
 16 17  1  0  0  0  0
 18 16  2  0  0  0  0
 19 18  1  0  0  0  0
 20 11  2  0  0  0  0
 20 18  1  0  0  0  0
 21 20  1  0  0  0  0
 22 21  1  0  0  0  0
 23  1  1  0  0  0  0
 23 28  1  0  0  0  0
 24 32  1  0  0  0  0
 25 30  1  0  0  0  0
 25 24  1  0  0  0  0
 26 25  2  0  0  0  0
 27 28  2  0  0  0  0
 27 26  1  0  0  0  0
 28 29  1  0  0  0  0
 29 24  2  0  0  0  0
 31 26  1  0  0  0  0
 32 35  1  1  0  0  0
 32 33  1  0  0  0  0
 32 34  1  0  0  0  0
 33 36  1  6  0  0  0
 33 34  1  0  0  0  0
 33 39  1  0  0  0  0
 34 37  1  0  0  0  0
 38 34  1  0  0  0  0
 39 40  1  0  0  0  0
 39 42  1  0  0  0  0
 41 39  1  0  0  0  0
M  END
>  <minimizedAffinity>
-6.96805239

$$$$

 OpenBabel03252505483D

 42 46  0  0  1  0  0  0  0  0999 V2000
   38.6680   33.9570   39.9570 C   0  0  0  0  0  0  0  0  0  0  0  0
   38.8590   35.3010   40.1580 C   0  0  0  0  0  0  0  0  0  0  0  0
   38.0220   35.9110   39.8770 H   0  0  0  0  0  0  0  0  0  0  0  0
   40.0110   35.8450   40.6720 C   0  0  0  0  0  0  0  0  0  0  0  0
   39.9930   36.9380   40.7650 H   0  0  0  0  0  0  0  0  0  0  0  0
   41.0790   35.0500   41.0290 C   0  0  0  0  0  0  0  0  0  0  0  0
   40.9720   33.6990   40.8620 C   0  0  0  0  0  0  0  0  0  0  0  0
   39.8050   33.2120   40.3480 C   0  0  0  0  0  0  0  0  0  0  0  0
   39.8590   32.1170   40.2680 H   0  0  0  0  0  0  0  0  0  0  0  0
   42.3580   32.6790   41.3270 S   0  0  0  0  0  0  0  0  0  0  0  0
   43.6150   33.7860   41.9350 C   0  0  0  0  0  0  0  0  0  0  0  0
   44.7600   33.1860   42.3410 C   0  0  0  0  0  0  0  0  0  0  0  0
   44.9390   32.1260   42.3150 H   0  0  0  0  0  0  0  0  0  0  0  0
   45.7970   33.9650   42.8290 C   0  0  0  0  0  0  0  0  0  0  0  0
   46.7190   33.5250   43.1600 H   0  0  0  0  0  0  0  0  0  0  0  0
   45.6150   35.3180   42.8810 C   0  0  0  0  0  0  0  0  0  0  0  0
   46.4160   35.9360   43.2590 H   0  0  0  0  0  0  0  0  0  0  0  0
   44.4300   35.8480   42.4520 C   0  0  0  0  0  0  0  0  0  0  0  0
   44.3670   36.9460   42.5270 H   0  0  0  0  0  0  0  0  0  0  0  0
   43.3590   35.1350   41.9550 C   0  0  0  0  0  0  0  0  0  0  0  0
   42.1680   35.7660   41.5330 N   0  0  0  0  0  0  0  0  0  0  0  0
   42.1890   36.8030   41.6360 H   0  0  0  0  0  0  0  0  0  0  0  0
   37.7110   33.1250   39.4960 O   0  0  0  0  0  0  0  0  0  0  0  0
   37.7750   29.6720   40.4660 C   0  0  0  0  0  0  0  0  0  0  0  0
   37.9760   29.0780   39.1930 C   0  0  0  0  0  0  0  0  0  0  0  0
   38.0850   29.8580   38.0450 C   0  0  0  0  0  0  0  0  0  0  0  0
   37.9880   31.1990   38.2220 N   0  0  0  0  0  0  0  0  0  0  0  0
   37.7930   31.7570   39.4620 C   0  0  0  0  0  0  0  0  0  0  0  0
   37.6910   31.0030   40.5560 N   0  0  0  0  0  0  0  0  0  0  0  0
   38.0400   27.9950   39.1510 H   0  0  0  0  0  0  0  0  0  0  0  0
   38.2350   29.4160   37.0920 H   0  0  0  0  0  0  0  0  0  0  0  0
   37.6550   28.7920   41.6420 C   0  0  1  0  0  0  0  0  0  0  0  0
   38.9350   28.8880   42.5510 C   0  0  1  0  0  0  0  0  0  0  0  0
   37.5240   29.2260   42.9790 C   0  0  0  0  0  0  0  0  0  0  0  0
   37.4180   27.7370   41.3440 H   0  0  0  0  0  0  0  0  0  0  0  0
   39.6330   29.6980   42.3620 H   0  0  0  0  0  0  0  0  0  0  0  0
   37.0240   28.5450   43.7190 H   0  0  0  0  0  0  0  0  0  0  0  0
   37.4010   30.2870   43.3010 H   0  0  0  0  0  0  0  0  0  0  0  0
   39.4200   27.5500   43.0570 C   0  0  0  0  0  0  0  0  0  0  0  0
   40.6500   27.6040   43.6450 F   0  0  0  0  0  0  0  0  0  0  0  0
   38.5030   27.0800   44.0200 F   0  0  0  0  0  0  0  0  0  0  0  0
   39.3870   26.5970   42.0510 F   0  0  0  0  0  0  0  0  0  0  0  0
  1  2  2  0  0  0  0
  1  8  1  0  0  0  0
  2  4  1  0  0  0  0
  3  2  1  0  0  0  0
  4  5  1  0  0  0  0
  4  6  2  0  0  0  0
  6 21  1  0  0  0  0
  7  6  1  0  0  0  0
  7 10  1  0  0  0  0
  8  7  2  0  0  0  0
  9  8  1  0  0  0  0
 10 11  1  0  0  0  0
 11 20  2  0  0  0  0
 11 12  1  0  0  0  0
 12 14  2  0  0  0  0
 13 12  1  0  0  0  0
 14 16  1  0  0  0  0
 14 15  1  0  0  0  0
 16 17  1  0  0  0  0
 18 19  1  0  0  0  0
 18 16  2  0  0  0  0
 20 18  1  0  0  0  0
 21 22  1  0  0  0  0
 21 20  1  0  0  0  0
 23  1  1  0  0  0  0
 24 29  1  0  0  0  0
 24 32  1  0  0  0  0
 25 24  2  0  0  0  0
 26 27  2  0  0  0  0
 26 25  1  0  0  0  0
 27 28  1  0  0  0  0
 28 23  1  0  0  0  0
 28 29  2  0  0  0  0
 30 25  1  0  0  0  0
 31 26  1  0  0  0  0
 32 35  1  6  0  0  0
 32 33  1  0  0  0  0
 32 34  1  0  0  0  0
 33 36  1  6  0  0  0
 33 34  1  0  0  0  0
 33 39  1  0  0  0  0
 34 38  1  0  0  0  0
 34 37  1  0  0  0  0
 39 40  1  0  0  0  0
 39 41  1  0  0  0  0
 42 39  1  0  0  0  0
M  END
>  <minimizedAffinity>
-6.81137276

$$$$

 OpenBabel03252505483D

 42 46  0  0  1  0  0  0  0  0999 V2000
   39.5790   32.0620   39.4910 C   0  0  0  0  0  0  0  0  0  0  0  0
   39.4370   33.4210   39.3690 C   0  0  0  0  0  0  0  0  0  0  0  0
   38.6030   33.7240   38.7640 H   0  0  0  0  0  0  0  0  0  0  0  0
   40.2740   34.3370   39.9570 C   0  0  0  0  0  0  0  0  0  0  0  0
   40.0140   35.3840   39.7550 H   0  0  0  0  0  0  0  0  0  0  0  0
   41.3410   33.9350   40.7320 C   0  0  0  0  0  0  0  0  0  0  0  0
   41.5550   32.5980   40.9050 C   0  0  0  0  0  0  0  0  0  0  0  0
   40.6920   31.7320   40.2980 C   0  0  0  0  0  0  0  0  0  0  0  0
   40.9820   30.6960   40.5220 H   0  0  0  0  0  0  0  0  0  0  0  0
   42.9380   32.0870   41.9080 S   0  0  0  0  0  0  0  0  0  0  0  0
   43.7370   33.5810   42.4610 C   0  0  0  0  0  0  0  0  0  0  0  0
   44.8240   33.3930   43.2460 C   0  0  0  0  0  0  0  0  0  0  0  0
   45.2110   32.4330   43.5380 H   0  0  0  0  0  0  0  0  0  0  0  0
   45.5130   34.4960   43.7240 C   0  0  0  0  0  0  0  0  0  0  0  0
   46.3790   34.3860   44.3490 H   0  0  0  0  0  0  0  0  0  0  0  0
   45.0580   35.7370   43.3790 C   0  0  0  0  0  0  0  0  0  0  0  0
   45.5880   36.6050   43.7460 H   0  0  0  0  0  0  0  0  0  0  0  0
   43.9530   35.8450   42.5820 C   0  0  0  0  0  0  0  0  0  0  0  0
   43.6550   36.8800   42.3510 H   0  0  0  0  0  0  0  0  0  0  0  0
   43.2210   34.7930   42.0710 C   0  0  0  0  0  0  0  0  0  0  0  0
   42.0880   34.9950   41.2530 N   0  0  0  0  0  0  0  0  0  0  0  0
   41.8730   36.0010   41.0820 H   0  0  0  0  0  0  0  0  0  0  0  0
   38.9680   30.9350   39.0680 O   0  0  0  0  0  0  0  0  0  0  0  0
   37.3890   28.3440   40.9830 C   0  0  0  0  0  0  0  0  0  0  0  0
   36.1140   28.9390   41.1700 C   0  0  0  0  0  0  0  0  0  0  0  0
   35.8230   30.1950   40.6440 C   0  0  0  0  0  0  0  0  0  0  0  0
   36.8220   30.8010   39.9540 N   0  0  0  0  0  0  0  0  0  0  0  0
   38.0500   30.2100   39.7840 C   0  0  0  0  0  0  0  0  0  0  0  0
   38.3200   29.0070   40.2900 N   0  0  0  0  0  0  0  0  0  0  0  0
   35.3790   28.3770   41.7360 H   0  0  0  0  0  0  0  0  0  0  0  0
   34.8700   30.6420   40.7820 H   0  0  0  0  0  0  0  0  0  0  0  0
   37.6400   27.0180   41.5740 C   0  0  1  0  0  0  0  0  0  0  0  0
   38.2980   27.1500   42.9960 C   0  0  1  0  0  0  0  0  0  0  0  0
   36.9730   26.4840   42.6990 C   0  0  0  0  0  0  0  0  0  0  0  0
   38.2360   26.3650   40.8840 H   0  0  0  0  0  0  0  0  0  0  0  0
   38.2990   28.1290   43.4670 H   0  0  0  0  0  0  0  0  0  0  0  0
   36.9120   25.3680   42.8080 H   0  0  0  0  0  0  0  0  0  0  0  0
   36.1110   26.9610   43.2210 H   0  0  0  0  0  0  0  0  0  0  0  0
   39.4290   26.1770   43.2320 C   0  0  0  0  0  0  0  0  0  0  0  0
   39.0470   24.8700   43.1590 F   0  0  0  0  0  0  0  0  0  0  0  0
   40.4150   26.3930   42.2450 F   0  0  0  0  0  0  0  0  0  0  0  0
   40.0740   26.4460   44.4300 F   0  0  0  0  0  0  0  0  0  0  0  0
  1  8  1  0  0  0  0
  2  1  2  0  0  0  0
  2  4  1  0  0  0  0
  3  2  1  0  0  0  0
  4  6  2  0  0  0  0
  5  4  1  0  0  0  0
  6  7  1  0  0  0  0
  6 21  1  0  0  0  0
  7 10  1  0  0  0  0
  8  9  1  0  0  0  0
  8  7  2  0  0  0  0
 10 11  1  0  0  0  0
 11 12  1  0  0  0  0
 12 13  1  0  0  0  0
 12 14  2  0  0  0  0
 14 15  1  0  0  0  0
 16 14  1  0  0  0  0
 16 17  1  0  0  0  0
 18 16  2  0  0  0  0
 19 18  1  0  0  0  0
 20 11  2  0  0  0  0
 20 18  1  0  0  0  0
 21 20  1  0  0  0  0
 22 21  1  0  0  0  0
 23  1  1  0  0  0  0
 23 28  1  0  0  0  0
 24 25  1  0  0  0  0
 24 32  1  0  0  0  0
 25 30  1  0  0  0  0
 26 31  1  0  0  0  0
 26 25  2  0  0  0  0
 27 26  1  0  0  0  0
 28 27  2  0  0  0  0
 28 29  1  0  0  0  0
 29 24  2  0  0  0  0
 32 35  1  6  0  0  0
 32 34  1  0  0  0  0
 32 33  1  0  0  0  0
 33 39  1  0  0  0  0
 33 36  1  1  0  0  0
 34 37  1  0  0  0  0
 34 33  1  0  0  0  0
 34 38  1  0  0  0  0
 39 42  1  0  0  0  0
 40 39  1  0  0  0  0
 41 39  1  0  0  0  0
M  END
>  <minimizedAffinity>
-6.70981598

$$$$

 OpenBabel03252505483D

 42 46  0  0  1  0  0  0  0  0999 V2000
   37.1440   30.7290   40.0880 C   0  0  0  0  0  0  0  0  0  0  0  0
   36.9590   32.0860   40.0080 C   0  0  0  0  0  0  0  0  0  0  0  0
   35.9790   32.4150   40.2980 H   0  0  0  0  0  0  0  0  0  0  0  0
   37.9260   32.9700   39.5950 C   0  0  0  0  0  0  0  0  0  0  0  0
   37.6080   34.0210   39.5910 H   0  0  0  0  0  0  0  0  0  0  0  0
   39.1810   32.5350   39.2250 C   0  0  0  0  0  0  0  0  0  0  0  0
   39.4490   31.1970   39.2750 C   0  0  0  0  0  0  0  0  0  0  0  0
   38.4520   30.3640   39.6930 C   0  0  0  0  0  0  0  0  0  0  0  0
   38.8050   29.3230   39.6840 H   0  0  0  0  0  0  0  0  0  0  0  0
   41.0740   30.6430   38.7950 S   0  0  0  0  0  0  0  0  0  0  0  0
   41.9880   32.1030   38.3400 C   0  0  0  0  0  0  0  0  0  0  0  0
   43.2630   31.8810   37.9410 C   0  0  0  0  0  0  0  0  0  0  0  0
   43.7290   30.9120   37.8870 H   0  0  0  0  0  0  0  0  0  0  0  0
   44.0540   32.9550   37.5660 C   0  0  0  0  0  0  0  0  0  0  0  0
   45.0690   32.8170   37.2440 H   0  0  0  0  0  0  0  0  0  0  0  0
   43.5050   34.2050   37.6180 C   0  0  0  0  0  0  0  0  0  0  0  0
   44.1120   35.0510   37.3280 H   0  0  0  0  0  0  0  0  0  0  0  0
   42.2100   34.3490   38.0320 C   0  0  0  0  0  0  0  0  0  0  0  0
   41.8470   35.3890   38.0440 H   0  0  0  0  0  0  0  0  0  0  0  0
   41.3680   33.3260   38.4180 C   0  0  0  0  0  0  0  0  0  0  0  0
   40.0400   33.5650   38.8330 N   0  0  0  0  0  0  0  0  0  0  0  0
   39.7740   34.5730   38.8150 H   0  0  0  0  0  0  0  0  0  0  0  0
   36.4450   29.6280   40.4340 O   0  0  0  0  0  0  0  0  0  0  0  0
   37.0510   26.6120   42.2800 C   0  0  0  0  0  0  0  0  0  0  0  0
   37.5080   27.1760   43.5000 C   0  0  0  0  0  0  0  0  0  0  0  0
   37.5960   28.5550   43.6660 C   0  0  0  0  0  0  0  0  0  0  0  0
   37.2240   29.3100   42.6020 N   0  0  0  0  0  0  0  0  0  0  0  0
   36.7860   28.7480   41.4280 C   0  0  0  0  0  0  0  0  0  0  0  0
   36.7030   27.4260   41.2780 N   0  0  0  0  0  0  0  0  0  0  0  0
   37.7840   26.4900   44.2950 H   0  0  0  0  0  0  0  0  0  0  0  0
   37.9370   28.9790   44.5770 H   0  0  0  0  0  0  0  0  0  0  0  0
   36.9920   25.1450   42.1620 C   0  0  1  0  0  0  0  0  0  0  0  0
   37.7220   24.6540   40.8590 C   0  0  1  0  0  0  0  0  0  0  0  0
   38.0940   24.2690   42.2740 C   0  0  0  0  0  0  0  0  0  0  0  0
   35.9370   24.7680   42.2300 H   0  0  0  0  0  0  0  0  0  0  0  0
   38.3480   25.3650   40.3280 H   0  0  0  0  0  0  0  0  0  0  0  0
   37.9080   23.2090   42.5940 H   0  0  0  0  0  0  0  0  0  0  0  0
   39.1290   24.5720   42.5580 H   0  0  0  0  0  0  0  0  0  0  0  0
   36.9710   23.5770   40.1120 C   0  0  0  0  0  0  0  0  0  0  0  0
   35.6150   23.6900   40.2110 F   0  0  0  0  0  0  0  0  0  0  0  0
   37.3110   23.6640   38.7450 F   0  0  0  0  0  0  0  0  0  0  0  0
   37.3990   22.3160   40.4960 F   0  0  0  0  0  0  0  0  0  0  0  0
  1 23  1  0  0  0  0
  2  1  1  0  0  0  0
  2  3  1  0  0  0  0
  4  2  2  0  0  0  0
  5  4  1  0  0  0  0
  6  7  2  0  0  0  0
  6  4  1  0  0  0  0
  7  8  1  0  0  0  0
  8  1  2  0  0  0  0
  9  8  1  0  0  0  0
 10  7  1  0  0  0  0
 11 20  1  0  0  0  0
 11 10  1  0  0  0  0
 12 11  2  0  0  0  0
 13 12  1  0  0  0  0
 14 16  2  0  0  0  0
 14 12  1  0  0  0  0
 15 14  1  0  0  0  0
 16 18  1  0  0  0  0
 17 16  1  0  0  0  0
 18 19  1  0  0  0  0
 18 20  2  0  0  0  0
 20 21  1  0  0  0  0
 21  6  1  0  0  0  0
 22 21  1  0  0  0  0
 23 28  1  0  0  0  0
 24 25  1  0  0  0  0
 25 26  2  0  0  0  0
 25 30  1  0  0  0  0
 26 31  1  0  0  0  0
 27 26  1  0  0  0  0
 28 27  2  0  0  0  0
 29 28  1  0  0  0  0
 29 24  2  0  0  0  0
 32 35  1  1  0  0  0
 32 34  1  0  0  0  0
 32 24  1  0  0  0  0
 33 36  1  6  0  0  0
 33 32  1  0  0  0  0
 33 34  1  0  0  0  0
 34 38  1  0  0  0  0
 34 37  1  0  0  0  0
 39 40  1  0  0  0  0
 39 42  1  0  0  0  0
 39 33  1  0  0  0  0
 41 39  1  0  0  0  0
M  END
>  <minimizedAffinity>
-6.61692238

$$$$

 OpenBabel03252505483D

 42 46  0  0  1  0  0  0  0  0999 V2000
   37.5900   32.2040   40.4800 C   0  0  0  0  0  0  0  0  0  0  0  0
   36.6030   31.2510   40.4450 C   0  0  0  0  0  0  0  0  0  0  0  0
   35.6940   31.5760   39.9750 H   0  0  0  0  0  0  0  0  0  0  0  0
   36.7400   29.9850   40.9590 C   0  0  0  0  0  0  0  0  0  0  0  0
   35.8500   29.3520   40.8460 H   0  0  0  0  0  0  0  0  0  0  0  0
   37.9120   29.5800   41.5610 C   0  0  0  0  0  0  0  0  0  0  0  0
   38.9460   30.4690   41.6380 C   0  0  0  0  0  0  0  0  0  0  0  0
   38.7570   31.7130   41.1110 C   0  0  0  0  0  0  0  0  0  0  0  0
   39.6650   32.3180   41.2420 H   0  0  0  0  0  0  0  0  0  0  0  0
   40.4590   29.9370   42.4170 S   0  0  0  0  0  0  0  0  0  0  0  0
   40.1950   28.2500   42.9290 C   0  0  0  0  0  0  0  0  0  0  0  0
   41.2480   27.6670   43.5490 C   0  0  0  0  0  0  0  0  0  0  0  0
   42.1910   28.1490   43.7390 H   0  0  0  0  0  0  0  0  0  0  0  0
   41.1380   26.3560   43.9850 C   0  0  0  0  0  0  0  0  0  0  0  0
   41.9520   25.8620   44.4800 H   0  0  0  0  0  0  0  0  0  0  0  0
   39.9580   25.7040   43.7650 C   0  0  0  0  0  0  0  0  0  0  0  0
   39.8600   24.6810   44.1000 H   0  0  0  0  0  0  0  0  0  0  0  0
   38.9400   26.3610   43.1320 C   0  0  0  0  0  0  0  0  0  0  0  0
   38.0250   25.7630   42.9960 H   0  0  0  0  0  0  0  0  0  0  0  0
   38.9800   27.6610   42.6740 C   0  0  0  0  0  0  0  0  0  0  0  0
   37.8790   28.2640   42.0280 N   0  0  0  0  0  0  0  0  0  0  0  0
   37.0530   27.6330   41.9390 H   0  0  0  0  0  0  0  0  0  0  0  0
   37.7820   33.4810   40.0900 O   0  0  0  0  0  0  0  0  0  0  0  0
   41.0950   34.4420   39.1040 C   0  0  0  0  0  0  0  0  0  0  0  0
   41.3160   35.4940   40.0300 C   0  0  0  0  0  0  0  0  0  0  0  0
   40.3430   35.8480   40.9620 C   0  0  0  0  0  0  0  0  0  0  0  0
   39.1910   35.1330   40.9230 N   0  0  0  0  0  0  0  0  0  0  0  0
   38.9940   34.1190   40.0190 C   0  0  0  0  0  0  0  0  0  0  0  0
   39.9320   33.7860   39.1310 N   0  0  0  0  0  0  0  0  0  0  0  0
   42.2710   36.0090   39.9840 H   0  0  0  0  0  0  0  0  0  0  0  0
   40.5060   36.6340   41.6560 H   0  0  0  0  0  0  0  0  0  0  0  0
   42.1590   34.1230   38.1350 C   0  0  1  0  0  0  0  0  0  0  0  0
   42.9280   32.8170   38.5530 C   0  0  1  0  0  0  0  0  0  0  0  0
   42.1650   33.0140   37.2620 C   0  0  0  0  0  0  0  0  0  0  0  0
   42.8470   34.9950   37.9770 H   0  0  0  0  0  0  0  0  0  0  0  0
   42.4920   32.1960   39.3300 H   0  0  0  0  0  0  0  0  0  0  0  0
   42.7560   33.0820   36.3100 H   0  0  0  0  0  0  0  0  0  0  0  0
   41.3220   32.2950   37.1320 H   0  0  0  0  0  0  0  0  0  0  0  0
   44.4270   32.9210   38.3950 C   0  0  0  0  0  0  0  0  0  0  0  0
   44.8660   32.6020   37.1440 F   0  0  0  0  0  0  0  0  0  0  0  0
   44.8110   34.2530   38.6600 F   0  0  0  0  0  0  0  0  0  0  0  0
   45.0810   32.1730   39.3620 F   0  0  0  0  0  0  0  0  0  0  0  0
  1  8  1  0  0  0  0
  2  1  2  0  0  0  0
  2  4  1  0  0  0  0
  3  2  1  0  0  0  0
  4  6  2  0  0  0  0
  5  4  1  0  0  0  0
  6  7  1  0  0  0  0
  6 21  1  0  0  0  0
  7 10  1  0  0  0  0
  8  9  1  0  0  0  0
  8  7  2  0  0  0  0
 10 11  1  0  0  0  0
 11 12  1  0  0  0  0
 12 13  1  0  0  0  0
 12 14  2  0  0  0  0
 14 15  1  0  0  0  0
 16 14  1  0  0  0  0
 16 17  1  0  0  0  0
 18 16  2  0  0  0  0
 19 18  1  0  0  0  0
 20 11  2  0  0  0  0
 20 18  1  0  0  0  0
 21 20  1  0  0  0  0
 22 21  1  0  0  0  0
 23  1  1  0  0  0  0
 24 29  2  0  0  0  0
 24 25  1  0  0  0  0
 25 26  2  0  0  0  0
 26 31  1  0  0  0  0
 27 26  1  0  0  0  0
 28 23  1  0  0  0  0
 28 27  2  0  0  0  0
 29 28  1  0  0  0  0
 30 25  1  0  0  0  0
 32 35  1  6  0  0  0
 32 33  1  0  0  0  0
 32 24  1  0  0  0  0
 33 36  1  1  0  0  0
 34 32  1  0  0  0  0
 34 33  1  0  0  0  0
 37 34  1  0  0  0  0
 38 34  1  0  0  0  0
 39 33  1  0  0  0  0
 39 41  1  0  0  0  0
 39 42  1  0  0  0  0
 40 39  1  0  0  0  0
M  END
>  <minimizedAffinity>
-6.54812145

$$$$

 OpenBabel03252505483D

 42 46  0  0  1  0  0  0  0  0999 V2000
   36.5750   29.0400   39.7670 C   0  0  0  0  0  0  0  0  0  0  0  0
   35.8140   29.9220   40.4930 C   0  0  0  0  0  0  0  0  0  0  0  0
   34.8880   29.5120   40.8520 H   0  0  0  0  0  0  0  0  0  0  0  0
   36.1810   31.2190   40.7530 C   0  0  0  0  0  0  0  0  0  0  0  0
   35.4530   31.7850   41.3490 H   0  0  0  0  0  0  0  0  0  0  0  0
   37.3710   31.7330   40.2870 C   0  0  0  0  0  0  0  0  0  0  0  0
   38.1900   30.9210   39.5540 C   0  0  0  0  0  0  0  0  0  0  0  0
   37.7770   29.6410   39.3260 C   0  0  0  0  0  0  0  0  0  0  0  0
   38.5280   29.1060   38.7280 H   0  0  0  0  0  0  0  0  0  0  0  0
   39.7280   31.5940   38.9550 S   0  0  0  0  0  0  0  0  0  0  0  0
   39.7920   33.2830   39.5180 C   0  0  0  0  0  0  0  0  0  0  0  0
   40.9030   33.9670   39.1560 C   0  0  0  0  0  0  0  0  0  0  0  0
   41.7110   33.5600   38.5720 H   0  0  0  0  0  0  0  0  0  0  0  0
   41.0430   35.2890   39.5460 C   0  0  0  0  0  0  0  0  0  0  0  0
   41.9100   35.8630   39.2770 H   0  0  0  0  0  0  0  0  0  0  0  0
   40.0420   35.8490   40.2890 C   0  0  0  0  0  0  0  0  0  0  0  0
   40.1400   36.8790   40.6000 H   0  0  0  0  0  0  0  0  0  0  0  0
   38.9510   35.0920   40.6150 C   0  0  0  0  0  0  0  0  0  0  0  0
   38.1920   35.6210   41.2150 H   0  0  0  0  0  0  0  0  0  0  0  0
   38.7470   33.7750   40.2610 C   0  0  0  0  0  0  0  0  0  0  0  0
   37.5860   33.0670   40.6420 N   0  0  0  0  0  0  0  0  0  0  0  0
   36.9190   33.6360   41.2060 H   0  0  0  0  0  0  0  0  0  0  0  0
   36.5190   27.7600   39.3450 O   0  0  0  0  0  0  0  0  0  0  0  0
   37.0750   24.3790   40.4100 C   0  0  0  0  0  0  0  0  0  0  0  0
   37.2760   24.6040   41.7970 C   0  0  0  0  0  0  0  0  0  0  0  0
   37.2160   25.8870   42.3330 C   0  0  0  0  0  0  0  0  0  0  0  0
   36.9580   26.8900   41.4570 N   0  0  0  0  0  0  0  0  0  0  0  0
   36.7680   26.6550   40.1170 C   0  0  0  0  0  0  0  0  0  0  0  0
   36.8260   25.4220   39.6120 N   0  0  0  0  0  0  0  0  0  0  0  0
   37.4760   23.7370   42.4190 H   0  0  0  0  0  0  0  0  0  0  0  0
   37.3650   26.0580   43.3700 H   0  0  0  0  0  0  0  0  0  0  0  0
   37.1630   22.9990   39.9010 C   0  0  1  0  0  0  0  0  0  0  0  0
   38.5510   22.7410   39.2080 C   0  0  1  0  0  0  0  0  0  0  0  0
   38.0130   21.9920   40.4080 C   0  0  0  0  0  0  0  0  0  0  0  0
   36.2970   22.7510   39.2320 H   0  0  0  0  0  0  0  0  0  0  0  0
   39.3380   23.4740   39.3580 H   0  0  0  0  0  0  0  0  0  0  0  0
   37.7190   20.9180   40.2650 H   0  0  0  0  0  0  0  0  0  0  0  0
   38.6550   22.0900   41.3150 H   0  0  0  0  0  0  0  0  0  0  0  0
   38.4480   21.9710   37.9130 C   0  0  0  0  0  0  0  0  0  0  0  0
   37.5220   22.4790   37.0490 F   0  0  0  0  0  0  0  0  0  0  0  0
   39.7040   22.0110   37.2710 F   0  0  0  0  0  0  0  0  0  0  0  0
   38.2240   20.6240   38.1530 F   0  0  0  0  0  0  0  0  0  0  0  0
  1  2  1  0  0  0  0
  2  4  2  0  0  0  0
  2  3  1  0  0  0  0
  4  5  1  0  0  0  0
  6 21  1  0  0  0  0
  6  4  1  0  0  0  0
  7  6  2  0  0  0  0
  8  7  1  0  0  0  0
  8  1  2  0  0  0  0
  9  8  1  0  0  0  0
 10 11  1  0  0  0  0
 10  7  1  0  0  0  0
 11 20  1  0  0  0  0
 12 11  2  0  0  0  0
 12 14  1  0  0  0  0
 13 12  1  0  0  0  0
 14 16  2  0  0  0  0
 15 14  1  0  0  0  0
 16 17  1  0  0  0  0
 16 18  1  0  0  0  0
 18 19  1  0  0  0  0
 20 18  2  0  0  0  0
 20 21  1  0  0  0  0
 21 22  1  0  0  0  0
 23  1  1  0  0  0  0
 23 28  1  0  0  0  0
 24 25  1  0  0  0  0
 25 26  2  0  0  0  0
 25 30  1  0  0  0  0
 26 31  1  0  0  0  0
 27 26  1  0  0  0  0
 28 27  2  0  0  0  0
 29 28  1  0  0  0  0
 29 24  2  0  0  0  0
 32 35  1  6  0  0  0
 32 34  1  0  0  0  0
 32 24  1  0  0  0  0
 33 36  1  1  0  0  0
 33 32  1  0  0  0  0
 33 34  1  0  0  0  0
 34 38  1  0  0  0  0
 37 34  1  0  0  0  0
 39 42  1  0  0  0  0
 39 33  1  0  0  0  0
 40 39  1  0  0  0  0
 41 39  1  0  0  0  0
M  END
>  <minimizedAffinity>
-6.39744949

$$$$
