
 OpenBabel03252502243D

 47 51  0  0  1  0  0  0  0  0999 V2000
   46.9810   34.6400   42.3300 N   0  0  0  0  0  0  0  0  0  0  0  0
   48.4170   34.8450   42.3940 C   0  0  0  0  0  0  0  0  0  0  0  0
   48.7150   35.6560   41.1140 C   0  0  0  0  0  0  0  0  0  0  0  0
   48.4760   34.7660   39.9210 C   0  0  0  0  0  0  0  0  0  0  0  0
   47.2180   33.9860   39.9850 C   0  0  0  0  0  0  0  0  0  0  0  0
   46.2900   34.3150   41.1080 C   0  0  1  0  0  0  0  0  0  0  0  0
   48.9480   33.8740   42.3370 H   0  0  0  0  0  0  0  0  0  0  0  0
   48.6650   35.4380   43.2860 H   0  0  0  0  0  0  0  0  0  0  0  0
   49.7620   35.9740   41.1410 H   0  0  0  0  0  0  0  0  0  0  0  0
   47.9810   36.4920   41.1070 H   0  0  0  0  0  0  0  0  0  0  0  0
   49.3420   34.0580   39.8800 H   0  0  0  0  0  0  0  0  0  0  0  0
   48.5750   35.3830   39.0010 H   0  0  0  0  0  0  0  0  0  0  0  0
   47.4050   32.8820   39.9710 H   0  0  0  0  0  0  0  0  0  0  0  0
   46.6520   34.1760   39.0430 H   0  0  0  0  0  0  0  0  0  0  0  0
   45.6580   35.1910   40.8670 H   0  0  0  0  0  0  0  0  0  0  0  0
   44.4860   35.8320   44.8590 C   0  0  0  0  0  0  0  0  0  0  0  0
   45.2220   35.7940   43.6680 C   0  0  0  0  0  0  0  0  0  0  0  0
   46.1800   34.7590   43.5170 C   0  0  0  0  0  0  0  0  0  0  0  0
   46.3210   33.8720   44.5330 N   0  0  0  0  0  0  0  0  0  0  0  0
   45.5890   33.9440   45.6710 C   0  0  0  0  0  0  0  0  0  0  0  0
   44.6710   34.9300   45.8230 N   0  0  0  0  0  0  0  0  0  0  0  0
   43.7940   36.6680   44.8410 H   0  0  0  0  0  0  0  0  0  0  0  0
   45.1350   36.4800   42.8430 H   0  0  0  0  0  0  0  0  0  0  0  0
   45.7080   33.2370   46.4680 H   0  0  0  0  0  0  0  0  0  0  0  0
   45.4650   33.2130   41.3270 O   0  0  0  0  0  0  0  0  0  0  0  0
   44.1020   33.1380   41.1160 C   0  0  0  0  0  0  0  0  0  0  0  0
   43.2640   34.0110   40.4560 C   0  0  0  0  0  0  0  0  0  0  0  0
   43.7430   34.8690   40.0510 H   0  0  0  0  0  0  0  0  0  0  0  0
   41.9190   33.7180   40.3750 C   0  0  0  0  0  0  0  0  0  0  0  0
   41.3430   34.4810   39.8290 H   0  0  0  0  0  0  0  0  0  0  0  0
   41.3230   32.5970   40.9110 C   0  0  0  0  0  0  0  0  0  0  0  0
   42.1590   31.7300   41.5670 C   0  0  0  0  0  0  0  0  0  0  0  0
   43.4950   32.0000   41.6590 C   0  0  0  0  0  0  0  0  0  0  0  0
   44.0830   31.2490   42.2030 H   0  0  0  0  0  0  0  0  0  0  0  0
   41.4560   30.2580   42.2850 S   0  0  0  0  0  0  0  0  0  0  0  0
   39.7210   30.3150   41.9290 C   0  0  0  0  0  0  0  0  0  0  0  0
   38.9800   29.2690   42.3940 C   0  0  0  0  0  0  0  0  0  0  0  0
   39.3940   28.4510   42.9420 H   0  0  0  0  0  0  0  0  0  0  0  0
   37.6190   29.2380   42.1590 C   0  0  0  0  0  0  0  0  0  0  0  0
   36.9420   28.4590   42.4820 H   0  0  0  0  0  0  0  0  0  0  0  0
   37.0490   30.2780   41.4530 C   0  0  0  0  0  0  0  0  0  0  0  0
   35.9870   30.2850   41.2510 H   0  0  0  0  0  0  0  0  0  0  0  0
   37.8590   31.3050   41.0120 C   0  0  0  0  0  0  0  0  0  0  0  0
   37.3430   32.1000   40.4580 H   0  0  0  0  0  0  0  0  0  0  0  0
   39.2210   31.3790   41.2220 C   0  0  0  0  0  0  0  0  0  0  0  0
   39.9300   32.4770   40.7210 N   0  0  0  0  0  0  0  0  0  0  0  0
   39.3990   33.2060   40.2020 H   0  0  0  0  0  0  0  0  0  0  0  0
  1  2  1  0  0  0  0
  1 18  1  0  0  0  0
  2  8  1  0  0  0  0
  3  9  1  0  0  0  0
  3  2  1  0  0  0  0
  4  5  1  0  0  0  0
  4  3  1  0  0  0  0
  5  6  1  0  0  0  0
  6 15  1  6  0  0  0
  6 25  1  0  0  0  0
  6  1  1  0  0  0  0
  7  2  1  0  0  0  0
 10  3  1  0  0  0  0
 11  4  1  0  0  0  0
 12  4  1  0  0  0  0
 13  5  1  0  0  0  0
 14  5  1  0  0  0  0
 16 21  1  0  0  0  0
 17 16  2  0  0  0  0
 18 17  1  0  0  0  0
 18 19  2  0  0  0  0
 19 20  1  0  0  0  0
 20 21  2  0  0  0  0
 20 24  1  0  0  0  0
 22 16  1  0  0  0  0
 23 17  1  0  0  0  0
 26 25  1  0  0  0  0
 26 33  1  0  0  0  0
 27 26  2  0  0  0  0
 28 27  1  0  0  0  0
 29 27  1  0  0  0  0
 29 31  2  0  0  0  0
 30 29  1  0  0  0  0
 31 32  1  0  0  0  0
 32 33  2  0  0  0  0
 32 35  1  0  0  0  0
 33 34  1  0  0  0  0
 36 35  1  0  0  0  0
 36 37  1  0  0  0  0
 37 38  1  0  0  0  0
 39 37  2  0  0  0  0
 39 40  1  0  0  0  0
 41 39  1  0  0  0  0
 42 41  1  0  0  0  0
 43 45  1  0  0  0  0
 43 41  2  0  0  0  0
 44 43  1  0  0  0  0
 45 36  2  0  0  0  0
 46 31  1  0  0  0  0
 46 45  1  0  0  0  0
 47 46  1  0  0  0  0
M  END
>  <minimizedAffinity>
-7.38454819

>  <minimizedRMSD>
0.53219974

$$$$
