
 OpenBabel03242516423D

 45 48  0  0  0  0  0  0  0  0999 V2000
   49.6390   31.7840   40.1050 O   0  0  0  0  0  0  0  0  0  0  0  0
   49.2970   32.1650   38.8240 C   0  0  0  0  0  0  0  0  0  0  0  0
   48.4020   33.1660   38.5090 C   0  0  0  0  0  0  0  0  0  0  0  0
   47.9310   33.6940   39.3010 H   0  0  0  0  0  0  0  0  0  0  0  0
   48.1530   33.4420   37.1810 C   0  0  0  0  0  0  0  0  0  0  0  0
   47.4380   34.2410   37.0170 H   0  0  0  0  0  0  0  0  0  0  0  0
   48.7290   32.7940   36.1110 C   0  0  0  0  0  0  0  0  0  0  0  0
   49.6110   31.8080   36.4700 C   0  0  0  0  0  0  0  0  0  0  0  0
   49.8910   31.4980   37.7740 C   0  0  0  0  0  0  0  0  0  0  0  0
   50.6110   30.6930   37.9950 H   0  0  0  0  0  0  0  0  0  0  0  0
   50.4340   30.8840   35.1890 S   0  0  0  0  0  0  0  0  0  0  0  0
   49.8450   31.5410   33.6440 C   0  0  0  0  0  0  0  0  0  0  0  0
   50.2890   31.0420   32.4520 C   0  0  0  0  0  0  0  0  0  0  0  0
   51.0180   30.2250   32.4760 H   0  0  0  0  0  0  0  0  0  0  0  0
   49.8760   31.5010   31.2190 C   0  0  0  0  0  0  0  0  0  0  0  0
   50.2820   31.0450   30.3260 H   0  0  0  0  0  0  0  0  0  0  0  0
   48.9570   32.5290   31.2420 C   0  0  0  0  0  0  0  0  0  0  0  0
   48.6020   32.9240   30.3000 H   0  0  0  0  0  0  0  0  0  0  0  0
   48.5130   33.0290   32.4470 C   0  0  0  0  0  0  0  0  0  0  0  0
   47.7870   33.8410   32.3630 H   0  0  0  0  0  0  0  0  0  0  0  0
   48.9320   32.5620   33.6730 C   0  0  0  0  0  0  0  0  0  0  0  0
   48.3700   33.1940   34.8050 N   0  0  0  0  0  0  0  0  0  0  0  0
   47.6810   33.9640   34.7010 H   0  0  0  0  0  0  0  0  0  0  0  0
   47.8570   29.8140   40.2880 O   0  0  0  0  0  0  0  0  0  0  0  0
   48.7930   30.6740   41.0690 P   0  0  1  0  0  0  0  0  0  0  0  0
   49.9950   29.7660   41.8570 O   0  0  0  0  0  0  0  0  0  0  0  0
   50.8450   30.2350   41.9380 H   0  0  0  0  0  0  0  0  0  0  0  0
   47.9470   31.5110   42.2780 O   0  0  0  0  0  0  0  0  0  0  0  0
   48.6630   32.5730   42.7770 C   0  0  0  0  0  0  0  0  0  0  0  0
   48.9720   32.4690   43.8330 H   0  0  0  0  0  0  0  0  0  0  0  0
   49.6220   32.6500   42.1960 H   0  0  0  0  0  0  0  0  0  0  0  0
   47.9160   33.8470   42.5770 C   0  0  0  0  0  0  0  0  0  0  0  0
   47.3080   33.7990   41.6420 H   0  0  0  0  0  0  0  0  0  0  0  0
   48.5420   34.7570   42.5610 H   0  0  0  0  0  0  0  0  0  0  0  0
   44.8940   35.0470   44.4720 C   0  0  0  0  0  0  0  0  0  0  0  0
   45.8580   34.8770   43.4380 C   0  0  0  0  0  0  0  0  0  0  0  0
   46.9190   34.0120   43.6690 C   0  0  0  0  0  0  0  0  0  0  0  0
   47.0070   33.3690   44.8460 N   0  0  0  0  0  0  0  0  0  0  0  0
   46.0710   33.5550   45.8120 C   0  0  0  0  0  0  0  0  0  0  0  0
   45.0310   34.3800   45.6300 N   0  0  0  0  0  0  0  0  0  0  0  0
   43.8030   35.9090   44.2900 N   0  0  0  0  0  0  0  0  0  0  0  0
   45.6870   35.4440   42.5320 H   0  0  0  0  0  0  0  0  0  0  0  0
   46.1500   33.0320   46.7580 H   0  0  0  0  0  0  0  0  0  0  0  0
   43.2860   35.7710   43.3920 H   0  0  0  0  0  0  0  0  0  0  0  0
   43.5660   36.6220   45.0300 H   0  0  0  0  0  0  0  0  0  0  0  0
  1 25  1  0  0  0  0
  2  1  1  0  0  0  0
  3  2  1  0  0  0  0
  3  4  1  0  0  0  0
  5  3  2  0  0  0  0
  6  5  1  0  0  0  0
  7  8  2  0  0  0  0
  7  5  1  0  0  0  0
  8  9  1  0  0  0  0
  9 10  1  0  0  0  0
  9  2  2  0  0  0  0
 11  8  1  0  0  0  0
 12 21  1  0  0  0  0
 12 11  1  0  0  0  0
 13 14  1  0  0  0  0
 13 12  2  0  0  0  0
 15 17  2  0  0  0  0
 15 13  1  0  0  0  0
 16 15  1  0  0  0  0
 17 19  1  0  0  0  0
 18 17  1  0  0  0  0
 19 21  2  0  0  0  0
 20 19  1  0  0  0  0
 21 22  1  0  0  0  0
 22  7  1  0  0  0  0
 23 22  1  0  0  0  0
 25 24  2  6  0  0  0
 25 26  1  0  0  0  0
 25 28  1  0  0  0  0
 26 27  1  0  0  0  0
 28 29  1  0  0  0  0
 29 30  1  0  0  0  0
 31 29  1  0  0  0  0
 32 29  1  0  0  0  0
 32 37  1  0  0  0  0
 33 32  1  0  0  0  0
 34 32  1  0  0  0  0
 35 40  1  0  0  0  0
 36 37  1  0  0  0  0
 36 35  2  0  0  0  0
 37 38  2  0  0  0  0
 38 39  1  0  0  0  0
 39 43  1  0  0  0  0
 40 39  2  0  0  0  0
 41 35  1  0  0  0  0
 41 45  1  0  0  0  0
 42 36  1  0  0  0  0
 44 41  1  0  0  0  0
M  END
>  <minimizedAffinity>
-6.07436037

>  <minimizedRMSD>
3.87797475

$$$$
