
 OpenBabel03242517433D

 32 35  0  0  0  0  0  0  0  0999 V2000
   42.1780   34.6700   41.4270 C   0  0  0  0  0  0  0  0  0  0  0  0
   40.9820   35.3370   41.2680 C   0  0  0  0  0  0  0  0  0  0  0  0
   40.9630   36.4160   41.2200 H   0  0  0  0  0  0  0  0  0  0  0  0
   39.8290   34.5850   41.1740 C   0  0  0  0  0  0  0  0  0  0  0  0
   38.9200   35.1690   41.0510 H   0  0  0  0  0  0  0  0  0  0  0  0
   39.7620   33.2080   41.2250 C   0  0  0  0  0  0  0  0  0  0  0  0
   40.9810   32.5950   41.3820 C   0  0  0  0  0  0  0  0  0  0  0  0
   42.1530   33.2950   41.4800 C   0  0  0  0  0  0  0  0  0  0  0  0
   43.1050   32.7920   41.6060 H   0  0  0  0  0  0  0  0  0  0  0  0
   41.0480   30.8220   41.4650 S   0  0  0  0  0  0  0  0  0  0  0  0
   39.3670   30.2540   41.3060 C   0  0  0  0  0  0  0  0  0  0  0  0
   39.1040   28.9300   41.3320 C   0  0  0  0  0  0  0  0  0  0  0  0
   39.9240   28.2080   41.4520 H   0  0  0  0  0  0  0  0  0  0  0  0
   37.8170   28.4140   41.2130 C   0  0  0  0  0  0  0  0  0  0  0  0
   37.6270   27.3600   41.2380 H   0  0  0  0  0  0  0  0  0  0  0  0
   36.8060   29.3380   41.0650 C   0  0  0  0  0  0  0  0  0  0  0  0
   35.7980   28.9570   40.9710 H   0  0  0  0  0  0  0  0  0  0  0  0
   37.1080   30.6690   41.0420 C   0  0  0  0  0  0  0  0  0  0  0  0
   36.2410   31.3260   40.9210 H   0  0  0  0  0  0  0  0  0  0  0  0
   38.3770   31.1960   41.1580 C   0  0  0  0  0  0  0  0  0  0  0  0
   38.5210   32.5930   41.1160 N   0  0  0  0  0  0  0  0  0  0  0  0
   37.6720   33.1840   40.9980 H   0  0  0  0  0  0  0  0  0  0  0  0
   43.7280   35.5490   41.5580 S   0  0  0  0  0  0  0  0  0  0  0  0
   44.2020   35.6430   44.2940 C   0  0  0  0  0  0  0  0  0  0  0  0
   44.5070   34.9940   43.0730 C   0  0  0  0  0  0  0  0  0  0  0  0
   45.4080   33.9380   43.0970 C   0  0  0  0  0  0  0  0  0  0  0  0
   45.9630   33.5680   44.2840 N   0  0  0  0  0  0  0  0  0  0  0  0
   45.6440   34.2150   45.4320 C   0  0  0  0  0  0  0  0  0  0  0  0
   44.7790   35.2370   45.4470 N   0  0  0  0  0  0  0  0  0  0  0  0
   43.5080   36.4540   44.2680 H   0  0  0  0  0  0  0  0  0  0  0  0
   45.6550   33.4310   42.1890 H   0  0  0  0  0  0  0  0  0  0  0  0
   46.1600   33.8130   46.2950 H   0  0  0  0  0  0  0  0  0  0  0  0
  1  8  1  0  0  0  0
  1 23  1  0  0  0  0
  2  1  2  0  0  0  0
  3  2  1  0  0  0  0
  4  6  2  0  0  0  0
  4  2  1  0  0  0  0
  5  4  1  0  0  0  0
  6  7  1  0  0  0  0
  7 10  1  0  0  0  0
  7  8  2  0  0  0  0
  8  9  1  0  0  0  0
 11 12  1  0  0  0  0
 11 10  1  0  0  0  0
 12 13  1  0  0  0  0
 14 15  1  0  0  0  0
 14 12  2  0  0  0  0
 16 14  1  0  0  0  0
 17 16  1  0  0  0  0
 18 16  2  0  0  0  0
 18 20  1  0  0  0  0
 19 18  1  0  0  0  0
 20 11  2  0  0  0  0
 21 20  1  0  0  0  0
 21  6  1  0  0  0  0
 22 21  1  0  0  0  0
 23 25  1  0  0  0  0
 24 29  1  0  0  0  0
 25 26  1  0  0  0  0
 25 24  2  0  0  0  0
 26 27  2  0  0  0  0
 27 28  1  0  0  0  0
 28 29  2  0  0  0  0
 28 32  1  0  0  0  0
 30 24  1  0  0  0  0
 31 26  1  0  0  0  0
M  END
>  <minimizedAffinity>
-5.65124083

>  <minimizedRMSD>
0.996659577

$$$$
