
 OpenBabel03252509013D

 58 62  0  0  1  0  0  0  0  0999 V2000
   47.1940   34.1140   42.9380 N   0  0  0  0  0  0  0  0  0  0  0  0
   46.7650   35.3650   42.4320 C   0  0  0  0  0  0  0  0  0  0  0  0
   45.2950   35.6690   42.6340 C   0  0  0  0  0  0  0  0  0  0  0  0
   44.7160   35.1130   43.8980 C   0  0  0  0  0  0  0  0  0  0  0  0
   45.7600   34.4250   44.7440 C   0  0  0  0  0  0  0  0  0  0  0  0
   46.3740   33.3630   43.7640 C   0  0  2  0  0  0  0  0  0  0  0  0
   46.9960   35.5620   41.3850 H   0  0  0  0  0  0  0  0  0  0  0  0
   47.3150   36.1530   43.0180 H   0  0  0  0  0  0  0  0  0  0  0  0
   44.7330   35.3130   41.7360 H   0  0  0  0  0  0  0  0  0  0  0  0
   45.1690   36.7740   42.6590 H   0  0  0  0  0  0  0  0  0  0  0  0
   44.1370   35.8750   44.4680 H   0  0  0  0  0  0  0  0  0  0  0  0
   43.9660   34.3190   43.6190 H   0  0  0  0  0  0  0  0  0  0  0  0
   46.5470   35.1000   45.0940 H   0  0  0  0  0  0  0  0  0  0  0  0
   45.2460   33.8850   45.5630 H   0  0  0  0  0  0  0  0  0  0  0  0
   45.4950   32.8540   43.3300 H   0  0  0  0  0  0  0  0  0  0  0  0
   48.1440   33.4440   42.1050 C   0  0  0  0  0  0  0  0  0  0  0  0
   48.7120   32.7080   42.7290 H   0  0  0  0  0  0  0  0  0  0  0  0
   48.8660   34.1620   41.7140 H   0  0  0  0  0  0  0  0  0  0  0  0
   47.4150   32.6670   41.0550 C   0  0  0  0  0  0  0  0  0  0  0  0
   46.3430   32.9730   41.0080 H   0  0  0  0  0  0  0  0  0  0  0  0
   47.4130   31.5830   41.2210 H   0  0  0  0  0  0  0  0  0  0  0  0
   49.3450   32.3430   37.8460 C   0  0  0  0  0  0  0  0  0  0  0  0
   48.7920   32.0500   39.1070 C   0  0  0  0  0  0  0  0  0  0  0  0
   47.9940   32.9840   39.7230 C   0  0  0  0  0  0  0  0  0  0  0  0
   47.7780   34.1420   39.0840 N   0  0  0  0  0  0  0  0  0  0  0  0
   48.3120   34.4130   37.8760 C   0  0  0  0  0  0  0  0  0  0  0  0
   49.0960   33.5200   37.2490 N   0  0  0  0  0  0  0  0  0  0  0  0
   49.9730   31.5840   37.3830 H   0  0  0  0  0  0  0  0  0  0  0  0
   48.9880   31.0980   39.6000 H   0  0  0  0  0  0  0  0  0  0  0  0
   48.0920   35.3690   37.4220 H   0  0  0  0  0  0  0  0  0  0  0  0
   47.1120   32.5700   44.6370 O   0  0  0  0  0  0  0  0  0  0  0  0
   45.2120   30.7970   44.1060 O   0  0  0  0  0  0  0  0  0  0  0  0
   46.2920   31.1790   45.1080 P   0  0  2  0  0  0  0  0  0  0  0  0
   45.4480   31.5870   46.5410 O   0  0  0  0  0  0  0  0  0  0  0  0
   46.0510   31.5260   47.3220 H   0  0  0  0  0  0  0  0  0  0  0  0
   47.3300   29.9180   45.4500 O   0  0  0  0  0  0  0  0  0  0  0  0
   47.0840   28.8360   46.2530 C   0  0  0  0  0  0  0  0  0  0  0  0
   45.8010   28.3850   46.4880 C   0  0  0  0  0  0  0  0  0  0  0  0
   44.9710   28.8960   46.0290 H   0  0  0  0  0  0  0  0  0  0  0  0
   45.6080   27.2890   47.3060 C   0  0  0  0  0  0  0  0  0  0  0  0
   44.5540   26.9980   47.4390 H   0  0  0  0  0  0  0  0  0  0  0  0
   46.6440   26.6070   47.9130 C   0  0  0  0  0  0  0  0  0  0  0  0
   47.9260   27.0410   47.6900 C   0  0  0  0  0  0  0  0  0  0  0  0
   48.0940   28.1310   46.8760 C   0  0  0  0  0  0  0  0  0  0  0  0
   49.1140   28.4770   46.6980 H   0  0  0  0  0  0  0  0  0  0  0  0
   49.2870   26.1880   48.4550 S   0  0  0  0  0  0  0  0  0  0  0  0
   48.5610   24.8640   49.4010 C   0  0  0  0  0  0  0  0  0  0  0  0
   49.4260   24.0770   50.0740 C   0  0  0  0  0  0  0  0  0  0  0  0
   50.4990   24.2120   50.0610 H   0  0  0  0  0  0  0  0  0  0  0  0
   48.9590   23.0240   50.8350 C   0  0  0  0  0  0  0  0  0  0  0  0
   49.6480   22.3910   51.3760 H   0  0  0  0  0  0  0  0  0  0  0  0
   47.5970   22.8090   50.8850 C   0  0  0  0  0  0  0  0  0  0  0  0
   47.1870   21.9970   51.4680 H   0  0  0  0  0  0  0  0  0  0  0  0
   46.7740   23.6550   50.1710 C   0  0  0  0  0  0  0  0  0  0  0  0
   45.7000   23.4320   50.2500 H   0  0  0  0  0  0  0  0  0  0  0  0
   47.1960   24.7150   49.3990 C   0  0  0  0  0  0  0  0  0  0  0  0
   46.2560   25.5160   48.7110 N   0  0  0  0  0  0  0  0  0  0  0  0
   45.2580   25.2460   48.8320 H   0  0  0  0  0  0  0  0  0  0  0  0
  1  6  1  0  0  0  0
  2  3  1  0  0  0  0
  2  1  1  0  0  0  0
  2  8  1  0  0  0  0
  3 10  1  0  0  0  0
  3  4  1  0  0  0  0
  4 11  1  0  0  0  0
  4  5  1  0  0  0  0
  5 13  1  0  0  0  0
  5 14  1  0  0  0  0
  6 15  1  6  0  0  0
  6 31  1  0  0  0  0
  6  5  1  0  0  0  0
  7  2  1  0  0  0  0
  9  3  1  0  0  0  0
 12  4  1  0  0  0  0
 16 17  1  0  0  0  0
 16  1  1  0  0  0  0
 18 16  1  0  0  0  0
 19 21  1  0  0  0  0
 19 16  1  0  0  0  0
 20 19  1  0  0  0  0
 22 23  1  0  0  0  0
 23 29  1  0  0  0  0
 23 24  2  0  0  0  0
 24 19  1  0  0  0  0
 25 24  1  0  0  0  0
 26 25  2  0  0  0  0
 27 22  2  0  0  0  0
 27 26  1  0  0  0  0
 28 22  1  0  0  0  0
 30 26  1  0  0  0  0
 31 33  1  0  0  0  0
 33 32  2  6  0  0  0
 33 36  1  0  0  0  0
 33 34  1  0  0  0  0
 34 35  1  0  0  0  0
 36 37  1  0  0  0  0
 37 38  2  0  0  0  0
 37 44  1  0  0  0  0
 38 40  1  0  0  0  0
 39 38  1  0  0  0  0
 40 41  1  0  0  0  0
 40 42  2  0  0  0  0
 42 57  1  0  0  0  0
 43 42  1  0  0  0  0
 43 46  1  0  0  0  0
 44 43  2  0  0  0  0
 45 44  1  0  0  0  0
 46 47  1  0  0  0  0
 47 48  1  0  0  0  0
 48 50  2  0  0  0  0
 49 48  1  0  0  0  0
 50 52  1  0  0  0  0
 50 51  1  0  0  0  0
 52 53  1  0  0  0  0
 54 55  1  0  0  0  0
 54 52  2  0  0  0  0
 56 47  2  0  0  0  0
 56 54  1  0  0  0  0
 57 58  1  0  0  0  0
 57 56  1  0  0  0  0
M  END
>  <minimizedAffinity>
-5.44943142

>  <minimizedRMSD>
0.748627901

$$$$
