
 OpenBabel03252502563D

 50 54  0  0  0  0  0  0  0  0999 V2000
   44.3060   26.0990   47.0130 O   0  0  0  0  0  0  0  0  0  0  0  0
   44.9600   27.1630   47.8820 P   0  0  2  0  0  0  0  0  0  0  0  0
   44.4870   26.9510   49.4800 O   0  0  0  0  0  0  0  0  0  0  0  0
   45.2380   26.9900   50.1290 H   0  0  0  0  0  0  0  0  0  0  0  0
   44.3630   28.6790   47.3770 O   0  0  0  0  0  0  0  0  0  0  0  0
   45.5900   29.8800   44.8060 Br  0  0  0  0  0  0  0  0  0  0  0  0
   45.6600   30.5790   46.6120 C   0  0  0  0  0  0  0  0  0  0  0  0
   46.3390   31.7550   46.7740 C   0  0  0  0  0  0  0  0  0  0  0  0
   46.3680   32.2260   48.0870 C   0  0  0  0  0  0  0  0  0  0  0  0
   45.7670   31.5700   49.1440 C   0  0  0  0  0  0  0  0  0  0  0  0
   45.1040   30.3940   48.8950 C   0  0  0  0  0  0  0  0  0  0  0  0
   45.0400   29.8770   47.6170 C   0  0  0  0  0  0  0  0  0  0  0  0
   46.8870   33.1520   48.2940 H   0  0  0  0  0  0  0  0  0  0  0  0
   45.8350   32.0030   50.1350 H   0  0  0  0  0  0  0  0  0  0  0  0
   44.6370   29.8870   49.7250 H   0  0  0  0  0  0  0  0  0  0  0  0
   47.0140   32.5390   45.7360 C   0  0  0  0  0  0  0  0  0  0  0  0
   48.0060   32.9290   46.0610 H   0  0  0  0  0  0  0  0  0  0  0  0
   47.2250   31.8370   44.8840 H   0  0  0  0  0  0  0  0  0  0  0  0
   44.5430   35.3170   45.4100 C   0  0  0  0  0  0  0  0  0  0  0  0
   44.7600   35.7330   44.0950 C   0  0  0  0  0  0  0  0  0  0  0  0
   45.7270   35.0730   43.3540 C   0  0  0  0  0  0  0  0  0  0  0  0
   46.4300   34.0550   43.9130 N   0  0  0  0  0  0  0  0  0  0  0  0
   46.1970   33.6650   45.2060 C   0  0  0  0  0  0  0  0  0  0  0  0
   45.2490   34.3170   45.9210 N   0  0  0  0  0  0  0  0  0  0  0  0
   43.8300   35.7340   46.0960 H   0  0  0  0  0  0  0  0  0  0  0  0
   44.1460   36.5540   43.7490 H   0  0  0  0  0  0  0  0  0  0  0  0
   45.8820   35.4090   42.3390 H   0  0  0  0  0  0  0  0  0  0  0  0
   46.6260   27.0390   47.7140 O   0  0  0  0  0  0  0  0  0  0  0  0
   47.3150   26.2450   46.8190 C   0  0  0  0  0  0  0  0  0  0  0  0
   47.7960   25.0140   47.2140 C   0  0  0  0  0  0  0  0  0  0  0  0
   47.6110   24.7130   48.2260 H   0  0  0  0  0  0  0  0  0  0  0  0
   48.4820   24.2460   46.2940 C   0  0  0  0  0  0  0  0  0  0  0  0
   48.8160   23.3000   46.7000 H   0  0  0  0  0  0  0  0  0  0  0  0
   48.7340   24.6060   44.9890 C   0  0  0  0  0  0  0  0  0  0  0  0
   48.2260   25.8420   44.6680 C   0  0  0  0  0  0  0  0  0  0  0  0
   47.5510   26.6360   45.5200 C   0  0  0  0  0  0  0  0  0  0  0  0
   47.1540   27.6150   45.2510 H   0  0  0  0  0  0  0  0  0  0  0  0
   48.4560   26.4780   43.0190 S   0  0  0  0  0  0  0  0  0  0  0  0
   49.3680   25.2220   42.1470 C   0  0  0  0  0  0  0  0  0  0  0  0
   49.7290   25.3670   40.8390 C   0  0  0  0  0  0  0  0  0  0  0  0
   49.4450   26.2920   40.3100 H   0  0  0  0  0  0  0  0  0  0  0  0
   50.4390   24.4480   40.0690 C   0  0  0  0  0  0  0  0  0  0  0  0
   50.6790   24.6420   39.0500 H   0  0  0  0  0  0  0  0  0  0  0  0
   50.7870   23.2940   40.7480 C   0  0  0  0  0  0  0  0  0  0  0  0
   51.3430   22.5360   40.2020 H   0  0  0  0  0  0  0  0  0  0  0  0
   50.4320   23.1250   42.0760 C   0  0  0  0  0  0  0  0  0  0  0  0
   50.7530   22.1750   42.5310 H   0  0  0  0  0  0  0  0  0  0  0  0
   49.7270   24.0680   42.7940 C   0  0  0  0  0  0  0  0  0  0  0  0
   49.4480   23.7470   44.1200 N   0  0  0  0  0  0  0  0  0  0  0  0
   49.7540   22.8460   44.5460 H   0  0  0  0  0  0  0  0  0  0  0  0
  2  1  2  6  0  0  0
  2  3  1  0  0  0  0
  3  4  1  0  0  0  0
  5 12  1  0  0  0  0
  5  2  1  0  0  0  0
  6  7  1  0  0  0  0
  7  8  2  0  0  0  0
  7 12  1  0  0  0  0
  8  9  1  0  0  0  0
  9 13  1  0  0  0  0
  9 10  2  0  0  0  0
 10 14  1  0  0  0  0
 11 10  1  0  0  0  0
 11 15  1  0  0  0  0
 12 11  2  0  0  0  0
 16 17  1  0  0  0  0
 16  8  1  0  0  0  0
 18 16  1  0  0  0  0
 19 24  1  0  0  0  0
 19 25  1  0  0  0  0
 20 19  2  0  0  0  0
 21 22  2  0  0  0  0
 21 20  1  0  0  0  0
 22 23  1  0  0  0  0
 23 16  1  0  0  0  0
 23 24  2  0  0  0  0
 26 20  1  0  0  0  0
 27 21  1  0  0  0  0
 28  2  1  0  0  0  0
 29 30  1  0  0  0  0
 29 28  1  0  0  0  0
 30 31  1  0  0  0  0
 32 33  1  0  0  0  0
 32 30  2  0  0  0  0
 34 32  1  0  0  0  0
 35 34  2  0  0  0  0
 35 36  1  0  0  0  0
 36 29  2  0  0  0  0
 37 36  1  0  0  0  0
 38 35  1  0  0  0  0
 39 48  1  0  0  0  0
 39 38  1  0  0  0  0
 40 39  2  0  0  0  0
 41 40  1  0  0  0  0
 42 44  2  0  0  0  0
 42 40  1  0  0  0  0
 43 42  1  0  0  0  0
 44 46  1  0  0  0  0
 45 44  1  0  0  0  0
 46 47  1  0  0  0  0
 46 48  2  0  0  0  0
 48 49  1  0  0  0  0
 49 50  1  0  0  0  0
 49 34  1  0  0  0  0
M  END
>  <minimizedAffinity>
-4.8172121

>  <minimizedRMSD>
0.488916904

$$$$
