
 OpenBabel03252506133D

 49 53  0  0  0  0  0  0  0  0999 V2000
   48.1270   34.6160   37.1020 O   0  0  0  0  0  0  0  0  0  0  0  0
   47.2490   33.4030   37.2920 P   0  0  2  0  0  0  0  0  0  0  0  0
   45.9150   33.4590   36.2310 O   0  0  0  0  0  0  0  0  0  0  0  0
   45.9910   34.2690   35.7030 H   0  0  0  0  0  0  0  0  0  0  0  0
   46.6620   33.2820   38.8670 O   0  0  0  0  0  0  0  0  0  0  0  0
   45.1180   33.5180   41.2110 F   0  0  0  0  0  0  0  0  0  0  0  0
   46.3060   34.0890   41.0940 C   0  0  0  0  0  0  0  0  0  0  0  0
   46.8070   34.8230   42.1530 C   0  0  0  0  0  0  0  0  0  0  0  0
   48.0530   35.4600   42.1210 C   0  0  0  0  0  0  0  0  0  0  0  0
   48.8370   35.3560   40.9710 C   0  0  0  0  0  0  0  0  0  0  0  0
   48.3080   34.6170   39.9370 C   0  0  0  0  0  0  0  0  0  0  0  0
   47.0990   33.9940   39.9540 C   0  0  0  0  0  0  0  0  0  0  0  0
   48.3770   36.0210   43.0000 H   0  0  0  0  0  0  0  0  0  0  0  0
   49.7890   35.8620   40.9920 H   0  0  0  0  0  0  0  0  0  0  0  0
   49.0140   34.6090   39.1150 H   0  0  0  0  0  0  0  0  0  0  0  0
   45.4580   34.1470   45.4980 C   0  0  0  0  0  0  0  0  0  0  0  0
   44.5700   35.2230   45.6780 C   0  0  0  0  0  0  0  0  0  0  0  0
   44.4340   36.1900   44.6390 C   0  0  0  0  0  0  0  0  0  0  0  0
   45.1940   35.9940   43.5180 N   0  0  0  0  0  0  0  0  0  0  0  0
   46.0250   34.9590   43.3880 C   0  0  0  0  0  0  0  0  0  0  0  0
   46.1540   34.0480   44.3670 N   0  0  0  0  0  0  0  0  0  0  0  0
   43.9860   35.3580   46.5570 H   0  0  0  0  0  0  0  0  0  0  0  0
   43.7600   37.0270   44.7460 H   0  0  0  0  0  0  0  0  0  0  0  0
   45.5790   33.1960   46.5410 N   0  0  0  0  0  0  0  0  0  0  0  0
   45.3090   32.1790   46.5810 H   0  0  0  0  0  0  0  0  0  0  0  0
   45.9860   33.3970   47.4840 H   0  0  0  0  0  0  0  0  0  0  0  0
   48.1210   32.0310   36.8110 O   0  0  0  0  0  0  0  0  0  0  0  0
   47.4840   31.1070   35.9920 C   0  0  0  0  0  0  0  0  0  0  0  0
   46.5710   30.2540   36.5780 C   0  0  0  0  0  0  0  0  0  0  0  0
   46.3700   30.3170   37.6430 H   0  0  0  0  0  0  0  0  0  0  0  0
   45.9260   29.3260   35.7800 C   0  0  0  0  0  0  0  0  0  0  0  0
   45.2130   28.6820   36.3190 H   0  0  0  0  0  0  0  0  0  0  0  0
   46.1320   29.1890   34.4210 C   0  0  0  0  0  0  0  0  0  0  0  0
   47.0330   30.0420   33.8810 C   0  0  0  0  0  0  0  0  0  0  0  0
   47.6790   30.9580   34.6290 C   0  0  0  0  0  0  0  0  0  0  0  0
   48.4110   31.6450   34.1750 H   0  0  0  0  0  0  0  0  0  0  0  0
   47.3580   29.9320   32.1320 S   0  0  0  0  0  0  0  0  0  0  0  0
   46.3140   28.6160   31.5320 C   0  0  0  0  0  0  0  0  0  0  0  0
   46.3880   28.3390   30.1900 C   0  0  0  0  0  0  0  0  0  0  0  0
   47.0480   28.8890   29.5260 H   0  0  0  0  0  0  0  0  0  0  0  0
   45.6200   27.3410   29.6380 C   0  0  0  0  0  0  0  0  0  0  0  0
   45.6680   27.1140   28.5950 H   0  0  0  0  0  0  0  0  0  0  0  0
   44.7870   26.6430   30.4730 C   0  0  0  0  0  0  0  0  0  0  0  0
   44.1860   25.8600   30.0350 H   0  0  0  0  0  0  0  0  0  0  0  0
   44.7560   26.9640   31.8020 C   0  0  0  0  0  0  0  0  0  0  0  0
   44.0600   26.3510   32.3820 H   0  0  0  0  0  0  0  0  0  0  0  0
   45.5010   27.9520   32.4120 C   0  0  0  0  0  0  0  0  0  0  0  0
   45.3910   28.1970   33.7790 N   0  0  0  0  0  0  0  0  0  0  0  0
   44.7190   27.5950   34.3000 H   0  0  0  0  0  0  0  0  0  0  0  0
  2  1  2  6  0  0  0
  2  5  1  0  0  0  0
  3  2  1  0  0  0  0
  4  3  1  0  0  0  0
  5 12  1  0  0  0  0
  7  6  1  0  0  0  0
  7  8  1  0  0  0  0
  8 20  1  0  0  0  0
  9  8  2  0  0  0  0
  9 13  1  0  0  0  0
 10 14  1  0  0  0  0
 10  9  1  0  0  0  0
 11 12  1  0  0  0  0
 11 10  2  0  0  0  0
 12  7  2  0  0  0  0
 15 11  1  0  0  0  0
 16 17  1  0  0  0  0
 16 24  1  0  0  0  0
 17 22  1  0  0  0  0
 18 23  1  0  0  0  0
 18 17  2  0  0  0  0
 19 18  1  0  0  0  0
 20 19  2  0  0  0  0
 20 21  1  0  0  0  0
 21 16  2  0  0  0  0
 24 25  1  0  0  0  0
 24 26  1  0  0  0  0
 27  2  1  0  0  0  0
 28 29  1  0  0  0  0
 28 27  1  0  0  0  0
 29 30  1  0  0  0  0
 31 32  1  0  0  0  0
 31 29  2  0  0  0  0
 33 31  1  0  0  0  0
 34 33  2  0  0  0  0
 34 35  1  0  0  0  0
 35 28  2  0  0  0  0
 36 35  1  0  0  0  0
 37 34  1  0  0  0  0
 38 37  1  0  0  0  0
 38 47  1  0  0  0  0
 39 38  2  0  0  0  0
 40 39  1  0  0  0  0
 41 39  1  0  0  0  0
 41 43  2  0  0  0  0
 42 41  1  0  0  0  0
 43 45  1  0  0  0  0
 44 43  1  0  0  0  0
 45 46  1  0  0  0  0
 45 47  2  0  0  0  0
 47 48  1  0  0  0  0
 48 49  1  0  0  0  0
 48 33  1  0  0  0  0
M  END
>  <minimizedAffinity>
-7.44985914

>  <minimizedRMSD>
2.37404394

$$$$
