
 OpenBabel03252502563D

 50 54  0  0  0  0  0  0  0  0999 V2000
   44.1890   26.1610   47.0240 O   0  0  0  0  0  0  0  0  0  0  0  0
   44.9110   27.2080   47.8590 P   0  0  2  0  0  0  0  0  0  0  0  0
   44.5110   27.0080   49.4790 O   0  0  0  0  0  0  0  0  0  0  0  0
   45.2930   27.0300   50.0910 H   0  0  0  0  0  0  0  0  0  0  0  0
   44.3290   28.7380   47.3820 O   0  0  0  0  0  0  0  0  0  0  0  0
   45.5760   29.9520   44.8270 Br  0  0  0  0  0  0  0  0  0  0  0  0
   45.6510   30.6300   46.6400 C   0  0  0  0  0  0  0  0  0  0  0  0
   46.3450   31.7950   46.8150 C   0  0  0  0  0  0  0  0  0  0  0  0
   46.3770   32.2520   48.1340 C   0  0  0  0  0  0  0  0  0  0  0  0
   45.7650   31.5930   49.1820 C   0  0  0  0  0  0  0  0  0  0  0  0
   45.0880   30.4280   48.9200 C   0  0  0  0  0  0  0  0  0  0  0  0
   45.0200   29.9250   47.6360 C   0  0  0  0  0  0  0  0  0  0  0  0
   46.9080   33.1680   48.3520 H   0  0  0  0  0  0  0  0  0  0  0  0
   45.8370   32.0140   50.1780 H   0  0  0  0  0  0  0  0  0  0  0  0
   44.6130   29.9180   49.7430 H   0  0  0  0  0  0  0  0  0  0  0  0
   47.0320   32.5820   45.7880 C   0  0  0  0  0  0  0  0  0  0  0  0
   48.0100   32.9920   46.1330 H   0  0  0  0  0  0  0  0  0  0  0  0
   47.2770   31.8760   44.9480 H   0  0  0  0  0  0  0  0  0  0  0  0
   44.5360   35.3260   45.3800 C   0  0  0  0  0  0  0  0  0  0  0  0
   44.7650   35.7190   44.0600 C   0  0  0  0  0  0  0  0  0  0  0  0
   45.7470   35.0560   43.3430 C   0  0  0  0  0  0  0  0  0  0  0  0
   46.4540   34.0560   43.9300 N   0  0  0  0  0  0  0  0  0  0  0  0
   46.2100   33.6880   45.2270 C   0  0  0  0  0  0  0  0  0  0  0  0
   45.2470   34.3430   45.9180 N   0  0  0  0  0  0  0  0  0  0  0  0
   43.8110   35.7490   46.0500 H   0  0  0  0  0  0  0  0  0  0  0  0
   44.1460   36.5270   43.6910 H   0  0  0  0  0  0  0  0  0  0  0  0
   45.9100   35.3740   42.3240 H   0  0  0  0  0  0  0  0  0  0  0  0
   46.5630   27.0430   47.6110 O   0  0  0  0  0  0  0  0  0  0  0  0
   47.2550   25.8750   47.3620 C   0  0  0  0  0  0  0  0  0  0  0  0
   48.0450   25.7640   46.2360 C   0  0  0  0  0  0  0  0  0  0  0  0
   48.0930   26.6130   45.5810 H   0  0  0  0  0  0  0  0  0  0  0  0
   48.7220   24.5830   46.0160 C   0  0  0  0  0  0  0  0  0  0  0  0
   49.3130   24.5960   45.1090 H   0  0  0  0  0  0  0  0  0  0  0  0
   48.6810   23.4780   46.8390 C   0  0  0  0  0  0  0  0  0  0  0  0
   47.8760   23.6610   47.9370 C   0  0  0  0  0  0  0  0  0  0  0  0
   47.1910   24.7880   48.2050 C   0  0  0  0  0  0  0  0  0  0  0  0
   46.5550   24.9190   49.0810 H   0  0  0  0  0  0  0  0  0  0  0  0
   47.6980   22.3370   49.1170 S   0  0  0  0  0  0  0  0  0  0  0  0
   48.7050   21.0070   48.4960 C   0  0  0  0  0  0  0  0  0  0  0  0
   48.8110   19.8160   49.1520 C   0  0  0  0  0  0  0  0  0  0  0  0
   48.2560   19.6740   50.0930 H   0  0  0  0  0  0  0  0  0  0  0  0
   49.5710   18.7160   48.7530 C   0  0  0  0  0  0  0  0  0  0  0  0
   49.5970   17.8190   49.3260 H   0  0  0  0  0  0  0  0  0  0  0  0
   50.2620   18.9070   47.5710 C   0  0  0  0  0  0  0  0  0  0  0  0
   50.8730   18.0870   47.2040 H   0  0  0  0  0  0  0  0  0  0  0  0
   50.1670   20.1100   46.8890 C   0  0  0  0  0  0  0  0  0  0  0  0
   50.7530   20.1690   45.9580 H   0  0  0  0  0  0  0  0  0  0  0  0
   49.4010   21.1680   47.3270 C   0  0  0  0  0  0  0  0  0  0  0  0
   49.4130   22.3080   46.5280 N   0  0  0  0  0  0  0  0  0  0  0  0
   49.9690   22.3590   45.6480 H   0  0  0  0  0  0  0  0  0  0  0  0
  2  1  2  6  0  0  0
  2  3  1  0  0  0  0
  3  4  1  0  0  0  0
  5 12  1  0  0  0  0
  5  2  1  0  0  0  0
  6  7  1  0  0  0  0
  7  8  2  0  0  0  0
  7 12  1  0  0  0  0
  8  9  1  0  0  0  0
  9 13  1  0  0  0  0
  9 10  2  0  0  0  0
 10 14  1  0  0  0  0
 11 10  1  0  0  0  0
 11 15  1  0  0  0  0
 12 11  2  0  0  0  0
 16 17  1  0  0  0  0
 16  8  1  0  0  0  0
 18 16  1  0  0  0  0
 19 24  1  0  0  0  0
 19 25  1  0  0  0  0
 20 19  2  0  0  0  0
 21 22  2  0  0  0  0
 21 20  1  0  0  0  0
 22 23  1  0  0  0  0
 23 16  1  0  0  0  0
 23 24  2  0  0  0  0
 26 20  1  0  0  0  0
 27 21  1  0  0  0  0
 28  2  1  0  0  0  0
 29 28  1  0  0  0  0
 29 36  1  0  0  0  0
 30 29  2  0  0  0  0
 31 30  1  0  0  0  0
 32 30  1  0  0  0  0
 32 34  2  0  0  0  0
 33 32  1  0  0  0  0
 34 35  1  0  0  0  0
 35 36  2  0  0  0  0
 35 38  1  0  0  0  0
 36 37  1  0  0  0  0
 39 38  1  0  0  0  0
 39 40  1  0  0  0  0
 40 41  1  0  0  0  0
 42 40  2  0  0  0  0
 42 43  1  0  0  0  0
 44 42  1  0  0  0  0
 45 44  1  0  0  0  0
 46 48  1  0  0  0  0
 46 44  2  0  0  0  0
 47 46  1  0  0  0  0
 48 39  2  0  0  0  0
 49 34  1  0  0  0  0
 49 48  1  0  0  0  0
 50 49  1  0  0  0  0
M  END
>  <minimizedAffinity>
-5.49151421

>  <minimizedRMSD>
2.44551849

$$$$
