
 OpenBabel03252506133D

 49 53  0  0  0  0  0  0  0  0999 V2000
   48.1310   34.8600   37.1040 O   0  0  0  0  0  0  0  0  0  0  0  0
   47.4720   33.5150   37.2870 P   0  0  2  0  0  0  0  0  0  0  0  0
   46.0200   33.4360   36.3950 O   0  0  0  0  0  0  0  0  0  0  0  0
   45.9090   34.2820   35.9350 H   0  0  0  0  0  0  0  0  0  0  0  0
   47.1130   33.1960   38.9020 O   0  0  0  0  0  0  0  0  0  0  0  0
   45.4950   33.2800   41.2060 F   0  0  0  0  0  0  0  0  0  0  0  0
   46.5950   34.0070   41.0960 C   0  0  0  0  0  0  0  0  0  0  0  0
   46.9630   34.8330   42.1420 C   0  0  0  0  0  0  0  0  0  0  0  0
   48.1090   35.6350   42.1150 C   0  0  0  0  0  0  0  0  0  0  0  0
   48.9280   35.6100   40.9850 C   0  0  0  0  0  0  0  0  0  0  0  0
   48.5320   34.7760   39.9640 C   0  0  0  0  0  0  0  0  0  0  0  0
   47.4210   33.9910   39.9760 C   0  0  0  0  0  0  0  0  0  0  0  0
   48.3310   36.2610   42.9830 H   0  0  0  0  0  0  0  0  0  0  0  0
   49.8000   36.2440   41.0100 H   0  0  0  0  0  0  0  0  0  0  0  0
   49.2520   34.8430   39.1570 H   0  0  0  0  0  0  0  0  0  0  0  0
   45.5330   33.9750   45.4100 C   0  0  0  0  0  0  0  0  0  0  0  0
   44.6070   35.0150   45.6060 C   0  0  0  0  0  0  0  0  0  0  0  0
   44.4730   36.0210   44.6050 C   0  0  0  0  0  0  0  0  0  0  0  0
   45.2740   35.8960   43.5020 N   0  0  0  0  0  0  0  0  0  0  0  0
   46.1400   34.8930   43.3550 C   0  0  0  0  0  0  0  0  0  0  0  0
   46.2660   33.9450   44.2990 N   0  0  0  0  0  0  0  0  0  0  0  0
   43.9930   35.0950   46.4710 H   0  0  0  0  0  0  0  0  0  0  0  0
   43.7710   36.8330   44.7260 H   0  0  0  0  0  0  0  0  0  0  0  0
   45.6510   32.9840   46.4160 N   0  0  0  0  0  0  0  0  0  0  0  0
   45.4120   31.9590   46.4060 H   0  0  0  0  0  0  0  0  0  0  0  0
   46.0230   33.1570   47.3790 H   0  0  0  0  0  0  0  0  0  0  0  0
   48.4670   32.3320   36.5910 O   0  0  0  0  0  0  0  0  0  0  0  0
   47.9860   31.6430   35.4860 C   0  0  0  0  0  0  0  0  0  0  0  0
   48.3180   32.1270   34.2360 C   0  0  0  0  0  0  0  0  0  0  0  0
   48.9340   33.0140   34.1390 H   0  0  0  0  0  0  0  0  0  0  0  0
   47.8490   31.4530   33.1210 C   0  0  0  0  0  0  0  0  0  0  0  0
   48.1550   31.8990   32.1610 H   0  0  0  0  0  0  0  0  0  0  0  0
   47.0630   30.3190   33.1680 C   0  0  0  0  0  0  0  0  0  0  0  0
   46.7570   29.8750   34.4080 C   0  0  0  0  0  0  0  0  0  0  0  0
   47.1970   30.5050   35.5160 C   0  0  0  0  0  0  0  0  0  0  0  0
   46.9400   30.1310   36.5190 H   0  0  0  0  0  0  0  0  0  0  0  0
   45.7450   28.4150   34.5600 S   0  0  0  0  0  0  0  0  0  0  0  0
   45.3880   27.9060   32.8880 C   0  0  0  0  0  0  0  0  0  0  0  0
   44.6100   26.7850   32.7410 C   0  0  0  0  0  0  0  0  0  0  0  0
   44.2310   26.2340   33.5980 H   0  0  0  0  0  0  0  0  0  0  0  0
   44.2830   26.3160   31.4910 C   0  0  0  0  0  0  0  0  0  0  0  0
   43.6790   25.4450   31.3640 H   0  0  0  0  0  0  0  0  0  0  0  0
   44.7600   27.0080   30.4080 C   0  0  0  0  0  0  0  0  0  0  0  0
   44.5000   26.6370   29.4270 H   0  0  0  0  0  0  0  0  0  0  0  0
   45.5300   28.1180   30.6150 C   0  0  0  0  0  0  0  0  0  0  0  0
   45.8610   28.5980   29.6880 H   0  0  0  0  0  0  0  0  0  0  0  0
   45.8910   28.6340   31.8420 C   0  0  0  0  0  0  0  0  0  0  0  0
   46.6830   29.7760   31.9400 N   0  0  0  0  0  0  0  0  0  0  0  0
   46.9790   30.2070   31.0390 H   0  0  0  0  0  0  0  0  0  0  0  0
  2  1  2  6  0  0  0
  2  5  1  0  0  0  0
  3  2  1  0  0  0  0
  4  3  1  0  0  0  0
  5 12  1  0  0  0  0
  7  6  1  0  0  0  0
  7  8  1  0  0  0  0
  8 20  1  0  0  0  0
  9  8  2  0  0  0  0
  9 13  1  0  0  0  0
 10 14  1  0  0  0  0
 10  9  1  0  0  0  0
 11 12  1  0  0  0  0
 11 10  2  0  0  0  0
 12  7  2  0  0  0  0
 15 11  1  0  0  0  0
 16 17  1  0  0  0  0
 16 24  1  0  0  0  0
 17 22  1  0  0  0  0
 18 23  1  0  0  0  0
 18 17  2  0  0  0  0
 19 18  1  0  0  0  0
 20 19  2  0  0  0  0
 20 21  1  0  0  0  0
 21 16  2  0  0  0  0
 24 26  1  0  0  0  0
 25 24  1  0  0  0  0
 27  2  1  0  0  0  0
 28 35  1  0  0  0  0
 28 27  1  0  0  0  0
 29 28  2  0  0  0  0
 30 29  1  0  0  0  0
 31 33  2  0  0  0  0
 31 29  1  0  0  0  0
 32 31  1  0  0  0  0
 33 34  1  0  0  0  0
 34 37  1  0  0  0  0
 34 35  2  0  0  0  0
 35 36  1  0  0  0  0
 38 37  1  0  0  0  0
 39 38  1  0  0  0  0
 39 40  1  0  0  0  0
 41 39  2  0  0  0  0
 42 41  1  0  0  0  0
 43 45  2  0  0  0  0
 43 41  1  0  0  0  0
 44 43  1  0  0  0  0
 45 47  1  0  0  0  0
 46 45  1  0  0  0  0
 47 48  1  0  0  0  0
 47 38  2  0  0  0  0
 48 33  1  0  0  0  0
 49 48  1  0  0  0  0
M  END
>  <minimizedAffinity>
-7.53240204

>  <minimizedRMSD>
3.50538516

$$$$
