
 OpenBabel03252502253D

 47 51  0  0  1  0  0  0  0  0999 V2000
   46.5300   33.1860   39.3300 N   0  0  0  0  0  0  0  0  0  0  0  0
   45.8270   32.9810   40.5830 C   0  0  0  0  0  0  0  0  0  0  0  0
   45.7540   34.4020   41.1840 C   0  0  0  0  0  0  0  0  0  0  0  0
   47.1500   34.8330   41.5570 C   0  0  0  0  0  0  0  0  0  0  0  0
   48.1700   34.5570   40.5190 C   0  0  0  0  0  0  0  0  0  0  0  0
   47.6620   34.0680   39.2020 C   0  0  1  0  0  0  0  0  0  0  0  0
   46.4240   32.3350   41.2580 H   0  0  0  0  0  0  0  0  0  0  0  0
   44.8150   32.6020   40.3810 H   0  0  0  0  0  0  0  0  0  0  0  0
   45.1200   34.3690   42.0750 H   0  0  0  0  0  0  0  0  0  0  0  0
   45.3690   35.0550   40.3700 H   0  0  0  0  0  0  0  0  0  0  0  0
   47.4140   34.2690   42.4860 H   0  0  0  0  0  0  0  0  0  0  0  0
   47.1120   35.8970   41.8770 H   0  0  0  0  0  0  0  0  0  0  0  0
   48.9690   33.8650   40.8870 H   0  0  0  0  0  0  0  0  0  0  0  0
   48.7120   35.5100   40.3130 H   0  0  0  0  0  0  0  0  0  0  0  0
   47.3300   34.9070   38.5610 H   0  0  0  0  0  0  0  0  0  0  0  0
   45.4330   32.4360   35.8260 C   0  0  0  0  0  0  0  0  0  0  0  0
   45.8400   33.1900   36.9340 C   0  0  0  0  0  0  0  0  0  0  0  0
   46.1070   32.4960   38.1420 C   0  0  0  0  0  0  0  0  0  0  0  0
   45.9520   31.1490   38.1480 N   0  0  0  0  0  0  0  0  0  0  0  0
   45.5550   30.4570   37.0530 C   0  0  0  0  0  0  0  0  0  0  0  0
   45.2980   31.1110   35.8950 N   0  0  0  0  0  0  0  0  0  0  0  0
   45.2640   33.0880   34.9750 H   0  0  0  0  0  0  0  0  0  0  0  0
   45.9740   34.2580   36.9640 H   0  0  0  0  0  0  0  0  0  0  0  0
   45.4370   29.3910   37.0700 H   0  0  0  0  0  0  0  0  0  0  0  0
   48.6980   33.3940   38.5590 O   0  0  0  0  0  0  0  0  0  0  0  0
   49.3250   32.2360   38.9780 C   0  0  0  0  0  0  0  0  0  0  0  0
   49.5490   31.0600   38.2960 C   0  0  0  0  0  0  0  0  0  0  0  0
   49.1830   31.0460   37.2980 H   0  0  0  0  0  0  0  0  0  0  0  0
   50.2050   30.0280   38.9330 C   0  0  0  0  0  0  0  0  0  0  0  0
   50.3300   29.1380   38.2980 H   0  0  0  0  0  0  0  0  0  0  0  0
   50.6700   30.0720   40.2290 C   0  0  0  0  0  0  0  0  0  0  0  0
   50.4460   31.2440   40.9070 C   0  0  0  0  0  0  0  0  0  0  0  0
   49.7970   32.2790   40.2950 C   0  0  0  0  0  0  0  0  0  0  0  0
   49.6650   33.1740   40.9170 H   0  0  0  0  0  0  0  0  0  0  0  0
   51.0200   31.3700   42.5900 S   0  0  0  0  0  0  0  0  0  0  0  0
   51.7910   29.8190   42.9670 C   0  0  0  0  0  0  0  0  0  0  0  0
   52.3070   29.6990   44.2230 C   0  0  0  0  0  0  0  0  0  0  0  0
   52.2640   30.4750   44.9550 H   0  0  0  0  0  0  0  0  0  0  0  0
   52.9250   28.5200   44.5970 C   0  0  0  0  0  0  0  0  0  0  0  0
   53.3660   28.3200   45.5630 H   0  0  0  0  0  0  0  0  0  0  0  0
   52.9980   27.4960   43.6750 C   0  0  0  0  0  0  0  0  0  0  0  0
   53.4750   26.5600   43.9350 H   0  0  0  0  0  0  0  0  0  0  0  0
   52.4540   27.6870   42.4220 C   0  0  0  0  0  0  0  0  0  0  0  0
   52.5470   26.8320   41.7390 H   0  0  0  0  0  0  0  0  0  0  0  0
   51.8290   28.8430   42.0030 C   0  0  0  0  0  0  0  0  0  0  0  0
   51.3170   28.9120   40.7020 N   0  0  0  0  0  0  0  0  0  0  0  0
   51.4280   28.0770   40.0900 H   0  0  0  0  0  0  0  0  0  0  0  0
  1  2  1  0  0  0  0
  2  3  1  0  0  0  0
  2  7  1  0  0  0  0
  3  4  1  0  0  0  0
  3  9  1  0  0  0  0
  4 12  1  0  0  0  0
  4 11  1  0  0  0  0
  5 13  1  0  0  0  0
  5  4  1  0  0  0  0
  6 15  1  6  0  0  0
  6  1  1  0  0  0  0
  6  5  1  0  0  0  0
  8  2  1  0  0  0  0
 10  3  1  0  0  0  0
 14  5  1  0  0  0  0
 16 21  2  0  0  0  0
 16 17  1  0  0  0  0
 17 23  1  0  0  0  0
 17 18  2  0  0  0  0
 18 19  1  0  0  0  0
 18  1  1  0  0  0  0
 20 24  1  0  0  0  0
 20 19  2  0  0  0  0
 21 20  1  0  0  0  0
 22 16  1  0  0  0  0
 25 26  1  0  0  0  0
 25  6  1  0  0  0  0
 26 33  1  0  0  0  0
 27 29  1  0  0  0  0
 27 26  2  0  0  0  0
 28 27  1  0  0  0  0
 29 31  2  0  0  0  0
 30 29  1  0  0  0  0
 31 46  1  0  0  0  0
 31 32  1  0  0  0  0
 32 35  1  0  0  0  0
 33 32  2  0  0  0  0
 33 34  1  0  0  0  0
 35 36  1  0  0  0  0
 36 37  1  0  0  0  0
 37 39  2  0  0  0  0
 37 38  1  0  0  0  0
 39 40  1  0  0  0  0
 41 42  1  0  0  0  0
 41 39  1  0  0  0  0
 43 41  2  0  0  0  0
 44 43  1  0  0  0  0
 45 43  1  0  0  0  0
 45 36  2  0  0  0  0
 46 45  1  0  0  0  0
 47 46  1  0  0  0  0
M  END
>  <minimizedAffinity>
-3.93826079

>  <minimizedRMSD>
9.42092133

$$$$
