
 OpenBabel03252506133D

 49 53  0  0  0  0  0  0  0  0999 V2000
   48.2100   34.7480   37.1110 O   0  0  0  0  0  0  0  0  0  0  0  0
   47.3230   33.5380   37.2840 P   0  0  2  0  0  0  0  0  0  0  0  0
   45.8250   33.7800   36.5060 O   0  0  0  0  0  0  0  0  0  0  0  0
   45.8430   34.6590   36.0960 H   0  0  0  0  0  0  0  0  0  0  0  0
   47.0230   33.1960   38.9060 O   0  0  0  0  0  0  0  0  0  0  0  0
   45.4220   33.3210   41.2210 F   0  0  0  0  0  0  0  0  0  0  0  0
   46.5410   34.0180   41.1040 C   0  0  0  0  0  0  0  0  0  0  0  0
   46.9380   34.8320   42.1480 C   0  0  0  0  0  0  0  0  0  0  0  0
   48.1060   35.6030   42.1160 C   0  0  0  0  0  0  0  0  0  0  0  0
   48.9170   35.5560   40.9800 C   0  0  0  0  0  0  0  0  0  0  0  0
   48.4910   34.7350   39.9610 C   0  0  0  0  0  0  0  0  0  0  0  0
   47.3600   33.9810   39.9790 C   0  0  0  0  0  0  0  0  0  0  0  0
   48.3500   36.2210   42.9830 H   0  0  0  0  0  0  0  0  0  0  0  0
   49.8060   36.1660   41.0000 H   0  0  0  0  0  0  0  0  0  0  0  0
   49.2080   34.7830   39.1490 H   0  0  0  0  0  0  0  0  0  0  0  0
   45.4870   33.9970   45.4130 C   0  0  0  0  0  0  0  0  0  0  0  0
   44.6110   35.0760   45.6280 C   0  0  0  0  0  0  0  0  0  0  0  0
   44.5180   36.1000   44.6410 C   0  0  0  0  0  0  0  0  0  0  0  0
   45.3060   35.9530   43.5320 N   0  0  0  0  0  0  0  0  0  0  0  0
   46.1250   34.9140   43.3670 C   0  0  0  0  0  0  0  0  0  0  0  0
   46.2130   33.9480   44.2980 N   0  0  0  0  0  0  0  0  0  0  0  0
   44.0050   35.1720   46.4980 H   0  0  0  0  0  0  0  0  0  0  0  0
   43.8540   36.9410   44.7760 H   0  0  0  0  0  0  0  0  0  0  0  0
   45.5650   32.9880   46.4060 N   0  0  0  0  0  0  0  0  0  0  0  0
   45.2790   31.9750   46.3830 H   0  0  0  0  0  0  0  0  0  0  0  0
   45.9490   33.1310   47.3690 H   0  0  0  0  0  0  0  0  0  0  0  0
   48.0280   32.2360   36.4590 O   0  0  0  0  0  0  0  0  0  0  0  0
   47.1990   31.4170   35.7040 C   0  0  0  0  0  0  0  0  0  0  0  0
   47.3040   31.4940   34.3290 C   0  0  0  0  0  0  0  0  0  0  0  0
   48.0130   32.1760   33.8720 H   0  0  0  0  0  0  0  0  0  0  0  0
   46.4870   30.6860   33.5580 C   0  0  0  0  0  0  0  0  0  0  0  0
   46.6280   30.8040   32.4720 H   0  0  0  0  0  0  0  0  0  0  0  0
   45.5630   29.7970   34.0680 C   0  0  0  0  0  0  0  0  0  0  0  0
   45.4890   29.7470   35.4180 C   0  0  0  0  0  0  0  0  0  0  0  0
   46.2690   30.5200   36.2000 C   0  0  0  0  0  0  0  0  0  0  0  0
   46.1960   30.4680   37.2980 H   0  0  0  0  0  0  0  0  0  0  0  0
   44.3200   28.6250   36.1610 S   0  0  0  0  0  0  0  0  0  0  0  0
   43.5070   27.8100   34.7990 C   0  0  0  0  0  0  0  0  0  0  0  0
   42.5480   26.8820   35.1230 C   0  0  0  0  0  0  0  0  0  0  0  0
   42.2960   26.6550   36.1540 H   0  0  0  0  0  0  0  0  0  0  0  0
   41.8690   26.2040   34.1400 C   0  0  0  0  0  0  0  0  0  0  0  0
   41.1200   25.4800   34.3780 H   0  0  0  0  0  0  0  0  0  0  0  0
   42.1840   26.4880   32.8350 C   0  0  0  0  0  0  0  0  0  0  0  0
   41.6470   25.9520   32.0660 H   0  0  0  0  0  0  0  0  0  0  0  0
   43.1480   27.4210   32.5740 C   0  0  0  0  0  0  0  0  0  0  0  0
   43.3250   27.5740   31.5050 H   0  0  0  0  0  0  0  0  0  0  0  0
   43.8620   28.1320   33.5160 C   0  0  0  0  0  0  0  0  0  0  0  0
   44.8260   29.0640   33.1380 N   0  0  0  0  0  0  0  0  0  0  0  0
   44.9690   29.1850   32.1130 H   0  0  0  0  0  0  0  0  0  0  0  0
  2  1  2  6  0  0  0
  2  5  1  0  0  0  0
  3  2  1  0  0  0  0
  4  3  1  0  0  0  0
  5 12  1  0  0  0  0
  7  6  1  0  0  0  0
  7  8  1  0  0  0  0
  8 20  1  0  0  0  0
  9  8  2  0  0  0  0
  9 13  1  0  0  0  0
 10 14  1  0  0  0  0
 10  9  1  0  0  0  0
 11 12  1  0  0  0  0
 11 10  2  0  0  0  0
 12  7  2  0  0  0  0
 15 11  1  0  0  0  0
 16 17  1  0  0  0  0
 16 24  1  0  0  0  0
 17 22  1  0  0  0  0
 18 23  1  0  0  0  0
 18 17  2  0  0  0  0
 19 18  1  0  0  0  0
 20 19  2  0  0  0  0
 20 21  1  0  0  0  0
 21 16  2  0  0  0  0
 24 26  1  0  0  0  0
 25 24  1  0  0  0  0
 27  2  1  0  0  0  0
 28 35  1  0  0  0  0
 28 27  1  0  0  0  0
 29 28  2  0  0  0  0
 30 29  1  0  0  0  0
 31 33  2  0  0  0  0
 31 29  1  0  0  0  0
 32 31  1  0  0  0  0
 33 34  1  0  0  0  0
 34 37  1  0  0  0  0
 34 35  2  0  0  0  0
 35 36  1  0  0  0  0
 38 39  1  0  0  0  0
 38 37  1  0  0  0  0
 39 40  1  0  0  0  0
 41 42  1  0  0  0  0
 41 39  2  0  0  0  0
 43 41  1  0  0  0  0
 44 43  1  0  0  0  0
 45 43  2  0  0  0  0
 45 47  1  0  0  0  0
 46 45  1  0  0  0  0
 47 38  2  0  0  0  0
 48 47  1  0  0  0  0
 48 33  1  0  0  0  0
 49 48  1  0  0  0  0
M  END
>  <minimizedAffinity>
-7.07811117

>  <minimizedRMSD>
2.13070345

$$$$
