
 OpenBabel03252502563D

 50 54  0  0  0  0  0  0  0  0999 V2000
   43.9640   26.1500   47.3190 O   0  0  0  0  0  0  0  0  0  0  0  0
   44.8250   27.2170   47.9800 P   0  0  2  0  0  0  0  0  0  0  0  0
   44.5410   27.2190   49.6370 O   0  0  0  0  0  0  0  0  0  0  0  0
   45.3690   27.2410   50.1860 H   0  0  0  0  0  0  0  0  0  0  0  0
   44.3200   28.7310   47.3810 O   0  0  0  0  0  0  0  0  0  0  0  0
   45.5430   29.9290   44.8070 Br  0  0  0  0  0  0  0  0  0  0  0  0
   45.6450   30.6120   46.6170 C   0  0  0  0  0  0  0  0  0  0  0  0
   46.3480   31.7740   46.7810 C   0  0  0  0  0  0  0  0  0  0  0  0
   46.3990   32.2340   48.0980 C   0  0  0  0  0  0  0  0  0  0  0  0
   45.7960   31.5810   49.1550 C   0  0  0  0  0  0  0  0  0  0  0  0
   45.1090   30.4200   48.9040 C   0  0  0  0  0  0  0  0  0  0  0  0
   45.0220   29.9140   47.6230 C   0  0  0  0  0  0  0  0  0  0  0  0
   46.9390   33.1480   48.3060 H   0  0  0  0  0  0  0  0  0  0  0  0
   45.8820   32.0050   50.1490 H   0  0  0  0  0  0  0  0  0  0  0  0
   44.6400   29.9160   49.7350 H   0  0  0  0  0  0  0  0  0  0  0  0
   47.0280   32.5530   45.7430 C   0  0  0  0  0  0  0  0  0  0  0  0
   48.0170   32.9470   46.0700 H   0  0  0  0  0  0  0  0  0  0  0  0
   47.2460   31.8460   44.8960 H   0  0  0  0  0  0  0  0  0  0  0  0
   44.5500   35.3200   45.3830 C   0  0  0  0  0  0  0  0  0  0  0  0
   44.7780   35.7320   44.0680 C   0  0  0  0  0  0  0  0  0  0  0  0
   45.7530   35.0720   43.3380 C   0  0  0  0  0  0  0  0  0  0  0  0
   46.4540   34.0580   43.9080 N   0  0  0  0  0  0  0  0  0  0  0  0
   46.2110   33.6740   45.2010 C   0  0  0  0  0  0  0  0  0  0  0  0
   45.2560   34.3250   45.9050 N   0  0  0  0  0  0  0  0  0  0  0  0
   43.8310   35.7390   46.0610 H   0  0  0  0  0  0  0  0  0  0  0  0
   44.1630   36.5490   43.7120 H   0  0  0  0  0  0  0  0  0  0  0  0
   45.9150   35.4030   42.3230 H   0  0  0  0  0  0  0  0  0  0  0  0
   46.4350   26.8930   47.6350 O   0  0  0  0  0  0  0  0  0  0  0  0
   46.9890   25.6690   47.3160 C   0  0  0  0  0  0  0  0  0  0  0  0
   47.4620   25.4340   46.0420 C   0  0  0  0  0  0  0  0  0  0  0  0
   47.3800   26.2300   45.3290 H   0  0  0  0  0  0  0  0  0  0  0  0
   48.0090   24.2000   45.7560 C   0  0  0  0  0  0  0  0  0  0  0  0
   48.3500   24.1150   44.7330 H   0  0  0  0  0  0  0  0  0  0  0  0
   48.1260   23.1570   46.6500 C   0  0  0  0  0  0  0  0  0  0  0  0
   47.6360   23.4640   47.8960 C   0  0  0  0  0  0  0  0  0  0  0  0
   47.0920   24.6470   48.2340 C   0  0  0  0  0  0  0  0  0  0  0  0
   46.7050   24.8770   49.2270 H   0  0  0  0  0  0  0  0  0  0  0  0
   47.7040   22.2360   49.1860 S   0  0  0  0  0  0  0  0  0  0  0  0
   48.4610   20.8060   48.4440 C   0  0  0  0  0  0  0  0  0  0  0  0
   48.6770   19.6570   49.1460 C   0  0  0  0  0  0  0  0  0  0  0  0
   48.3730   19.6160   50.2040 H   0  0  0  0  0  0  0  0  0  0  0  0
   49.2610   18.4870   48.6610 C   0  0  0  0  0  0  0  0  0  0  0  0
   49.3920   17.6320   49.2800 H   0  0  0  0  0  0  0  0  0  0  0  0
   49.6380   18.5550   47.3320 C   0  0  0  0  0  0  0  0  0  0  0  0
   50.0990   17.6750   46.8920 H   0  0  0  0  0  0  0  0  0  0  0  0
   49.4280   19.7120   46.6000 C   0  0  0  0  0  0  0  0  0  0  0  0
   49.7610   19.6720   45.5510 H   0  0  0  0  0  0  0  0  0  0  0  0
   48.8450   20.8450   47.1290 C   0  0  0  0  0  0  0  0  0  0  0  0
   48.7050   21.9250   46.2610 N   0  0  0  0  0  0  0  0  0  0  0  0
   49.0210   21.8820   45.2690 H   0  0  0  0  0  0  0  0  0  0  0  0
  2  1  2  6  0  0  0
  2  3  1  0  0  0  0
  3  4  1  0  0  0  0
  5 12  1  0  0  0  0
  5  2  1  0  0  0  0
  6  7  1  0  0  0  0
  7  8  2  0  0  0  0
  7 12  1  0  0  0  0
  8  9  1  0  0  0  0
  9 13  1  0  0  0  0
  9 10  2  0  0  0  0
 10 14  1  0  0  0  0
 11 10  1  0  0  0  0
 11 15  1  0  0  0  0
 12 11  2  0  0  0  0
 16 17  1  0  0  0  0
 16  8  1  0  0  0  0
 18 16  1  0  0  0  0
 19 24  1  0  0  0  0
 19 25  1  0  0  0  0
 20 19  2  0  0  0  0
 21 22  2  0  0  0  0
 21 20  1  0  0  0  0
 22 23  1  0  0  0  0
 23 16  1  0  0  0  0
 23 24  2  0  0  0  0
 26 20  1  0  0  0  0
 27 21  1  0  0  0  0
 28  2  1  0  0  0  0
 29 28  1  0  0  0  0
 29 36  1  0  0  0  0
 30 29  2  0  0  0  0
 31 30  1  0  0  0  0
 32 30  1  0  0  0  0
 32 34  2  0  0  0  0
 33 32  1  0  0  0  0
 34 35  1  0  0  0  0
 35 36  2  0  0  0  0
 35 38  1  0  0  0  0
 36 37  1  0  0  0  0
 39 40  1  0  0  0  0
 39 38  1  0  0  0  0
 40 41  1  0  0  0  0
 42 40  2  0  0  0  0
 42 43  1  0  0  0  0
 44 42  1  0  0  0  0
 45 44  1  0  0  0  0
 46 48  1  0  0  0  0
 46 44  2  0  0  0  0
 47 46  1  0  0  0  0
 48 39  2  0  0  0  0
 49 34  1  0  0  0  0
 49 48  1  0  0  0  0
 50 49  1  0  0  0  0
M  END
>  <minimizedAffinity>
-5.54317522

>  <minimizedRMSD>
2.77117825

$$$$
