
 OpenBabel03252506133D

 49 53  0  0  0  0  0  0  0  0999 V2000
   48.1330   34.6030   37.1190 O   0  0  0  0  0  0  0  0  0  0  0  0
   47.3830   33.3080   37.3090 P   0  0  2  0  0  0  0  0  0  0  0  0
   46.0000   33.2670   36.3120 O   0  0  0  0  0  0  0  0  0  0  0  0
   45.9730   34.0960   35.8090 H   0  0  0  0  0  0  0  0  0  0  0  0
   46.8870   33.0860   38.9040 O   0  0  0  0  0  0  0  0  0  0  0  0
   45.2760   33.3610   41.1980 F   0  0  0  0  0  0  0  0  0  0  0  0
   46.4660   33.9330   41.1040 C   0  0  0  0  0  0  0  0  0  0  0  0
   46.9350   34.6870   42.1640 C   0  0  0  0  0  0  0  0  0  0  0  0
   48.1800   35.3260   42.1560 C   0  0  0  0  0  0  0  0  0  0  0  0
   48.9970   35.2030   41.0310 C   0  0  0  0  0  0  0  0  0  0  0  0
   48.4990   34.4440   39.9960 C   0  0  0  0  0  0  0  0  0  0  0  0
   47.2920   33.8180   39.9900 C   0  0  0  0  0  0  0  0  0  0  0  0
   48.4770   35.9050   43.0340 H   0  0  0  0  0  0  0  0  0  0  0  0
   49.9470   35.7120   41.0700 H   0  0  0  0  0  0  0  0  0  0  0  0
   49.2280   34.4220   39.1950 H   0  0  0  0  0  0  0  0  0  0  0  0
   45.5030   34.0790   45.4870 C   0  0  0  0  0  0  0  0  0  0  0  0
   44.5960   35.1460   45.6140 C   0  0  0  0  0  0  0  0  0  0  0  0
   44.4760   36.0840   44.5470 C   0  0  0  0  0  0  0  0  0  0  0  0
   45.2690   35.8700   43.4530 N   0  0  0  0  0  0  0  0  0  0  0  0
   46.1180   34.8440   43.3720 C   0  0  0  0  0  0  0  0  0  0  0  0
   46.2310   33.9610   44.3780 N   0  0  0  0  0  0  0  0  0  0  0  0
   43.9870   35.2960   46.4730 H   0  0  0  0  0  0  0  0  0  0  0  0
   43.7880   36.9140   44.6140 H   0  0  0  0  0  0  0  0  0  0  0  0
   45.6080   33.1570   46.5580 N   0  0  0  0  0  0  0  0  0  0  0  0
   45.3510   32.1380   46.6170 H   0  0  0  0  0  0  0  0  0  0  0  0
   45.9860   33.3880   47.5060 H   0  0  0  0  0  0  0  0  0  0  0  0
   48.3550   32.0390   36.7430 O   0  0  0  0  0  0  0  0  0  0  0  0
   47.9160   31.3250   35.6350 C   0  0  0  0  0  0  0  0  0  0  0  0
   48.5130   31.5970   34.4200 C   0  0  0  0  0  0  0  0  0  0  0  0
   49.2960   32.3450   34.3520 H   0  0  0  0  0  0  0  0  0  0  0  0
   48.0900   30.8960   33.3050 C   0  0  0  0  0  0  0  0  0  0  0  0
   48.6130   31.1680   32.3740 H   0  0  0  0  0  0  0  0  0  0  0  0
   47.1020   29.9320   33.3180 C   0  0  0  0  0  0  0  0  0  0  0  0
   46.5390   29.6920   34.5240 C   0  0  0  0  0  0  0  0  0  0  0  0
   46.9270   30.3570   35.6310 C   0  0  0  0  0  0  0  0  0  0  0  0
   46.4590   30.1500   36.6080 H   0  0  0  0  0  0  0  0  0  0  0  0
   45.2550   28.4610   34.6290 S   0  0  0  0  0  0  0  0  0  0  0  0
   45.0530   27.8370   32.9710 C   0  0  0  0  0  0  0  0  0  0  0  0
   44.1030   26.8610   32.7940 C   0  0  0  0  0  0  0  0  0  0  0  0
   43.5040   26.4880   33.6190 H   0  0  0  0  0  0  0  0  0  0  0  0
   43.8770   26.3210   31.5510 C   0  0  0  0  0  0  0  0  0  0  0  0
   43.1410   25.5610   31.3990 H   0  0  0  0  0  0  0  0  0  0  0  0
   44.6310   26.7890   30.5060 C   0  0  0  0  0  0  0  0  0  0  0  0
   44.4500   26.3620   29.5310 H   0  0  0  0  0  0  0  0  0  0  0  0
   45.5620   27.7620   30.7420 C   0  0  0  0  0  0  0  0  0  0  0  0
   46.1100   28.0660   29.8460 H   0  0  0  0  0  0  0  0  0  0  0  0
   45.8340   28.3410   31.9650 C   0  0  0  0  0  0  0  0  0  0  0  0
   46.8080   29.3280   32.0940 N   0  0  0  0  0  0  0  0  0  0  0  0
   47.3090   29.5950   31.2210 H   0  0  0  0  0  0  0  0  0  0  0  0
  2  1  2  6  0  0  0
  2  5  1  0  0  0  0
  3  2  1  0  0  0  0
  4  3  1  0  0  0  0
  5 12  1  0  0  0  0
  7  6  1  0  0  0  0
  7  8  1  0  0  0  0
  8 20  1  0  0  0  0
  9  8  2  0  0  0  0
  9 13  1  0  0  0  0
 10 14  1  0  0  0  0
 10  9  1  0  0  0  0
 11 10  2  0  0  0  0
 12 11  1  0  0  0  0
 12  7  2  0  0  0  0
 15 11  1  0  0  0  0
 16 17  1  0  0  0  0
 16 24  1  0  0  0  0
 17 22  1  0  0  0  0
 18 23  1  0  0  0  0
 18 17  2  0  0  0  0
 19 18  1  0  0  0  0
 20 19  2  0  0  0  0
 20 21  1  0  0  0  0
 21 16  2  0  0  0  0
 24 25  1  0  0  0  0
 24 26  1  0  0  0  0
 27  2  1  0  0  0  0
 28 27  1  0  0  0  0
 29 28  2  0  0  0  0
 30 29  1  0  0  0  0
 31 33  2  0  0  0  0
 31 29  1  0  0  0  0
 32 31  1  0  0  0  0
 33 34  1  0  0  0  0
 34 37  1  0  0  0  0
 34 35  2  0  0  0  0
 35 28  1  0  0  0  0
 35 36  1  0  0  0  0
 38 37  1  0  0  0  0
 39 38  1  0  0  0  0
 39 40  1  0  0  0  0
 41 39  2  0  0  0  0
 42 41  1  0  0  0  0
 43 45  2  0  0  0  0
 43 41  1  0  0  0  0
 44 43  1  0  0  0  0
 45 47  1  0  0  0  0
 46 45  1  0  0  0  0
 47 48  1  0  0  0  0
 47 38  2  0  0  0  0
 48 33  1  0  0  0  0
 49 48  1  0  0  0  0
M  END
>  <minimizedAffinity>
-7.08805466

>  <minimizedRMSD>
3.27342486

$$$$
