
 OpenBabel03252502563D

 50 54  0  0  0  0  0  0  0  0999 V2000
   44.5670   26.3830   46.7490 O   0  0  0  0  0  0  0  0  0  0  0  0
   45.1790   27.4110   47.6900 P   0  0  2  0  0  0  0  0  0  0  0  0
   44.5670   27.1880   49.2390 O   0  0  0  0  0  0  0  0  0  0  0  0
   45.2610   27.1940   49.9490 H   0  0  0  0  0  0  0  0  0  0  0  0
   44.6730   28.9530   47.1660 O   0  0  0  0  0  0  0  0  0  0  0  0
   45.3030   30.1950   44.4060 Br  0  0  0  0  0  0  0  0  0  0  0  0
   45.8810   30.7960   46.1540 C   0  0  0  0  0  0  0  0  0  0  0  0
   46.6690   31.9130   46.1740 C   0  0  0  0  0  0  0  0  0  0  0  0
   47.0660   32.3140   47.4510 C   0  0  0  0  0  0  0  0  0  0  0  0
   46.7000   31.6490   48.6050 C   0  0  0  0  0  0  0  0  0  0  0  0
   45.9060   30.5350   48.4970 C   0  0  0  0  0  0  0  0  0  0  0  0
   45.4810   30.0880   47.2620 C   0  0  0  0  0  0  0  0  0  0  0  0
   47.6930   33.1900   47.5470 H   0  0  0  0  0  0  0  0  0  0  0  0
   47.0500   32.0260   49.5590 H   0  0  0  0  0  0  0  0  0  0  0  0
   45.6240   30.0210   49.4020 H   0  0  0  0  0  0  0  0  0  0  0  0
   47.1220   32.7000   45.0240 C   0  0  0  0  0  0  0  0  0  0  0  0
   48.1760   33.0480   45.1200 H   0  0  0  0  0  0  0  0  0  0  0  0
   47.1070   32.0120   44.1340 H   0  0  0  0  0  0  0  0  0  0  0  0
   44.5650   35.4090   45.2450 C   0  0  0  0  0  0  0  0  0  0  0  0
   44.7050   36.0290   44.0020 C   0  0  0  0  0  0  0  0  0  0  0  0
   45.6500   35.5240   43.1230 C   0  0  0  0  0  0  0  0  0  0  0  0
   46.4060   34.4560   43.4860 N   0  0  0  0  0  0  0  0  0  0  0  0
   46.2490   33.8650   44.7120 C   0  0  0  0  0  0  0  0  0  0  0  0
   45.3230   34.3670   45.5620 N   0  0  0  0  0  0  0  0  0  0  0  0
   43.8770   35.6930   46.0190 H   0  0  0  0  0  0  0  0  0  0  0  0
   44.0520   36.8730   43.8150 H   0  0  0  0  0  0  0  0  0  0  0  0
   45.7440   36.0160   42.1670 H   0  0  0  0  0  0  0  0  0  0  0  0
   46.8480   27.2370   47.6590 O   0  0  0  0  0  0  0  0  0  0  0  0
   47.7310   27.8290   46.7780 C   0  0  0  0  0  0  0  0  0  0  0  0
   48.7400   28.6420   47.2520 C   0  0  0  0  0  0  0  0  0  0  0  0
   48.8030   28.7860   48.3120 H   0  0  0  0  0  0  0  0  0  0  0  0
   49.6060   29.2180   46.3450 C   0  0  0  0  0  0  0  0  0  0  0  0
   50.3600   29.8360   46.8140 H   0  0  0  0  0  0  0  0  0  0  0  0
   49.5520   29.0510   44.9790 C   0  0  0  0  0  0  0  0  0  0  0  0
   48.5240   28.2320   44.5810 C   0  0  0  0  0  0  0  0  0  0  0  0
   47.6480   27.6420   45.4170 C   0  0  0  0  0  0  0  0  0  0  0  0
   46.8360   26.9920   45.0860 H   0  0  0  0  0  0  0  0  0  0  0  0
   48.2940   27.8990   42.8450 S   0  0  0  0  0  0  0  0  0  0  0  0
   49.5820   28.8040   42.0130 C   0  0  0  0  0  0  0  0  0  0  0  0
   49.7180   28.7830   40.6560 C   0  0  0  0  0  0  0  0  0  0  0  0
   49.0080   28.1880   40.0590 H   0  0  0  0  0  0  0  0  0  0  0  0
   50.6870   29.4540   39.9100 C   0  0  0  0  0  0  0  0  0  0  0  0
   50.7200   29.3830   38.8480 H   0  0  0  0  0  0  0  0  0  0  0  0
   51.5690   30.1970   40.6730 C   0  0  0  0  0  0  0  0  0  0  0  0
   52.3500   30.7430   40.1510 H   0  0  0  0  0  0  0  0  0  0  0  0
   51.4500   30.2320   42.0520 C   0  0  0  0  0  0  0  0  0  0  0  0
   52.1980   30.8500   42.5730 H   0  0  0  0  0  0  0  0  0  0  0  0
   50.4710   29.5490   42.7410 C   0  0  0  0  0  0  0  0  0  0  0  0
   50.4870   29.6870   44.1280 N   0  0  0  0  0  0  0  0  0  0  0  0
   51.1960   30.2730   44.6160 H   0  0  0  0  0  0  0  0  0  0  0  0
  2  1  2  6  0  0  0
  2  3  1  0  0  0  0
  3  4  1  0  0  0  0
  5 12  1  0  0  0  0
  5  2  1  0  0  0  0
  6  7  1  0  0  0  0
  7  8  2  0  0  0  0
  7 12  1  0  0  0  0
  8  9  1  0  0  0  0
  9 13  1  0  0  0  0
  9 10  2  0  0  0  0
 10 14  1  0  0  0  0
 11 10  1  0  0  0  0
 11 15  1  0  0  0  0
 12 11  2  0  0  0  0
 16 17  1  0  0  0  0
 16  8  1  0  0  0  0
 18 16  1  0  0  0  0
 19 24  1  0  0  0  0
 19 25  1  0  0  0  0
 20 19  2  0  0  0  0
 21 22  2  0  0  0  0
 21 20  1  0  0  0  0
 22 23  1  0  0  0  0
 23 16  1  0  0  0  0
 23 24  2  0  0  0  0
 26 20  1  0  0  0  0
 27 21  1  0  0  0  0
 28  2  1  0  0  0  0
 29 30  1  0  0  0  0
 29 28  1  0  0  0  0
 30 31  1  0  0  0  0
 32 33  1  0  0  0  0
 32 30  2  0  0  0  0
 34 32  1  0  0  0  0
 35 34  2  0  0  0  0
 35 36  1  0  0  0  0
 36 29  2  0  0  0  0
 37 36  1  0  0  0  0
 38 35  1  0  0  0  0
 39 48  1  0  0  0  0
 39 38  1  0  0  0  0
 40 39  2  0  0  0  0
 41 40  1  0  0  0  0
 42 40  1  0  0  0  0
 42 44  2  0  0  0  0
 43 42  1  0  0  0  0
 44 46  1  0  0  0  0
 45 44  1  0  0  0  0
 46 47  1  0  0  0  0
 46 48  2  0  0  0  0
 48 49  1  0  0  0  0
 49 50  1  0  0  0  0
 49 34  1  0  0  0  0
M  END
>  <minimizedAffinity>
-5.33390379

>  <minimizedRMSD>
3.87123227

$$$$
