
 OpenBabel03252506133D

 49 53  0  0  0  0  0  0  0  0999 V2000
   48.1850   34.7940   37.1990 O   0  0  0  0  0  0  0  0  0  0  0  0
   47.4190   33.5050   37.3730 P   0  0  2  0  0  0  0  0  0  0  0  0
   46.0760   33.4630   36.3220 O   0  0  0  0  0  0  0  0  0  0  0  0
   46.0750   34.2860   35.8090 H   0  0  0  0  0  0  0  0  0  0  0  0
   46.8580   33.3050   38.9490 O   0  0  0  0  0  0  0  0  0  0  0  0
   45.2730   33.4380   41.2730 F   0  0  0  0  0  0  0  0  0  0  0  0
   46.4280   34.0750   41.1760 C   0  0  0  0  0  0  0  0  0  0  0  0
   46.8730   34.8290   42.2460 C   0  0  0  0  0  0  0  0  0  0  0  0
   48.0820   35.5340   42.2350 C   0  0  0  0  0  0  0  0  0  0  0  0
   48.8860   35.4820   41.0950 C   0  0  0  0  0  0  0  0  0  0  0  0
   48.4130   34.7210   40.0490 C   0  0  0  0  0  0  0  0  0  0  0  0
   47.2410   34.0320   40.0460 C   0  0  0  0  0  0  0  0  0  0  0  0
   48.3630   36.1070   43.1220 H   0  0  0  0  0  0  0  0  0  0  0  0
   49.8080   36.0400   41.1320 H   0  0  0  0  0  0  0  0  0  0  0  0
   49.1290   34.7580   39.2370 H   0  0  0  0  0  0  0  0  0  0  0  0
   45.4360   33.9930   45.5170 C   0  0  0  0  0  0  0  0  0  0  0  0
   44.5720   35.0790   45.7430 C   0  0  0  0  0  0  0  0  0  0  0  0
   44.4820   36.1090   44.7600 C   0  0  0  0  0  0  0  0  0  0  0  0
   45.2610   35.9590   43.6460 N   0  0  0  0  0  0  0  0  0  0  0  0
   46.0690   34.9120   43.4700 C   0  0  0  0  0  0  0  0  0  0  0  0
   46.1540   33.9430   44.3960 N   0  0  0  0  0  0  0  0  0  0  0  0
   43.9730   35.1770   46.6170 H   0  0  0  0  0  0  0  0  0  0  0  0
   43.8270   36.9550   44.9040 H   0  0  0  0  0  0  0  0  0  0  0  0
   45.5110   32.9790   46.5050 N   0  0  0  0  0  0  0  0  0  0  0  0
   45.2160   31.9700   46.4790 H   0  0  0  0  0  0  0  0  0  0  0  0
   45.9030   33.1140   47.4660 H   0  0  0  0  0  0  0  0  0  0  0  0
   48.4040   32.2250   36.8600 O   0  0  0  0  0  0  0  0  0  0  0  0
   47.8330   31.2410   36.0620 C   0  0  0  0  0  0  0  0  0  0  0  0
   47.0860   30.2630   36.6880 C   0  0  0  0  0  0  0  0  0  0  0  0
   46.9590   30.2780   37.7650 H   0  0  0  0  0  0  0  0  0  0  0  0
   46.5090   29.2740   35.9100 C   0  0  0  0  0  0  0  0  0  0  0  0
   45.9280   28.5310   36.4810 H   0  0  0  0  0  0  0  0  0  0  0  0
   46.6260   29.1930   34.5380 C   0  0  0  0  0  0  0  0  0  0  0  0
   47.3650   30.1670   33.9590 C   0  0  0  0  0  0  0  0  0  0  0  0
   47.9420   31.1460   34.6840 C   0  0  0  0  0  0  0  0  0  0  0  0
   48.5410   31.9330   34.1980 H   0  0  0  0  0  0  0  0  0  0  0  0
   47.5680   30.1370   32.1890 S   0  0  0  0  0  0  0  0  0  0  0  0
   46.6620   28.7070   31.6270 C   0  0  0  0  0  0  0  0  0  0  0  0
   46.6700   28.4670   30.2750 C   0  0  0  0  0  0  0  0  0  0  0  0
   47.1990   29.1140   29.5820 H   0  0  0  0  0  0  0  0  0  0  0  0
   45.9990   27.3880   29.7520 C   0  0  0  0  0  0  0  0  0  0  0  0
   45.9960   27.1900   28.7010 H   0  0  0  0  0  0  0  0  0  0  0  0
   45.3290   26.5690   30.6240 C   0  0  0  0  0  0  0  0  0  0  0  0
   44.8040   25.7230   30.2070 H   0  0  0  0  0  0  0  0  0  0  0  0
   45.3580   26.8580   31.9600 C   0  0  0  0  0  0  0  0  0  0  0  0
   44.7940   26.1450   32.5700 H   0  0  0  0  0  0  0  0  0  0  0  0
   46.0110   27.9230   32.5430 C   0  0  0  0  0  0  0  0  0  0  0  0
   45.9740   28.1250   33.9210 N   0  0  0  0  0  0  0  0  0  0  0  0
   45.4290   27.4280   34.4720 H   0  0  0  0  0  0  0  0  0  0  0  0
  2  1  2  6  0  0  0
  2  5  1  0  0  0  0
  3  2  1  0  0  0  0
  4  3  1  0  0  0  0
  5 12  1  0  0  0  0
  7  6  1  0  0  0  0
  7  8  1  0  0  0  0
  8 20  1  0  0  0  0
  9  8  2  0  0  0  0
  9 13  1  0  0  0  0
 10 14  1  0  0  0  0
 10  9  1  0  0  0  0
 11 10  2  0  0  0  0
 12 11  1  0  0  0  0
 12  7  2  0  0  0  0
 15 11  1  0  0  0  0
 16 17  1  0  0  0  0
 16 24  1  0  0  0  0
 17 22  1  0  0  0  0
 18 23  1  0  0  0  0
 18 17  2  0  0  0  0
 19 18  1  0  0  0  0
 20 19  2  0  0  0  0
 20 21  1  0  0  0  0
 21 16  2  0  0  0  0
 24 26  1  0  0  0  0
 25 24  1  0  0  0  0
 27  2  1  0  0  0  0
 28 29  1  0  0  0  0
 28 27  1  0  0  0  0
 29 30  1  0  0  0  0
 31 32  1  0  0  0  0
 31 29  2  0  0  0  0
 33 31  1  0  0  0  0
 34 33  2  0  0  0  0
 34 35  1  0  0  0  0
 35 28  2  0  0  0  0
 36 35  1  0  0  0  0
 37 34  1  0  0  0  0
 38 37  1  0  0  0  0
 38 47  1  0  0  0  0
 39 38  2  0  0  0  0
 40 39  1  0  0  0  0
 41 39  1  0  0  0  0
 41 43  2  0  0  0  0
 42 41  1  0  0  0  0
 43 45  1  0  0  0  0
 44 43  1  0  0  0  0
 45 47  2  0  0  0  0
 45 46  1  0  0  0  0
 47 48  1  0  0  0  0
 48 49  1  0  0  0  0
 48 33  1  0  0  0  0
M  END
>  <minimizedAffinity>
-7.25643349

>  <minimizedRMSD>
2.51261449

$$$$
