
 OpenBabel03252506133D

 49 53  0  0  0  0  0  0  0  0999 V2000
   48.1830   34.8440   37.0950 O   0  0  0  0  0  0  0  0  0  0  0  0
   47.4270   33.5490   37.2630 P   0  0  2  0  0  0  0  0  0  0  0  0
   46.0030   33.5630   36.3250 O   0  0  0  0  0  0  0  0  0  0  0  0
   45.9640   34.4120   35.8580 H   0  0  0  0  0  0  0  0  0  0  0  0
   46.9950   33.2660   38.8670 O   0  0  0  0  0  0  0  0  0  0  0  0
   45.4250   33.3590   41.2040 F   0  0  0  0  0  0  0  0  0  0  0  0
   46.5490   34.0480   41.0870 C   0  0  0  0  0  0  0  0  0  0  0  0
   46.9680   34.8360   42.1430 C   0  0  0  0  0  0  0  0  0  0  0  0
   48.1420   35.5970   42.1110 C   0  0  0  0  0  0  0  0  0  0  0  0
   48.9370   35.5660   40.9640 C   0  0  0  0  0  0  0  0  0  0  0  0
   48.4910   34.7700   39.9340 C   0  0  0  0  0  0  0  0  0  0  0  0
   47.3530   34.0260   39.9510 C   0  0  0  0  0  0  0  0  0  0  0  0
   48.4030   36.1950   42.9870 H   0  0  0  0  0  0  0  0  0  0  0  0
   49.8330   36.1670   40.9850 H   0  0  0  0  0  0  0  0  0  0  0  0
   49.1980   34.8280   39.1140 H   0  0  0  0  0  0  0  0  0  0  0  0
   45.7020   34.0690   45.5010 C   0  0  0  0  0  0  0  0  0  0  0  0
   44.6860   35.0280   45.6560 C   0  0  0  0  0  0  0  0  0  0  0  0
   44.4330   35.9480   44.5960 C   0  0  0  0  0  0  0  0  0  0  0  0
   45.2160   35.8250   43.4810 N   0  0  0  0  0  0  0  0  0  0  0  0
   46.1710   34.9000   43.3730 C   0  0  0  0  0  0  0  0  0  0  0  0
   46.4090   34.0340   44.3720 N   0  0  0  0  0  0  0  0  0  0  0  0
   44.0870   35.1080   46.5320 H   0  0  0  0  0  0  0  0  0  0  0  0
   43.6590   36.6960   44.6850 H   0  0  0  0  0  0  0  0  0  0  0  0
   45.9380   33.1630   46.5650 N   0  0  0  0  0  0  0  0  0  0  0  0
   45.7980   32.1220   46.6270 H   0  0  0  0  0  0  0  0  0  0  0  0
   46.3140   33.4350   47.5030 H   0  0  0  0  0  0  0  0  0  0  0  0
   48.3600   32.2960   36.6060 O   0  0  0  0  0  0  0  0  0  0  0  0
   47.7910   31.5120   35.6100 C   0  0  0  0  0  0  0  0  0  0  0  0
   48.0940   31.8220   34.3000 C   0  0  0  0  0  0  0  0  0  0  0  0
   48.7560   32.6520   34.0730 H   0  0  0  0  0  0  0  0  0  0  0  0
   47.5380   31.0520   33.2920 C   0  0  0  0  0  0  0  0  0  0  0  0
   47.8270   31.3610   32.2750 H   0  0  0  0  0  0  0  0  0  0  0  0
   46.6900   29.9840   33.5060 C   0  0  0  0  0  0  0  0  0  0  0  0
   46.4150   29.7100   34.8010 C   0  0  0  0  0  0  0  0  0  0  0  0
   46.9400   30.4380   35.8070 C   0  0  0  0  0  0  0  0  0  0  0  0
   46.7050   30.2020   36.8580 H   0  0  0  0  0  0  0  0  0  0  0  0
   45.3280   28.3450   35.1640 S   0  0  0  0  0  0  0  0  0  0  0  0
   44.8680   27.6650   33.5810 C   0  0  0  0  0  0  0  0  0  0  0  0
   44.0210   26.5850   33.6010 C   0  0  0  0  0  0  0  0  0  0  0  0
   43.6480   26.1650   34.5300 H   0  0  0  0  0  0  0  0  0  0  0  0
   43.6120   25.9950   32.4290 C   0  0  0  0  0  0  0  0  0  0  0  0
   42.9520   25.1530   32.4290 H   0  0  0  0  0  0  0  0  0  0  0  0
   44.0800   26.5210   31.2520 C   0  0  0  0  0  0  0  0  0  0  0  0
   43.7560   26.0530   30.3350 H   0  0  0  0  0  0  0  0  0  0  0  0
   44.9210   27.5970   31.2960 C   0  0  0  0  0  0  0  0  0  0  0  0
   45.2380   27.9420   30.3060 H   0  0  0  0  0  0  0  0  0  0  0  0
   45.3660   28.2310   32.4380 C   0  0  0  0  0  0  0  0  0  0  0  0
   46.2250   29.3240   32.3680 N   0  0  0  0  0  0  0  0  0  0  0  0
   46.5070   29.6250   31.4100 H   0  0  0  0  0  0  0  0  0  0  0  0
  2  1  2  6  0  0  0
  2  5  1  0  0  0  0
  3  2  1  0  0  0  0
  4  3  1  0  0  0  0
  5 12  1  0  0  0  0
  7  6  1  0  0  0  0
  7  8  1  0  0  0  0
  8 20  1  0  0  0  0
  9  8  2  0  0  0  0
  9 13  1  0  0  0  0
 10 14  1  0  0  0  0
 10  9  1  0  0  0  0
 11 12  1  0  0  0  0
 11 10  2  0  0  0  0
 12  7  2  0  0  0  0
 15 11  1  0  0  0  0
 16 17  1  0  0  0  0
 16 24  1  0  0  0  0
 17 22  1  0  0  0  0
 18 23  1  0  0  0  0
 18 17  2  0  0  0  0
 19 18  1  0  0  0  0
 20 19  2  0  0  0  0
 20 21  1  0  0  0  0
 21 16  2  0  0  0  0
 24 25  1  0  0  0  0
 24 26  1  0  0  0  0
 27  2  1  0  0  0  0
 28 35  1  0  0  0  0
 28 27  1  0  0  0  0
 29 28  2  0  0  0  0
 30 29  1  0  0  0  0
 31 33  2  0  0  0  0
 31 29  1  0  0  0  0
 32 31  1  0  0  0  0
 33 34  1  0  0  0  0
 34 37  1  0  0  0  0
 34 35  2  0  0  0  0
 35 36  1  0  0  0  0
 38 39  1  0  0  0  0
 38 37  1  0  0  0  0
 39 40  1  0  0  0  0
 41 39  2  0  0  0  0
 42 41  1  0  0  0  0
 43 45  2  0  0  0  0
 43 41  1  0  0  0  0
 44 43  1  0  0  0  0
 45 47  1  0  0  0  0
 46 45  1  0  0  0  0
 47 38  2  0  0  0  0
 48 47  1  0  0  0  0
 48 33  1  0  0  0  0
 49 48  1  0  0  0  0
M  END
>  <minimizedAffinity>
-7.11372948

>  <minimizedRMSD>
2.75108027

$$$$
