
 OpenBabel03242520393D

 52 57  0  0  1  0  0  0  0  0999 V2000
   48.1320   30.1000   47.9920 C   0  0  0  0  0  0  0  0  0  0  0  0
   47.6620   30.8780   49.0280 C   0  0  0  0  0  0  0  0  0  0  0  0
   48.6590   31.4270   49.7290 N   0  0  0  0  0  0  0  0  0  0  0  0
   49.7790   31.0000   49.1380 C   0  0  0  0  0  0  0  0  0  0  0  0
   49.4670   30.2120   48.1090 N   0  0  0  0  0  0  0  0  0  0  0  0
   46.6140   31.0240   49.2430 H   0  0  0  0  0  0  0  0  0  0  0  0
   48.5950   32.0600   50.5620 H   0  0  0  0  0  0  0  0  0  0  0  0
   46.0510   33.4730   45.4850 C   0  0  0  0  0  0  0  0  0  0  0  0
   46.8950   33.5280   44.3460 C   0  0  0  0  0  0  0  0  0  0  0  0
   47.5420   32.3250   43.9320 C   0  0  0  0  0  0  0  0  0  0  0  0
   47.3190   31.1790   44.6440 N   0  0  0  0  0  0  0  0  0  0  0  0
   46.5000   31.1900   45.7240 C   0  0  0  0  0  0  0  0  0  0  0  0
   45.8790   32.3230   46.1320 N   0  0  0  0  0  0  0  0  0  0  0  0
   46.3360   29.9680   46.3920 N   0  0  0  0  0  0  0  0  0  0  0  0
   47.4540   29.2860   46.9550 C   0  0  2  0  0  0  0  0  0  0  0  0
   47.1770   27.8920   47.4000 C   0  0  0  0  0  0  0  0  0  0  0  0
   45.8650   27.5990   47.8350 N   0  0  0  0  0  0  0  0  0  0  0  0
   44.9860   28.7200   47.8600 C   0  0  0  0  0  0  0  0  0  0  0  0
   45.0130   29.3880   46.5140 C   0  0  0  0  0  0  0  0  0  0  0  0
   45.5900   34.4000   45.7540 H   0  0  0  0  0  0  0  0  0  0  0  0
   47.1000   34.3990   43.7580 H   0  0  0  0  0  0  0  0  0  0  0  0
   48.1870   32.3170   43.0820 H   0  0  0  0  0  0  0  0  0  0  0  0
   48.1880   29.1550   46.1000 H   0  0  0  0  0  0  0  0  0  0  0  0
   47.4650   27.1250   46.6520 H   0  0  0  0  0  0  0  0  0  0  0  0
   47.8690   27.7020   48.2690 H   0  0  0  0  0  0  0  0  0  0  0  0
   45.8170   27.1420   48.7780 H   0  0  0  0  0  0  0  0  0  0  0  0
   43.9410   28.2970   47.9670 H   0  0  0  0  0  0  0  0  0  0  0  0
   45.1110   29.3990   48.7170 H   0  0  0  0  0  0  0  0  0  0  0  0
   44.1970   30.1170   46.3770 H   0  0  0  0  0  0  0  0  0  0  0  0
   44.9420   28.5930   45.7560 H   0  0  0  0  0  0  0  0  0  0  0  0
   51.1600   31.3010   49.4990 C   0  0  0  0  0  0  0  0  0  0  0  0
   51.6160   32.5520   49.8570 C   0  0  0  0  0  0  0  0  0  0  0  0
   50.9100   33.3710   49.8740 H   0  0  0  0  0  0  0  0  0  0  0  0
   52.9370   32.7220   50.1780 C   0  0  0  0  0  0  0  0  0  0  0  0
   53.2090   33.7480   50.4510 H   0  0  0  0  0  0  0  0  0  0  0  0
   53.8790   31.7190   50.1750 C   0  0  0  0  0  0  0  0  0  0  0  0
   53.3960   30.4870   49.8150 C   0  0  0  0  0  0  0  0  0  0  0  0
   52.0850   30.2800   49.4880 C   0  0  0  0  0  0  0  0  0  0  0  0
   51.7530   29.2880   49.2120 H   0  0  0  0  0  0  0  0  0  0  0  0
   54.5270   29.1130   49.7760 S   0  0  0  0  0  0  0  0  0  0  0  0
   56.1170   29.7550   50.2530 C   0  0  0  0  0  0  0  0  0  0  0  0
   57.1870   28.9050   50.3080 C   0  0  0  0  0  0  0  0  0  0  0  0
   57.0640   27.8570   50.0650 H   0  0  0  0  0  0  0  0  0  0  0  0
   58.4460   29.3370   50.6700 C   0  0  0  0  0  0  0  0  0  0  0  0
   59.3340   28.7250   50.7350 H   0  0  0  0  0  0  0  0  0  0  0  0
   58.5860   30.6740   50.9780 C   0  0  0  0  0  0  0  0  0  0  0  0
   59.5560   31.0550   51.2670 H   0  0  0  0  0  0  0  0  0  0  0  0
   57.4830   31.4990   50.9090 C   0  0  0  0  0  0  0  0  0  0  0  0
   57.6810   32.5480   51.1700 H   0  0  0  0  0  0  0  0  0  0  0  0
   56.2190   31.0890   50.5510 C   0  0  0  0  0  0  0  0  0  0  0  0
   55.1960   32.0630   50.5320 N   0  0  0  0  0  0  0  0  0  0  0  0
   55.4220   33.0440   50.7840 H   0  0  0  0  0  0  0  0  0  0  0  0
  1  5  1  0  0  0  0
  1  2  2  0  0  0  0
  2  6  1  0  0  0  0
  2  3  1  0  0  0  0
  3  7  1  0  0  0  0
  4 31  1  0  0  0  0
  4  3  1  0  0  0  0
  5  4  2  0  0  0  0
  8 20  1  0  0  0  0
  8 13  1  0  0  0  0
  9  8  2  0  0  0  0
 10  9  1  0  0  0  0
 10 11  2  0  0  0  0
 11 12  1  0  0  0  0
 12 13  2  0  0  0  0
 12 14  1  0  0  0  0
 14 19  1  0  0  0  0
 14 15  1  0  0  0  0
 15 23  1  6  0  0  0
 15 16  1  0  0  0  0
 15  1  1  0  0  0  0
 16 17  1  0  0  0  0
 16 25  1  0  0  0  0
 17 18  1  0  0  0  0
 17 26  1  0  0  0  0
 18 27  1  0  0  0  0
 18 28  1  0  0  0  0
 19 18  1  0  0  0  0
 21  9  1  0  0  0  0
 22 10  1  0  0  0  0
 24 16  1  0  0  0  0
 29 19  1  0  0  0  0
 30 19  1  0  0  0  0
 31 32  1  0  0  0  0
 32 33  1  0  0  0  0
 32 34  2  0  0  0  0
 34 35  1  0  0  0  0
 36 34  1  0  0  0  0
 36 51  1  0  0  0  0
 37 36  2  0  0  0  0
 38 31  2  0  0  0  0
 38 37  1  0  0  0  0
 39 38  1  0  0  0  0
 40 37  1  0  0  0  0
 40 41  1  0  0  0  0
 41 42  2  0  0  0  0
 41 50  1  0  0  0  0
 42 44  1  0  0  0  0
 43 42  1  0  0  0  0
 44 45  1  0  0  0  0
 44 46  2  0  0  0  0
 46 47  1  0  0  0  0
 48 46  1  0  0  0  0
 48 49  1  0  0  0  0
 50 48  2  0  0  0  0
 51 50  1  0  0  0  0
 51 52  1  0  0  0  0
M  END
>  <minimizedAffinity>
-5.35234022

>  <minimizedRMSD>
0.564442635

$$$$
