
 OpenBabel03242520403D

 52 57  0  0  1  0  0  0  0  0999 V2000
   48.1380   29.9990   48.0660 C   0  0  0  0  0  0  0  0  0  0  0  0
   47.6620   30.9190   48.9740 C   0  0  0  0  0  0  0  0  0  0  0  0
   48.6340   31.3840   49.7670 N   0  0  0  0  0  0  0  0  0  0  0  0
   49.7430   30.7590   49.3630 C   0  0  0  0  0  0  0  0  0  0  0  0
   49.4500   29.9360   48.3540 N   0  0  0  0  0  0  0  0  0  0  0  0
   46.6280   31.2260   49.0350 H   0  0  0  0  0  0  0  0  0  0  0  0
   48.5610   32.0870   50.5390 H   0  0  0  0  0  0  0  0  0  0  0  0
   45.9680   33.3940   45.6660 C   0  0  0  0  0  0  0  0  0  0  0  0
   46.8100   33.5090   44.5310 C   0  0  0  0  0  0  0  0  0  0  0  0
   47.4890   32.3370   44.0790 C   0  0  0  0  0  0  0  0  0  0  0  0
   47.2970   31.1630   44.7530 N   0  0  0  0  0  0  0  0  0  0  0  0
   46.4780   31.1170   45.8320 C   0  0  0  0  0  0  0  0  0  0  0  0
   45.8260   32.2200   46.2760 N   0  0  0  0  0  0  0  0  0  0  0  0
   46.3470   29.8710   46.4600 N   0  0  0  0  0  0  0  0  0  0  0  0
   47.4830   29.2010   47.0020 C   0  0  2  0  0  0  0  0  0  0  0  0
   47.2430   27.7870   47.4020 C   0  0  0  0  0  0  0  0  0  0  0  0
   45.9390   27.4450   47.8250 N   0  0  0  0  0  0  0  0  0  0  0  0
   45.0300   28.5400   47.8860 C   0  0  0  0  0  0  0  0  0  0  0  0
   45.0400   29.2520   46.5620 C   0  0  0  0  0  0  0  0  0  0  0  0
   45.4820   34.2990   45.9640 H   0  0  0  0  0  0  0  0  0  0  0  0
   46.9920   34.4040   43.9710 H   0  0  0  0  0  0  0  0  0  0  0  0
   48.1340   32.3740   43.2290 H   0  0  0  0  0  0  0  0  0  0  0  0
   48.2200   29.1180   46.1440 H   0  0  0  0  0  0  0  0  0  0  0  0
   47.5510   27.0520   46.6300 H   0  0  0  0  0  0  0  0  0  0  0  0
   47.9400   27.5870   48.2650 H   0  0  0  0  0  0  0  0  0  0  0  0
   45.9040   26.9570   48.7540 H   0  0  0  0  0  0  0  0  0  0  0  0
   43.9970   28.0860   47.9780 H   0  0  0  0  0  0  0  0  0  0  0  0
   45.1360   29.1950   48.7650 H   0  0  0  0  0  0  0  0  0  0  0  0
   44.2040   29.9630   46.4480 H   0  0  0  0  0  0  0  0  0  0  0  0
   44.9900   28.4800   45.7790 H   0  0  0  0  0  0  0  0  0  0  0  0
   51.0980   30.8960   49.8870 C   0  0  0  0  0  0  0  0  0  0  0  0
   51.4580   30.6170   51.1890 C   0  0  0  0  0  0  0  0  0  0  0  0
   50.6950   30.2730   51.8740 H   0  0  0  0  0  0  0  0  0  0  0  0
   52.7620   30.7800   51.5760 C   0  0  0  0  0  0  0  0  0  0  0  0
   52.9580   30.5350   52.6260 H   0  0  0  0  0  0  0  0  0  0  0  0
   53.7770   31.2110   50.7530 C   0  0  0  0  0  0  0  0  0  0  0  0
   53.3870   31.4810   49.4670 C   0  0  0  0  0  0  0  0  0  0  0  0
   52.0960   31.3300   49.0430 C   0  0  0  0  0  0  0  0  0  0  0  0
   51.8380   31.5550   48.0180 H   0  0  0  0  0  0  0  0  0  0  0  0
   54.6160   32.0480   48.3110 S   0  0  0  0  0  0  0  0  0  0  0  0
   56.1530   32.1210   49.2060 C   0  0  0  0  0  0  0  0  0  0  0  0
   57.2830   32.5310   48.5520 C   0  0  0  0  0  0  0  0  0  0  0  0
   57.2390   32.8060   47.5060 H   0  0  0  0  0  0  0  0  0  0  0  0
   58.5050   32.6110   49.1860 C   0  0  0  0  0  0  0  0  0  0  0  0
   59.4370   32.9250   48.7360 H   0  0  0  0  0  0  0  0  0  0  0  0
   58.5460   32.2570   50.5180 C   0  0  0  0  0  0  0  0  0  0  0  0
   59.4830   32.3050   51.0540 H   0  0  0  0  0  0  0  0  0  0  0  0
   57.3850   31.8500   51.1410 C   0  0  0  0  0  0  0  0  0  0  0  0
   57.5040   31.5860   52.2010 H   0  0  0  0  0  0  0  0  0  0  0  0
   56.1560   31.7620   50.5280 C   0  0  0  0  0  0  0  0  0  0  0  0
   55.0640   31.3250   51.3110 N   0  0  0  0  0  0  0  0  0  0  0  0
   55.2160   31.0860   52.3090 H   0  0  0  0  0  0  0  0  0  0  0  0
  1  5  1  0  0  0  0
  1  2  2  0  0  0  0
  2  6  1  0  0  0  0
  2  3  1  0  0  0  0
  3  7  1  0  0  0  0
  4  3  1  0  0  0  0
  4 31  1  0  0  0  0
  5  4  2  0  0  0  0
  8 20  1  0  0  0  0
  8 13  1  0  0  0  0
  9  8  2  0  0  0  0
 10  9  1  0  0  0  0
 10 11  2  0  0  0  0
 11 12  1  0  0  0  0
 12 13  2  0  0  0  0
 12 14  1  0  0  0  0
 14 19  1  0  0  0  0
 14 15  1  0  0  0  0
 15 23  1  6  0  0  0
 15 16  1  0  0  0  0
 15  1  1  0  0  0  0
 16 17  1  0  0  0  0
 16 25  1  0  0  0  0
 17 18  1  0  0  0  0
 17 26  1  0  0  0  0
 18 27  1  0  0  0  0
 18 28  1  0  0  0  0
 19 18  1  0  0  0  0
 21  9  1  0  0  0  0
 22 10  1  0  0  0  0
 24 16  1  0  0  0  0
 29 19  1  0  0  0  0
 30 19  1  0  0  0  0
 31 32  1  0  0  0  0
 32 34  2  0  0  0  0
 32 33  1  0  0  0  0
 34 35  1  0  0  0  0
 36 51  1  0  0  0  0
 36 34  1  0  0  0  0
 37 36  2  0  0  0  0
 38 37  1  0  0  0  0
 38 31  2  0  0  0  0
 39 38  1  0  0  0  0
 40 41  1  0  0  0  0
 40 37  1  0  0  0  0
 41 50  1  0  0  0  0
 42 44  1  0  0  0  0
 42 41  2  0  0  0  0
 43 42  1  0  0  0  0
 44 46  2  0  0  0  0
 45 44  1  0  0  0  0
 46 47  1  0  0  0  0
 46 48  1  0  0  0  0
 48 49  1  0  0  0  0
 50 48  2  0  0  0  0
 50 51  1  0  0  0  0
 51 52  1  0  0  0  0
M  END
>  <minimizedAffinity>
-5.40063667

>  <minimizedRMSD>
0.814126968

$$$$
