
 OpenBabel03242520403D

 52 57  0  0  1  0  0  0  0  0999 V2000
   48.1200   30.1000   47.9970 C   0  0  0  0  0  0  0  0  0  0  0  0
   47.6340   30.9120   48.9990 C   0  0  0  0  0  0  0  0  0  0  0  0
   48.6200   31.4490   49.7260 N   0  0  0  0  0  0  0  0  0  0  0  0
   49.7480   30.9790   49.1850 C   0  0  0  0  0  0  0  0  0  0  0  0
   49.4520   30.1790   48.1600 N   0  0  0  0  0  0  0  0  0  0  0  0
   46.5840   31.0910   49.1730 H   0  0  0  0  0  0  0  0  0  0  0  0
   48.5450   32.0990   50.5430 H   0  0  0  0  0  0  0  0  0  0  0  0
   46.0260   33.4620   45.4860 C   0  0  0  0  0  0  0  0  0  0  0  0
   46.8780   33.5300   44.3540 C   0  0  0  0  0  0  0  0  0  0  0  0
   47.5390   32.3340   43.9400 C   0  0  0  0  0  0  0  0  0  0  0  0
   47.3220   31.1830   44.6470 N   0  0  0  0  0  0  0  0  0  0  0  0
   46.4950   31.1830   45.7210 C   0  0  0  0  0  0  0  0  0  0  0  0
   45.8590   32.3090   46.1280 N   0  0  0  0  0  0  0  0  0  0  0  0
   46.3370   29.9570   46.3830 N   0  0  0  0  0  0  0  0  0  0  0  0
   47.4570   29.2840   46.9520 C   0  0  2  0  0  0  0  0  0  0  0  0
   47.1900   27.8860   47.3900 C   0  0  0  0  0  0  0  0  0  0  0  0
   45.8770   27.5790   47.8140 N   0  0  0  0  0  0  0  0  0  0  0  0
   44.9880   28.6920   47.8360 C   0  0  0  0  0  0  0  0  0  0  0  0
   45.0190   29.3650   46.4930 C   0  0  0  0  0  0  0  0  0  0  0  0
   45.5540   34.3840   45.7550 H   0  0  0  0  0  0  0  0  0  0  0  0
   47.0790   34.4050   43.7700 H   0  0  0  0  0  0  0  0  0  0  0  0
   48.1900   32.3350   43.0950 H   0  0  0  0  0  0  0  0  0  0  0  0
   48.1990   29.1630   46.1020 H   0  0  0  0  0  0  0  0  0  0  0  0
   47.4900   27.1240   46.6420 H   0  0  0  0  0  0  0  0  0  0  0  0
   47.8770   27.6990   48.2630 H   0  0  0  0  0  0  0  0  0  0  0  0
   45.8270   27.1180   48.7560 H   0  0  0  0  0  0  0  0  0  0  0  0
   43.9460   28.2590   47.9350 H   0  0  0  0  0  0  0  0  0  0  0  0
   45.1000   29.3690   48.6970 H   0  0  0  0  0  0  0  0  0  0  0  0
   44.1970   30.0860   46.3530 H   0  0  0  0  0  0  0  0  0  0  0  0
   44.9610   28.5710   45.7320 H   0  0  0  0  0  0  0  0  0  0  0  0
   51.1230   31.2490   49.5900 C   0  0  0  0  0  0  0  0  0  0  0  0
   51.6370   32.5110   49.8060 C   0  0  0  0  0  0  0  0  0  0  0  0
   50.9860   33.3630   49.6690 H   0  0  0  0  0  0  0  0  0  0  0  0
   52.9460   32.6500   50.1850 C   0  0  0  0  0  0  0  0  0  0  0  0
   53.2680   33.6870   50.3350 H   0  0  0  0  0  0  0  0  0  0  0  0
   53.8220   31.6060   50.3760 C   0  0  0  0  0  0  0  0  0  0  0  0
   53.2830   30.3650   50.1530 C   0  0  0  0  0  0  0  0  0  0  0  0
   51.9820   30.1870   49.7740 C   0  0  0  0  0  0  0  0  0  0  0  0
   51.6020   29.1880   49.6110 H   0  0  0  0  0  0  0  0  0  0  0  0
   54.3240   28.9380   50.3690 S   0  0  0  0  0  0  0  0  0  0  0  0
   55.9230   29.5510   50.8570 C   0  0  0  0  0  0  0  0  0  0  0  0
   56.9320   28.6580   51.0940 C   0  0  0  0  0  0  0  0  0  0  0  0
   56.7570   27.5950   50.9850 H   0  0  0  0  0  0  0  0  0  0  0  0
   58.1940   29.0650   51.4740 C   0  0  0  0  0  0  0  0  0  0  0  0
   59.0370   28.4200   51.6770 H   0  0  0  0  0  0  0  0  0  0  0  0
   58.4010   30.4220   51.6090 C   0  0  0  0  0  0  0  0  0  0  0  0
   59.3750   30.7850   51.9050 H   0  0  0  0  0  0  0  0  0  0  0  0
   57.3590   31.2890   51.3620 C   0  0  0  0  0  0  0  0  0  0  0  0
   57.6070   32.3520   51.4910 H   0  0  0  0  0  0  0  0  0  0  0  0
   56.0930   30.9050   50.9810 C   0  0  0  0  0  0  0  0  0  0  0  0
   55.1370   31.9230   50.7670 N   0  0  0  0  0  0  0  0  0  0  0  0
   55.4090   32.9150   50.8990 H   0  0  0  0  0  0  0  0  0  0  0  0
  1  5  1  0  0  0  0
  1  2  2  0  0  0  0
  2  6  1  0  0  0  0
  2  3  1  0  0  0  0
  3  7  1  0  0  0  0
  4 31  1  0  0  0  0
  4  3  1  0  0  0  0
  5  4  2  0  0  0  0
  8 20  1  0  0  0  0
  8 13  1  0  0  0  0
  9  8  2  0  0  0  0
 10  9  1  0  0  0  0
 10 11  2  0  0  0  0
 11 12  1  0  0  0  0
 12 13  2  0  0  0  0
 12 14  1  0  0  0  0
 14 19  1  0  0  0  0
 14 15  1  0  0  0  0
 15 23  1  6  0  0  0
 15 16  1  0  0  0  0
 15  1  1  0  0  0  0
 16 17  1  0  0  0  0
 16 25  1  0  0  0  0
 17 18  1  0  0  0  0
 17 26  1  0  0  0  0
 18 27  1  0  0  0  0
 18 28  1  0  0  0  0
 19 18  1  0  0  0  0
 21  9  1  0  0  0  0
 22 10  1  0  0  0  0
 24 16  1  0  0  0  0
 29 19  1  0  0  0  0
 30 19  1  0  0  0  0
 31 38  2  0  0  0  0
 31 32  1  0  0  0  0
 32 34  2  0  0  0  0
 33 32  1  0  0  0  0
 34 35  1  0  0  0  0
 34 36  1  0  0  0  0
 36 51  1  0  0  0  0
 37 40  1  0  0  0  0
 37 36  2  0  0  0  0
 38 37  1  0  0  0  0
 39 38  1  0  0  0  0
 40 41  1  0  0  0  0
 41 50  2  0  0  0  0
 41 42  1  0  0  0  0
 42 44  2  0  0  0  0
 43 42  1  0  0  0  0
 44 46  1  0  0  0  0
 44 45  1  0  0  0  0
 46 47  1  0  0  0  0
 48 49  1  0  0  0  0
 48 46  2  0  0  0  0
 50 48  1  0  0  0  0
 51 52  1  0  0  0  0
 51 50  1  0  0  0  0
M  END
>  <minimizedAffinity>
-5.39811039

>  <minimizedRMSD>
0.550798535

$$$$
