
 OpenBabel03242520403D

 52 57  0  0  1  0  0  0  0  0999 V2000
   48.0380   30.1650   47.9630 C   0  0  0  0  0  0  0  0  0  0  0  0
   47.3950   31.1210   48.7190 C   0  0  0  0  0  0  0  0  0  0  0  0
   48.2230   31.7070   49.5900 N   0  0  0  0  0  0  0  0  0  0  0  0
   49.4090   31.1240   49.3910 C   0  0  0  0  0  0  0  0  0  0  0  0
   49.2990   30.2080   48.4270 N   0  0  0  0  0  0  0  0  0  0  0  0
   46.3480   31.3650   48.6160 H   0  0  0  0  0  0  0  0  0  0  0  0
   48.0080   32.4620   50.2830 H   0  0  0  0  0  0  0  0  0  0  0  0
   46.1550   33.2310   44.9550 C   0  0  0  0  0  0  0  0  0  0  0  0
   47.1570   33.2810   43.9520 C   0  0  0  0  0  0  0  0  0  0  0  0
   47.9320   32.1050   43.7200 C   0  0  0  0  0  0  0  0  0  0  0  0
   47.6760   30.9890   44.4670 N   0  0  0  0  0  0  0  0  0  0  0  0
   46.7040   31.0030   45.4120 C   0  0  0  0  0  0  0  0  0  0  0  0
   45.9580   32.1110   45.6470 N   0  0  0  0  0  0  0  0  0  0  0  0
   46.5160   29.8140   46.1290 N   0  0  0  0  0  0  0  0  0  0  0  0
   47.5770   29.2470   46.8950 C   0  0  2  0  0  0  0  0  0  0  0  0
   47.3220   27.8640   47.3880 C   0  0  0  0  0  0  0  0  0  0  0  0
   45.9800   27.5040   47.6430 N   0  0  0  0  0  0  0  0  0  0  0  0
   45.0400   28.5590   47.4630 C   0  0  0  0  0  0  0  0  0  0  0  0
   45.2290   29.1480   46.0940 C   0  0  0  0  0  0  0  0  0  0  0  0
   45.6020   34.1370   45.0900 H   0  0  0  0  0  0  0  0  0  0  0  0
   47.3940   34.1290   43.3430 H   0  0  0  0  0  0  0  0  0  0  0  0
   48.6980   32.0940   42.9760 H   0  0  0  0  0  0  0  0  0  0  0  0
   48.4380   29.1200   46.1680 H   0  0  0  0  0  0  0  0  0  0  0  0
   47.7670   27.0780   46.7430 H   0  0  0  0  0  0  0  0  0  0  0  0
   47.8860   27.7740   48.3600 H   0  0  0  0  0  0  0  0  0  0  0  0
   45.8190   27.1000   48.5980 H   0  0  0  0  0  0  0  0  0  0  0  0
   44.0190   28.0690   47.4440 H   0  0  0  0  0  0  0  0  0  0  0  0
   44.9910   29.2930   48.2820 H   0  0  0  0  0  0  0  0  0  0  0  0
   44.3990   29.8080   45.7900 H   0  0  0  0  0  0  0  0  0  0  0  0
   45.3230   28.3080   45.3890 H   0  0  0  0  0  0  0  0  0  0  0  0
   50.6700   31.3870   50.0760 C   0  0  0  0  0  0  0  0  0  0  0  0
   51.7710   31.9660   49.4810 C   0  0  0  0  0  0  0  0  0  0  0  0
   51.7060   32.2480   48.4390 H   0  0  0  0  0  0  0  0  0  0  0  0
   52.9070   32.1680   50.2200 C   0  0  0  0  0  0  0  0  0  0  0  0
   53.7320   32.6330   49.6660 H   0  0  0  0  0  0  0  0  0  0  0  0
   53.0500   31.8320   51.5460 C   0  0  0  0  0  0  0  0  0  0  0  0
   51.9400   31.2570   52.1080 C   0  0  0  0  0  0  0  0  0  0  0  0
   50.7880   31.0410   51.4030 C   0  0  0  0  0  0  0  0  0  0  0  0
   49.9390   30.5850   51.8930 H   0  0  0  0  0  0  0  0  0  0  0  0
   52.0090   30.7800   53.8220 S   0  0  0  0  0  0  0  0  0  0  0  0
   53.6370   31.2100   54.3980 C   0  0  0  0  0  0  0  0  0  0  0  0
   53.9710   30.9500   55.7000 C   0  0  0  0  0  0  0  0  0  0  0  0
   53.2520   30.4900   56.3670 H   0  0  0  0  0  0  0  0  0  0  0  0
   55.2140   31.2580   56.2110 C   0  0  0  0  0  0  0  0  0  0  0  0
   55.5470   31.0830   57.2240 H   0  0  0  0  0  0  0  0  0  0  0  0
   56.1190   31.8430   55.3500 C   0  0  0  0  0  0  0  0  0  0  0  0
   57.1060   32.1010   55.7090 H   0  0  0  0  0  0  0  0  0  0  0  0
   55.7450   32.0880   54.0460 C   0  0  0  0  0  0  0  0  0  0  0  0
   56.5230   32.5560   53.4280 H   0  0  0  0  0  0  0  0  0  0  0  0
   54.5100   31.7900   53.5150 C   0  0  0  0  0  0  0  0  0  0  0  0
   54.2880   32.1070   52.1570 N   0  0  0  0  0  0  0  0  0  0  0  0
   55.0470   32.5480   51.6060 H   0  0  0  0  0  0  0  0  0  0  0  0
  1  5  1  0  0  0  0
  1  2  2  0  0  0  0
  2  3  1  0  0  0  0
  3  7  1  0  0  0  0
  4  3  1  0  0  0  0
  4 31  1  0  0  0  0
  5  4  2  0  0  0  0
  6  2  1  0  0  0  0
  8 20  1  0  0  0  0
  8 13  1  0  0  0  0
  9  8  2  0  0  0  0
 10  9  1  0  0  0  0
 10 11  2  0  0  0  0
 11 12  1  0  0  0  0
 12 13  2  0  0  0  0
 12 14  1  0  0  0  0
 14 15  1  0  0  0  0
 15 23  1  6  0  0  0
 15 16  1  0  0  0  0
 15  1  1  0  0  0  0
 16 17  1  0  0  0  0
 16 25  1  0  0  0  0
 17 26  1  0  0  0  0
 18 17  1  0  0  0  0
 18 28  1  0  0  0  0
 19 14  1  0  0  0  0
 19 18  1  0  0  0  0
 21  9  1  0  0  0  0
 22 10  1  0  0  0  0
 24 16  1  0  0  0  0
 27 18  1  0  0  0  0
 29 19  1  0  0  0  0
 30 19  1  0  0  0  0
 31 38  1  0  0  0  0
 32 31  2  0  0  0  0
 32 34  1  0  0  0  0
 33 32  1  0  0  0  0
 34 36  2  0  0  0  0
 35 34  1  0  0  0  0
 36 37  1  0  0  0  0
 36 51  1  0  0  0  0
 37 40  1  0  0  0  0
 38 39  1  0  0  0  0
 38 37  2  0  0  0  0
 40 41  1  0  0  0  0
 41 42  1  0  0  0  0
 42 44  2  0  0  0  0
 42 43  1  0  0  0  0
 44 45  1  0  0  0  0
 46 47  1  0  0  0  0
 46 44  1  0  0  0  0
 48 46  2  0  0  0  0
 49 48  1  0  0  0  0
 50 48  1  0  0  0  0
 50 41  2  0  0  0  0
 51 50  1  0  0  0  0
 52 51  1  0  0  0  0
M  END
>  <minimizedAffinity>
-6.47915602

>  <minimizedRMSD>
1.53276622

$$$$
