
 OpenBabel03242520403D

 52 57  0  0  1  0  0  0  0  0999 V2000
   48.2010   30.0260   48.0190 C   0  0  0  0  0  0  0  0  0  0  0  0
   47.4900   30.8880   48.8250 C   0  0  0  0  0  0  0  0  0  0  0  0
   48.2860   31.5420   49.6780 N   0  0  0  0  0  0  0  0  0  0  0  0
   49.5180   31.0970   49.4160 C   0  0  0  0  0  0  0  0  0  0  0  0
   49.4680   30.1970   48.4330 N   0  0  0  0  0  0  0  0  0  0  0  0
   46.4190   31.0180   48.7710 H   0  0  0  0  0  0  0  0  0  0  0  0
   48.0200   32.2530   50.3990 H   0  0  0  0  0  0  0  0  0  0  0  0
   46.0290   32.9690   45.0830 C   0  0  0  0  0  0  0  0  0  0  0  0
   47.0060   33.1120   44.0650 C   0  0  0  0  0  0  0  0  0  0  0  0
   47.8700   32.0050   43.8050 C   0  0  0  0  0  0  0  0  0  0  0  0
   47.7160   30.8630   44.5400 N   0  0  0  0  0  0  0  0  0  0  0  0
   46.7620   30.7870   45.4990 C   0  0  0  0  0  0  0  0  0  0  0  0
   45.9340   31.8280   45.7610 N   0  0  0  0  0  0  0  0  0  0  0  0
   46.6820   29.5770   46.2030 N   0  0  0  0  0  0  0  0  0  0  0  0
   47.7970   29.0870   46.9450 C   0  0  2  0  0  0  0  0  0  0  0  0
   47.6620   27.6830   47.4220 C   0  0  0  0  0  0  0  0  0  0  0  0
   46.3580   27.2130   47.6930 N   0  0  0  0  0  0  0  0  0  0  0  0
   45.3330   28.1900   47.5420 C   0  0  0  0  0  0  0  0  0  0  0  0
   45.4520   28.8110   46.1780 C   0  0  0  0  0  0  0  0  0  0  0  0
   45.4070   33.8250   45.2390 H   0  0  0  0  0  0  0  0  0  0  0  0
   47.1650   33.9850   43.4650 H   0  0  0  0  0  0  0  0  0  0  0  0
   48.6210   32.0660   43.0500 H   0  0  0  0  0  0  0  0  0  0  0  0
   48.6540   29.0390   46.2030 H   0  0  0  0  0  0  0  0  0  0  0  0
   48.1580   26.9430   46.7600 H   0  0  0  0  0  0  0  0  0  0  0  0
   48.2470   27.6260   48.3830 H   0  0  0  0  0  0  0  0  0  0  0  0
   46.2450   26.7840   48.6440 H   0  0  0  0  0  0  0  0  0  0  0  0
   44.3550   27.6200   47.5310 H   0  0  0  0  0  0  0  0  0  0  0  0
   45.2390   28.9080   48.3710 H   0  0  0  0  0  0  0  0  0  0  0  0
   44.5670   29.4060   45.8960 H   0  0  0  0  0  0  0  0  0  0  0  0
   45.6010   27.9900   45.4610 H   0  0  0  0  0  0  0  0  0  0  0  0
   50.7710   31.4810   50.0570 C   0  0  0  0  0  0  0  0  0  0  0  0
   51.9570   31.6870   49.3840 C   0  0  0  0  0  0  0  0  0  0  0  0
   51.9700   31.5590   48.3110 H   0  0  0  0  0  0  0  0  0  0  0  0
   53.0770   32.0470   50.0870 C   0  0  0  0  0  0  0  0  0  0  0  0
   53.9720   32.1900   49.4720 H   0  0  0  0  0  0  0  0  0  0  0  0
   53.1220   32.2250   51.4510 C   0  0  0  0  0  0  0  0  0  0  0  0
   51.9290   32.0130   52.0910 C   0  0  0  0  0  0  0  0  0  0  0  0
   50.7910   31.6530   51.4240 C   0  0  0  0  0  0  0  0  0  0  0  0
   49.8740   31.4970   51.9750 H   0  0  0  0  0  0  0  0  0  0  0  0
   51.8690   32.2140   53.8590 S   0  0  0  0  0  0  0  0  0  0  0  0
   53.5110   32.6770   54.3690 C   0  0  0  0  0  0  0  0  0  0  0  0
   53.7550   32.9000   55.6970 C   0  0  0  0  0  0  0  0  0  0  0  0
   52.9600   32.7940   56.4230 H   0  0  0  0  0  0  0  0  0  0  0  0
   55.0030   33.2600   56.1590 C   0  0  0  0  0  0  0  0  0  0  0  0
   55.2700   33.4510   57.1890 H   0  0  0  0  0  0  0  0  0  0  0  0
   56.0070   33.3900   55.2220 C   0  0  0  0  0  0  0  0  0  0  0  0
   57.0000   33.6710   55.5400 H   0  0  0  0  0  0  0  0  0  0  0  0
   55.7200   33.1570   53.8930 C   0  0  0  0  0  0  0  0  0  0  0  0
   56.5730   33.2820   53.2130 H   0  0  0  0  0  0  0  0  0  0  0  0
   54.4820   32.7960   53.4110 C   0  0  0  0  0  0  0  0  0  0  0  0
   54.3570   32.5960   52.0170 N   0  0  0  0  0  0  0  0  0  0  0  0
   55.1850   32.7230   51.4080 H   0  0  0  0  0  0  0  0  0  0  0  0
  1  5  1  0  0  0  0
  1  2  2  0  0  0  0
  2  3  1  0  0  0  0
  3  7  1  0  0  0  0
  4  3  1  0  0  0  0
  4 31  1  0  0  0  0
  5  4  2  0  0  0  0
  6  2  1  0  0  0  0
  8 20  1  0  0  0  0
  8 13  1  0  0  0  0
  9  8  2  0  0  0  0
 10  9  1  0  0  0  0
 10 11  2  0  0  0  0
 11 12  1  0  0  0  0
 12 13  2  0  0  0  0
 12 14  1  0  0  0  0
 14 15  1  0  0  0  0
 15 23  1  6  0  0  0
 15 16  1  0  0  0  0
 15  1  1  0  0  0  0
 16 17  1  0  0  0  0
 16 25  1  0  0  0  0
 17 26  1  0  0  0  0
 18 17  1  0  0  0  0
 18 28  1  0  0  0  0
 19 14  1  0  0  0  0
 19 18  1  0  0  0  0
 21  9  1  0  0  0  0
 22 10  1  0  0  0  0
 24 16  1  0  0  0  0
 27 18  1  0  0  0  0
 29 19  1  0  0  0  0
 30 19  1  0  0  0  0
 31 38  1  0  0  0  0
 32 31  2  0  0  0  0
 32 34  1  0  0  0  0
 33 32  1  0  0  0  0
 34 36  2  0  0  0  0
 35 34  1  0  0  0  0
 36 51  1  0  0  0  0
 36 37  1  0  0  0  0
 37 40  1  0  0  0  0
 38 39  1  0  0  0  0
 38 37  2  0  0  0  0
 40 41  1  0  0  0  0
 41 42  1  0  0  0  0
 42 44  2  0  0  0  0
 42 43  1  0  0  0  0
 44 45  1  0  0  0  0
 46 47  1  0  0  0  0
 46 44  1  0  0  0  0
 48 46  2  0  0  0  0
 49 48  1  0  0  0  0
 50 48  1  0  0  0  0
 50 41  2  0  0  0  0
 51 50  1  0  0  0  0
 52 51  1  0  0  0  0
M  END
>  <minimizedAffinity>
-6.36113548

>  <minimizedRMSD>
1.63683522

$$$$
