
 OpenBabel03242520403D

 52 57  0  0  1  0  0  0  0  0999 V2000
   48.1100   30.0260   48.0770 C   0  0  0  0  0  0  0  0  0  0  0  0
   47.6410   30.9290   49.0070 C   0  0  0  0  0  0  0  0  0  0  0  0
   48.6190   31.3780   49.8010 N   0  0  0  0  0  0  0  0  0  0  0  0
   49.7250   30.7590   49.3770 C   0  0  0  0  0  0  0  0  0  0  0  0
   49.4230   29.9570   48.3550 N   0  0  0  0  0  0  0  0  0  0  0  0
   46.6080   31.2360   49.0800 H   0  0  0  0  0  0  0  0  0  0  0  0
   48.5520   32.0660   50.5880 H   0  0  0  0  0  0  0  0  0  0  0  0
   45.8550   33.4580   45.8110 C   0  0  0  0  0  0  0  0  0  0  0  0
   46.6760   33.6160   44.6650 C   0  0  0  0  0  0  0  0  0  0  0  0
   47.3610   32.4660   44.1690 C   0  0  0  0  0  0  0  0  0  0  0  0
   47.1960   31.2720   44.8130 N   0  0  0  0  0  0  0  0  0  0  0  0
   46.3970   31.1850   45.9050 C   0  0  0  0  0  0  0  0  0  0  0  0
   45.7390   32.2660   46.3910 N   0  0  0  0  0  0  0  0  0  0  0  0
   46.2920   29.9200   46.5000 N   0  0  0  0  0  0  0  0  0  0  0  0
   47.4460   29.2500   47.0030 C   0  0  2  0  0  0  0  0  0  0  0  0
   47.2310   27.8220   47.3670 C   0  0  0  0  0  0  0  0  0  0  0  0
   45.9390   27.4510   47.8030 N   0  0  0  0  0  0  0  0  0  0  0  0
   45.0180   28.5330   47.9090 C   0  0  0  0  0  0  0  0  0  0  0  0
   44.9950   29.2810   46.6060 C   0  0  0  0  0  0  0  0  0  0  0  0
   45.3630   34.3490   46.1430 H   0  0  0  0  0  0  0  0  0  0  0  0
   46.8360   34.5280   44.1280 H   0  0  0  0  0  0  0  0  0  0  0  0
   47.9910   32.5350   43.3100 H   0  0  0  0  0  0  0  0  0  0  0  0
   48.1690   29.2010   46.1300 H   0  0  0  0  0  0  0  0  0  0  0  0
   47.5350   27.1140   46.5690 H   0  0  0  0  0  0  0  0  0  0  0  0
   47.9450   27.6080   48.2110 H   0  0  0  0  0  0  0  0  0  0  0  0
   45.9260   26.9370   48.7170 H   0  0  0  0  0  0  0  0  0  0  0  0
   43.9920   28.0630   48.0060 H   0  0  0  0  0  0  0  0  0  0  0  0
   45.1310   29.1630   48.8040 H   0  0  0  0  0  0  0  0  0  0  0  0
   44.1490   29.9840   46.5270 H   0  0  0  0  0  0  0  0  0  0  0  0
   44.9420   28.5310   45.8030 H   0  0  0  0  0  0  0  0  0  0  0  0
   51.0830   30.8850   49.8950 C   0  0  0  0  0  0  0  0  0  0  0  0
   51.4500   30.5930   51.1920 C   0  0  0  0  0  0  0  0  0  0  0  0
   50.6880   30.2500   51.8790 H   0  0  0  0  0  0  0  0  0  0  0  0
   52.7560   30.7470   51.5730 C   0  0  0  0  0  0  0  0  0  0  0  0
   52.9570   30.4930   52.6200 H   0  0  0  0  0  0  0  0  0  0  0  0
   53.7680   31.1790   50.7470 C   0  0  0  0  0  0  0  0  0  0  0  0
   53.3730   31.4600   49.4660 C   0  0  0  0  0  0  0  0  0  0  0  0
   52.0780   31.3200   49.0490 C   0  0  0  0  0  0  0  0  0  0  0  0
   51.8160   31.5540   48.0260 H   0  0  0  0  0  0  0  0  0  0  0  0
   54.5990   32.0300   48.3070 S   0  0  0  0  0  0  0  0  0  0  0  0
   56.1400   32.0880   49.1930 C   0  0  0  0  0  0  0  0  0  0  0  0
   57.2690   32.4950   48.5360 C   0  0  0  0  0  0  0  0  0  0  0  0
   57.2210   32.7790   47.4920 H   0  0  0  0  0  0  0  0  0  0  0  0
   58.4960   32.5640   49.1630 C   0  0  0  0  0  0  0  0  0  0  0  0
   59.4250   32.8760   48.7100 H   0  0  0  0  0  0  0  0  0  0  0  0
   58.5420   32.2010   50.4930 C   0  0  0  0  0  0  0  0  0  0  0  0
   59.4820   32.2390   51.0230 H   0  0  0  0  0  0  0  0  0  0  0  0
   57.3830   31.7940   51.1190 C   0  0  0  0  0  0  0  0  0  0  0  0
   57.5060   31.5220   52.1760 H   0  0  0  0  0  0  0  0  0  0  0  0
   56.1490   31.7190   50.5130 C   0  0  0  0  0  0  0  0  0  0  0  0
   55.0600   31.2810   51.2990 N   0  0  0  0  0  0  0  0  0  0  0  0
   55.2160   31.0330   52.2930 H   0  0  0  0  0  0  0  0  0  0  0  0
  1  5  1  0  0  0  0
  1  2  2  0  0  0  0
  2  6  1  0  0  0  0
  2  3  1  0  0  0  0
  3  7  1  0  0  0  0
  4  3  1  0  0  0  0
  4 31  1  0  0  0  0
  5  4  2  0  0  0  0
  8 20  1  0  0  0  0
  8 13  1  0  0  0  0
  9  8  2  0  0  0  0
 10  9  1  0  0  0  0
 10 11  2  0  0  0  0
 11 12  1  0  0  0  0
 12 13  2  0  0  0  0
 12 14  1  0  0  0  0
 14 19  1  0  0  0  0
 14 15  1  0  0  0  0
 15 23  1  6  0  0  0
 15 16  1  0  0  0  0
 15  1  1  0  0  0  0
 16 17  1  0  0  0  0
 16 25  1  0  0  0  0
 17 18  1  0  0  0  0
 17 26  1  0  0  0  0
 18 27  1  0  0  0  0
 18 28  1  0  0  0  0
 19 18  1  0  0  0  0
 21  9  1  0  0  0  0
 22 10  1  0  0  0  0
 24 16  1  0  0  0  0
 29 19  1  0  0  0  0
 30 19  1  0  0  0  0
 31 32  1  0  0  0  0
 32 34  2  0  0  0  0
 32 33  1  0  0  0  0
 34 35  1  0  0  0  0
 36 51  1  0  0  0  0
 36 34  1  0  0  0  0
 37 36  2  0  0  0  0
 38 37  1  0  0  0  0
 38 31  2  0  0  0  0
 39 38  1  0  0  0  0
 40 41  1  0  0  0  0
 40 37  1  0  0  0  0
 41 50  1  0  0  0  0
 42 44  1  0  0  0  0
 42 41  2  0  0  0  0
 43 42  1  0  0  0  0
 44 46  2  0  0  0  0
 45 44  1  0  0  0  0
 46 47  1  0  0  0  0
 46 48  1  0  0  0  0
 48 49  1  0  0  0  0
 50 48  2  0  0  0  0
 50 51  1  0  0  0  0
 51 52  1  0  0  0  0
M  END
>  <minimizedAffinity>
-5.39605045

>  <minimizedRMSD>
0.948359132

$$$$
