
 OpenBabel03242520403D

 52 57  0  0  1  0  0  0  0  0999 V2000
   48.1530   30.0590   48.0110 C   0  0  0  0  0  0  0  0  0  0  0  0
   47.6500   30.9540   48.9310 C   0  0  0  0  0  0  0  0  0  0  0  0
   48.6100   31.4550   49.7140 N   0  0  0  0  0  0  0  0  0  0  0  0
   49.7400   30.8790   49.2940 C   0  0  0  0  0  0  0  0  0  0  0  0
   49.4700   30.0500   48.2850 N   0  0  0  0  0  0  0  0  0  0  0  0
   46.6050   31.2160   49.0050 H   0  0  0  0  0  0  0  0  0  0  0  0
   48.5170   32.1510   50.4920 H   0  0  0  0  0  0  0  0  0  0  0  0
   46.0340   33.4040   45.4990 C   0  0  0  0  0  0  0  0  0  0  0  0
   46.8990   33.4960   44.3790 C   0  0  0  0  0  0  0  0  0  0  0  0
   47.5870   32.3160   43.9650 C   0  0  0  0  0  0  0  0  0  0  0  0
   47.3810   31.1560   44.6590 N   0  0  0  0  0  0  0  0  0  0  0  0
   46.5400   31.1320   45.7220 C   0  0  0  0  0  0  0  0  0  0  0  0
   45.8790   32.2430   46.1300 N   0  0  0  0  0  0  0  0  0  0  0  0
   46.3950   29.8980   46.3720 N   0  0  0  0  0  0  0  0  0  0  0  0
   47.5190   29.2400   46.9510 C   0  0  2  0  0  0  0  0  0  0  0  0
   47.2710   27.8340   47.3750 C   0  0  0  0  0  0  0  0  0  0  0  0
   45.9590   27.5010   47.7780 N   0  0  0  0  0  0  0  0  0  0  0  0
   45.0490   28.5970   47.7970 C   0  0  0  0  0  0  0  0  0  0  0  0
   45.0860   29.2820   46.4600 C   0  0  0  0  0  0  0  0  0  0  0  0
   45.5420   34.3160   45.7690 H   0  0  0  0  0  0  0  0  0  0  0  0
   47.0930   34.3800   43.8060 H   0  0  0  0  0  0  0  0  0  0  0  0
   48.2500   32.3350   43.1290 H   0  0  0  0  0  0  0  0  0  0  0  0
   48.2740   29.1390   46.1100 H   0  0  0  0  0  0  0  0  0  0  0  0
   47.5950   27.0840   46.6240 H   0  0  0  0  0  0  0  0  0  0  0  0
   47.9500   27.6520   48.2550 H   0  0  0  0  0  0  0  0  0  0  0  0
   45.9040   27.0310   48.7150 H   0  0  0  0  0  0  0  0  0  0  0  0
   44.0140   28.1450   47.8780 H   0  0  0  0  0  0  0  0  0  0  0  0
   45.1370   29.2690   48.6650 H   0  0  0  0  0  0  0  0  0  0  0  0
   44.2530   29.9900   46.3140 H   0  0  0  0  0  0  0  0  0  0  0  0
   45.0530   28.4940   45.6920 H   0  0  0  0  0  0  0  0  0  0  0  0
   51.0930   31.0710   49.8040 C   0  0  0  0  0  0  0  0  0  0  0  0
   51.9560   32.0540   49.3690 C   0  0  0  0  0  0  0  0  0  0  0  0
   51.6170   32.7350   48.6000 H   0  0  0  0  0  0  0  0  0  0  0  0
   53.2080   32.1430   49.9180 C   0  0  0  0  0  0  0  0  0  0  0  0
   53.8250   32.9540   49.5140 H   0  0  0  0  0  0  0  0  0  0  0  0
   53.6960   31.3090   50.8970 C   0  0  0  0  0  0  0  0  0  0  0  0
   52.8160   30.3410   51.3080 C   0  0  0  0  0  0  0  0  0  0  0  0
   51.5590   30.2220   50.7850 C   0  0  0  0  0  0  0  0  0  0  0  0
   50.9020   29.4410   51.1430 H   0  0  0  0  0  0  0  0  0  0  0  0
   53.3390   29.2030   52.5730 S   0  0  0  0  0  0  0  0  0  0  0  0
   55.0040   29.6600   53.0040 C   0  0  0  0  0  0  0  0  0  0  0  0
   55.6620   28.9420   53.9650 C   0  0  0  0  0  0  0  0  0  0  0  0
   55.1740   28.1090   54.4540 H   0  0  0  0  0  0  0  0  0  0  0  0
   56.9530   29.2430   54.3480 C   0  0  0  0  0  0  0  0  0  0  0  0
   57.5330   28.7220   55.0960 H   0  0  0  0  0  0  0  0  0  0  0  0
   57.5630   30.3070   53.7160 C   0  0  0  0  0  0  0  0  0  0  0  0
   58.5730   30.5780   53.9840 H   0  0  0  0  0  0  0  0  0  0  0  0
   56.8660   31.0050   52.7520 C   0  0  0  0  0  0  0  0  0  0  0  0
   57.4230   31.8370   52.2980 H   0  0  0  0  0  0  0  0  0  0  0  0
   55.5780   30.7220   52.3560 C   0  0  0  0  0  0  0  0  0  0  0  0
   55.0080   31.5380   51.3530 N   0  0  0  0  0  0  0  0  0  0  0  0
   55.5660   32.3140   50.9490 H   0  0  0  0  0  0  0  0  0  0  0  0
  1  5  1  0  0  0  0
  1  2  2  0  0  0  0
  2  6  1  0  0  0  0
  2  3  1  0  0  0  0
  3  7  1  0  0  0  0
  4  3  1  0  0  0  0
  4 31  1  0  0  0  0
  5  4  2  0  0  0  0
  8 20  1  0  0  0  0
  8 13  1  0  0  0  0
  9  8  2  0  0  0  0
 10  9  1  0  0  0  0
 10 11  2  0  0  0  0
 11 12  1  0  0  0  0
 12 13  2  0  0  0  0
 12 14  1  0  0  0  0
 14 19  1  0  0  0  0
 14 15  1  0  0  0  0
 15 23  1  6  0  0  0
 15 16  1  0  0  0  0
 15  1  1  0  0  0  0
 16 17  1  0  0  0  0
 16 25  1  0  0  0  0
 17 18  1  0  0  0  0
 17 26  1  0  0  0  0
 18 27  1  0  0  0  0
 18 28  1  0  0  0  0
 19 18  1  0  0  0  0
 21  9  1  0  0  0  0
 22 10  1  0  0  0  0
 24 16  1  0  0  0  0
 29 19  1  0  0  0  0
 30 19  1  0  0  0  0
 31 38  1  0  0  0  0
 32 31  2  0  0  0  0
 32 34  1  0  0  0  0
 33 32  1  0  0  0  0
 34 36  2  0  0  0  0
 35 34  1  0  0  0  0
 36 37  1  0  0  0  0
 36 51  1  0  0  0  0
 37 40  1  0  0  0  0
 38 39  1  0  0  0  0
 38 37  2  0  0  0  0
 40 41  1  0  0  0  0
 41 42  1  0  0  0  0
 42 44  2  0  0  0  0
 42 43  1  0  0  0  0
 44 45  1  0  0  0  0
 46 47  1  0  0  0  0
 46 44  1  0  0  0  0
 48 46  2  0  0  0  0
 49 48  1  0  0  0  0
 50 48  1  0  0  0  0
 50 41  2  0  0  0  0
 51 50  1  0  0  0  0
 52 51  1  0  0  0  0
M  END
>  <minimizedAffinity>
-5.81490803

>  <minimizedRMSD>
0.999457121

$$$$
