
 OpenBabel03242523323D

 50 55  0  0  0  0  0  0  0  0999 V2000
   44.5860   35.8370   44.6390 C   0  0  0  0  0  0  0  0  0  0  0  0
   45.3460   35.5590   43.4850 C   0  0  0  0  0  0  0  0  0  0  0  0
   46.1910   34.4480   43.4800 C   0  0  0  0  0  0  0  0  0  0  0  0
   46.2530   33.6590   44.6040 N   0  0  0  0  0  0  0  0  0  0  0  0
   45.5020   33.9630   45.6960 C   0  0  0  0  0  0  0  0  0  0  0  0
   44.6910   35.0250   45.7060 N   0  0  0  0  0  0  0  0  0  0  0  0
   43.9150   36.6990   44.6760 H   0  0  0  0  0  0  0  0  0  0  0  0
   45.2580   36.2140   42.6300 H   0  0  0  0  0  0  0  0  0  0  0  0
   46.9920   34.1080   42.3380 C   0  0  0  0  0  0  0  0  0  0  0  0
   47.2770   34.9540   41.2920 C   0  0  0  0  0  0  0  0  0  0  0  0
   46.8850   35.9510   41.3020 H   0  0  0  0  0  0  0  0  0  0  0  0
   48.0650   34.5310   40.2270 C   0  0  0  0  0  0  0  0  0  0  0  0
   48.2360   35.2810   39.4400 H   0  0  0  0  0  0  0  0  0  0  0  0
   48.6010   33.2630   40.1540 C   0  0  0  0  0  0  0  0  0  0  0  0
   48.3130   32.4300   41.1980 C   0  0  0  0  0  0  0  0  0  0  0  0
   47.5470   32.8530   42.2220 C   0  0  0  0  0  0  0  0  0  0  0  0
   47.3490   32.1420   43.0330 H   0  0  0  0  0  0  0  0  0  0  0  0
   48.9810   30.7800   41.1500 S   0  0  0  0  0  0  0  0  0  0  0  0
   49.9160   30.6520   39.6400 C   0  0  0  0  0  0  0  0  0  0  0  0
   50.5290   29.4520   39.3900 C   0  0  0  0  0  0  0  0  0  0  0  0
   50.4500   28.6280   40.0710 H   0  0  0  0  0  0  0  0  0  0  0  0
   51.2690   29.2840   38.2410 C   0  0  0  0  0  0  0  0  0  0  0  0
   51.7520   28.3370   38.0430 H   0  0  0  0  0  0  0  0  0  0  0  0
   51.3760   30.3380   37.3590 C   0  0  0  0  0  0  0  0  0  0  0  0
   51.9480   30.2330   36.4530 H   0  0  0  0  0  0  0  0  0  0  0  0
   50.7340   31.5140   37.6750 C   0  0  0  0  0  0  0  0  0  0  0  0
   50.8580   32.3170   36.9320 H   0  0  0  0  0  0  0  0  0  0  0  0
   49.9820   31.7410   38.8080 C   0  0  0  0  0  0  0  0  0  0  0  0
   49.3750   33.0010   39.0080 N   0  0  0  0  0  0  0  0  0  0  0  0
   49.5310   33.7160   38.2680 H   0  0  0  0  0  0  0  0  0  0  0  0
   45.6650   33.0300   46.8380 C   0  0  0  0  0  0  0  0  0  0  0  0
   44.6600   32.8050   47.2600 H   0  0  0  0  0  0  0  0  0  0  0  0
   46.2020   33.6150   47.6040 H   0  0  0  0  0  0  0  0  0  0  0  0
   46.5180   31.5600   46.2550 S   0  0  0  0  0  0  0  0  0  0  0  0
   47.6340   30.9430   47.4990 C   0  0  0  0  0  0  0  0  0  0  0  0
   48.0290   31.8080   48.4920 C   0  0  0  0  0  0  0  0  0  0  0  0
   48.8820   31.3400   49.4470 C   0  0  0  0  0  0  0  0  0  0  0  0
   49.3580   30.0260   49.4450 C   0  0  0  0  0  0  0  0  0  0  0  0
   50.1970   29.6170   50.4170 N   0  0  0  0  0  0  0  0  0  0  0  0
   50.6680   28.3590   50.4420 C   0  0  0  0  0  0  0  0  0  0  0  0
   50.2790   27.4830   49.4520 C   0  0  0  0  0  0  0  0  0  0  0  0
   49.4140   27.9040   48.4490 C   0  0  0  0  0  0  0  0  0  0  0  0
   48.9200   29.2120   48.4170 C   0  0  0  0  0  0  0  0  0  0  0  0
   48.0630   29.6420   47.4380 C   0  0  0  0  0  0  0  0  0  0  0  0
   47.7450   32.8430   48.6180 H   0  0  0  0  0  0  0  0  0  0  0  0
   49.2420   31.9640   50.2680 H   0  0  0  0  0  0  0  0  0  0  0  0
   51.3360   28.1370   51.2670 H   0  0  0  0  0  0  0  0  0  0  0  0
   50.6720   26.4820   49.4970 H   0  0  0  0  0  0  0  0  0  0  0  0
   49.1130   27.2120   47.6750 H   0  0  0  0  0  0  0  0  0  0  0  0
   47.7440   28.9750   46.6520 H   0  0  0  0  0  0  0  0  0  0  0  0
  1  7  1  0  0  0  0
  1  6  1  0  0  0  0
  2  1  2  0  0  0  0
  3  2  1  0  0  0  0
  3  4  2  0  0  0  0
  4  5  1  0  0  0  0
  5  6  2  0  0  0  0
  5 31  1  0  0  0  0
  8  2  1  0  0  0  0
  9  3  1  0  0  0  0
 10 11  1  0  0  0  0
 10  9  2  0  0  0  0
 12 10  1  0  0  0  0
 13 12  1  0  0  0  0
 14 12  2  0  0  0  0
 14 15  1  0  0  0  0
 15 16  2  0  0  0  0
 16  9  1  0  0  0  0
 16 17  1  0  0  0  0
 18 15  1  0  0  0  0
 19 18  1  0  0  0  0
 20 19  1  0  0  0  0
 20 21  1  0  0  0  0
 22 20  2  0  0  0  0
 23 22  1  0  0  0  0
 24 26  2  0  0  0  0
 24 22  1  0  0  0  0
 25 24  1  0  0  0  0
 26 28  1  0  0  0  0
 27 26  1  0  0  0  0
 28 29  1  0  0  0  0
 28 19  2  0  0  0  0
 29 14  1  0  0  0  0
 30 29  1  0  0  0  0
 31 32  1  0  0  0  0
 31 33  1  0  0  0  0
 34 31  1  0  0  0  0
 34 35  1  0  0  0  0
 35 36  1  0  0  0  0
 36 45  1  0  0  0  0
 36 37  2  0  0  0  0
 37 46  1  0  0  0  0
 38 37  1  0  0  0  0
 38 39  1  0  0  0  0
 39 40  2  0  0  0  0
 40 47  1  0  0  0  0
 41 48  1  0  0  0  0
 41 40  1  0  0  0  0
 42 41  2  0  0  0  0
 43 42  1  0  0  0  0
 43 38  2  0  0  0  0
 44 35  2  0  0  0  0
 44 43  1  0  0  0  0
 49 42  1  0  0  0  0
 50 44  1  0  0  0  0
M  END
>  <minimizedAffinity>
-7.10639334

>  <minimizedRMSD>
0.229669079

$$$$
