
 OpenBabel03242523323D

 50 55  0  0  0  0  0  0  0  0999 V2000
   44.4150   36.2000   44.8510 C   0  0  0  0  0  0  0  0  0  0  0  0
   45.0830   36.0600   43.6170 C   0  0  0  0  0  0  0  0  0  0  0  0
   45.8950   34.9450   43.4070 C   0  0  0  0  0  0  0  0  0  0  0  0
   46.0160   34.0160   44.4130 N   0  0  0  0  0  0  0  0  0  0  0  0
   45.3540   34.1890   45.5880 C   0  0  0  0  0  0  0  0  0  0  0  0
   44.5750   35.2550   45.7950 N   0  0  0  0  0  0  0  0  0  0  0  0
   43.7720   37.0620   45.0480 H   0  0  0  0  0  0  0  0  0  0  0  0
   44.9520   36.8220   42.8620 H   0  0  0  0  0  0  0  0  0  0  0  0
   46.6020   34.7420   42.1750 C   0  0  0  0  0  0  0  0  0  0  0  0
   47.8720   35.1970   41.9070 C   0  0  0  0  0  0  0  0  0  0  0  0
   48.4000   35.7490   42.6580 H   0  0  0  0  0  0  0  0  0  0  0  0
   48.4740   34.9490   40.6780 C   0  0  0  0  0  0  0  0  0  0  0  0
   49.4920   35.3540   40.5610 H   0  0  0  0  0  0  0  0  0  0  0  0
   47.8490   34.2470   39.6710 C   0  0  0  0  0  0  0  0  0  0  0  0
   46.5880   33.7990   39.9440 C   0  0  0  0  0  0  0  0  0  0  0  0
   46.0170   34.0460   41.1400 C   0  0  0  0  0  0  0  0  0  0  0  0
   45.0030   33.6630   41.3050 H   0  0  0  0  0  0  0  0  0  0  0  0
   45.7380   32.8860   38.6750 S   0  0  0  0  0  0  0  0  0  0  0  0
   46.8450   32.7960   37.2830 C   0  0  0  0  0  0  0  0  0  0  0  0
   46.3950   32.1290   36.1740 C   0  0  0  0  0  0  0  0  0  0  0  0
   45.4200   31.6810   36.1440 H   0  0  0  0  0  0  0  0  0  0  0  0
   47.2000   32.0200   35.0620 C   0  0  0  0  0  0  0  0  0  0  0  0
   46.8440   31.4940   34.1870 H   0  0  0  0  0  0  0  0  0  0  0  0
   48.4540   32.5930   35.0920 C   0  0  0  0  0  0  0  0  0  0  0  0
   49.1040   32.5230   34.2340 H   0  0  0  0  0  0  0  0  0  0  0  0
   48.8390   33.2470   36.2380 C   0  0  0  0  0  0  0  0  0  0  0  0
   49.8500   33.6820   36.2000 H   0  0  0  0  0  0  0  0  0  0  0  0
   48.0800   33.3870   37.3800 C   0  0  0  0  0  0  0  0  0  0  0  0
   48.6010   34.0870   38.4910 N   0  0  0  0  0  0  0  0  0  0  0  0
   49.5620   34.4730   38.3880 H   0  0  0  0  0  0  0  0  0  0  0  0
   45.5720   33.1120   46.5850 C   0  0  0  0  0  0  0  0  0  0  0  0
   44.5940   32.6290   46.8080 H   0  0  0  0  0  0  0  0  0  0  0  0
   45.8760   33.6410   47.5050 H   0  0  0  0  0  0  0  0  0  0  0  0
   46.7810   31.9610   45.9250 S   0  0  0  0  0  0  0  0  0  0  0  0
   47.7400   31.2290   47.2370 C   0  0  0  0  0  0  0  0  0  0  0  0
   48.0170   32.0060   48.3370 C   0  0  0  0  0  0  0  0  0  0  0  0
   48.7480   31.4500   49.3450 C   0  0  0  0  0  0  0  0  0  0  0  0
   49.2160   30.1340   49.2910 C   0  0  0  0  0  0  0  0  0  0  0  0
   49.9320   29.6360   50.3180 N   0  0  0  0  0  0  0  0  0  0  0  0
   50.3910   28.3730   50.2950 C   0  0  0  0  0  0  0  0  0  0  0  0
   50.1200   27.5860   49.1980 C   0  0  0  0  0  0  0  0  0  0  0  0
   49.3820   28.0990   48.1370 C   0  0  0  0  0  0  0  0  0  0  0  0
   48.9000   29.4120   48.1540 C   0  0  0  0  0  0  0  0  0  0  0  0
   48.1670   29.9320   47.1200 C   0  0  0  0  0  0  0  0  0  0  0  0
   47.7230   33.0310   48.5130 H   0  0  0  0  0  0  0  0  0  0  0  0
   49.0100   32.0000   50.2510 H   0  0  0  0  0  0  0  0  0  0  0  0
   50.9550   28.0760   51.1730 H   0  0  0  0  0  0  0  0  0  0  0  0
   50.5000   26.5800   49.2060 H   0  0  0  0  0  0  0  0  0  0  0  0
   49.1720   27.4760   47.2790 H   0  0  0  0  0  0  0  0  0  0  0  0
   47.9420   29.3350   46.2500 H   0  0  0  0  0  0  0  0  0  0  0  0
  1  7  1  0  0  0  0
  1  6  1  0  0  0  0
  2  1  2  0  0  0  0
  3  2  1  0  0  0  0
  3  4  2  0  0  0  0
  4  5  1  0  0  0  0
  5  6  2  0  0  0  0
  5 31  1  0  0  0  0
  8  2  1  0  0  0  0
  9  3  1  0  0  0  0
 10  9  1  0  0  0  0
 10 11  1  0  0  0  0
 12 10  2  0  0  0  0
 13 12  1  0  0  0  0
 14 15  2  0  0  0  0
 14 12  1  0  0  0  0
 15 16  1  0  0  0  0
 16 17  1  0  0  0  0
 16  9  2  0  0  0  0
 18 15  1  0  0  0  0
 19 28  1  0  0  0  0
 19 18  1  0  0  0  0
 20 19  2  0  0  0  0
 21 20  1  0  0  0  0
 22 24  2  0  0  0  0
 22 20  1  0  0  0  0
 23 22  1  0  0  0  0
 24 26  1  0  0  0  0
 25 24  1  0  0  0  0
 26 28  2  0  0  0  0
 27 26  1  0  0  0  0
 28 29  1  0  0  0  0
 29 14  1  0  0  0  0
 30 29  1  0  0  0  0
 31 32  1  0  0  0  0
 31 33  1  0  0  0  0
 34 31  1  0  0  0  0
 34 35  1  0  0  0  0
 35 36  1  0  0  0  0
 36 45  1  0  0  0  0
 36 37  2  0  0  0  0
 37 46  1  0  0  0  0
 38 37  1  0  0  0  0
 38 39  1  0  0  0  0
 40 39  2  0  0  0  0
 40 47  1  0  0  0  0
 41 48  1  0  0  0  0
 41 40  1  0  0  0  0
 42 43  1  0  0  0  0
 42 41  2  0  0  0  0
 43 38  2  0  0  0  0
 44 35  2  0  0  0  0
 44 43  1  0  0  0  0
 49 42  1  0  0  0  0
 50 44  1  0  0  0  0
M  END
>  <minimizedAffinity>
-8.05698586

>  <minimizedRMSD>
1.05430663

$$$$
