
 OpenBabel03242523323D

 50 55  0  0  0  0  0  0  0  0999 V2000
   44.4150   36.2000   44.8510 C   0  0  0  0  0  0  0  0  0  0  0  0
   45.0840   36.0600   43.6180 C   0  0  0  0  0  0  0  0  0  0  0  0
   45.8960   34.9450   43.4080 C   0  0  0  0  0  0  0  0  0  0  0  0
   46.0160   34.0160   44.4140 N   0  0  0  0  0  0  0  0  0  0  0  0
   45.3540   34.1880   45.5880 C   0  0  0  0  0  0  0  0  0  0  0  0
   44.5740   35.2550   45.7950 N   0  0  0  0  0  0  0  0  0  0  0  0
   43.7720   37.0610   45.0480 H   0  0  0  0  0  0  0  0  0  0  0  0
   44.9520   36.8220   42.8630 H   0  0  0  0  0  0  0  0  0  0  0  0
   46.6040   34.7430   42.1760 C   0  0  0  0  0  0  0  0  0  0  0  0
   47.8730   35.1970   41.9070 C   0  0  0  0  0  0  0  0  0  0  0  0
   48.4010   35.7490   42.6590 H   0  0  0  0  0  0  0  0  0  0  0  0
   48.4750   34.9500   40.6780 C   0  0  0  0  0  0  0  0  0  0  0  0
   49.4920   35.3550   40.5610 H   0  0  0  0  0  0  0  0  0  0  0  0
   47.8490   34.2470   39.6710 C   0  0  0  0  0  0  0  0  0  0  0  0
   46.5890   33.7990   39.9450 C   0  0  0  0  0  0  0  0  0  0  0  0
   46.0180   34.0470   41.1410 C   0  0  0  0  0  0  0  0  0  0  0  0
   45.0050   33.6630   41.3060 H   0  0  0  0  0  0  0  0  0  0  0  0
   45.7380   32.8850   38.6760 S   0  0  0  0  0  0  0  0  0  0  0  0
   46.8450   32.7950   37.2840 C   0  0  0  0  0  0  0  0  0  0  0  0
   46.3940   32.1280   36.1760 C   0  0  0  0  0  0  0  0  0  0  0  0
   45.4200   31.6800   36.1460 H   0  0  0  0  0  0  0  0  0  0  0  0
   47.1990   32.0200   35.0630 C   0  0  0  0  0  0  0  0  0  0  0  0
   46.8430   31.4930   34.1870 H   0  0  0  0  0  0  0  0  0  0  0  0
   48.4530   32.5930   35.0920 C   0  0  0  0  0  0  0  0  0  0  0  0
   49.1030   32.5230   34.2350 H   0  0  0  0  0  0  0  0  0  0  0  0
   48.8390   33.2470   36.2390 C   0  0  0  0  0  0  0  0  0  0  0  0
   49.8490   33.6820   36.1990 H   0  0  0  0  0  0  0  0  0  0  0  0
   48.0790   33.3870   37.3810 C   0  0  0  0  0  0  0  0  0  0  0  0
   48.6010   34.0870   38.4920 N   0  0  0  0  0  0  0  0  0  0  0  0
   49.5610   34.4740   38.3880 H   0  0  0  0  0  0  0  0  0  0  0  0
   45.5720   33.1120   46.5860 C   0  0  0  0  0  0  0  0  0  0  0  0
   44.5950   32.6290   46.8090 H   0  0  0  0  0  0  0  0  0  0  0  0
   45.8760   33.6410   47.5060 H   0  0  0  0  0  0  0  0  0  0  0  0
   46.7810   31.9600   45.9250 S   0  0  0  0  0  0  0  0  0  0  0  0
   47.7400   31.2290   47.2370 C   0  0  0  0  0  0  0  0  0  0  0  0
   48.0180   32.0060   48.3370 C   0  0  0  0  0  0  0  0  0  0  0  0
   48.7490   31.4500   49.3440 C   0  0  0  0  0  0  0  0  0  0  0  0
   49.2160   30.1340   49.2910 C   0  0  0  0  0  0  0  0  0  0  0  0
   49.9320   29.6360   50.3180 N   0  0  0  0  0  0  0  0  0  0  0  0
   50.3910   28.3730   50.2960 C   0  0  0  0  0  0  0  0  0  0  0  0
   50.1190   27.5860   49.1990 C   0  0  0  0  0  0  0  0  0  0  0  0
   49.3800   28.0990   48.1380 C   0  0  0  0  0  0  0  0  0  0  0  0
   48.9000   29.4110   48.1550 C   0  0  0  0  0  0  0  0  0  0  0  0
   48.1670   29.9310   47.1210 C   0  0  0  0  0  0  0  0  0  0  0  0
   47.7250   33.0310   48.5130 H   0  0  0  0  0  0  0  0  0  0  0  0
   49.0120   32.0010   50.2500 H   0  0  0  0  0  0  0  0  0  0  0  0
   50.9550   28.0760   51.1730 H   0  0  0  0  0  0  0  0  0  0  0  0
   50.4990   26.5790   49.2070 H   0  0  0  0  0  0  0  0  0  0  0  0
   49.1700   27.4750   47.2800 H   0  0  0  0  0  0  0  0  0  0  0  0
   47.9410   29.3340   46.2510 H   0  0  0  0  0  0  0  0  0  0  0  0
  1  7  1  0  0  0  0
  1  6  1  0  0  0  0
  2  1  2  0  0  0  0
  3  2  1  0  0  0  0
  3  4  2  0  0  0  0
  4  5  1  0  0  0  0
  5  6  2  0  0  0  0
  5 31  1  0  0  0  0
  8  2  1  0  0  0  0
  9  3  1  0  0  0  0
 10  9  1  0  0  0  0
 10 11  1  0  0  0  0
 12 10  2  0  0  0  0
 13 12  1  0  0  0  0
 14 15  2  0  0  0  0
 14 12  1  0  0  0  0
 15 16  1  0  0  0  0
 16 17  1  0  0  0  0
 16  9  2  0  0  0  0
 18 15  1  0  0  0  0
 19 28  1  0  0  0  0
 19 18  1  0  0  0  0
 20 19  2  0  0  0  0
 21 20  1  0  0  0  0
 22 24  2  0  0  0  0
 22 20  1  0  0  0  0
 23 22  1  0  0  0  0
 24 26  1  0  0  0  0
 25 24  1  0  0  0  0
 26 28  2  0  0  0  0
 27 26  1  0  0  0  0
 28 29  1  0  0  0  0
 29 14  1  0  0  0  0
 30 29  1  0  0  0  0
 31 32  1  0  0  0  0
 31 33  1  0  0  0  0
 34 31  1  0  0  0  0
 34 35  1  0  0  0  0
 35 36  1  0  0  0  0
 36 45  1  0  0  0  0
 36 37  2  0  0  0  0
 37 46  1  0  0  0  0
 38 37  1  0  0  0  0
 38 39  1  0  0  0  0
 40 39  2  0  0  0  0
 40 47  1  0  0  0  0
 41 48  1  0  0  0  0
 41 40  1  0  0  0  0
 42 43  1  0  0  0  0
 42 41  2  0  0  0  0
 43 38  2  0  0  0  0
 44 35  2  0  0  0  0
 44 43  1  0  0  0  0
 49 42  1  0  0  0  0
 50 44  1  0  0  0  0
M  END
>  <minimizedAffinity>
-8.0572834

>  <minimizedRMSD>
1.33947361

$$$$
