
 OpenBabel03242523323D

 50 55  0  0  0  0  0  0  0  0999 V2000
   44.5960   35.9650   44.5500 C   0  0  0  0  0  0  0  0  0  0  0  0
   45.3780   35.6340   43.4260 C   0  0  0  0  0  0  0  0  0  0  0  0
   46.1850   34.4960   43.4710 C   0  0  0  0  0  0  0  0  0  0  0  0
   46.1890   33.7330   44.6140 N   0  0  0  0  0  0  0  0  0  0  0  0
   45.4180   34.0880   45.6770 C   0  0  0  0  0  0  0  0  0  0  0  0
   44.6440   35.1770   45.6390 N   0  0  0  0  0  0  0  0  0  0  0  0
   43.9540   36.8490   44.5480 H   0  0  0  0  0  0  0  0  0  0  0  0
   45.3360   36.2710   42.5540 H   0  0  0  0  0  0  0  0  0  0  0  0
   47.0060   34.1030   42.3610 C   0  0  0  0  0  0  0  0  0  0  0  0
   47.0730   34.7610   41.1540 C   0  0  0  0  0  0  0  0  0  0  0  0
   46.4770   35.6370   41.0020 H   0  0  0  0  0  0  0  0  0  0  0  0
   47.9020   34.3000   40.1370 C   0  0  0  0  0  0  0  0  0  0  0  0
   47.8860   34.8950   39.2100 H   0  0  0  0  0  0  0  0  0  0  0  0
   48.6920   33.1790   40.2690 C   0  0  0  0  0  0  0  0  0  0  0  0
   48.6200   32.5330   41.4710 C   0  0  0  0  0  0  0  0  0  0  0  0
   47.8120   32.9900   42.4470 C   0  0  0  0  0  0  0  0  0  0  0  0
   47.7930   32.4310   43.3910 H   0  0  0  0  0  0  0  0  0  0  0  0
   49.6220   31.0780   41.6920 S   0  0  0  0  0  0  0  0  0  0  0  0
   50.5180   30.8410   40.1720 C   0  0  0  0  0  0  0  0  0  0  0  0
   51.3650   29.7650   40.1120 C   0  0  0  0  0  0  0  0  0  0  0  0
   51.4830   29.0960   40.9420 H   0  0  0  0  0  0  0  0  0  0  0  0
   52.0890   29.5210   38.9670 C   0  0  0  0  0  0  0  0  0  0  0  0
   52.7570   28.6730   38.9190 H   0  0  0  0  0  0  0  0  0  0  0  0
   51.9430   30.3760   37.8940 C   0  0  0  0  0  0  0  0  0  0  0  0
   52.4980   30.2080   36.9860 H   0  0  0  0  0  0  0  0  0  0  0  0
   51.0760   31.4350   38.0250 C   0  0  0  0  0  0  0  0  0  0  0  0
   51.0030   32.0800   37.1360 H   0  0  0  0  0  0  0  0  0  0  0  0
   50.3250   31.7290   39.1440 C   0  0  0  0  0  0  0  0  0  0  0  0
   49.4700   32.8540   39.1430 N   0  0  0  0  0  0  0  0  0  0  0  0
   49.4500   33.4210   38.2700 H   0  0  0  0  0  0  0  0  0  0  0  0
   45.5170   33.1770   46.8440 C   0  0  0  0  0  0  0  0  0  0  0  0
   44.5060   33.0630   47.2930 H   0  0  0  0  0  0  0  0  0  0  0  0
   46.1250   33.7310   47.5800 H   0  0  0  0  0  0  0  0  0  0  0  0
   46.2120   31.6160   46.2910 S   0  0  0  0  0  0  0  0  0  0  0  0
   47.4200   31.0150   47.4550 C   0  0  0  0  0  0  0  0  0  0  0  0
   47.8890   31.8940   48.4030 C   0  0  0  0  0  0  0  0  0  0  0  0
   48.8120   31.4380   49.2970 C   0  0  0  0  0  0  0  0  0  0  0  0
   49.2870   30.1240   49.2770 C   0  0  0  0  0  0  0  0  0  0  0  0
   50.1970   29.7270   50.1870 N   0  0  0  0  0  0  0  0  0  0  0  0
   50.6690   28.4690   50.1940 C   0  0  0  0  0  0  0  0  0  0  0  0
   50.2070   27.5800   49.2480 C   0  0  0  0  0  0  0  0  0  0  0  0
   49.2680   27.9880   48.3070 C   0  0  0  0  0  0  0  0  0  0  0  0
   48.7730   29.2950   48.2950 C   0  0  0  0  0  0  0  0  0  0  0  0
   47.8440   29.7130   47.3790 C   0  0  0  0  0  0  0  0  0  0  0  0
   47.6140   32.9300   48.5360 H   0  0  0  0  0  0  0  0  0  0  0  0
   49.2330   32.0730   50.0800 H   0  0  0  0  0  0  0  0  0  0  0  0
   51.3980   28.2580   50.9690 H   0  0  0  0  0  0  0  0  0  0  0  0
   50.6020   26.5800   49.2760 H   0  0  0  0  0  0  0  0  0  0  0  0
   48.9090   27.2860   47.5680 H   0  0  0  0  0  0  0  0  0  0  0  0
   47.4670   29.0360   46.6290 H   0  0  0  0  0  0  0  0  0  0  0  0
  1  6  1  0  0  0  0
  2  3  1  0  0  0  0
  2  1  2  0  0  0  0
  3  4  2  0  0  0  0
  4  5  1  0  0  0  0
  5 31  1  0  0  0  0
  6  5  2  0  0  0  0
  7  1  1  0  0  0  0
  8  2  1  0  0  0  0
  9 16  1  0  0  0  0
  9  3  1  0  0  0  0
 10  9  2  0  0  0  0
 11 10  1  0  0  0  0
 12 14  2  0  0  0  0
 12 10  1  0  0  0  0
 13 12  1  0  0  0  0
 14 15  1  0  0  0  0
 15 18  1  0  0  0  0
 15 16  2  0  0  0  0
 16 17  1  0  0  0  0
 19 18  1  0  0  0  0
 20 19  1  0  0  0  0
 20 21  1  0  0  0  0
 22 20  2  0  0  0  0
 23 22  1  0  0  0  0
 24 26  2  0  0  0  0
 24 22  1  0  0  0  0
 25 24  1  0  0  0  0
 26 28  1  0  0  0  0
 27 26  1  0  0  0  0
 28 19  2  0  0  0  0
 29 28  1  0  0  0  0
 29 14  1  0  0  0  0
 30 29  1  0  0  0  0
 31 32  1  0  0  0  0
 31 33  1  0  0  0  0
 34 31  1  0  0  0  0
 34 35  1  0  0  0  0
 35 36  1  0  0  0  0
 36 45  1  0  0  0  0
 36 37  2  0  0  0  0
 37 46  1  0  0  0  0
 38 37  1  0  0  0  0
 38 39  1  0  0  0  0
 39 40  2  0  0  0  0
 40 47  1  0  0  0  0
 41 48  1  0  0  0  0
 41 40  1  0  0  0  0
 42 41  2  0  0  0  0
 43 42  1  0  0  0  0
 43 38  2  0  0  0  0
 44 35  2  0  0  0  0
 44 43  1  0  0  0  0
 49 42  1  0  0  0  0
 50 44  1  0  0  0  0
M  END
>  <minimizedAffinity>
-7.0770545

>  <minimizedRMSD>
0.350553691

$$$$
