
 OpenBabel03242518003D

 50 54  0  0  0  0  0  0  0  0999 V2000
   47.5830   32.0700   48.0160 C   0  0  0  0  0  0  0  0  0  0  0  0
   47.2780   31.2880   46.8650 C   0  0  0  0  0  0  0  0  0  0  0  0
   48.0170   30.1110   46.6930 C   0  0  0  0  0  0  0  0  0  0  0  0
   48.9620   29.7860   47.6120 N   0  0  0  0  0  0  0  0  0  0  0  0
   49.2190   30.5470   48.6800 C   0  0  0  0  0  0  0  0  0  0  0  0
   48.5340   31.6680   48.8680 N   0  0  0  0  0  0  0  0  0  0  0  0
   47.0650   32.9950   48.2330 H   0  0  0  0  0  0  0  0  0  0  0  0
   47.8120   29.4880   45.8260 H   0  0  0  0  0  0  0  0  0  0  0  0
   50.2440   30.1630   49.6450 C   0  0  0  0  0  0  0  0  0  0  0  0
   49.8930   29.8650   50.9460 C   0  0  0  0  0  0  0  0  0  0  0  0
   48.8430   29.9180   51.2420 H   0  0  0  0  0  0  0  0  0  0  0  0
   50.8680   29.5010   51.8530 C   0  0  0  0  0  0  0  0  0  0  0  0
   50.5010   29.2830   52.8580 H   0  0  0  0  0  0  0  0  0  0  0  0
   52.2080   29.4170   51.5330 C   0  0  0  0  0  0  0  0  0  0  0  0
   52.5310   29.7190   50.2330 C   0  0  0  0  0  0  0  0  0  0  0  0
   51.5790   30.0750   49.3410 C   0  0  0  0  0  0  0  0  0  0  0  0
   51.8650   30.3070   48.3250 H   0  0  0  0  0  0  0  0  0  0  0  0
   54.2370   29.6270   49.7650 S   0  0  0  0  0  0  0  0  0  0  0  0
   55.1460   29.1280   51.2170 C   0  0  0  0  0  0  0  0  0  0  0  0
   56.4950   28.9990   51.0640 C   0  0  0  0  0  0  0  0  0  0  0  0
   57.0190   29.1750   50.1460 H   0  0  0  0  0  0  0  0  0  0  0  0
   57.2520   28.6160   52.1520 C   0  0  0  0  0  0  0  0  0  0  0  0
   58.3250   28.4850   52.1310 H   0  0  0  0  0  0  0  0  0  0  0  0
   56.6320   28.3750   53.3600 C   0  0  0  0  0  0  0  0  0  0  0  0
   57.2020   28.0750   54.2270 H   0  0  0  0  0  0  0  0  0  0  0  0
   55.2630   28.5310   53.4230 C   0  0  0  0  0  0  0  0  0  0  0  0
   54.8220   28.3270   54.4100 H   0  0  0  0  0  0  0  0  0  0  0  0
   54.4450   28.9110   52.3780 C   0  0  0  0  0  0  0  0  0  0  0  0
   53.0710   29.0310   52.5800 N   0  0  0  0  0  0  0  0  0  0  0  0
   52.7030   28.8270   53.5330 H   0  0  0  0  0  0  0  0  0  0  0  0
   46.2500   31.7280   45.9360 C   0  0  0  0  0  0  0  0  0  0  0  0
   45.3440   32.1430   46.3890 H   0  0  0  0  0  0  0  0  0  0  0  0
   45.8890   30.7990   45.4010 H   0  0  0  0  0  0  0  0  0  0  0  0
   46.9120   32.6390   44.9170 C   0  0  0  0  0  0  0  0  0  0  0  0
   47.1700   32.0440   44.0120 H   0  0  0  0  0  0  0  0  0  0  0  0
   47.9190   33.0000   45.2830 H   0  0  0  0  0  0  0  0  0  0  0  0
   46.3530   34.4910   43.3990 C   0  0  0  0  0  0  0  0  0  0  0  0
   46.1550   33.8550   44.6130 C   0  0  0  0  0  0  0  0  0  0  0  0
   45.2700   34.3150   45.5570 C   0  0  0  0  0  0  0  0  0  0  0  0
   44.5540   35.4600   45.2720 C   0  0  0  0  0  0  0  0  0  0  0  0
   44.6870   36.1490   44.1060 C   0  0  0  0  0  0  0  0  0  0  0  0
   45.6000   35.6210   43.2040 C   0  0  0  0  0  0  0  0  0  0  0  0
   45.0600   33.8950   46.5000 H   0  0  0  0  0  0  0  0  0  0  0  0
   43.8280   35.8870   45.9820 H   0  0  0  0  0  0  0  0  0  0  0  0
   44.1360   37.0410   43.8720 H   0  0  0  0  0  0  0  0  0  0  0  0
   45.7300   36.1520   42.2550 H   0  0  0  0  0  0  0  0  0  0  0  0
   47.4660   33.9410   42.1730 S   0  0  0  0  0  0  0  0  0  0  0  0
   48.8480   34.5380   42.3410 O   0  0  0  0  0  0  0  0  0  0  0  0
   47.0080   34.4800   40.8310 O   0  0  0  0  0  0  0  0  0  0  0  0
   47.4920   32.5910   42.0190 H   0  0  0  0  0  0  0  0  0  0  0  0
  1  7  1  0  0  0  0
  1  6  1  0  0  0  0
  2  1  2  0  0  0  0
  3  2  1  0  0  0  0
  3  4  2  0  0  0  0
  4  5  1  0  0  0  0
  5  6  2  0  0  0  0
  5  9  1  0  0  0  0
  8  3  1  0  0  0  0
  9 10  1  0  0  0  0
 10 11  1  0  0  0  0
 10 12  2  0  0  0  0
 12 13  1  0  0  0  0
 14 12  1  0  0  0  0
 14 29  1  0  0  0  0
 15 14  2  0  0  0  0
 16  9  2  0  0  0  0
 16 15  1  0  0  0  0
 17 16  1  0  0  0  0
 18 15  1  0  0  0  0
 18 19  1  0  0  0  0
 19 28  1  0  0  0  0
 20 19  2  0  0  0  0
 20 22  1  0  0  0  0
 21 20  1  0  0  0  0
 22 24  2  0  0  0  0
 23 22  1  0  0  0  0
 24 26  1  0  0  0  0
 24 25  1  0  0  0  0
 26 27  1  0  0  0  0
 28 29  1  0  0  0  0
 28 26  2  0  0  0  0
 29 30  1  0  0  0  0
 31 32  1  0  0  0  0
 31  2  1  0  0  0  0
 33 31  1  0  0  0  0
 34 36  1  0  0  0  0
 34 31  1  0  0  0  0
 35 34  1  0  0  0  0
 37 38  1  0  0  0  0
 38 34  1  0  0  0  0
 38 39  2  0  0  0  0
 39 43  1  0  0  0  0
 40 39  1  0  0  0  0
 40 44  1  0  0  0  0
 41 40  2  0  0  0  0
 42 37  2  0  0  0  0
 42 41  1  0  0  0  0
 45 41  1  0  0  0  0
 46 42  1  0  0  0  0
 47 48  2  0  0  0  0
 47 37  1  0  0  0  0
 49 47  2  0  0  0  0
 50 47  1  0  0  0  0
M  END
>  <minimizedAffinity>
-6.16636086

>  <minimizedRMSD>
1.05574024

$$$$
