
 OpenBabel03252503503D

 34 37  0  0  0  0  0  0  0  0999 V2000
   47.0550   32.4030   45.1760 C   0  0  0  0  0  0  0  0  0  0  0  0
   46.8550   32.4900   46.5360 C   0  0  0  0  0  0  0  0  0  0  0  0
   46.5290   33.4200   46.9420 H   0  0  0  0  0  0  0  0  0  0  0  0
   47.0810   31.3830   47.3300 C   0  0  0  0  0  0  0  0  0  0  0  0
   46.8970   31.5470   48.3970 H   0  0  0  0  0  0  0  0  0  0  0  0
   47.5040   30.1610   46.8480 C   0  0  0  0  0  0  0  0  0  0  0  0
   47.6940   30.1030   45.4900 C   0  0  0  0  0  0  0  0  0  0  0  0
   47.4770   31.1800   44.7000 C   0  0  0  0  0  0  0  0  0  0  0  0
   47.6470   31.0720   43.6180 H   0  0  0  0  0  0  0  0  0  0  0  0
   48.2370   28.5730   44.7880 S   0  0  0  0  0  0  0  0  0  0  0  0
   48.4060   27.4170   46.1320 C   0  0  0  0  0  0  0  0  0  0  0  0
   48.8150   26.1460   45.8670 C   0  0  0  0  0  0  0  0  0  0  0  0
   49.0330   25.8550   44.8380 H   0  0  0  0  0  0  0  0  0  0  0  0
   48.9680   25.2010   46.8570 C   0  0  0  0  0  0  0  0  0  0  0  0
   49.2880   24.1850   46.7000 H   0  0  0  0  0  0  0  0  0  0  0  0
   48.6880   25.5900   48.1490 C   0  0  0  0  0  0  0  0  0  0  0  0
   48.7930   24.8840   48.9620 H   0  0  0  0  0  0  0  0  0  0  0  0
   48.2760   26.8880   48.3750 C   0  0  0  0  0  0  0  0  0  0  0  0
   48.0720   27.1240   49.4310 H   0  0  0  0  0  0  0  0  0  0  0  0
   48.1160   27.8510   47.4010 C   0  0  0  0  0  0  0  0  0  0  0  0
   47.6890   29.1260   47.7960 N   0  0  0  0  0  0  0  0  0  0  0  0
   47.5060   29.3110   48.8030 H   0  0  0  0  0  0  0  0  0  0  0  0
   47.5920   34.9090   42.4210 C   0  0  0  0  0  0  0  0  0  0  0  0
   47.8380   33.8590   43.3100 C   0  0  0  0  0  0  0  0  0  0  0  0
   46.8550   33.4880   44.2260 C   0  0  0  0  0  0  0  0  0  0  0  0
   45.6900   34.1860   44.1990 N   0  0  0  0  0  0  0  0  0  0  0  0
   45.4650   35.1910   43.3430 C   0  0  0  0  0  0  0  0  0  0  0  0
   46.4070   35.5430   42.4680 N   0  0  0  0  0  0  0  0  0  0  0  0
   48.7720   33.3580   43.2770 H   0  0  0  0  0  0  0  0  0  0  0  0
   44.5040   35.6880   43.3960 H   0  0  0  0  0  0  0  0  0  0  0  0
   48.6680   35.2750   41.4580 C   0  0  0  0  0  0  0  0  0  0  0  0
   48.2480   35.1620   40.1570 F   0  0  0  0  0  0  0  0  0  0  0  0
   49.1160   36.5440   41.7600 F   0  0  0  0  0  0  0  0  0  0  0  0
   49.7650   34.4240   41.6700 F   0  0  0  0  0  0  0  0  0  0  0  0
  1  2  1  0  0  0  0
  2  3  1  0  0  0  0
  2  4  2  0  0  0  0
  4  5  1  0  0  0  0
  6  4  1  0  0  0  0
  6 21  1  0  0  0  0
  7  6  2  0  0  0  0
  8  1  2  0  0  0  0
  8  7  1  0  0  0  0
  9  8  1  0  0  0  0
 10  7  1  0  0  0  0
 10 11  1  0  0  0  0
 11 20  1  0  0  0  0
 12 11  2  0  0  0  0
 12 14  1  0  0  0  0
 13 12  1  0  0  0  0
 14 16  2  0  0  0  0
 15 14  1  0  0  0  0
 16 18  1  0  0  0  0
 16 17  1  0  0  0  0
 18 19  1  0  0  0  0
 20 21  1  0  0  0  0
 20 18  2  0  0  0  0
 21 22  1  0  0  0  0
 23 28  2  0  0  0  0
 23 24  1  0  0  0  0
 24 25  2  0  0  0  0
 25  1  1  0  0  0  0
 26 25  1  0  0  0  0
 27 30  1  0  0  0  0
 27 26  2  0  0  0  0
 28 27  1  0  0  0  0
 29 24  1  0  0  0  0
 31 34  1  0  0  0  0
 31 33  1  0  0  0  0
 31 23  1  0  0  0  0
 32 31  1  0  0  0  0
M  END
>  <minimizedAffinity>
-5.58983946

>  <minimizedRMSD>
1.41142261

$$$$
