
 OpenBabel03252502363D

 37 40  0  0  1  0  0  0  0  0999 V2000
   45.2300   34.6570   41.5670 C   0  0  0  0  0  0  0  0  0  0  0  0
   45.5230   33.8560   40.4810 C   0  0  0  0  0  0  0  0  0  0  0  0
   46.5500   33.5840   40.3780 H   0  0  0  0  0  0  0  0  0  0  0  0
   44.5370   33.4620   39.6220 C   0  0  0  0  0  0  0  0  0  0  0  0
   44.8630   32.8350   38.7980 H   0  0  0  0  0  0  0  0  0  0  0  0
   43.2210   33.8330   39.7870 C   0  0  0  0  0  0  0  0  0  0  0  0
   42.8880   34.6290   40.8550 C   0  0  0  0  0  0  0  0  0  0  0  0
   43.8800   35.0110   41.6980 C   0  0  0  0  0  0  0  0  0  0  0  0
   43.5900   35.6390   42.5330 H   0  0  0  0  0  0  0  0  0  0  0  0
   41.1940   35.1270   41.0970 S   0  0  0  0  0  0  0  0  0  0  0  0
   40.2880   34.3860   39.7550 C   0  0  0  0  0  0  0  0  0  0  0  0
   38.9580   34.6350   39.7380 C   0  0  0  0  0  0  0  0  0  0  0  0
   38.4450   35.2510   40.4910 H   0  0  0  0  0  0  0  0  0  0  0  0
   38.1540   34.1140   38.7460 C   0  0  0  0  0  0  0  0  0  0  0  0
   37.0900   34.2970   38.7080 H   0  0  0  0  0  0  0  0  0  0  0  0
   38.7480   33.3330   37.7750 C   0  0  0  0  0  0  0  0  0  0  0  0
   38.1480   32.9080   36.9820 H   0  0  0  0  0  0  0  0  0  0  0  0
   40.1040   33.1220   37.8540 C   0  0  0  0  0  0  0  0  0  0  0  0
   40.5120   32.4940   37.0520 H   0  0  0  0  0  0  0  0  0  0  0  0
   40.9420   33.6230   38.8260 C   0  0  0  0  0  0  0  0  0  0  0  0
   42.3260   33.3420   38.8120 N   0  0  0  0  0  0  0  0  0  0  0  0
   42.6460   32.7410   38.0270 H   0  0  0  0  0  0  0  0  0  0  0  0
   46.1720   35.1750   42.5960 C   0  0  1  0  0  0  0  0  0  0  0  0
   45.9050   36.2410   42.7920 H   0  0  0  0  0  0  0  0  0  0  0  0
   45.2300   34.8230   44.8260 C   0  0  0  0  0  0  0  0  0  0  0  0
   46.1540   34.4620   43.8520 C   0  0  0  0  0  0  0  0  0  0  0  0
   47.0150   33.3990   44.1850 C   0  0  0  0  0  0  0  0  0  0  0  0
   46.8870   32.8130   45.4020 N   0  0  0  0  0  0  0  0  0  0  0  0
   45.9790   33.2030   46.2980 C   0  0  0  0  0  0  0  0  0  0  0  0
   45.1450   34.2110   46.0140 N   0  0  0  0  0  0  0  0  0  0  0  0
   44.5180   35.6430   44.6520 H   0  0  0  0  0  0  0  0  0  0  0  0
   47.7480   33.0850   43.4550 H   0  0  0  0  0  0  0  0  0  0  0  0
   45.8600   32.7490   47.2770 H   0  0  0  0  0  0  0  0  0  0  0  0
   47.5900   35.1390   42.0590 C   0  0  0  0  0  0  0  0  0  0  0  0
   48.2900   35.6270   42.7730 H   0  0  0  0  0  0  0  0  0  0  0  0
   47.8450   34.1010   41.8520 H   0  0  0  0  0  0  0  0  0  0  0  0
   47.5900   35.7820   41.1440 H   0  0  0  0  0  0  0  0  0  0  0  0
  1  8  1  0  0  0  0
  1 23  1  0  0  0  0
  2  1  2  0  0  0  0
  3  2  1  0  0  0  0
  4  6  2  0  0  0  0
  4  2  1  0  0  0  0
  5  4  1  0  0  0  0
  6  7  1  0  0  0  0
  7 10  1  0  0  0  0
  7  8  2  0  0  0  0
  8  9  1  0  0  0  0
 11 10  1  0  0  0  0
 12 11  1  0  0  0  0
 12 13  1  0  0  0  0
 14 12  2  0  0  0  0
 15 14  1  0  0  0  0
 16 18  2  0  0  0  0
 16 14  1  0  0  0  0
 17 16  1  0  0  0  0
 18 20  1  0  0  0  0
 19 18  1  0  0  0  0
 20 11  2  0  0  0  0
 21 20  1  0  0  0  0
 21  6  1  0  0  0  0
 22 21  1  0  0  0  0
 23 24  1  1  0  0  0
 23 26  1  0  0  0  0
 25 30  1  0  0  0  0
 26 27  1  0  0  0  0
 26 25  2  0  0  0  0
 27 28  2  0  0  0  0
 28 29  1  0  0  0  0
 29 33  1  0  0  0  0
 30 29  2  0  0  0  0
 31 25  1  0  0  0  0
 32 27  1  0  0  0  0
 34 23  1  0  0  0  0
 34 35  1  0  0  0  0
 36 34  1  0  0  0  0
 37 34  1  0  0  0  0
M  END
>  <minimizedAffinity>
-6.61731052

>  <minimizedRMSD>
2.3842504

$$$$
