
 OpenBabel03252503493D

 34 37  0  0  0  0  0  0  0  0999 V2000
   46.3730   32.3380   45.2710 C   0  0  0  0  0  0  0  0  0  0  0  0
   46.8930   32.3410   46.5470 C   0  0  0  0  0  0  0  0  0  0  0  0
   47.4820   33.1750   46.8520 H   0  0  0  0  0  0  0  0  0  0  0  0
   46.6380   31.2770   47.3880 C   0  0  0  0  0  0  0  0  0  0  0  0
   47.0910   31.3660   48.3810 H   0  0  0  0  0  0  0  0  0  0  0  0
   45.8810   30.1770   47.0370 C   0  0  0  0  0  0  0  0  0  0  0  0
   45.3770   30.2020   45.7590 C   0  0  0  0  0  0  0  0  0  0  0  0
   45.6180   31.2380   44.9240 C   0  0  0  0  0  0  0  0  0  0  0  0
   45.1870   31.1990   43.9120 H   0  0  0  0  0  0  0  0  0  0  0  0
   44.3940   28.8320   45.2240 S   0  0  0  0  0  0  0  0  0  0  0  0
   44.3090   27.6910   46.5900 C   0  0  0  0  0  0  0  0  0  0  0  0
   43.6040   26.5350   46.4450 C   0  0  0  0  0  0  0  0  0  0  0  0
   43.1030   26.3250   45.5000 H   0  0  0  0  0  0  0  0  0  0  0  0
   43.4970   25.6090   47.4600 C   0  0  0  0  0  0  0  0  0  0  0  0
   42.9520   24.6820   47.3960 H   0  0  0  0  0  0  0  0  0  0  0  0
   44.1370   25.8940   48.6460 C   0  0  0  0  0  0  0  0  0  0  0  0
   44.0810   25.1970   49.4720 H   0  0  0  0  0  0  0  0  0  0  0  0
   44.8400   27.0760   48.7500 C   0  0  0  0  0  0  0  0  0  0  0  0
   45.3240   27.2330   49.7270 H   0  0  0  0  0  0  0  0  0  0  0  0
   44.9620   28.0190   47.7510 C   0  0  0  0  0  0  0  0  0  0  0  0
   45.7140   29.1700   48.0170 N   0  0  0  0  0  0  0  0  0  0  0  0
   46.1570   29.2840   48.9520 H   0  0  0  0  0  0  0  0  0  0  0  0
   47.8900   34.5760   42.6540 C   0  0  0  0  0  0  0  0  0  0  0  0
   47.7620   33.5460   43.5900 C   0  0  0  0  0  0  0  0  0  0  0  0
   46.5630   33.3920   44.2850 C   0  0  0  0  0  0  0  0  0  0  0  0
   45.5690   34.2730   44.0040 N   0  0  0  0  0  0  0  0  0  0  0  0
   45.7020   35.2570   43.1050 C   0  0  0  0  0  0  0  0  0  0  0  0
   46.8500   35.4020   42.4430 N   0  0  0  0  0  0  0  0  0  0  0  0
   48.5800   32.8940   43.7600 H   0  0  0  0  0  0  0  0  0  0  0  0
   44.8530   35.9100   42.9490 H   0  0  0  0  0  0  0  0  0  0  0  0
   49.1870   34.7070   41.9330 C   0  0  0  0  0  0  0  0  0  0  0  0
   49.5760   33.5210   41.3640 F   0  0  0  0  0  0  0  0  0  0  0  0
   49.0760   35.7250   41.0090 F   0  0  0  0  0  0  0  0  0  0  0  0
   50.1660   35.1290   42.8480 F   0  0  0  0  0  0  0  0  0  0  0  0
  1  2  1  0  0  0  0
  2  3  1  0  0  0  0
  2  4  2  0  0  0  0
  4  5  1  0  0  0  0
  6  4  1  0  0  0  0
  6 21  1  0  0  0  0
  7  6  2  0  0  0  0
  8  1  2  0  0  0  0
  8  7  1  0  0  0  0
  9  8  1  0  0  0  0
 10  7  1  0  0  0  0
 10 11  1  0  0  0  0
 11 20  1  0  0  0  0
 12 11  2  0  0  0  0
 12 14  1  0  0  0  0
 13 12  1  0  0  0  0
 14 16  2  0  0  0  0
 15 14  1  0  0  0  0
 16 18  1  0  0  0  0
 16 17  1  0  0  0  0
 18 19  1  0  0  0  0
 20 21  1  0  0  0  0
 20 18  2  0  0  0  0
 21 22  1  0  0  0  0
 23 24  1  0  0  0  0
 24 29  1  0  0  0  0
 24 25  2  0  0  0  0
 25  1  1  0  0  0  0
 26 25  1  0  0  0  0
 27 26  2  0  0  0  0
 28 23  2  0  0  0  0
 28 27  1  0  0  0  0
 30 27  1  0  0  0  0
 31 23  1  0  0  0  0
 31 34  1  0  0  0  0
 32 31  1  0  0  0  0
 33 31  1  0  0  0  0
M  END
>  <minimizedAffinity>
-6.29849529

>  <minimizedRMSD>
1.31329703

$$$$
