
 OpenBabel03252502363D

 37 40  0  0  1  0  0  0  0  0999 V2000
   45.8360   34.2910   40.8650 C   0  0  0  0  0  0  0  0  0  0  0  0
   46.5270   33.5110   39.9590 C   0  0  0  0  0  0  0  0  0  0  0  0
   47.5910   33.5980   40.0010 H   0  0  0  0  0  0  0  0  0  0  0  0
   45.8580   32.6980   39.0900 C   0  0  0  0  0  0  0  0  0  0  0  0
   46.4870   32.1230   38.4150 H   0  0  0  0  0  0  0  0  0  0  0  0
   44.4830   32.6120   39.0660 C   0  0  0  0  0  0  0  0  0  0  0  0
   43.7600   33.3720   39.9490 C   0  0  0  0  0  0  0  0  0  0  0  0
   44.4400   34.1740   40.8060 C   0  0  0  0  0  0  0  0  0  0  0  0
   43.8440   34.7630   41.4940 H   0  0  0  0  0  0  0  0  0  0  0  0
   41.9800   33.2840   39.9440 S   0  0  0  0  0  0  0  0  0  0  0  0
   41.5680   32.1160   38.6650 C   0  0  0  0  0  0  0  0  0  0  0  0
   40.2470   31.8890   38.4820 C   0  0  0  0  0  0  0  0  0  0  0  0
   39.4580   32.3800   39.0700 H   0  0  0  0  0  0  0  0  0  0  0  0
   39.8090   31.0040   37.5190 C   0  0  0  0  0  0  0  0  0  0  0  0
   38.7600   30.8040   37.3520 H   0  0  0  0  0  0  0  0  0  0  0  0
   40.7580   30.3590   36.7520 C   0  0  0  0  0  0  0  0  0  0  0  0
   40.4510   29.6590   35.9880 H   0  0  0  0  0  0  0  0  0  0  0  0
   42.0830   30.6380   36.9920 C   0  0  0  0  0  0  0  0  0  0  0  0
   42.7830   30.0920   36.3490 H   0  0  0  0  0  0  0  0  0  0  0  0
   42.5620   31.5140   37.9430 C   0  0  0  0  0  0  0  0  0  0  0  0
   43.9490   31.7250   38.1050 N   0  0  0  0  0  0  0  0  0  0  0  0
   44.5570   31.1780   37.4650 H   0  0  0  0  0  0  0  0  0  0  0  0
   46.3980   35.2260   41.8760 C   0  0  1  0  0  0  0  0  0  0  0  0
   46.1860   36.2660   41.5300 H   0  0  0  0  0  0  0  0  0  0  0  0
   45.0050   36.0410   43.7150 C   0  0  0  0  0  0  0  0  0  0  0  0
   45.8660   35.0720   43.2100 C   0  0  0  0  0  0  0  0  0  0  0  0
   46.1480   33.9920   44.0680 C   0  0  0  0  0  0  0  0  0  0  0  0
   45.5750   33.9700   45.2980 N   0  0  0  0  0  0  0  0  0  0  0  0
   44.7550   34.9300   45.7290 C   0  0  0  0  0  0  0  0  0  0  0  0
   44.4660   35.9710   44.9390 N   0  0  0  0  0  0  0  0  0  0  0  0
   44.7290   36.9200   43.1140 H   0  0  0  0  0  0  0  0  0  0  0  0
   46.8120   33.2170   43.7140 H   0  0  0  0  0  0  0  0  0  0  0  0
   44.2870   34.9320   46.7080 H   0  0  0  0  0  0  0  0  0  0  0  0
   47.9040   35.0570   41.9520 C   0  0  0  0  0  0  0  0  0  0  0  0
   48.3500   35.8250   42.6210 H   0  0  0  0  0  0  0  0  0  0  0  0
   48.1110   34.0370   42.2740 H   0  0  0  0  0  0  0  0  0  0  0  0
   48.2920   35.2810   40.9270 H   0  0  0  0  0  0  0  0  0  0  0  0
  1 23  1  0  0  0  0
  2  3  1  0  0  0  0
  2  1  2  0  0  0  0
  4  2  1  0  0  0  0
  5  4  1  0  0  0  0
  6  4  2  0  0  0  0
  6  7  1  0  0  0  0
  7  8  2  0  0  0  0
  8  1  1  0  0  0  0
  8  9  1  0  0  0  0
 10  7  1  0  0  0  0
 11 10  1  0  0  0  0
 12 11  1  0  0  0  0
 12 13  1  0  0  0  0
 14 12  2  0  0  0  0
 15 14  1  0  0  0  0
 16 18  2  0  0  0  0
 16 14  1  0  0  0  0
 17 16  1  0  0  0  0
 18 20  1  0  0  0  0
 19 18  1  0  0  0  0
 20 21  1  0  0  0  0
 20 11  2  0  0  0  0
 21  6  1  0  0  0  0
 22 21  1  0  0  0  0
 23 24  1  6  0  0  0
 23 34  1  0  0  0  0
 23 26  1  0  0  0  0
 25 30  1  0  0  0  0
 26 25  2  0  0  0  0
 26 27  1  0  0  0  0
 27 28  2  0  0  0  0
 28 29  1  0  0  0  0
 29 33  1  0  0  0  0
 30 29  2  0  0  0  0
 31 25  1  0  0  0  0
 32 27  1  0  0  0  0
 34 36  1  0  0  0  0
 34 35  1  0  0  0  0
 37 34  1  0  0  0  0
M  END
>  <minimizedAffinity>
-5.43143606

>  <minimizedRMSD>
0.906151772

$$$$
