
 OpenBabel03252503503D

 34 37  0  0  0  0  0  0  0  0999 V2000
   46.3580   32.4170   45.2660 C   0  0  0  0  0  0  0  0  0  0  0  0
   46.8140   32.4640   46.5650 C   0  0  0  0  0  0  0  0  0  0  0  0
   47.3560   33.3250   46.8800 H   0  0  0  0  0  0  0  0  0  0  0  0
   46.5570   31.4060   47.4140 C   0  0  0  0  0  0  0  0  0  0  0  0
   46.9570   31.5330   48.4270 H   0  0  0  0  0  0  0  0  0  0  0  0
   45.8590   30.2740   47.0500 C   0  0  0  0  0  0  0  0  0  0  0  0
   45.4170   30.2540   45.7500 C   0  0  0  0  0  0  0  0  0  0  0  0
   45.6610   31.2830   44.9050 C   0  0  0  0  0  0  0  0  0  0  0  0
   45.2820   31.2090   43.8750 H   0  0  0  0  0  0  0  0  0  0  0  0
   44.5130   28.8380   45.1960 S   0  0  0  0  0  0  0  0  0  0  0  0
   44.4030   27.7210   46.5780 C   0  0  0  0  0  0  0  0  0  0  0  0
   43.7490   26.5360   46.4240 C   0  0  0  0  0  0  0  0  0  0  0  0
   43.3020   26.2900   45.4600 H   0  0  0  0  0  0  0  0  0  0  0  0
   43.6260   25.6270   47.4510 C   0  0  0  0  0  0  0  0  0  0  0  0
   43.1190   24.6790   47.3810 H   0  0  0  0  0  0  0  0  0  0  0  0
   44.1960   25.9580   48.6610 C   0  0  0  0  0  0  0  0  0  0  0  0
   44.1260   25.2760   49.4970 H   0  0  0  0  0  0  0  0  0  0  0  0
   44.8490   27.1670   48.7740 C   0  0  0  0  0  0  0  0  0  0  0  0
   45.2790   27.3620   49.7700 H   0  0  0  0  0  0  0  0  0  0  0  0
   44.9860   28.0950   47.7630 C   0  0  0  0  0  0  0  0  0  0  0  0
   45.6810   29.2790   48.0410 N   0  0  0  0  0  0  0  0  0  0  0  0
   46.0730   29.4270   48.9950 H   0  0  0  0  0  0  0  0  0  0  0  0
   47.8970   34.6170   42.6300 C   0  0  0  0  0  0  0  0  0  0  0  0
   47.7600   33.5980   43.5770 C   0  0  0  0  0  0  0  0  0  0  0  0
   46.5580   33.4590   44.2680 C   0  0  0  0  0  0  0  0  0  0  0  0
   45.5690   34.3410   43.9720 N   0  0  0  0  0  0  0  0  0  0  0  0
   45.7100   35.3140   43.0630 C   0  0  0  0  0  0  0  0  0  0  0  0
   46.8620   35.4450   42.4040 N   0  0  0  0  0  0  0  0  0  0  0  0
   48.5740   32.9450   43.7580 H   0  0  0  0  0  0  0  0  0  0  0  0
   44.8650   35.9690   42.8960 H   0  0  0  0  0  0  0  0  0  0  0  0
   49.1970   34.7330   41.9130 C   0  0  0  0  0  0  0  0  0  0  0  0
   49.5750   33.5430   41.3450 F   0  0  0  0  0  0  0  0  0  0  0  0
   49.1010   35.7520   40.9890 F   0  0  0  0  0  0  0  0  0  0  0  0
   50.1780   35.1440   42.8310 F   0  0  0  0  0  0  0  0  0  0  0  0
  1  2  1  0  0  0  0
  2  3  1  0  0  0  0
  2  4  2  0  0  0  0
  4  5  1  0  0  0  0
  6  4  1  0  0  0  0
  6 21  1  0  0  0  0
  7  6  2  0  0  0  0
  8  1  2  0  0  0  0
  8  7  1  0  0  0  0
  9  8  1  0  0  0  0
 10  7  1  0  0  0  0
 10 11  1  0  0  0  0
 11 20  1  0  0  0  0
 12 11  2  0  0  0  0
 12 14  1  0  0  0  0
 13 12  1  0  0  0  0
 14 16  2  0  0  0  0
 15 14  1  0  0  0  0
 16 18  1  0  0  0  0
 16 17  1  0  0  0  0
 18 19  1  0  0  0  0
 20 21  1  0  0  0  0
 20 18  2  0  0  0  0
 21 22  1  0  0  0  0
 23 24  1  0  0  0  0
 24 29  1  0  0  0  0
 24 25  2  0  0  0  0
 25  1  1  0  0  0  0
 26 25  1  0  0  0  0
 27 26  2  0  0  0  0
 28 23  2  0  0  0  0
 28 27  1  0  0  0  0
 30 27  1  0  0  0  0
 31 23  1  0  0  0  0
 31 34  1  0  0  0  0
 32 31  1  0  0  0  0
 33 31  1  0  0  0  0
M  END
>  <minimizedAffinity>
-6.2934742

>  <minimizedRMSD>
1.46187568

$$$$
