
 OpenBabel03252503503D

 34 37  0  0  0  0  0  0  0  0999 V2000
   46.8750   31.9500   46.1550 C   0  0  0  0  0  0  0  0  0  0  0  0
   46.9670   30.7220   45.5370 C   0  0  0  0  0  0  0  0  0  0  0  0
   46.4940   30.5940   44.5900 H   0  0  0  0  0  0  0  0  0  0  0  0
   47.6590   29.6990   46.1540 C   0  0  0  0  0  0  0  0  0  0  0  0
   47.6780   28.7600   45.5900 H   0  0  0  0  0  0  0  0  0  0  0  0
   48.2850   29.8190   47.3780 C   0  0  0  0  0  0  0  0  0  0  0  0
   48.1770   31.0540   47.9700 C   0  0  0  0  0  0  0  0  0  0  0  0
   47.5010   32.0640   47.3770 C   0  0  0  0  0  0  0  0  0  0  0  0
   47.4500   33.0310   47.9000 H   0  0  0  0  0  0  0  0  0  0  0  0
   48.9510   31.2960   49.5420 S   0  0  0  0  0  0  0  0  0  0  0  0
   49.7260   29.7530   49.9810 C   0  0  0  0  0  0  0  0  0  0  0  0
   50.4020   29.6620   51.1600 C   0  0  0  0  0  0  0  0  0  0  0  0
   50.4580   30.5300   51.8170 H   0  0  0  0  0  0  0  0  0  0  0  0
   51.0250   28.5010   51.5610 C   0  0  0  0  0  0  0  0  0  0  0  0
   51.5710   28.3770   52.4820 H   0  0  0  0  0  0  0  0  0  0  0  0
   50.9430   27.4150   50.7170 C   0  0  0  0  0  0  0  0  0  0  0  0
   51.4160   26.4810   50.9880 H   0  0  0  0  0  0  0  0  0  0  0  0
   50.2490   27.5510   49.5320 C   0  0  0  0  0  0  0  0  0  0  0  0
   50.2270   26.6410   48.9100 H   0  0  0  0  0  0  0  0  0  0  0  0
   49.6170   28.7000   49.1070 C   0  0  0  0  0  0  0  0  0  0  0  0
   48.9540   28.6740   47.8740 N   0  0  0  0  0  0  0  0  0  0  0  0
   48.9550   27.7960   47.3150 H   0  0  0  0  0  0  0  0  0  0  0  0
   45.6520   34.6460   43.8330 C   0  0  0  0  0  0  0  0  0  0  0  0
   46.3450   33.5250   44.2970 C   0  0  0  0  0  0  0  0  0  0  0  0
   46.1790   33.1100   45.6170 C   0  0  0  0  0  0  0  0  0  0  0  0
   45.3330   33.8380   46.3910 N   0  0  0  0  0  0  0  0  0  0  0  0
   44.6730   34.9110   45.9370 C   0  0  0  0  0  0  0  0  0  0  0  0
   44.8350   35.3050   44.6730 N   0  0  0  0  0  0  0  0  0  0  0  0
   46.9910   33.0030   43.6370 H   0  0  0  0  0  0  0  0  0  0  0  0
   44.0200   35.4260   46.6290 H   0  0  0  0  0  0  0  0  0  0  0  0
   45.8570   35.0570   42.4160 C   0  0  0  0  0  0  0  0  0  0  0  0
   44.8250   35.8360   41.9570 F   0  0  0  0  0  0  0  0  0  0  0  0
   47.0800   35.6850   42.3120 F   0  0  0  0  0  0  0  0  0  0  0  0
   45.9550   33.9000   41.6250 F   0  0  0  0  0  0  0  0  0  0  0  0
  1  8  1  0  0  0  0
  2  4  1  0  0  0  0
  2  1  2  0  0  0  0
  3  2  1  0  0  0  0
  4  6  2  0  0  0  0
  5  4  1  0  0  0  0
  6 21  1  0  0  0  0
  6  7  1  0  0  0  0
  7 10  1  0  0  0  0
  8  9  1  0  0  0  0
  8  7  2  0  0  0  0
 10 11  1  0  0  0  0
 11 12  1  0  0  0  0
 12 14  2  0  0  0  0
 12 13  1  0  0  0  0
 14 15  1  0  0  0  0
 16 17  1  0  0  0  0
 16 14  1  0  0  0  0
 18 16  2  0  0  0  0
 19 18  1  0  0  0  0
 20 18  1  0  0  0  0
 20 11  2  0  0  0  0
 21 20  1  0  0  0  0
 22 21  1  0  0  0  0
 23 24  2  0  0  0  0
 23 28  1  0  0  0  0
 24 25  1  0  0  0  0
 25  1  1  0  0  0  0
 25 26  2  0  0  0  0
 27 26  1  0  0  0  0
 27 30  1  0  0  0  0
 28 27  2  0  0  0  0
 29 24  1  0  0  0  0
 31 23  1  0  0  0  0
 32 31  1  0  0  0  0
 33 31  1  0  0  0  0
 34 31  1  0  0  0  0
M  END
>  <minimizedAffinity>
-6.07836246

>  <minimizedRMSD>
2.13762474

$$$$
