
 OpenBabel03252502363D

 37 40  0  0  1  0  0  0  0  0999 V2000
   45.7860   34.2890   41.0320 C   0  0  0  0  0  0  0  0  0  0  0  0
   46.4860   33.6220   40.0450 C   0  0  0  0  0  0  0  0  0  0  0  0
   47.5440   33.7630   40.0610 H   0  0  0  0  0  0  0  0  0  0  0  0
   45.8310   32.8460   39.1310 C   0  0  0  0  0  0  0  0  0  0  0  0
   46.4640   32.3620   38.3950 H   0  0  0  0  0  0  0  0  0  0  0  0
   44.4620   32.6870   39.1420 C   0  0  0  0  0  0  0  0  0  0  0  0
   43.7300   33.3330   40.1080 C   0  0  0  0  0  0  0  0  0  0  0  0
   44.3970   34.1000   41.0050 C   0  0  0  0  0  0  0  0  0  0  0  0
   43.7950   34.5980   41.7570 H   0  0  0  0  0  0  0  0  0  0  0  0
   41.9590   33.1480   40.1480 S   0  0  0  0  0  0  0  0  0  0  0  0
   41.5650   32.0650   38.7900 C   0  0  0  0  0  0  0  0  0  0  0  0
   40.2520   31.7820   38.6290 C   0  0  0  0  0  0  0  0  0  0  0  0
   39.4580   32.1800   39.2790 H   0  0  0  0  0  0  0  0  0  0  0  0
   39.8280   30.9530   37.6100 C   0  0  0  0  0  0  0  0  0  0  0  0
   38.7850   30.7110   37.4600 H   0  0  0  0  0  0  0  0  0  0  0  0
   40.7820   30.4260   36.7660 C   0  0  0  0  0  0  0  0  0  0  0  0
   40.4870   29.7730   35.9570 H   0  0  0  0  0  0  0  0  0  0  0  0
   42.0990   30.7560   36.9890 C   0  0  0  0  0  0  0  0  0  0  0  0
   42.8040   30.3030   36.2810 H   0  0  0  0  0  0  0  0  0  0  0  0
   42.5630   31.5780   37.9930 C   0  0  0  0  0  0  0  0  0  0  0  0
   43.9410   31.8510   38.1300 N   0  0  0  0  0  0  0  0  0  0  0  0
   44.5560   31.3910   37.4280 H   0  0  0  0  0  0  0  0  0  0  0  0
   46.3340   35.1690   42.0990 C   0  0  1  0  0  0  0  0  0  0  0  0
   45.9080   36.1890   41.9460 H   0  0  0  0  0  0  0  0  0  0  0  0
   45.0670   35.4330   44.1760 C   0  0  0  0  0  0  0  0  0  0  0  0
   46.0340   34.7470   43.4480 C   0  0  0  0  0  0  0  0  0  0  0  0
   46.6530   33.6690   44.1090 C   0  0  0  0  0  0  0  0  0  0  0  0
   46.2730   33.3780   45.3790 N   0  0  0  0  0  0  0  0  0  0  0  0
   45.3370   34.0730   46.0280 C   0  0  0  0  0  0  0  0  0  0  0  0
   44.7290   35.1040   45.4300 N   0  0  0  0  0  0  0  0  0  0  0  0
   44.5330   36.2890   43.7390 H   0  0  0  0  0  0  0  0  0  0  0  0
   47.4090   33.1090   43.5790 H   0  0  0  0  0  0  0  0  0  0  0  0
   45.0180   33.8580   47.0430 H   0  0  0  0  0  0  0  0  0  0  0  0
   47.8410   35.2650   41.9630 C   0  0  0  0  0  0  0  0  0  0  0  0
   48.2510   36.0070   42.6840 H   0  0  0  0  0  0  0  0  0  0  0  0
   48.2550   34.2660   42.0960 H   0  0  0  0  0  0  0  0  0  0  0  0
   48.0330   35.6880   40.9460 H   0  0  0  0  0  0  0  0  0  0  0  0
  1 23  1  0  0  0  0
  2  3  1  0  0  0  0
  2  1  2  0  0  0  0
  4  6  2  0  0  0  0
  4  2  1  0  0  0  0
  5  4  1  0  0  0  0
  6  7  1  0  0  0  0
  7 10  1  0  0  0  0
  7  8  2  0  0  0  0
  8  1  1  0  0  0  0
  8  9  1  0  0  0  0
 11 10  1  0  0  0  0
 12 11  1  0  0  0  0
 12 13  1  0  0  0  0
 14 12  2  0  0  0  0
 15 14  1  0  0  0  0
 16 18  2  0  0  0  0
 16 14  1  0  0  0  0
 17 16  1  0  0  0  0
 18 20  1  0  0  0  0
 19 18  1  0  0  0  0
 20 21  1  0  0  0  0
 20 11  2  0  0  0  0
 21  6  1  0  0  0  0
 22 21  1  0  0  0  0
 23 24  1  6  0  0  0
 23 26  1  0  0  0  0
 25 30  1  0  0  0  0
 26 27  1  0  0  0  0
 26 25  2  0  0  0  0
 27 28  2  0  0  0  0
 28 29  1  0  0  0  0
 29 33  1  0  0  0  0
 30 29  2  0  0  0  0
 31 25  1  0  0  0  0
 32 27  1  0  0  0  0
 34 36  1  0  0  0  0
 34 23  1  0  0  0  0
 34 35  1  0  0  0  0
 37 34  1  0  0  0  0
M  END
>  <minimizedAffinity>
-5.33811665

>  <minimizedRMSD>
0.443786681

$$$$
