
 OpenBabel03252500093D

 44 48  0  0  0  0  0  0  0  0999 V2000
   45.7820   32.2520   39.8110 Cl  0  0  0  0  0  0  0  0  0  0  0  0
   46.9910   33.3920   39.3500 C   0  0  0  0  0  0  0  0  0  0  0  0
   47.5890   34.2150   40.2700 C   0  0  0  0  0  0  0  0  0  0  0  0
   48.5660   35.1410   39.9260 C   0  0  0  0  0  0  0  0  0  0  0  0
   48.9080   35.1910   38.5920 C   0  0  0  0  0  0  0  0  0  0  0  0
   48.3140   34.3710   37.6580 C   0  0  0  0  0  0  0  0  0  0  0  0
   47.3600   33.4710   38.0260 C   0  0  0  0  0  0  0  0  0  0  0  0
   49.0320   35.7880   40.6670 H   0  0  0  0  0  0  0  0  0  0  0  0
   49.6740   35.9230   38.3400 H   0  0  0  0  0  0  0  0  0  0  0  0
   48.6480   34.4820   36.6290 H   0  0  0  0  0  0  0  0  0  0  0  0
   46.7960   32.6510   36.9600 C   0  0  0  0  0  0  0  0  0  0  0  0
   45.4660   32.8380   36.6460 C   0  0  0  0  0  0  0  0  0  0  0  0
   44.8820   33.5710   37.1830 H   0  0  0  0  0  0  0  0  0  0  0  0
   44.9220   32.0710   35.6450 C   0  0  0  0  0  0  0  0  0  0  0  0
   43.8570   32.2720   35.4460 H   0  0  0  0  0  0  0  0  0  0  0  0
   45.5900   31.1150   34.9090 C   0  0  0  0  0  0  0  0  0  0  0  0
   46.9080   30.9760   35.2660 C   0  0  0  0  0  0  0  0  0  0  0  0
   47.5030   31.7040   36.2480 C   0  0  0  0  0  0  0  0  0  0  0  0
   48.5490   31.5560   36.4940 H   0  0  0  0  0  0  0  0  0  0  0  0
   47.9010   29.7770   34.4040 S   0  0  0  0  0  0  0  0  0  0  0  0
   46.8400   29.0060   33.2010 C   0  0  0  0  0  0  0  0  0  0  0  0
   47.3020   28.0420   32.3780 C   0  0  0  0  0  0  0  0  0  0  0  0
   48.3540   27.7220   32.4480 H   0  0  0  0  0  0  0  0  0  0  0  0
   46.5350   27.3980   31.4190 C   0  0  0  0  0  0  0  0  0  0  0  0
   46.8790   26.6230   30.7460 H   0  0  0  0  0  0  0  0  0  0  0  0
   45.2100   27.8090   31.3370 C   0  0  0  0  0  0  0  0  0  0  0  0
   44.5720   27.3380   30.6070 H   0  0  0  0  0  0  0  0  0  0  0  0
   44.7610   28.7930   32.1860 C   0  0  0  0  0  0  0  0  0  0  0  0
   43.6990   29.0500   32.0480 H   0  0  0  0  0  0  0  0  0  0  0  0
   45.5520   29.4120   33.1300 C   0  0  0  0  0  0  0  0  0  0  0  0
   44.8990   30.3990   33.9030 N   0  0  0  0  0  0  0  0  0  0  0  0
   43.8950   30.6360   33.7660 H   0  0  0  0  0  0  0  0  0  0  0  0
   47.3430   33.0690   43.7750 C   0  0  0  0  0  0  0  0  0  0  0  0
   46.3790   33.9410   44.3120 C   0  0  0  0  0  0  0  0  0  0  0  0
   45.8320   34.9000   43.4710 C   0  0  0  0  0  0  0  0  0  0  0  0
   46.2450   34.9600   42.1730 N   0  0  0  0  0  0  0  0  0  0  0  0
   47.1790   34.1090   41.6730 C   0  0  0  0  0  0  0  0  0  0  0  0
   47.7230   33.1660   42.4820 N   0  0  0  0  0  0  0  0  0  0  0  0
   47.7760   32.3190   44.4200 H   0  0  0  0  0  0  0  0  0  0  0  0
   46.0500   33.8940   45.3430 H   0  0  0  0  0  0  0  0  0  0  0  0
   44.7970   35.8850   43.9280 C   0  0  0  0  0  0  0  0  0  0  0  0
   45.1480   37.1580   43.5960 F   0  0  0  0  0  0  0  0  0  0  0  0
   43.5920   35.5790   43.2990 F   0  0  0  0  0  0  0  0  0  0  0  0
   44.6630   35.7250   45.2780 F   0  0  0  0  0  0  0  0  0  0  0  0
  2  1  1  0  0  0  0
  2  3  1  0  0  0  0
  3 37  1  0  0  0  0
  4  3  2  0  0  0  0
  4  8  1  0  0  0  0
  5  4  1  0  0  0  0
  6  7  1  0  0  0  0
  6  5  2  0  0  0  0
  7  2  2  0  0  0  0
  9  5  1  0  0  0  0
 10  6  1  0  0  0  0
 11  7  1  0  0  0  0
 12 11  1  0  0  0  0
 12 13  1  0  0  0  0
 14 12  2  0  0  0  0
 15 14  1  0  0  0  0
 16 17  2  0  0  0  0
 16 14  1  0  0  0  0
 17 18  1  0  0  0  0
 18 19  1  0  0  0  0
 18 11  2  0  0  0  0
 20 17  1  0  0  0  0
 21 20  1  0  0  0  0
 22 23  1  0  0  0  0
 22 21  2  0  0  0  0
 24 22  1  0  0  0  0
 25 24  1  0  0  0  0
 26 24  2  0  0  0  0
 26 28  1  0  0  0  0
 27 26  1  0  0  0  0
 28 30  2  0  0  0  0
 29 28  1  0  0  0  0
 30 21  1  0  0  0  0
 30 31  1  0  0  0  0
 31 16  1  0  0  0  0
 32 31  1  0  0  0  0
 33 34  1  0  0  0  0
 33 39  1  0  0  0  0
 34 40  1  0  0  0  0
 35 41  1  0  0  0  0
 35 34  2  0  0  0  0
 36 35  1  0  0  0  0
 37 36  2  0  0  0  0
 37 38  1  0  0  0  0
 38 33  2  0  0  0  0
 41 44  1  0  0  0  0
 42 41  1  0  0  0  0
 43 41  1  0  0  0  0
M  END
>  <minimizedAffinity>
-6.52282715

>  <minimizedRMSD>
1.87408519

$$$$
