
 OpenBabel03252500093D

 44 48  0  0  0  0  0  0  0  0999 V2000
   45.6400   32.1350   39.8090 Cl  0  0  0  0  0  0  0  0  0  0  0  0
   46.8390   33.2410   39.2480 C   0  0  0  0  0  0  0  0  0  0  0  0
   47.4870   34.0920   40.1050 C   0  0  0  0  0  0  0  0  0  0  0  0
   48.4570   34.9920   39.6790 C   0  0  0  0  0  0  0  0  0  0  0  0
   48.7380   34.9850   38.3310 C   0  0  0  0  0  0  0  0  0  0  0  0
   48.0930   34.1350   37.4580 C   0  0  0  0  0  0  0  0  0  0  0  0
   47.1470   33.2630   37.9060 C   0  0  0  0  0  0  0  0  0  0  0  0
   48.9630   35.6630   40.3720 H   0  0  0  0  0  0  0  0  0  0  0  0
   49.5000   35.6960   38.0140 H   0  0  0  0  0  0  0  0  0  0  0  0
   48.3810   34.2010   36.4120 H   0  0  0  0  0  0  0  0  0  0  0  0
   46.5260   32.4070   36.9010 C   0  0  0  0  0  0  0  0  0  0  0  0
   45.1870   32.1150   37.0520 C   0  0  0  0  0  0  0  0  0  0  0  0
   44.6370   32.5150   37.8920 H   0  0  0  0  0  0  0  0  0  0  0  0
   44.5900   31.3100   36.1130 C   0  0  0  0  0  0  0  0  0  0  0  0
   43.5200   31.1160   36.2950 H   0  0  0  0  0  0  0  0  0  0  0  0
   45.2110   30.7550   35.0130 C   0  0  0  0  0  0  0  0  0  0  0  0
   46.5410   31.0820   34.9180 C   0  0  0  0  0  0  0  0  0  0  0  0
   47.1880   31.8740   35.8140 C   0  0  0  0  0  0  0  0  0  0  0  0
   48.2410   32.1040   35.6940 H   0  0  0  0  0  0  0  0  0  0  0  0
   47.4780   30.4410   33.5480 S   0  0  0  0  0  0  0  0  0  0  0  0
   46.3550   29.4600   32.5760 C   0  0  0  0  0  0  0  0  0  0  0  0
   46.7670   28.8310   31.4570 C   0  0  0  0  0  0  0  0  0  0  0  0
   47.8160   28.9220   31.1330 H   0  0  0  0  0  0  0  0  0  0  0  0
   45.9500   28.0500   30.6510 C   0  0  0  0  0  0  0  0  0  0  0  0
   46.2520   27.5350   29.7500 H   0  0  0  0  0  0  0  0  0  0  0  0
   44.6290   27.9410   31.0690 C   0  0  0  0  0  0  0  0  0  0  0  0
   43.9530   27.3450   30.4760 H   0  0  0  0  0  0  0  0  0  0  0  0
   44.2310   28.5900   32.2120 C   0  0  0  0  0  0  0  0  0  0  0  0
   43.1690   28.4450   32.4620 H   0  0  0  0  0  0  0  0  0  0  0  0
   45.0720   29.3590   32.9900 C   0  0  0  0  0  0  0  0  0  0  0  0
   44.4670   29.9420   34.1260 N   0  0  0  0  0  0  0  0  0  0  0  0
   43.4620   29.7990   34.3550 H   0  0  0  0  0  0  0  0  0  0  0  0
   47.4510   33.1480   43.6780 C   0  0  0  0  0  0  0  0  0  0  0  0
   46.4590   33.9940   44.2050 C   0  0  0  0  0  0  0  0  0  0  0  0
   45.8230   34.8690   43.3350 C   0  0  0  0  0  0  0  0  0  0  0  0
   46.1790   34.8740   42.0190 N   0  0  0  0  0  0  0  0  0  0  0  0
   47.1410   34.0480   41.5290 C   0  0  0  0  0  0  0  0  0  0  0  0
   47.7720   33.1880   42.3670 N   0  0  0  0  0  0  0  0  0  0  0  0
   47.9530   32.4630   44.3460 H   0  0  0  0  0  0  0  0  0  0  0  0
   46.1750   33.9910   45.2510 H   0  0  0  0  0  0  0  0  0  0  0  0
   44.7500   35.8180   43.7790 C   0  0  0  0  0  0  0  0  0  0  0  0
   45.1330   37.1130   43.5990 F   0  0  0  0  0  0  0  0  0  0  0  0
   43.6100   35.5820   43.0130 F   0  0  0  0  0  0  0  0  0  0  0  0
   44.4870   35.5390   45.0900 F   0  0  0  0  0  0  0  0  0  0  0  0
  2  1  1  0  0  0  0
  2  3  1  0  0  0  0
  3 37  1  0  0  0  0
  4  3  2  0  0  0  0
  4  8  1  0  0  0  0
  5  4  1  0  0  0  0
  6  7  1  0  0  0  0
  6  5  2  0  0  0  0
  7  2  2  0  0  0  0
  9  5  1  0  0  0  0
 10  6  1  0  0  0  0
 11 12  1  0  0  0  0
 11  7  1  0  0  0  0
 12 13  1  0  0  0  0
 14 15  1  0  0  0  0
 14 12  2  0  0  0  0
 16 14  1  0  0  0  0
 17 16  2  0  0  0  0
 17 18  1  0  0  0  0
 18 11  2  0  0  0  0
 19 18  1  0  0  0  0
 20 17  1  0  0  0  0
 21 30  1  0  0  0  0
 21 20  1  0  0  0  0
 22 21  2  0  0  0  0
 23 22  1  0  0  0  0
 24 26  2  0  0  0  0
 24 22  1  0  0  0  0
 25 24  1  0  0  0  0
 26 28  1  0  0  0  0
 27 26  1  0  0  0  0
 28 29  1  0  0  0  0
 28 30  2  0  0  0  0
 30 31  1  0  0  0  0
 31 32  1  0  0  0  0
 31 16  1  0  0  0  0
 33 34  1  0  0  0  0
 33 39  1  0  0  0  0
 34 40  1  0  0  0  0
 35 41  1  0  0  0  0
 35 34  2  0  0  0  0
 36 35  1  0  0  0  0
 37 36  2  0  0  0  0
 37 38  1  0  0  0  0
 38 33  2  0  0  0  0
 41 44  1  0  0  0  0
 42 41  1  0  0  0  0
 43 41  1  0  0  0  0
M  END
>  <minimizedAffinity>
-7.02539682

>  <minimizedRMSD>
1.09824526

$$$$
