
 OpenBabel03252500093D

 44 48  0  0  0  0  0  0  0  0999 V2000
   44.8200   32.3220   39.9400 Cl  0  0  0  0  0  0  0  0  0  0  0  0
   46.1030   33.0720   39.0640 C   0  0  0  0  0  0  0  0  0  0  0  0
   47.0590   33.8240   39.6960 C   0  0  0  0  0  0  0  0  0  0  0  0
   48.1030   34.4380   39.0150 C   0  0  0  0  0  0  0  0  0  0  0  0
   48.1280   34.2490   37.6510 C   0  0  0  0  0  0  0  0  0  0  0  0
   47.1730   33.4970   37.0030 C   0  0  0  0  0  0  0  0  0  0  0  0
   46.1610   32.9060   37.6980 C   0  0  0  0  0  0  0  0  0  0  0  0
   48.8560   35.0330   39.5300 H   0  0  0  0  0  0  0  0  0  0  0  0
   48.9520   34.7380   37.1320 H   0  0  0  0  0  0  0  0  0  0  0  0
   47.2740   33.4040   35.9240 H   0  0  0  0  0  0  0  0  0  0  0  0
   45.2030   32.1310   36.9180 C   0  0  0  0  0  0  0  0  0  0  0  0
   45.5000   31.9010   35.5900 C   0  0  0  0  0  0  0  0  0  0  0  0
   46.4130   32.2900   35.1650 H   0  0  0  0  0  0  0  0  0  0  0  0
   44.6050   31.1720   34.8440 C   0  0  0  0  0  0  0  0  0  0  0  0
   44.9030   31.0250   33.7940 H   0  0  0  0  0  0  0  0  0  0  0  0
   43.4190   30.6380   35.3020 C   0  0  0  0  0  0  0  0  0  0  0  0
   43.1800   30.9000   36.6290 C   0  0  0  0  0  0  0  0  0  0  0  0
   44.0260   31.6150   37.4180 C   0  0  0  0  0  0  0  0  0  0  0  0
   43.7920   31.7960   38.4620 H   0  0  0  0  0  0  0  0  0  0  0  0
   41.6850   30.2760   37.3640 S   0  0  0  0  0  0  0  0  0  0  0  0
   40.8140   29.3990   36.0830 C   0  0  0  0  0  0  0  0  0  0  0  0
   39.6310   28.8020   36.3270 C   0  0  0  0  0  0  0  0  0  0  0  0
   39.1890   28.8550   37.3360 H   0  0  0  0  0  0  0  0  0  0  0  0
   38.8950   28.1040   35.3810 C   0  0  0  0  0  0  0  0  0  0  0  0
   37.9440   27.6160   35.5480 H   0  0  0  0  0  0  0  0  0  0  0  0
   39.4610   28.0420   34.1120 C   0  0  0  0  0  0  0  0  0  0  0  0
   38.9280   27.5100   33.3400 H   0  0  0  0  0  0  0  0  0  0  0  0
   40.6680   28.6580   33.8870 C   0  0  0  0  0  0  0  0  0  0  0  0
   41.0340   28.5560   32.8530 H   0  0  0  0  0  0  0  0  0  0  0  0
   41.3710   29.3450   34.8530 C   0  0  0  0  0  0  0  0  0  0  0  0
   42.5940   29.9060   34.4170 N   0  0  0  0  0  0  0  0  0  0  0  0
   42.9330   29.8040   33.4380 H   0  0  0  0  0  0  0  0  0  0  0  0
   47.7310   33.4480   43.3100 C   0  0  0  0  0  0  0  0  0  0  0  0
   46.7820   34.3110   43.8870 C   0  0  0  0  0  0  0  0  0  0  0  0
   45.9330   35.0030   43.0340 C   0  0  0  0  0  0  0  0  0  0  0  0
   46.0500   34.8220   41.6880 N   0  0  0  0  0  0  0  0  0  0  0  0
   46.9740   33.9840   41.1510 C   0  0  0  0  0  0  0  0  0  0  0  0
   47.8110   33.3000   41.9700 N   0  0  0  0  0  0  0  0  0  0  0  0
   48.3970   32.9040   43.9650 H   0  0  0  0  0  0  0  0  0  0  0  0
   46.6880   34.4560   44.9560 H   0  0  0  0  0  0  0  0  0  0  0  0
   44.8820   35.9510   43.5300 C   0  0  0  0  0  0  0  0  0  0  0  0
   45.1660   37.2340   43.1690 F   0  0  0  0  0  0  0  0  0  0  0  0
   43.6610   35.5900   42.9610 F   0  0  0  0  0  0  0  0  0  0  0  0
   44.8170   35.8020   44.8860 F   0  0  0  0  0  0  0  0  0  0  0  0
  2  3  1  0  0  0  0
  2  1  1  0  0  0  0
  3 37  1  0  0  0  0
  4  8  1  0  0  0  0
  4  3  2  0  0  0  0
  5  4  1  0  0  0  0
  6  5  2  0  0  0  0
  6  7  1  0  0  0  0
  7  2  2  0  0  0  0
  9  5  1  0  0  0  0
 10  6  1  0  0  0  0
 11 18  1  0  0  0  0
 11  7  1  0  0  0  0
 12 11  2  0  0  0  0
 13 12  1  0  0  0  0
 14 16  2  0  0  0  0
 14 12  1  0  0  0  0
 15 14  1  0  0  0  0
 16 17  1  0  0  0  0
 17 20  1  0  0  0  0
 17 18  2  0  0  0  0
 18 19  1  0  0  0  0
 21 22  1  0  0  0  0
 21 20  1  0  0  0  0
 22 23  1  0  0  0  0
 24 25  1  0  0  0  0
 24 22  2  0  0  0  0
 26 24  1  0  0  0  0
 27 26  1  0  0  0  0
 28 26  2  0  0  0  0
 28 30  1  0  0  0  0
 29 28  1  0  0  0  0
 30 21  2  0  0  0  0
 31 30  1  0  0  0  0
 31 16  1  0  0  0  0
 32 31  1  0  0  0  0
 33 34  1  0  0  0  0
 33 39  1  0  0  0  0
 34 40  1  0  0  0  0
 35 41  1  0  0  0  0
 35 34  2  0  0  0  0
 36 35  1  0  0  0  0
 37 36  2  0  0  0  0
 37 38  1  0  0  0  0
 38 33  2  0  0  0  0
 41 44  1  0  0  0  0
 42 41  1  0  0  0  0
 43 41  1  0  0  0  0
M  END
>  <minimizedAffinity>
-6.3512454

>  <minimizedRMSD>
0.747861087

$$$$
