
 OpenBabel03252500093D

 44 48  0  0  0  0  0  0  0  0999 V2000
   45.7100   32.2680   39.8500 Cl  0  0  0  0  0  0  0  0  0  0  0  0
   46.9430   33.3840   39.3900 C   0  0  0  0  0  0  0  0  0  0  0  0
   47.5560   34.1940   40.3100 C   0  0  0  0  0  0  0  0  0  0  0  0
   48.5520   35.1000   39.9670 C   0  0  0  0  0  0  0  0  0  0  0  0
   48.8960   35.1430   38.6340 C   0  0  0  0  0  0  0  0  0  0  0  0
   48.2870   34.3350   37.6990 C   0  0  0  0  0  0  0  0  0  0  0  0
   47.3140   33.4550   38.0660 C   0  0  0  0  0  0  0  0  0  0  0  0
   49.0300   35.7380   40.7080 H   0  0  0  0  0  0  0  0  0  0  0  0
   49.6770   35.8590   38.3820 H   0  0  0  0  0  0  0  0  0  0  0  0
   48.6240   34.4390   36.6700 H   0  0  0  0  0  0  0  0  0  0  0  0
   46.7340   32.6460   37.0000 C   0  0  0  0  0  0  0  0  0  0  0  0
   45.5470   33.0770   36.4460 C   0  0  0  0  0  0  0  0  0  0  0  0
   45.0810   33.9830   36.8030 H   0  0  0  0  0  0  0  0  0  0  0  0
   44.9900   32.3240   35.4400 C   0  0  0  0  0  0  0  0  0  0  0  0
   44.0450   32.7240   35.0430 H   0  0  0  0  0  0  0  0  0  0  0  0
   45.5130   31.1570   34.9240 C   0  0  0  0  0  0  0  0  0  0  0  0
   46.6940   30.7800   35.5140 C   0  0  0  0  0  0  0  0  0  0  0  0
   47.2930   31.4820   36.5120 C   0  0  0  0  0  0  0  0  0  0  0  0
   48.2270   31.1430   36.9470 H   0  0  0  0  0  0  0  0  0  0  0  0
   47.4910   29.2920   34.9520 S   0  0  0  0  0  0  0  0  0  0  0  0
   46.4650   28.6210   33.6600 C   0  0  0  0  0  0  0  0  0  0  0  0
   46.8010   27.4820   33.0240 C   0  0  0  0  0  0  0  0  0  0  0  0
   47.7260   26.9510   33.3040 H   0  0  0  0  0  0  0  0  0  0  0  0
   46.0530   26.9000   32.0100 C   0  0  0  0  0  0  0  0  0  0  0  0
   46.2980   25.9880   31.4830 H   0  0  0  0  0  0  0  0  0  0  0  0
   44.8900   27.5770   31.6640 C   0  0  0  0  0  0  0  0  0  0  0  0
   44.2730   27.1660   30.8810 H   0  0  0  0  0  0  0  0  0  0  0  0
   44.5670   28.7360   32.3260 C   0  0  0  0  0  0  0  0  0  0  0  0
   43.6290   29.2000   31.9840 H   0  0  0  0  0  0  0  0  0  0  0  0
   45.3350   29.2860   33.3300 C   0  0  0  0  0  0  0  0  0  0  0  0
   44.8280   30.4840   33.8850 N   0  0  0  0  0  0  0  0  0  0  0  0
   43.9400   30.9150   33.5540 H   0  0  0  0  0  0  0  0  0  0  0  0
   47.3200   33.0870   43.8280 C   0  0  0  0  0  0  0  0  0  0  0  0
   46.3350   33.9450   44.3510 C   0  0  0  0  0  0  0  0  0  0  0  0
   45.7720   34.8810   43.4960 C   0  0  0  0  0  0  0  0  0  0  0  0
   46.1890   34.9340   42.1990 N   0  0  0  0  0  0  0  0  0  0  0  0
   47.1420   34.0970   41.7130 C   0  0  0  0  0  0  0  0  0  0  0  0
   47.7030   33.1760   42.5360 N   0  0  0  0  0  0  0  0  0  0  0  0
   47.7660   32.3540   44.4850 H   0  0  0  0  0  0  0  0  0  0  0  0
   46.0030   33.9030   45.3810 H   0  0  0  0  0  0  0  0  0  0  0  0
   44.7140   35.8490   43.9360 C   0  0  0  0  0  0  0  0  0  0  0  0
   45.1170   37.1370   43.7510 F   0  0  0  0  0  0  0  0  0  0  0  0
   43.5700   35.6280   43.1720 F   0  0  0  0  0  0  0  0  0  0  0  0
   44.4470   35.5790   45.2480 F   0  0  0  0  0  0  0  0  0  0  0  0
  2  1  1  0  0  0  0
  2  3  1  0  0  0  0
  3 37  1  0  0  0  0
  4  3  2  0  0  0  0
  4  8  1  0  0  0  0
  5  4  1  0  0  0  0
  6  7  1  0  0  0  0
  6  5  2  0  0  0  0
  7  2  2  0  0  0  0
  9  5  1  0  0  0  0
 10  6  1  0  0  0  0
 11  7  1  0  0  0  0
 12 13  1  0  0  0  0
 12 11  2  0  0  0  0
 14 12  1  0  0  0  0
 15 14  1  0  0  0  0
 16 14  2  0  0  0  0
 16 17  1  0  0  0  0
 17 18  2  0  0  0  0
 18 19  1  0  0  0  0
 18 11  1  0  0  0  0
 20 17  1  0  0  0  0
 21 20  1  0  0  0  0
 22 23  1  0  0  0  0
 22 21  2  0  0  0  0
 24 22  1  0  0  0  0
 25 24  1  0  0  0  0
 26 24  2  0  0  0  0
 26 28  1  0  0  0  0
 27 26  1  0  0  0  0
 28 30  2  0  0  0  0
 29 28  1  0  0  0  0
 30 21  1  0  0  0  0
 30 31  1  0  0  0  0
 31 16  1  0  0  0  0
 32 31  1  0  0  0  0
 33 34  1  0  0  0  0
 33 39  1  0  0  0  0
 34 40  1  0  0  0  0
 35 41  1  0  0  0  0
 35 34  2  0  0  0  0
 36 35  1  0  0  0  0
 37 36  2  0  0  0  0
 37 38  1  0  0  0  0
 38 33  2  0  0  0  0
 41 44  1  0  0  0  0
 42 41  1  0  0  0  0
 43 41  1  0  0  0  0
M  END
>  <minimizedAffinity>
-6.37479305

>  <minimizedRMSD>
1.43794894

$$$$
