
 OpenBabel03242518143D

 44 48  0  0  0  0  0  0  0  0999 V2000
   36.9490   25.4070   41.2800 C   0  0  0  0  0  0  0  0  0  0  0  0
   36.8910   26.0790   42.5480 C   0  0  0  0  0  0  0  0  0  0  0  0
   37.0120   27.4430   42.5870 C   0  0  0  0  0  0  0  0  0  0  0  0
   37.1930   28.1400   41.3240 C   0  0  0  0  0  0  0  0  0  0  0  0
   37.1910   26.8380   40.0740 S   0  0  0  0  0  0  0  0  0  0  0  0
   36.7520   25.4320   43.3940 H   0  0  0  0  0  0  0  0  0  0  0  0
   36.9740   27.9840   43.5150 H   0  0  0  0  0  0  0  0  0  0  0  0
   37.3370   29.4730   41.0810 C   0  0  0  0  0  0  0  0  0  0  0  0
   36.2280   30.2480   40.8220 C   0  0  0  0  0  0  0  0  0  0  0  0
   35.2350   29.8180   40.8050 H   0  0  0  0  0  0  0  0  0  0  0  0
   36.3640   31.6200   40.5710 C   0  0  0  0  0  0  0  0  0  0  0  0
   35.4540   32.1720   40.3740 H   0  0  0  0  0  0  0  0  0  0  0  0
   37.5880   32.2560   40.5700 C   0  0  0  0  0  0  0  0  0  0  0  0
   38.6600   31.4460   40.8330 C   0  0  0  0  0  0  0  0  0  0  0  0
   38.5540   30.1150   41.0800 C   0  0  0  0  0  0  0  0  0  0  0  0
   39.4220   29.5000   41.2850 H   0  0  0  0  0  0  0  0  0  0  0  0
   40.2800   32.1910   40.8520 S   0  0  0  0  0  0  0  0  0  0  0  0
   40.0470   33.9220   40.4960 C   0  0  0  0  0  0  0  0  0  0  0  0
   41.1560   34.7240   40.4520 C   0  0  0  0  0  0  0  0  0  0  0  0
   42.1420   34.2940   40.6330 H   0  0  0  0  0  0  0  0  0  0  0  0
   41.0550   36.0730   40.1810 C   0  0  0  0  0  0  0  0  0  0  0  0
   41.9570   36.6410   40.1620 H   0  0  0  0  0  0  0  0  0  0  0  0
   39.8000   36.5830   39.9580 C   0  0  0  0  0  0  0  0  0  0  0  0
   39.6880   37.6300   39.7450 H   0  0  0  0  0  0  0  0  0  0  0  0
   38.7210   35.7260   40.0150 C   0  0  0  0  0  0  0  0  0  0  0  0
   37.7540   36.2110   39.8250 H   0  0  0  0  0  0  0  0  0  0  0  0
   38.7700   34.3740   40.2810 C   0  0  0  0  0  0  0  0  0  0  0  0
   37.5850   33.6340   40.3050 N   0  0  0  0  0  0  0  0  0  0  0  0
   36.6970   34.1390   40.1190 H   0  0  0  0  0  0  0  0  0  0  0  0
   36.8750   24.0630   40.8160 C   0  0  0  0  0  0  0  0  0  0  0  0
   36.1380   23.4830   41.3890 H   0  0  0  0  0  0  0  0  0  0  0  0
   36.5070   24.0790   39.7560 H   0  0  0  0  0  0  0  0  0  0  0  0
   38.1740   23.2940   40.7900 C   0  0  0  0  0  0  0  0  0  0  0  0
   38.0610   22.3760   41.4310 H   0  0  0  0  0  0  0  0  0  0  0  0
   38.3920   22.9340   39.7930 H   0  0  0  0  0  0  0  0  0  0  0  0
   39.2290   24.1180   41.3430 C   0  0  0  0  0  0  0  0  0  0  0  0
   39.4710   24.1860   42.7170 C   0  0  0  0  0  0  0  0  0  0  0  0
   40.5020   25.0000   43.1780 C   0  0  0  0  0  0  0  0  0  0  0  0
   41.2200   25.6860   42.2660 N   0  0  0  0  0  0  0  0  0  0  0  0
   40.9700   25.6040   40.9540 C   0  0  0  0  0  0  0  0  0  0  0  0
   39.9920   24.8350   40.5050 N   0  0  0  0  0  0  0  0  0  0  0  0
   38.8220   23.5860   43.3360 H   0  0  0  0  0  0  0  0  0  0  0  0
   40.6530   25.0240   44.2300 H   0  0  0  0  0  0  0  0  0  0  0  0
   41.5930   26.1900   40.2740 H   0  0  0  0  0  0  0  0  0  0  0  0
  1  2  2  0  0  0  0
  2  3  1  0  0  0  0
  2  6  1  0  0  0  0
  3  7  1  0  0  0  0
  4  3  2  0  0  0  0
  5  1  1  0  0  0  0
  5  4  1  0  0  0  0
  8  4  1  0  0  0  0
  9  8  2  0  0  0  0
 10  9  1  0  0  0  0
 11  9  1  0  0  0  0
 12 11  1  0  0  0  0
 13 11  2  0  0  0  0
 13 14  1  0  0  0  0
 14 17  1  0  0  0  0
 14 15  2  0  0  0  0
 15  8  1  0  0  0  0
 15 16  1  0  0  0  0
 18 17  1  0  0  0  0
 19 18  1  0  0  0  0
 19 20  1  0  0  0  0
 21 19  2  0  0  0  0
 22 21  1  0  0  0  0
 23 25  2  0  0  0  0
 23 21  1  0  0  0  0
 24 23  1  0  0  0  0
 25 27  1  0  0  0  0
 26 25  1  0  0  0  0
 27 28  1  0  0  0  0
 27 18  2  0  0  0  0
 28 13  1  0  0  0  0
 29 28  1  0  0  0  0
 30  1  1  0  0  0  0
 30 31  1  0  0  0  0
 32 30  1  0  0  0  0
 33 30  1  0  0  0  0
 33 36  1  0  0  0  0
 33 34  1  0  0  0  0
 35 33  1  0  0  0  0
 36 37  1  0  0  0  0
 37 38  2  0  0  0  0
 37 42  1  0  0  0  0
 38 43  1  0  0  0  0
 39 38  1  0  0  0  0
 40 39  2  0  0  0  0
 41 40  1  0  0  0  0
 41 36  2  0  0  0  0
 44 40  1  0  0  0  0
M  END
>  <minimizedAffinity>
-7.07452011

$$$$

 OpenBabel03242518143D

 44 48  0  0  0  0  0  0  0  0999 V2000
   38.5390   34.2430   40.2400 C   0  0  0  0  0  0  0  0  0  0  0  0
   37.3580   33.7990   39.5540 C   0  0  0  0  0  0  0  0  0  0  0  0
   36.9960   32.4800   39.6330 C   0  0  0  0  0  0  0  0  0  0  0  0
   37.8400   31.5960   40.4200 C   0  0  0  0  0  0  0  0  0  0  0  0
   39.1590   32.6550   41.0480 S   0  0  0  0  0  0  0  0  0  0  0  0
   36.8360   34.5670   39.0150 H   0  0  0  0  0  0  0  0  0  0  0  0
   36.1200   32.1070   39.1350 H   0  0  0  0  0  0  0  0  0  0  0  0
   37.7110   30.2600   40.6600 C   0  0  0  0  0  0  0  0  0  0  0  0
   36.9980   29.8260   41.7560 C   0  0  0  0  0  0  0  0  0  0  0  0
   36.5340   30.5270   42.4370 H   0  0  0  0  0  0  0  0  0  0  0  0
   36.8590   28.4550   42.0140 C   0  0  0  0  0  0  0  0  0  0  0  0
   36.2870   28.1800   42.8910 H   0  0  0  0  0  0  0  0  0  0  0  0
   37.4150   27.4880   41.2030 C   0  0  0  0  0  0  0  0  0  0  0  0
   38.1140   27.9670   40.1270 C   0  0  0  0  0  0  0  0  0  0  0  0
   38.2620   29.2890   39.8560 C   0  0  0  0  0  0  0  0  0  0  0  0
   38.8210   29.6380   38.9960 H   0  0  0  0  0  0  0  0  0  0  0  0
   38.8630   26.7810   39.0280 S   0  0  0  0  0  0  0  0  0  0  0  0
   38.4720   25.1680   39.6760 C   0  0  0  0  0  0  0  0  0  0  0  0
   38.9400   24.0720   39.0030 C   0  0  0  0  0  0  0  0  0  0  0  0
   39.5340   24.2070   38.0980 H   0  0  0  0  0  0  0  0  0  0  0  0
   38.6780   22.7920   39.4440 C   0  0  0  0  0  0  0  0  0  0  0  0
   39.0720   21.9820   38.8730 H   0  0  0  0  0  0  0  0  0  0  0  0
   37.9280   22.6560   40.5860 C   0  0  0  0  0  0  0  0  0  0  0  0
   37.7070   21.6720   40.9560 H   0  0  0  0  0  0  0  0  0  0  0  0
   37.4840   23.7970   41.2220 C   0  0  0  0  0  0  0  0  0  0  0  0
   36.8930   23.6020   42.1270 H   0  0  0  0  0  0  0  0  0  0  0  0
   37.7190   25.0950   40.8220 C   0  0  0  0  0  0  0  0  0  0  0  0
   37.2000   26.1510   41.5730 N   0  0  0  0  0  0  0  0  0  0  0  0
   36.6470   25.9150   42.4210 H   0  0  0  0  0  0  0  0  0  0  0  0
   39.2410   35.4700   40.4040 C   0  0  0  0  0  0  0  0  0  0  0  0
   38.6530   36.3190   40.0280 H   0  0  0  0  0  0  0  0  0  0  0  0
   39.3800   35.6490   41.5040 H   0  0  0  0  0  0  0  0  0  0  0  0
   40.6220   35.5360   39.7990 C   0  0  0  0  0  0  0  0  0  0  0  0
   40.7920   34.6070   39.1880 H   0  0  0  0  0  0  0  0  0  0  0  0
   40.7030   36.3640   39.1070 H   0  0  0  0  0  0  0  0  0  0  0  0
   41.6070   35.5790   40.8590 C   0  0  0  0  0  0  0  0  0  0  0  0
   41.6250   36.5990   41.8130 C   0  0  0  0  0  0  0  0  0  0  0  0
   42.6020   36.5760   42.8050 C   0  0  0  0  0  0  0  0  0  0  0  0
   43.4890   35.5610   42.7920 N   0  0  0  0  0  0  0  0  0  0  0  0
   43.4530   34.5940   41.8670 C   0  0  0  0  0  0  0  0  0  0  0  0
   42.5290   34.6070   40.9210 N   0  0  0  0  0  0  0  0  0  0  0  0
   40.8570   37.3490   41.7080 H   0  0  0  0  0  0  0  0  0  0  0  0
   42.5800   37.3700   43.5100 H   0  0  0  0  0  0  0  0  0  0  0  0
   44.2060   33.8040   41.9200 H   0  0  0  0  0  0  0  0  0  0  0  0
  1 30  1  0  0  0  0
  1  5  1  0  0  0  0
  2  3  1  0  0  0  0
  2  1  2  0  0  0  0
  3  4  2  0  0  0  0
  4  8  1  0  0  0  0
  4  5  1  0  0  0  0
  6  2  1  0  0  0  0
  7  3  1  0  0  0  0
  8  9  1  0  0  0  0
  9 11  2  0  0  0  0
  9 10  1  0  0  0  0
 11 12  1  0  0  0  0
 13 28  1  0  0  0  0
 13 11  1  0  0  0  0
 14 13  2  0  0  0  0
 15 14  1  0  0  0  0
 15  8  2  0  0  0  0
 16 15  1  0  0  0  0
 17 18  1  0  0  0  0
 17 14  1  0  0  0  0
 18 27  1  0  0  0  0
 19 21  1  0  0  0  0
 19 18  2  0  0  0  0
 20 19  1  0  0  0  0
 21 23  2  0  0  0  0
 22 21  1  0  0  0  0
 23 24  1  0  0  0  0
 23 25  1  0  0  0  0
 25 26  1  0  0  0  0
 27 25  2  0  0  0  0
 27 28  1  0  0  0  0
 28 29  1  0  0  0  0
 30 32  1  0  0  0  0
 31 30  1  0  0  0  0
 33 30  1  0  0  0  0
 33 36  1  0  0  0  0
 34 33  1  0  0  0  0
 35 33  1  0  0  0  0
 36 41  2  0  0  0  0
 36 37  1  0  0  0  0
 37 38  2  0  0  0  0
 38 43  1  0  0  0  0
 39 38  1  0  0  0  0
 40 44  1  0  0  0  0
 40 39  2  0  0  0  0
 41 40  1  0  0  0  0
 42 37  1  0  0  0  0
M  END
>  <minimizedAffinity>
-7.05255413

$$$$

 OpenBabel03242518143D

 44 48  0  0  0  0  0  0  0  0999 V2000
   40.2510   35.1690   40.3670 C   0  0  0  0  0  0  0  0  0  0  0  0
   38.8250   35.2470   40.2160 C   0  0  0  0  0  0  0  0  0  0  0  0
   38.1080   34.0920   40.0480 C   0  0  0  0  0  0  0  0  0  0  0  0
   38.8420   32.8380   40.0340 C   0  0  0  0  0  0  0  0  0  0  0  0
   40.5690   33.3120   40.2610 S   0  0  0  0  0  0  0  0  0  0  0  0
   38.4240   36.2420   40.2480 H   0  0  0  0  0  0  0  0  0  0  0  0
   37.0390   34.1080   39.9310 H   0  0  0  0  0  0  0  0  0  0  0  0
   38.3810   31.5640   39.8860 C   0  0  0  0  0  0  0  0  0  0  0  0
   37.7740   31.1860   38.7080 C   0  0  0  0  0  0  0  0  0  0  0  0
   37.6530   31.8840   37.8900 H   0  0  0  0  0  0  0  0  0  0  0  0
   37.2950   29.8790   38.5450 C   0  0  0  0  0  0  0  0  0  0  0  0
   36.8290   29.6460   37.5960 H   0  0  0  0  0  0  0  0  0  0  0  0
   37.4040   28.9210   39.5310 C   0  0  0  0  0  0  0  0  0  0  0  0
   38.0140   29.3420   40.6820 C   0  0  0  0  0  0  0  0  0  0  0  0
   38.4860   30.6020   40.8640 C   0  0  0  0  0  0  0  0  0  0  0  0
   38.9650   30.9060   41.7880 H   0  0  0  0  0  0  0  0  0  0  0  0
   38.1950   28.1630   42.0060 S   0  0  0  0  0  0  0  0  0  0  0  0
   37.4770   26.6370   41.4310 C   0  0  0  0  0  0  0  0  0  0  0  0
   37.4900   25.5600   42.2760 C   0  0  0  0  0  0  0  0  0  0  0  0
   37.9320   25.6580   43.2680 H   0  0  0  0  0  0  0  0  0  0  0  0
   36.9530   24.3470   41.9010 C   0  0  0  0  0  0  0  0  0  0  0  0
   36.9960   23.5490   42.6060 H   0  0  0  0  0  0  0  0  0  0  0  0
   36.4040   24.2580   40.6450 C   0  0  0  0  0  0  0  0  0  0  0  0
   35.9770   23.3260   40.3230 H   0  0  0  0  0  0  0  0  0  0  0  0
   36.4190   25.3760   39.8390 C   0  0  0  0  0  0  0  0  0  0  0  0
   35.9610   25.2220   38.8520 H   0  0  0  0  0  0  0  0  0  0  0  0
   36.9430   26.6080   40.1670 C   0  0  0  0  0  0  0  0  0  0  0  0
   36.8840   27.6500   39.2390 N   0  0  0  0  0  0  0  0  0  0  0  0
   36.4410   27.4540   38.3200 H   0  0  0  0  0  0  0  0  0  0  0  0
   41.3250   36.0860   40.5490 C   0  0  0  0  0  0  0  0  0  0  0  0
   42.2740   35.6670   40.1850 H   0  0  0  0  0  0  0  0  0  0  0  0
   41.1200   36.9930   39.9210 H   0  0  0  0  0  0  0  0  0  0  0  0
   41.5350   36.5970   41.9540 C   0  0  0  0  0  0  0  0  0  0  0  0
   41.5650   37.7220   41.9260 H   0  0  0  0  0  0  0  0  0  0  0  0
   40.6980   36.3390   42.5910 H   0  0  0  0  0  0  0  0  0  0  0  0
   42.8050   36.1130   42.4540 C   0  0  0  0  0  0  0  0  0  0  0  0
   43.3670   36.5950   43.6370 C   0  0  0  0  0  0  0  0  0  0  0  0
   44.5920   36.0840   44.0580 C   0  0  0  0  0  0  0  0  0  0  0  0
   45.1770   35.1410   43.2920 N   0  0  0  0  0  0  0  0  0  0  0  0
   44.6190   34.6940   42.1610 C   0  0  0  0  0  0  0  0  0  0  0  0
   43.4560   35.1730   41.7530 N   0  0  0  0  0  0  0  0  0  0  0  0
   42.7940   37.3500   44.1530 H   0  0  0  0  0  0  0  0  0  0  0  0
   44.9850   36.4780   44.9630 H   0  0  0  0  0  0  0  0  0  0  0  0
   45.1530   33.9290   41.5920 H   0  0  0  0  0  0  0  0  0  0  0  0
  1 30  1  0  0  0  0
  2  6  1  0  0  0  0
  2  1  2  0  0  0  0
  3  2  1  0  0  0  0
  4  3  2  0  0  0  0
  4  5  1  0  0  0  0
  5  1  1  0  0  0  0
  7  3  1  0  0  0  0
  8  4  1  0  0  0  0
  8 15  1  0  0  0  0
  9  8  2  0  0  0  0
 10  9  1  0  0  0  0
 11  9  1  0  0  0  0
 11 13  2  0  0  0  0
 12 11  1  0  0  0  0
 13 14  1  0  0  0  0
 14 15  2  0  0  0  0
 14 17  1  0  0  0  0
 15 16  1  0  0  0  0
 18 17  1  0  0  0  0
 18 19  1  0  0  0  0
 19 20  1  0  0  0  0
 21 19  2  0  0  0  0
 21 22  1  0  0  0  0
 23 21  1  0  0  0  0
 24 23  1  0  0  0  0
 25 27  1  0  0  0  0
 25 23  2  0  0  0  0
 26 25  1  0  0  0  0
 27 18  2  0  0  0  0
 28 13  1  0  0  0  0
 28 27  1  0  0  0  0
 29 28  1  0  0  0  0
 30 33  1  0  0  0  0
 31 30  1  0  0  0  0
 32 30  1  0  0  0  0
 33 36  1  0  0  0  0
 33 35  1  0  0  0  0
 34 33  1  0  0  0  0
 36 37  1  0  0  0  0
 37 38  2  0  0  0  0
 37 42  1  0  0  0  0
 38 43  1  0  0  0  0
 39 38  1  0  0  0  0
 40 39  2  0  0  0  0
 41 40  1  0  0  0  0
 41 36  2  0  0  0  0
 44 40  1  0  0  0  0
M  END
>  <minimizedAffinity>
-7.03417826

$$$$

 OpenBabel03242518143D

 44 48  0  0  0  0  0  0  0  0999 V2000
   36.9390   24.8000   41.0350 C   0  0  0  0  0  0  0  0  0  0  0  0
   36.9890   25.4030   42.3380 C   0  0  0  0  0  0  0  0  0  0  0  0
   37.0980   26.7640   42.4390 C   0  0  0  0  0  0  0  0  0  0  0  0
   37.1550   27.5300   41.2040 C   0  0  0  0  0  0  0  0  0  0  0  0
   37.0550   26.2960   39.8910 S   0  0  0  0  0  0  0  0  0  0  0  0
   36.9350   24.7100   43.1560 H   0  0  0  0  0  0  0  0  0  0  0  0
   37.1390   27.2540   43.3950 H   0  0  0  0  0  0  0  0  0  0  0  0
   37.2620   28.8760   41.0230 C   0  0  0  0  0  0  0  0  0  0  0  0
   36.1250   29.6500   40.9410 C   0  0  0  0  0  0  0  0  0  0  0  0
   35.1400   29.2100   41.0190 H   0  0  0  0  0  0  0  0  0  0  0  0
   36.2230   31.0360   40.7540 C   0  0  0  0  0  0  0  0  0  0  0  0
   35.2930   31.5860   40.6980 H   0  0  0  0  0  0  0  0  0  0  0  0
   37.4340   31.6860   40.6440 C   0  0  0  0  0  0  0  0  0  0  0  0
   38.5350   30.8760   40.7310 C   0  0  0  0  0  0  0  0  0  0  0  0
   38.4660   29.5320   40.9120 C   0  0  0  0  0  0  0  0  0  0  0  0
   39.3560   28.9170   40.9780 H   0  0  0  0  0  0  0  0  0  0  0  0
   40.1410   31.6390   40.5990 S   0  0  0  0  0  0  0  0  0  0  0  0
   39.8580   33.3830   40.3710 C   0  0  0  0  0  0  0  0  0  0  0  0
   40.9480   34.2010   40.2400 C   0  0  0  0  0  0  0  0  0  0  0  0
   41.9510   33.7740   40.2780 H   0  0  0  0  0  0  0  0  0  0  0  0
   40.8080   35.5610   40.0610 C   0  0  0  0  0  0  0  0  0  0  0  0
   41.6980   36.1410   39.9670 H   0  0  0  0  0  0  0  0  0  0  0  0
   39.5320   36.0670   40.0180 C   0  0  0  0  0  0  0  0  0  0  0  0
   39.3900   37.1230   39.8790 H   0  0  0  0  0  0  0  0  0  0  0  0
   38.4730   35.1950   40.1550 C   0  0  0  0  0  0  0  0  0  0  0  0
   37.4880   35.6780   40.1090 H   0  0  0  0  0  0  0  0  0  0  0  0
   38.5610   33.8310   40.3360 C   0  0  0  0  0  0  0  0  0  0  0  0
   37.3920   33.0770   40.4590 N   0  0  0  0  0  0  0  0  0  0  0  0
   36.4850   33.5800   40.4090 H   0  0  0  0  0  0  0  0  0  0  0  0
   36.8390   23.4810   40.5080 C   0  0  0  0  0  0  0  0  0  0  0  0
   37.8030   22.9550   40.5630 H   0  0  0  0  0  0  0  0  0  0  0  0
   36.1270   22.9000   41.1530 H   0  0  0  0  0  0  0  0  0  0  0  0
   36.3080   23.3630   39.1000 C   0  0  0  0  0  0  0  0  0  0  0  0
   35.9120   24.3660   38.7800 H   0  0  0  0  0  0  0  0  0  0  0  0
   37.1010   23.1220   38.4040 H   0  0  0  0  0  0  0  0  0  0  0  0
   35.2190   22.4080   39.0780 C   0  0  0  0  0  0  0  0  0  0  0  0
   33.8920   22.7930   39.2790 C   0  0  0  0  0  0  0  0  0  0  0  0
   32.8970   21.8200   39.2450 C   0  0  0  0  0  0  0  0  0  0  0  0
   33.2700   20.5450   39.0190 N   0  0  0  0  0  0  0  0  0  0  0  0
   34.5490   20.1990   38.8290 C   0  0  0  0  0  0  0  0  0  0  0  0
   35.5020   21.1150   38.8600 N   0  0  0  0  0  0  0  0  0  0  0  0
   33.7330   23.8470   39.4490 H   0  0  0  0  0  0  0  0  0  0  0  0
   31.9010   22.1550   39.4030 H   0  0  0  0  0  0  0  0  0  0  0  0
   34.7750   19.1450   38.6520 H   0  0  0  0  0  0  0  0  0  0  0  0
  1  2  2  0  0  0  0
  2  3  1  0  0  0  0
  2  6  1  0  0  0  0
  3  7  1  0  0  0  0
  4  3  2  0  0  0  0
  5  1  1  0  0  0  0
  5  4  1  0  0  0  0
  8  4  1  0  0  0  0
  9 10  1  0  0  0  0
  9  8  1  0  0  0  0
 11  9  2  0  0  0  0
 12 11  1  0  0  0  0
 13 14  2  0  0  0  0
 13 11  1  0  0  0  0
 14 15  1  0  0  0  0
 15 16  1  0  0  0  0
 15  8  2  0  0  0  0
 17 14  1  0  0  0  0
 18 17  1  0  0  0  0
 19 20  1  0  0  0  0
 19 18  2  0  0  0  0
 21 19  1  0  0  0  0
 22 21  1  0  0  0  0
 23 21  2  0  0  0  0
 23 25  1  0  0  0  0
 24 23  1  0  0  0  0
 25 27  2  0  0  0  0
 26 25  1  0  0  0  0
 27 18  1  0  0  0  0
 27 28  1  0  0  0  0
 28 13  1  0  0  0  0
 29 28  1  0  0  0  0
 30 31  1  0  0  0  0
 30  1  1  0  0  0  0
 30 32  1  0  0  0  0
 33 30  1  0  0  0  0
 34 33  1  0  0  0  0
 35 33  1  0  0  0  0
 36 33  1  0  0  0  0
 36 37  1  0  0  0  0
 37 42  1  0  0  0  0
 38 37  2  0  0  0  0
 38 43  1  0  0  0  0
 39 38  1  0  0  0  0
 40 41  1  0  0  0  0
 40 39  2  0  0  0  0
 41 36  2  0  0  0  0
 44 40  1  0  0  0  0
M  END
>  <minimizedAffinity>
-6.98010302

$$$$

 OpenBabel03242518143D

 44 48  0  0  0  0  0  0  0  0999 V2000
   37.2390   25.2550   41.6970 C   0  0  0  0  0  0  0  0  0  0  0  0
   36.9200   25.9830   42.8940 C   0  0  0  0  0  0  0  0  0  0  0  0
   36.9520   27.3520   42.8690 C   0  0  0  0  0  0  0  0  0  0  0  0
   37.3090   27.9970   41.6160 C   0  0  0  0  0  0  0  0  0  0  0  0
   37.6040   26.6370   40.4660 S   0  0  0  0  0  0  0  0  0  0  0  0
   36.6740   25.3710   43.7400 H   0  0  0  0  0  0  0  0  0  0  0  0
   36.7200   27.9350   43.7430 H   0  0  0  0  0  0  0  0  0  0  0  0
   37.4150   29.3230   41.3220 C   0  0  0  0  0  0  0  0  0  0  0  0
   36.2830   30.0550   41.0350 C   0  0  0  0  0  0  0  0  0  0  0  0
   35.3030   29.5960   41.0390 H   0  0  0  0  0  0  0  0  0  0  0  0
   36.3790   31.4200   40.7310 C   0  0  0  0  0  0  0  0  0  0  0  0
   35.4530   31.9370   40.5150 H   0  0  0  0  0  0  0  0  0  0  0  0
   37.5840   32.0900   40.7020 C   0  0  0  0  0  0  0  0  0  0  0  0
   38.6800   31.3220   40.9930 C   0  0  0  0  0  0  0  0  0  0  0  0
   38.6120   29.9990   41.2920 C   0  0  0  0  0  0  0  0  0  0  0  0
   39.4980   29.4180   41.5180 H   0  0  0  0  0  0  0  0  0  0  0  0
   40.2770   32.1140   40.9780 S   0  0  0  0  0  0  0  0  0  0  0  0
   39.9940   33.8210   40.5550 C   0  0  0  0  0  0  0  0  0  0  0  0
   41.0790   34.6540   40.4770 C   0  0  0  0  0  0  0  0  0  0  0  0
   42.0770   34.2590   40.6720 H   0  0  0  0  0  0  0  0  0  0  0  0
   40.9390   35.9870   40.1540 C   0  0  0  0  0  0  0  0  0  0  0  0
   41.8240   36.5800   40.1110 H   0  0  0  0  0  0  0  0  0  0  0  0
   39.6690   36.4510   39.9150 C   0  0  0  0  0  0  0  0  0  0  0  0
   39.5260   37.4860   39.6620 H   0  0  0  0  0  0  0  0  0  0  0  0
   38.6160   35.5660   40.0090 C   0  0  0  0  0  0  0  0  0  0  0  0
   37.6350   36.0160   39.8020 H   0  0  0  0  0  0  0  0  0  0  0  0
   38.7040   34.2280   40.3270 C   0  0  0  0  0  0  0  0  0  0  0  0
   37.5410   33.4560   40.3830 N   0  0  0  0  0  0  0  0  0  0  0  0
   36.6380   33.9280   40.1800 H   0  0  0  0  0  0  0  0  0  0  0  0
   37.3280   23.8880   41.3100 C   0  0  0  0  0  0  0  0  0  0  0  0
   38.3740   23.5800   41.1710 H   0  0  0  0  0  0  0  0  0  0  0  0
   36.9250   23.2600   42.1500 H   0  0  0  0  0  0  0  0  0  0  0  0
   36.5430   23.4880   40.0840 C   0  0  0  0  0  0  0  0  0  0  0  0
   35.5910   22.9880   40.4140 H   0  0  0  0  0  0  0  0  0  0  0  0
   36.2390   24.3580   39.5170 H   0  0  0  0  0  0  0  0  0  0  0  0
   37.3180   22.5420   39.3090 C   0  0  0  0  0  0  0  0  0  0  0  0
   38.0520   21.5180   39.9100 C   0  0  0  0  0  0  0  0  0  0  0  0
   38.7750   20.6440   39.1020 C   0  0  0  0  0  0  0  0  0  0  0  0
   38.7270   20.8340   37.7680 N   0  0  0  0  0  0  0  0  0  0  0  0
   38.0160   21.8230   37.2140 C   0  0  0  0  0  0  0  0  0  0  0  0
   37.3260   22.6590   37.9730 N   0  0  0  0  0  0  0  0  0  0  0  0
   38.0040   21.4790   40.9870 H   0  0  0  0  0  0  0  0  0  0  0  0
   39.3200   19.8790   39.5990 H   0  0  0  0  0  0  0  0  0  0  0  0
   38.0250   21.9160   36.1250 H   0  0  0  0  0  0  0  0  0  0  0  0
  1  2  2  0  0  0  0
  2  6  1  0  0  0  0
  3  2  1  0  0  0  0
  3  7  1  0  0  0  0
  4  3  2  0  0  0  0
  5  4  1  0  0  0  0
  5  1  1  0  0  0  0
  8  4  1  0  0  0  0
  9 10  1  0  0  0  0
  9  8  2  0  0  0  0
 11  9  1  0  0  0  0
 12 11  1  0  0  0  0
 13 11  2  0  0  0  0
 13 14  1  0  0  0  0
 14 15  2  0  0  0  0
 15  8  1  0  0  0  0
 15 16  1  0  0  0  0
 17 14  1  0  0  0  0
 18 17  1  0  0  0  0
 19 18  1  0  0  0  0
 19 20  1  0  0  0  0
 21 19  2  0  0  0  0
 22 21  1  0  0  0  0
 23 25  2  0  0  0  0
 23 21  1  0  0  0  0
 24 23  1  0  0  0  0
 25 27  1  0  0  0  0
 26 25  1  0  0  0  0
 27 28  1  0  0  0  0
 27 18  2  0  0  0  0
 28 13  1  0  0  0  0
 29 28  1  0  0  0  0
 30  1  1  0  0  0  0
 30 32  1  0  0  0  0
 31 30  1  0  0  0  0
 33 34  1  0  0  0  0
 33 30  1  0  0  0  0
 35 33  1  0  0  0  0
 36 37  1  0  0  0  0
 36 33  1  0  0  0  0
 37 42  1  0  0  0  0
 38 43  1  0  0  0  0
 38 37  2  0  0  0  0
 39 38  1  0  0  0  0
 40 39  2  0  0  0  0
 40 41  1  0  0  0  0
 41 36  2  0  0  0  0
 44 40  1  0  0  0  0
M  END
>  <minimizedAffinity>
-6.74849701

$$$$

 OpenBabel03242518143D

 44 48  0  0  0  0  0  0  0  0999 V2000
   36.9660   24.9080   40.9140 C   0  0  0  0  0  0  0  0  0  0  0  0
   37.0360   25.4890   42.2260 C   0  0  0  0  0  0  0  0  0  0  0  0
   37.1540   26.8480   42.3470 C   0  0  0  0  0  0  0  0  0  0  0  0
   37.2000   27.6330   41.1250 C   0  0  0  0  0  0  0  0  0  0  0  0
   37.0760   26.4210   39.7930 S   0  0  0  0  0  0  0  0  0  0  0  0
   36.9880   24.7830   43.0330 H   0  0  0  0  0  0  0  0  0  0  0  0
   37.2090   27.3230   43.3100 H   0  0  0  0  0  0  0  0  0  0  0  0
   37.3120   28.9820   40.9630 C   0  0  0  0  0  0  0  0  0  0  0  0
   36.1790   29.7660   40.9330 C   0  0  0  0  0  0  0  0  0  0  0  0
   35.1930   29.3320   41.0350 H   0  0  0  0  0  0  0  0  0  0  0  0
   36.2820   31.1540   40.7670 C   0  0  0  0  0  0  0  0  0  0  0  0
   35.3550   31.7120   40.7510 H   0  0  0  0  0  0  0  0  0  0  0  0
   37.4940   31.7960   40.6280 C   0  0  0  0  0  0  0  0  0  0  0  0
   38.5910   30.9770   40.6650 C   0  0  0  0  0  0  0  0  0  0  0  0
   38.5170   29.6310   40.8250 C   0  0  0  0  0  0  0  0  0  0  0  0
   39.4040   29.0080   40.8510 H   0  0  0  0  0  0  0  0  0  0  0  0
   40.1970   31.7300   40.4940 S   0  0  0  0  0  0  0  0  0  0  0  0
   39.9210   33.4800   40.3060 C   0  0  0  0  0  0  0  0  0  0  0  0
   41.0140   34.2920   40.1550 C   0  0  0  0  0  0  0  0  0  0  0  0
   42.0140   33.8560   40.1520 H   0  0  0  0  0  0  0  0  0  0  0  0
   40.8790   35.6560   40.0040 C   0  0  0  0  0  0  0  0  0  0  0  0
   41.7700   36.2300   39.8910 H   0  0  0  0  0  0  0  0  0  0  0  0
   39.6070   36.1720   40.0110 C   0  0  0  0  0  0  0  0  0  0  0  0
   39.4680   37.2310   39.8960 H   0  0  0  0  0  0  0  0  0  0  0  0
   38.5450   35.3060   40.1670 C   0  0  0  0  0  0  0  0  0  0  0  0
   37.5630   35.7970   40.1620 H   0  0  0  0  0  0  0  0  0  0  0  0
   38.6280   33.9380   40.3210 C   0  0  0  0  0  0  0  0  0  0  0  0
   37.4570   33.1910   40.4690 N   0  0  0  0  0  0  0  0  0  0  0  0
   36.5530   33.7020   40.4580 H   0  0  0  0  0  0  0  0  0  0  0  0
   36.8530   23.5980   40.3670 C   0  0  0  0  0  0  0  0  0  0  0  0
   35.9370   23.0990   40.7140 H   0  0  0  0  0  0  0  0  0  0  0  0
   36.7560   23.6920   39.2530 H   0  0  0  0  0  0  0  0  0  0  0  0
   38.0210   22.6720   40.6020 C   0  0  0  0  0  0  0  0  0  0  0  0
   38.7810   23.2050   41.2390 H   0  0  0  0  0  0  0  0  0  0  0  0
   37.7190   21.8010   41.1690 H   0  0  0  0  0  0  0  0  0  0  0  0
   38.6330   22.3430   39.3320 C   0  0  0  0  0  0  0  0  0  0  0  0
   39.5340   23.2010   38.6990 C   0  0  0  0  0  0  0  0  0  0  0  0
   40.0830   22.8190   37.4780 C   0  0  0  0  0  0  0  0  0  0  0  0
   39.7120   21.6290   36.9650 N   0  0  0  0  0  0  0  0  0  0  0  0
   38.8460   20.8220   37.5890 C   0  0  0  0  0  0  0  0  0  0  0  0
   38.3180   21.1760   38.7490 N   0  0  0  0  0  0  0  0  0  0  0  0
   39.7440   24.1220   39.2190 H   0  0  0  0  0  0  0  0  0  0  0  0
   40.7640   23.5010   37.0300 H   0  0  0  0  0  0  0  0  0  0  0  0
   38.5920   19.8730   37.1120 H   0  0  0  0  0  0  0  0  0  0  0  0
  1  2  2  0  0  0  0
  2  3  1  0  0  0  0
  2  6  1  0  0  0  0
  3  7  1  0  0  0  0
  4  3  2  0  0  0  0
  5  1  1  0  0  0  0
  5  4  1  0  0  0  0
  8  4  1  0  0  0  0
  9  8  1  0  0  0  0
  9 10  1  0  0  0  0
 11  9  2  0  0  0  0
 12 11  1  0  0  0  0
 13 14  2  0  0  0  0
 13 11  1  0  0  0  0
 14 15  1  0  0  0  0
 15 16  1  0  0  0  0
 15  8  2  0  0  0  0
 17 14  1  0  0  0  0
 18 27  1  0  0  0  0
 18 17  1  0  0  0  0
 19 18  2  0  0  0  0
 20 19  1  0  0  0  0
 21 23  2  0  0  0  0
 21 19  1  0  0  0  0
 22 21  1  0  0  0  0
 23 25  1  0  0  0  0
 24 23  1  0  0  0  0
 25 27  2  0  0  0  0
 26 25  1  0  0  0  0
 27 28  1  0  0  0  0
 28 13  1  0  0  0  0
 29 28  1  0  0  0  0
 30 33  1  0  0  0  0
 30 31  1  0  0  0  0
 30  1  1  0  0  0  0
 32 30  1  0  0  0  0
 33 35  1  0  0  0  0
 33 34  1  0  0  0  0
 36 33  1  0  0  0  0
 37 42  1  0  0  0  0
 37 36  2  0  0  0  0
 38 37  1  0  0  0  0
 39 38  2  0  0  0  0
 39 40  1  0  0  0  0
 40 41  2  0  0  0  0
 41 36  1  0  0  0  0
 43 38  1  0  0  0  0
 44 40  1  0  0  0  0
M  END
>  <minimizedAffinity>
-6.6375165

$$$$

 OpenBabel03242518143D

 44 48  0  0  0  0  0  0  0  0999 V2000
   38.5350   34.1790   40.3260 C   0  0  0  0  0  0  0  0  0  0  0  0
   37.4460   34.0630   39.3970 C   0  0  0  0  0  0  0  0  0  0  0  0
   36.9560   32.8200   39.0950 C   0  0  0  0  0  0  0  0  0  0  0  0
   37.5760   31.6760   39.7430 C   0  0  0  0  0  0  0  0  0  0  0  0
   38.8660   32.3810   40.7890 S   0  0  0  0  0  0  0  0  0  0  0  0
   37.0910   34.9960   39.0000 H   0  0  0  0  0  0  0  0  0  0  0  0
   36.1430   32.6900   38.4040 H   0  0  0  0  0  0  0  0  0  0  0  0
   37.2870   30.3490   39.6230 C   0  0  0  0  0  0  0  0  0  0  0  0
   36.1860   29.9490   38.8970 C   0  0  0  0  0  0  0  0  0  0  0  0
   35.5390   30.6700   38.4160 H   0  0  0  0  0  0  0  0  0  0  0  0
   35.8790   28.5870   38.7670 C   0  0  0  0  0  0  0  0  0  0  0  0
   35.0010   28.3400   38.1850 H   0  0  0  0  0  0  0  0  0  0  0  0
   36.6450   27.5960   39.3450 C   0  0  0  0  0  0  0  0  0  0  0  0
   37.7270   28.0420   40.0550 C   0  0  0  0  0  0  0  0  0  0  0  0
   38.0450   29.3540   40.1950 C   0  0  0  0  0  0  0  0  0  0  0  0
   38.9100   29.6760   40.7640 H   0  0  0  0  0  0  0  0  0  0  0  0
   38.7700   26.8230   40.8330 S   0  0  0  0  0  0  0  0  0  0  0  0
   38.0670   25.2320   40.4470 C   0  0  0  0  0  0  0  0  0  0  0  0
   38.6910   24.1150   40.9360 C   0  0  0  0  0  0  0  0  0  0  0  0
   39.5920   24.2230   41.5420 H   0  0  0  0  0  0  0  0  0  0  0  0
   38.2060   22.8500   40.6800 C   0  0  0  0  0  0  0  0  0  0  0  0
   38.7400   22.0240   41.0900 H   0  0  0  0  0  0  0  0  0  0  0  0
   37.0710   22.7500   39.9140 C   0  0  0  0  0  0  0  0  0  0  0  0
   36.6670   21.7780   39.6960 H   0  0  0  0  0  0  0  0  0  0  0  0
   36.4850   23.9090   39.4490 C   0  0  0  0  0  0  0  0  0  0  0  0
   35.5830   23.7430   38.8460 H   0  0  0  0  0  0  0  0  0  0  0  0
   36.9310   25.1940   39.6780 C   0  0  0  0  0  0  0  0  0  0  0  0
   36.2270   26.2720   39.1370 N   0  0  0  0  0  0  0  0  0  0  0  0
   35.3800   26.0630   38.5740 H   0  0  0  0  0  0  0  0  0  0  0  0
   39.3100   35.2340   40.8850 C   0  0  0  0  0  0  0  0  0  0  0  0
   38.7110   36.1470   41.0100 H   0  0  0  0  0  0  0  0  0  0  0  0
   39.6290   34.9250   41.9160 H   0  0  0  0  0  0  0  0  0  0  0  0
   40.5810   35.5910   40.1520 C   0  0  0  0  0  0  0  0  0  0  0  0
   40.7650   34.8170   39.3550 H   0  0  0  0  0  0  0  0  0  0  0  0
   40.4770   36.5340   39.6310 H   0  0  0  0  0  0  0  0  0  0  0  0
   41.6910   35.5700   41.0820 C   0  0  0  0  0  0  0  0  0  0  0  0
   42.6460   34.5530   41.0720 C   0  0  0  0  0  0  0  0  0  0  0  0
   43.6870   34.5970   41.9960 C   0  0  0  0  0  0  0  0  0  0  0  0
   43.7170   35.6310   42.8610 N   0  0  0  0  0  0  0  0  0  0  0  0
   42.7900   36.5960   42.8520 C   0  0  0  0  0  0  0  0  0  0  0  0
   41.7970   36.5620   41.9780 N   0  0  0  0  0  0  0  0  0  0  0  0
   42.5030   33.7850   40.3270 H   0  0  0  0  0  0  0  0  0  0  0  0
   44.3920   33.8040   41.9550 H   0  0  0  0  0  0  0  0  0  0  0  0
   42.8790   37.4020   43.5830 H   0  0  0  0  0  0  0  0  0  0  0  0
  1  5  1  0  0  0  0
  1 30  1  0  0  0  0
  2  1  2  0  0  0  0
  3  2  1  0  0  0  0
  3  4  2  0  0  0  0
  4  5  1  0  0  0  0
  6  2  1  0  0  0  0
  7  3  1  0  0  0  0
  8  4  1  0  0  0  0
  8 15  1  0  0  0  0
  9  8  2  0  0  0  0
 10  9  1  0  0  0  0
 11  9  1  0  0  0  0
 11 13  2  0  0  0  0
 12 11  1  0  0  0  0
 13 14  1  0  0  0  0
 14 15  2  0  0  0  0
 14 17  1  0  0  0  0
 15 16  1  0  0  0  0
 18 17  1  0  0  0  0
 18 19  1  0  0  0  0
 19 20  1  0  0  0  0
 21 19  2  0  0  0  0
 21 22  1  0  0  0  0
 23 21  1  0  0  0  0
 24 23  1  0  0  0  0
 25 27  1  0  0  0  0
 25 23  2  0  0  0  0
 26 25  1  0  0  0  0
 27 18  2  0  0  0  0
 28 13  1  0  0  0  0
 28 27  1  0  0  0  0
 29 28  1  0  0  0  0
 30 31  1  0  0  0  0
 30 32  1  0  0  0  0
 33 30  1  0  0  0  0
 33 36  1  0  0  0  0
 34 33  1  0  0  0  0
 35 33  1  0  0  0  0
 36 41  1  0  0  0  0
 37 36  2  0  0  0  0
 37 38  1  0  0  0  0
 38 39  2  0  0  0  0
 40 39  1  0  0  0  0
 40 44  1  0  0  0  0
 41 40  2  0  0  0  0
 42 37  1  0  0  0  0
 43 38  1  0  0  0  0
M  END
>  <minimizedAffinity>
-6.59162855

$$$$

 OpenBabel03242518143D

 44 48  0  0  0  0  0  0  0  0999 V2000
   37.9210   25.2720   41.5590 C   0  0  0  0  0  0  0  0  0  0  0  0
   37.0080   25.9040   42.4700 C   0  0  0  0  0  0  0  0  0  0  0  0
   36.8540   27.2650   42.4230 C   0  0  0  0  0  0  0  0  0  0  0  0
   37.6330   27.9980   41.4390 C   0  0  0  0  0  0  0  0  0  0  0  0
   38.5930   26.7360   40.5770 S   0  0  0  0  0  0  0  0  0  0  0  0
   36.5020   25.2330   43.1380 H   0  0  0  0  0  0  0  0  0  0  0  0
   36.1810   27.7760   43.0870 H   0  0  0  0  0  0  0  0  0  0  0  0
   37.6690   29.3360   41.1830 C   0  0  0  0  0  0  0  0  0  0  0  0
   36.4970   30.0240   40.9560 C   0  0  0  0  0  0  0  0  0  0  0  0
   35.5390   29.5210   40.9750 H   0  0  0  0  0  0  0  0  0  0  0  0
   36.5230   31.4000   40.6910 C   0  0  0  0  0  0  0  0  0  0  0  0
   35.5680   31.8810   40.5210 H   0  0  0  0  0  0  0  0  0  0  0  0
   37.6950   32.1250   40.6460 C   0  0  0  0  0  0  0  0  0  0  0  0
   38.8330   31.3990   40.8780 C   0  0  0  0  0  0  0  0  0  0  0  0
   38.8340   30.0670   41.1360 C   0  0  0  0  0  0  0  0  0  0  0  0
   39.7520   29.5190   41.3170 H   0  0  0  0  0  0  0  0  0  0  0  0
   40.3920   32.2630   40.8380 S   0  0  0  0  0  0  0  0  0  0  0  0
   40.0200   33.9680   40.4780 C   0  0  0  0  0  0  0  0  0  0  0  0
   41.0630   34.8510   40.3910 C   0  0  0  0  0  0  0  0  0  0  0  0
   42.0840   34.4960   40.5420 H   0  0  0  0  0  0  0  0  0  0  0  0
   40.8530   36.1850   40.1160 C   0  0  0  0  0  0  0  0  0  0  0  0
   41.7090   36.8190   40.0630 H   0  0  0  0  0  0  0  0  0  0  0  0
   39.5570   36.5980   39.9310 C   0  0  0  0  0  0  0  0  0  0  0  0
   39.3600   37.6320   39.7150 H   0  0  0  0  0  0  0  0  0  0  0  0
   38.5470   35.6640   40.0300 C   0  0  0  0  0  0  0  0  0  0  0  0
   37.5410   36.0740   39.8690 H   0  0  0  0  0  0  0  0  0  0  0  0
   38.7050   34.3220   40.3030 C   0  0  0  0  0  0  0  0  0  0  0  0
   37.5810   33.4970   40.3710 N   0  0  0  0  0  0  0  0  0  0  0  0
   36.6510   33.9330   40.2120 H   0  0  0  0  0  0  0  0  0  0  0  0
   38.3630   23.9460   41.2910 C   0  0  0  0  0  0  0  0  0  0  0  0
   39.2620   23.9450   40.6580 H   0  0  0  0  0  0  0  0  0  0  0  0
   38.6630   23.4740   42.2640 H   0  0  0  0  0  0  0  0  0  0  0  0
   37.3460   23.0130   40.6780 C   0  0  0  0  0  0  0  0  0  0  0  0
   37.8100   21.9940   40.5730 H   0  0  0  0  0  0  0  0  0  0  0  0
   36.4930   22.8850   41.3330 H   0  0  0  0  0  0  0  0  0  0  0  0
   36.9880   23.4960   39.3610 C   0  0  0  0  0  0  0  0  0  0  0  0
   37.9140   23.5600   38.3190 C   0  0  0  0  0  0  0  0  0  0  0  0
   37.5000   24.0350   37.0770 C   0  0  0  0  0  0  0  0  0  0  0  0
   36.2120   24.4130   36.9460 N   0  0  0  0  0  0  0  0  0  0  0  0
   35.3410   24.3430   37.9590 C   0  0  0  0  0  0  0  0  0  0  0  0
   35.7250   23.8930   39.1420 N   0  0  0  0  0  0  0  0  0  0  0  0
   38.9110   23.2260   38.5600 H   0  0  0  0  0  0  0  0  0  0  0  0
   38.2360   24.0680   36.3120 H   0  0  0  0  0  0  0  0  0  0  0  0
   34.3140   24.6670   37.7780 H   0  0  0  0  0  0  0  0  0  0  0  0
  1  2  2  0  0  0  0
  2  6  1  0  0  0  0
  3  2  1  0  0  0  0
  3  7  1  0  0  0  0
  4  3  2  0  0  0  0
  5  4  1  0  0  0  0
  5  1  1  0  0  0  0
  8  4  1  0  0  0  0
  9 10  1  0  0  0  0
  9  8  2  0  0  0  0
 11  9  1  0  0  0  0
 12 11  1  0  0  0  0
 13 11  2  0  0  0  0
 13 14  1  0  0  0  0
 14 15  2  0  0  0  0
 15  8  1  0  0  0  0
 15 16  1  0  0  0  0
 17 14  1  0  0  0  0
 18 17  1  0  0  0  0
 19 18  1  0  0  0  0
 19 20  1  0  0  0  0
 21 19  2  0  0  0  0
 22 21  1  0  0  0  0
 23 25  2  0  0  0  0
 23 21  1  0  0  0  0
 24 23  1  0  0  0  0
 25 27  1  0  0  0  0
 26 25  1  0  0  0  0
 27 28  1  0  0  0  0
 27 18  2  0  0  0  0
 28 13  1  0  0  0  0
 29 28  1  0  0  0  0
 30  1  1  0  0  0  0
 30 32  1  0  0  0  0
 31 30  1  0  0  0  0
 33 30  1  0  0  0  0
 33 35  1  0  0  0  0
 34 33  1  0  0  0  0
 36 33  1  0  0  0  0
 37 42  1  0  0  0  0
 37 36  2  0  0  0  0
 38 37  1  0  0  0  0
 39 38  2  0  0  0  0
 39 40  1  0  0  0  0
 40 41  2  0  0  0  0
 41 36  1  0  0  0  0
 43 38  1  0  0  0  0
 44 40  1  0  0  0  0
M  END
>  <minimizedAffinity>
-6.54147816

$$$$

 OpenBabel03242518143D

 44 48  0  0  0  0  0  0  0  0999 V2000
   37.0710   30.8960   39.8360 C   0  0  0  0  0  0  0  0  0  0  0  0
   36.0810   30.3870   40.7440 C   0  0  0  0  0  0  0  0  0  0  0  0
   36.0620   29.0470   41.0280 C   0  0  0  0  0  0  0  0  0  0  0  0
   37.0610   28.2080   40.3860 C   0  0  0  0  0  0  0  0  0  0  0  0
   38.0310   29.3400   39.3700 S   0  0  0  0  0  0  0  0  0  0  0  0
   35.4120   31.1280   41.1400 H   0  0  0  0  0  0  0  0  0  0  0  0
   35.3380   28.6270   41.7010 H   0  0  0  0  0  0  0  0  0  0  0  0
   37.2630   26.8640   40.4920 C   0  0  0  0  0  0  0  0  0  0  0  0
   37.0300   26.2280   41.6920 C   0  0  0  0  0  0  0  0  0  0  0  0
   36.6870   26.7750   42.5600 H   0  0  0  0  0  0  0  0  0  0  0  0
   37.2340   24.8460   41.8120 C   0  0  0  0  0  0  0  0  0  0  0  0
   37.0340   24.4070   42.7810 H   0  0  0  0  0  0  0  0  0  0  0  0
   37.6690   24.0660   40.7620 C   0  0  0  0  0  0  0  0  0  0  0  0
   37.8870   24.7420   39.5910 C   0  0  0  0  0  0  0  0  0  0  0  0
   37.6960   26.0790   39.4490 C   0  0  0  0  0  0  0  0  0  0  0  0
   37.8760   26.5870   38.5080 H   0  0  0  0  0  0  0  0  0  0  0  0
   38.4500   23.8060   38.1820 S   0  0  0  0  0  0  0  0  0  0  0  0
   38.5890   22.1130   38.7200 C   0  0  0  0  0  0  0  0  0  0  0  0
   39.0100   21.1810   37.8100 C   0  0  0  0  0  0  0  0  0  0  0  0
   39.2480   21.4900   36.7910 H   0  0  0  0  0  0  0  0  0  0  0  0
   39.1430   19.8510   38.1530 C   0  0  0  0  0  0  0  0  0  0  0  0
   39.4750   19.1770   37.3960 H   0  0  0  0  0  0  0  0  0  0  0  0
   38.8350   19.4960   39.4430 C   0  0  0  0  0  0  0  0  0  0  0  0
   38.9280   18.4680   39.7410 H   0  0  0  0  0  0  0  0  0  0  0  0
   38.4170   20.4780   40.3150 C   0  0  0  0  0  0  0  0  0  0  0  0
   38.1920   20.1120   41.3260 H   0  0  0  0  0  0  0  0  0  0  0  0
   38.2690   21.8170   40.0210 C   0  0  0  0  0  0  0  0  0  0  0  0
   37.8330   22.6950   41.0160 N   0  0  0  0  0  0  0  0  0  0  0  0
   37.6330   22.3010   41.9560 H   0  0  0  0  0  0  0  0  0  0  0  0
   37.4210   32.1630   39.2900 C   0  0  0  0  0  0  0  0  0  0  0  0
   38.3260   32.0950   38.6700 H   0  0  0  0  0  0  0  0  0  0  0  0
   36.5940   32.4880   38.6040 H   0  0  0  0  0  0  0  0  0  0  0  0
   37.6020   33.2900   40.2780 C   0  0  0  0  0  0  0  0  0  0  0  0
   36.7420   34.0080   40.1670 H   0  0  0  0  0  0  0  0  0  0  0  0
   37.5530   32.9260   41.2960 H   0  0  0  0  0  0  0  0  0  0  0  0
   38.8320   33.9940   39.9810 C   0  0  0  0  0  0  0  0  0  0  0  0
   38.9970   35.3500   40.2660 C   0  0  0  0  0  0  0  0  0  0  0  0
   40.2080   35.9620   39.9520 C   0  0  0  0  0  0  0  0  0  0  0  0
   41.1670   35.2050   39.3820 N   0  0  0  0  0  0  0  0  0  0  0  0
   40.9860   33.9060   39.1180 C   0  0  0  0  0  0  0  0  0  0  0  0
   39.8400   33.3150   39.4120 N   0  0  0  0  0  0  0  0  0  0  0  0
   38.1500   35.8370   40.7230 H   0  0  0  0  0  0  0  0  0  0  0  0
   40.2920   36.9950   40.1850 H   0  0  0  0  0  0  0  0  0  0  0  0
   41.8090   33.3560   38.6540 H   0  0  0  0  0  0  0  0  0  0  0  0
  1  2  2  0  0  0  0
  2  3  1  0  0  0  0
  2  6  1  0  0  0  0
  3  7  1  0  0  0  0
  4  8  1  0  0  0  0
  4  3  2  0  0  0  0
  5  1  1  0  0  0  0
  5  4  1  0  0  0  0
  8  9  1  0  0  0  0
  9 11  2  0  0  0  0
  9 10  1  0  0  0  0
 11 12  1  0  0  0  0
 13 28  1  0  0  0  0
 13 11  1  0  0  0  0
 14 13  2  0  0  0  0
 15 14  1  0  0  0  0
 15  8  2  0  0  0  0
 16 15  1  0  0  0  0
 17 18  1  0  0  0  0
 17 14  1  0  0  0  0
 18 27  1  0  0  0  0
 19 21  1  0  0  0  0
 19 18  2  0  0  0  0
 20 19  1  0  0  0  0
 21 23  2  0  0  0  0
 22 21  1  0  0  0  0
 23 24  1  0  0  0  0
 23 25  1  0  0  0  0
 25 26  1  0  0  0  0
 27 25  2  0  0  0  0
 27 28  1  0  0  0  0
 28 29  1  0  0  0  0
 30  1  1  0  0  0  0
 30 33  1  0  0  0  0
 31 30  1  0  0  0  0
 32 30  1  0  0  0  0
 33 35  1  0  0  0  0
 34 33  1  0  0  0  0
 36 37  1  0  0  0  0
 36 33  1  0  0  0  0
 37 42  1  0  0  0  0
 38 43  1  0  0  0  0
 38 37  2  0  0  0  0
 39 38  1  0  0  0  0
 40 39  2  0  0  0  0
 40 41  1  0  0  0  0
 41 36  2  0  0  0  0
 44 40  1  0  0  0  0
M  END
>  <minimizedAffinity>
-6.38477278

$$$$
