
 OpenBabel03242510363D

 34 37  0  0  0  0  0  0  0  0999 V2000
   35.0240   28.6070   38.7670 C   0  0  0  0  0  0  0  0  0  0  0  0
   35.0370   29.5020   39.8150 C   0  0  0  0  0  0  0  0  0  0  0  0
   34.4250   30.3700   39.7750 H   0  0  0  0  0  0  0  0  0  0  0  0
   35.8620   29.2250   40.8850 C   0  0  0  0  0  0  0  0  0  0  0  0
   35.8250   29.9790   41.6870 H   0  0  0  0  0  0  0  0  0  0  0  0
   36.6820   28.1220   41.0060 C   0  0  0  0  0  0  0  0  0  0  0  0
   36.6200   27.2720   39.9280 C   0  0  0  0  0  0  0  0  0  0  0  0
   35.8270   27.5060   38.8600 C   0  0  0  0  0  0  0  0  0  0  0  0
   35.8030   26.8020   38.0130 H   0  0  0  0  0  0  0  0  0  0  0  0
   37.6340   25.8070   39.9580 S   0  0  0  0  0  0  0  0  0  0  0  0
   38.5180   25.8350   41.4800 C   0  0  0  0  0  0  0  0  0  0  0  0
   39.3940   24.8390   41.8160 C   0  0  0  0  0  0  0  0  0  0  0  0
   39.5370   24.0100   41.1070 H   0  0  0  0  0  0  0  0  0  0  0  0
   40.1220   24.7890   42.9870 C   0  0  0  0  0  0  0  0  0  0  0  0
   40.7900   23.9560   43.1580 H   0  0  0  0  0  0  0  0  0  0  0  0
   39.9230   25.8520   43.8670 C   0  0  0  0  0  0  0  0  0  0  0  0
   40.4710   25.8510   44.7900 H   0  0  0  0  0  0  0  0  0  0  0  0
   39.0430   26.8440   43.5220 C   0  0  0  0  0  0  0  0  0  0  0  0
   38.9510   27.6400   44.2770 H   0  0  0  0  0  0  0  0  0  0  0  0
   38.3220   26.8800   42.3470 C   0  0  0  0  0  0  0  0  0  0  0  0
   37.4690   27.9820   42.1700 N   0  0  0  0  0  0  0  0  0  0  0  0
   37.3940   28.7240   42.8960 H   0  0  0  0  0  0  0  0  0  0  0  0
   33.8930   28.8530   35.3050 C   0  0  0  0  0  0  0  0  0  0  0  0
   32.5600   29.3230   35.4230 C   0  0  0  0  0  0  0  0  0  0  0  0
   32.0810   29.5440   36.7160 C   0  0  0  0  0  0  0  0  0  0  0  0
   32.9070   29.3030   37.7670 N   0  0  0  0  0  0  0  0  0  0  0  0
   34.1700   28.8560   37.6100 C   0  0  0  0  0  0  0  0  0  0  0  0
   34.6620   28.6320   36.3860 N   0  0  0  0  0  0  0  0  0  0  0  0
   34.2660   28.6800   34.3050 H   0  0  0  0  0  0  0  0  0  0  0  0
   31.9980   29.4790   34.5000 H   0  0  0  0  0  0  0  0  0  0  0  0
   30.7080   30.0270   36.8000 C   0  0  0  0  0  0  0  0  0  0  0  0
   30.7090   31.4100   36.7300 F   0  0  0  0  0  0  0  0  0  0  0  0
   30.2450   29.7080   38.0630 F   0  0  0  0  0  0  0  0  0  0  0  0
   29.8930   29.5430   35.8110 F   0  0  0  0  0  0  0  0  0  0  0  0
  1  8  2  0  0  0  0
  1  2  1  0  0  0  0
  2  4  2  0  0  0  0
  3  2  1  0  0  0  0
  4  6  1  0  0  0  0
  4  5  1  0  0  0  0
  6 21  1  0  0  0  0
  7 10  1  0  0  0  0
  7  6  2  0  0  0  0
  8  7  1  0  0  0  0
  9  8  1  0  0  0  0
 10 11  1  0  0  0  0
 11 12  2  0  0  0  0
 11 20  1  0  0  0  0
 12 14  1  0  0  0  0
 13 12  1  0  0  0  0
 14 15  1  0  0  0  0
 14 16  2  0  0  0  0
 16 17  1  0  0  0  0
 18 16  1  0  0  0  0
 18 19  1  0  0  0  0
 20 18  2  0  0  0  0
 21 20  1  0  0  0  0
 21 22  1  0  0  0  0
 23 24  2  0  0  0  0
 23 28  1  0  0  0  0
 24 25  1  0  0  0  0
 25 31  1  0  0  0  0
 25 26  2  0  0  0  0
 27 26  1  0  0  0  0
 27  1  1  0  0  0  0
 28 27  2  0  0  0  0
 29 23  1  0  0  0  0
 30 24  1  0  0  0  0
 31 33  1  0  0  0  0
 32 31  1  0  0  0  0
 34 31  1  0  0  0  0
M  END
>  <minimizedAffinity>
-6.10778952

$$$$

 OpenBabel03242510363D

 34 37  0  0  0  0  0  0  0  0999 V2000
   34.1760   28.3890   37.8330 C   0  0  0  0  0  0  0  0  0  0  0  0
   34.6740   27.1940   37.3600 C   0  0  0  0  0  0  0  0  0  0  0  0
   34.2950   26.7860   36.4560 H   0  0  0  0  0  0  0  0  0  0  0  0
   35.6590   26.5720   38.1000 C   0  0  0  0  0  0  0  0  0  0  0  0
   36.0120   25.6220   37.6660 H   0  0  0  0  0  0  0  0  0  0  0  0
   36.1980   27.0410   39.2790 C   0  0  0  0  0  0  0  0  0  0  0  0
   35.6580   28.2350   39.6920 C   0  0  0  0  0  0  0  0  0  0  0  0
   34.6930   28.8770   39.0000 C   0  0  0  0  0  0  0  0  0  0  0  0
   34.2830   29.8330   39.3610 H   0  0  0  0  0  0  0  0  0  0  0  0
   36.2680   28.9500   41.2070 S   0  0  0  0  0  0  0  0  0  0  0  0
   37.5000   27.8540   41.8230 C   0  0  0  0  0  0  0  0  0  0  0  0
   38.1720   28.1160   42.9860 C   0  0  0  0  0  0  0  0  0  0  0  0
   37.9250   29.0370   43.5340 H   0  0  0  0  0  0  0  0  0  0  0  0
   39.1480   27.3080   43.5330 C   0  0  0  0  0  0  0  0  0  0  0  0
   39.6210   27.6050   44.4590 H   0  0  0  0  0  0  0  0  0  0  0  0
   39.4410   26.1480   42.8180 C   0  0  0  0  0  0  0  0  0  0  0  0
   40.1950   25.4920   43.2110 H   0  0  0  0  0  0  0  0  0  0  0  0
   38.7630   25.8940   41.6550 C   0  0  0  0  0  0  0  0  0  0  0  0
   39.0610   24.9570   41.1610 H   0  0  0  0  0  0  0  0  0  0  0  0
   37.7890   26.7120   41.1210 C   0  0  0  0  0  0  0  0  0  0  0  0
   37.2050   26.2830   39.9170 N   0  0  0  0  0  0  0  0  0  0  0  0
   37.5000   25.3940   39.4640 H   0  0  0  0  0  0  0  0  0  0  0  0
   32.2920   29.8110   35.0490 C   0  0  0  0  0  0  0  0  0  0  0  0
   31.1660   30.4010   35.6760 C   0  0  0  0  0  0  0  0  0  0  0  0
   31.0870   30.2900   37.0660 C   0  0  0  0  0  0  0  0  0  0  0  0
   32.0770   29.6350   37.7240 N   0  0  0  0  0  0  0  0  0  0  0  0
   33.1330   29.0870   37.0880 C   0  0  0  0  0  0  0  0  0  0  0  0
   33.2410   29.1740   35.7570 N   0  0  0  0  0  0  0  0  0  0  0  0
   32.3550   29.8960   33.9730 H   0  0  0  0  0  0  0  0  0  0  0  0
   30.4370   30.9020   35.0350 H   0  0  0  0  0  0  0  0  0  0  0  0
   29.9170   30.9080   37.6780 C   0  0  0  0  0  0  0  0  0  0  0  0
   30.1870   32.2440   37.9240 F   0  0  0  0  0  0  0  0  0  0  0  0
   29.7490   30.3170   38.9150 F   0  0  0  0  0  0  0  0  0  0  0  0
   28.7860   30.8290   36.9080 F   0  0  0  0  0  0  0  0  0  0  0  0
  1  8  1  0  0  0  0
  2  1  2  0  0  0  0
  2  4  1  0  0  0  0
  3  2  1  0  0  0  0
  4  6  2  0  0  0  0
  5  4  1  0  0  0  0
  6  7  1  0  0  0  0
  6 21  1  0  0  0  0
  7 10  1  0  0  0  0
  8  9  1  0  0  0  0
  8  7  2  0  0  0  0
 10 11  1  0  0  0  0
 11 12  1  0  0  0  0
 12 14  2  0  0  0  0
 12 13  1  0  0  0  0
 14 15  1  0  0  0  0
 16 17  1  0  0  0  0
 16 14  1  0  0  0  0
 18 16  2  0  0  0  0
 19 18  1  0  0  0  0
 20 18  1  0  0  0  0
 20 11  2  0  0  0  0
 21 20  1  0  0  0  0
 22 21  1  0  0  0  0
 23 24  2  0  0  0  0
 23 28  1  0  0  0  0
 24 25  1  0  0  0  0
 25 31  1  0  0  0  0
 25 26  2  0  0  0  0
 27 26  1  0  0  0  0
 27  1  1  0  0  0  0
 28 27  2  0  0  0  0
 29 23  1  0  0  0  0
 30 24  1  0  0  0  0
 31 32  1  0  0  0  0
 31 33  1  0  0  0  0
 34 31  1  0  0  0  0
M  END
>  <minimizedAffinity>
-5.92082977

$$$$

 OpenBabel03242510363D

 34 37  0  0  0  0  0  0  0  0999 V2000
   36.3600   28.9640   37.9270 C   0  0  0  0  0  0  0  0  0  0  0  0
   36.4400   29.9590   38.8770 C   0  0  0  0  0  0  0  0  0  0  0  0
   36.0270   30.9170   38.6750 H   0  0  0  0  0  0  0  0  0  0  0  0
   37.0680   29.6590   40.0690 C   0  0  0  0  0  0  0  0  0  0  0  0
   37.0980   30.4980   40.7830 H   0  0  0  0  0  0  0  0  0  0  0  0
   37.6270   28.4430   40.4000 C   0  0  0  0  0  0  0  0  0  0  0  0
   37.5110   27.4980   39.4100 C   0  0  0  0  0  0  0  0  0  0  0  0
   36.9050   27.7490   38.2300 C   0  0  0  0  0  0  0  0  0  0  0  0
   36.8300   26.9660   37.4580 H   0  0  0  0  0  0  0  0  0  0  0  0
   38.1940   25.8790   39.7130 S   0  0  0  0  0  0  0  0  0  0  0  0
   38.8920   25.9200   41.3290 C   0  0  0  0  0  0  0  0  0  0  0  0
   39.5040   24.8230   41.8710 C   0  0  0  0  0  0  0  0  0  0  0  0
   39.5510   23.9020   41.2690 H   0  0  0  0  0  0  0  0  0  0  0  0
   40.0730   24.7750   43.1260 C   0  0  0  0  0  0  0  0  0  0  0  0
   40.5340   23.8570   43.4630 H   0  0  0  0  0  0  0  0  0  0  0  0
   40.0000   25.9540   43.8670 C   0  0  0  0  0  0  0  0  0  0  0  0
   40.4320   25.9590   44.8500 H   0  0  0  0  0  0  0  0  0  0  0  0
   39.3860   27.0480   43.3160 C   0  0  0  0  0  0  0  0  0  0  0  0
   39.3760   27.9320   43.9730 H   0  0  0  0  0  0  0  0  0  0  0  0
   38.8210   27.0790   42.0580 C   0  0  0  0  0  0  0  0  0  0  0  0
   38.2360   28.2960   41.6670 N   0  0  0  0  0  0  0  0  0  0  0  0
   38.2350   29.1200   42.3020 H   0  0  0  0  0  0  0  0  0  0  0  0
   33.8810   28.9260   35.2490 C   0  0  0  0  0  0  0  0  0  0  0  0
   34.4670   29.7330   34.2400 C   0  0  0  0  0  0  0  0  0  0  0  0
   35.7220   30.2770   34.5190 C   0  0  0  0  0  0  0  0  0  0  0  0
   36.2990   30.0050   35.7180 N   0  0  0  0  0  0  0  0  0  0  0  0
   35.7060   29.2310   36.6500 C   0  0  0  0  0  0  0  0  0  0  0  0
   34.5030   28.6930   36.4170 N   0  0  0  0  0  0  0  0  0  0  0  0
   32.9080   28.5030   35.0350 H   0  0  0  0  0  0  0  0  0  0  0  0
   33.9010   29.8750   33.3170 H   0  0  0  0  0  0  0  0  0  0  0  0
   36.2960   31.1010   33.4610 C   0  0  0  0  0  0  0  0  0  0  0  0
   37.1980   31.9910   34.0190 F   0  0  0  0  0  0  0  0  0  0  0  0
   35.2690   31.8690   32.9470 F   0  0  0  0  0  0  0  0  0  0  0  0
   36.9410   30.3800   32.4910 F   0  0  0  0  0  0  0  0  0  0  0  0
  1  8  2  0  0  0  0
  1  2  1  0  0  0  0
  2  4  2  0  0  0  0
  3  2  1  0  0  0  0
  4  6  1  0  0  0  0
  4  5  1  0  0  0  0
  6 21  1  0  0  0  0
  7 10  1  0  0  0  0
  7  6  2  0  0  0  0
  8  7  1  0  0  0  0
  9  8  1  0  0  0  0
 10 11  1  0  0  0  0
 11 12  2  0  0  0  0
 11 20  1  0  0  0  0
 12 14  1  0  0  0  0
 13 12  1  0  0  0  0
 14 15  1  0  0  0  0
 14 16  2  0  0  0  0
 16 17  1  0  0  0  0
 18 16  1  0  0  0  0
 18 19  1  0  0  0  0
 20 18  2  0  0  0  0
 21 20  1  0  0  0  0
 21 22  1  0  0  0  0
 23 28  1  0  0  0  0
 24 25  1  0  0  0  0
 24 23  2  0  0  0  0
 25 26  2  0  0  0  0
 26 27  1  0  0  0  0
 27  1  1  0  0  0  0
 28 27  2  0  0  0  0
 29 23  1  0  0  0  0
 30 24  1  0  0  0  0
 31 32  1  0  0  0  0
 31 25  1  0  0  0  0
 33 31  1  0  0  0  0
 34 31  1  0  0  0  0
M  END
>  <minimizedAffinity>
-5.40734482

$$$$

 OpenBabel03242510363D

 34 37  0  0  0  0  0  0  0  0999 V2000
   35.5020   27.8470   38.3690 C   0  0  0  0  0  0  0  0  0  0  0  0
   36.0080   27.8290   37.0880 C   0  0  0  0  0  0  0  0  0  0  0  0
   36.9580   27.3920   36.9010 H   0  0  0  0  0  0  0  0  0  0  0  0
   35.2430   28.3940   36.0880 C   0  0  0  0  0  0  0  0  0  0  0  0
   35.7050   28.3460   35.0880 H   0  0  0  0  0  0  0  0  0  0  0  0
   34.0050   28.9780   36.2540 C   0  0  0  0  0  0  0  0  0  0  0  0
   33.5610   28.9610   37.5540 C   0  0  0  0  0  0  0  0  0  0  0  0
   34.2770   28.4200   38.5620 C   0  0  0  0  0  0  0  0  0  0  0  0
   33.8890   28.4240   39.5930 H   0  0  0  0  0  0  0  0  0  0  0  0
   31.9710   29.6880   37.9050 S   0  0  0  0  0  0  0  0  0  0  0  0
   31.3380   30.2820   36.3730 C   0  0  0  0  0  0  0  0  0  0  0  0
   30.1200   30.9010   36.2960 C   0  0  0  0  0  0  0  0  0  0  0  0
   29.5370   31.0220   37.2210 H   0  0  0  0  0  0  0  0  0  0  0  0
   29.5570   31.3940   35.1370 C   0  0  0  0  0  0  0  0  0  0  0  0
   28.5860   31.8680   35.1810 H   0  0  0  0  0  0  0  0  0  0  0  0
   30.3160   31.2280   33.9790 C   0  0  0  0  0  0  0  0  0  0  0  0
   29.9130   31.5970   33.0560 H   0  0  0  0  0  0  0  0  0  0  0  0
   31.5340   30.6070   34.0670 C   0  0  0  0  0  0  0  0  0  0  0  0
   32.0610   30.5210   33.1040 H   0  0  0  0  0  0  0  0  0  0  0  0
   32.0840   30.1200   35.2340 C   0  0  0  0  0  0  0  0  0  0  0  0
   33.3470   29.5120   35.1240 N   0  0  0  0  0  0  0  0  0  0  0  0
   33.8290   29.4400   34.2050 H   0  0  0  0  0  0  0  0  0  0  0  0
   37.6860   25.5870   40.2250 C   0  0  0  0  0  0  0  0  0  0  0  0
   37.7320   26.1580   41.5220 C   0  0  0  0  0  0  0  0  0  0  0  0
   36.9960   27.3280   41.7230 C   0  0  0  0  0  0  0  0  0  0  0  0
   36.2900   27.8400   40.6820 N   0  0  0  0  0  0  0  0  0  0  0  0
   36.2730   27.2640   39.4620 C   0  0  0  0  0  0  0  0  0  0  0  0
   36.9670   26.1420   39.2340 N   0  0  0  0  0  0  0  0  0  0  0  0
   38.2550   24.6810   40.0680 H   0  0  0  0  0  0  0  0  0  0  0  0
   38.3370   25.6500   42.2760 H   0  0  0  0  0  0  0  0  0  0  0  0
   37.0650   27.8880   43.0670 C   0  0  0  0  0  0  0  0  0  0  0  0
   38.1670   27.3630   43.7210 F   0  0  0  0  0  0  0  0  0  0  0  0
   35.9570   27.4280   43.7530 F   0  0  0  0  0  0  0  0  0  0  0  0
   37.1580   29.2550   43.0900 F   0  0  0  0  0  0  0  0  0  0  0  0
  1  8  1  0  0  0  0
  1 27  1  0  0  0  0
  2  1  2  0  0  0  0
  3  2  1  0  0  0  0
  4  6  2  0  0  0  0
  4  2  1  0  0  0  0
  5  4  1  0  0  0  0
  6  7  1  0  0  0  0
  7 10  1  0  0  0  0
  7  8  2  0  0  0  0
  8  9  1  0  0  0  0
 11 10  1  0  0  0  0
 12 11  1  0  0  0  0
 12 13  1  0  0  0  0
 14 15  1  0  0  0  0
 14 12  2  0  0  0  0
 16 18  2  0  0  0  0
 16 14  1  0  0  0  0
 17 16  1  0  0  0  0
 18 20  1  0  0  0  0
 19 18  1  0  0  0  0
 20 11  2  0  0  0  0
 21 20  1  0  0  0  0
 21  6  1  0  0  0  0
 22 21  1  0  0  0  0
 23 24  1  0  0  0  0
 24 25  2  0  0  0  0
 24 30  1  0  0  0  0
 25 31  1  0  0  0  0
 26 25  1  0  0  0  0
 27 26  2  0  0  0  0
 28 27  1  0  0  0  0
 28 23  2  0  0  0  0
 29 23  1  0  0  0  0
 31 34  1  0  0  0  0
 31 32  1  0  0  0  0
 31 33  1  0  0  0  0
M  END
>  <minimizedAffinity>
-5.39455557

$$$$

 OpenBabel03242510363D

 34 37  0  0  0  0  0  0  0  0999 V2000
   36.4530   27.8710   40.5810 C   0  0  0  0  0  0  0  0  0  0  0  0
   35.6280   28.9520   40.8060 C   0  0  0  0  0  0  0  0  0  0  0  0
   35.7220   29.5090   41.7060 H   0  0  0  0  0  0  0  0  0  0  0  0
   34.7000   29.2640   39.8340 C   0  0  0  0  0  0  0  0  0  0  0  0
   34.0730   30.1380   40.0760 H   0  0  0  0  0  0  0  0  0  0  0  0
   34.5210   28.5890   38.6450 C   0  0  0  0  0  0  0  0  0  0  0  0
   35.3750   27.5250   38.4850 C   0  0  0  0  0  0  0  0  0  0  0  0
   36.2970   27.1840   39.4110 C   0  0  0  0  0  0  0  0  0  0  0  0
   36.9660   26.3240   39.2490 H   0  0  0  0  0  0  0  0  0  0  0  0
   35.2460   26.5650   36.9880 S   0  0  0  0  0  0  0  0  0  0  0  0
   33.9580   27.2910   36.0320 C   0  0  0  0  0  0  0  0  0  0  0  0
   33.6030   26.7860   34.8110 C   0  0  0  0  0  0  0  0  0  0  0  0
   34.1460   25.9060   34.4330 H   0  0  0  0  0  0  0  0  0  0  0  0
   32.6070   27.2960   34.0040 C   0  0  0  0  0  0  0  0  0  0  0  0
   32.4030   26.8230   33.0540 H   0  0  0  0  0  0  0  0  0  0  0  0
   31.9350   28.4100   34.5070 C   0  0  0  0  0  0  0  0  0  0  0  0
   31.1530   28.8380   33.9090 H   0  0  0  0  0  0  0  0  0  0  0  0
   32.2980   28.9080   35.7300 C   0  0  0  0  0  0  0  0  0  0  0  0
   31.7130   29.7870   36.0440 H   0  0  0  0  0  0  0  0  0  0  0  0
   33.2960   28.3860   36.5250 C   0  0  0  0  0  0  0  0  0  0  0  0
   33.5230   29.0360   37.7510 N   0  0  0  0  0  0  0  0  0  0  0  0
   32.9610   29.8660   38.0300 H   0  0  0  0  0  0  0  0  0  0  0  0
   38.6980   28.0710   43.4520 C   0  0  0  0  0  0  0  0  0  0  0  0
   39.3330   26.8030   43.4670 C   0  0  0  0  0  0  0  0  0  0  0  0
   38.9620   25.8990   42.4690 C   0  0  0  0  0  0  0  0  0  0  0  0
   38.0310   26.2820   41.5570 N   0  0  0  0  0  0  0  0  0  0  0  0
   37.4510   27.5000   41.5790 C   0  0  0  0  0  0  0  0  0  0  0  0
   37.7820   28.3900   42.5210 N   0  0  0  0  0  0  0  0  0  0  0  0
   38.9840   28.7720   44.2240 H   0  0  0  0  0  0  0  0  0  0  0  0
   40.0670   26.6160   44.2540 H   0  0  0  0  0  0  0  0  0  0  0  0
   39.6340   24.6070   42.5130 C   0  0  0  0  0  0  0  0  0  0  0  0
   40.9550   24.7690   42.1290 F   0  0  0  0  0  0  0  0  0  0  0  0
   39.0490   23.8140   41.5450 F   0  0  0  0  0  0  0  0  0  0  0  0
   39.6120   24.0170   43.7500 F   0  0  0  0  0  0  0  0  0  0  0  0
  1  2  1  0  0  0  0
  1 27  1  0  0  0  0
  2  3  1  0  0  0  0
  4  5  1  0  0  0  0
  4  2  2  0  0  0  0
  6  4  1  0  0  0  0
  7  6  2  0  0  0  0
  7  8  1  0  0  0  0
  8  1  2  0  0  0  0
  9  8  1  0  0  0  0
 10  7  1  0  0  0  0
 11 20  1  0  0  0  0
 11 10  1  0  0  0  0
 12 11  2  0  0  0  0
 13 12  1  0  0  0  0
 14 16  2  0  0  0  0
 14 12  1  0  0  0  0
 15 14  1  0  0  0  0
 16 18  1  0  0  0  0
 17 16  1  0  0  0  0
 18 19  1  0  0  0  0
 18 20  2  0  0  0  0
 20 21  1  0  0  0  0
 21 22  1  0  0  0  0
 21  6  1  0  0  0  0
 23 24  1  0  0  0  0
 23 29  1  0  0  0  0
 24 30  1  0  0  0  0
 25 31  1  0  0  0  0
 25 24  2  0  0  0  0
 26 27  2  0  0  0  0
 26 25  1  0  0  0  0
 27 28  1  0  0  0  0
 28 23  2  0  0  0  0
 31 34  1  0  0  0  0
 32 31  1  0  0  0  0
 33 31  1  0  0  0  0
M  END
>  <minimizedAffinity>
-5.38880539

$$$$

 OpenBabel03242510363D

 34 37  0  0  0  0  0  0  0  0999 V2000
   39.1960   29.1220   41.0720 C   0  0  0  0  0  0  0  0  0  0  0  0
   39.1060   29.6340   42.3480 C   0  0  0  0  0  0  0  0  0  0  0  0
   38.3820   29.2460   43.0220 H   0  0  0  0  0  0  0  0  0  0  0  0
   39.9750   30.6480   42.6960 C   0  0  0  0  0  0  0  0  0  0  0  0
   39.8500   31.0110   43.7290 H   0  0  0  0  0  0  0  0  0  0  0  0
   40.9360   31.2000   41.8770 C   0  0  0  0  0  0  0  0  0  0  0  0
   40.9720   30.6430   40.6210 C   0  0  0  0  0  0  0  0  0  0  0  0
   40.1410   29.6510   40.2390 C   0  0  0  0  0  0  0  0  0  0  0  0
   40.1980   29.2290   39.2230 H   0  0  0  0  0  0  0  0  0  0  0  0
   42.1730   31.2710   39.4610 S   0  0  0  0  0  0  0  0  0  0  0  0
   43.0680   32.5360   40.2960 C   0  0  0  0  0  0  0  0  0  0  0  0
   44.0740   33.2270   39.6760 C   0  0  0  0  0  0  0  0  0  0  0  0
   44.3150   32.9720   38.6330 H   0  0  0  0  0  0  0  0  0  0  0  0
   44.8190   34.2300   40.2600 C   0  0  0  0  0  0  0  0  0  0  0  0
   45.5940   34.7160   39.6840 H   0  0  0  0  0  0  0  0  0  0  0  0
   44.4920   34.5340   41.5810 C   0  0  0  0  0  0  0  0  0  0  0  0
   45.0500   35.3080   42.0730 H   0  0  0  0  0  0  0  0  0  0  0  0
   43.4840   33.8370   42.1930 C   0  0  0  0  0  0  0  0  0  0  0  0
   43.2970   34.1440   43.2340 H   0  0  0  0  0  0  0  0  0  0  0  0
   42.7470   32.8360   41.5950 C   0  0  0  0  0  0  0  0  0  0  0  0
   41.7520   32.2350   42.3850 N   0  0  0  0  0  0  0  0  0  0  0  0
   41.5900   32.5400   43.3670 H   0  0  0  0  0  0  0  0  0  0  0  0
   36.7080   27.2560   39.1620 C   0  0  0  0  0  0  0  0  0  0  0  0
   36.6030   26.0280   39.8620 C   0  0  0  0  0  0  0  0  0  0  0  0
   37.4080   25.8750   40.9930 C   0  0  0  0  0  0  0  0  0  0  0  0
   38.2290   26.8950   41.3500 N   0  0  0  0  0  0  0  0  0  0  0  0
   38.2990   28.0490   40.6550 C   0  0  0  0  0  0  0  0  0  0  0  0
   37.5410   28.2300   39.5660 N   0  0  0  0  0  0  0  0  0  0  0  0
   36.0850   27.3770   38.2860 H   0  0  0  0  0  0  0  0  0  0  0  0
   35.9030   25.2840   39.4730 H   0  0  0  0  0  0  0  0  0  0  0  0
   37.2750   24.6000   41.6880 C   0  0  0  0  0  0  0  0  0  0  0  0
   36.3030   24.7190   42.6680 F   0  0  0  0  0  0  0  0  0  0  0  0
   38.4650   24.3780   42.3540 F   0  0  0  0  0  0  0  0  0  0  0  0
   36.9370   23.5570   40.8660 F   0  0  0  0  0  0  0  0  0  0  0  0
  1  2  1  0  0  0  0
  2  4  2  0  0  0  0
  2  3  1  0  0  0  0
  4  5  1  0  0  0  0
  6 21  1  0  0  0  0
  6  4  1  0  0  0  0
  7  6  2  0  0  0  0
  8  7  1  0  0  0  0
  8  1  2  0  0  0  0
  9  8  1  0  0  0  0
 10 11  1  0  0  0  0
 10  7  1  0  0  0  0
 11 20  1  0  0  0  0
 12 14  1  0  0  0  0
 12 11  2  0  0  0  0
 13 12  1  0  0  0  0
 14 16  2  0  0  0  0
 15 14  1  0  0  0  0
 16 17  1  0  0  0  0
 16 18  1  0  0  0  0
 18 19  1  0  0  0  0
 20 18  2  0  0  0  0
 20 21  1  0  0  0  0
 21 22  1  0  0  0  0
 23 28  2  0  0  0  0
 23 24  1  0  0  0  0
 24 25  2  0  0  0  0
 25 26  1  0  0  0  0
 25 31  1  0  0  0  0
 27  1  1  0  0  0  0
 27 26  2  0  0  0  0
 28 27  1  0  0  0  0
 29 23  1  0  0  0  0
 30 24  1  0  0  0  0
 31 33  1  0  0  0  0
 31 32  1  0  0  0  0
 34 31  1  0  0  0  0
M  END
>  <minimizedAffinity>
-5.36378241

$$$$

 OpenBabel03242510363D

 34 37  0  0  0  0  0  0  0  0999 V2000
   37.3820   27.1830   40.5350 C   0  0  0  0  0  0  0  0  0  0  0  0
   36.2110   27.8870   40.7150 C   0  0  0  0  0  0  0  0  0  0  0  0
   35.2970   27.3630   40.8520 H   0  0  0  0  0  0  0  0  0  0  0  0
   36.2820   29.2650   40.7070 C   0  0  0  0  0  0  0  0  0  0  0  0
   35.3110   29.7640   40.8570 H   0  0  0  0  0  0  0  0  0  0  0  0
   37.4290   30.0110   40.5350 C   0  0  0  0  0  0  0  0  0  0  0  0
   38.5580   29.2480   40.3620 C   0  0  0  0  0  0  0  0  0  0  0  0
   38.5340   27.8980   40.3620 C   0  0  0  0  0  0  0  0  0  0  0  0
   39.4600   27.3180   40.2190 H   0  0  0  0  0  0  0  0  0  0  0  0
   40.1110   30.0920   40.1270 S   0  0  0  0  0  0  0  0  0  0  0  0
   39.7620   31.8170   40.1860 C   0  0  0  0  0  0  0  0  0  0  0  0
   40.7510   32.7510   40.0380 C   0  0  0  0  0  0  0  0  0  0  0  0
   41.7810   32.3990   39.8800 H   0  0  0  0  0  0  0  0  0  0  0  0
   40.5580   34.1170   40.0710 C   0  0  0  0  0  0  0  0  0  0  0  0
   41.4080   34.7730   39.9430 H   0  0  0  0  0  0  0  0  0  0  0  0
   39.2440   34.5360   40.2710 C   0  0  0  0  0  0  0  0  0  0  0  0
   39.0520   35.5920   40.3040 H   0  0  0  0  0  0  0  0  0  0  0  0
   38.2610   33.5930   40.4180 C   0  0  0  0  0  0  0  0  0  0  0  0
   37.2560   34.0170   40.5730 H   0  0  0  0  0  0  0  0  0  0  0  0
   38.4690   32.2300   40.3830 C   0  0  0  0  0  0  0  0  0  0  0  0
   37.3340   31.4200   40.5530 N   0  0  0  0  0  0  0  0  0  0  0  0
   36.3930   31.8390   40.6980 H   0  0  0  0  0  0  0  0  0  0  0  0
   38.3870   23.7200   41.0990 C   0  0  0  0  0  0  0  0  0  0  0  0
   37.3240   22.9690   40.5360 C   0  0  0  0  0  0  0  0  0  0  0  0
   36.2720   23.6910   39.9680 C   0  0  0  0  0  0  0  0  0  0  0  0
   36.3290   25.0480   39.9870 N   0  0  0  0  0  0  0  0  0  0  0  0
   37.3600   25.7240   40.5340 C   0  0  0  0  0  0  0  0  0  0  0  0
   38.3850   25.0640   41.0870 N   0  0  0  0  0  0  0  0  0  0  0  0
   39.2020   23.1630   41.5390 H   0  0  0  0  0  0  0  0  0  0  0  0
   37.3960   21.8800   40.5830 H   0  0  0  0  0  0  0  0  0  0  0  0
   35.1970   22.8880   39.3990 C   0  0  0  0  0  0  0  0  0  0  0  0
   35.6210   21.5740   39.2930 F   0  0  0  0  0  0  0  0  0  0  0  0
   35.0020   23.3340   38.1060 F   0  0  0  0  0  0  0  0  0  0  0  0
   34.0420   22.9130   40.1360 F   0  0  0  0  0  0  0  0  0  0  0  0
  1  2  1  0  0  0  0
  2  3  1  0  0  0  0
  4  2  2  0  0  0  0
  4  5  1  0  0  0  0
  6 21  1  0  0  0  0
  6  4  1  0  0  0  0
  7  6  2  0  0  0  0
  8  7  1  0  0  0  0
  8  1  2  0  0  0  0
  9  8  1  0  0  0  0
 10 11  1  0  0  0  0
 10  7  1  0  0  0  0
 11 20  1  0  0  0  0
 12 14  1  0  0  0  0
 12 11  2  0  0  0  0
 13 12  1  0  0  0  0
 14 16  2  0  0  0  0
 15 14  1  0  0  0  0
 16 17  1  0  0  0  0
 16 18  1  0  0  0  0
 18 19  1  0  0  0  0
 20 18  2  0  0  0  0
 20 21  1  0  0  0  0
 21 22  1  0  0  0  0
 23 29  1  0  0  0  0
 24 30  1  0  0  0  0
 24 23  2  0  0  0  0
 25 26  2  0  0  0  0
 25 24  1  0  0  0  0
 26 27  1  0  0  0  0
 27  1  1  0  0  0  0
 27 28  2  0  0  0  0
 28 23  1  0  0  0  0
 31 25  1  0  0  0  0
 31 34  1  0  0  0  0
 32 31  1  0  0  0  0
 33 31  1  0  0  0  0
M  END
>  <minimizedAffinity>
-5.34439468

$$$$

 OpenBabel03242510363D

 34 37  0  0  0  0  0  0  0  0999 V2000
   38.3110   30.8270   39.4390 C   0  0  0  0  0  0  0  0  0  0  0  0
   37.2200   30.7400   38.6010 C   0  0  0  0  0  0  0  0  0  0  0  0
   36.8790   31.6050   38.0870 H   0  0  0  0  0  0  0  0  0  0  0  0
   36.6090   29.5100   38.4690 C   0  0  0  0  0  0  0  0  0  0  0  0
   35.7450   29.5100   37.7860 H   0  0  0  0  0  0  0  0  0  0  0  0
   36.9940   28.3480   39.1040 C   0  0  0  0  0  0  0  0  0  0  0  0
   38.0870   28.5050   39.9220 C   0  0  0  0  0  0  0  0  0  0  0  0
   38.7140   29.6900   40.0810 C   0  0  0  0  0  0  0  0  0  0  0  0
   39.5870   29.7800   40.7450 H   0  0  0  0  0  0  0  0  0  0  0  0
   38.6860   27.0760   40.8030 S   0  0  0  0  0  0  0  0  0  0  0  0
   37.6390   25.7320   40.3570 C   0  0  0  0  0  0  0  0  0  0  0  0
   37.8330   24.4770   40.8670 C   0  0  0  0  0  0  0  0  0  0  0  0
   38.6650   24.3220   41.5690 H   0  0  0  0  0  0  0  0  0  0  0  0
   37.0580   23.3750   40.5680 C   0  0  0  0  0  0  0  0  0  0  0  0
   37.2930   22.4240   41.0250 H   0  0  0  0  0  0  0  0  0  0  0  0
   36.0090   23.5990   39.6760 C   0  0  0  0  0  0  0  0  0  0  0  0
   35.3830   22.7670   39.4170 H   0  0  0  0  0  0  0  0  0  0  0  0
   35.8240   24.8590   39.1710 C   0  0  0  0  0  0  0  0  0  0  0  0
   34.9740   24.9400   38.4760 H   0  0  0  0  0  0  0  0  0  0  0  0
   36.6080   25.9510   39.4800 C   0  0  0  0  0  0  0  0  0  0  0  0
   36.2610   27.1640   38.8610 N   0  0  0  0  0  0  0  0  0  0  0  0
   35.4540   27.2210   38.2070 H   0  0  0  0  0  0  0  0  0  0  0  0
   38.9590   34.2810   40.4250 C   0  0  0  0  0  0  0  0  0  0  0  0
   40.2720   34.5230   39.9470 C   0  0  0  0  0  0  0  0  0  0  0  0
   40.9080   33.4690   39.2870 C   0  0  0  0  0  0  0  0  0  0  0  0
   40.2420   32.2950   39.1430 N   0  0  0  0  0  0  0  0  0  0  0  0
   38.9910   32.1060   39.6140 C   0  0  0  0  0  0  0  0  0  0  0  0
   38.3520   33.0940   40.2510 N   0  0  0  0  0  0  0  0  0  0  0  0
   38.4650   35.0960   40.9360 H   0  0  0  0  0  0  0  0  0  0  0  0
   40.6990   35.5120   40.1260 H   0  0  0  0  0  0  0  0  0  0  0  0
   42.2550   33.7520   38.8090 C   0  0  0  0  0  0  0  0  0  0  0  0
   42.9130   34.5330   39.7440 F   0  0  0  0  0  0  0  0  0  0  0  0
   42.1260   34.5360   37.6780 F   0  0  0  0  0  0  0  0  0  0  0  0
   43.0050   32.6290   38.5780 F   0  0  0  0  0  0  0  0  0  0  0  0
  1 27  1  0  0  0  0
  1  8  1  0  0  0  0
  2  1  2  0  0  0  0
  3  2  1  0  0  0  0
  4  2  1  0  0  0  0
  4  6  2  0  0  0  0
  5  4  1  0  0  0  0
  6  7  1  0  0  0  0
  7  8  2  0  0  0  0
  7 10  1  0  0  0  0
  8  9  1  0  0  0  0
 11 10  1  0  0  0  0
 11 12  1  0  0  0  0
 12 13  1  0  0  0  0
 14 12  2  0  0  0  0
 14 15  1  0  0  0  0
 16 14  1  0  0  0  0
 17 16  1  0  0  0  0
 18 20  1  0  0  0  0
 18 16  2  0  0  0  0
 19 18  1  0  0  0  0
 20 11  2  0  0  0  0
 21  6  1  0  0  0  0
 21 20  1  0  0  0  0
 22 21  1  0  0  0  0
 23 29  1  0  0  0  0
 24 30  1  0  0  0  0
 24 23  2  0  0  0  0
 25 24  1  0  0  0  0
 26 25  2  0  0  0  0
 26 27  1  0  0  0  0
 27 28  2  0  0  0  0
 28 23  1  0  0  0  0
 31 25  1  0  0  0  0
 31 32  1  0  0  0  0
 33 31  1  0  0  0  0
 34 31  1  0  0  0  0
M  END
>  <minimizedAffinity>
-5.31639433

$$$$

 OpenBabel03242510363D

 34 37  0  0  0  0  0  0  0  0999 V2000
   37.4660   31.4520   39.0160 C   0  0  0  0  0  0  0  0  0  0  0  0
   36.6650   30.9190   40.0030 C   0  0  0  0  0  0  0  0  0  0  0  0
   36.7380   31.2860   40.9970 H   0  0  0  0  0  0  0  0  0  0  0  0
   35.7910   29.9130   39.6460 C   0  0  0  0  0  0  0  0  0  0  0  0
   35.1810   29.5320   40.4810 H   0  0  0  0  0  0  0  0  0  0  0  0
   35.6420   29.3870   38.3800 C   0  0  0  0  0  0  0  0  0  0  0  0
   36.4690   29.9640   37.4460 C   0  0  0  0  0  0  0  0  0  0  0  0
   37.3390   30.9500   37.7520 C   0  0  0  0  0  0  0  0  0  0  0  0
   37.9870   31.3880   36.9770 H   0  0  0  0  0  0  0  0  0  0  0  0
   36.3760   29.3720   35.7660 S   0  0  0  0  0  0  0  0  0  0  0  0
   35.1520   28.1070   35.7430 C   0  0  0  0  0  0  0  0  0  0  0  0
   34.8350   27.4410   34.5910 C   0  0  0  0  0  0  0  0  0  0  0  0
   35.3660   27.7160   33.6670 H   0  0  0  0  0  0  0  0  0  0  0  0
   33.8910   26.4400   34.4920 C   0  0  0  0  0  0  0  0  0  0  0  0
   33.7130   25.9750   33.5320 H   0  0  0  0  0  0  0  0  0  0  0  0
   33.2330   26.1120   35.6760 C   0  0  0  0  0  0  0  0  0  0  0  0
   32.4900   25.3370   35.6410 H   0  0  0  0  0  0  0  0  0  0  0  0
   33.5570   26.7840   36.8250 C   0  0  0  0  0  0  0  0  0  0  0  0
   32.9870   26.4580   37.7090 H   0  0  0  0  0  0  0  0  0  0  0  0
   34.5040   27.7830   36.9080 C   0  0  0  0  0  0  0  0  0  0  0  0
   34.6980   28.3560   38.1760 N   0  0  0  0  0  0  0  0  0  0  0  0
   34.1500   28.0350   39.0000 H   0  0  0  0  0  0  0  0  0  0  0  0
   38.8520   34.5090   40.4500 C   0  0  0  0  0  0  0  0  0  0  0  0
   40.1840   34.5320   39.9630 C   0  0  0  0  0  0  0  0  0  0  0  0
   40.5730   33.4730   39.1400 C   0  0  0  0  0  0  0  0  0  0  0  0
   39.6680   32.5000   38.8580 N   0  0  0  0  0  0  0  0  0  0  0  0
   38.4090   32.5170   39.3420 C   0  0  0  0  0  0  0  0  0  0  0  0
   38.0020   33.5170   40.1340 N   0  0  0  0  0  0  0  0  0  0  0  0
   38.5480   35.3280   41.0870 H   0  0  0  0  0  0  0  0  0  0  0  0
   40.8150   35.3710   40.2620 H   0  0  0  0  0  0  0  0  0  0  0  0
   41.9470   33.5270   38.6580 C   0  0  0  0  0  0  0  0  0  0  0  0
   42.0270   34.4410   37.6210 F   0  0  0  0  0  0  0  0  0  0  0  0
   42.2300   32.2940   38.1030 F   0  0  0  0  0  0  0  0  0  0  0  0
   42.8550   33.8830   39.6200 F   0  0  0  0  0  0  0  0  0  0  0  0
  1 27  1  0  0  0  0
  1  2  1  0  0  0  0
  2  3  1  0  0  0  0
  4  2  2  0  0  0  0
  4  5  1  0  0  0  0
  6  4  1  0  0  0  0
  7  8  1  0  0  0  0
  7  6  2  0  0  0  0
  8  1  2  0  0  0  0
  9  8  1  0  0  0  0
 10  7  1  0  0  0  0
 11 10  1  0  0  0  0
 11 20  1  0  0  0  0
 12 11  2  0  0  0  0
 13 12  1  0  0  0  0
 14 12  1  0  0  0  0
 14 16  2  0  0  0  0
 15 14  1  0  0  0  0
 16 18  1  0  0  0  0
 17 16  1  0  0  0  0
 18 20  2  0  0  0  0
 18 19  1  0  0  0  0
 20 21  1  0  0  0  0
 21  6  1  0  0  0  0
 21 22  1  0  0  0  0
 23 29  1  0  0  0  0
 24 30  1  0  0  0  0
 24 23  2  0  0  0  0
 25 24  1  0  0  0  0
 26 25  2  0  0  0  0
 26 27  1  0  0  0  0
 27 28  2  0  0  0  0
 28 23  1  0  0  0  0
 31 25  1  0  0  0  0
 31 34  1  0  0  0  0
 32 31  1  0  0  0  0
 33 31  1  0  0  0  0
M  END
>  <minimizedAffinity>
-5.31172466

$$$$
