
 OpenBabel03252500093D

 44 48  0  0  0  0  0  0  0  0999 V2000
   45.7120   32.2610   39.8340 Cl  0  0  0  0  0  0  0  0  0  0  0  0
   46.9420   33.3760   39.3660 C   0  0  0  0  0  0  0  0  0  0  0  0
   47.5600   34.1880   40.2810 C   0  0  0  0  0  0  0  0  0  0  0  0
   48.5540   35.0940   39.9310 C   0  0  0  0  0  0  0  0  0  0  0  0
   48.8910   35.1350   38.5960 C   0  0  0  0  0  0  0  0  0  0  0  0
   48.2760   34.3260   37.6660 C   0  0  0  0  0  0  0  0  0  0  0  0
   47.3060   33.4460   38.0390 C   0  0  0  0  0  0  0  0  0  0  0  0
   49.0360   35.7320   40.6690 H   0  0  0  0  0  0  0  0  0  0  0  0
   49.6710   35.8510   38.3390 H   0  0  0  0  0  0  0  0  0  0  0  0
   48.6080   34.4290   36.6350 H   0  0  0  0  0  0  0  0  0  0  0  0
   46.7200   32.6360   36.9780 C   0  0  0  0  0  0  0  0  0  0  0  0
   45.5290   33.0660   36.4290 C   0  0  0  0  0  0  0  0  0  0  0  0
   45.0660   33.9740   36.7880 H   0  0  0  0  0  0  0  0  0  0  0  0
   44.9680   32.3110   35.4280 C   0  0  0  0  0  0  0  0  0  0  0  0
   44.0200   32.7120   35.0350 H   0  0  0  0  0  0  0  0  0  0  0  0
   45.4880   31.1450   34.9090 C   0  0  0  0  0  0  0  0  0  0  0  0
   46.6710   30.7690   35.4950 C   0  0  0  0  0  0  0  0  0  0  0  0
   47.2770   31.4720   36.4880 C   0  0  0  0  0  0  0  0  0  0  0  0
   48.2120   31.1330   36.9180 H   0  0  0  0  0  0  0  0  0  0  0  0
   47.4650   29.2790   34.9280 S   0  0  0  0  0  0  0  0  0  0  0  0
   46.4330   28.6070   33.6440 C   0  0  0  0  0  0  0  0  0  0  0  0
   46.7660   27.4670   33.0070 C   0  0  0  0  0  0  0  0  0  0  0  0
   47.6920   26.9370   33.2820 H   0  0  0  0  0  0  0  0  0  0  0  0
   46.0130   26.8850   31.9970 C   0  0  0  0  0  0  0  0  0  0  0  0
   46.2550   25.9730   31.4690 H   0  0  0  0  0  0  0  0  0  0  0  0
   44.8460   27.5610   31.6560 C   0  0  0  0  0  0  0  0  0  0  0  0
   44.2260   27.1500   30.8780 H   0  0  0  0  0  0  0  0  0  0  0  0
   44.5280   28.7220   32.3200 C   0  0  0  0  0  0  0  0  0  0  0  0
   43.5870   29.1840   31.9820 H   0  0  0  0  0  0  0  0  0  0  0  0
   45.3010   29.2720   33.3200 C   0  0  0  0  0  0  0  0  0  0  0  0
   44.7980   30.4710   33.8740 N   0  0  0  0  0  0  0  0  0  0  0  0
   43.9070   30.9010   33.5480 H   0  0  0  0  0  0  0  0  0  0  0  0
   47.3210   33.0640   43.7940 C   0  0  0  0  0  0  0  0  0  0  0  0
   46.3630   33.9440   44.3290 C   0  0  0  0  0  0  0  0  0  0  0  0
   45.8180   34.9010   43.4850 C   0  0  0  0  0  0  0  0  0  0  0  0
   46.2270   34.9510   42.1850 N   0  0  0  0  0  0  0  0  0  0  0  0
   47.1550   34.0920   41.6870 C   0  0  0  0  0  0  0  0  0  0  0  0
   47.6970   33.1510   42.5000 N   0  0  0  0  0  0  0  0  0  0  0  0
   47.7530   32.3150   44.4420 H   0  0  0  0  0  0  0  0  0  0  0  0
   46.0380   33.9050   45.3620 H   0  0  0  0  0  0  0  0  0  0  0  0
   44.7900   35.8930   43.9390 C   0  0  0  0  0  0  0  0  0  0  0  0
   45.1490   37.1630   43.6040 F   0  0  0  0  0  0  0  0  0  0  0  0
   43.5820   35.5930   43.3120 F   0  0  0  0  0  0  0  0  0  0  0  0
   44.6550   35.7380   45.2900 F   0  0  0  0  0  0  0  0  0  0  0  0
  2  1  1  0  0  0  0
  2  3  1  0  0  0  0
  3 37  1  0  0  0  0
  4  3  2  0  0  0  0
  4  8  1  0  0  0  0
  5  4  1  0  0  0  0
  6  7  1  0  0  0  0
  6  5  2  0  0  0  0
  7  2  2  0  0  0  0
  9  5  1  0  0  0  0
 10  6  1  0  0  0  0
 11  7  1  0  0  0  0
 12 13  1  0  0  0  0
 12 11  2  0  0  0  0
 14 12  1  0  0  0  0
 15 14  1  0  0  0  0
 16 14  2  0  0  0  0
 16 17  1  0  0  0  0
 17 18  2  0  0  0  0
 18 19  1  0  0  0  0
 18 11  1  0  0  0  0
 20 17  1  0  0  0  0
 21 20  1  0  0  0  0
 22 23  1  0  0  0  0
 22 21  2  0  0  0  0
 24 22  1  0  0  0  0
 25 24  1  0  0  0  0
 26 24  2  0  0  0  0
 26 28  1  0  0  0  0
 27 26  1  0  0  0  0
 28 30  2  0  0  0  0
 29 28  1  0  0  0  0
 30 21  1  0  0  0  0
 30 31  1  0  0  0  0
 31 16  1  0  0  0  0
 32 31  1  0  0  0  0
 33 34  1  0  0  0  0
 33 39  1  0  0  0  0
 34 40  1  0  0  0  0
 35 41  1  0  0  0  0
 35 34  2  0  0  0  0
 36 35  1  0  0  0  0
 37 36  2  0  0  0  0
 37 38  1  0  0  0  0
 38 33  2  0  0  0  0
 41 44  1  0  0  0  0
 42 41  1  0  0  0  0
 43 41  1  0  0  0  0
M  END
>  <minimizedAffinity>
-6.37107515

>  <minimizedRMSD>
2.0171814

$$$$
