
 OpenBabel03252500093D

 44 48  0  0  0  0  0  0  0  0999 V2000
   44.6420   32.2260   40.0800 Cl  0  0  0  0  0  0  0  0  0  0  0  0
   45.9120   32.9360   39.1540 C   0  0  0  0  0  0  0  0  0  0  0  0
   46.9070   33.6700   39.7460 C   0  0  0  0  0  0  0  0  0  0  0  0
   47.9420   34.2510   39.0240 C   0  0  0  0  0  0  0  0  0  0  0  0
   47.9170   34.0490   37.6620 C   0  0  0  0  0  0  0  0  0  0  0  0
   46.9220   33.3140   37.0540 C   0  0  0  0  0  0  0  0  0  0  0  0
   45.9200   32.7550   37.7890 C   0  0  0  0  0  0  0  0  0  0  0  0
   48.7260   34.8320   39.5080 H   0  0  0  0  0  0  0  0  0  0  0  0
   48.7350   34.5120   37.1110 H   0  0  0  0  0  0  0  0  0  0  0  0
   46.9850   33.2090   35.9740 H   0  0  0  0  0  0  0  0  0  0  0  0
   44.9180   31.9970   37.0490 C   0  0  0  0  0  0  0  0  0  0  0  0
   45.2710   31.5210   35.8030 C   0  0  0  0  0  0  0  0  0  0  0  0
   46.2570   31.7140   35.4100 H   0  0  0  0  0  0  0  0  0  0  0  0
   44.3360   30.8040   35.0970 C   0  0  0  0  0  0  0  0  0  0  0  0
   44.6820   30.4540   34.1110 H   0  0  0  0  0  0  0  0  0  0  0  0
   43.0560   30.5090   35.5180 C   0  0  0  0  0  0  0  0  0  0  0  0
   42.7660   31.0090   36.7640 C   0  0  0  0  0  0  0  0  0  0  0  0
   43.6470   31.7240   37.5120 C   0  0  0  0  0  0  0  0  0  0  0  0
   43.3700   32.0990   38.4920 H   0  0  0  0  0  0  0  0  0  0  0  0
   41.1490   30.7100   37.4460 S   0  0  0  0  0  0  0  0  0  0  0  0
   40.2540   29.7610   36.2360 C   0  0  0  0  0  0  0  0  0  0  0  0
   38.9830   29.3700   36.4580 C   0  0  0  0  0  0  0  0  0  0  0  0
   38.4840   29.6400   37.4020 H   0  0  0  0  0  0  0  0  0  0  0  0
   38.2220   28.6300   35.5630 C   0  0  0  0  0  0  0  0  0  0  0  0
   37.2030   28.3030   35.7130 H   0  0  0  0  0  0  0  0  0  0  0  0
   38.8600   28.2940   34.3740 C   0  0  0  0  0  0  0  0  0  0  0  0
   38.3130   27.7190   33.6450 H   0  0  0  0  0  0  0  0  0  0  0  0
   40.1560   28.7030   34.1700 C   0  0  0  0  0  0  0  0  0  0  0  0
   40.5750   28.3900   33.2010 H   0  0  0  0  0  0  0  0  0  0  0  0
   40.8810   29.4380   35.0820 C   0  0  0  0  0  0  0  0  0  0  0  0
   42.1990   29.7580   34.6810 N   0  0  0  0  0  0  0  0  0  0  0  0
   42.5870   29.4590   33.7630 H   0  0  0  0  0  0  0  0  0  0  0  0
   47.6760   33.2950   43.3420 C   0  0  0  0  0  0  0  0  0  0  0  0
   46.7840   34.2040   43.9390 C   0  0  0  0  0  0  0  0  0  0  0  0
   45.9390   34.9250   43.1060 C   0  0  0  0  0  0  0  0  0  0  0  0
   46.0050   34.7280   41.7590 N   0  0  0  0  0  0  0  0  0  0  0  0
   46.8750   33.8450   41.2010 C   0  0  0  0  0  0  0  0  0  0  0  0
   47.7070   33.1330   42.0010 N   0  0  0  0  0  0  0  0  0  0  0  0
   48.3380   32.7290   43.9800 H   0  0  0  0  0  0  0  0  0  0  0  0
   46.7300   34.3620   45.0090 H   0  0  0  0  0  0  0  0  0  0  0  0
   44.9460   35.9230   43.6250 C   0  0  0  0  0  0  0  0  0  0  0  0
   45.2760   37.1880   43.2460 F   0  0  0  0  0  0  0  0  0  0  0  0
   43.6950   35.6130   43.0950 F   0  0  0  0  0  0  0  0  0  0  0  0
   44.9150   35.7850   44.9840 F   0  0  0  0  0  0  0  0  0  0  0  0
  2  3  1  0  0  0  0
  2  1  1  0  0  0  0
  3 37  1  0  0  0  0
  4  8  1  0  0  0  0
  4  3  2  0  0  0  0
  5  4  1  0  0  0  0
  6  5  2  0  0  0  0
  6  7  1  0  0  0  0
  7  2  2  0  0  0  0
  9  5  1  0  0  0  0
 10  6  1  0  0  0  0
 11 18  1  0  0  0  0
 11  7  1  0  0  0  0
 12 11  2  0  0  0  0
 13 12  1  0  0  0  0
 14 16  2  0  0  0  0
 14 12  1  0  0  0  0
 15 14  1  0  0  0  0
 16 17  1  0  0  0  0
 17 20  1  0  0  0  0
 17 18  2  0  0  0  0
 18 19  1  0  0  0  0
 21 22  1  0  0  0  0
 21 20  1  0  0  0  0
 22 23  1  0  0  0  0
 24 25  1  0  0  0  0
 24 22  2  0  0  0  0
 26 24  1  0  0  0  0
 27 26  1  0  0  0  0
 28 26  2  0  0  0  0
 28 30  1  0  0  0  0
 29 28  1  0  0  0  0
 30 21  2  0  0  0  0
 31 30  1  0  0  0  0
 31 16  1  0  0  0  0
 32 31  1  0  0  0  0
 33 34  1  0  0  0  0
 33 39  1  0  0  0  0
 34 40  1  0  0  0  0
 35 41  1  0  0  0  0
 35 34  2  0  0  0  0
 36 35  1  0  0  0  0
 37 36  2  0  0  0  0
 37 38  1  0  0  0  0
 38 33  2  0  0  0  0
 41 44  1  0  0  0  0
 42 41  1  0  0  0  0
 43 41  1  0  0  0  0
M  END
>  <minimizedAffinity>
-6.47957802

>  <minimizedRMSD>
1.04082918

$$$$
