
 OpenBabel03242523573D

 34 37  0  0  0  0  0  0  0  0999 V2000
   47.0370   33.9150   42.3050 C   0  0  0  0  0  0  0  0  0  0  0  0
   46.5810   34.2040   41.0350 C   0  0  0  0  0  0  0  0  0  0  0  0
   45.6540   34.7320   40.8660 H   0  0  0  0  0  0  0  0  0  0  0  0
   47.3580   33.7920   39.9520 C   0  0  0  0  0  0  0  0  0  0  0  0
   46.9460   34.0490   38.9660 H   0  0  0  0  0  0  0  0  0  0  0  0
   48.5520   33.1140   40.0660 C   0  0  0  0  0  0  0  0  0  0  0  0
   48.9520   32.8570   41.3540 C   0  0  0  0  0  0  0  0  0  0  0  0
   48.2210   33.2440   42.4200 C   0  0  0  0  0  0  0  0  0  0  0  0
   48.6000   33.0070   43.4060 H   0  0  0  0  0  0  0  0  0  0  0  0
   50.4880   31.9850   41.5850 S   0  0  0  0  0  0  0  0  0  0  0  0
   51.1330   31.6600   39.9710 C   0  0  0  0  0  0  0  0  0  0  0  0
   52.3240   30.9900   39.8630 C   0  0  0  0  0  0  0  0  0  0  0  0
   52.8460   30.6730   40.7650 H   0  0  0  0  0  0  0  0  0  0  0  0
   52.9030   30.6920   38.6510 C   0  0  0  0  0  0  0  0  0  0  0  0
   53.8260   30.1730   38.5950 H   0  0  0  0  0  0  0  0  0  0  0  0
   52.2230   31.1040   37.5240 C   0  0  0  0  0  0  0  0  0  0  0  0
   52.6350   30.8950   36.5460 H   0  0  0  0  0  0  0  0  0  0  0  0
   51.0270   31.7760   37.6690 C   0  0  0  0  0  0  0  0  0  0  0  0
   50.5470   32.0690   36.7220 H   0  0  0  0  0  0  0  0  0  0  0  0
   50.4260   32.0850   38.8730 C   0  0  0  0  0  0  0  0  0  0  0  0
   49.2070   32.7740   38.8700 N   0  0  0  0  0  0  0  0  0  0  0  0
   48.7930   33.0300   37.9480 H   0  0  0  0  0  0  0  0  0  0  0  0
   44.6600   35.7950   44.5440 C   0  0  0  0  0  0  0  0  0  0  0  0
   45.4110   35.4740   43.3760 C   0  0  0  0  0  0  0  0  0  0  0  0
   46.2200   34.3500   43.4320 C   0  0  0  0  0  0  0  0  0  0  0  0
   46.2600   33.6240   44.5640 N   0  0  0  0  0  0  0  0  0  0  0  0
   45.5350   33.9520   45.6600 C   0  0  0  0  0  0  0  0  0  0  0  0
   44.7370   35.0410   45.6420 N   0  0  0  0  0  0  0  0  0  0  0  0
   44.0340   36.6640   44.5040 H   0  0  0  0  0  0  0  0  0  0  0  0
   45.3560   36.0690   42.4990 H   0  0  0  0  0  0  0  0  0  0  0  0
   45.7150   33.0240   46.8090 C   0  0  0  0  0  0  0  0  0  0  0  0
   44.8310   33.2750   47.8150 F   0  0  0  0  0  0  0  0  0  0  0  0
   47.0130   33.0950   47.2840 F   0  0  0  0  0  0  0  0  0  0  0  0
   45.5740   31.7060   46.3530 F   0  0  0  0  0  0  0  0  0  0  0  0
  1  8  1  0  0  0  0
  1 25  1  0  0  0  0
  2  1  2  0  0  0  0
  3  2  1  0  0  0  0
  4  6  2  0  0  0  0
  4  2  1  0  0  0  0
  5  4  1  0  0  0  0
  6  7  1  0  0  0  0
  7 10  1  0  0  0  0
  7  8  2  0  0  0  0
  8  9  1  0  0  0  0
 11 10  1  0  0  0  0
 12 11  1  0  0  0  0
 12 13  1  0  0  0  0
 14 12  2  0  0  0  0
 15 14  1  0  0  0  0
 16 18  2  0  0  0  0
 16 14  1  0  0  0  0
 17 16  1  0  0  0  0
 18 20  1  0  0  0  0
 19 18  1  0  0  0  0
 20 11  2  0  0  0  0
 21 20  1  0  0  0  0
 21  6  1  0  0  0  0
 22 21  1  0  0  0  0
 23 28  1  0  0  0  0
 24 25  1  0  0  0  0
 24 23  2  0  0  0  0
 25 26  2  0  0  0  0
 26 27  1  0  0  0  0
 27 31  1  0  0  0  0
 28 27  2  0  0  0  0
 29 23  1  0  0  0  0
 30 24  1  0  0  0  0
 31 33  1  0  0  0  0
 31 32  1  0  0  0  0
 34 31  1  0  0  0  0
M  END
>  <minimizedAffinity>
-6.42226887

>  <minimizedRMSD>
1.01228476

$$$$
