
 OpenBabel03252501033D

 31 33  0  0  1  0  0  0  0  0999 V2000
   48.2070   35.6080   42.0500 C   0  0  1  0  0  0  0  0  0  0  0  0
   49.4770   34.8570   41.9270 C   0  0  0  0  0  0  0  0  0  0  0  0
   48.6030   35.1540   40.7160 C   0  0  1  0  0  0  0  0  0  0  0  0
   48.1750   36.6980   42.2260 H   0  0  0  0  0  0  0  0  0  0  0  0
   50.4090   35.4810   42.0290 H   0  0  0  0  0  0  0  0  0  0  0  0
   49.5810   33.7890   42.0940 H   0  0  0  0  0  0  0  0  0  0  0  0
   49.0470   35.9030   40.0290 H   0  0  0  0  0  0  0  0  0  0  0  0
   46.3010   33.0780   44.1130 C   0  0  0  0  0  0  0  0  0  0  0  0
   47.3730   33.7480   43.5200 C   0  0  0  0  0  0  0  0  0  0  0  0
   47.1000   34.8590   42.7120 C   0  0  0  0  0  0  0  0  0  0  0  0
   45.8030   35.2370   42.5390 N   0  0  0  0  0  0  0  0  0  0  0  0
   44.7760   34.5750   43.1230 C   0  0  0  0  0  0  0  0  0  0  0  0
   45.0320   33.4980   43.9070 N   0  0  0  0  0  0  0  0  0  0  0  0
   46.4140   32.2130   44.7510 H   0  0  0  0  0  0  0  0  0  0  0  0
   48.3530   33.3930   43.7040 H   0  0  0  0  0  0  0  0  0  0  0  0
   43.7680   34.9300   42.9430 H   0  0  0  0  0  0  0  0  0  0  0  0
   47.8640   34.2070   40.1170 O   0  0  0  0  0  0  0  0  0  0  0  0
   49.0620   32.5180   38.4630 O   0  0  0  0  0  0  0  0  0  0  0  0
   48.2140   33.7650   38.5770 P   0  0  2  0  0  0  0  0  0  0  0  0
   49.0220   34.9550   37.6890 O   0  0  0  0  0  0  0  0  0  0  0  0
   48.4610   35.4000   37.0330 H   0  0  0  0  0  0  0  0  0  0  0  0
   46.7840   33.4210   37.7480 O   0  0  0  0  0  0  0  0  0  0  0  0
   44.1050   32.2560   37.4520 Cl  0  0  0  0  0  0  0  0  0  0  0  0
   45.4480   32.1640   36.3240 C   0  0  0  0  0  0  0  0  0  0  0  0
   46.6860   32.7550   36.5600 C   0  0  0  0  0  0  0  0  0  0  0  0
   47.6360   32.5960   35.5830 C   0  0  0  0  0  0  0  0  0  0  0  0
   48.6010   33.0770   35.8060 H   0  0  0  0  0  0  0  0  0  0  0  0
   47.4000   31.8980   34.4330 C   0  0  0  0  0  0  0  0  0  0  0  0
   48.1840   31.8120   33.7130 H   0  0  0  0  0  0  0  0  0  0  0  0
   46.1740   31.3050   34.1840 C   0  0  0  0  0  0  0  0  0  0  0  0
   45.1890   31.4540   35.1660 C   0  0  0  0  0  0  0  0  0  0  0  0
  1  4  1  1  0  0  0
  1 10  1  0  0  0  0
  2  5  1  0  0  0  0
  2  1  1  0  0  0  0
  2  6  1  0  0  0  0
  3  7  1  6  0  0  0
  3  2  1  0  0  0  0
  3  1  1  0  0  0  0
  8 14  1  0  0  0  0
  9 15  1  0  0  0  0
  9  8  2  0  0  0  0
 10  9  1  0  0  0  0
 11 10  2  0  0  0  0
 11 12  1  0  0  0  0
 12 13  2  0  0  0  0
 13  8  1  0  0  0  0
 16 12  1  0  0  0  0
 17  3  1  0  0  0  0
 19 18  2  1  0  0  0
 19 17  1  0  0  0  0
 20 19  1  0  0  0  0
 21 20  1  0  0  0  0
 22 19  1  0  0  0  0
 24 25  1  0  0  0  0
 24 23  1  0  0  0  0
 25 22  1  0  0  0  0
 26 27  1  0  0  0  0
 26 25  2  0  0  0  0
 28 26  1  0  0  0  0
 29 28  1  0  0  0  0
 30 28  2  0  0  0  0
 30 31  1  0  0  0  0
 31 24  2  0  0  0  0
M  END
>  <minimizedAffinity>
-4.70658302

>  <minimizedRMSD>
0.78483057

$$$$
