
 OpenBabel03242517103D

 47 50  0  0  1  0  0  0  0  0999 V2000
   46.1770   33.6110   43.2050 C   0  0  2  0  0  0  0  0  0  0  0  0
   45.2260   34.3560   42.3400 C   0  0  2  0  0  0  0  0  0  0  0  0
   44.8810   35.6990   42.8770 C   0  0  0  0  0  0  0  0  0  0  0  0
   44.4270   35.7050   44.3100 C   0  0  0  0  0  0  0  0  0  0  0  0
   45.1120   34.6890   45.1770 C   0  0  0  0  0  0  0  0  0  0  0  0
   46.4160   34.2140   44.5630 C   0  0  0  0  0  0  0  0  0  0  0  0
   45.7520   32.5750   43.3820 H   0  0  0  0  0  0  0  0  0  0  0  0
   45.6970   34.5080   41.3470 H   0  0  0  0  0  0  0  0  0  0  0  0
   45.6720   36.4620   42.6730 H   0  0  0  0  0  0  0  0  0  0  0  0
   43.9860   36.0550   42.2880 H   0  0  0  0  0  0  0  0  0  0  0  0
   43.3380   35.5750   44.4260 H   0  0  0  0  0  0  0  0  0  0  0  0
   44.6540   36.7260   44.7170 H   0  0  0  0  0  0  0  0  0  0  0  0
   44.4600   33.7990   45.3050 H   0  0  0  0  0  0  0  0  0  0  0  0
   45.3690   35.1220   46.1730 H   0  0  0  0  0  0  0  0  0  0  0  0
   46.7580   33.3750   45.2450 H   0  0  0  0  0  0  0  0  0  0  0  0
   47.1830   34.9710   44.6380 H   0  0  0  0  0  0  0  0  0  0  0  0
   42.9420   34.2200   41.2770 C   0  0  1  0  0  0  0  0  0  0  0  0
   43.9760   33.5320   42.1130 C   0  0  1  0  0  0  0  0  0  0  0  0
   44.3460   32.3490   41.4910 O   0  0  0  0  0  0  0  0  0  0  0  0
   43.9840   32.4420   40.1380 C   0  0  0  0  0  0  0  0  0  0  0  0
   42.6090   33.1070   40.2570 C   0  0  2  0  0  0  0  0  0  0  0  0
   43.3650   35.0950   40.7880 H   0  0  0  0  0  0  0  0  0  0  0  0
   43.5320   33.2660   43.1020 H   0  0  0  0  0  0  0  0  0  0  0  0
   43.8900   31.4210   39.7280 H   0  0  0  0  0  0  0  0  0  0  0  0
   44.6240   33.1190   39.5680 H   0  0  0  0  0  0  0  0  0  0  0  0
   41.9590   32.3690   40.7520 H   0  0  0  0  0  0  0  0  0  0  0  0
   41.7810   34.5080   41.9730 O   0  0  0  0  0  0  0  0  0  0  0  0
   41.5730   33.7370   42.5800 H   0  0  0  0  0  0  0  0  0  0  0  0
   42.2090   33.6570   39.0810 O   0  0  0  0  0  0  0  0  0  0  0  0
   41.0880   36.1030   37.3850 Cl  0  0  0  0  0  0  0  0  0  0  0  0
   40.2410   34.6580   37.8240 C   0  0  0  0  0  0  0  0  0  0  0  0
   40.9770   33.7780   38.5600 C   0  0  0  0  0  0  0  0  0  0  0  0
   40.2800   32.6160   38.9070 C   0  0  0  0  0  0  0  0  0  0  0  0
   40.5920   31.7460   39.4790 H   0  0  0  0  0  0  0  0  0  0  0  0
   38.9530   32.3790   38.5370 C   0  0  0  0  0  0  0  0  0  0  0  0
   38.3340   31.5250   38.7540 H   0  0  0  0  0  0  0  0  0  0  0  0
   38.2600   33.3310   37.7810 C   0  0  0  0  0  0  0  0  0  0  0  0
   38.9370   34.4750   37.4350 C   0  0  0  0  0  0  0  0  0  0  0  0
   47.4820   33.3920   42.5560 C   0  0  0  0  0  0  0  0  0  0  0  0
   48.4640   34.3320   42.8760 C   0  0  0  0  0  0  0  0  0  0  0  0
   49.7500   34.2290   42.3250 C   0  0  0  0  0  0  0  0  0  0  0  0
   49.9480   33.1530   41.4660 N   0  0  0  0  0  0  0  0  0  0  0  0
   48.9690   32.2660   41.1810 C   0  0  0  0  0  0  0  0  0  0  0  0
   47.7270   32.3740   41.7210 N   0  0  0  0  0  0  0  0  0  0  0  0
   48.4590   35.2080   43.5030 H   0  0  0  0  0  0  0  0  0  0  0  0
   50.5850   34.8670   42.4800 H   0  0  0  0  0  0  0  0  0  0  0  0
   49.1750   31.4550   40.5130 H   0  0  0  0  0  0  0  0  0  0  0  0
  1  7  1  1  0  0  0
  1  6  1  0  0  0  0
  2  8  1  6  0  0  0
  2  3  1  0  0  0  0
  2  1  1  0  0  0  0
  3  4  1  0  0  0  0
  4 11  1  0  0  0  0
  4 12  1  0  0  0  0
  4  5  1  0  0  0  0
  5 13  1  0  0  0  0
  5 14  1  0  0  0  0
  6 16  1  0  0  0  0
  6  5  1  0  0  0  0
  6 15  1  0  0  0  0
  9  3  1  0  0  0  0
 10  3  1  0  0  0  0
 17 22  1  6  0  0  0
 17 27  1  0  0  0  0
 17 18  1  0  0  0  0
 18  2  1  0  0  0  0
 18 23  1  1  0  0  0
 19 18  1  0  0  0  0
 20 21  1  0  0  0  0
 20 19  1  0  0  0  0
 21 26  1  1  0  0  0
 21 17  1  0  0  0  0
 24 20  1  0  0  0  0
 25 20  1  0  0  0  0
 27 28  1  0  0  0  0
 29 21  1  0  0  0  0
 30 31  1  0  0  0  0
 31 32  1  0  0  0  0
 32 33  2  0  0  0  0
 32 29  1  0  0  0  0
 33 34  1  0  0  0  0
 35 36  1  0  0  0  0
 35 33  1  0  0  0  0
 37 35  2  0  0  0  0
 38 37  1  0  0  0  0
 38 31  2  0  0  0  0
 39 40  1  0  0  0  0
 39  1  1  0  0  0  0
 40 45  1  0  0  0  0
 41 46  1  0  0  0  0
 41 40  2  0  0  0  0
 42 41  1  0  0  0  0
 43 42  2  0  0  0  0
 43 44  1  0  0  0  0
 44 39  2  0  0  0  0
 47 43  1  0  0  0  0
M  END
>  <minimizedAffinity>
-6.60504484

>  <minimizedRMSD>
1.41181803

$$$$
