
 OpenBabel03242517433D

 19 20  0  0  0  0  0  0  0  0999 V2000
   38.2750   29.6550   39.7340 S   0  0  0  0  0  0  0  0  0  0  0  0
   37.3240   32.2500   39.4020 C   0  0  0  0  0  0  0  0  0  0  0  0
   38.3230   31.4430   39.9550 C   0  0  0  0  0  0  0  0  0  0  0  0
   39.3460   32.0430   40.6740 C   0  0  0  0  0  0  0  0  0  0  0  0
   39.3160   33.4060   40.8000 N   0  0  0  0  0  0  0  0  0  0  0  0
   38.3470   34.1500   40.2590 C   0  0  0  0  0  0  0  0  0  0  0  0
   37.3400   33.5890   39.5550 N   0  0  0  0  0  0  0  0  0  0  0  0
   36.5450   31.7130   38.8460 H   0  0  0  0  0  0  0  0  0  0  0  0
   40.0720   31.3710   41.0670 H   0  0  0  0  0  0  0  0  0  0  0  0
   38.3680   35.2290   40.3870 H   0  0  0  0  0  0  0  0  0  0  0  0
   35.4320   28.9110   40.6950 Cl  0  0  0  0  0  0  0  0  0  0  0  0
   36.8450   28.5070   41.6570 C   0  0  0  0  0  0  0  0  0  0  0  0
   38.1570   28.8150   41.2800 C   0  0  0  0  0  0  0  0  0  0  0  0
   39.1870   28.4410   42.1260 C   0  0  0  0  0  0  0  0  0  0  0  0
   40.1550   28.7300   41.7340 H   0  0  0  0  0  0  0  0  0  0  0  0
   38.9450   27.7880   43.3050 C   0  0  0  0  0  0  0  0  0  0  0  0
   39.8180   27.5270   43.9210 H   0  0  0  0  0  0  0  0  0  0  0  0
   37.6460   27.4840   43.6770 C   0  0  0  0  0  3  0  0  0  0  0  0
   36.5740   27.8410   42.8560 C   0  0  0  0  0  3  0  0  0  0  0  0
  1  3  1  0  0  0  0
  1 13  1  0  0  0  0
  2  7  2  0  0  0  0
  2  3  1  0  0  0  0
  3  4  2  0  0  0  0
  4  5  1  0  0  0  0
  4  9  1  0  0  0  0
  6 10  1  0  0  0  0
  6  5  2  0  0  0  0
  7  6  1  0  0  0  0
  8  2  1  0  0  0  0
 11 12  1  0  0  0  0
 12 19  1  0  0  0  0
 13 12  2  0  0  0  0
 13 14  1  0  0  0  0
 14 16  2  0  0  0  0
 15 14  1  0  0  0  0
 16 18  1  0  0  0  0
 16 17  1  0  0  0  0
 19 18  2  0  0  0  0
M  END
>  <minimizedAffinity>
-4.32783222

$$$$

 OpenBabel03242517433D

 19 20  0  0  0  0  0  0  0  0999 V2000
   36.8510   27.3540   42.9980 S   0  0  0  0  0  0  0  0  0  0  0  0
   38.9640   25.9460   41.8600 C   0  0  0  0  0  0  0  0  0  0  0  0
   37.6190   25.9110   42.2380 C   0  0  0  0  0  0  0  0  0  0  0  0
   36.8910   24.7510   42.0190 C   0  0  0  0  0  0  0  0  0  0  0  0
   37.5420   23.6970   41.4380 N   0  0  0  0  0  0  0  0  0  0  0  0
   38.8290   23.7600   41.0870 C   0  0  0  0  0  0  0  0  0  0  0  0
   39.5590   24.8780   41.2900 N   0  0  0  0  0  0  0  0  0  0  0  0
   39.4820   26.8910   42.0610 H   0  0  0  0  0  0  0  0  0  0  0  0
   35.8740   24.7950   42.3310 H   0  0  0  0  0  0  0  0  0  0  0  0
   39.3010   22.8950   40.6270 H   0  0  0  0  0  0  0  0  0  0  0  0
   38.7960   29.7570   43.0640 Cl  0  0  0  0  0  0  0  0  0  0  0  0
   37.4810   29.6900   41.9010 C   0  0  0  0  0  0  0  0  0  0  0  0
   36.5680   28.6340   41.8190 C   0  0  0  0  0  0  0  0  0  0  0  0
   35.5750   28.6990   40.8570 C   0  0  0  0  0  0  0  0  0  0  0  0
   34.9270   27.8310   40.8850 H   0  0  0  0  0  0  0  0  0  0  0  0
   35.4750   29.7640   40.0010 C   0  0  0  0  0  0  0  0  0  0  0  0
   34.6570   29.7410   39.2650 H   0  0  0  0  0  0  0  0  0  0  0  0
   36.3800   30.8090   40.0830 C   0  0  0  0  0  3  0  0  0  0  0  0
   37.3990   30.7870   41.0380 C   0  0  0  0  0  3  0  0  0  0  0  0
  2  8  1  0  0  0  0
  2  3  1  0  0  0  0
  3  1  1  0  0  0  0
  4  3  2  0  0  0  0
  4  9  1  0  0  0  0
  5  4  1  0  0  0  0
  6  7  1  0  0  0  0
  6  5  2  0  0  0  0
  7  2  2  0  0  0  0
 10  6  1  0  0  0  0
 12 11  1  0  0  0  0
 13 12  1  0  0  0  0
 13  1  1  0  0  0  0
 14 15  1  0  0  0  0
 14 13  2  0  0  0  0
 16 18  2  0  0  0  0
 16 14  1  0  0  0  0
 17 16  1  0  0  0  0
 18 19  1  0  0  0  0
 19 12  2  0  0  0  0
M  END
>  <minimizedAffinity>
-4.19911098

$$$$

 OpenBabel03242517433D

 19 20  0  0  0  0  0  0  0  0999 V2000
   35.9090   29.8590   40.4820 S   0  0  0  0  0  0  0  0  0  0  0  0
   37.0880   32.3440   40.0590 C   0  0  0  0  0  0  0  0  0  0  0  0
   37.2280   31.0780   40.6340 C   0  0  0  0  0  0  0  0  0  0  0  0
   38.3950   30.7790   41.3210 C   0  0  0  0  0  0  0  0  0  0  0  0
   39.3520   31.7550   41.3940 N   0  0  0  0  0  0  0  0  0  0  0  0
   39.1900   32.9560   40.8340 C   0  0  0  0  0  0  0  0  0  0  0  0
   38.0620   33.2700   40.1600 N   0  0  0  0  0  0  0  0  0  0  0  0
   36.1430   32.5150   39.5300 H   0  0  0  0  0  0  0  0  0  0  0  0
   38.4340   29.7980   41.7330 H   0  0  0  0  0  0  0  0  0  0  0  0
   39.9800   33.6970   40.9200 H   0  0  0  0  0  0  0  0  0  0  0  0
   36.4170   27.5950   38.4380 Cl  0  0  0  0  0  0  0  0  0  0  0  0
   36.6070   27.3160   40.1620 C   0  0  0  0  0  0  0  0  0  0  0  0
   36.3930   28.2950   41.1370 C   0  0  0  0  0  0  0  0  0  0  0  0
   36.5770   27.9490   42.4650 C   0  0  0  0  0  0  0  0  0  0  0  0
   36.3840   28.7830   43.1300 H   0  0  0  0  0  0  0  0  0  0  0  0
   36.9580   26.6860   42.8300 C   0  0  0  0  0  0  0  0  0  0  0  0
   37.0820   26.4910   43.9060 H   0  0  0  0  0  0  0  0  0  0  0  0
   37.1690   25.7170   41.8640 C   0  0  0  0  0  3  0  0  0  0  0  0
   36.9960   26.0190   40.5110 C   0  0  0  0  0  3  0  0  0  0  0  0
  1  3  1  0  0  0  0
  1 13  1  0  0  0  0
  2  7  2  0  0  0  0
  2  3  1  0  0  0  0
  3  4  2  0  0  0  0
  4  5  1  0  0  0  0
  4  9  1  0  0  0  0
  6 10  1  0  0  0  0
  6  5  2  0  0  0  0
  7  6  1  0  0  0  0
  8  2  1  0  0  0  0
 11 12  1  0  0  0  0
 12 19  2  0  0  0  0
 12 13  1  0  0  0  0
 13 14  2  0  0  0  0
 14 16  1  0  0  0  0
 14 15  1  0  0  0  0
 16 17  1  0  0  0  0
 18 16  2  0  0  0  0
 19 18  1  0  0  0  0
M  END
>  <minimizedAffinity>
-4.15749884

$$$$

 OpenBabel03242517433D

 19 20  0  0  0  0  0  0  0  0999 V2000
   39.2480   29.6610   40.2630 S   0  0  0  0  0  0  0  0  0  0  0  0
   38.0820   29.2660   42.7580 C   0  0  0  0  0  0  0  0  0  0  0  0
   38.2640   28.7550   41.4710 C   0  0  0  0  0  0  0  0  0  0  0  0
   37.6750   27.5420   41.1420 C   0  0  0  0  0  0  0  0  0  0  0  0
   36.9420   26.9120   42.1110 N   0  0  0  0  0  0  0  0  0  0  0  0
   36.7870   27.4260   43.3340 C   0  0  0  0  0  0  0  0  0  0  0  0
   37.3510   28.6050   43.6780 N   0  0  0  0  0  0  0  0  0  0  0  0
   38.5740   30.2270   42.9530 H   0  0  0  0  0  0  0  0  0  0  0  0
   37.8540   27.2130   40.1450 H   0  0  0  0  0  0  0  0  0  0  0  0
   36.1950   26.8870   44.0690 H   0  0  0  0  0  0  0  0  0  0  0  0
   36.8230   30.3830   38.4840 Cl  0  0  0  0  0  0  0  0  0  0  0  0
   37.6880   31.6220   39.3800 C   0  0  0  0  0  0  0  0  0  0  0  0
   38.7910   31.3630   40.2000 C   0  0  0  0  0  0  0  0  0  0  0  0
   39.3860   32.4280   40.8540 C   0  0  0  0  0  0  0  0  0  0  0  0
   40.2270   32.1110   41.4590 H   0  0  0  0  0  0  0  0  0  0  0  0
   38.9200   33.7070   40.7120 C   0  0  0  0  0  0  0  0  0  0  0  0
   39.4490   34.4980   41.2650 H   0  0  0  0  0  0  0  0  0  0  0  0
   37.8290   33.9630   39.8990 C   0  0  0  0  0  3  0  0  0  0  0  0
   37.1950   32.9200   39.2190 C   0  0  0  0  0  3  0  0  0  0  0  0
  1  3  1  0  0  0  0
  2  8  1  0  0  0  0
  2  7  1  0  0  0  0
  3  2  2  0  0  0  0
  4  3  1  0  0  0  0
  4  5  2  0  0  0  0
  5  6  1  0  0  0  0
  6  7  2  0  0  0  0
  6 10  1  0  0  0  0
  9  4  1  0  0  0  0
 11 12  1  0  0  0  0
 12 13  1  0  0  0  0
 13  1  1  0  0  0  0
 13 14  2  0  0  0  0
 14 15  1  0  0  0  0
 16 14  1  0  0  0  0
 16 17  1  0  0  0  0
 18 16  2  0  0  0  0
 19 12  2  0  0  0  0
 19 18  1  0  0  0  0
M  END
>  <minimizedAffinity>
-4.12515974

$$$$

 OpenBabel03242517433D

 19 20  0  0  0  0  0  0  0  0999 V2000
   38.5890   28.5100   42.9580 S   0  0  0  0  0  0  0  0  0  0  0  0
   36.6640   30.0290   41.6420 C   0  0  0  0  0  0  0  0  0  0  0  0
   37.9910   29.5930   41.6470 C   0  0  0  0  0  0  0  0  0  0  0  0
   38.8370   30.0080   40.6280 C   0  0  0  0  0  0  0  0  0  0  0  0
   38.3120   30.8300   39.6680 N   0  0  0  0  0  0  0  0  0  0  0  0
   37.0380   31.2310   39.6900 C   0  0  0  0  0  0  0  0  0  0  0  0
   36.1960   30.8390   40.6710 N   0  0  0  0  0  0  0  0  0  0  0  0
   36.0490   29.6650   42.4750 H   0  0  0  0  0  0  0  0  0  0  0  0
   39.8330   29.6390   40.6940 H   0  0  0  0  0  0  0  0  0  0  0  0
   36.6690   31.8830   38.9030 H   0  0  0  0  0  0  0  0  0  0  0  0
   40.7970   26.4690   43.6800 Cl  0  0  0  0  0  0  0  0  0  0  0  0
   39.2850   25.9460   42.9540 C   0  0  0  0  0  0  0  0  0  0  0  0
   38.2480   26.8160   42.6040 C   0  0  0  0  0  0  0  0  0  0  0  0
   37.1040   26.2790   42.0390 C   0  0  0  0  0  0  0  0  0  0  0  0
   36.3700   27.0430   41.8090 H   0  0  0  0  0  0  0  0  0  0  0  0
   36.9770   24.9330   41.8210 C   0  0  0  0  0  0  0  0  0  0  0  0
   36.0360   24.5860   41.3660 H   0  0  0  0  0  0  0  0  0  0  0  0
   38.0040   24.0730   42.1670 C   0  0  0  0  0  3  0  0  0  0  0  0
   39.1780   24.5690   42.7400 C   0  0  0  0  0  3  0  0  0  0  0  0
  2  3  1  0  0  0  0
  2  8  1  0  0  0  0
  3  1  1  0  0  0  0
  4  9  1  0  0  0  0
  4  3  2  0  0  0  0
  5  6  2  0  0  0  0
  5  4  1  0  0  0  0
  6  7  1  0  0  0  0
  7  2  2  0  0  0  0
 10  6  1  0  0  0  0
 12 11  1  0  0  0  0
 13 12  2  0  0  0  0
 13  1  1  0  0  0  0
 14 13  1  0  0  0  0
 15 14  1  0  0  0  0
 16 14  2  0  0  0  0
 16 18  1  0  0  0  0
 17 16  1  0  0  0  0
 18 19  2  0  0  0  0
 19 12  1  0  0  0  0
M  END
>  <minimizedAffinity>
-4.1037755

$$$$

 OpenBabel03242517433D

 19 20  0  0  0  0  0  0  0  0999 V2000
   39.3060   29.6570   40.2770 S   0  0  0  0  0  0  0  0  0  0  0  0
   37.6740   31.8580   39.7880 C   0  0  0  0  0  0  0  0  0  0  0  0
   38.9250   31.4180   40.2300 C   0  0  0  0  0  0  0  0  0  0  0  0
   39.8630   32.3590   40.6300 C   0  0  0  0  0  0  0  0  0  0  0  0
   39.5010   33.6780   40.5670 N   0  0  0  0  0  0  0  0  0  0  0  0
   38.2970   34.0680   40.1400 C   0  0  0  0  0  0  0  0  0  0  0  0
   37.3680   33.1700   39.7450 N   0  0  0  0  0  0  0  0  0  0  0  0
   36.9800   31.0640   39.4870 H   0  0  0  0  0  0  0  0  0  0  0  0
   40.7930   31.9550   40.9550 H   0  0  0  0  0  0  0  0  0  0  0  0
   38.0580   35.1270   40.1070 H   0  0  0  0  0  0  0  0  0  0  0  0
   40.6960   28.6780   42.8600 Cl  0  0  0  0  0  0  0  0  0  0  0  0
   38.9840   28.3910   42.5900 C   0  0  0  0  0  0  0  0  0  0  0  0
   38.2960   28.8070   41.4460 C   0  0  0  0  0  0  0  0  0  0  0  0
   36.9450   28.5200   41.3520 C   0  0  0  0  0  0  0  0  0  0  0  0
   36.5170   28.8880   40.4270 H   0  0  0  0  0  0  0  0  0  0  0  0
   36.2850   27.8460   42.3460 C   0  0  0  0  0  0  0  0  0  0  0  0
   35.2120   27.6560   42.1950 H   0  0  0  0  0  0  0  0  0  0  0  0
   36.9670   27.4350   43.4780 C   0  0  0  0  0  3  0  0  0  0  0  0
   38.3310   27.7020   43.6170 C   0  0  0  0  0  3  0  0  0  0  0  0
  1 13  1  0  0  0  0
  2  3  1  0  0  0  0
  3  1  1  0  0  0  0
  3  4  2  0  0  0  0
  4  9  1  0  0  0  0
  5  4  1  0  0  0  0
  6  5  2  0  0  0  0
  7  2  2  0  0  0  0
  7  6  1  0  0  0  0
  8  2  1  0  0  0  0
 10  6  1  0  0  0  0
 12 11  1  0  0  0  0
 12 19  1  0  0  0  0
 13 12  2  0  0  0  0
 14 13  1  0  0  0  0
 14 16  2  0  0  0  0
 15 14  1  0  0  0  0
 16 18  1  0  0  0  0
 17 16  1  0  0  0  0
 18 19  2  0  0  0  0
M  END
>  <minimizedAffinity>
-4.09370089

$$$$

 OpenBabel03242517433D

 19 20  0  0  0  0  0  0  0  0999 V2000
   37.4870   28.2560   43.5190 S   0  0  0  0  0  0  0  0  0  0  0  0
   39.5630   26.4100   43.6800 C   0  0  0  0  0  0  0  0  0  0  0  0
   38.3170   26.7060   43.1220 C   0  0  0  0  0  0  0  0  0  0  0  0
   37.7330   25.7880   42.2610 C   0  0  0  0  0  0  0  0  0  0  0  0
   38.4230   24.6340   42.0070 N   0  0  0  0  0  0  0  0  0  0  0  0
   39.6140   24.3790   42.5550 C   0  0  0  0  0  0  0  0  0  0  0  0
   40.2020   25.2580   43.3960 N   0  0  0  0  0  0  0  0  0  0  0  0
   39.9680   27.1770   44.3510 H   0  0  0  0  0  0  0  0  0  0  0  0
   36.7850   26.0770   41.8730 H   0  0  0  0  0  0  0  0  0  0  0  0
   40.1220   23.4470   42.3210 H   0  0  0  0  0  0  0  0  0  0  0  0
   35.7600   28.9710   41.0560 Cl  0  0  0  0  0  0  0  0  0  0  0  0
   37.2380   29.8510   41.4090 C   0  0  0  0  0  0  0  0  0  0  0  0
   38.0630   29.5780   42.5050 C   0  0  0  0  0  0  0  0  0  0  0  0
   39.2040   30.3450   42.6740 C   0  0  0  0  0  0  0  0  0  0  0  0
   39.7640   30.0460   43.5520 H   0  0  0  0  0  0  0  0  0  0  0  0
   39.5290   31.3480   41.8000 C   0  0  0  0  0  0  0  0  0  0  0  0
   40.4530   31.9100   42.0040 H   0  0  0  0  0  0  0  0  0  0  0  0
   38.7120   31.6170   40.7150 C   0  0  0  0  0  3  0  0  0  0  0  0
   37.5510   30.8690   40.5040 C   0  0  0  0  0  3  0  0  0  0  0  0
  2  8  1  0  0  0  0
  3  1  1  0  0  0  0
  3  2  2  0  0  0  0
  4  3  1  0  0  0  0
  5  4  2  0  0  0  0
  5  6  1  0  0  0  0
  6  7  2  0  0  0  0
  7  2  1  0  0  0  0
  9  4  1  0  0  0  0
 10  6  1  0  0  0  0
 11 12  1  0  0  0  0
 12 13  1  0  0  0  0
 13 14  2  0  0  0  0
 13  1  1  0  0  0  0
 14 15  1  0  0  0  0
 16 17  1  0  0  0  0
 16 14  1  0  0  0  0
 18 16  2  0  0  0  0
 19 18  1  0  0  0  0
 19 12  2  0  0  0  0
M  END
>  <minimizedAffinity>
-4.05722332

$$$$

 OpenBabel03242517433D

 19 20  0  0  0  0  0  0  0  0999 V2000
   39.0680   29.5580   40.1610 S   0  0  0  0  0  0  0  0  0  0  0  0
   37.5320   27.4860   41.2040 C   0  0  0  0  0  0  0  0  0  0  0  0
   38.1630   28.7050   41.4650 C   0  0  0  0  0  0  0  0  0  0  0  0
   38.0810   29.2420   42.7410 C   0  0  0  0  0  0  0  0  0  0  0  0
   37.3760   28.5370   43.6800 N   0  0  0  0  0  0  0  0  0  0  0  0
   36.7830   27.3730   43.4000 C   0  0  0  0  0  0  0  0  0  0  0  0
   36.8500   26.8300   42.1650 N   0  0  0  0  0  0  0  0  0  0  0  0
   37.6360   27.1160   40.1770 H   0  0  0  0  0  0  0  0  0  0  0  0
   38.5840   30.1710   42.8700 H   0  0  0  0  0  0  0  0  0  0  0  0
   36.2350   26.8510   44.1800 H   0  0  0  0  0  0  0  0  0  0  0  0
   40.7240   31.6490   41.7250 Cl  0  0  0  0  0  0  0  0  0  0  0  0
   39.3490   32.1350   40.7460 C   0  0  0  0  0  0  0  0  0  0  0  0
   38.5600   31.2410   40.0150 C   0  0  0  0  0  0  0  0  0  0  0  0
   37.5020   31.7490   39.2800 C   0  0  0  0  0  0  0  0  0  0  0  0
   36.9630   30.9690   38.7570 H   0  0  0  0  0  0  0  0  0  0  0  0
   37.2230   33.0900   39.2590 C   0  0  0  0  0  0  0  0  0  0  0  0
   36.3650   33.4140   38.6520 H   0  0  0  0  0  0  0  0  0  0  0  0
   38.0050   33.9740   39.9830 C   0  0  0  0  0  3  0  0  0  0  0  0
   39.0830   33.5070   40.7400 C   0  0  0  0  0  3  0  0  0  0  0  0
  1  3  1  0  0  0  0
  2  3  2  0  0  0  0
  2  7  1  0  0  0  0
  3  4  1  0  0  0  0
  4  9  1  0  0  0  0
  4  5  2  0  0  0  0
  6  5  1  0  0  0  0
  6 10  1  0  0  0  0
  7  6  2  0  0  0  0
  8  2  1  0  0  0  0
 12 11  1  0  0  0  0
 13  1  1  0  0  0  0
 13 12  2  0  0  0  0
 14 13  1  0  0  0  0
 15 14  1  0  0  0  0
 16 14  2  0  0  0  0
 16 18  1  0  0  0  0
 17 16  1  0  0  0  0
 18 19  2  0  0  0  0
 19 12  1  0  0  0  0
M  END
>  <minimizedAffinity>
-4.04621124

$$$$

 OpenBabel03242517433D

 19 20  0  0  0  0  0  0  0  0999 V2000
   38.9200   28.3180   42.1960 S   0  0  0  0  0  0  0  0  0  0  0  0
   38.4740   29.6010   39.7670 C   0  0  0  0  0  0  0  0  0  0  0  0
   38.0590   29.4540   41.0930 C   0  0  0  0  0  0  0  0  0  0  0  0
   36.9750   30.1950   41.5420 C   0  0  0  0  0  0  0  0  0  0  0  0
   36.3720   31.0370   40.6470 N   0  0  0  0  0  0  0  0  0  0  0  0
   36.7920   31.1560   39.3850 C   0  0  0  0  0  0  0  0  0  0  0  0
   37.8440   30.4450   38.9260 N   0  0  0  0  0  0  0  0  0  0  0  0
   39.3350   28.9870   39.4770 H   0  0  0  0  0  0  0  0  0  0  0  0
   36.7140   30.0340   42.5620 H   0  0  0  0  0  0  0  0  0  0  0  0
   36.2790   31.8390   38.7130 H   0  0  0  0  0  0  0  0  0  0  0  0
   36.3350   27.2020   43.4740 Cl  0  0  0  0  0  0  0  0  0  0  0  0
   37.3410   26.1960   42.4440 C   0  0  0  0  0  0  0  0  0  0  0  0
   38.5210   26.6380   41.8370 C   0  0  0  0  0  0  0  0  0  0  0  0
   39.2260   25.7470   41.0460 C   0  0  0  0  0  0  0  0  0  0  0  0
   40.1190   26.1970   40.6290 H   0  0  0  0  0  0  0  0  0  0  0  0
   38.7930   24.4620   40.8540 C   0  0  0  0  0  0  0  0  0  0  0  0
   39.4110   23.8160   40.2120 H   0  0  0  0  0  0  0  0  0  0  0  0
   37.6260   24.0250   41.4560 C   0  0  0  0  0  3  0  0  0  0  0  0
   36.8810   24.8880   42.2630 C   0  0  0  0  0  3  0  0  0  0  0  0
  2  3  1  0  0  0  0
  3  4  2  0  0  0  0
  3  1  1  0  0  0  0
  4  9  1  0  0  0  0
  5  4  1  0  0  0  0
  6  5  2  0  0  0  0
  7  6  1  0  0  0  0
  7  2  2  0  0  0  0
  8  2  1  0  0  0  0
 10  6  1  0  0  0  0
 12 11  1  0  0  0  0
 13  1  1  0  0  0  0
 13 12  2  0  0  0  0
 14 13  1  0  0  0  0
 15 14  1  0  0  0  0
 16 14  2  0  0  0  0
 16 18  1  0  0  0  0
 17 16  1  0  0  0  0
 18 19  2  0  0  0  0
 19 12  1  0  0  0  0
M  END
>  <minimizedAffinity>
-4.03795481

$$$$
