
 OpenBabel03242513433D

 40 43  0  0  0  0  0  0  0  0999 V2000
   37.0900   29.8600   40.0930 C   0  0  0  0  0  0  0  0  0  0  0  0
   36.6620   30.3920   38.9050 C   0  0  0  0  0  0  0  0  0  0  0  0
   37.1070   31.6570   38.5750 C   0  0  0  0  0  0  0  0  0  0  0  0
   37.9470   32.3810   39.3900 C   0  0  0  0  0  0  0  0  0  0  0  0
   38.5480   33.6000   39.3690 N   0  0  0  0  0  0  0  0  0  0  0  0
   39.2890   33.7750   40.4860 C   0  0  0  0  0  0  0  0  0  0  0  0
   39.1500   32.6500   41.2150 N   0  0  0  0  0  0  0  0  0  0  0  0
   38.3390   31.7910   40.5670 C   0  0  0  0  0  0  0  0  0  0  0  0
   37.9340   30.5470   40.9430 C   0  0  0  0  0  0  0  0  0  0  0  0
   36.7350   28.8660   40.3400 H   0  0  0  0  0  0  0  0  0  0  0  0
   36.7920   32.1210   37.6400 H   0  0  0  0  0  0  0  0  0  0  0  0
   38.4260   34.2620   38.5910 H   0  0  0  0  0  0  0  0  0  0  0  0
   39.8890   34.6280   40.7760 H   0  0  0  0  0  0  0  0  0  0  0  0
   33.8670   28.3900   37.6720 C   0  0  0  0  0  0  0  0  0  0  0  0
   34.1370   28.2750   36.3040 C   0  0  0  0  0  0  0  0  0  0  0  0
   35.3020   28.9090   35.8420 C   0  0  0  0  0  0  0  0  0  0  0  0
   36.1020   29.5880   36.7080 N   0  0  0  0  0  0  0  0  0  0  0  0
   35.7750   29.6550   38.0210 C   0  0  0  0  0  0  0  0  0  0  0  0
   34.6810   29.0690   38.4990 N   0  0  0  0  0  0  0  0  0  0  0  0
   33.0000   27.9480   38.1550 H   0  0  0  0  0  0  0  0  0  0  0  0
   35.5030   28.8170   34.7910 H   0  0  0  0  0  0  0  0  0  0  0  0
   33.1870   27.5070   35.4560 C   0  0  0  0  0  0  0  0  0  0  0  0
   32.4790   26.7300   36.3310 F   0  0  0  0  0  0  0  0  0  0  0  0
   33.9220   26.7290   34.6010 F   0  0  0  0  0  0  0  0  0  0  0  0
   32.4030   28.4180   34.7650 F   0  0  0  0  0  0  0  0  0  0  0  0
   38.3650   30.0060   42.1480 O   0  0  0  0  0  0  0  0  0  0  0  0
   40.8510   29.6850   42.8170 O   0  0  0  0  0  0  0  0  0  0  0  0
   39.6360   28.9050   42.3140 P   0  0  2  0  0  0  0  0  0  0  0  0
   40.0340   28.3620   40.7470 O   0  0  0  0  0  0  0  0  0  0  0  0
   39.8300   27.3950   40.6550 H   0  0  0  0  0  0  0  0  0  0  0  0
   39.3110   27.6150   43.3150 O   0  0  0  0  0  0  0  0  0  0  0  0
   36.4110   27.4680   43.2110 Cl  0  0  0  0  0  0  0  0  0  0  0  0
   37.5390   26.2320   42.6770 C   0  0  0  0  0  0  0  0  0  0  0  0
   38.9050   26.4030   42.7700 C   0  0  0  0  0  0  0  0  0  0  0  0
   39.7260   25.3830   42.3280 C   0  0  0  0  0  0  0  0  0  0  0  0
   40.7890   25.5570   42.4200 H   0  0  0  0  0  0  0  0  0  0  0  0
   39.1840   24.2260   41.8060 C   0  0  0  0  0  0  0  0  0  0  0  0
   39.8260   23.4330   41.4630 H   0  0  0  0  0  0  0  0  0  0  0  0
   37.8140   24.0820   41.7240 C   0  0  0  0  0  3  0  0  0  0  0  0
   36.9390   25.0830   42.1580 C   0  0  0  0  0  3  0  0  0  0  0  0
  1 10  1  0  0  0  0
  1  9  1  0  0  0  0
  2  1  2  0  0  0  0
  3  2  1  0  0  0  0
  3  4  2  0  0  0  0
  4  8  1  0  0  0  0
  5  4  1  0  0  0  0
  5  6  1  0  0  0  0
  6 13  1  0  0  0  0
  6  7  2  0  0  0  0
  8  9  2  0  0  0  0
  8  7  1  0  0  0  0
  9 26  1  0  0  0  0
 11  3  1  0  0  0  0
 12  5  1  0  0  0  0
 14 20  1  0  0  0  0
 14 19  1  0  0  0  0
 15 14  2  0  0  0  0
 16 15  1  0  0  0  0
 16 17  2  0  0  0  0
 17 18  1  0  0  0  0
 18 19  2  0  0  0  0
 18  2  1  0  0  0  0
 21 16  1  0  0  0  0
 22 15  1  0  0  0  0
 22 23  1  0  0  0  0
 24 22  1  0  0  0  0
 25 22  1  0  0  0  0
 26 28  1  0  0  0  0
 28 27  2  1  0  0  0
 28 31  1  0  0  0  0
 29 28  1  0  0  0  0
 30 29  1  0  0  0  0
 33 34  1  0  0  0  0
 33 32  1  0  0  0  0
 34 31  1  0  0  0  0
 35 36  1  0  0  0  0
 35 34  2  0  0  0  0
 37 35  1  0  0  0  0
 38 37  1  0  0  0  0
 39 37  2  0  0  0  0
 39 40  1  0  0  0  0
 40 33  2  0  0  0  0
M  END
>  <minimizedAffinity>
-6.22642374

$$$$

 OpenBabel03242513433D

 40 43  0  0  0  0  0  0  0  0999 V2000
   39.6660   29.9860   39.8290 C   0  0  0  0  0  0  0  0  0  0  0  0
   38.4580   29.5890   40.3430 C   0  0  0  0  0  0  0  0  0  0  0  0
   37.5060   30.5640   40.5600 C   0  0  0  0  0  0  0  0  0  0  0  0
   37.7310   31.8940   40.2820 C   0  0  0  0  0  0  0  0  0  0  0  0
   37.0410   33.0610   40.3730 N   0  0  0  0  0  0  0  0  0  0  0  0
   37.8030   34.0900   39.9370 C   0  0  0  0  0  0  0  0  0  0  0  0
   38.9850   33.5570   39.5680 N   0  0  0  0  0  0  0  0  0  0  0  0
   38.9610   32.2250   39.7700 C   0  0  0  0  0  0  0  0  0  0  0  0
   39.9380   31.3070   39.5340 C   0  0  0  0  0  0  0  0  0  0  0  0
   40.4050   29.2110   39.6620 H   0  0  0  0  0  0  0  0  0  0  0  0
   36.5310   30.2960   40.9680 H   0  0  0  0  0  0  0  0  0  0  0  0
   36.0770   33.1060   40.7300 H   0  0  0  0  0  0  0  0  0  0  0  0
   37.5530   35.1410   39.8770 H   0  0  0  0  0  0  0  0  0  0  0  0
   38.0420   25.9770   39.9970 C   0  0  0  0  0  0  0  0  0  0  0  0
   37.6610   25.5760   41.2820 C   0  0  0  0  0  0  0  0  0  0  0  0
   37.5600   26.5910   42.2480 C   0  0  0  0  0  0  0  0  0  0  0  0
   37.8240   27.8830   41.9150 N   0  0  0  0  0  0  0  0  0  0  0  0
   38.1870   28.1950   40.6480 C   0  0  0  0  0  0  0  0  0  0  0  0
   38.2950   27.2640   39.7040 N   0  0  0  0  0  0  0  0  0  0  0  0
   38.1580   25.2930   39.1610 H   0  0  0  0  0  0  0  0  0  0  0  0
   37.2670   26.2760   43.2330 H   0  0  0  0  0  0  0  0  0  0  0  0
   37.3990   24.1320   41.5260 C   0  0  0  0  0  0  0  0  0  0  0  0
   36.0410   23.9990   41.4400 F   0  0  0  0  0  0  0  0  0  0  0  0
   37.8380   23.8330   42.7890 F   0  0  0  0  0  0  0  0  0  0  0  0
   38.0900   23.4080   40.5660 F   0  0  0  0  0  0  0  0  0  0  0  0
   41.1630   31.7070   39.0140 O   0  0  0  0  0  0  0  0  0  0  0  0
   42.3190   33.2660   37.2910 O   0  0  0  0  0  0  0  0  0  0  0  0
   41.4730   31.9950   37.3780 P   0  0  2  0  0  0  0  0  0  0  0  0
   39.9780   32.3670   36.6450 O   0  0  0  0  0  0  0  0  0  0  0  0
   39.7300   31.6630   35.9910 H   0  0  0  0  0  0  0  0  0  0  0  0
   42.2180   30.7380   36.5800 O   0  0  0  0  0  0  0  0  0  0  0  0
   44.4650   29.9340   38.2380 Cl  0  0  0  0  0  0  0  0  0  0  0  0
   43.0640   28.9550   37.8310 C   0  0  0  0  0  0  0  0  0  0  0  0
   42.0470   29.4350   37.0320 C   0  0  0  0  0  0  0  0  0  0  0  0
   40.9780   28.6020   36.7570 C   0  0  0  0  0  0  0  0  0  0  0  0
   40.2040   29.0170   36.1270 H   0  0  0  0  0  0  0  0  0  0  0  0
   40.9380   27.3240   37.2750 C   0  0  0  0  0  0  0  0  0  0  0  0
   40.1050   26.6770   37.0590 H   0  0  0  0  0  0  0  0  0  0  0  0
   41.9690   26.8690   38.0710 C   0  0  0  0  0  3  0  0  0  0  0  0
   43.0720   27.6700   38.3790 C   0  0  0  0  0  3  0  0  0  0  0  0
  1  2  1  0  0  0  0
  2  3  2  0  0  0  0
  2 18  1  0  0  0  0
  3 11  1  0  0  0  0
  4  5  1  0  0  0  0
  4  3  1  0  0  0  0
  5 12  1  0  0  0  0
  6  5  1  0  0  0  0
  7  8  1  0  0  0  0
  7  6  2  0  0  0  0
  8  4  2  0  0  0  0
  9  8  1  0  0  0  0
  9  1  2  0  0  0  0
 10  1  1  0  0  0  0
 13  6  1  0  0  0  0
 14 15  1  0  0  0  0
 15 22  1  0  0  0  0
 15 16  2  0  0  0  0
 16 21  1  0  0  0  0
 17 16  1  0  0  0  0
 18 17  2  0  0  0  0
 19 14  2  0  0  0  0
 19 18  1  0  0  0  0
 20 14  1  0  0  0  0
 22 24  1  0  0  0  0
 23 22  1  0  0  0  0
 25 22  1  0  0  0  0
 26  9  1  0  0  0  0
 28 27  2  6  0  0  0
 28 26  1  0  0  0  0
 29 28  1  0  0  0  0
 30 29  1  0  0  0  0
 31 34  1  0  0  0  0
 31 28  1  0  0  0  0
 33 32  1  0  0  0  0
 33 40  1  0  0  0  0
 34 33  2  0  0  0  0
 35 34  1  0  0  0  0
 35 37  2  0  0  0  0
 36 35  1  0  0  0  0
 37 39  1  0  0  0  0
 38 37  1  0  0  0  0
 39 40  2  0  0  0  0
M  END
>  <minimizedAffinity>
-6.19393301

$$$$

 OpenBabel03242513433D

 40 43  0  0  0  0  0  0  0  0999 V2000
   40.1330   30.5640   40.6890 C   0  0  0  0  0  0  0  0  0  0  0  0
   40.2900   29.6750   41.7200 C   0  0  0  0  0  0  0  0  0  0  0  0
   41.2450   29.9660   42.6740 C   0  0  0  0  0  0  0  0  0  0  0  0
   42.0260   31.0980   42.6170 C   0  0  0  0  0  0  0  0  0  0  0  0
   43.0150   31.6640   43.3580 N   0  0  0  0  0  0  0  0  0  0  0  0
   43.4180   32.8240   42.7920 C   0  0  0  0  0  0  0  0  0  0  0  0
   42.6700   32.9850   41.6820 N   0  0  0  0  0  0  0  0  0  0  0  0
   41.8190   31.9480   41.5580 C   0  0  0  0  0  0  0  0  0  0  0  0
   40.8910   31.7130   40.5900 C   0  0  0  0  0  0  0  0  0  0  0  0
   39.3800   30.3250   39.9470 H   0  0  0  0  0  0  0  0  0  0  0  0
   41.4060   29.2880   43.5120 H   0  0  0  0  0  0  0  0  0  0  0  0
   43.3740   31.2330   44.2210 H   0  0  0  0  0  0  0  0  0  0  0  0
   44.1810   33.5140   43.1270 H   0  0  0  0  0  0  0  0  0  0  0  0
   39.1230   26.2390   41.3070 C   0  0  0  0  0  0  0  0  0  0  0  0
   37.9170   26.2250   42.0140 C   0  0  0  0  0  0  0  0  0  0  0  0
   37.5380   27.4310   42.6260 C   0  0  0  0  0  0  0  0  0  0  0  0
   38.3270   28.5340   42.5130 N   0  0  0  0  0  0  0  0  0  0  0  0
   39.4840   28.4700   41.8100 C   0  0  0  0  0  0  0  0  0  0  0  0
   39.8780   27.3470   41.2160 N   0  0  0  0  0  0  0  0  0  0  0  0
   39.5300   25.3730   40.7900 H   0  0  0  0  0  0  0  0  0  0  0  0
   36.6110   27.4140   43.1680 H   0  0  0  0  0  0  0  0  0  0  0  0
   37.1400   24.9580   42.0670 C   0  0  0  0  0  0  0  0  0  0  0  0
   36.6100   24.8140   40.8150 F   0  0  0  0  0  0  0  0  0  0  0  0
   36.1480   25.1120   43.0000 F   0  0  0  0  0  0  0  0  0  0  0  0
   38.0130   23.9390   42.4210 F   0  0  0  0  0  0  0  0  0  0  0  0
   40.7310   32.6130   39.5430 O   0  0  0  0  0  0  0  0  0  0  0  0
   41.5040   30.9560   37.7020 O   0  0  0  0  0  0  0  0  0  0  0  0
   40.6250   32.1900   37.9110 P   0  0  2  0  0  0  0  0  0  0  0  0
   41.3540   33.4490   37.0200 O   0  0  0  0  0  0  0  0  0  0  0  0
   40.6780   33.9110   36.4600 H   0  0  0  0  0  0  0  0  0  0  0  0
   39.0780   31.9070   37.3650 O   0  0  0  0  0  0  0  0  0  0  0  0
   37.1660   33.1240   39.1830 Cl  0  0  0  0  0  0  0  0  0  0  0  0
   37.3540   31.4070   38.8600 C   0  0  0  0  0  0  0  0  0  0  0  0
   38.2980   30.9310   37.9730 C   0  0  0  0  0  0  0  0  0  0  0  0
   38.3820   29.5670   37.7740 C   0  0  0  0  0  0  0  0  0  0  0  0
   39.1350   29.2360   37.0720 H   0  0  0  0  0  0  0  0  0  0  0  0
   37.5390   28.7080   38.4500 C   0  0  0  0  0  0  0  0  0  0  0  0
   37.6080   27.6450   38.2930 H   0  0  0  0  0  0  0  0  0  0  0  0
   36.6040   29.2110   39.3310 C   0  0  0  0  0  3  0  0  0  0  0  0
   36.4770   30.5830   39.5690 C   0  0  0  0  0  3  0  0  0  0  0  0
  1  2  1  0  0  0  0
  2 18  1  0  0  0  0
  2  3  2  0  0  0  0
  3 11  1  0  0  0  0
  4  3  1  0  0  0  0
  4  5  1  0  0  0  0
  5 12  1  0  0  0  0
  6 13  1  0  0  0  0
  6  5  1  0  0  0  0
  7  6  2  0  0  0  0
  8  7  1  0  0  0  0
  8  4  2  0  0  0  0
  9  1  2  0  0  0  0
  9  8  1  0  0  0  0
 10  1  1  0  0  0  0
 14 15  1  0  0  0  0
 15 22  1  0  0  0  0
 15 16  2  0  0  0  0
 16 21  1  0  0  0  0
 17 16  1  0  0  0  0
 18 17  2  0  0  0  0
 19 14  2  0  0  0  0
 19 18  1  0  0  0  0
 20 14  1  0  0  0  0
 22 25  1  0  0  0  0
 22 24  1  0  0  0  0
 23 22  1  0  0  0  0
 26  9  1  0  0  0  0
 28 27  2  6  0  0  0
 28 26  1  0  0  0  0
 29 28  1  0  0  0  0
 30 29  1  0  0  0  0
 31 28  1  0  0  0  0
 31 34  1  0  0  0  0
 33 32  1  0  0  0  0
 33 40  1  0  0  0  0
 34 33  2  0  0  0  0
 35 34  1  0  0  0  0
 35 37  2  0  0  0  0
 36 35  1  0  0  0  0
 37 39  1  0  0  0  0
 38 37  1  0  0  0  0
 39 40  2  0  0  0  0
M  END
>  <minimizedAffinity>
-6.17011452

$$$$

 OpenBabel03242513433D

 40 43  0  0  0  0  0  0  0  0999 V2000
   36.7810   27.4960   39.5990 C   0  0  0  0  0  0  0  0  0  0  0  0
   36.8730   27.0390   38.3100 C   0  0  0  0  0  0  0  0  0  0  0  0
   37.1370   25.6960   38.1260 C   0  0  0  0  0  0  0  0  0  0  0  0
   37.3080   24.8250   39.1790 C   0  0  0  0  0  0  0  0  0  0  0  0
   37.5690   23.5020   39.3440 N   0  0  0  0  0  0  0  0  0  0  0  0
   37.6280   23.1970   40.6600 C   0  0  0  0  0  0  0  0  0  0  0  0
   37.4010   24.3470   41.3260 N   0  0  0  0  0  0  0  0  0  0  0  0
   37.2040   25.3470   40.4450 C   0  0  0  0  0  0  0  0  0  0  0  0
   36.9440   26.6610   40.6870 C   0  0  0  0  0  0  0  0  0  0  0  0
   36.5730   28.5520   39.7300 H   0  0  0  0  0  0  0  0  0  0  0  0
   37.2190   25.2880   37.1200 H   0  0  0  0  0  0  0  0  0  0  0  0
   37.6950   22.8610   38.5490 H   0  0  0  0  0  0  0  0  0  0  0  0
   37.8160   22.2400   41.1270 H   0  0  0  0  0  0  0  0  0  0  0  0
   36.0660   28.3040   34.9800 C   0  0  0  0  0  0  0  0  0  0  0  0
   36.3890   29.6620   35.0690 C   0  0  0  0  0  0  0  0  0  0  0  0
   36.8850   30.1060   36.3060 C   0  0  0  0  0  0  0  0  0  0  0  0
   37.0320   29.2330   37.3390 N   0  0  0  0  0  0  0  0  0  0  0  0
   36.6980   27.9300   37.1770 C   0  0  0  0  0  0  0  0  0  0  0  0
   36.2240   27.4700   36.0220 N   0  0  0  0  0  0  0  0  0  0  0  0
   35.6730   27.8350   34.0830 H   0  0  0  0  0  0  0  0  0  0  0  0
   37.1310   31.1500   36.3670 H   0  0  0  0  0  0  0  0  0  0  0  0
   36.1850   30.5200   33.8710 C   0  0  0  0  0  0  0  0  0  0  0  0
   36.6340   29.7720   32.8190 F   0  0  0  0  0  0  0  0  0  0  0  0
   36.9470   31.6470   34.0260 F   0  0  0  0  0  0  0  0  0  0  0  0
   34.8350   30.8280   33.7960 F   0  0  0  0  0  0  0  0  0  0  0  0
   36.8520   27.1270   41.9920 O   0  0  0  0  0  0  0  0  0  0  0  0
   38.8050   27.3950   43.6800 O   0  0  0  0  0  0  0  0  0  0  0  0
   37.9360   28.2030   42.7150 P   0  0  2  0  0  0  0  0  0  0  0  0
   37.0150   29.2660   43.6790 O   0  0  0  0  0  0  0  0  0  0  0  0
   37.0670   30.1900   43.3200 H   0  0  0  0  0  0  0  0  0  0  0  0
   38.8840   29.0570   41.6450 O   0  0  0  0  0  0  0  0  0  0  0  0
   40.9120   31.0500   42.2420 Cl  0  0  0  0  0  0  0  0  0  0  0  0
   39.3720   31.3330   41.4460 C   0  0  0  0  0  0  0  0  0  0  0  0
   38.4750   30.3110   41.2080 C   0  0  0  0  0  0  0  0  0  0  0  0
   37.2850   30.6150   40.5760 C   0  0  0  0  0  0  0  0  0  0  0  0
   36.6110   29.7860   40.4110 H   0  0  0  0  0  0  0  0  0  0  0  0
   37.0080   31.9120   40.1950 C   0  0  0  0  0  0  0  0  0  0  0  0
   36.0790   32.1460   39.7040 H   0  0  0  0  0  0  0  0  0  0  0  0
   37.9210   32.9150   40.4440 C   0  0  0  0  0  3  0  0  0  0  0  0
   39.1400   32.6610   41.0810 C   0  0  0  0  0  3  0  0  0  0  0  0
  1 10  1  0  0  0  0
  1  9  1  0  0  0  0
  2  1  2  0  0  0  0
  3  2  1  0  0  0  0
  3  4  2  0  0  0  0
  4  5  1  0  0  0  0
  4  8  1  0  0  0  0
  5  6  1  0  0  0  0
  6 13  1  0  0  0  0
  6  7  2  0  0  0  0
  8  9  2  0  0  0  0
  8  7  1  0  0  0  0
  9 26  1  0  0  0  0
 11  3  1  0  0  0  0
 12  5  1  0  0  0  0
 14 15  2  0  0  0  0
 14 19  1  0  0  0  0
 15 16  1  0  0  0  0
 16 21  1  0  0  0  0
 16 17  2  0  0  0  0
 18 17  1  0  0  0  0
 18  2  1  0  0  0  0
 19 18  2  0  0  0  0
 20 14  1  0  0  0  0
 22 24  1  0  0  0  0
 22 15  1  0  0  0  0
 23 22  1  0  0  0  0
 25 22  1  0  0  0  0
 26 28  1  0  0  0  0
 28 29  1  0  0  0  0
 28 27  2  1  0  0  0
 30 29  1  0  0  0  0
 31 28  1  0  0  0  0
 33 32  1  0  0  0  0
 34 33  1  0  0  0  0
 34 31  1  0  0  0  0
 35 34  2  0  0  0  0
 36 35  1  0  0  0  0
 37 39  2  0  0  0  0
 37 35  1  0  0  0  0
 38 37  1  0  0  0  0
 39 40  1  0  0  0  0
 40 33  2  0  0  0  0
M  END
>  <minimizedAffinity>
-6.16611624

$$$$

 OpenBabel03242513433D

 40 43  0  0  0  0  0  0  0  0999 V2000
   37.7510   29.3260   41.2680 C   0  0  0  0  0  0  0  0  0  0  0  0
   37.0790   28.2320   40.7900 C   0  0  0  0  0  0  0  0  0  0  0  0
   37.4500   26.9930   41.2730 C   0  0  0  0  0  0  0  0  0  0  0  0
   38.4540   26.8320   42.2010 C   0  0  0  0  0  0  0  0  0  0  0  0
   39.0460   25.8000   42.8590 N   0  0  0  0  0  0  0  0  0  0  0  0
   40.0160   26.2640   43.6800 C   0  0  0  0  0  0  0  0  0  0  0  0
   40.0290   27.6040   43.5320 N   0  0  0  0  0  0  0  0  0  0  0  0
   39.0890   27.9680   42.6390 C   0  0  0  0  0  0  0  0  0  0  0  0
   38.7650   29.2150   42.1990 C   0  0  0  0  0  0  0  0  0  0  0  0
   37.4500   30.2930   40.8810 H   0  0  0  0  0  0  0  0  0  0  0  0
   36.9440   26.0940   40.9220 H   0  0  0  0  0  0  0  0  0  0  0  0
   38.7620   24.8210   42.7190 H   0  0  0  0  0  0  0  0  0  0  0  0
   40.6700   25.7080   44.3380 H   0  0  0  0  0  0  0  0  0  0  0  0
   33.9700   29.2380   39.1570 C   0  0  0  0  0  0  0  0  0  0  0  0
   34.0320   28.5820   37.9240 C   0  0  0  0  0  0  0  0  0  0  0  0
   35.1730   27.7960   37.6910 C   0  0  0  0  0  0  0  0  0  0  0  0
   36.1440   27.7000   38.6380 N   0  0  0  0  0  0  0  0  0  0  0  0
   36.0140   28.3660   39.8110 C   0  0  0  0  0  0  0  0  0  0  0  0
   34.9490   29.1210   40.0710 N   0  0  0  0  0  0  0  0  0  0  0  0
   33.1440   29.8760   39.4610 H   0  0  0  0  0  0  0  0  0  0  0  0
   35.2130   27.2950   36.7410 H   0  0  0  0  0  0  0  0  0  0  0  0
   32.9070   28.7630   36.9670 C   0  0  0  0  0  0  0  0  0  0  0  0
   31.9020   29.3250   37.7030 F   0  0  0  0  0  0  0  0  0  0  0  0
   32.5400   27.5240   36.5100 F   0  0  0  0  0  0  0  0  0  0  0  0
   33.3560   29.5710   35.9330 F   0  0  0  0  0  0  0  0  0  0  0  0
   39.4460   30.3260   42.6810 O   0  0  0  0  0  0  0  0  0  0  0  0
   41.7060   29.7140   41.5630 O   0  0  0  0  0  0  0  0  0  0  0  0
   40.9000   30.9160   42.0560 P   0  0  2  0  0  0  0  0  0  0  0  0
   41.7760   31.5720   43.3640 O   0  0  0  0  0  0  0  0  0  0  0  0
   41.8740   32.5540   43.2560 H   0  0  0  0  0  0  0  0  0  0  0  0
   40.7270   32.0450   40.8440 O   0  0  0  0  0  0  0  0  0  0  0  0
   40.7660   30.5460   38.3540 Cl  0  0  0  0  0  0  0  0  0  0  0  0
   39.4260   31.4920   38.9840 C   0  0  0  0  0  0  0  0  0  0  0  0
   39.5110   32.1690   40.1830 C   0  0  0  0  0  0  0  0  0  0  0  0
   38.4120   32.8900   40.6090 C   0  0  0  0  0  0  0  0  0  0  0  0
   38.5220   33.4060   41.5530 H   0  0  0  0  0  0  0  0  0  0  0  0
   37.2620   32.9270   39.8480 C   0  0  0  0  0  0  0  0  0  0  0  0
   36.4080   33.4910   40.1830 H   0  0  0  0  0  0  0  0  0  0  0  0
   37.2030   32.2400   38.6530 C   0  0  0  0  0  3  0  0  0  0  0  0
   38.2870   31.4960   38.1760 C   0  0  0  0  0  3  0  0  0  0  0  0
  1  9  1  0  0  0  0
  2  1  2  0  0  0  0
  2  3  1  0  0  0  0
  3  4  2  0  0  0  0
  4  8  1  0  0  0  0
  4  5  1  0  0  0  0
  5  6  1  0  0  0  0
  6 13  1  0  0  0  0
  7  6  2  0  0  0  0
  8  7  1  0  0  0  0
  9  8  2  0  0  0  0
  9 26  1  0  0  0  0
 10  1  1  0  0  0  0
 11  3  1  0  0  0  0
 12  5  1  0  0  0  0
 14 20  1  0  0  0  0
 14 19  1  0  0  0  0
 15 14  2  0  0  0  0
 16 15  1  0  0  0  0
 16 17  2  0  0  0  0
 17 18  1  0  0  0  0
 18 19  2  0  0  0  0
 18  2  1  0  0  0  0
 21 16  1  0  0  0  0
 22 23  1  0  0  0  0
 22 15  1  0  0  0  0
 24 22  1  0  0  0  0
 25 22  1  0  0  0  0
 28 27  2  6  0  0  0
 28 26  1  0  0  0  0
 28 29  1  0  0  0  0
 30 29  1  0  0  0  0
 31 28  1  0  0  0  0
 32 33  1  0  0  0  0
 33 34  1  0  0  0  0
 34 35  2  0  0  0  0
 34 31  1  0  0  0  0
 35 36  1  0  0  0  0
 37 38  1  0  0  0  0
 37 35  1  0  0  0  0
 39 37  2  0  0  0  0
 40 39  1  0  0  0  0
 40 33  2  0  0  0  0
M  END
>  <minimizedAffinity>
-6.13881493

$$$$

 OpenBabel03242513433D

 40 43  0  0  0  0  0  0  0  0999 V2000
   39.7180   29.4910   40.0150 C   0  0  0  0  0  0  0  0  0  0  0  0
   39.6910   28.3350   39.2780 C   0  0  0  0  0  0  0  0  0  0  0  0
   40.3930   28.3190   38.0890 C   0  0  0  0  0  0  0  0  0  0  0  0
   41.1020   29.4080   37.6350 C   0  0  0  0  0  0  0  0  0  0  0  0
   41.8680   29.7180   36.5560 N   0  0  0  0  0  0  0  0  0  0  0  0
   42.3220   30.9880   36.6530 C   0  0  0  0  0  0  0  0  0  0  0  0
   41.8310   31.4790   37.8090 N   0  0  0  0  0  0  0  0  0  0  0  0
   41.0880   30.5360   38.4190 C   0  0  0  0  0  0  0  0  0  0  0  0
   40.4150   30.6080   39.6010 C   0  0  0  0  0  0  0  0  0  0  0  0
   39.1640   29.4900   40.9470 H   0  0  0  0  0  0  0  0  0  0  0  0
   40.4000   27.4230   37.4700 H   0  0  0  0  0  0  0  0  0  0  0  0
   42.0500   29.0460   35.7970 H   0  0  0  0  0  0  0  0  0  0  0  0
   42.9520   31.5380   35.9670 H   0  0  0  0  0  0  0  0  0  0  0  0
   37.4490   26.1640   41.1760 C   0  0  0  0  0  0  0  0  0  0  0  0
   37.5870   24.9280   40.5360 C   0  0  0  0  0  0  0  0  0  0  0  0
   38.4690   24.8850   39.4440 C   0  0  0  0  0  0  0  0  0  0  0  0
   39.1390   26.0050   39.0590 N   0  0  0  0  0  0  0  0  0  0  0  0
   38.9530   27.1680   39.7290 C   0  0  0  0  0  0  0  0  0  0  0  0
   38.1270   27.2510   40.7670 N   0  0  0  0  0  0  0  0  0  0  0  0
   36.7990   26.3330   42.0300 H   0  0  0  0  0  0  0  0  0  0  0  0
   38.5700   23.9320   38.9580 H   0  0  0  0  0  0  0  0  0  0  0  0
   36.8010   23.7730   41.0480 C   0  0  0  0  0  0  0  0  0  0  0  0
   36.6240   24.0270   42.3800 F   0  0  0  0  0  0  0  0  0  0  0  0
   37.5510   22.6410   40.8660 F   0  0  0  0  0  0  0  0  0  0  0  0
   35.6150   23.7150   40.3320 F   0  0  0  0  0  0  0  0  0  0  0  0
   40.4410   31.7790   40.3480 O   0  0  0  0  0  0  0  0  0  0  0  0
   40.4320   34.1610   39.3200 O   0  0  0  0  0  0  0  0  0  0  0  0
   39.5180   33.1560   40.0220 P   0  0  2  0  0  0  0  0  0  0  0  0
   39.1110   33.8520   41.5250 O   0  0  0  0  0  0  0  0  0  0  0  0
   38.1300   33.8040   41.6730 H   0  0  0  0  0  0  0  0  0  0  0  0
   38.1480   32.8760   39.1170 O   0  0  0  0  0  0  0  0  0  0  0  0
   37.6290   31.2200   36.7860 Cl  0  0  0  0  0  0  0  0  0  0  0  0
   36.9940   30.9730   38.4060 C   0  0  0  0  0  0  0  0  0  0  0  0
   37.3050   31.8220   39.4480 C   0  0  0  0  0  0  0  0  0  0  0  0
   36.7660   31.5590   40.6930 C   0  0  0  0  0  0  0  0  0  0  0  0
   37.0330   32.2490   41.4800 H   0  0  0  0  0  0  0  0  0  0  0  0
   35.9380   30.4710   40.8800 C   0  0  0  0  0  0  0  0  0  0  0  0
   35.5180   30.2690   41.8510 H   0  0  0  0  0  0  0  0  0  0  0  0
   35.6440   29.6370   39.8200 C   0  0  0  0  0  3  0  0  0  0  0  0
   36.1630   29.8590   38.5410 C   0  0  0  0  0  3  0  0  0  0  0  0
  1 10  1  0  0  0  0
  2 18  1  0  0  0  0
  2  1  2  0  0  0  0
  3  2  1  0  0  0  0
  4  3  2  0  0  0  0
  4  8  1  0  0  0  0
  5  6  1  0  0  0  0
  5  4  1  0  0  0  0
  6  7  2  0  0  0  0
  7  8  1  0  0  0  0
  8  9  2  0  0  0  0
  9  1  1  0  0  0  0
  9 26  1  0  0  0  0
 11  3  1  0  0  0  0
 12  5  1  0  0  0  0
 13  6  1  0  0  0  0
 14 20  1  0  0  0  0
 15 22  1  0  0  0  0
 15 14  2  0  0  0  0
 16 15  1  0  0  0  0
 17 16  2  0  0  0  0
 17 18  1  0  0  0  0
 18 19  2  0  0  0  0
 19 14  1  0  0  0  0
 21 16  1  0  0  0  0
 22 23  1  0  0  0  0
 24 22  1  0  0  0  0
 25 22  1  0  0  0  0
 28 27  2  6  0  0  0
 28 26  1  0  0  0  0
 28 29  1  0  0  0  0
 29 30  1  0  0  0  0
 31 34  1  0  0  0  0
 31 28  1  0  0  0  0
 32 33  1  0  0  0  0
 33 40  2  0  0  0  0
 33 34  1  0  0  0  0
 34 35  2  0  0  0  0
 35 37  1  0  0  0  0
 35 36  1  0  0  0  0
 37 38  1  0  0  0  0
 39 37  2  0  0  0  0
 40 39  1  0  0  0  0
M  END
>  <minimizedAffinity>
-6.09237671

$$$$

 OpenBabel03242513433D

 40 43  0  0  0  0  0  0  0  0999 V2000
   37.7230   29.7070   40.4870 C   0  0  0  0  0  0  0  0  0  0  0  0
   36.9130   29.8210   39.3860 C   0  0  0  0  0  0  0  0  0  0  0  0
   36.7460   31.0790   38.8440 C   0  0  0  0  0  0  0  0  0  0  0  0
   37.3570   32.1970   39.3670 C   0  0  0  0  0  0  0  0  0  0  0  0
   37.4040   33.5270   39.0920 N   0  0  0  0  0  0  0  0  0  0  0  0
   38.2000   34.1610   39.9830 C   0  0  0  0  0  0  0  0  0  0  0  0
   38.6550   33.2140   40.8270 N   0  0  0  0  0  0  0  0  0  0  0  0
   38.1550   32.0150   40.4710 C   0  0  0  0  0  0  0  0  0  0  0  0
   38.3570   30.7980   41.0470 C   0  0  0  0  0  0  0  0  0  0  0  0
   37.8460   28.7140   40.9030 H   0  0  0  0  0  0  0  0  0  0  0  0
   36.1110   31.2190   37.9700 H   0  0  0  0  0  0  0  0  0  0  0  0
   36.8910   33.9460   38.3040 H   0  0  0  0  0  0  0  0  0  0  0  0
   38.4480   35.2120   40.0420 H   0  0  0  0  0  0  0  0  0  0  0  0
   34.6020   27.7340   37.4780 C   0  0  0  0  0  0  0  0  0  0  0  0
   35.0480   26.4360   37.7480 C   0  0  0  0  0  0  0  0  0  0  0  0
   36.1590   26.3230   38.5990 C   0  0  0  0  0  0  0  0  0  0  0  0
   36.7430   27.4370   39.1160 N   0  0  0  0  0  0  0  0  0  0  0  0
   36.2540   28.6620   38.8090 C   0  0  0  0  0  0  0  0  0  0  0  0
   35.2040   28.8130   38.0070 N   0  0  0  0  0  0  0  0  0  0  0  0
   33.7550   27.9600   36.8350 H   0  0  0  0  0  0  0  0  0  0  0  0
   36.4970   25.3230   38.8020 H   0  0  0  0  0  0  0  0  0  0  0  0
   34.3280   25.2940   37.1230 C   0  0  0  0  0  0  0  0  0  0  0  0
   34.5080   24.2480   37.9840 F   0  0  0  0  0  0  0  0  0  0  0  0
   34.9180   25.0350   35.9140 F   0  0  0  0  0  0  0  0  0  0  0  0
   33.0000   25.6630   36.9690 F   0  0  0  0  0  0  0  0  0  0  0  0
   39.1760   30.6800   42.1620 O   0  0  0  0  0  0  0  0  0  0  0  0
   41.6470   30.4140   42.9070 O   0  0  0  0  0  0  0  0  0  0  0  0
   40.4900   29.6270   42.2920 P   0  0  2  0  0  0  0  0  0  0  0  0
   40.9730   29.2340   40.7030 O   0  0  0  0  0  0  0  0  0  0  0  0
   40.8190   28.2700   40.5240 H   0  0  0  0  0  0  0  0  0  0  0  0
   40.1890   28.2440   43.1690 O   0  0  0  0  0  0  0  0  0  0  0  0
   40.3880   25.9070   41.4540 Cl  0  0  0  0  0  0  0  0  0  0  0  0
   38.9420   26.4870   42.2660 C   0  0  0  0  0  0  0  0  0  0  0  0
   38.9550   27.6130   43.0630 C   0  0  0  0  0  0  0  0  0  0  0  0
   37.7750   28.0040   43.6670 C   0  0  0  0  0  0  0  0  0  0  0  0
   37.8300   28.8920   44.2820 H   0  0  0  0  0  0  0  0  0  0  0  0
   36.6170   27.2800   43.4730 C   0  0  0  0  0  0  0  0  0  0  0  0
   35.6990   27.5870   43.9450 H   0  0  0  0  0  0  0  0  0  0  0  0
   36.6320   26.1570   42.6710 C   0  0  0  0  0  3  0  0  0  0  0  0
   37.7980   25.7190   42.0370 C   0  0  0  0  0  3  0  0  0  0  0  0
  1 10  1  0  0  0  0
  1  9  1  0  0  0  0
  2  1  2  0  0  0  0
  3  4  2  0  0  0  0
  3  2  1  0  0  0  0
  4  8  1  0  0  0  0
  5  4  1  0  0  0  0
  5  6  1  0  0  0  0
  6 13  1  0  0  0  0
  6  7  2  0  0  0  0
  8  7  1  0  0  0  0
  8  9  2  0  0  0  0
  9 26  1  0  0  0  0
 11  3  1  0  0  0  0
 12  5  1  0  0  0  0
 14 15  2  0  0  0  0
 14 19  1  0  0  0  0
 15 16  1  0  0  0  0
 16 21  1  0  0  0  0
 16 17  2  0  0  0  0
 18 17  1  0  0  0  0
 18  2  1  0  0  0  0
 19 18  2  0  0  0  0
 20 14  1  0  0  0  0
 22 15  1  0  0  0  0
 22 23  1  0  0  0  0
 24 22  1  0  0  0  0
 25 22  1  0  0  0  0
 26 28  1  0  0  0  0
 28 27  2  1  0  0  0
 28 31  1  0  0  0  0
 29 28  1  0  0  0  0
 30 29  1  0  0  0  0
 32 33  1  0  0  0  0
 33 34  1  0  0  0  0
 34 31  1  0  0  0  0
 34 35  2  0  0  0  0
 35 36  1  0  0  0  0
 37 35  1  0  0  0  0
 37 38  1  0  0  0  0
 39 37  2  0  0  0  0
 40 33  2  0  0  0  0
 40 39  1  0  0  0  0
M  END
>  <minimizedAffinity>
-6.0286541

$$$$

 OpenBabel03242513433D

 40 43  0  0  0  0  0  0  0  0999 V2000
   37.6060   27.0430   39.2520 C   0  0  0  0  0  0  0  0  0  0  0  0
   36.8990   28.1260   38.7990 C   0  0  0  0  0  0  0  0  0  0  0  0
   35.7890   27.8810   38.0160 C   0  0  0  0  0  0  0  0  0  0  0  0
   35.3840   26.6080   37.6850 C   0  0  0  0  0  0  0  0  0  0  0  0
   34.3820   26.0370   36.9640 N   0  0  0  0  0  0  0  0  0  0  0  0
   34.4950   24.6900   36.9920 C   0  0  0  0  0  0  0  0  0  0  0  0
   35.5820   24.4160   37.7410 N   0  0  0  0  0  0  0  0  0  0  0  0
   36.1360   25.5660   38.1700 C   0  0  0  0  0  0  0  0  0  0  0  0
   37.2390   25.7480   38.9480 C   0  0  0  0  0  0  0  0  0  0  0  0
   38.4760   27.2480   39.8670 H   0  0  0  0  0  0  0  0  0  0  0  0
   35.1960   28.7110   37.6320 H   0  0  0  0  0  0  0  0  0  0  0  0
   33.6620   26.5930   36.4830 H   0  0  0  0  0  0  0  0  0  0  0  0
   33.8640   23.9470   36.5250 H   0  0  0  0  0  0  0  0  0  0  0  0
   36.9710   31.7720   39.0040 C   0  0  0  0  0  0  0  0  0  0  0  0
   38.1040   32.0250   39.7840 C   0  0  0  0  0  0  0  0  0  0  0  0
   38.8210   30.9000   40.2260 C   0  0  0  0  0  0  0  0  0  0  0  0
   38.4080   29.6480   39.8900 N   0  0  0  0  0  0  0  0  0  0  0  0
   37.2990   29.4830   39.1290 C   0  0  0  0  0  0  0  0  0  0  0  0
   36.5910   30.5210   38.6920 N   0  0  0  0  0  0  0  0  0  0  0  0
   36.3300   32.5520   38.6010 H   0  0  0  0  0  0  0  0  0  0  0  0
   39.6900   31.1020   40.8250 H   0  0  0  0  0  0  0  0  0  0  0  0
   38.4570   33.4380   40.0860 C   0  0  0  0  0  0  0  0  0  0  0  0
   37.3470   34.1610   39.7470 F   0  0  0  0  0  0  0  0  0  0  0  0
   39.5210   33.7830   39.2960 F   0  0  0  0  0  0  0  0  0  0  0  0
   38.7790   33.5160   41.4330 F   0  0  0  0  0  0  0  0  0  0  0  0
   37.9580   24.6510   39.4070 O   0  0  0  0  0  0  0  0  0  0  0  0
   37.9740   22.2600   40.4130 O   0  0  0  0  0  0  0  0  0  0  0  0
   37.5150   23.6850   40.7210 P   0  0  2  0  0  0  0  0  0  0  0  0
   35.8100   23.6390   40.7540 O   0  0  0  0  0  0  0  0  0  0  0  0
   35.4690   24.0880   41.5710 H   0  0  0  0  0  0  0  0  0  0  0  0
   38.1150   24.1910   42.1890 O   0  0  0  0  0  0  0  0  0  0  0  0
   40.7930   25.2020   42.6900 Cl  0  0  0  0  0  0  0  0  0  0  0  0
   39.2960   26.1170   42.7860 C   0  0  0  0  0  0  0  0  0  0  0  0
   38.0700   25.5390   42.5260 C   0  0  0  0  0  0  0  0  0  0  0  0
   36.9390   26.3260   42.6220 C   0  0  0  0  0  0  0  0  0  0  0  0
   36.0000   25.8340   42.4120 H   0  0  0  0  0  0  0  0  0  0  0  0
   37.0420   27.6580   42.9690 C   0  0  0  0  0  0  0  0  0  0  0  0
   36.1580   28.2690   43.0440 H   0  0  0  0  0  0  0  0  0  0  0  0
   38.2800   28.2110   43.2230 C   0  0  0  0  0  3  0  0  0  0  0  0
   39.4550   27.4580   43.1400 C   0  0  0  0  0  3  0  0  0  0  0  0
  1 10  1  0  0  0  0
  2 18  1  0  0  0  0
  2  1  2  0  0  0  0
  3  2  1  0  0  0  0
  4  3  2  0  0  0  0
  4  8  1  0  0  0  0
  5  6  1  0  0  0  0
  5  4  1  0  0  0  0
  6  7  2  0  0  0  0
  7  8  1  0  0  0  0
  8  9  2  0  0  0  0
  9  1  1  0  0  0  0
  9 26  1  0  0  0  0
 11  3  1  0  0  0  0
 12  5  1  0  0  0  0
 13  6  1  0  0  0  0
 14 15  1  0  0  0  0
 15 22  1  0  0  0  0
 15 16  2  0  0  0  0
 16 21  1  0  0  0  0
 17 16  1  0  0  0  0
 18 17  2  0  0  0  0
 19 14  2  0  0  0  0
 19 18  1  0  0  0  0
 20 14  1  0  0  0  0
 22 25  1  0  0  0  0
 23 22  1  0  0  0  0
 24 22  1  0  0  0  0
 26 28  1  0  0  0  0
 28 27  2  6  0  0  0
 28 29  1  0  0  0  0
 28 31  1  0  0  0  0
 29 30  1  0  0  0  0
 31 34  1  0  0  0  0
 32 33  1  0  0  0  0
 33 40  1  0  0  0  0
 34 35  1  0  0  0  0
 34 33  2  0  0  0  0
 35 37  2  0  0  0  0
 36 35  1  0  0  0  0
 37 38  1  0  0  0  0
 37 39  1  0  0  0  0
 40 39  2  0  0  0  0
M  END
>  <minimizedAffinity>
-5.99602985

$$$$

 OpenBabel03242513433D

 40 43  0  0  0  0  0  0  0  0999 V2000
   37.7050   29.1840   41.2890 C   0  0  0  0  0  0  0  0  0  0  0  0
   37.0210   28.1020   40.7990 C   0  0  0  0  0  0  0  0  0  0  0  0
   37.3770   26.8540   41.2720 C   0  0  0  0  0  0  0  0  0  0  0  0
   38.3770   26.6730   42.2000 C   0  0  0  0  0  0  0  0  0  0  0  0
   38.9560   25.6280   42.8490 N   0  0  0  0  0  0  0  0  0  0  0  0
   39.9280   26.0730   43.6760 C   0  0  0  0  0  0  0  0  0  0  0  0
   39.9570   27.4140   43.5420 N   0  0  0  0  0  0  0  0  0  0  0  0
   39.0240   27.7980   42.6500 C   0  0  0  0  0  0  0  0  0  0  0  0
   38.7150   29.0520   42.2210 C   0  0  0  0  0  0  0  0  0  0  0  0
   37.4160   30.1580   40.9110 H   0  0  0  0  0  0  0  0  0  0  0  0
   36.8610   25.9650   40.9100 H   0  0  0  0  0  0  0  0  0  0  0  0
   38.6610   24.6540   42.6990 H   0  0  0  0  0  0  0  0  0  0  0  0
   40.5740   25.5030   44.3310 H   0  0  0  0  0  0  0  0  0  0  0  0
   34.0120   29.2830   39.0980 C   0  0  0  0  0  0  0  0  0  0  0  0
   33.9800   28.5070   37.9340 C   0  0  0  0  0  0  0  0  0  0  0  0
   35.0240   27.5820   37.7710 C   0  0  0  0  0  0  0  0  0  0  0  0
   35.9960   27.4710   38.7170 N   0  0  0  0  0  0  0  0  0  0  0  0
   35.9600   28.2580   39.8190 C   0  0  0  0  0  0  0  0  0  0  0  0
   34.9890   29.1470   40.0110 N   0  0  0  0  0  0  0  0  0  0  0  0
   33.2670   30.0340   39.3430 H   0  0  0  0  0  0  0  0  0  0  0  0
   34.9920   26.9900   36.8750 H   0  0  0  0  0  0  0  0  0  0  0  0
   32.8650   28.7180   36.9720 C   0  0  0  0  0  0  0  0  0  0  0  0
   32.5460   27.4680   36.5190 F   0  0  0  0  0  0  0  0  0  0  0  0
   33.3350   29.5000   35.9490 F   0  0  0  0  0  0  0  0  0  0  0  0
   31.8300   29.3430   37.6520 F   0  0  0  0  0  0  0  0  0  0  0  0
   39.4080   30.1500   42.7160 O   0  0  0  0  0  0  0  0  0  0  0  0
   41.7150   29.6100   41.6580 O   0  0  0  0  0  0  0  0  0  0  0  0
   40.8180   30.7880   42.0410 P   0  0  2  0  0  0  0  0  0  0  0  0
   41.6340   31.6220   43.2850 O   0  0  0  0  0  0  0  0  0  0  0  0
   41.6610   32.5950   43.0890 H   0  0  0  0  0  0  0  0  0  0  0  0
   40.5720   31.7880   40.7320 O   0  0  0  0  0  0  0  0  0  0  0  0
   38.2590   33.5430   40.6410 Cl  0  0  0  0  0  0  0  0  0  0  0  0
   38.5700   32.1700   39.5910 C   0  0  0  0  0  0  0  0  0  0  0  0
   39.7060   31.3970   39.7180 C   0  0  0  0  0  0  0  0  0  0  0  0
   39.8770   30.3340   38.8520 C   0  0  0  0  0  0  0  0  0  0  0  0
   40.7800   29.7550   38.9860 H   0  0  0  0  0  0  0  0  0  0  0  0
   38.9300   30.0600   37.8860 C   0  0  0  0  0  0  0  0  0  0  0  0
   39.0660   29.2300   37.2140 H   0  0  0  0  0  0  0  0  0  0  0  0
   37.8030   30.8490   37.7810 C   0  0  0  0  0  3  0  0  0  0  0  0
   37.5820   31.9360   38.6320 C   0  0  0  0  0  3  0  0  0  0  0  0
  1  9  1  0  0  0  0
  2  3  1  0  0  0  0
  2  1  2  0  0  0  0
  3  4  2  0  0  0  0
  4  8  1  0  0  0  0
  4  5  1  0  0  0  0
  5  6  1  0  0  0  0
  6 13  1  0  0  0  0
  7  6  2  0  0  0  0
  8  7  1  0  0  0  0
  9  8  2  0  0  0  0
  9 26  1  0  0  0  0
 10  1  1  0  0  0  0
 11  3  1  0  0  0  0
 12  5  1  0  0  0  0
 14 20  1  0  0  0  0
 14 19  1  0  0  0  0
 15 14  2  0  0  0  0
 16 15  1  0  0  0  0
 16 17  2  0  0  0  0
 17 18  1  0  0  0  0
 18 19  2  0  0  0  0
 18  2  1  0  0  0  0
 21 16  1  0  0  0  0
 22 25  1  0  0  0  0
 22 15  1  0  0  0  0
 23 22  1  0  0  0  0
 24 22  1  0  0  0  0
 28 27  2  6  0  0  0
 28 26  1  0  0  0  0
 28 29  1  0  0  0  0
 30 29  1  0  0  0  0
 31 28  1  0  0  0  0
 33 34  1  0  0  0  0
 33 32  1  0  0  0  0
 34 31  1  0  0  0  0
 35 36  1  0  0  0  0
 35 34  2  0  0  0  0
 37 35  1  0  0  0  0
 38 37  1  0  0  0  0
 39 37  2  0  0  0  0
 39 40  1  0  0  0  0
 40 33  2  0  0  0  0
M  END
>  <minimizedAffinity>
-5.96120644

$$$$
