
 OpenBabel03242517293D

 40 42  0  0  1  0  0  0  0  0999 V2000
   39.6270   33.0230   40.5190 C   0  0  0  0  0  0  0  0  0  0  0  0
   38.8620   34.2130   40.4760 C   0  0  0  0  0  0  0  0  0  0  0  0
   37.6790   34.1940   39.7310 C   0  0  0  0  0  0  0  0  0  0  0  0
   37.3420   33.0480   39.1020 N   0  0  0  0  0  0  0  0  0  0  0  0
   38.0810   31.9210   39.1520 C   0  0  0  0  0  0  0  0  0  0  0  0
   39.2080   31.9380   39.8610 N   0  0  0  0  0  0  0  0  0  0  0  0
   37.6400   30.7880   38.4630 N   0  0  0  0  0  0  0  0  0  0  0  0
   37.4200   30.8440   37.0400 C   0  0  0  0  0  0  0  0  0  0  0  0
   36.6240   29.6970   36.5070 C   0  0  0  0  0  0  0  0  0  0  0  0
   36.7290   28.4610   37.1930 N   0  0  0  0  0  0  0  0  0  0  0  0
   37.7200   28.4730   38.2240 C   0  0  0  0  0  0  0  0  0  0  0  0
   37.4050   29.5460   39.2160 C   0  0  2  0  0  0  0  0  0  0  0  0
   40.5440   33.0220   41.0900 H   0  0  0  0  0  0  0  0  0  0  0  0
   39.1650   35.1140   40.9950 H   0  0  0  0  0  0  0  0  0  0  0  0
   37.0490   35.0770   39.6600 H   0  0  0  0  0  0  0  0  0  0  0  0
   38.3890   30.9900   36.4910 H   0  0  0  0  0  0  0  0  0  0  0  0
   36.8290   31.7710   36.8490 H   0  0  0  0  0  0  0  0  0  0  0  0
   35.5510   29.9590   36.3920 H   0  0  0  0  0  0  0  0  0  0  0  0
   36.9720   29.5240   35.4480 H   0  0  0  0  0  0  0  0  0  0  0  0
   36.7740   27.6380   36.5630 H   0  0  0  0  0  0  0  0  0  0  0  0
   38.7530   28.5710   37.8440 H   0  0  0  0  0  0  0  0  0  0  0  0
   37.6880   27.4940   38.7440 H   0  0  0  0  0  0  0  0  0  0  0  0
   38.1610   29.5210   40.0260 H   0  0  0  0  0  0  0  0  0  0  0  0
   36.0100   29.4560   39.7200 C   0  0  0  0  0  0  0  0  0  0  0  0
   35.3330   29.1830   38.8830 H   0  0  0  0  0  0  0  0  0  0  0  0
   35.6980   30.4180   40.1760 H   0  0  0  0  0  0  0  0  0  0  0  0
   35.9760   28.3710   40.7720 C   0  0  0  0  0  3  0  0  0  0  0  0
   36.6670   28.4890   41.9070 C   0  0  0  0  0  3  0  0  0  0  0  0
   36.6570   27.4550   42.9750 C   0  0  0  0  0  0  0  0  0  0  0  0
   35.7580   26.8050   42.7600 H   0  0  0  0  0  0  0  0  0  0  0  0
   36.4760   27.9000   43.9800 H   0  0  0  0  0  0  0  0  0  0  0  0
   36.7900   24.6900   41.5200 Cl  0  0  0  0  0  0  0  0  0  0  0  0
   38.1340   25.3810   42.4260 C   0  0  0  0  0  0  0  0  0  0  0  0
   37.8330   26.5890   42.9710 C   0  0  0  0  0  0  0  0  0  0  0  0
   38.8680   27.1670   43.7000 C   0  0  0  0  0  0  0  0  0  0  0  0
   38.8560   28.1260   44.2220 H   0  0  0  0  0  0  0  0  0  0  0  0
   40.1050   26.5490   43.8520 C   0  0  0  0  0  0  0  0  0  0  0  0
   40.9370   26.9530   44.4030 H   0  0  0  0  0  0  0  0  0  0  0  0
   40.3630   25.3230   43.2790 C   0  0  0  0  0  3  0  0  0  0  0  0
   39.3270   24.7400   42.5470 C   0  0  0  0  0  3  0  0  0  0  0  0
  1 13  1  0  0  0  0
  2  1  1  0  0  0  0
  2 14  1  0  0  0  0
  3  2  2  0  0  0  0
  4  5  2  0  0  0  0
  4  3  1  0  0  0  0
  5  6  1  0  0  0  0
  6  1  2  0  0  0  0
  7  5  1  0  0  0  0
  7 12  1  0  0  0  0
  8  7  1  0  0  0  0
  9  8  1  0  0  0  0
  9 10  1  0  0  0  0
 10 11  1  0  0  0  0
 11 22  1  0  0  0  0
 11 12  1  0  0  0  0
 12 24  1  0  0  0  0
 12 23  1  1  0  0  0
 15  3  1  0  0  0  0
 16  8  1  0  0  0  0
 17  8  1  0  0  0  0
 18  9  1  0  0  0  0
 19  9  1  0  0  0  0
 20 10  1  0  0  0  0
 21 11  1  0  0  0  0
 24 26  1  0  0  0  0
 24 27  1  0  0  0  0
 25 24  1  0  0  0  0
 27 28  2  0  0  0  0
 28 29  1  0  0  0  0
 29 31  1  0  0  0  0
 30 29  1  0  0  0  0
 32 33  1  0  0  0  0
 33 40  2  0  0  0  0
 33 34  1  0  0  0  0
 34 29  1  0  0  0  0
 34 35  2  0  0  0  0
 35 37  1  0  0  0  0
 35 36  1  0  0  0  0
 37 38  1  0  0  0  0
 39 37  2  0  0  0  0
 40 39  1  0  0  0  0
M  END
>  <minimizedAffinity>
-6.07048798

$$$$

 OpenBabel03242517293D

 40 42  0  0  1  0  0  0  0  0999 V2000
   41.2100   28.7860   40.2330 C   0  0  0  0  0  0  0  0  0  0  0  0
   41.7370   28.8430   41.5460 C   0  0  0  0  0  0  0  0  0  0  0  0
   41.3150   29.8920   42.3670 C   0  0  0  0  0  0  0  0  0  0  0  0
   40.4350   30.7820   41.8600 N   0  0  0  0  0  0  0  0  0  0  0  0
   39.9410   30.7150   40.6070 C   0  0  0  0  0  0  0  0  0  0  0  0
   40.3420   29.7170   39.8230 N   0  0  0  0  0  0  0  0  0  0  0  0
   39.0320   31.6900   40.1820 N   0  0  0  0  0  0  0  0  0  0  0  0
   39.4020   33.0820   40.2000 C   0  0  0  0  0  0  0  0  0  0  0  0
   38.2420   34.0150   40.0660 C   0  0  0  0  0  0  0  0  0  0  0  0
   37.1210   33.5550   39.3330 N   0  0  0  0  0  0  0  0  0  0  0  0
   37.3440   32.2930   38.6970 C   0  0  0  0  0  0  0  0  0  0  0  0
   37.7010   31.2660   39.7220 C   0  0  2  0  0  0  0  0  0  0  0  0
   41.5280   27.9820   39.5870 H   0  0  0  0  0  0  0  0  0  0  0  0
   42.4420   28.1100   41.9180 H   0  0  0  0  0  0  0  0  0  0  0  0
   41.6840   29.9890   43.3850 H   0  0  0  0  0  0  0  0  0  0  0  0
   40.2120   33.2900   39.4500 H   0  0  0  0  0  0  0  0  0  0  0  0
   39.8650   33.2730   41.1960 H   0  0  0  0  0  0  0  0  0  0  0  0
   37.9020   34.3920   41.0540 H   0  0  0  0  0  0  0  0  0  0  0  0
   38.6270   34.9400   39.5470 H   0  0  0  0  0  0  0  0  0  0  0  0
   36.6990   34.2780   38.7190 H   0  0  0  0  0  0  0  0  0  0  0  0
   38.1000   32.3320   37.8900 H   0  0  0  0  0  0  0  0  0  0  0  0
   36.4010   31.9850   38.2030 H   0  0  0  0  0  0  0  0  0  0  0  0
   37.8380   30.2880   39.2200 H   0  0  0  0  0  0  0  0  0  0  0  0
   36.7170   31.2150   40.8350 C   0  0  0  0  0  0  0  0  0  0  0  0
   35.8200   31.8110   40.5620 H   0  0  0  0  0  0  0  0  0  0  0  0
   37.1700   31.5980   41.7730 H   0  0  0  0  0  0  0  0  0  0  0  0
   36.3230   29.7680   41.0260 C   0  0  0  0  0  3  0  0  0  0  0  0
   36.9000   29.0150   41.9650 C   0  0  0  0  0  3  0  0  0  0  0  0
   36.5380   27.5920   42.1980 C   0  0  0  0  0  0  0  0  0  0  0  0
   36.1320   27.2150   41.2120 H   0  0  0  0  0  0  0  0  0  0  0  0
   35.7030   27.4910   42.9280 H   0  0  0  0  0  0  0  0  0  0  0  0
   36.8950   24.6420   41.2220 Cl  0  0  0  0  0  0  0  0  0  0  0  0
   38.0490   25.4710   42.2640 C   0  0  0  0  0  0  0  0  0  0  0  0
   37.6730   26.7440   42.5550 C   0  0  0  0  0  0  0  0  0  0  0  0
   38.5560   27.4320   43.3810 C   0  0  0  0  0  0  0  0  0  0  0  0
   38.4620   28.4580   43.7440 H   0  0  0  0  0  0  0  0  0  0  0  0
   39.7250   26.8540   43.8640 C   0  0  0  0  0  0  0  0  0  0  0  0
   40.4410   27.3420   44.5040 H   0  0  0  0  0  0  0  0  0  0  0  0
   40.0650   25.5590   43.5410 C   0  0  0  0  0  3  0  0  0  0  0  0
   39.1810   24.8650   42.7120 C   0  0  0  0  0  3  0  0  0  0  0  0
  1  2  1  0  0  0  0
  2 14  1  0  0  0  0
  2  3  2  0  0  0  0
  3 15  1  0  0  0  0
  4  3  1  0  0  0  0
  5  4  2  0  0  0  0
  6  1  2  0  0  0  0
  6  5  1  0  0  0  0
  7  8  1  0  0  0  0
  7  5  1  0  0  0  0
  8 17  1  0  0  0  0
  9  8  1  0  0  0  0
  9 18  1  0  0  0  0
 10  9  1  0  0  0  0
 11 10  1  0  0  0  0
 11 12  1  0  0  0  0
 12 23  1  6  0  0  0
 12  7  1  0  0  0  0
 12 24  1  0  0  0  0
 13  1  1  0  0  0  0
 16  8  1  0  0  0  0
 19  9  1  0  0  0  0
 20 10  1  0  0  0  0
 21 11  1  0  0  0  0
 22 11  1  0  0  0  0
 24 27  1  0  0  0  0
 24 26  1  0  0  0  0
 25 24  1  0  0  0  0
 27 28  2  0  0  0  0
 28 29  1  0  0  0  0
 29 34  1  0  0  0  0
 29 31  1  0  0  0  0
 30 29  1  0  0  0  0
 32 33  1  0  0  0  0
 33 34  2  0  0  0  0
 33 40  1  0  0  0  0
 34 35  1  0  0  0  0
 35 36  1  0  0  0  0
 35 37  2  0  0  0  0
 37 38  1  0  0  0  0
 39 37  1  0  0  0  0
 40 39  2  0  0  0  0
M  END
>  <minimizedAffinity>
-6.057477

$$$$

 OpenBabel03242517293D

 40 42  0  0  1  0  0  0  0  0999 V2000
   40.0690   28.0960   37.2440 C   0  0  0  0  0  0  0  0  0  0  0  0
   41.3630   28.6130   36.9940 C   0  0  0  0  0  0  0  0  0  0  0  0
   41.6430   29.9040   37.4500 C   0  0  0  0  0  0  0  0  0  0  0  0
   40.6660   30.5750   38.0970 N   0  0  0  0  0  0  0  0  0  0  0  0
   39.4370   30.0700   38.3280 C   0  0  0  0  0  0  0  0  0  0  0  0
   39.1690   28.8400   37.8940 N   0  0  0  0  0  0  0  0  0  0  0  0
   38.4980   30.8510   39.0090 N   0  0  0  0  0  0  0  0  0  0  0  0
   38.1140   32.1390   38.4910 C   0  0  0  0  0  0  0  0  0  0  0  0
   37.3940   32.9970   39.4810 C   0  0  0  0  0  0  0  0  0  0  0  0
   36.6280   32.3390   40.4740 N   0  0  0  0  0  0  0  0  0  0  0  0
   36.5450   30.9250   40.2740 C   0  0  0  0  0  0  0  0  0  0  0  0
   37.9170   30.3340   40.2580 C   0  0  2  0  0  0  0  0  0  0  0  0
   39.8390   27.1000   36.8960 H   0  0  0  0  0  0  0  0  0  0  0  0
   42.1220   28.0430   36.4720 H   0  0  0  0  0  0  0  0  0  0  0  0
   42.6180   30.3560   37.2890 H   0  0  0  0  0  0  0  0  0  0  0  0
   37.5490   32.0290   37.5250 H   0  0  0  0  0  0  0  0  0  0  0  0
   39.0590   32.6670   38.2230 H   0  0  0  0  0  0  0  0  0  0  0  0
   38.0790   33.7210   39.9710 H   0  0  0  0  0  0  0  0  0  0  0  0
   36.6900   33.6520   38.8920 H   0  0  0  0  0  0  0  0  0  0  0  0
   35.7190   32.7990   40.6730 H   0  0  0  0  0  0  0  0  0  0  0  0
   35.9760   30.6390   39.3700 H   0  0  0  0  0  0  0  0  0  0  0  0
   35.9840   30.4890   41.1250 H   0  0  0  0  0  0  0  0  0  0  0  0
   37.8360   29.2350   40.1370 H   0  0  0  0  0  0  0  0  0  0  0  0
   38.7150   30.7290   41.4490 C   0  0  0  0  0  0  0  0  0  0  0  0
   38.1820   31.5340   41.9980 H   0  0  0  0  0  0  0  0  0  0  0  0
   39.7270   31.0680   41.1450 H   0  0  0  0  0  0  0  0  0  0  0  0
   38.8420   29.5120   42.3350 C   0  0  0  0  0  3  0  0  0  0  0  0
   37.7860   29.0200   42.9870 C   0  0  0  0  0  3  0  0  0  0  0  0
   37.8580   27.8190   43.8600 C   0  0  0  0  0  0  0  0  0  0  0  0
   36.8240   27.7030   44.3030 H   0  0  0  0  0  0  0  0  0  0  0  0
   38.5420   27.9770   44.7250 H   0  0  0  0  0  0  0  0  0  0  0  0
   40.6690   26.4470   43.8670 Cl  0  0  0  0  0  0  0  0  0  0  0  0
   39.2740   25.8100   42.9990 C   0  0  0  0  0  0  0  0  0  0  0  0
   38.1670   26.5850   43.1440 C   0  0  0  0  0  0  0  0  0  0  0  0
   37.0440   26.1170   42.4680 C   0  0  0  0  0  0  0  0  0  0  0  0
   36.0510   26.5710   42.4400 H   0  0  0  0  0  0  0  0  0  0  0  0
   37.0650   24.9520   41.7080 C   0  0  0  0  0  0  0  0  0  0  0  0
   36.2260   24.5480   41.1680 H   0  0  0  0  0  0  0  0  0  0  0  0
   38.2120   24.2000   41.5910 C   0  0  0  0  0  3  0  0  0  0  0  0
   39.3410   24.6650   42.2680 C   0  0  0  0  0  3  0  0  0  0  0  0
  1  6  1  0  0  0  0
  2  1  2  0  0  0  0
  2  3  1  0  0  0  0
  3  4  2  0  0  0  0
  4  5  1  0  0  0  0
  5  7  1  0  0  0  0
  6  5  2  0  0  0  0
  7 12  1  0  0  0  0
  8  7  1  0  0  0  0
  8  9  1  0  0  0  0
  9 18  1  0  0  0  0
  9 10  1  0  0  0  0
 10 20  1  0  0  0  0
 11 10  1  0  0  0  0
 11 22  1  0  0  0  0
 12 23  1  6  0  0  0
 12 11  1  0  0  0  0
 12 24  1  0  0  0  0
 13  1  1  0  0  0  0
 14  2  1  0  0  0  0
 15  3  1  0  0  0  0
 16  8  1  0  0  0  0
 17  8  1  0  0  0  0
 19  9  1  0  0  0  0
 21 11  1  0  0  0  0
 24 25  1  0  0  0  0
 24 27  1  0  0  0  0
 26 24  1  0  0  0  0
 27 28  2  0  0  0  0
 28 29  1  0  0  0  0
 29 30  1  0  0  0  0
 29 31  1  0  0  0  0
 33 34  1  0  0  0  0
 33 32  1  0  0  0  0
 34 29  1  0  0  0  0
 35 34  2  0  0  0  0
 36 35  1  0  0  0  0
 37 35  1  0  0  0  0
 38 37  1  0  0  0  0
 39 37  2  0  0  0  0
 39 40  1  0  0  0  0
 40 33  2  0  0  0  0
M  END
>  <minimizedAffinity>
-6.00540972

$$$$

 OpenBabel03242517293D

 40 42  0  0  1  0  0  0  0  0999 V2000
   37.8210   28.7710   36.6680 C   0  0  0  0  0  0  0  0  0  0  0  0
   38.8140   27.8520   37.0850 C   0  0  0  0  0  0  0  0  0  0  0  0
   39.6440   28.2330   38.1430 C   0  0  0  0  0  0  0  0  0  0  0  0
   39.4480   29.4480   38.6990 N   0  0  0  0  0  0  0  0  0  0  0  0
   38.4980   30.3140   38.2910 C   0  0  0  0  0  0  0  0  0  0  0  0
   37.7070   29.9520   37.2820 N   0  0  0  0  0  0  0  0  0  0  0  0
   38.3800   31.5480   38.9370 N   0  0  0  0  0  0  0  0  0  0  0  0
   39.5000   32.4530   38.9790 C   0  0  0  0  0  0  0  0  0  0  0  0
   39.3510   33.5490   39.9850 C   0  0  0  0  0  0  0  0  0  0  0  0
   38.0360   33.9820   40.2830 N   0  0  0  0  0  0  0  0  0  0  0  0
   37.0440   33.3860   39.4410 C   0  0  0  0  0  0  0  0  0  0  0  0
   37.0990   31.8990   39.5690 C   0  0  2  0  0  0  0  0  0  0  0  0
   37.1730   28.4910   35.8500 H   0  0  0  0  0  0  0  0  0  0  0  0
   38.9410   26.8850   36.6140 H   0  0  0  0  0  0  0  0  0  0  0  0
   40.4240   27.5710   38.5080 H   0  0  0  0  0  0  0  0  0  0  0  0
   39.7410   32.8410   37.9520 H   0  0  0  0  0  0  0  0  0  0  0  0
   40.3850   31.8470   39.2820 H   0  0  0  0  0  0  0  0  0  0  0  0
   39.8790   33.3100   40.9330 H   0  0  0  0  0  0  0  0  0  0  0  0
   39.9150   34.4390   39.5820 H   0  0  0  0  0  0  0  0  0  0  0  0
   37.9500   35.0110   40.3880 H   0  0  0  0  0  0  0  0  0  0  0  0
   37.1160   33.7000   38.3830 H   0  0  0  0  0  0  0  0  0  0  0  0
   36.0480   33.7330   39.7840 H   0  0  0  0  0  0  0  0  0  0  0  0
   36.3040   31.4530   38.9380 H   0  0  0  0  0  0  0  0  0  0  0  0
   37.0360   31.4520   40.9850 C   0  0  0  0  0  0  0  0  0  0  0  0
   36.2920   32.0680   41.5330 H   0  0  0  0  0  0  0  0  0  0  0  0
   38.0340   31.5290   41.4630 H   0  0  0  0  0  0  0  0  0  0  0  0
   36.5940   30.0070   40.9850 C   0  0  0  0  0  3  0  0  0  0  0  0
   37.0550   29.1440   41.8930 C   0  0  0  0  0  3  0  0  0  0  0  0
   36.6420   27.7170   41.9410 C   0  0  0  0  0  0  0  0  0  0  0  0
   36.4040   27.4330   40.8730 H   0  0  0  0  0  0  0  0  0  0  0  0
   35.6930   27.5800   42.5090 H   0  0  0  0  0  0  0  0  0  0  0  0
   36.8300   24.6960   41.1520 Cl  0  0  0  0  0  0  0  0  0  0  0  0
   37.9840   25.5020   42.2130 C   0  0  0  0  0  0  0  0  0  0  0  0
   37.6880   26.8130   42.4100 C   0  0  0  0  0  0  0  0  0  0  0  0
   38.5740   27.4840   43.2480 C   0  0  0  0  0  0  0  0  0  0  0  0
   38.5380   28.5340   43.5470 H   0  0  0  0  0  0  0  0  0  0  0  0
   39.6690   26.8530   43.8300 C   0  0  0  0  0  0  0  0  0  0  0  0
   40.3820   27.3260   44.4830 H   0  0  0  0  0  0  0  0  0  0  0  0
   39.9270   25.5200   43.5990 C   0  0  0  0  0  3  0  0  0  0  0  0
   39.0410   24.8440   42.7600 C   0  0  0  0  0  3  0  0  0  0  0  0
  1  2  2  0  0  0  0
  1  6  1  0  0  0  0
  2  3  1  0  0  0  0
  3 15  1  0  0  0  0
  3  4  2  0  0  0  0
  5  4  1  0  0  0  0
  5  7  1  0  0  0  0
  6  5  2  0  0  0  0
  7  8  1  0  0  0  0
  7 12  1  0  0  0  0
  8 17  1  0  0  0  0
  8  9  1  0  0  0  0
  9 10  1  0  0  0  0
  9 18  1  0  0  0  0
 10 20  1  0  0  0  0
 11 12  1  0  0  0  0
 11 22  1  0  0  0  0
 11 10  1  0  0  0  0
 12 23  1  6  0  0  0
 12 24  1  0  0  0  0
 13  1  1  0  0  0  0
 14  2  1  0  0  0  0
 16  8  1  0  0  0  0
 19  9  1  0  0  0  0
 21 11  1  0  0  0  0
 24 27  1  0  0  0  0
 24 26  1  0  0  0  0
 24 25  1  0  0  0  0
 27 28  2  0  0  0  0
 28 29  1  0  0  0  0
 29 34  1  0  0  0  0
 29 31  1  0  0  0  0
 30 29  1  0  0  0  0
 32 33  1  0  0  0  0
 33 34  2  0  0  0  0
 33 40  1  0  0  0  0
 34 35  1  0  0  0  0
 35 36  1  0  0  0  0
 35 37  2  0  0  0  0
 37 38  1  0  0  0  0
 39 37  1  0  0  0  0
 40 39  2  0  0  0  0
M  END
>  <minimizedAffinity>
-5.8908267

$$$$

 OpenBabel03242517293D

 40 42  0  0  1  0  0  0  0  0999 V2000
   38.8680   29.0270   37.5590 C   0  0  0  0  0  0  0  0  0  0  0  0
   40.0940   28.4880   37.1010 C   0  0  0  0  0  0  0  0  0  0  0  0
   41.2660   29.1700   37.4370 C   0  0  0  0  0  0  0  0  0  0  0  0
   41.1570   30.2950   38.1760 N   0  0  0  0  0  0  0  0  0  0  0  0
   39.9820   30.7980   38.6060 C   0  0  0  0  0  0  0  0  0  0  0  0
   38.8640   30.1490   38.2850 N   0  0  0  0  0  0  0  0  0  0  0  0
   39.9820   31.9710   39.3660 N   0  0  0  0  0  0  0  0  0  0  0  0
   40.5570   33.1790   38.8330 C   0  0  0  0  0  0  0  0  0  0  0  0
   40.8070   34.2330   39.8630 C   0  0  0  0  0  0  0  0  0  0  0  0
   39.9500   34.2550   40.9900 N   0  0  0  0  0  0  0  0  0  0  0  0
   38.8610   33.3320   40.8860 C   0  0  0  0  0  0  0  0  0  0  0  0
   39.3880   31.9450   40.7110 C   0  0  2  0  0  0  0  0  0  0  0  0
   37.9530   28.5110   37.3050 H   0  0  0  0  0  0  0  0  0  0  0  0
   40.1410   27.5810   36.5100 H   0  0  0  0  0  0  0  0  0  0  0  0
   42.2380   28.8050   37.1150 H   0  0  0  0  0  0  0  0  0  0  0  0
   39.9550   33.5600   37.9640 H   0  0  0  0  0  0  0  0  0  0  0  0
   41.5470   32.8960   38.4050 H   0  0  0  0  0  0  0  0  0  0  0  0
   41.8630   34.2270   40.2090 H   0  0  0  0  0  0  0  0  0  0  0  0
   40.7030   35.2280   39.3430 H   0  0  0  0  0  0  0  0  0  0  0  0
   39.6760   35.2110   41.2880 H   0  0  0  0  0  0  0  0  0  0  0  0
   38.1390   33.5890   40.0880 H   0  0  0  0  0  0  0  0  0  0  0  0
   38.2830   33.3730   41.8310 H   0  0  0  0  0  0  0  0  0  0  0  0
   38.5360   31.2380   40.6660 H   0  0  0  0  0  0  0  0  0  0  0  0
   40.3860   31.5860   41.7530 C   0  0  0  0  0  0  0  0  0  0  0  0
   40.7100   32.5060   42.2850 H   0  0  0  0  0  0  0  0  0  0  0  0
   41.2570   31.0710   41.2980 H   0  0  0  0  0  0  0  0  0  0  0  0
   39.7080   30.6520   42.7280 C   0  0  0  0  0  3  0  0  0  0  0  0
   38.8740   29.6990   42.3050 C   0  0  0  0  0  3  0  0  0  0  0  0
   38.1920   28.7500   43.2240 C   0  0  0  0  0  0  0  0  0  0  0  0
   37.0870   28.8610   43.0100 H   0  0  0  0  0  0  0  0  0  0  0  0
   38.3240   29.0400   44.2910 H   0  0  0  0  0  0  0  0  0  0  0  0
   36.7620   26.9040   41.1430 Cl  0  0  0  0  0  0  0  0  0  0  0  0
   38.0900   26.3700   42.1720 C   0  0  0  0  0  0  0  0  0  0  0  0
   38.5420   27.3510   42.9960 C   0  0  0  0  0  0  0  0  0  0  0  0
   39.5890   26.9670   43.8280 C   0  0  0  0  0  0  0  0  0  0  0  0
   40.1080   27.5820   44.5670 H   0  0  0  0  0  0  0  0  0  0  0  0
   40.1190   25.6820   43.8110 C   0  0  0  0  0  0  0  0  0  0  0  0
   40.9270   25.3350   44.4330 H   0  0  0  0  0  0  0  0  0  0  0  0
   39.6270   24.7210   42.9560 C   0  0  0  0  0  3  0  0  0  0  0  0
   38.5770   25.1020   42.1190 C   0  0  0  0  0  3  0  0  0  0  0  0
  1  6  1  0  0  0  0
  2  3  1  0  0  0  0
  2  1  2  0  0  0  0
  3  4  2  0  0  0  0
  4  5  1  0  0  0  0
  5  7  1  0  0  0  0
  6  5  2  0  0  0  0
  7 12  1  0  0  0  0
  8  7  1  0  0  0  0
  8  9  1  0  0  0  0
  9 18  1  0  0  0  0
  9 10  1  0  0  0  0
 10 20  1  0  0  0  0
 11 10  1  0  0  0  0
 11 22  1  0  0  0  0
 12 23  1  1  0  0  0
 12 11  1  0  0  0  0
 12 24  1  0  0  0  0
 13  1  1  0  0  0  0
 14  2  1  0  0  0  0
 15  3  1  0  0  0  0
 16  8  1  0  0  0  0
 17  8  1  0  0  0  0
 19  9  1  0  0  0  0
 21 11  1  0  0  0  0
 24 25  1  0  0  0  0
 24 27  1  0  0  0  0
 26 24  1  0  0  0  0
 28 27  2  0  0  0  0
 28 29  1  0  0  0  0
 29 31  1  0  0  0  0
 30 29  1  0  0  0  0
 32 33  1  0  0  0  0
 33 34  1  0  0  0  0
 34 29  1  0  0  0  0
 34 35  2  0  0  0  0
 35 36  1  0  0  0  0
 37 35  1  0  0  0  0
 37 38  1  0  0  0  0
 39 37  2  0  0  0  0
 40 33  2  0  0  0  0
 40 39  1  0  0  0  0
M  END
>  <minimizedAffinity>
-5.70539904

$$$$

 OpenBabel03242517293D

 40 42  0  0  1  0  0  0  0  0999 V2000
   38.4290   28.7900   37.5930 C   0  0  0  0  0  0  0  0  0  0  0  0
   39.5920   28.2400   37.0040 C   0  0  0  0  0  0  0  0  0  0  0  0
   40.8030   28.9020   37.2230 C   0  0  0  0  0  0  0  0  0  0  0  0
   40.7880   30.0200   37.9810 N   0  0  0  0  0  0  0  0  0  0  0  0
   39.6720   30.5330   38.5360 C   0  0  0  0  0  0  0  0  0  0  0  0
   38.5170   29.9030   38.3270 N   0  0  0  0  0  0  0  0  0  0  0  0
   39.7680   31.6980   39.3040 N   0  0  0  0  0  0  0  0  0  0  0  0
   40.3020   32.9040   38.7270 C   0  0  0  0  0  0  0  0  0  0  0  0
   40.6730   33.9430   39.7360 C   0  0  0  0  0  0  0  0  0  0  0  0
   39.9380   33.9620   40.9470 N   0  0  0  0  0  0  0  0  0  0  0  0
   38.8320   33.0560   40.9470 C   0  0  0  0  0  0  0  0  0  0  0  0
   39.3170   31.6640   40.7040 C   0  0  2  0  0  0  0  0  0  0  0  0
   37.4850   28.2900   37.4310 H   0  0  0  0  0  0  0  0  0  0  0  0
   39.5650   27.3390   36.4020 H   0  0  0  0  0  0  0  0  0  0  0  0
   41.7310   28.5280   36.7980 H   0  0  0  0  0  0  0  0  0  0  0  0
   39.6180   33.3030   37.9290 H   0  0  0  0  0  0  0  0  0  0  0  0
   41.2380   32.6130   38.1950 H   0  0  0  0  0  0  0  0  0  0  0  0
   41.7590   33.9180   39.9700 H   0  0  0  0  0  0  0  0  0  0  0  0
   40.5300   34.9450   39.2390 H   0  0  0  0  0  0  0  0  0  0  0  0
   39.7110   34.9180   41.2810 H   0  0  0  0  0  0  0  0  0  0  0  0
   38.0340   33.3310   40.2320 H   0  0  0  0  0  0  0  0  0  0  0  0
   38.3560   33.0930   41.9470 H   0  0  0  0  0  0  0  0  0  0  0  0
   38.4550   30.9680   40.7410 H   0  0  0  0  0  0  0  0  0  0  0  0
   40.4130   31.2790   41.6320 C   0  0  0  0  0  0  0  0  0  0  0  0
   40.7920   32.1860   42.1510 H   0  0  0  0  0  0  0  0  0  0  0  0
   41.2320   30.7750   41.0800 H   0  0  0  0  0  0  0  0  0  0  0  0
   39.8330   30.3220   42.6480 C   0  0  0  0  0  3  0  0  0  0  0  0
   38.6880   29.6780   42.4130 C   0  0  0  0  0  3  0  0  0  0  0  0
   38.0830   28.7190   43.3750 C   0  0  0  0  0  0  0  0  0  0  0  0
   36.9720   28.9250   43.3520 H   0  0  0  0  0  0  0  0  0  0  0  0
   38.4070   28.9230   44.4210 H   0  0  0  0  0  0  0  0  0  0  0  0
   40.7310   27.1290   43.8670 Cl  0  0  0  0  0  0  0  0  0  0  0  0
   39.2960   26.4280   43.1230 C   0  0  0  0  0  0  0  0  0  0  0  0
   38.2740   27.3180   43.0120 C   0  0  0  0  0  0  0  0  0  0  0  0
   37.1230   26.8030   42.4240 C   0  0  0  0  0  0  0  0  0  0  0  0
   36.1850   27.3280   42.2340 H   0  0  0  0  0  0  0  0  0  0  0  0
   37.0370   25.4850   41.9880 C   0  0  0  0  0  0  0  0  0  0  0  0
   36.1710   25.0390   41.5290 H   0  0  0  0  0  0  0  0  0  0  0  0
   38.1000   24.6200   42.1220 C   0  0  0  0  0  3  0  0  0  0  0  0
   39.2570   25.1320   42.7120 C   0  0  0  0  0  3  0  0  0  0  0  0
  1  6  1  0  0  0  0
  2  3  1  0  0  0  0
  2  1  2  0  0  0  0
  3  4  2  0  0  0  0
  4  5  1  0  0  0  0
  5  7  1  0  0  0  0
  6  5  2  0  0  0  0
  7 12  1  0  0  0  0
  8  7  1  0  0  0  0
  8  9  1  0  0  0  0
  9 18  1  0  0  0  0
  9 10  1  0  0  0  0
 10 20  1  0  0  0  0
 11 10  1  0  0  0  0
 11 22  1  0  0  0  0
 12 23  1  1  0  0  0
 12 11  1  0  0  0  0
 12 24  1  0  0  0  0
 13  1  1  0  0  0  0
 14  2  1  0  0  0  0
 15  3  1  0  0  0  0
 16  8  1  0  0  0  0
 17  8  1  0  0  0  0
 19  9  1  0  0  0  0
 21 11  1  0  0  0  0
 24 25  1  0  0  0  0
 24 27  1  0  0  0  0
 26 24  1  0  0  0  0
 28 27  2  0  0  0  0
 28 29  1  0  0  0  0
 29 31  1  0  0  0  0
 30 29  1  0  0  0  0
 33 32  1  0  0  0  0
 34 33  1  0  0  0  0
 34 29  1  0  0  0  0
 35 34  2  0  0  0  0
 36 35  1  0  0  0  0
 37 39  2  0  0  0  0
 37 35  1  0  0  0  0
 38 37  1  0  0  0  0
 39 40  1  0  0  0  0
 40 33  2  0  0  0  0
M  END
>  <minimizedAffinity>
-5.66758966

$$$$

 OpenBabel03242517293D

 40 42  0  0  1  0  0  0  0  0999 V2000
   37.2720   32.7490   39.3970 C   0  0  0  0  0  0  0  0  0  0  0  0
   37.1370   31.7030   38.4520 C   0  0  0  0  0  0  0  0  0  0  0  0
   38.2990   31.2450   37.8250 C   0  0  0  0  0  0  0  0  0  0  0  0
   39.4720   31.8250   38.1570 N   0  0  0  0  0  0  0  0  0  0  0  0
   39.5860   32.8210   39.0590 C   0  0  0  0  0  0  0  0  0  0  0  0
   38.4800   33.2590   39.6570 N   0  0  0  0  0  0  0  0  0  0  0  0
   40.8510   33.3510   39.3300 N   0  0  0  0  0  0  0  0  0  0  0  0
   41.6390   33.9230   38.2690 C   0  0  0  0  0  0  0  0  0  0  0  0
   43.0780   34.1180   38.6250 C   0  0  0  0  0  0  0  0  0  0  0  0
   43.3830   34.3590   39.9880 N   0  0  0  0  0  0  0  0  0  0  0  0
   42.2180   34.5280   40.8020 C   0  0  0  0  0  0  0  0  0  0  0  0
   41.3560   33.3110   40.7120 C   0  0  2  0  0  0  0  0  0  0  0  0
   36.3830   33.1150   39.8880 H   0  0  0  0  0  0  0  0  0  0  0  0
   36.1780   31.2620   38.2110 H   0  0  0  0  0  0  0  0  0  0  0  0
   38.2600   30.4440   37.0910 H   0  0  0  0  0  0  0  0  0  0  0  0
   41.1610   34.8610   37.8770 H   0  0  0  0  0  0  0  0  0  0  0  0
   41.6060   33.1970   37.4240 H   0  0  0  0  0  0  0  0  0  0  0  0
   43.7100   33.2840   38.2530 H   0  0  0  0  0  0  0  0  0  0  0  0
   43.4410   35.0100   38.0370 H   0  0  0  0  0  0  0  0  0  0  0  0
   44.1150   35.0800   40.1300 H   0  0  0  0  0  0  0  0  0  0  0  0
   41.6440   35.4430   40.5670 H   0  0  0  0  0  0  0  0  0  0  0  0
   42.5480   34.6480   41.8540 H   0  0  0  0  0  0  0  0  0  0  0  0
   40.4770   33.4410   41.3730 H   0  0  0  0  0  0  0  0  0  0  0  0
   42.1130   32.0620   40.9910 C   0  0  0  0  0  0  0  0  0  0  0  0
   43.1440   32.3210   41.3140 H   0  0  0  0  0  0  0  0  0  0  0  0
   42.1360   31.4110   40.0930 H   0  0  0  0  0  0  0  0  0  0  0  0
   41.3990   31.3400   42.1110 C   0  0  0  0  0  3  0  0  0  0  0  0
   40.1200   30.9790   41.9940 C   0  0  0  0  0  3  0  0  0  0  0  0
   39.3790   30.2580   43.0630 C   0  0  0  0  0  0  0  0  0  0  0  0
   38.8310   31.0580   43.6450 H   0  0  0  0  0  0  0  0  0  0  0  0
   40.0690   29.7740   43.7900 H   0  0  0  0  0  0  0  0  0  0  0  0
   39.3430   27.2050   43.7400 Cl  0  0  0  0  0  0  0  0  0  0  0  0
   38.1490   27.9900   42.7080 C   0  0  0  0  0  0  0  0  0  0  0  0
   38.3780   29.3210   42.5600 C   0  0  0  0  0  0  0  0  0  0  0  0
   37.4590   29.9770   41.7470 C   0  0  0  0  0  0  0  0  0  0  0  0
   37.4420   31.0380   41.4870 H   0  0  0  0  0  0  0  0  0  0  0  0
   36.3970   29.3150   41.1410 C   0  0  0  0  0  0  0  0  0  0  0  0
   35.6590   29.7750   40.5060 H   0  0  0  0  0  0  0  0  0  0  0  0
   36.2050   27.9630   41.3220 C   0  0  0  0  0  3  0  0  0  0  0  0
   37.1250   27.3010   42.1370 C   0  0  0  0  0  3  0  0  0  0  0  0
  1  6  1  0  0  0  0
  1 13  1  0  0  0  0
  2  1  2  0  0  0  0
  3  4  2  0  0  0  0
  3  2  1  0  0  0  0
  4  5  1  0  0  0  0
  5  7  1  0  0  0  0
  5  6  2  0  0  0  0
  7 12  1  0  0  0  0
  8  9  1  0  0  0  0
  8  7  1  0  0  0  0
  9 10  1  0  0  0  0
 10 20  1  0  0  0  0
 10 11  1  0  0  0  0
 11 22  1  0  0  0  0
 12 11  1  0  0  0  0
 12 24  1  0  0  0  0
 12 23  1  1  0  0  0
 14  2  1  0  0  0  0
 15  3  1  0  0  0  0
 16  8  1  0  0  0  0
 17  8  1  0  0  0  0
 18  9  1  0  0  0  0
 19  9  1  0  0  0  0
 21 11  1  0  0  0  0
 24 25  1  0  0  0  0
 24 27  1  0  0  0  0
 26 24  1  0  0  0  0
 28 27  2  0  0  0  0
 28 29  1  0  0  0  0
 29 30  1  0  0  0  0
 29 31  1  0  0  0  0
 33 32  1  0  0  0  0
 34 33  1  0  0  0  0
 34 29  1  0  0  0  0
 35 34  2  0  0  0  0
 36 35  1  0  0  0  0
 37 39  2  0  0  0  0
 37 35  1  0  0  0  0
 38 37  1  0  0  0  0
 39 40  1  0  0  0  0
 40 33  2  0  0  0  0
M  END
>  <minimizedAffinity>
-5.66753769

$$$$

 OpenBabel03242517293D

 40 42  0  0  1  0  0  0  0  0999 V2000
   37.2440   25.6580   37.7950 C   0  0  0  0  0  0  0  0  0  0  0  0
   36.1970   24.7060   37.7610 C   0  0  0  0  0  0  0  0  0  0  0  0
   35.9530   23.9710   38.9250 C   0  0  0  0  0  0  0  0  0  0  0  0
   36.7280   24.2150   40.0040 N   0  0  0  0  0  0  0  0  0  0  0  0
   37.7220   25.1260   40.0220 C   0  0  0  0  0  0  0  0  0  0  0  0
   37.9560   25.8260   38.9130 N   0  0  0  0  0  0  0  0  0  0  0  0
   38.4640   25.2990   41.1940 N   0  0  0  0  0  0  0  0  0  0  0  0
   39.1730   24.1870   41.7740 C   0  0  0  0  0  0  0  0  0  0  0  0
   39.6140   24.4230   43.1830 C   0  0  0  0  0  0  0  0  0  0  0  0
   39.8960   25.7590   43.5600 N   0  0  0  0  0  0  0  0  0  0  0  0
   39.8520   26.6730   42.4600 C   0  0  0  0  0  0  0  0  0  0  0  0
   38.5040   26.6300   41.8190 C   0  0  2  0  0  0  0  0  0  0  0  0
   37.4450   26.2320   36.9020 H   0  0  0  0  0  0  0  0  0  0  0  0
   35.5960   24.5390   36.8750 H   0  0  0  0  0  0  0  0  0  0  0  0
   35.1630   23.2260   38.9610 H   0  0  0  0  0  0  0  0  0  0  0  0
   40.0150   23.8580   41.1080 H   0  0  0  0  0  0  0  0  0  0  0  0
   38.4580   23.3320   41.7930 H   0  0  0  0  0  0  0  0  0  0  0  0
   38.9060   23.9790   43.9150 H   0  0  0  0  0  0  0  0  0  0  0  0
   40.5600   23.8260   43.3310 H   0  0  0  0  0  0  0  0  0  0  0  0
   40.7330   25.8540   44.1660 H   0  0  0  0  0  0  0  0  0  0  0  0
   40.6540   26.5090   41.7170 H   0  0  0  0  0  0  0  0  0  0  0  0
   40.0210   27.6950   42.8560 H   0  0  0  0  0  0  0  0  0  0  0  0
   38.4730   27.3670   40.9920 H   0  0  0  0  0  0  0  0  0  0  0  0
   37.4050   26.8170   42.8030 C   0  0  0  0  0  0  0  0  0  0  0  0
   37.8390   27.0170   43.8050 H   0  0  0  0  0  0  0  0  0  0  0  0
   36.7520   25.9200   42.8320 H   0  0  0  0  0  0  0  0  0  0  0  0
   36.5930   28.0100   42.3560 C   0  0  0  0  0  3  0  0  0  0  0  0
   36.2080   28.1460   41.0850 C   0  0  0  0  0  3  0  0  0  0  0  0
   35.4000   29.2960   40.6000 C   0  0  0  0  0  0  0  0  0  0  0  0
   35.0070   29.8050   41.5290 H   0  0  0  0  0  0  0  0  0  0  0  0
   34.5010   28.9600   40.0350 H   0  0  0  0  0  0  0  0  0  0  0  0
   35.9900   29.1070   37.5340 Cl  0  0  0  0  0  0  0  0  0  0  0  0
   36.5480   30.4300   38.5550 C   0  0  0  0  0  0  0  0  0  0  0  0
   36.1700   30.2870   39.8530 C   0  0  0  0  0  0  0  0  0  0  0  0
   36.5970   31.3100   40.6930 C   0  0  0  0  0  0  0  0  0  0  0  0
   36.4130   31.4070   41.7660 H   0  0  0  0  0  0  0  0  0  0  0  0
   37.3480   32.3860   40.2330 C   0  0  0  0  0  0  0  0  0  0  0  0
   37.7020   33.2010   40.8400 H   0  0  0  0  0  0  0  0  0  0  0  0
   37.7070   32.4880   38.9070 C   0  0  0  0  0  3  0  0  0  0  0  0
   37.2810   31.4630   38.0600 C   0  0  0  0  0  3  0  0  0  0  0  0
  1  6  1  0  0  0  0
  2  1  2  0  0  0  0
  2  3  1  0  0  0  0
  3 15  1  0  0  0  0
  3  4  2  0  0  0  0
  4  5  1  0  0  0  0
  5  7  1  0  0  0  0
  6  5  2  0  0  0  0
  7  8  1  0  0  0  0
  7 12  1  0  0  0  0
  8 17  1  0  0  0  0
  8  9  1  0  0  0  0
  9 19  1  0  0  0  0
  9 10  1  0  0  0  0
  9 18  1  0  0  0  0
 10 20  1  0  0  0  0
 11 22  1  0  0  0  0
 11 10  1  0  0  0  0
 12 23  1  6  0  0  0
 12 11  1  0  0  0  0
 12 24  1  0  0  0  0
 13  1  1  0  0  0  0
 14  2  1  0  0  0  0
 16  8  1  0  0  0  0
 21 11  1  0  0  0  0
 24 26  1  0  0  0  0
 24 25  1  0  0  0  0
 27 24  1  0  0  0  0
 28 27  2  0  0  0  0
 29 28  1  0  0  0  0
 29 30  1  0  0  0  0
 31 29  1  0  0  0  0
 32 33  1  0  0  0  0
 33 34  1  0  0  0  0
 34 29  1  0  0  0  0
 34 35  2  0  0  0  0
 35 36  1  0  0  0  0
 37 35  1  0  0  0  0
 37 38  1  0  0  0  0
 39 37  2  0  0  0  0
 40 33  2  0  0  0  0
 40 39  1  0  0  0  0
M  END
>  <minimizedAffinity>
-5.61010456

$$$$

 OpenBabel03242517293D

 40 42  0  0  1  0  0  0  0  0999 V2000
   35.8770   28.5910   39.9180 C   0  0  0  0  0  0  0  0  0  0  0  0
   36.4880   27.4450   39.3550 C   0  0  0  0  0  0  0  0  0  0  0  0
   37.8160   27.5590   38.9360 C   0  0  0  0  0  0  0  0  0  0  0  0
   38.4320   28.7510   39.0930 N   0  0  0  0  0  0  0  0  0  0  0  0
   37.8380   29.8350   39.6310 C   0  0  0  0  0  0  0  0  0  0  0  0
   36.5720   29.7280   40.0300 N   0  0  0  0  0  0  0  0  0  0  0  0
   38.5680   31.0220   39.7470 N   0  0  0  0  0  0  0  0  0  0  0  0
   39.1380   31.6400   38.5780 C   0  0  0  0  0  0  0  0  0  0  0  0
   40.1690   32.6770   38.8870 C   0  0  0  0  0  0  0  0  0  0  0  0
   40.0330   33.3840   40.1070 N   0  0  0  0  0  0  0  0  0  0  0  0
   38.8160   33.0850   40.7960 C   0  0  0  0  0  0  0  0  0  0  0  0
   38.7400   31.6210   41.0800 C   0  0  2  0  0  0  0  0  0  0  0  0
   34.8510   28.5180   40.2450 H   0  0  0  0  0  0  0  0  0  0  0  0
   35.9610   26.5040   39.2460 H   0  0  0  0  0  0  0  0  0  0  0  0
   38.3390   26.7140   38.4970 H   0  0  0  0  0  0  0  0  0  0  0  0
   38.3330   32.0230   37.8940 H   0  0  0  0  0  0  0  0  0  0  0  0
   39.6490   30.8280   38.0090 H   0  0  0  0  0  0  0  0  0  0  0  0
   41.1990   32.2670   38.8170 H   0  0  0  0  0  0  0  0  0  0  0  0
   40.1270   33.4360   38.0530 H   0  0  0  0  0  0  0  0  0  0  0  0
   40.2460   34.3970   40.0280 H   0  0  0  0  0  0  0  0  0  0  0  0
   37.9100   33.4370   40.2670 H   0  0  0  0  0  0  0  0  0  0  0  0
   38.8230   33.6310   41.7620 H   0  0  0  0  0  0  0  0  0  0  0  0
   37.8100   31.4090   41.6440 H   0  0  0  0  0  0  0  0  0  0  0  0
   39.9600   31.1150   41.7640 C   0  0  0  0  0  0  0  0  0  0  0  0
   40.4450   31.9490   42.3150 H   0  0  0  0  0  0  0  0  0  0  0  0
   40.6630   30.6720   41.0290 H   0  0  0  0  0  0  0  0  0  0  0  0
   39.5230   30.0500   42.7420 C   0  0  0  0  0  3  0  0  0  0  0  0
   39.8410   28.7670   42.5530 C   0  0  0  0  0  3  0  0  0  0  0  0
   39.4450   27.6850   43.4920 C   0  0  0  0  0  0  0  0  0  0  0  0
   38.7420   28.1690   44.2340 H   0  0  0  0  0  0  0  0  0  0  0  0
   40.3100   27.3180   44.0900 H   0  0  0  0  0  0  0  0  0  0  0  0
   36.3290   27.4110   43.4920 Cl  0  0  0  0  0  0  0  0  0  0  0  0
   37.4110   26.2550   42.7180 C   0  0  0  0  0  0  0  0  0  0  0  0
   38.7210   26.5870   42.8580 C   0  0  0  0  0  0  0  0  0  0  0  0
   39.6080   25.6950   42.2640 C   0  0  0  0  0  0  0  0  0  0  0  0
   40.6990   25.7570   42.2480 H   0  0  0  0  0  0  0  0  0  0  0  0
   39.1780   24.5590   41.5870 C   0  0  0  0  0  0  0  0  0  0  0  0
   39.8220   23.8390   41.1110 H   0  0  0  0  0  0  0  0  0  0  0  0
   37.8380   24.2640   41.4720 C   0  0  0  0  0  3  0  0  0  0  0  0
   36.9440   25.1560   42.0660 C   0  0  0  0  0  3  0  0  0  0  0  0
  1  6  1  0  0  0  0
  1 13  1  0  0  0  0
  2  1  2  0  0  0  0
  3  4  2  0  0  0  0
  3  2  1  0  0  0  0
  4  5  1  0  0  0  0
  5  7  1  0  0  0  0
  5  6  2  0  0  0  0
  7 12  1  0  0  0  0
  8  9  1  0  0  0  0
  8  7  1  0  0  0  0
  9 10  1  0  0  0  0
 10 11  1  0  0  0  0
 11 12  1  0  0  0  0
 11 22  1  0  0  0  0
 12 23  1  1  0  0  0
 12 24  1  0  0  0  0
 14  2  1  0  0  0  0
 15  3  1  0  0  0  0
 16  8  1  0  0  0  0
 17  8  1  0  0  0  0
 18  9  1  0  0  0  0
 19  9  1  0  0  0  0
 20 10  1  0  0  0  0
 21 11  1  0  0  0  0
 24 25  1  0  0  0  0
 24 27  1  0  0  0  0
 26 24  1  0  0  0  0
 28 27  2  0  0  0  0
 28 29  1  0  0  0  0
 29 31  1  0  0  0  0
 29 30  1  0  0  0  0
 33 34  1  0  0  0  0
 33 32  1  0  0  0  0
 34 29  1  0  0  0  0
 35 34  2  0  0  0  0
 36 35  1  0  0  0  0
 37 35  1  0  0  0  0
 38 37  1  0  0  0  0
 39 37  2  0  0  0  0
 39 40  1  0  0  0  0
 40 33  2  0  0  0  0
M  END
>  <minimizedAffinity>
-5.52943659

$$$$
