
 OpenBabel03242519033D

 32 34  0  0  1  0  0  0  0  0999 V2000
   46.4060   32.2640   44.9780 N   0  0  0  0  0  0  0  0  0  0  0  0
   47.1780   33.2070   44.1910 C   0  0  0  0  0  0  0  0  0  0  0  0
   46.0580   34.0040   43.6160 C   0  0  2  0  0  0  0  0  0  0  0  0
   45.1300   32.9150   43.1110 C   0  0  0  0  0  0  0  0  0  0  0  0
   45.2850   31.8470   44.1680 C   0  0  0  0  0  0  0  0  0  0  0  0
   47.8090   32.7100   43.4410 H   0  0  0  0  0  0  0  0  0  0  0  0
   47.7490   33.8030   44.9230 H   0  0  0  0  0  0  0  0  0  0  0  0
   45.5710   34.5720   44.4370 H   0  0  0  0  0  0  0  0  0  0  0  0
   44.1000   33.3320   43.0620 H   0  0  0  0  0  0  0  0  0  0  0  0
   45.4750   32.5840   42.1150 H   0  0  0  0  0  0  0  0  0  0  0  0
   44.3670   31.8990   44.8040 H   0  0  0  0  0  0  0  0  0  0  0  0
   45.4300   30.8360   43.7420 H   0  0  0  0  0  0  0  0  0  0  0  0
   47.3200   31.9820   48.5860 C   0  0  0  0  0  0  0  0  0  0  0  0
   47.1460   32.5540   47.3320 C   0  0  0  0  0  0  0  0  0  0  0  0
   46.6200   31.7860   46.2790 C   0  0  0  0  0  0  0  0  0  0  0  0
   46.2990   30.4840   46.5510 N   0  0  0  0  0  0  0  0  0  0  0  0
   46.4810   29.9500   47.7900 C   0  0  0  0  0  0  0  0  0  0  0  0
   46.9910   30.7040   48.8030 N   0  0  0  0  0  0  0  0  0  0  0  0
   47.7210   32.5480   49.4100 H   0  0  0  0  0  0  0  0  0  0  0  0
   47.4000   33.5750   47.1300 H   0  0  0  0  0  0  0  0  0  0  0  0
   46.1830   28.8990   47.8710 H   0  0  0  0  0  0  0  0  0  0  0  0
   46.4300   34.8200   42.5050 N   0  0  0  0  0  0  0  0  0  0  0  0
   46.3800   35.8740   42.6220 H   0  0  0  0  0  0  0  0  0  0  0  0
   49.1510   35.8960   41.6810 Cl  0  0  0  0  0  0  0  0  0  0  0  0
   48.0980   34.9030   40.6600 C   0  0  0  0  0  0  0  0  0  0  0  0
   46.8740   34.5030   41.2070 C   0  0  0  0  0  0  0  0  0  0  0  0
   46.1240   33.7340   40.3410 C   0  0  0  0  0  0  0  0  0  0  0  0
   45.1650   33.3350   40.5950 H   0  0  0  0  0  0  0  0  0  0  0  0
   46.4940   33.3740   39.0680 C   0  0  0  0  0  0  0  0  0  0  0  0
   45.9050   32.7730   38.3910 H   0  0  0  0  0  0  0  0  0  0  0  0
   47.7110   33.7970   38.5780 C   0  0  0  0  0  0  0  0  0  0  0  0
   48.4950   34.5610   39.3920 C   0  0  0  0  0  0  0  0  0  0  0  0
  1 15  1  0  0  0  0
  2  7  1  0  0  0  0
  2  1  1  0  0  0  0
  3  2  1  0  0  0  0
  3  8  1  1  0  0  0
  4  3  1  0  0  0  0
  4  5  1  0  0  0  0
  5 11  1  0  0  0  0
  5  1  1  0  0  0  0
  6  2  1  0  0  0  0
  9  4  1  0  0  0  0
 10  4  1  0  0  0  0
 12  5  1  0  0  0  0
 13 18  1  0  0  0  0
 13 19  1  0  0  0  0
 14 13  2  0  0  0  0
 15 16  2  0  0  0  0
 15 14  1  0  0  0  0
 16 17  1  0  0  0  0
 17 21  1  0  0  0  0
 17 18  2  0  0  0  0
 20 14  1  0  0  0  0
 22 23  1  0  0  0  0
 22  3  1  0  0  0  0
 25 26  1  0  0  0  0
 25 24  1  0  0  0  0
 26 22  1  0  0  0  0
 27 28  1  0  0  0  0
 27 26  2  0  0  0  0
 29 27  1  0  0  0  0
 30 29  1  0  0  0  0
 31 29  2  0  0  0  0
 31 32  1  0  0  0  0
 32 25  2  0  0  0  0
M  END
>  <minimizedAffinity>
-4.84123039

>  <minimizedRMSD>
4.31022406

$$$$
