
 OpenBabel03252504503D

 34 36  0  0  0  0  0  0  0  0999 V2000
   47.5670   33.9960   42.8910 C   0  0  0  0  0  0  0  0  0  0  0  0
   48.3610   33.1130   42.1430 C   0  0  0  0  0  0  0  0  0  0  0  0
   48.5790   31.8490   42.6920 C   0  0  0  0  0  0  0  0  0  0  0  0
   48.0220   31.5490   43.9000 N   0  0  0  0  0  0  0  0  0  0  0  0
   47.2750   32.4110   44.5810 C   0  0  0  0  0  0  0  0  0  0  0  0
   47.0440   33.6470   44.0740 N   0  0  0  0  0  0  0  0  0  0  0  0
   47.3610   34.9920   42.5170 H   0  0  0  0  0  0  0  0  0  0  0  0
   49.1910   31.1030   42.1610 H   0  0  0  0  0  0  0  0  0  0  0  0
   45.3230   30.0710   44.5050 Cl  0  0  0  0  0  0  0  0  0  0  0  0
   45.7960   30.9790   45.9280 C   0  0  0  0  0  0  0  0  0  0  0  0
   46.7020   32.0390   45.8740 C   0  0  0  0  0  0  0  0  0  0  0  0
   47.0650   32.7450   47.0040 C   0  0  0  0  0  0  0  0  0  0  0  0
   46.5030   32.3750   48.2280 C   0  0  0  0  0  0  0  0  0  0  0  0
   45.6100   31.3210   48.2470 C   0  0  0  0  0  0  0  0  0  0  0  0
   44.9450   30.9150   49.8080 Cl  0  0  0  0  0  0  0  0  0  0  0  0
   45.2400   30.6140   47.1390 C   0  0  0  0  0  0  0  0  0  0  0  0
   47.7600   33.5560   46.9620 H   0  0  0  0  0  0  0  0  0  0  0  0
   46.8000   32.9380   49.1020 H   0  0  0  0  0  0  0  0  0  0  0  0
   44.5260   29.7990   47.2500 H   0  0  0  0  0  0  0  0  0  0  0  0
   48.8990   33.5150   40.8810 C   0  0  0  0  0  0  0  0  0  0  0  0
   49.8560   34.0720   41.0190 H   0  0  0  0  0  0  0  0  0  0  0  0
   49.1050   32.6250   40.2300 H   0  0  0  0  0  0  0  0  0  0  0  0
   47.9370   34.4080   40.1580 C   0  0  0  0  0  0  0  0  0  0  0  0
   48.5400   35.2790   39.7830 H   0  0  0  0  0  0  0  0  0  0  0  0
   47.2750   34.8810   40.9560 H   0  0  0  0  0  0  0  0  0  0  0  0
   48.9170   34.1920   37.2000 Cl  0  0  0  0  0  0  0  0  0  0  0  0
   47.3210   33.6530   37.7470 C   0  0  0  0  0  0  0  0  0  0  0  0
   47.1400   33.7900   39.1030 C   0  0  0  0  0  0  0  0  0  0  0  0
   45.9160   33.3180   39.5900 C   0  0  0  0  0  0  0  0  0  0  0  0
   45.6000   33.3390   40.6270 H   0  0  0  0  0  0  0  0  0  0  0  0
   44.9410   32.7550   38.7950 C   0  0  0  0  0  0  0  0  0  0  0  0
   43.9870   32.3830   39.1400 H   0  0  0  0  0  0  0  0  0  0  0  0
   45.1660   32.6400   37.4290 C   0  0  0  0  0  0  0  0  0  0  0  0
   46.3680   33.0980   36.9330 C   0  0  0  0  0  0  0  0  0  0  0  0
  1  6  1  0  0  0  0
  2  3  1  0  0  0  0
  2  1  2  0  0  0  0
  3  4  2  0  0  0  0
  4  5  1  0  0  0  0
  5 11  1  0  0  0  0
  6  5  2  0  0  0  0
  7  1  1  0  0  0  0
  8  3  1  0  0  0  0
  9 10  1  0  0  0  0
 10 16  1  0  0  0  0
 11 10  2  0  0  0  0
 11 12  1  0  0  0  0
 12 13  2  0  0  0  0
 13 14  1  0  0  0  0
 13 18  1  0  0  0  0
 14 15  1  0  0  0  0
 16 19  1  0  0  0  0
 16 14  2  0  0  0  0
 17 12  1  0  0  0  0
 20 21  1  0  0  0  0
 20  2  1  0  0  0  0
 22 20  1  0  0  0  0
 23 20  1  0  0  0  0
 23 25  1  0  0  0  0
 24 23  1  0  0  0  0
 26 27  1  0  0  0  0
 27 28  1  0  0  0  0
 28 29  2  0  0  0  0
 28 23  1  0  0  0  0
 29 30  1  0  0  0  0
 31 32  1  0  0  0  0
 31 29  1  0  0  0  0
 33 31  2  0  0  0  0
 34 33  1  0  0  0  0
 34 27  2  0  0  0  0
M  END
>  <minimizedAffinity>
-4.93116522

>  <minimizedRMSD>
2.04694629

$$$$
