
 OpenBabel03252509263D

 30 32  0  0  1  0  0  0  0  0999 V2000
   46.9830   35.1320   41.7860 C   0  0  1  0  0  0  0  0  0  0  0  0
   48.4720   35.5670   41.8670 C   0  0  0  0  0  0  0  0  0  0  0  0
   47.9110   34.3120   41.1240 C   0  0  2  0  0  0  0  0  0  0  0  0
   46.3340   35.8690   41.2670 H   0  0  0  0  0  0  0  0  0  0  0  0
   48.7150   36.4140   41.2040 H   0  0  0  0  0  0  0  0  0  0  0  0
   49.0270   35.4030   42.7930 H   0  0  0  0  0  0  0  0  0  0  0  0
   48.2780   33.3560   41.6080 H   0  0  0  0  0  0  0  0  0  0  0  0
   44.9530   34.9160   44.9360 C   0  0  0  0  0  0  0  0  0  0  0  0
   45.4020   35.3950   43.6760 C   0  0  0  0  0  0  0  0  0  0  0  0
   46.4720   34.7460   43.1560 C   0  0  0  0  0  0  0  0  0  0  0  0
   47.0900   33.6910   43.8070 N   0  0  0  0  0  0  0  0  0  0  0  0
   46.6210   33.2740   45.0090 C   0  0  0  0  0  0  0  0  0  0  0  0
   45.5540   33.8860   45.5710 N   0  0  0  0  0  0  0  0  0  0  0  0
   44.0990   35.3950   45.3990 H   0  0  0  0  0  0  0  0  0  0  0  0
   47.1900   32.4460   45.4060 H   0  0  0  0  0  0  0  0  0  0  0  0
   44.8020   36.4860   43.0310 N   0  0  0  0  0  0  0  0  0  0  0  0
   44.2300   36.0470   42.2820 H   0  0  0  0  0  0  0  0  0  0  0  0
   44.8940   37.5240   43.2380 H   0  0  0  0  0  0  0  0  0  0  0  0
   48.0120   34.2810   39.6180 C   0  0  0  0  0  0  0  0  0  0  0  0
   47.0480   34.5570   39.1340 H   0  0  0  0  0  0  0  0  0  0  0  0
   48.7570   35.0400   39.2940 H   0  0  0  0  0  0  0  0  0  0  0  0
   46.7090   33.4870   37.0980 Cl  0  0  0  0  0  0  0  0  0  0  0  0
   47.9070   32.5690   37.9820 C   0  0  0  0  0  0  0  0  0  0  0  0
   48.5110   32.9670   39.1760 C   0  0  0  0  0  0  0  0  0  0  0  0
   49.4420   32.1420   39.7650 C   0  0  0  0  0  0  0  0  0  0  0  0
   49.8330   32.5580   40.6760 H   0  0  0  0  0  0  0  0  0  0  0  0
   49.7730   30.9360   39.1820 C   0  0  0  0  0  0  0  0  0  0  0  0
   50.5130   30.3560   39.7170 H   0  0  0  0  0  0  0  0  0  0  0  0
   49.1700   30.5360   37.9890 C   0  0  0  0  0  3  0  0  0  0  0  0
   48.2350   31.3520   37.3860 C   0  0  0  0  0  3  0  0  0  0  0  0
  1  4  1  6  0  0  0
  1  2  1  0  0  0  0
  1 10  1  0  0  0  0
  2  6  1  0  0  0  0
  3  7  1  1  0  0  0
  3  1  1  0  0  0  0
  3  2  1  0  0  0  0
  5  2  1  0  0  0  0
  8 14  1  0  0  0  0
  8 13  1  0  0  0  0
  9  8  2  0  0  0  0
 10  9  1  0  0  0  0
 10 11  2  0  0  0  0
 11 12  1  0  0  0  0
 12 15  1  0  0  0  0
 12 13  2  0  0  0  0
 16 18  1  0  0  0  0
 16  9  1  0  0  0  0
 17 16  1  0  0  0  0
 19  3  1  0  0  0  0
 20 19  1  0  0  0  0
 21 19  1  0  0  0  0
 22 23  1  0  0  0  0
 23 24  1  0  0  0  0
 24 19  1  0  0  0  0
 24 25  2  0  0  0  0
 25 26  1  0  0  0  0
 27 28  1  0  0  0  0
 27 25  1  0  0  0  0
 29 27  2  0  0  0  0
 30 23  2  0  0  0  0
 30 29  1  0  0  0  0
M  END
>  <minimizedAffinity>
-4.8646307

>  <minimizedRMSD>
1.4663167

$$$$
