
 OpenBabel03242521283D

 35 37  0  0  1  0  0  0  0  0999 V2000
   48.1180   33.4620   42.5170 C   0  0  1  0  0  0  0  0  0  0  0  0
   46.6600   33.7160   42.2290 C   0  0  2  0  0  0  0  0  0  0  0  0
   46.4650   34.6470   41.2270 O   0  0  0  0  0  0  0  0  0  0  0  0
   46.8620   34.0290   40.0530 C   0  0  0  0  0  0  0  0  0  0  0  0
   48.3470   33.9220   40.0420 C   0  0  2  0  0  0  0  0  0  0  0  0
   48.9700   33.3350   41.2870 C   0  0  2  0  0  0  0  0  0  0  0  0
   48.1420   32.4790   43.0640 H   0  0  0  0  0  0  0  0  0  0  0  0
   46.1890   32.7470   41.9680 H   0  0  0  0  0  0  0  0  0  0  0  0
   46.3420   33.0710   39.8740 H   0  0  0  0  0  0  0  0  0  0  0  0
   46.5830   34.7120   39.2240 H   0  0  0  0  0  0  0  0  0  0  0  0
   48.7060   33.3110   39.1860 H   0  0  0  0  0  0  0  0  0  0  0  0
   49.8630   33.9750   41.4730 H   0  0  0  0  0  0  0  0  0  0  0  0
   44.5870   35.7800   44.6450 C   0  0  0  0  0  0  0  0  0  0  0  0
   45.2010   35.3800   43.4470 C   0  0  0  0  0  0  0  0  0  0  0  0
   45.9730   34.1850   43.4570 C   0  0  0  0  0  0  0  0  0  0  0  0
   46.0760   33.4910   44.6260 N   0  0  0  0  0  0  0  0  0  0  0  0
   45.4660   33.9160   45.7560 C   0  0  0  0  0  0  0  0  0  0  0  0
   44.7250   35.0550   45.7690 N   0  0  0  0  0  0  0  0  0  0  0  0
   44.0310   36.6940   44.5190 H   0  0  0  0  0  0  0  0  0  0  0  0
   45.1190   35.9320   42.5180 H   0  0  0  0  0  0  0  0  0  0  0  0
   45.5420   33.3730   46.6900 H   0  0  0  0  0  0  0  0  0  0  0  0
   48.6450   34.3900   43.4250 O   0  0  0  0  0  0  0  0  0  0  0  0
   48.4870   35.2910   43.0550 H   0  0  0  0  0  0  0  0  0  0  0  0
   48.8120   35.2370   39.8160 O   0  0  0  0  0  0  0  0  0  0  0  0
   49.2680   35.3360   38.9490 H   0  0  0  0  0  0  0  0  0  0  0  0
   49.3970   32.0400   41.0960 O   0  0  0  0  0  0  0  0  0  0  0  0
   50.0070   30.1070   43.5250 Cl  0  0  0  0  0  0  0  0  0  0  0  0
   51.0620   30.4890   42.2070 C   0  0  0  0  0  0  0  0  0  0  0  0
   50.5300   31.3620   41.2920 C   0  0  0  0  0  0  0  0  0  0  0  0
   51.3790   31.6730   40.2270 C   0  0  0  0  0  0  0  0  0  0  0  0
   51.2370   32.3280   39.3590 H   0  0  0  0  0  0  0  0  0  0  0  0
   52.6700   31.1370   40.1000 C   0  0  0  0  0  0  0  0  0  0  0  0
   53.3980   31.3000   39.3400 H   0  0  0  0  0  0  0  0  0  0  0  0
   53.1080   30.2570   41.0920 C   0  0  0  0  0  0  0  0  0  0  0  0
   52.3010   29.9290   42.1530 C   0  0  0  0  0  0  0  0  0  0  0  0
  1  7  1  1  0  0  0
  1 22  1  0  0  0  0
  2  8  1  6  0  0  0
  2  1  1  0  0  0  0
  2 15  1  0  0  0  0
  3  2  1  0  0  0  0
  4  3  1  0  0  0  0
  5 11  1  6  0  0  0
  5  4  1  0  0  0  0
  5  6  1  0  0  0  0
  6 12  1  1  0  0  0
  6  1  1  0  0  0  0
  9  4  1  0  0  0  0
 10  4  1  0  0  0  0
 13 18  1  0  0  0  0
 14 15  1  0  0  0  0
 14 13  2  0  0  0  0
 15 16  2  0  0  0  0
 16 17  1  0  0  0  0
 17 18  2  0  0  0  0
 17 21  1  0  0  0  0
 19 13  1  0  0  0  0
 20 14  1  0  0  0  0
 23 22  1  0  0  0  0
 24  5  1  0  0  0  0
 25 24  1  0  0  0  0
 26  6  1  0  0  0  0
 26 29  1  0  0  0  0
 28 27  1  0  0  0  0
 29 28  2  0  0  0  0
 30 29  1  0  0  0  0
 31 30  1  0  0  0  0
 32 30  2  0  0  0  0
 32 34  1  0  0  0  0
 33 32  1  0  0  0  0
 34 35  2  0  0  0  0
 35 28  1  0  0  0  0
M  END
>  <minimizedAffinity>
-5.55224657

>  <minimizedRMSD>
0.284401953

$$$$
