
 OpenBabel03242521293D

 35 37  0  0  1  0  0  0  0  0999 V2000
   36.1560   29.3390   40.7520 C   0  0  1  0  0  0  0  0  0  0  0  0
   36.7020   29.1380   39.3620 C   0  0  2  0  0  0  0  0  0  0  0  0
   36.8560   30.3240   38.6690 O   0  0  0  0  0  0  0  0  0  0  0  0
   37.9140   30.9820   39.2750 C   0  0  0  0  0  0  0  0  0  0  0  0
   37.4680   31.4950   40.6000 C   0  0  2  0  0  0  0  0  0  0  0  0
   36.7760   30.4900   41.4920 C   0  0  2  0  0  0  0  0  0  0  0  0
   36.4060   28.3910   41.3050 H   0  0  0  0  0  0  0  0  0  0  0  0
   37.6670   28.6000   39.4470 H   0  0  0  0  0  0  0  0  0  0  0  0
   38.8330   30.3710   39.3170 H   0  0  0  0  0  0  0  0  0  0  0  0
   38.1390   31.8690   38.6470 H   0  0  0  0  0  0  0  0  0  0  0  0
   38.3170   31.9090   41.1840 H   0  0  0  0  0  0  0  0  0  0  0  0
   35.9240   31.0560   41.9330 H   0  0  0  0  0  0  0  0  0  0  0  0
   35.2110   26.0670   37.7070 C   0  0  0  0  0  0  0  0  0  0  0  0
   36.0880   26.8570   38.4660 C   0  0  0  0  0  0  0  0  0  0  0  0
   35.8060   28.2460   38.5870 C   0  0  0  0  0  0  0  0  0  0  0  0
   34.7000   28.7380   37.9590 N   0  0  0  0  0  0  0  0  0  0  0  0
   33.8820   27.9370   37.2380 C   0  0  0  0  0  0  0  0  0  0  0  0
   34.1340   26.6080   37.1100 N   0  0  0  0  0  0  0  0  0  0  0  0
   35.5220   25.0360   37.6860 H   0  0  0  0  0  0  0  0  0  0  0  0
   36.9680   26.4660   38.9640 H   0  0  0  0  0  0  0  0  0  0  0  0
   33.0010   28.3180   36.7350 H   0  0  0  0  0  0  0  0  0  0  0  0
   34.7560   29.4020   40.7650 O   0  0  0  0  0  0  0  0  0  0  0  0
   34.4860   30.1230   40.1480 H   0  0  0  0  0  0  0  0  0  0  0  0
   36.6140   32.5830   40.3090 O   0  0  0  0  0  0  0  0  0  0  0  0
   36.9810   33.4450   40.6100 H   0  0  0  0  0  0  0  0  0  0  0  0
   37.5870   30.0570   42.5170 O   0  0  0  0  0  0  0  0  0  0  0  0
   36.3900   27.3680   43.6790 Cl  0  0  0  0  0  0  0  0  0  0  0  0
   38.0450   27.6870   43.2840 C   0  0  0  0  0  0  0  0  0  0  0  0
   38.2760   28.9480   42.7950 C   0  0  0  0  0  0  0  0  0  0  0  0
   39.6110   29.2080   42.4760 C   0  0  0  0  0  0  0  0  0  0  0  0
   40.0940   30.1090   42.0740 H   0  0  0  0  0  0  0  0  0  0  0  0
   40.6330   28.2610   42.6400 C   0  0  0  0  0  0  0  0  0  0  0  0
   41.6740   28.3460   42.4330 H   0  0  0  0  0  0  0  0  0  0  0  0
   40.2810   27.0090   43.1460 C   0  0  0  0  0  3  0  0  0  0  0  0
   38.9790   26.7170   43.4710 C   0  0  0  0  0  3  0  0  0  0  0  0
  1 22  1  0  0  0  0
  1  7  1  1  0  0  0
  1  6  1  0  0  0  0
  2  8  1  1  0  0  0
  2  1  1  0  0  0  0
  3  4  1  0  0  0  0
  3  2  1  0  0  0  0
  4  9  1  0  0  0  0
  4  5  1  0  0  0  0
  5 11  1  1  0  0  0
  5  6  1  0  0  0  0
  6 12  1  1  0  0  0
  6 26  1  0  0  0  0
 10  4  1  0  0  0  0
 13 14  1  0  0  0  0
 14 15  2  0  0  0  0
 14 20  1  0  0  0  0
 15  2  1  0  0  0  0
 16 15  1  0  0  0  0
 17 16  2  0  0  0  0
 18 17  1  0  0  0  0
 18 13  2  0  0  0  0
 19 13  1  0  0  0  0
 21 17  1  0  0  0  0
 23 22  1  0  0  0  0
 24  5  1  0  0  0  0
 24 25  1  0  0  0  0
 26 29  1  0  0  0  0
 28 35  1  0  0  0  0
 28 27  1  0  0  0  0
 29 28  2  0  0  0  0
 30 32  2  0  0  0  0
 30 29  1  0  0  0  0
 31 30  1  0  0  0  0
 32 34  1  0  0  0  0
 33 32  1  0  0  0  0
 34 35  2  0  0  0  0
M  END
>  <minimizedAffinity>
-6.00498724

$$$$

 OpenBabel03242521293D

 35 37  0  0  1  0  0  0  0  0999 V2000
   39.1450   31.7970   38.0260 C   0  0  1  0  0  0  0  0  0  0  0  0
   40.0500   32.3350   39.1030 C   0  0  2  0  0  0  0  0  0  0  0  0
   39.5530   33.4780   39.7020 O   0  0  0  0  0  0  0  0  0  0  0  0
   38.4630   33.0680   40.4520 C   0  0  0  0  0  0  0  0  0  0  0  0
   37.3420   32.7300   39.5320 C   0  0  2  0  0  0  0  0  0  0  0  0
   37.6880   31.8000   38.3930 C   0  0  2  0  0  0  0  0  0  0  0  0
   39.4670   30.7280   37.8790 H   0  0  0  0  0  0  0  0  0  0  0  0
   40.2080   31.5320   39.8520 H   0  0  0  0  0  0  0  0  0  0  0  0
   38.7120   32.2660   41.1700 H   0  0  0  0  0  0  0  0  0  0  0  0
   38.1380   33.9480   41.0460 H   0  0  0  0  0  0  0  0  0  0  0  0
   36.4930   32.2660   40.0780 H   0  0  0  0  0  0  0  0  0  0  0  0
   37.1580   32.2350   37.5150 H   0  0  0  0  0  0  0  0  0  0  0  0
   43.6740   32.0080   38.0300 C   0  0  0  0  0  0  0  0  0  0  0  0
   42.4240   31.6590   38.5640 C   0  0  0  0  0  0  0  0  0  0  0  0
   41.3890   32.6350   38.5410 C   0  0  0  0  0  0  0  0  0  0  0  0
   41.6640   33.8570   38.0010 N   0  0  0  0  0  0  0  0  0  0  0  0
   42.8860   34.1480   37.4980 C   0  0  0  0  0  0  0  0  0  0  0  0
   43.8880   33.2300   37.5110 N   0  0  0  0  0  0  0  0  0  0  0  0
   44.3770   31.1950   38.1000 H   0  0  0  0  0  0  0  0  0  0  0  0
   42.2060   30.6880   38.9930 H   0  0  0  0  0  0  0  0  0  0  0  0
   43.1150   35.1150   37.0680 H   0  0  0  0  0  0  0  0  0  0  0  0
   39.3730   32.4130   36.7880 O   0  0  0  0  0  0  0  0  0  0  0  0
   39.2670   33.3850   36.9170 H   0  0  0  0  0  0  0  0  0  0  0  0
   36.8740   33.9720   39.0460 O   0  0  0  0  0  0  0  0  0  0  0  0
   35.9610   34.1790   39.3480 H   0  0  0  0  0  0  0  0  0  0  0  0
   37.2130   30.5240   38.5990 O   0  0  0  0  0  0  0  0  0  0  0  0
   35.0000   29.1770   40.4160 Cl  0  0  0  0  0  0  0  0  0  0  0  0
   35.1050   29.1250   38.6880 C   0  0  0  0  0  0  0  0  0  0  0  0
   36.1770   29.8030   38.1660 C   0  0  0  0  0  0  0  0  0  0  0  0
   36.2640   29.7620   36.7720 C   0  0  0  0  0  0  0  0  0  0  0  0
   36.9960   30.2010   36.0820 H   0  0  0  0  0  0  0  0  0  0  0  0
   35.3330   29.0850   35.9700 C   0  0  0  0  0  0  0  0  0  0  0  0
   35.2980   28.9870   34.9110 H   0  0  0  0  0  0  0  0  0  0  0  0
   34.2810   28.4290   36.6100 C   0  0  0  0  0  3  0  0  0  0  0  0
   34.1630   28.4470   37.9780 C   0  0  0  0  0  3  0  0  0  0  0  0
  1  7  1  6  0  0  0
  1  6  1  0  0  0  0
  1  2  1  0  0  0  0
  2  3  1  0  0  0  0
  2  8  1  1  0  0  0
  3  4  1  0  0  0  0
  4 10  1  0  0  0  0
  4  9  1  0  0  0  0
  5 11  1  1  0  0  0
  5  4  1  0  0  0  0
  6 12  1  6  0  0  0
  6 26  1  0  0  0  0
  6  5  1  0  0  0  0
 13 19  1  0  0  0  0
 13 14  1  0  0  0  0
 14 20  1  0  0  0  0
 15 14  2  0  0  0  0
 15  2  1  0  0  0  0
 16 15  1  0  0  0  0
 17 18  1  0  0  0  0
 17 16  2  0  0  0  0
 18 13  2  0  0  0  0
 21 17  1  0  0  0  0
 22 23  1  0  0  0  0
 22  1  1  0  0  0  0
 24 25  1  0  0  0  0
 24  5  1  0  0  0  0
 28 27  1  0  0  0  0
 29 26  1  0  0  0  0
 29 28  1  0  0  0  0
 30 29  2  0  0  0  0
 31 30  1  0  0  0  0
 32 34  2  0  0  0  0
 32 30  1  0  0  0  0
 33 32  1  0  0  0  0
 34 35  1  0  0  0  0
 35 28  2  0  0  0  0
M  END
>  <minimizedAffinity>
-5.9949398

$$$$

 OpenBabel03242521293D

 35 37  0  0  1  0  0  0  0  0999 V2000
   38.4290   30.8960   39.2240 C   0  0  1  0  0  0  0  0  0  0  0  0
   39.7630   31.5940   39.3050 C   0  0  2  0  0  0  0  0  0  0  0  0
   39.6660   32.9600   39.1220 O   0  0  0  0  0  0  0  0  0  0  0  0
   39.0400   33.4510   40.2570 C   0  0  0  0  0  0  0  0  0  0  0  0
   37.6020   33.0670   40.2200 C   0  0  2  0  0  0  0  0  0  0  0  0
   37.3210   31.6070   39.9460 C   0  0  2  0  0  0  0  0  0  0  0  0
   38.5890   29.8990   39.7220 H   0  0  0  0  0  0  0  0  0  0  0  0
   40.2140   31.3570   40.2900 H   0  0  0  0  0  0  0  0  0  0  0  0
   39.5570   33.1650   41.1910 H   0  0  0  0  0  0  0  0  0  0  0  0
   39.0790   34.5580   40.1870 H   0  0  0  0  0  0  0  0  0  0  0  0
   37.0880   33.3180   41.1730 H   0  0  0  0  0  0  0  0  0  0  0  0
   36.4620   31.6230   39.2370 H   0  0  0  0  0  0  0  0  0  0  0  0
   42.3910   31.3160   36.5840 C   0  0  0  0  0  0  0  0  0  0  0  0
   41.5460   31.8970   37.5420 C   0  0  0  0  0  0  0  0  0  0  0  0
   40.6900   31.0410   38.2890 C   0  0  0  0  0  0  0  0  0  0  0  0
   40.7350   29.7020   38.0360 N   0  0  0  0  0  0  0  0  0  0  0  0
   41.5660   29.1870   37.1010 C   0  0  0  0  0  0  0  0  0  0  0  0
   42.3910   29.9870   36.3770 N   0  0  0  0  0  0  0  0  0  0  0  0
   42.9910   32.0570   36.0820 H   0  0  0  0  0  0  0  0  0  0  0  0
   41.5110   32.9620   37.7430 H   0  0  0  0  0  0  0  0  0  0  0  0
   41.6090   28.1250   36.8920 H   0  0  0  0  0  0  0  0  0  0  0  0
   38.0770   30.5840   37.9040 O   0  0  0  0  0  0  0  0  0  0  0  0
   38.0940   31.4230   37.3860 H   0  0  0  0  0  0  0  0  0  0  0  0
   37.0240   33.8870   39.2260 O   0  0  0  0  0  0  0  0  0  0  0  0
   36.3730   34.5280   39.5930 H   0  0  0  0  0  0  0  0  0  0  0  0
   36.9360   30.9280   41.0800 O   0  0  0  0  0  0  0  0  0  0  0  0
   39.5910   30.9000   42.8000 Cl  0  0  0  0  0  0  0  0  0  0  0  0
   38.4690   29.5980   42.5940 C   0  0  0  0  0  0  0  0  0  0  0  0
   37.4000   29.8960   41.7880 C   0  0  0  0  0  0  0  0  0  0  0  0
   36.4930   28.8470   41.6190 C   0  0  0  0  0  0  0  0  0  0  0  0
   35.5610   28.7850   41.0430 H   0  0  0  0  0  0  0  0  0  0  0  0
   36.6590   27.5910   42.2230 C   0  0  0  0  0  0  0  0  0  0  0  0
   36.0400   26.7270   42.1670 H   0  0  0  0  0  0  0  0  0  0  0  0
   37.7860   27.4010   43.0240 C   0  0  0  0  0  3  0  0  0  0  0  0
   38.6990   28.4090   43.2120 C   0  0  0  0  0  3  0  0  0  0  0  0
  1  2  1  0  0  0  0
  1  7  1  1  0  0  0
  1  6  1  0  0  0  0
  2  8  1  1  0  0  0
  3  2  1  0  0  0  0
  3  4  1  0  0  0  0
  4  9  1  0  0  0  0
  5  4  1  0  0  0  0
  5 11  1  1  0  0  0
  6 12  1  6  0  0  0
  6  5  1  0  0  0  0
  6 26  1  0  0  0  0
 10  4  1  0  0  0  0
 13 14  1  0  0  0  0
 14 20  1  0  0  0  0
 14 15  2  0  0  0  0
 15  2  1  0  0  0  0
 16 15  1  0  0  0  0
 17 16  2  0  0  0  0
 18 13  2  0  0  0  0
 18 17  1  0  0  0  0
 19 13  1  0  0  0  0
 21 17  1  0  0  0  0
 22  1  1  0  0  0  0
 23 22  1  0  0  0  0
 24 25  1  0  0  0  0
 24  5  1  0  0  0  0
 26 29  1  0  0  0  0
 28 27  1  0  0  0  0
 28 35  1  0  0  0  0
 29 28  2  0  0  0  0
 30 29  1  0  0  0  0
 30 32  2  0  0  0  0
 31 30  1  0  0  0  0
 32 34  1  0  0  0  0
 33 32  1  0  0  0  0
 34 35  2  0  0  0  0
M  END
>  <minimizedAffinity>
-5.78500032

$$$$

 OpenBabel03242521293D

 35 37  0  0  1  0  0  0  0  0999 V2000
   38.5620   30.9750   39.3350 C   0  0  1  0  0  0  0  0  0  0  0  0
   39.8730   31.7170   39.3240 C   0  0  2  0  0  0  0  0  0  0  0  0
   39.7240   33.0670   39.0640 O   0  0  0  0  0  0  0  0  0  0  0  0
   39.1250   33.6050   40.1920 C   0  0  0  0  0  0  0  0  0  0  0  0
   37.7000   33.1740   40.2340 C   0  0  2  0  0  0  0  0  0  0  0  0
   37.4580   31.6940   40.0570 C   0  0  2  0  0  0  0  0  0  0  0  0
   38.7730   30.0150   39.8840 H   0  0  0  0  0  0  0  0  0  0  0  0
   40.3680   31.5540   40.3020 H   0  0  0  0  0  0  0  0  0  0  0  0
   39.6850   33.3920   41.1200 H   0  0  0  0  0  0  0  0  0  0  0  0
   39.1240   34.7060   40.0560 H   0  0  0  0  0  0  0  0  0  0  0  0
   37.2140   33.4660   41.1890 H   0  0  0  0  0  0  0  0  0  0  0  0
   36.5730   31.6400   39.3820 H   0  0  0  0  0  0  0  0  0  0  0  0
   42.4100   31.3590   36.5250 C   0  0  0  0  0  0  0  0  0  0  0  0
   41.5820   31.9700   37.4800 C   0  0  0  0  0  0  0  0  0  0  0  0
   40.7810   31.1340   38.3060 C   0  0  0  0  0  0  0  0  0  0  0  0
   40.8580   29.7850   38.1280 N   0  0  0  0  0  0  0  0  0  0  0  0
   41.6710   29.2400   37.1940 C   0  0  0  0  0  0  0  0  0  0  0  0
   42.4440   30.0210   36.3940 N   0  0  0  0  0  0  0  0  0  0  0  0
   42.9680   32.0870   35.9600 H   0  0  0  0  0  0  0  0  0  0  0  0
   41.5200   33.0430   37.6210 H   0  0  0  0  0  0  0  0  0  0  0  0
   41.7390   28.1700   37.0440 H   0  0  0  0  0  0  0  0  0  0  0  0
   38.1720   30.5730   38.0500 O   0  0  0  0  0  0  0  0  0  0  0  0
   38.1410   31.3800   37.4840 H   0  0  0  0  0  0  0  0  0  0  0  0
   37.0580   33.9160   39.2160 O   0  0  0  0  0  0  0  0  0  0  0  0
   36.4000   34.5570   39.5700 H   0  0  0  0  0  0  0  0  0  0  0  0
   37.1370   31.0720   41.2430 O   0  0  0  0  0  0  0  0  0  0  0  0
   35.0720   28.8670   40.3010 Cl  0  0  0  0  0  0  0  0  0  0  0  0
   36.3330   28.6820   41.4740 C   0  0  0  0  0  0  0  0  0  0  0  0
   37.0790   29.8130   41.6840 C   0  0  0  0  0  0  0  0  0  0  0  0
   38.0970   29.6670   42.6300 C   0  0  0  0  0  0  0  0  0  0  0  0
   38.8430   30.3810   43.0030 H   0  0  0  0  0  0  0  0  0  0  0  0
   38.3380   28.4630   43.3100 C   0  0  0  0  0  0  0  0  0  0  0  0
   39.0760   28.2380   44.0430 H   0  0  0  0  0  0  0  0  0  0  0  0
   37.5140   27.3760   43.0160 C   0  0  0  0  0  3  0  0  0  0  0  0
   36.5040   27.4830   42.0920 C   0  0  0  0  0  3  0  0  0  0  0  0
  1  7  1  1  0  0  0
  1  6  1  0  0  0  0
  2  1  1  0  0  0  0
  2  8  1  1  0  0  0
  3  2  1  0  0  0  0
  3  4  1  0  0  0  0
  4  5  1  0  0  0  0
  4  9  1  0  0  0  0
  5 11  1  1  0  0  0
  6 12  1  6  0  0  0
  6  5  1  0  0  0  0
  6 26  1  0  0  0  0
 10  4  1  0  0  0  0
 13 14  1  0  0  0  0
 14 20  1  0  0  0  0
 14 15  2  0  0  0  0
 15  2  1  0  0  0  0
 16 15  1  0  0  0  0
 17 16  2  0  0  0  0
 18 13  2  0  0  0  0
 18 17  1  0  0  0  0
 19 13  1  0  0  0  0
 21 17  1  0  0  0  0
 22  1  1  0  0  0  0
 23 22  1  0  0  0  0
 24 25  1  0  0  0  0
 24  5  1  0  0  0  0
 26 29  1  0  0  0  0
 27 28  1  0  0  0  0
 28 29  2  0  0  0  0
 28 35  1  0  0  0  0
 29 30  1  0  0  0  0
 30 31  1  0  0  0  0
 30 32  2  0  0  0  0
 32 33  1  0  0  0  0
 34 32  1  0  0  0  0
 35 34  2  0  0  0  0
M  END
>  <minimizedAffinity>
-5.76551676

$$$$

 OpenBabel03242521293D

 35 37  0  0  1  0  0  0  0  0999 V2000
   37.2360   29.8160   41.3380 C   0  0  1  0  0  0  0  0  0  0  0  0
   37.6200   28.4910   40.7310 C   0  0  2  0  0  0  0  0  0  0  0  0
   36.5280   27.7570   40.3070 O   0  0  0  0  0  0  0  0  0  0  0  0
   36.0320   28.4230   39.1980 C   0  0  0  0  0  0  0  0  0  0  0  0
   35.3640   29.6760   39.6450 C   0  0  2  0  0  0  0  0  0  0  0  0
   36.1700   30.5510   40.5770 C   0  0  2  0  0  0  0  0  0  0  0  0
   38.1760   30.4340   41.3110 H   0  0  0  0  0  0  0  0  0  0  0  0
   38.3160   28.6880   39.8900 H   0  0  0  0  0  0  0  0  0  0  0  0
   36.7930   28.5760   38.4120 H   0  0  0  0  0  0  0  0  0  0  0  0
   35.2420   27.7750   38.7650 H   0  0  0  0  0  0  0  0  0  0  0  0
   35.0710   30.3130   38.7830 H   0  0  0  0  0  0  0  0  0  0  0  0
   35.4330   30.8860   41.3430 H   0  0  0  0  0  0  0  0  0  0  0  0
   38.8650   25.5890   42.8340 C   0  0  0  0  0  0  0  0  0  0  0  0
   38.1170   26.2970   41.8800 C   0  0  0  0  0  0  0  0  0  0  0  0
   38.3860   27.6840   41.7110 C   0  0  0  0  0  0  0  0  0  0  0  0
   39.3540   28.2530   42.4840 N   0  0  0  0  0  0  0  0  0  0  0  0
   40.0490   27.5310   43.3920 C   0  0  0  0  0  0  0  0  0  0  0  0
   39.8080   26.2050   43.5690 N   0  0  0  0  0  0  0  0  0  0  0  0
   38.5770   24.5520   42.8750 H   0  0  0  0  0  0  0  0  0  0  0  0
   37.3470   25.8430   41.2660 H   0  0  0  0  0  0  0  0  0  0  0  0
   40.8200   27.9740   44.0110 H   0  0  0  0  0  0  0  0  0  0  0  0
   36.9230   29.7010   42.6990 O   0  0  0  0  0  0  0  0  0  0  0  0
   36.2070   29.0280   42.7830 H   0  0  0  0  0  0  0  0  0  0  0  0
   34.1620   29.2570   40.2590 O   0  0  0  0  0  0  0  0  0  0  0  0
   33.3610   29.5470   39.7650 H   0  0  0  0  0  0  0  0  0  0  0  0
   36.6740   31.6640   39.9430 O   0  0  0  0  0  0  0  0  0  0  0  0
   38.6360   30.4180   37.7960 Cl  0  0  0  0  0  0  0  0  0  0  0  0
   38.9190   31.8130   38.7810 C   0  0  0  0  0  0  0  0  0  0  0  0
   37.8870   32.1250   39.6280 C   0  0  0  0  0  0  0  0  0  0  0  0
   38.1120   33.2500   40.4250 C   0  0  0  0  0  0  0  0  0  0  0  0
   37.4840   33.7350   41.1840 H   0  0  0  0  0  0  0  0  0  0  0  0
   39.2960   34.0020   40.3660 C   0  0  0  0  0  0  0  0  0  0  0  0
   39.5750   34.8680   40.9180 H   0  0  0  0  0  0  0  0  0  0  0  0
   40.2800   33.5910   39.4650 C   0  0  0  0  0  3  0  0  0  0  0  0
   40.0930   32.4900   38.6660 C   0  0  0  0  0  3  0  0  0  0  0  0
  1  7  1  6  0  0  0
  1 22  1  0  0  0  0
  2  8  1  6  0  0  0
  2  1  1  0  0  0  0
  2 15  1  0  0  0  0
  3  2  1  0  0  0  0
  4  5  1  0  0  0  0
  4  3  1  0  0  0  0
  5 11  1  6  0  0  0
  5 24  1  0  0  0  0
  5  6  1  0  0  0  0
  6  1  1  0  0  0  0
  6 12  1  1  0  0  0
  9  4  1  0  0  0  0
 10  4  1  0  0  0  0
 13 19  1  0  0  0  0
 13 18  1  0  0  0  0
 14 13  2  0  0  0  0
 15 14  1  0  0  0  0
 15 16  2  0  0  0  0
 16 17  1  0  0  0  0
 17 18  2  0  0  0  0
 17 21  1  0  0  0  0
 20 14  1  0  0  0  0
 22 23  1  0  0  0  0
 25 24  1  0  0  0  0
 26  6  1  0  0  0  0
 27 28  1  0  0  0  0
 28 29  1  0  0  0  0
 29 26  1  0  0  0  0
 29 30  2  0  0  0  0
 30 31  1  0  0  0  0
 32 30  1  0  0  0  0
 32 33  1  0  0  0  0
 34 32  2  0  0  0  0
 35 28  2  0  0  0  0
 35 34  1  0  0  0  0
M  END
>  <minimizedAffinity>
-5.70495129

$$$$

 OpenBabel03242521293D

 35 37  0  0  1  0  0  0  0  0999 V2000
   36.3940   28.2140   40.0090 C   0  0  1  0  0  0  0  0  0  0  0  0
   37.4940   28.9760   39.3160 C   0  0  2  0  0  0  0  0  0  0  0  0
   37.4230   30.3390   39.5350 O   0  0  0  0  0  0  0  0  0  0  0  0
   37.7660   30.5280   40.8640 C   0  0  0  0  0  0  0  0  0  0  0  0
   36.6470   30.0530   41.7240 C   0  0  2  0  0  0  0  0  0  0  0  0
   36.1250   28.6700   41.4150 C   0  0  2  0  0  0  0  0  0  0  0  0
   36.7550   27.1490   40.0480 H   0  0  0  0  0  0  0  0  0  0  0  0
   38.4650   28.5690   39.6650 H   0  0  0  0  0  0  0  0  0  0  0  0
   38.7470   30.0890   41.1220 H   0  0  0  0  0  0  0  0  0  0  0  0
   37.8480   31.6240   41.0190 H   0  0  0  0  0  0  0  0  0  0  0  0
   36.9290   30.0560   42.7990 H   0  0  0  0  0  0  0  0  0  0  0  0
   35.0180   28.7720   41.4910 H   0  0  0  0  0  0  0  0  0  0  0  0
   38.0770   27.4490   35.8930 C   0  0  0  0  0  0  0  0  0  0  0  0
   38.1470   27.6260   37.2840 C   0  0  0  0  0  0  0  0  0  0  0  0
   37.4470   28.7250   37.8560 C   0  0  0  0  0  0  0  0  0  0  0  0
   36.7450   29.5470   37.0260 N   0  0  0  0  0  0  0  0  0  0  0  0
   36.7060   29.3360   35.6900 C   0  0  0  0  0  0  0  0  0  0  0  0
   37.3680   28.2930   35.1230 N   0  0  0  0  0  0  0  0  0  0  0  0
   38.6420   26.5890   35.5740 H   0  0  0  0  0  0  0  0  0  0  0  0
   38.7060   26.9720   37.9430 H   0  0  0  0  0  0  0  0  0  0  0  0
   36.1510   29.9840   35.0210 H   0  0  0  0  0  0  0  0  0  0  0  0
   35.2220   28.1660   39.2420 O   0  0  0  0  0  0  0  0  0  0  0  0
   34.9630   29.0950   39.0370 H   0  0  0  0  0  0  0  0  0  0  0  0
   35.6290   31.0220   41.5760 O   0  0  0  0  0  0  0  0  0  0  0  0
   35.4530   31.5190   42.4080 H   0  0  0  0  0  0  0  0  0  0  0  0
   36.5390   27.7370   42.3390 O   0  0  0  0  0  0  0  0  0  0  0  0
   39.5870   28.3110   42.9680 Cl  0  0  0  0  0  0  0  0  0  0  0  0
   38.8580   26.7710   42.6590 C   0  0  0  0  0  0  0  0  0  0  0  0
   37.5090   26.8230   42.4150 C   0  0  0  0  0  0  0  0  0  0  0  0
   36.9190   25.5820   42.1650 C   0  0  0  0  0  0  0  0  0  0  0  0
   35.8790   25.3100   41.9410 H   0  0  0  0  0  0  0  0  0  0  0  0
   37.6420   24.3790   42.1630 C   0  0  0  0  0  0  0  0  0  0  0  0
   37.3020   23.3860   41.9870 H   0  0  0  0  0  0  0  0  0  0  0  0
   39.0110   24.4470   42.4240 C   0  0  0  0  0  3  0  0  0  0  0  0
   39.6260   25.6490   42.6740 C   0  0  0  0  0  3  0  0  0  0  0  0
  1  7  1  1  0  0  0
  1  6  1  0  0  0  0
  2  3  1  0  0  0  0
  2  8  1  1  0  0  0
  2  1  1  0  0  0  0
  3  4  1  0  0  0  0
  4 10  1  0  0  0  0
  4  9  1  0  0  0  0
  4  5  1  0  0  0  0
  5 11  1  1  0  0  0
  6 12  1  1  0  0  0
  6  5  1  0  0  0  0
  6 26  1  0  0  0  0
 13 14  1  0  0  0  0
 14 15  2  0  0  0  0
 14 20  1  0  0  0  0
 15  2  1  0  0  0  0
 16 15  1  0  0  0  0
 17 16  2  0  0  0  0
 18 17  1  0  0  0  0
 18 13  2  0  0  0  0
 19 13  1  0  0  0  0
 21 17  1  0  0  0  0
 22  1  1  0  0  0  0
 23 22  1  0  0  0  0
 24  5  1  0  0  0  0
 24 25  1  0  0  0  0
 26 29  1  0  0  0  0
 28 35  1  0  0  0  0
 28 27  1  0  0  0  0
 29 28  2  0  0  0  0
 30 29  1  0  0  0  0
 31 30  1  0  0  0  0
 32 30  2  0  0  0  0
 32 34  1  0  0  0  0
 33 32  1  0  0  0  0
 34 35  2  0  0  0  0
M  END
>  <minimizedAffinity>
-5.60928106

$$$$

 OpenBabel03242521293D

 35 37  0  0  1  0  0  0  0  0999 V2000
   38.9250   27.8740   40.9900 C   0  0  1  0  0  0  0  0  0  0  0  0
   37.6680   27.1060   40.6730 C   0  0  2  0  0  0  0  0  0  0  0  0
   36.7060   27.2190   41.6600 O   0  0  0  0  0  0  0  0  0  0  0  0
   36.2440   28.5230   41.5910 C   0  0  0  0  0  0  0  0  0  0  0  0
   37.2930   29.4360   42.1250 C   0  0  2  0  0  0  0  0  0  0  0  0
   38.6790   29.2440   41.5550 C   0  0  2  0  0  0  0  0  0  0  0  0
   39.4540   27.9900   40.0040 H   0  0  0  0  0  0  0  0  0  0  0  0
   37.2810   27.4690   39.6990 H   0  0  0  0  0  0  0  0  0  0  0  0
   35.8800   28.7990   40.5850 H   0  0  0  0  0  0  0  0  0  0  0  0
   35.3780   28.5910   42.2820 H   0  0  0  0  0  0  0  0  0  0  0  0
   37.0260   30.5020   41.9640 H   0  0  0  0  0  0  0  0  0  0  0  0
   39.3520   29.3290   42.4390 H   0  0  0  0  0  0  0  0  0  0  0  0
   37.6600   23.3270   41.0060 C   0  0  0  0  0  0  0  0  0  0  0  0
   37.3070   24.6680   41.2260 C   0  0  0  0  0  0  0  0  0  0  0  0
   37.9830   25.6710   40.4760 C   0  0  0  0  0  0  0  0  0  0  0  0
   38.9360   25.2790   39.5840 N   0  0  0  0  0  0  0  0  0  0  0  0
   39.2430   23.9740   39.4050 C   0  0  0  0  0  0  0  0  0  0  0  0
   38.6100   23.0000   40.1110 N   0  0  0  0  0  0  0  0  0  0  0  0
   37.0870   22.6590   41.6250 H   0  0  0  0  0  0  0  0  0  0  0  0
   36.5500   24.9790   41.9360 H   0  0  0  0  0  0  0  0  0  0  0  0
   39.9990   23.6520   38.7000 H   0  0  0  0  0  0  0  0  0  0  0  0
   39.8100   27.1320   41.7850 O   0  0  0  0  0  0  0  0  0  0  0  0
   39.3210   26.8590   42.5980 H   0  0  0  0  0  0  0  0  0  0  0  0
   37.2890   29.2290   43.5230 O   0  0  0  0  0  0  0  0  0  0  0  0
   36.9890   30.0220   44.0230 H   0  0  0  0  0  0  0  0  0  0  0  0
   39.0150   30.2320   40.6560 O   0  0  0  0  0  0  0  0  0  0  0  0
   36.6100   30.5570   38.6260 Cl  0  0  0  0  0  0  0  0  0  0  0  0
   37.4820   31.8240   39.4220 C   0  0  0  0  0  0  0  0  0  0  0  0
   38.4820   31.3870   40.2530 C   0  0  0  0  0  0  0  0  0  0  0  0
   39.1870   32.4070   40.8950 C   0  0  0  0  0  0  0  0  0  0  0  0
   40.0240   32.3690   41.6050 H   0  0  0  0  0  0  0  0  0  0  0  0
   38.8990   33.7680   40.7090 C   0  0  0  0  0  0  0  0  0  0  0  0
   39.3640   34.6220   41.1410 H   0  0  0  0  0  0  0  0  0  0  0  0
   37.8580   34.0960   39.8390 C   0  0  0  0  0  3  0  0  0  0  0  0
   37.1430   33.1210   39.1900 C   0  0  0  0  0  3  0  0  0  0  0  0
  1  7  1  6  0  0  0
  1  6  1  0  0  0  0
  1 22  1  0  0  0  0
  2  8  1  6  0  0  0
  2  1  1  0  0  0  0
  2  3  1  0  0  0  0
  4  3  1  0  0  0  0
  4  5  1  0  0  0  0
  4 10  1  0  0  0  0
  5 11  1  6  0  0  0
  5 24  1  0  0  0  0
  6  5  1  0  0  0  0
  6 12  1  1  0  0  0
  9  4  1  0  0  0  0
 13 14  1  0  0  0  0
 13 19  1  0  0  0  0
 14 20  1  0  0  0  0
 15  2  1  0  0  0  0
 15 14  2  0  0  0  0
 16 15  1  0  0  0  0
 17 16  2  0  0  0  0
 17 18  1  0  0  0  0
 18 13  2  0  0  0  0
 21 17  1  0  0  0  0
 22 23  1  0  0  0  0
 24 25  1  0  0  0  0
 26  6  1  0  0  0  0
 27 28  1  0  0  0  0
 28 29  1  0  0  0  0
 29 26  1  0  0  0  0
 29 30  2  0  0  0  0
 30 31  1  0  0  0  0
 32 30  1  0  0  0  0
 32 33  1  0  0  0  0
 34 32  2  0  0  0  0
 35 28  2  0  0  0  0
 35 34  1  0  0  0  0
M  END
>  <minimizedAffinity>
-5.58523655

$$$$

 OpenBabel03242521293D

 35 37  0  0  1  0  0  0  0  0999 V2000
   36.3710   29.7210   39.7340 C   0  0  1  0  0  0  0  0  0  0  0  0
   37.4900   29.7720   38.7260 C   0  0  2  0  0  0  0  0  0  0  0  0
   37.8290   31.0620   38.3650 O   0  0  0  0  0  0  0  0  0  0  0  0
   38.4450   31.6170   39.4740 C   0  0  0  0  0  0  0  0  0  0  0  0
   37.4150   31.8860   40.5160 C   0  0  2  0  0  0  0  0  0  0  0  0
   36.4940   30.7320   40.8370 C   0  0  2  0  0  0  0  0  0  0  0  0
   36.4340   28.6940   40.1900 H   0  0  0  0  0  0  0  0  0  0  0  0
   38.3620   29.2390   39.1560 H   0  0  0  0  0  0  0  0  0  0  0  0
   39.3020   31.0200   39.8340 H   0  0  0  0  0  0  0  0  0  0  0  0
   38.8450   32.6030   39.1560 H   0  0  0  0  0  0  0  0  0  0  0  0
   37.8780   32.2030   41.4750 H   0  0  0  0  0  0  0  0  0  0  0  0
   35.4880   31.2030   40.9260 H   0  0  0  0  0  0  0  0  0  0  0  0
   36.6870   28.8990   35.1230 C   0  0  0  0  0  0  0  0  0  0  0  0
   37.0660   29.6620   36.2390 C   0  0  0  0  0  0  0  0  0  0  0  0
   37.1130   29.0180   37.5070 C   0  0  0  0  0  0  0  0  0  0  0  0
   36.7900   27.6960   37.5720 N   0  0  0  0  0  0  0  0  0  0  0  0
   36.4310   27.0000   36.4690 C   0  0  0  0  0  0  0  0  0  0  0  0
   36.3780   27.5960   35.2490 N   0  0  0  0  0  0  0  0  0  0  0  0
   36.6860   29.4880   34.2210 H   0  0  0  0  0  0  0  0  0  0  0  0
   37.3220   30.7140   36.1860 H   0  0  0  0  0  0  0  0  0  0  0  0
   36.1710   25.9490   36.5110 H   0  0  0  0  0  0  0  0  0  0  0  0
   35.1100   29.7640   39.1230 O   0  0  0  0  0  0  0  0  0  0  0  0
   35.0770   30.5780   38.5670 H   0  0  0  0  0  0  0  0  0  0  0  0
   36.6850   32.9970   40.0380 O   0  0  0  0  0  0  0  0  0  0  0  0
   36.8030   33.7990   40.5970 H   0  0  0  0  0  0  0  0  0  0  0  0
   36.8030   30.1370   42.0400 O   0  0  0  0  0  0  0  0  0  0  0  0
   39.8780   30.5300   42.6720 Cl  0  0  0  0  0  0  0  0  0  0  0  0
   38.9680   29.0630   42.7950 C   0  0  0  0  0  0  0  0  0  0  0  0
   37.6450   29.1880   42.4550 C   0  0  0  0  0  0  0  0  0  0  0  0
   36.9080   28.0050   42.5520 C   0  0  0  0  0  0  0  0  0  0  0  0
   35.8490   27.7970   42.3510 H   0  0  0  0  0  0  0  0  0  0  0  0
   37.4720   26.7880   42.9640 C   0  0  0  0  0  0  0  0  0  0  0  0
   37.0120   25.8340   43.0740 H   0  0  0  0  0  0  0  0  0  0  0  0
   38.8290   26.7780   43.2850 C   0  0  0  0  0  3  0  0  0  0  0  0
   39.5850   27.9210   43.2010 C   0  0  0  0  0  3  0  0  0  0  0  0
  1  7  1  1  0  0  0
  1  6  1  0  0  0  0
  2  8  1  1  0  0  0
  2  1  1  0  0  0  0
  3  2  1  0  0  0  0
  3  4  1  0  0  0  0
  4  9  1  0  0  0  0
  4  5  1  0  0  0  0
  5  6  1  0  0  0  0
  5 11  1  1  0  0  0
  6 12  1  1  0  0  0
  6 26  1  0  0  0  0
 10  4  1  0  0  0  0
 13 18  2  0  0  0  0
 13 14  1  0  0  0  0
 14 15  2  0  0  0  0
 15 16  1  0  0  0  0
 15  2  1  0  0  0  0
 17 21  1  0  0  0  0
 17 16  2  0  0  0  0
 18 17  1  0  0  0  0
 19 13  1  0  0  0  0
 20 14  1  0  0  0  0
 22  1  1  0  0  0  0
 23 22  1  0  0  0  0
 24  5  1  0  0  0  0
 24 25  1  0  0  0  0
 26 29  1  0  0  0  0
 27 28  1  0  0  0  0
 28 35  1  0  0  0  0
 29 30  1  0  0  0  0
 29 28  2  0  0  0  0
 30 32  2  0  0  0  0
 31 30  1  0  0  0  0
 32 33  1  0  0  0  0
 32 34  1  0  0  0  0
 35 34  2  0  0  0  0
M  END
>  <minimizedAffinity>
-5.55543947

$$$$

 OpenBabel03242521293D

 35 37  0  0  1  0  0  0  0  0999 V2000
   39.1830   31.8520   38.5240 C   0  0  1  0  0  0  0  0  0  0  0  0
   40.1040   32.6530   39.4070 C   0  0  2  0  0  0  0  0  0  0  0  0
   39.5920   33.8950   39.7310 O   0  0  0  0  0  0  0  0  0  0  0  0
   38.5380   33.6560   40.5980 C   0  0  0  0  0  0  0  0  0  0  0  0
   37.4000   33.0820   39.8280 C   0  0  2  0  0  0  0  0  0  0  0  0
   37.7390   31.9130   38.9330 C   0  0  2  0  0  0  0  0  0  0  0  0
   39.5320   30.7870   38.6260 H   0  0  0  0  0  0  0  0  0  0  0  0
   40.3080   32.0580   40.3200 H   0  0  0  0  0  0  0  0  0  0  0  0
   38.8320   33.0550   41.4770 H   0  0  0  0  0  0  0  0  0  0  0  0
   38.2050   34.6450   40.9750 H   0  0  0  0  0  0  0  0  0  0  0  0
   36.5820   32.7450   40.4990 H   0  0  0  0  0  0  0  0  0  0  0  0
   37.1690   32.1120   37.9960 H   0  0  0  0  0  0  0  0  0  0  0  0
   43.6560   32.0840   38.2000 C   0  0  0  0  0  0  0  0  0  0  0  0
   42.4300   31.8450   38.8420 C   0  0  0  0  0  0  0  0  0  0  0  0
   41.4160   32.8380   38.7400 C   0  0  0  0  0  0  0  0  0  0  0  0
   41.6860   33.9670   38.0260 N   0  0  0  0  0  0  0  0  0  0  0  0
   42.8830   34.1540   37.4250 C   0  0  0  0  0  0  0  0  0  0  0  0
   43.8660   33.2190   37.5100 N   0  0  0  0  0  0  0  0  0  0  0  0
   44.3440   31.2680   38.3450 H   0  0  0  0  0  0  0  0  0  0  0  0
   42.2160   30.9470   39.4090 H   0  0  0  0  0  0  0  0  0  0  0  0
   43.1080   35.0480   36.8560 H   0  0  0  0  0  0  0  0  0  0  0  0
   39.3550   32.1570   37.1670 O   0  0  0  0  0  0  0  0  0  0  0  0
   39.2240   33.1290   37.0620 H   0  0  0  0  0  0  0  0  0  0  0  0
   36.8810   34.1600   39.0750 O   0  0  0  0  0  0  0  0  0  0  0  0
   35.9710   34.4140   39.3520 H   0  0  0  0  0  0  0  0  0  0  0  0
   37.3080   30.7140   39.4560 O   0  0  0  0  0  0  0  0  0  0  0  0
   39.0520   28.2400   38.5350 Cl  0  0  0  0  0  0  0  0  0  0  0  0
   38.5780   28.6370   40.1520 C   0  0  0  0  0  0  0  0  0  0  0  0
   37.8190   29.7740   40.2550 C   0  0  0  0  0  0  0  0  0  0  0  0
   37.4340   30.0970   41.5590 C   0  0  0  0  0  0  0  0  0  0  0  0
   36.8360   30.9310   41.9490 H   0  0  0  0  0  0  0  0  0  0  0  0
   37.7950   29.3240   42.6740 C   0  0  0  0  0  0  0  0  0  0  0  0
   37.5620   29.4710   43.7020 H   0  0  0  0  0  0  0  0  0  0  0  0
   38.5700   28.1860   42.4490 C   0  0  0  0  0  3  0  0  0  0  0  0
   38.9660   27.8370   41.1810 C   0  0  0  0  0  3  0  0  0  0  0  0
  1  7  1  1  0  0  0
  1  6  1  0  0  0  0
  1  2  1  0  0  0  0
  2  3  1  0  0  0  0
  2  8  1  1  0  0  0
  3  4  1  0  0  0  0
  4 10  1  0  0  0  0
  4  9  1  0  0  0  0
  5 11  1  1  0  0  0
  5  4  1  0  0  0  0
  6 12  1  6  0  0  0
  6 26  1  0  0  0  0
  6  5  1  0  0  0  0
 13 19  1  0  0  0  0
 13 14  1  0  0  0  0
 14 20  1  0  0  0  0
 15 14  2  0  0  0  0
 15  2  1  0  0  0  0
 16 15  1  0  0  0  0
 17 18  1  0  0  0  0
 17 16  2  0  0  0  0
 18 13  2  0  0  0  0
 21 17  1  0  0  0  0
 22  1  1  0  0  0  0
 23 22  1  0  0  0  0
 24 25  1  0  0  0  0
 24  5  1  0  0  0  0
 26 29  1  0  0  0  0
 27 28  1  0  0  0  0
 28 29  2  0  0  0  0
 28 35  1  0  0  0  0
 29 30  1  0  0  0  0
 30 31  1  0  0  0  0
 30 32  2  0  0  0  0
 32 33  1  0  0  0  0
 34 32  1  0  0  0  0
 35 34  2  0  0  0  0
M  END
>  <minimizedAffinity>
-5.50613832

$$$$
