
 OpenBabel03242520173D

 31 33  0  0  0  0  0  0  0  0999 V2000
   44.2530   34.2520   41.5680 C   0  0  0  0  0  0  0  0  0  0  0  0
   43.5000   35.1330   40.7750 C   0  0  0  0  0  0  0  0  0  0  0  0
   42.9960   34.6230   39.5560 C   0  0  0  0  0  0  0  0  0  0  0  0
   43.2740   33.3090   39.2320 N   0  0  0  0  0  0  0  0  0  0  0  0
   44.0110   32.5280   40.0580 C   0  0  0  0  0  0  0  0  0  0  0  0
   44.4900   32.9800   41.1980 N   0  0  0  0  0  0  0  0  0  0  0  0
   43.3320   36.1430   41.1000 H   0  0  0  0  0  0  0  0  0  0  0  0
   44.1190   31.5390   39.6340 H   0  0  0  0  0  0  0  0  0  0  0  0
   44.7910   34.7670   42.8550 C   0  0  0  0  0  0  0  0  0  0  0  0
   46.2700   35.2470   42.7350 C   0  0  0  0  0  0  0  0  0  0  0  0
   45.1220   36.1380   43.0810 C   0  0  0  0  0  0  0  0  0  0  0  0
   44.6010   34.0550   43.6900 H   0  0  0  0  0  0  0  0  0  0  0  0
   46.9390   34.8200   43.4810 H   0  0  0  0  0  0  0  0  0  0  0  0
   46.7110   35.2860   41.7210 H   0  0  0  0  0  0  0  0  0  0  0  0
   45.1420   36.5230   44.1320 H   0  0  0  0  0  0  0  0  0  0  0  0
   44.8760   36.9450   42.3690 H   0  0  0  0  0  0  0  0  0  0  0  0
   42.1940   35.4960   38.6750 C   0  0  0  0  0  0  0  0  0  0  0  0
   42.7210   36.4940   38.6300 H   0  0  0  0  0  0  0  0  0  0  0  0
   42.1170   35.1240   37.6540 H   0  0  0  0  0  0  0  0  0  0  0  0
   40.8200   35.7550   39.2200 C   0  0  0  0  0  0  0  0  0  0  0  0
   40.8450   36.0690   40.2980 H   0  0  0  0  0  0  0  0  0  0  0  0
   40.4640   36.6830   38.7040 H   0  0  0  0  0  0  0  0  0  0  0  0
   40.0830   34.4400   41.7500 Cl  0  0  0  0  0  0  0  0  0  0  0  0
   39.4450   34.0900   40.1350 C   0  0  0  0  0  0  0  0  0  0  0  0
   39.8160   34.7330   38.9460 C   0  0  0  0  0  0  0  0  0  0  0  0
   39.2080   34.3160   37.8040 C   0  0  0  0  0  0  0  0  0  0  0  0
   39.5430   34.8600   36.9340 H   0  0  0  0  0  0  0  0  0  0  0  0
   38.2660   33.3070   37.7980 C   0  0  0  0  0  0  0  0  0  0  0  0
   37.8270   33.0300   36.8530 H   0  0  0  0  0  0  0  0  0  0  0  0
   37.9080   32.6790   38.9790 C   0  0  0  0  0  0  0  0  0  0  0  0
   38.5020   33.0760   40.1420 C   0  0  0  0  0  0  0  0  0  0  0  0
  1  9  1  0  0  0  0
  2  7  1  0  0  0  0
  2  1  2  0  0  0  0
  3  2  1  0  0  0  0
  4  3  2  0  0  0  0
  4  5  1  0  0  0  0
  5  6  2  0  0  0  0
  6  1  1  0  0  0  0
  8  5  1  0  0  0  0
  9 11  1  0  0  0  0
  9 12  1  0  0  0  0
 10  9  1  0  0  0  0
 10 11  1  0  0  0  0
 10 13  1  0  0  0  0
 11 15  1  0  0  0  0
 14 10  1  0  0  0  0
 16 11  1  0  0  0  0
 17 20  1  0  0  0  0
 17  3  1  0  0  0  0
 18 17  1  0  0  0  0
 19 17  1  0  0  0  0
 20 21  1  0  0  0  0
 22 20  1  0  0  0  0
 24 31  1  0  0  0  0
 24 23  1  0  0  0  0
 25 20  1  0  0  0  0
 25 24  2  0  0  0  0
 26 25  1  0  0  0  0
 27 26  1  0  0  0  0
 28 26  2  0  0  0  0
 28 30  1  0  0  0  0
 29 28  1  0  0  0  0
 30 31  2  0  0  0  0
M  END
>  <minimizedAffinity>
-5.33673573

>  <minimizedRMSD>
2.88582993

$$$$
