
 OpenBabel03242513553D

 19 20  0  0  0  0  0  0  0  0999 V2000
   36.6820   30.2940   41.8310 O   0  0  0  0  0  0  0  0  0  0  0  0
   36.9830   29.7530   39.4560 C   0  0  0  0  0  0  0  0  0  0  0  0
   36.9320   30.6710   40.5230 C   0  0  0  0  0  0  0  0  0  0  0  0
   37.1470   32.0100   40.2220 C   0  0  0  0  0  0  0  0  0  0  0  0
   37.3900   32.3700   38.9490 N   0  0  0  0  0  0  0  0  0  0  0  0
   37.4340   31.4750   37.9380 C   0  0  0  0  0  0  0  0  0  0  0  0
   37.2270   30.1540   38.1980 N   0  0  0  0  0  0  0  0  0  0  0  0
   36.8110   28.7020   39.7080 H   0  0  0  0  0  0  0  0  0  0  0  0
   37.1110   32.7230   41.0330 H   0  0  0  0  0  0  0  0  0  0  0  0
   37.6340   31.8380   36.9360 H   0  0  0  0  0  0  0  0  0  0  0  0
   39.4700   30.7280   42.6840 Cl  0  0  0  0  0  0  0  0  0  0  0  0
   38.6390   29.1800   42.7200 C   0  0  0  0  0  0  0  0  0  0  0  0
   37.3380   29.1350   42.2900 C   0  0  0  0  0  0  0  0  0  0  0  0
   36.6100   27.9400   42.2880 C   0  0  0  0  0  0  0  0  0  0  0  0
   35.5870   27.8440   41.9630 H   0  0  0  0  0  0  0  0  0  0  0  0
   37.2730   26.7980   42.7470 C   0  0  0  0  0  0  0  0  0  0  0  0
   36.7910   25.8220   42.7840 H   0  0  0  0  0  0  0  0  0  0  0  0
   38.5790   26.8580   43.1760 C   0  0  0  0  0  3  0  0  0  0  0  0
   39.2960   28.0530   43.1730 C   0  0  0  0  0  3  0  0  0  0  0  0
  1 13  1  0  0  0  0
  2  8  1  0  0  0  0
  2  3  1  0  0  0  0
  3  1  1  0  0  0  0
  4  3  2  0  0  0  0
  4  9  1  0  0  0  0
  5  4  1  0  0  0  0
  6  7  1  0  0  0  0
  6  5  2  0  0  0  0
  7  2  2  0  0  0  0
 10  6  1  0  0  0  0
 11 12  1  0  0  0  0
 12 19  1  0  0  0  0
 13 12  2  0  0  0  0
 14 13  1  0  0  0  0
 14 16  2  0  0  0  0
 15 14  1  0  0  0  0
 16 17  1  0  0  0  0
 16 18  1  0  0  0  0
 19 18  2  0  0  0  0
M  END
>  <minimizedAffinity>
-4.33835506

$$$$

 OpenBabel03242513553D

 19 20  0  0  0  0  0  0  0  0999 V2000
   37.2910   29.9160   42.4060 O   0  0  0  0  0  0  0  0  0  0  0  0
   37.0390   29.1960   40.0730 C   0  0  0  0  0  0  0  0  0  0  0  0
   37.1410   30.1960   41.0600 C   0  0  0  0  0  0  0  0  0  0  0  0
   37.0880   31.5170   40.6350 C   0  0  0  0  0  0  0  0  0  0  0  0
   36.9430   31.7850   39.3250 N   0  0  0  0  0  0  0  0  0  0  0  0
   36.8460   30.8120   38.3930 C   0  0  0  0  0  0  0  0  0  0  0  0
   36.8940   29.5050   38.7750 N   0  0  0  0  0  0  0  0  0  0  0  0
   37.0830   28.1600   40.4240 H   0  0  0  0  0  0  0  0  0  0  0  0
   37.1660   32.2940   41.3820 H   0  0  0  0  0  0  0  0  0  0  0  0
   36.7300   31.1010   37.3540 H   0  0  0  0  0  0  0  0  0  0  0  0
   36.4270   27.3700   43.6140 Cl  0  0  0  0  0  0  0  0  0  0  0  0
   38.1000   27.8290   43.3290 C   0  0  0  0  0  0  0  0  0  0  0  0
   38.3460   29.0500   42.7570 C   0  0  0  0  0  0  0  0  0  0  0  0
   39.6500   29.4860   42.4990 C   0  0  0  0  0  0  0  0  0  0  0  0
   39.9040   30.4330   42.0530 H   0  0  0  0  0  0  0  0  0  0  0  0
   40.6860   28.6170   42.8520 C   0  0  0  0  0  0  0  0  0  0  0  0
   41.7340   28.8660   42.6910 H   0  0  0  0  0  0  0  0  0  0  0  0
   40.4240   27.3940   43.4260 C   0  0  0  0  0  3  0  0  0  0  0  0
   39.1220   26.9680   43.6790 C   0  0  0  0  0  3  0  0  0  0  0  0
  1 13  1  0  0  0  0
  2  8  1  0  0  0  0
  2  3  1  0  0  0  0
  3  1  1  0  0  0  0
  4  3  2  0  0  0  0
  4  9  1  0  0  0  0
  5  4  1  0  0  0  0
  6  7  1  0  0  0  0
  6  5  2  0  0  0  0
  7  2  2  0  0  0  0
 10  6  1  0  0  0  0
 12 11  1  0  0  0  0
 12 19  1  0  0  0  0
 13 12  2  0  0  0  0
 14 13  1  0  0  0  0
 14 16  2  0  0  0  0
 15 14  1  0  0  0  0
 16 18  1  0  0  0  0
 17 16  1  0  0  0  0
 18 19  2  0  0  0  0
M  END
>  <minimizedAffinity>
-4.32140112

$$$$

 OpenBabel03242513553D

 19 20  0  0  0  0  0  0  0  0999 V2000
   37.0510   31.0520   41.2720 O   0  0  0  0  0  0  0  0  0  0  0  0
   38.4470   30.8930   39.2590 C   0  0  0  0  0  0  0  0  0  0  0  0
   38.0370   31.5480   40.4380 C   0  0  0  0  0  0  0  0  0  0  0  0
   38.6700   32.7430   40.7550 C   0  0  0  0  0  0  0  0  0  0  0  0
   39.6280   33.2200   39.9410 N   0  0  0  0  0  0  0  0  0  0  0  0
   40.0070   32.5780   38.8140 C   0  0  0  0  0  0  0  0  0  0  0  0
   39.4080   31.4040   38.4730 N   0  0  0  0  0  0  0  0  0  0  0  0
   37.9400   29.9530   39.0230 H   0  0  0  0  0  0  0  0  0  0  0  0
   38.3640   33.2540   41.6570 H   0  0  0  0  0  0  0  0  0  0  0  0
   40.7870   33.0220   38.2040 H   0  0  0  0  0  0  0  0  0  0  0  0
   35.1040   28.9810   40.4940 Cl  0  0  0  0  0  0  0  0  0  0  0  0
   36.4650   28.7230   41.5770 C   0  0  0  0  0  0  0  0  0  0  0  0
   37.2860   29.7870   41.8450 C   0  0  0  0  0  0  0  0  0  0  0  0
   38.3890   29.6610   42.6970 C   0  0  0  0  0  0  0  0  0  0  0  0
   39.0690   30.4590   42.9450 H   0  0  0  0  0  0  0  0  0  0  0  0
   38.6110   28.4000   43.2590 C   0  0  0  0  0  0  0  0  0  0  0  0
   39.4420   28.2020   43.9330 H   0  0  0  0  0  0  0  0  0  0  0  0
   37.7770   27.3410   42.9800 C   0  0  0  0  0  3  0  0  0  0  0  0
   36.6800   27.4770   42.1300 C   0  0  0  0  0  3  0  0  0  0  0  0
  1 13  1  0  0  0  0
  2  3  1  0  0  0  0
  3  4  2  0  0  0  0
  3  1  1  0  0  0  0
  4  9  1  0  0  0  0
  5  4  1  0  0  0  0
  6  5  2  0  0  0  0
  7  6  1  0  0  0  0
  7  2  2  0  0  0  0
  8  2  1  0  0  0  0
 10  6  1  0  0  0  0
 11 12  1  0  0  0  0
 12 13  2  0  0  0  0
 12 19  1  0  0  0  0
 13 14  1  0  0  0  0
 14 15  1  0  0  0  0
 14 16  2  0  0  0  0
 16 17  1  0  0  0  0
 18 16  1  0  0  0  0
 19 18  2  0  0  0  0
M  END
>  <minimizedAffinity>
-4.25272751

$$$$

 OpenBabel03242513553D

 19 20  0  0  0  0  0  0  0  0999 V2000
   39.2210   29.8220   40.8460 O   0  0  0  0  0  0  0  0  0  0  0  0
   39.2660   32.2680   41.0440 C   0  0  0  0  0  0  0  0  0  0  0  0
   38.7060   31.0720   40.5530 C   0  0  0  0  0  0  0  0  0  0  0  0
   37.5830   31.1800   39.7420 C   0  0  0  0  0  0  0  0  0  0  0  0
   37.0860   32.3970   39.4610 N   0  0  0  0  0  0  0  0  0  0  0  0
   37.6360   33.5340   39.9400 C   0  0  0  0  0  0  0  0  0  0  0  0
   38.7380   33.4640   40.7390 N   0  0  0  0  0  0  0  0  0  0  0  0
   40.1480   32.1670   41.6810 H   0  0  0  0  0  0  0  0  0  0  0  0
   37.1450   30.2690   39.3600 H   0  0  0  0  0  0  0  0  0  0  0  0
   37.1820   34.4810   39.6720 H   0  0  0  0  0  0  0  0  0  0  0  0
   38.1400   27.5380   39.3290 Cl  0  0  0  0  0  0  0  0  0  0  0  0
   37.8240   27.8540   41.0290 C   0  0  0  0  0  0  0  0  0  0  0  0
   38.3990   28.9600   41.5980 C   0  0  0  0  0  0  0  0  0  0  0  0
   38.1940   29.2790   42.9450 C   0  0  0  0  0  0  0  0  0  0  0  0
   38.6200   30.1330   43.4460 H   0  0  0  0  0  0  0  0  0  0  0  0
   37.3770   28.4150   43.6790 C   0  0  0  0  0  0  0  0  0  0  0  0
   37.1580   28.5780   44.7330 H   0  0  0  0  0  0  0  0  0  0  0  0
   36.8050   27.3080   43.0950 C   0  0  0  0  0  3  0  0  0  0  0  0
   37.0160   26.9990   41.7520 C   0  0  0  0  0  3  0  0  0  0  0  0
  1 13  1  0  0  0  0
  2  8  1  0  0  0  0
  3  1  1  0  0  0  0
  3  2  2  0  0  0  0
  4  3  1  0  0  0  0
  5  4  2  0  0  0  0
  5  6  1  0  0  0  0
  6  7  2  0  0  0  0
  7  2  1  0  0  0  0
  9  4  1  0  0  0  0
 10  6  1  0  0  0  0
 11 12  1  0  0  0  0
 12 13  2  0  0  0  0
 12 19  1  0  0  0  0
 13 14  1  0  0  0  0
 14 15  1  0  0  0  0
 14 16  2  0  0  0  0
 16 17  1  0  0  0  0
 18 16  1  0  0  0  0
 19 18  2  0  0  0  0
M  END
>  <minimizedAffinity>
-4.19256353

$$$$

 OpenBabel03242513553D

 19 20  0  0  0  0  0  0  0  0999 V2000
   38.8880   29.5800   40.3460 O   0  0  0  0  0  0  0  0  0  0  0  0
   37.5880   31.2300   39.0760 C   0  0  0  0  0  0  0  0  0  0  0  0
   38.4510   30.8750   40.1320 C   0  0  0  0  0  0  0  0  0  0  0  0
   38.8690   31.8910   40.9810 C   0  0  0  0  0  0  0  0  0  0  0  0
   38.4420   33.1490   40.7680 N   0  0  0  0  0  0  0  0  0  0  0  0
   37.6140   33.4700   39.7500 C   0  0  0  0  0  0  0  0  0  0  0  0
   37.1850   32.4980   38.8980 N   0  0  0  0  0  0  0  0  0  0  0  0
   37.2680   30.4190   38.4150 H   0  0  0  0  0  0  0  0  0  0  0  0
   39.5320   31.6310   41.7940 H   0  0  0  0  0  0  0  0  0  0  0  0
   37.3100   34.5050   39.6390 H   0  0  0  0  0  0  0  0  0  0  0  0
   40.6450   29.0990   42.6630 Cl  0  0  0  0  0  0  0  0  0  0  0  0
   38.9710   28.5770   42.5480 C   0  0  0  0  0  0  0  0  0  0  0  0
   38.2790   28.8750   41.4020 C   0  0  0  0  0  0  0  0  0  0  0  0
   36.9430   28.4910   41.2360 C   0  0  0  0  0  0  0  0  0  0  0  0
   36.3500   28.6980   40.3600 H   0  0  0  0  0  0  0  0  0  0  0  0
   36.3520   27.7930   42.2910 C   0  0  0  0  0  0  0  0  0  0  0  0
   35.3180   27.4520   42.2570 H   0  0  0  0  0  0  0  0  0  0  0  0
   37.0590   27.5000   43.4350 C   0  0  0  0  0  3  0  0  0  0  0  0
   38.3890   27.8860   43.5920 C   0  0  0  0  0  3  0  0  0  0  0  0
  1 13  1  0  0  0  0
  2  3  1  0  0  0  0
  3  1  1  0  0  0  0
  3  4  2  0  0  0  0
  4  9  1  0  0  0  0
  5  4  1  0  0  0  0
  6  5  2  0  0  0  0
  7  2  2  0  0  0  0
  7  6  1  0  0  0  0
  8  2  1  0  0  0  0
 10  6  1  0  0  0  0
 12 11  1  0  0  0  0
 12 19  1  0  0  0  0
 13 12  2  0  0  0  0
 14 13  1  0  0  0  0
 14 16  2  0  0  0  0
 15 14  1  0  0  0  0
 16 18  1  0  0  0  0
 17 16  1  0  0  0  0
 18 19  2  0  0  0  0
M  END
>  <minimizedAffinity>
-4.08945036

$$$$

 OpenBabel03242513553D

 19 20  0  0  0  0  0  0  0  0999 V2000
   36.6870   27.3470   42.1130 O   0  0  0  0  0  0  0  0  0  0  0  0
   36.8010   29.7770   41.7890 C   0  0  0  0  0  0  0  0  0  0  0  0
   36.9730   28.4540   41.3350 C   0  0  0  0  0  0  0  0  0  0  0  0
   37.4500   28.2820   40.0420 C   0  0  0  0  0  0  0  0  0  0  0  0
   37.7260   29.3620   39.2900 N   0  0  0  0  0  0  0  0  0  0  0  0
   37.5560   30.6240   39.7430 C   0  0  0  0  0  0  0  0  0  0  0  0
   37.0890   30.8290   41.0060 N   0  0  0  0  0  0  0  0  0  0  0  0
   36.4240   29.8970   42.8090 H   0  0  0  0  0  0  0  0  0  0  0  0
   37.5850   27.2720   39.6830 H   0  0  0  0  0  0  0  0  0  0  0  0
   37.7990   31.4470   39.0810 H   0  0  0  0  0  0  0  0  0  0  0  0
   36.5780   24.5490   41.1930 Cl  0  0  0  0  0  0  0  0  0  0  0  0
   37.8720   25.2360   42.1640 C   0  0  0  0  0  0  0  0  0  0  0  0
   37.7820   26.5580   42.5160 C   0  0  0  0  0  0  0  0  0  0  0  0
   38.7720   27.1760   43.2880 C   0  0  0  0  0  0  0  0  0  0  0  0
   38.7560   28.2100   43.5940 H   0  0  0  0  0  0  0  0  0  0  0  0
   39.8530   26.3830   43.6800 C   0  0  0  0  0  0  0  0  0  0  0  0
   40.6730   26.7720   44.2810 H   0  0  0  0  0  0  0  0  0  0  0  0
   39.9300   25.0560   43.3190 C   0  0  0  0  0  3  0  0  0  0  0  0
   38.9390   24.4490   42.5500 C   0  0  0  0  0  3  0  0  0  0  0  0
  1 13  1  0  0  0  0
  2  8  1  0  0  0  0
  3  2  1  0  0  0  0
  3  1  1  0  0  0  0
  4  3  2  0  0  0  0
  5  6  2  0  0  0  0
  5  4  1  0  0  0  0
  6  7  1  0  0  0  0
  7  2  2  0  0  0  0
  9  4  1  0  0  0  0
 10  6  1  0  0  0  0
 11 12  1  0  0  0  0
 12 13  2  0  0  0  0
 12 19  1  0  0  0  0
 13 14  1  0  0  0  0
 14 15  1  0  0  0  0
 14 16  2  0  0  0  0
 16 17  1  0  0  0  0
 18 16  1  0  0  0  0
 19 18  2  0  0  0  0
M  END
>  <minimizedAffinity>
-4.07947206

$$$$

 OpenBabel03242513553D

 19 20  0  0  0  0  0  0  0  0999 V2000
   39.1150   29.6940   40.6960 O   0  0  0  0  0  0  0  0  0  0  0  0
   38.0730   29.3040   42.8840 C   0  0  0  0  0  0  0  0  0  0  0  0
   38.3130   28.9480   41.5420 C   0  0  0  0  0  0  0  0  0  0  0  0
   37.7070   27.7900   41.0720 C   0  0  0  0  0  0  0  0  0  0  0  0
   36.9290   27.0690   41.8980 N   0  0  0  0  0  0  0  0  0  0  0  0
   36.7100   27.4260   43.1820 C   0  0  0  0  0  0  0  0  0  0  0  0
   37.2880   28.5560   43.6760 N   0  0  0  0  0  0  0  0  0  0  0  0
   38.5570   30.2180   43.2400 H   0  0  0  0  0  0  0  0  0  0  0  0
   37.8850   27.5070   40.0440 H   0  0  0  0  0  0  0  0  0  0  0  0
   36.0700   26.7960   43.7910 H   0  0  0  0  0  0  0  0  0  0  0  0
   40.8820   31.7860   41.7850 Cl  0  0  0  0  0  0  0  0  0  0  0  0
   39.4140   32.0900   40.8670 C   0  0  0  0  0  0  0  0  0  0  0  0
   38.6950   31.0100   40.4250 C   0  0  0  0  0  0  0  0  0  0  0  0
   37.5150   31.1710   39.6880 C   0  0  0  0  0  0  0  0  0  0  0  0
   36.9090   30.3620   39.3150 H   0  0  0  0  0  0  0  0  0  0  0  0
   37.1100   32.4820   39.4260 C   0  0  0  0  0  0  0  0  0  0  0  0
   36.2080   32.7100   38.8610 H   0  0  0  0  0  0  0  0  0  0  0  0
   37.8430   33.5570   39.8770 C   0  0  0  0  0  3  0  0  0  0  0  0
   39.0160   33.3870   40.6100 C   0  0  0  0  0  3  0  0  0  0  0  0
  1  3  1  0  0  0  0
  2  8  1  0  0  0  0
  2  7  1  0  0  0  0
  3  2  2  0  0  0  0
  4  3  1  0  0  0  0
  4  5  2  0  0  0  0
  5  6  1  0  0  0  0
  6  7  2  0  0  0  0
  6 10  1  0  0  0  0
  9  4  1  0  0  0  0
 12 11  1  0  0  0  0
 13  1  1  0  0  0  0
 13 12  2  0  0  0  0
 14 13  1  0  0  0  0
 15 14  1  0  0  0  0
 16 14  2  0  0  0  0
 16 18  1  0  0  0  0
 17 16  1  0  0  0  0
 18 19  2  0  0  0  0
 19 12  1  0  0  0  0
M  END
>  <minimizedAffinity>
-3.99084759

$$$$

 OpenBabel03242513553D

 19 20  0  0  0  0  0  0  0  0999 V2000
   38.7300   29.6660   40.1020 O   0  0  0  0  0  0  0  0  0  0  0  0
   39.2470   28.5970   42.2510 C   0  0  0  0  0  0  0  0  0  0  0  0
   38.3410   28.9950   41.2480 C   0  0  0  0  0  0  0  0  0  0  0  0
   37.0010   28.6850   41.4420 C   0  0  0  0  0  0  0  0  0  0  0  0
   36.6280   28.0320   42.5570 N   0  0  0  0  0  0  0  0  0  0  0  0
   37.5110   27.6590   43.5080 C   0  0  0  0  0  0  0  0  0  0  0  0
   38.8330   27.9470   43.3500 N   0  0  0  0  0  0  0  0  0  0  0  0
   40.2990   28.8480   42.0840 H   0  0  0  0  0  0  0  0  0  0  0  0
   36.2960   28.9840   40.6790 H   0  0  0  0  0  0  0  0  0  0  0  0
   37.1390   27.1350   44.3820 H   0  0  0  0  0  0  0  0  0  0  0  0
   36.6150   30.3520   38.1670 Cl  0  0  0  0  0  0  0  0  0  0  0  0
   37.4580   31.5100   39.1850 C   0  0  0  0  0  0  0  0  0  0  0  0
   38.4210   31.0380   40.0390 C   0  0  0  0  0  0  0  0  0  0  0  0
   39.1360   31.8990   40.8800 C   0  0  0  0  0  0  0  0  0  0  0  0
   39.9020   31.5860   41.5710 H   0  0  0  0  0  0  0  0  0  0  0  0
   38.8200   33.2580   40.8080 C   0  0  0  0  0  0  0  0  0  0  0  0
   39.3200   34.0050   41.4210 H   0  0  0  0  0  0  0  0  0  0  0  0
   37.8510   33.7170   39.9450 C   0  0  0  0  0  3  0  0  0  0  0  0
   37.1440   32.8530   39.1110 C   0  0  0  0  0  3  0  0  0  0  0  0
  1  3  1  0  0  0  0
  2  7  1  0  0  0  0
  3  4  1  0  0  0  0
  3  2  2  0  0  0  0
  4  5  2  0  0  0  0
  5  6  1  0  0  0  0
  6 10  1  0  0  0  0
  7  6  2  0  0  0  0
  8  2  1  0  0  0  0
  9  4  1  0  0  0  0
 11 12  1  0  0  0  0
 12 13  1  0  0  0  0
 13  1  1  0  0  0  0
 13 14  2  0  0  0  0
 14 15  1  0  0  0  0
 16 14  1  0  0  0  0
 16 17  1  0  0  0  0
 18 16  2  0  0  0  0
 19 12  2  0  0  0  0
 19 18  1  0  0  0  0
M  END
>  <minimizedAffinity>
-3.93161106

$$$$

 OpenBabel03242513553D

 19 20  0  0  0  0  0  0  0  0999 V2000
   38.8000   29.7120   40.1180 O   0  0  0  0  0  0  0  0  0  0  0  0
   37.1780   28.8870   41.7660 C   0  0  0  0  0  0  0  0  0  0  0  0
   38.4960   29.0540   41.2960 C   0  0  0  0  0  0  0  0  0  0  0  0
   39.5200   28.5250   42.0730 C   0  0  0  0  0  0  0  0  0  0  0  0
   39.2190   27.8870   43.2180 N   0  0  0  0  0  0  0  0  0  0  0  0
   37.9480   27.7360   43.6510 C   0  0  0  0  0  0  0  0  0  0  0  0
   36.9200   28.2420   42.9150 N   0  0  0  0  0  0  0  0  0  0  0  0
   36.3830   29.3090   41.1440 H   0  0  0  0  0  0  0  0  0  0  0  0
   40.5350   28.6470   41.7230 H   0  0  0  0  0  0  0  0  0  0  0  0
   37.7800   27.2100   44.5840 H   0  0  0  0  0  0  0  0  0  0  0  0
   36.6360   30.3750   38.2310 Cl  0  0  0  0  0  0  0  0  0  0  0  0
   37.4920   31.5430   39.2270 C   0  0  0  0  0  0  0  0  0  0  0  0
   38.4780   31.0820   40.0590 C   0  0  0  0  0  0  0  0  0  0  0  0
   39.2040   31.9510   40.8820 C   0  0  0  0  0  0  0  0  0  0  0  0
   39.9890   31.6460   41.5560 H   0  0  0  0  0  0  0  0  0  0  0  0
   38.8740   33.3060   40.8140 C   0  0  0  0  0  0  0  0  0  0  0  0
   39.3820   34.0600   41.4150 H   0  0  0  0  0  0  0  0  0  0  0  0
   37.8810   33.7550   39.9730 C   0  0  0  0  0  3  0  0  0  0  0  0
   37.1640   32.8830   39.1570 C   0  0  0  0  0  3  0  0  0  0  0  0
  1  3  1  0  0  0  0
  2  7  1  0  0  0  0
  3  2  2  0  0  0  0
  3  4  1  0  0  0  0
  4  5  2  0  0  0  0
  5  6  1  0  0  0  0
  6 10  1  0  0  0  0
  7  6  2  0  0  0  0
  8  2  1  0  0  0  0
  9  4  1  0  0  0  0
 11 12  1  0  0  0  0
 12 13  1  0  0  0  0
 13  1  1  0  0  0  0
 13 14  2  0  0  0  0
 14 15  1  0  0  0  0
 16 14  1  0  0  0  0
 16 17  1  0  0  0  0
 18 16  2  0  0  0  0
 19 12  2  0  0  0  0
 19 18  1  0  0  0  0
M  END
>  <minimizedAffinity>
-3.88723755

$$$$
