
 OpenBabel03242517033D

 33 35  0  0  0  0  0  0  0  0999 V2000
   46.6520   34.7700   41.9520 C   0  0  0  0  0  0  0  0  0  0  0  0
   47.9190   35.3360   41.8870 C   0  0  0  0  0  0  0  0  0  0  0  0
   48.6490   35.1650   40.7150 C   0  0  0  0  0  0  0  0  0  0  0  0
   48.1270   34.4660   39.6760 C   0  0  0  0  0  0  0  0  0  0  0  0
   46.8770   33.8980   39.7170 C   0  0  0  0  0  0  0  0  0  0  0  0
   46.1440   34.0730   40.9010 C   0  0  0  0  0  0  0  0  0  0  0  0
   48.3570   35.8960   42.6970 H   0  0  0  0  0  0  0  0  0  0  0  0
   49.6410   35.5700   40.5760 H   0  0  0  0  0  0  0  0  0  0  0  0
   48.6870   34.3270   38.7570 H   0  0  0  0  0  0  0  0  0  0  0  0
   46.4020   33.3360   38.9410 H   0  0  0  0  0  0  0  0  0  0  0  0
   44.5350   36.1620   44.7510 C   0  0  0  0  0  0  0  0  0  0  0  0
   45.1840   36.0910   43.4890 C   0  0  0  0  0  0  0  0  0  0  0  0
   45.9300   34.9760   43.2110 C   0  0  0  0  0  0  0  0  0  0  0  0
   46.0100   33.9950   44.1590 N   0  0  0  0  0  0  0  0  0  0  0  0
   45.3890   34.0750   45.3530 C   0  0  0  0  0  0  0  0  0  0  0  0
   44.6440   35.1730   45.6480 N   0  0  0  0  0  0  0  0  0  0  0  0
   43.9460   37.0430   44.9710 H   0  0  0  0  0  0  0  0  0  0  0  0
   45.1140   36.8740   42.7450 H   0  0  0  0  0  0  0  0  0  0  0  0
   45.5420   33.2240   46.0020 H   0  0  0  0  0  0  0  0  0  0  0  0
   43.5430   34.0370   40.9790 C   0  0  0  0  0  0  0  0  0  0  0  0
   43.2230   35.1780   40.6910 O   0  0  0  0  0  0  0  0  0  0  0  0
   44.8530   33.5420   41.0970 N   0  0  0  0  0  0  0  0  0  0  0  0
   45.0600   32.5450   41.3970 H   0  0  0  0  0  0  0  0  0  0  0  0
   42.4900   33.1480   41.2130 O   0  0  0  0  0  0  0  0  0  0  0  0
   40.2290   31.5720   42.4520 Cl  0  0  0  0  0  0  0  0  0  0  0  0
   40.0890   32.8260   41.2420 C   0  0  0  0  0  0  0  0  0  0  0  0
   41.2120   33.4620   40.7660 C   0  0  0  0  0  0  0  0  0  0  0  0
   41.0890   34.4610   39.8000 C   0  0  0  0  0  0  0  0  0  0  0  0
   41.9700   34.9520   39.4340 H   0  0  0  0  0  0  0  0  0  0  0  0
   39.8450   34.8170   39.3180 C   0  0  0  0  0  0  0  0  0  0  0  0
   39.8200   35.5990   38.5700 H   0  0  0  0  0  0  0  0  0  0  0  0
   38.7000   34.1790   39.7940 C   0  0  0  0  0  0  0  0  0  0  0  0
   38.8490   33.1830   40.7580 C   0  0  0  0  0  0  0  0  0  0  0  0
  1 13  1  0  0  0  0
  2  1  1  0  0  0  0
  2  7  1  0  0  0  0
  3  2  2  0  0  0  0
  4  5  2  0  0  0  0
  4  3  1  0  0  0  0
  5  6  1  0  0  0  0
  6 22  1  0  0  0  0
  6  1  2  0  0  0  0
  8  3  1  0  0  0  0
  9  4  1  0  0  0  0
 10  5  1  0  0  0  0
 11 17  1  0  0  0  0
 11 16  1  0  0  0  0
 12 11  2  0  0  0  0
 13 12  1  0  0  0  0
 13 14  2  0  0  0  0
 14 15  1  0  0  0  0
 15 16  2  0  0  0  0
 15 19  1  0  0  0  0
 18 12  1  0  0  0  0
 20 22  1  0  0  0  0
 20 24  1  0  0  0  0
 21 20  2  0  0  0  0
 22 23  1  0  0  0  0
 26 25  1  0  0  0  0
 27 24  1  0  0  0  0
 27 26  1  0  0  0  0
 28 27  2  0  0  0  0
 29 28  1  0  0  0  0
 30 32  2  0  0  0  0
 30 28  1  0  0  0  0
 31 30  1  0  0  0  0
 32 33  1  0  0  0  0
 33 26  2  0  0  0  0
M  END
>  <minimizedAffinity>
-7.09860373

>  <minimizedRMSD>
0.256024212

$$$$
