
 OpenBabel03252508073D

 44 47  0  0  0  0  0  0  0  0999 V2000
   45.1810   35.4990   43.3440 C   0  0  0  0  0  0  0  0  0  0  0  0
   45.5510   34.1560   43.4140 C   0  0  0  0  0  0  0  0  0  0  0  0
   45.4390   33.4860   44.6120 C   0  0  0  0  0  0  0  0  0  0  0  0
   44.9580   34.1920   45.6980 N   0  0  0  0  0  0  0  0  0  0  0  0
   44.6110   35.4750   45.6120 C   0  0  0  0  0  0  0  0  0  0  0  0
   44.7270   36.1180   44.4330 N   0  0  0  0  0  0  0  0  0  0  0  0
   45.2570   36.0570   42.4210 H   0  0  0  0  0  0  0  0  0  0  0  0
   44.2340   36.0420   46.4490 H   0  0  0  0  0  0  0  0  0  0  0  0
   45.7750   32.1330   44.8380 C   0  0  0  0  0  0  0  0  0  0  0  0
   45.3900   31.0780   44.0060 C   0  0  0  0  0  0  0  0  0  0  0  0
   45.6560   29.7540   44.2690 C   0  0  0  0  0  0  0  0  0  0  0  0
   46.3450   29.4050   45.4200 C   0  0  0  0  0  0  0  0  0  0  0  0
   46.7470   30.4720   46.2800 C   0  0  0  0  0  0  0  0  0  0  0  0
   47.4250   30.1360   47.4140 C   0  0  0  0  0  0  0  0  0  0  0  0
   47.8480   31.1210   48.2930 C   0  0  0  0  0  0  0  0  0  0  0  0
   47.5710   32.4580   48.0010 C   0  0  0  0  0  0  0  0  0  0  0  0
   46.8670   32.7520   46.8160 C   0  0  0  0  0  0  0  0  0  0  0  0
   46.4580   31.7610   45.9680 C   0  0  0  0  0  0  0  0  0  0  0  0
   44.8520   31.2950   43.0990 H   0  0  0  0  0  0  0  0  0  0  0  0
   45.3490   28.9610   43.6100 H   0  0  0  0  0  0  0  0  0  0  0  0
   46.5970   28.4010   45.7080 H   0  0  0  0  0  0  0  0  0  0  0  0
   47.6470   29.0930   47.6510 H   0  0  0  0  0  0  0  0  0  0  0  0
   48.3830   30.7970   49.1810 H   0  0  0  0  0  0  0  0  0  0  0  0
   47.9400   33.1260   48.7360 H   0  0  0  0  0  0  0  0  0  0  0  0
   46.7790   33.8170   46.7680 H   0  0  0  0  0  0  0  0  0  0  0  0
   46.0000   33.5880   42.2740 O   0  0  0  0  0  0  0  0  0  0  0  0
   48.1270   32.0670   42.1390 O   0  0  0  0  0  0  0  0  0  0  0  0
   47.6490   33.4410   41.8410 P   0  0  1  0  0  0  0  0  0  0  0  0
   47.8560   33.7120   40.2020 O   0  0  0  0  0  0  0  0  0  0  0  0
   47.5660   33.8930   37.0420 Cl  0  0  0  0  0  0  0  0  0  0  0  0
   48.7210   32.9300   37.9100 C   0  0  0  0  0  0  0  0  0  0  0  0
   48.5970   33.0620   39.2720 C   0  0  0  0  0  0  0  0  0  0  0  0
   49.5140   32.2990   40.0220 C   0  0  0  0  0  0  0  0  0  0  0  0
   49.6740   32.1870   41.1090 H   0  0  0  0  0  0  0  0  0  0  0  0
   50.4730   31.4730   39.4120 C   0  0  0  0  0  0  0  0  0  0  0  0
   51.2210   30.8480   39.8760 H   0  0  0  0  0  0  0  0  0  0  0  0
   50.5280   31.3990   38.0370 C   0  0  0  0  0  3  0  0  0  0  0  0
   49.6440   32.1340   37.2780 C   0  0  0  0  0  3  0  0  0  0  0  0
   48.5030   34.5920   42.7130 O   0  0  0  0  0  0  0  0  0  0  0  0
   49.6760   35.2150   42.3170 C   0  0  0  0  0  0  0  0  0  0  0  0
   49.3020   36.2530   41.7390 O   0  0  0  0  0  0  0  0  0  0  0  0
   50.8260   34.4430   42.7130 N   0  0  0  0  0  0  0  0  0  0  0  0
   51.5370   33.9330   42.1420 H   0  0  0  0  0  0  0  0  0  0  0  0
   51.0050   34.3630   43.7430 H   0  0  0  0  0  0  0  0  0  0  0  0
  1  2  2  0  0  0  0
  1  6  1  0  0  0  0
  2  3  1  0  0  0  0
  3  9  1  0  0  0  0
  3  4  2  0  0  0  0
  5  4  1  0  0  0  0
  5  8  1  0  0  0  0
  6  5  2  0  0  0  0
  7  1  1  0  0  0  0
  9 18  1  0  0  0  0
 10 11  1  0  0  0  0
 10  9  2  0  0  0  0
 11 12  2  0  0  0  0
 12 21  1  0  0  0  0
 12 13  1  0  0  0  0
 13 14  1  0  0  0  0
 14 22  1  0  0  0  0
 14 15  2  0  0  0  0
 15 23  1  0  0  0  0
 16 15  1  0  0  0  0
 16 24  1  0  0  0  0
 17 16  2  0  0  0  0
 18 13  2  0  0  0  0
 18 17  1  0  0  0  0
 19 10  1  0  0  0  0
 20 11  1  0  0  0  0
 25 17  1  0  0  0  0
 26  2  1  0  0  0  0
 28 27  2  1  0  0  0
 28 26  1  0  0  0  0
 28 39  1  0  0  0  0
 29 28  1  0  0  0  0
 30 31  1  0  0  0  0
 31 32  1  0  0  0  0
 32 33  2  0  0  0  0
 32 29  1  0  0  0  0
 33 34  1  0  0  0  0
 35 36  1  0  0  0  0
 35 33  1  0  0  0  0
 37 35  2  0  0  0  0
 38 31  2  0  0  0  0
 38 37  1  0  0  0  0
 40 39  1  0  0  0  0
 40 42  1  0  0  0  0
 41 40  2  0  0  0  0
 42 44  1  0  0  0  0
 43 42  1  0  0  0  0
M  END
>  <minimizedAffinity>
-6.25050354

>  <minimizedRMSD>
1.24893153

$$$$
