
 OpenBabel03252501043D

 31 33  0  0  1  0  0  0  0  0999 V2000
   37.3120   31.3520   38.0820 C   0  0  1  0  0  0  0  0  0  0  0  0
   37.9770   30.1870   37.4540 C   0  0  0  0  0  0  0  0  0  0  0  0
   37.1290   30.0420   38.7100 C   0  0  1  0  0  0  0  0  0  0  0  0
   36.4200   31.8350   37.6460 H   0  0  0  0  0  0  0  0  0  0  0  0
   37.5050   29.8320   36.4950 H   0  0  0  0  0  0  0  0  0  0  0  0
   39.0080   29.8960   37.6310 H   0  0  0  0  0  0  0  0  0  0  0  0
   36.1690   29.5170   38.5320 H   0  0  0  0  0  0  0  0  0  0  0  0
   38.6470   34.1130   40.2920 C   0  0  0  0  0  0  0  0  0  0  0  0
   37.7420   33.2440   39.6800 C   0  0  0  0  0  0  0  0  0  0  0  0
   38.2350   32.3020   38.7690 C   0  0  0  0  0  0  0  0  0  0  0  0
   39.5740   32.2740   38.5190 N   0  0  0  0  0  0  0  0  0  0  0  0
   40.4370   33.1250   39.1240 C   0  0  0  0  0  0  0  0  0  0  0  0
   39.9670   34.0400   40.0070 N   0  0  0  0  0  0  0  0  0  0  0  0
   38.3590   34.8710   41.0080 H   0  0  0  0  0  0  0  0  0  0  0  0
   36.7160   33.3270   39.9270 H   0  0  0  0  0  0  0  0  0  0  0  0
   41.4900   33.0480   38.8790 H   0  0  0  0  0  0  0  0  0  0  0  0
   37.6720   29.8320   39.9200 O   0  0  0  0  0  0  0  0  0  0  0  0
   35.8950   28.3920   41.2590 O   0  0  0  0  0  0  0  0  0  0  0  0
   36.6930   29.6770   41.2260 P   0  0  2  0  0  0  0  0  0  0  0  0
   35.5630   30.9240   41.3890 O   0  0  0  0  0  0  0  0  0  0  0  0
   35.7780   31.5540   42.0970 H   0  0  0  0  0  0  0  0  0  0  0  0
   37.6240   29.6710   42.6340 O   0  0  0  0  0  0  0  0  0  0  0  0
   40.2150   30.8800   41.9670 Cl  0  0  0  0  0  0  0  0  0  0  0  0
   39.9140   29.2850   42.6380 C   0  0  0  0  0  0  0  0  0  0  0  0
   38.6390   28.8030   42.9210 C   0  0  0  0  0  0  0  0  0  0  0  0
   38.5650   27.5360   43.4420 C   0  0  0  0  0  0  0  0  0  0  0  0
   37.5410   27.1910   43.6530 H   0  0  0  0  0  0  0  0  0  0  0  0
   39.6720   26.7720   43.6800 C   0  0  0  0  0  0  0  0  0  0  0  0
   39.5440   25.7940   44.0880 H   0  0  0  0  0  0  0  0  0  0  0  0
   40.9470   27.2380   43.4050 C   0  0  0  0  0  3  0  0  0  0  0  0
   41.0460   28.5270   42.8720 C   0  0  0  0  0  3  0  0  0  0  0  0
  1  4  1  6  0  0  0
  1  3  1  0  0  0  0
  1 10  1  0  0  0  0
  2  6  1  0  0  0  0
  2  1  1  0  0  0  0
  2  3  1  0  0  0  0
  3  7  1  6  0  0  0
  3 17  1  0  0  0  0
  5  2  1  0  0  0  0
  8 14  1  0  0  0  0
  9 15  1  0  0  0  0
  9  8  2  0  0  0  0
 10  9  1  0  0  0  0
 11 10  2  0  0  0  0
 11 12  1  0  0  0  0
 12 13  2  0  0  0  0
 13  8  1  0  0  0  0
 16 12  1  0  0  0  0
 17 19  1  0  0  0  0
 19 18  2  6  0  0  0
 19 20  1  0  0  0  0
 19 22  1  0  0  0  0
 20 21  1  0  0  0  0
 22 25  1  0  0  0  0
 23 24  1  0  0  0  0
 24 31  2  0  0  0  0
 24 25  1  0  0  0  0
 25 26  2  0  0  0  0
 26 27  1  0  0  0  0
 26 28  1  0  0  0  0
 28 29  1  0  0  0  0
 30 28  2  0  0  0  0
 31 30  1  0  0  0  0
M  END
>  <minimizedAffinity>
-5.80270338

$$$$

 OpenBabel03252501043D

 31 33  0  0  1  0  0  0  0  0999 V2000
   37.6440   31.3120   37.9890 C   0  0  1  0  0  0  0  0  0  0  0  0
   38.4360   30.1680   37.4840 C   0  0  0  0  0  0  0  0  0  0  0  0
   37.4120   30.0000   38.5980 C   0  0  1  0  0  0  0  0  0  0  0  0
   36.8130   31.7590   37.4170 H   0  0  0  0  0  0  0  0  0  0  0  0
   38.1290   29.7900   36.4680 H   0  0  0  0  0  0  0  0  0  0  0  0
   39.4380   29.9150   37.8200 H   0  0  0  0  0  0  0  0  0  0  0  0
   36.5090   29.4400   38.2810 H   0  0  0  0  0  0  0  0  0  0  0  0
   40.4950   33.2250   39.5720 C   0  0  0  0  0  0  0  0  0  0  0  0
   39.8170   32.2840   38.7940 C   0  0  0  0  0  0  0  0  0  0  0  0
   38.4180   32.2990   38.7980 C   0  0  0  0  0  0  0  0  0  0  0  0
   37.7770   33.2290   39.5600 N   0  0  0  0  0  0  0  0  0  0  0  0
   38.4500   34.1350   40.3080 C   0  0  0  0  0  0  0  0  0  0  0  0
   39.8070   34.1270   40.3090 N   0  0  0  0  0  0  0  0  0  0  0  0
   41.5720   33.2900   39.6310 H   0  0  0  0  0  0  0  0  0  0  0  0
   40.3870   31.5940   38.2280 H   0  0  0  0  0  0  0  0  0  0  0  0
   37.8780   34.8470   40.8900 H   0  0  0  0  0  0  0  0  0  0  0  0
   37.7700   29.8170   39.8790 O   0  0  0  0  0  0  0  0  0  0  0  0
   35.5500   28.8590   40.9630 O   0  0  0  0  0  0  0  0  0  0  0  0
   36.6320   29.9130   41.0550 P   0  0  2  0  0  0  0  0  0  0  0  0
   35.8240   31.3970   41.1110 O   0  0  0  0  0  0  0  0  0  0  0  0
   36.0970   31.9610   41.8530 H   0  0  0  0  0  0  0  0  0  0  0  0
   37.3560   29.6910   42.5640 O   0  0  0  0  0  0  0  0  0  0  0  0
   36.4540   27.1230   43.6650 Cl  0  0  0  0  0  0  0  0  0  0  0  0
   38.1030   27.6400   43.3570 C   0  0  0  0  0  0  0  0  0  0  0  0
   38.4280   28.8870   42.8280 C   0  0  0  0  0  0  0  0  0  0  0  0
   39.7630   29.1450   42.6450 C   0  0  0  0  0  0  0  0  0  0  0  0
   39.9790   30.1400   42.2250 H   0  0  0  0  0  0  0  0  0  0  0  0
   40.7370   28.2410   42.9570 C   0  0  0  0  0  0  0  0  0  0  0  0
   41.7580   28.5060   42.7880 H   0  0  0  0  0  0  0  0  0  0  0  0
   40.4310   26.9970   43.4820 C   0  0  0  0  0  3  0  0  0  0  0  0
   39.0750   26.7110   43.6790 C   0  0  0  0  0  3  0  0  0  0  0  0
  1  4  1  6  0  0  0
  1  3  1  0  0  0  0
  1 10  1  0  0  0  0
  2  6  1  0  0  0  0
  2  1  1  0  0  0  0
  2  3  1  0  0  0  0
  3  7  1  6  0  0  0
  3 17  1  0  0  0  0
  5  2  1  0  0  0  0
  8 14  1  0  0  0  0
  8 13  1  0  0  0  0
  9 10  1  0  0  0  0
  9  8  2  0  0  0  0
 10 11  2  0  0  0  0
 11 12  1  0  0  0  0
 12 13  2  0  0  0  0
 12 16  1  0  0  0  0
 15  9  1  0  0  0  0
 17 19  1  0  0  0  0
 19 18  2  6  0  0  0
 19 20  1  0  0  0  0
 19 22  1  0  0  0  0
 20 21  1  0  0  0  0
 22 25  1  0  0  0  0
 24 23  1  0  0  0  0
 24 31  1  0  0  0  0
 25 24  2  0  0  0  0
 26 25  1  0  0  0  0
 26 28  2  0  0  0  0
 27 26  1  0  0  0  0
 28 30  1  0  0  0  0
 29 28  1  0  0  0  0
 30 31  2  0  0  0  0
M  END
>  <minimizedAffinity>
-5.76325417

$$$$

 OpenBabel03252501043D

 31 33  0  0  1  0  0  0  0  0999 V2000
   37.3070   31.6850   38.1890 C   0  0  1  0  0  0  0  0  0  0  0  0
   37.8720   30.5650   37.4030 C   0  0  0  0  0  0  0  0  0  0  0  0
   37.0320   30.3230   38.6490 C   0  0  1  0  0  0  0  0  0  0  0  0
   36.4500   32.2850   37.8380 H   0  0  0  0  0  0  0  0  0  0  0  0
   37.3630   30.3720   36.4170 H   0  0  0  0  0  0  0  0  0  0  0  0
   38.8800   30.1770   37.5180 H   0  0  0  0  0  0  0  0  0  0  0  0
   36.0320   29.8980   38.4270 H   0  0  0  0  0  0  0  0  0  0  0  0
   38.8730   34.1010   40.6390 C   0  0  0  0  0  0  0  0  0  0  0  0
   37.8970   33.3910   39.9380 C   0  0  0  0  0  0  0  0  0  0  0  0
   38.3090   32.4670   38.9710 C   0  0  0  0  0  0  0  0  0  0  0  0
   39.6440   32.3010   38.7540 N   0  0  0  0  0  0  0  0  0  0  0  0
   40.5780   32.9980   39.4450 C   0  0  0  0  0  0  0  0  0  0  0  0
   40.1860   33.8950   40.3840 N   0  0  0  0  0  0  0  0  0  0  0  0
   38.6500   34.8330   41.4020 H   0  0  0  0  0  0  0  0  0  0  0  0
   36.8790   33.5760   40.1640 H   0  0  0  0  0  0  0  0  0  0  0  0
   41.6220   32.8160   39.2230 H   0  0  0  0  0  0  0  0  0  0  0  0
   37.5730   29.9180   39.8100 O   0  0  0  0  0  0  0  0  0  0  0  0
   35.6870   28.5490   41.0720 O   0  0  0  0  0  0  0  0  0  0  0  0
   36.6120   29.7450   41.1270 P   0  0  2  0  0  0  0  0  0  0  0  0
   35.6210   31.0790   41.4360 O   0  0  0  0  0  0  0  0  0  0  0  0
   35.9160   31.6170   42.1890 H   0  0  0  0  0  0  0  0  0  0  0  0
   37.5700   29.5170   42.4990 O   0  0  0  0  0  0  0  0  0  0  0  0
   38.9430   26.9730   43.0100 Cl  0  0  0  0  0  0  0  0  0  0  0  0
   39.6620   28.5630   42.8200 C   0  0  0  0  0  0  0  0  0  0  0  0
   38.9180   29.7150   42.5780 C   0  0  0  0  0  0  0  0  0  0  0  0
   39.6240   30.8850   42.4540 C   0  0  0  0  0  0  0  0  0  0  0  0
   39.0020   31.7730   42.2630 H   0  0  0  0  0  0  0  0  0  0  0  0
   40.9850   30.9380   42.5570 C   0  0  0  0  0  0  0  0  0  0  0  0
   41.4720   31.8820   42.4490 H   0  0  0  0  0  0  0  0  0  0  0  0
   41.7390   29.8010   42.7960 C   0  0  0  0  0  3  0  0  0  0  0  0
   41.0400   28.5970   42.9270 C   0  0  0  0  0  3  0  0  0  0  0  0
  1  4  1  6  0  0  0
  1  3  1  0  0  0  0
  1 10  1  0  0  0  0
  2  6  1  0  0  0  0
  2  1  1  0  0  0  0
  2  3  1  0  0  0  0
  3  7  1  6  0  0  0
  3 17  1  0  0  0  0
  5  2  1  0  0  0  0
  8 14  1  0  0  0  0
  9 15  1  0  0  0  0
  9  8  2  0  0  0  0
 10  9  1  0  0  0  0
 11 10  2  0  0  0  0
 11 12  1  0  0  0  0
 12 13  2  0  0  0  0
 13  8  1  0  0  0  0
 16 12  1  0  0  0  0
 17 19  1  0  0  0  0
 19 18  2  6  0  0  0
 19 20  1  0  0  0  0
 19 22  1  0  0  0  0
 20 21  1  0  0  0  0
 22 25  1  0  0  0  0
 24 31  1  0  0  0  0
 24 23  1  0  0  0  0
 25 24  2  0  0  0  0
 26 28  2  0  0  0  0
 26 25  1  0  0  0  0
 27 26  1  0  0  0  0
 28 30  1  0  0  0  0
 29 28  1  0  0  0  0
 30 31  2  0  0  0  0
M  END
>  <minimizedAffinity>
-5.65652037

$$$$

 OpenBabel03252501043D

 31 33  0  0  1  0  0  0  0  0999 V2000
   37.1610   31.0290   37.7980 C   0  0  1  0  0  0  0  0  0  0  0  0
   37.9150   29.8550   37.3030 C   0  0  0  0  0  0  0  0  0  0  0  0
   36.9250   29.7410   38.4540 C   0  0  1  0  0  0  0  0  0  0  0  0
   36.3200   31.4750   37.2390 H   0  0  0  0  0  0  0  0  0  0  0  0
   37.5680   29.4520   36.3100 H   0  0  0  0  0  0  0  0  0  0  0  0
   38.9220   29.5920   37.6140 H   0  0  0  0  0  0  0  0  0  0  0  0
   36.0010   29.1890   38.1840 H   0  0  0  0  0  0  0  0  0  0  0  0
   40.0930   32.9890   39.1580 C   0  0  0  0  0  0  0  0  0  0  0  0
   39.3730   32.0410   38.4290 C   0  0  0  0  0  0  0  0  0  0  0  0
   37.9790   32.0240   38.5510 C   0  0  0  0  0  0  0  0  0  0  0  0
   37.3850   32.9310   39.3760 N   0  0  0  0  0  0  0  0  0  0  0  0
   38.1000   33.8440   40.0760 C   0  0  0  0  0  0  0  0  0  0  0  0
   39.4510   33.8670   39.9620 N   0  0  0  0  0  0  0  0  0  0  0  0
   41.1700   33.0780   39.1270 H   0  0  0  0  0  0  0  0  0  0  0  0
   39.9080   31.3710   37.8080 H   0  0  0  0  0  0  0  0  0  0  0  0
   37.5640   34.5360   40.7140 H   0  0  0  0  0  0  0  0  0  0  0  0
   37.3210   29.5890   39.7270 O   0  0  0  0  0  0  0  0  0  0  0  0
   34.9390   28.8350   40.6110 O   0  0  0  0  0  0  0  0  0  0  0  0
   36.2030   29.6060   40.9260 P   0  0  2  0  0  0  0  0  0  0  0  0
   35.6970   31.1560   41.3730 O   0  0  0  0  0  0  0  0  0  0  0  0
   36.0600   31.4540   42.2220 H   0  0  0  0  0  0  0  0  0  0  0  0
   36.8450   28.8820   42.3100 O   0  0  0  0  0  0  0  0  0  0  0  0
   39.7030   29.4210   42.7050 Cl  0  0  0  0  0  0  0  0  0  0  0  0
   38.9170   27.8600   42.5350 C   0  0  0  0  0  0  0  0  0  0  0  0
   37.5460   27.7100   42.3500 C   0  0  0  0  0  0  0  0  0  0  0  0
   37.0800   26.4250   42.2320 C   0  0  0  0  0  0  0  0  0  0  0  0
   35.9920   26.3480   42.0880 H   0  0  0  0  0  0  0  0  0  0  0  0
   37.9030   25.3360   42.2910 C   0  0  0  0  0  0  0  0  0  0  0  0
   37.4750   24.3630   42.1930 H   0  0  0  0  0  0  0  0  0  0  0  0
   39.2690   25.4680   42.4760 C   0  0  0  0  0  3  0  0  0  0  0  0
   39.7660   26.7700   42.5970 C   0  0  0  0  0  3  0  0  0  0  0  0
  1  4  1  6  0  0  0
  1  3  1  0  0  0  0
  1 10  1  0  0  0  0
  2  6  1  0  0  0  0
  2  1  1  0  0  0  0
  2  3  1  0  0  0  0
  3  7  1  6  0  0  0
  3 17  1  0  0  0  0
  5  2  1  0  0  0  0
  8 13  1  0  0  0  0
  9 10  1  0  0  0  0
  9  8  2  0  0  0  0
 10 11  2  0  0  0  0
 11 12  1  0  0  0  0
 12 16  1  0  0  0  0
 13 12  2  0  0  0  0
 14  8  1  0  0  0  0
 15  9  1  0  0  0  0
 17 19  1  0  0  0  0
 19 18  2  6  0  0  0
 19 20  1  0  0  0  0
 19 22  1  0  0  0  0
 20 21  1  0  0  0  0
 22 25  1  0  0  0  0
 24 31  1  0  0  0  0
 24 23  1  0  0  0  0
 25 24  2  0  0  0  0
 26 28  2  0  0  0  0
 26 25  1  0  0  0  0
 27 26  1  0  0  0  0
 28 30  1  0  0  0  0
 29 28  1  0  0  0  0
 30 31  2  0  0  0  0
M  END
>  <minimizedAffinity>
-5.4585824

$$$$

 OpenBabel03252501043D

 31 33  0  0  1  0  0  0  0  0999 V2000
   37.2190   32.1340   38.6810 C   0  0  1  0  0  0  0  0  0  0  0  0
   37.2550   30.7960   38.0480 C   0  0  0  0  0  0  0  0  0  0  0  0
   36.6920   31.0030   39.4470 C   0  0  1  0  0  0  0  0  0  0  0  0
   36.5040   32.9180   38.3760 H   0  0  0  0  0  0  0  0  0  0  0  0
   36.4990   30.6380   37.2280 H   0  0  0  0  0  0  0  0  0  0  0  0
   38.1150   30.1320   38.0570 H   0  0  0  0  0  0  0  0  0  0  0  0
   35.5900   30.8860   39.4970 H   0  0  0  0  0  0  0  0  0  0  0  0
   39.9140   34.1570   40.3940 C   0  0  0  0  0  0  0  0  0  0  0  0
   38.6460   33.6940   40.0410 C   0  0  0  0  0  0  0  0  0  0  0  0
   38.5510   32.6630   39.0980 C   0  0  0  0  0  0  0  0  0  0  0  0
   39.6980   32.1580   38.5660 N   0  0  0  0  0  0  0  0  0  0  0  0
   40.9210   32.6190   38.9210 C   0  0  0  0  0  0  0  0  0  0  0  0
   41.0210   33.6170   39.8340 N   0  0  0  0  0  0  0  0  0  0  0  0
   40.0860   34.9470   41.1120 H   0  0  0  0  0  0  0  0  0  0  0  0
   37.8010   34.1370   40.5000 H   0  0  0  0  0  0  0  0  0  0  0  0
   41.7930   32.1720   38.4590 H   0  0  0  0  0  0  0  0  0  0  0  0
   37.3520   30.6140   40.5500 O   0  0  0  0  0  0  0  0  0  0  0  0
   35.4300   28.8560   41.0370 O   0  0  0  0  0  0  0  0  0  0  0  0
   36.8420   29.2870   41.3670 P   0  0  2  0  0  0  0  0  0  0  0  0
   36.8910   29.4550   43.0490 O   0  0  0  0  0  0  0  0  0  0  0  0
   37.6190   28.9690   43.4680 H   0  0  0  0  0  0  0  0  0  0  0  0
   37.8240   27.9700   40.9770 O   0  0  0  0  0  0  0  0  0  0  0  0
   38.6310   26.5350   43.4080 Cl  0  0  0  0  0  0  0  0  0  0  0  0
   37.7630   25.8970   42.0210 C   0  0  0  0  0  0  0  0  0  0  0  0
   37.4260   26.6660   40.9100 C   0  0  0  0  0  0  0  0  0  0  0  0
   36.7490   26.0240   39.9040 C   0  0  0  0  0  0  0  0  0  0  0  0
   36.5000   26.6640   39.0440 H   0  0  0  0  0  0  0  0  0  0  0  0
   36.4130   24.7020   39.9700 C   0  0  0  0  0  0  0  0  0  0  0  0
   35.8840   24.2640   39.1520 H   0  0  0  0  0  0  0  0  0  0  0  0
   36.7400   23.9240   41.0680 C   0  0  0  0  0  3  0  0  0  0  0  0
   37.4320   24.5570   42.1060 C   0  0  0  0  0  3  0  0  0  0  0  0
  1  4  1  6  0  0  0
  1 10  1  0  0  0  0
  1  3  1  0  0  0  0
  2  6  1  0  0  0  0
  2  1  1  0  0  0  0
  2  3  1  0  0  0  0
  3  7  1  1  0  0  0
  3 17  1  0  0  0  0
  5  2  1  0  0  0  0
  8 14  1  0  0  0  0
  9  8  1  0  0  0  0
  9 15  1  0  0  0  0
 10  9  2  0  0  0  0
 11 12  2  0  0  0  0
 11 10  1  0  0  0  0
 12 13  1  0  0  0  0
 13  8  2  0  0  0  0
 16 12  1  0  0  0  0
 17 19  1  0  0  0  0
 19 18  2  6  0  0  0
 19 20  1  0  0  0  0
 20 21  1  0  0  0  0
 22 19  1  0  0  0  0
 24 31  1  0  0  0  0
 24 23  1  0  0  0  0
 25 22  1  0  0  0  0
 25 24  2  0  0  0  0
 26 28  2  0  0  0  0
 26 25  1  0  0  0  0
 27 26  1  0  0  0  0
 28 30  1  0  0  0  0
 29 28  1  0  0  0  0
 30 31  2  0  0  0  0
M  END
>  <minimizedAffinity>
-5.37880135

$$$$

 OpenBabel03252501043D

 31 33  0  0  1  0  0  0  0  0999 V2000
   37.2300   32.3050   38.8630 C   0  0  1  0  0  0  0  0  0  0  0  0
   37.1780   31.0280   38.1160 C   0  0  0  0  0  0  0  0  0  0  0  0
   36.7190   31.1260   39.5640 C   0  0  1  0  0  0  0  0  0  0  0  0
   36.5230   33.1320   38.6780 H   0  0  0  0  0  0  0  0  0  0  0  0
   36.3630   30.9640   37.3410 H   0  0  0  0  0  0  0  0  0  0  0  0
   38.0130   30.3420   38.0070 H   0  0  0  0  0  0  0  0  0  0  0  0
   35.6190   31.0350   39.6820 H   0  0  0  0  0  0  0  0  0  0  0  0
   40.9930   32.6450   39.0010 C   0  0  0  0  0  0  0  0  0  0  0  0
   39.7290   32.1900   38.6200 C   0  0  0  0  0  0  0  0  0  0  0  0
   38.6040   32.7580   39.2290 C   0  0  0  0  0  0  0  0  0  0  0  0
   38.7900   33.7290   40.1660 N   0  0  0  0  0  0  0  0  0  0  0  0
   40.0230   34.1600   40.5230 C   0  0  0  0  0  0  0  0  0  0  0  0
   41.1180   33.6140   39.9370 N   0  0  0  0  0  0  0  0  0  0  0  0
   41.9170   32.2680   38.5870 H   0  0  0  0  0  0  0  0  0  0  0  0
   39.6680   31.4320   37.8840 H   0  0  0  0  0  0  0  0  0  0  0  0
   40.0990   34.9360   41.2750 H   0  0  0  0  0  0  0  0  0  0  0  0
   37.4390   30.6230   40.5800 O   0  0  0  0  0  0  0  0  0  0  0  0
   35.4460   28.9470   41.0770 O   0  0  0  0  0  0  0  0  0  0  0  0
   36.8820   29.3100   41.3890 P   0  0  2  0  0  0  0  0  0  0  0  0
   36.9650   29.4530   43.0710 O   0  0  0  0  0  0  0  0  0  0  0  0
   37.6780   28.9280   43.4720 H   0  0  0  0  0  0  0  0  0  0  0  0
   37.7960   27.9540   40.9660 O   0  0  0  0  0  0  0  0  0  0  0  0
   36.9390   26.9940   38.3270 Cl  0  0  0  0  0  0  0  0  0  0  0  0
   36.9580   26.1040   39.8400 C   0  0  0  0  0  0  0  0  0  0  0  0
   37.3860   26.6540   41.0460 C   0  0  0  0  0  0  0  0  0  0  0  0
   37.3420   25.8330   42.1430 C   0  0  0  0  0  0  0  0  0  0  0  0
   37.6890   26.3030   43.0760 H   0  0  0  0  0  0  0  0  0  0  0  0
   36.9050   24.5400   42.0790 C   0  0  0  0  0  0  0  0  0  0  0  0
   36.8970   23.9550   42.9720 H   0  0  0  0  0  0  0  0  0  0  0  0
   36.4760   23.9790   40.8870 C   0  0  0  0  0  3  0  0  0  0  0  0
   36.5120   24.7980   39.7540 C   0  0  0  0  0  3  0  0  0  0  0  0
  1  4  1  6  0  0  0
  1 10  1  0  0  0  0
  1  3  1  0  0  0  0
  2  1  1  0  0  0  0
  2  3  1  0  0  0  0
  3  7  1  1  0  0  0
  3 17  1  0  0  0  0
  5  2  1  0  0  0  0
  6  2  1  0  0  0  0
  8 13  1  0  0  0  0
  9  8  2  0  0  0  0
  9 10  1  0  0  0  0
 10 11  2  0  0  0  0
 11 12  1  0  0  0  0
 12 16  1  0  0  0  0
 13 12  2  0  0  0  0
 14  8  1  0  0  0  0
 15  9  1  0  0  0  0
 17 19  1  0  0  0  0
 19 18  2  6  0  0  0
 19 20  1  0  0  0  0
 20 21  1  0  0  0  0
 22 25  1  0  0  0  0
 22 19  1  0  0  0  0
 23 24  1  0  0  0  0
 24 25  1  0  0  0  0
 25 26  2  0  0  0  0
 26 27  1  0  0  0  0
 28 26  1  0  0  0  0
 28 29  1  0  0  0  0
 30 28  2  0  0  0  0
 31 24  2  0  0  0  0
 31 30  1  0  0  0  0
M  END
>  <minimizedAffinity>
-5.3235755

$$$$

 OpenBabel03252501043D

 31 33  0  0  1  0  0  0  0  0999 V2000
   37.1280   26.7540   42.2550 C   0  0  1  0  0  0  0  0  0  0  0  0
   36.5000   27.4710   43.3880 C   0  0  0  0  0  0  0  0  0  0  0  0
   36.6300   28.1090   42.0110 C   0  0  1  0  0  0  0  0  0  0  0  0
   36.6270   25.9260   41.7240 H   0  0  0  0  0  0  0  0  0  0  0  0
   35.4720   27.1060   43.6690 H   0  0  0  0  0  0  0  0  0  0  0  0
   37.0450   28.0320   44.1420 H   0  0  0  0  0  0  0  0  0  0  0  0
   35.6610   28.2120   41.4830 H   0  0  0  0  0  0  0  0  0  0  0  0
   40.7480   26.0800   41.3990 C   0  0  0  0  0  0  0  0  0  0  0  0
   39.3680   26.2230   41.2460 C   0  0  0  0  0  0  0  0  0  0  0  0
   38.6080   26.5920   42.3620 C   0  0  0  0  0  0  0  0  0  0  0  0
   39.2460   26.7960   43.5480 N   0  0  0  0  0  0  0  0  0  0  0  0
   40.5870   26.6550   43.6780 C   0  0  0  0  0  0  0  0  0  0  0  0
   41.3300   26.2970   42.6010 N   0  0  0  0  0  0  0  0  0  0  0  0
   41.4150   25.8000   40.5960 H   0  0  0  0  0  0  0  0  0  0  0  0
   38.9460   26.0470   40.2910 H   0  0  0  0  0  0  0  0  0  0  0  0
   41.0300   26.8320   44.6500 H   0  0  0  0  0  0  0  0  0  0  0  0
   37.5210   29.0800   41.7530 O   0  0  0  0  0  0  0  0  0  0  0  0
   38.0210   31.5610   40.9670 O   0  0  0  0  0  0  0  0  0  0  0  0
   37.0440   30.4070   40.9150 P   0  0  2  0  0  0  0  0  0  0  0  0
   35.5580   31.0380   41.4140 O   0  0  0  0  0  0  0  0  0  0  0  0
   34.8300   30.8520   40.7990 H   0  0  0  0  0  0  0  0  0  0  0  0
   36.8880   30.0170   39.2800 O   0  0  0  0  0  0  0  0  0  0  0  0
   35.7210   29.2820   36.6880 Cl  0  0  0  0  0  0  0  0  0  0  0  0
   37.3400   28.9380   37.2740 C   0  0  0  0  0  0  0  0  0  0  0  0
   37.8000   29.3340   38.5270 C   0  0  0  0  0  0  0  0  0  0  0  0
   39.0900   28.9900   38.8420 C   0  0  0  0  0  0  0  0  0  0  0  0
   39.4170   29.3200   39.8400 H   0  0  0  0  0  0  0  0  0  0  0  0
   39.8980   28.2980   37.9860 C   0  0  0  0  0  0  0  0  0  0  0  0
   40.8930   28.0640   38.2940 H   0  0  0  0  0  0  0  0  0  0  0  0
   39.4560   27.8990   36.7350 C   0  0  0  0  0  3  0  0  0  0  0  0
   38.1430   28.2380   36.3930 C   0  0  0  0  0  3  0  0  0  0  0  0
  1  4  1  6  0  0  0
  1 10  1  0  0  0  0
  1  2  1  0  0  0  0
  2  5  1  0  0  0  0
  2  6  1  0  0  0  0
  3  7  1  6  0  0  0
  3  1  1  0  0  0  0
  3  2  1  0  0  0  0
  8 13  1  0  0  0  0
  9  8  2  0  0  0  0
  9 10  1  0  0  0  0
 10 11  2  0  0  0  0
 11 12  1  0  0  0  0
 12 16  1  0  0  0  0
 13 12  2  0  0  0  0
 14  8  1  0  0  0  0
 15  9  1  0  0  0  0
 17  3  1  0  0  0  0
 19 18  2  1  0  0  0
 19 20  1  0  0  0  0
 19 17  1  0  0  0  0
 21 20  1  0  0  0  0
 22 19  1  0  0  0  0
 23 24  1  0  0  0  0
 24 25  1  0  0  0  0
 25 26  2  0  0  0  0
 25 22  1  0  0  0  0
 26 27  1  0  0  0  0
 28 29  1  0  0  0  0
 28 26  1  0  0  0  0
 30 28  2  0  0  0  0
 31 30  1  0  0  0  0
 31 24  2  0  0  0  0
M  END
>  <minimizedAffinity>
-4.95570612

$$$$

 OpenBabel03252501043D

 31 33  0  0  1  0  0  0  0  0999 V2000
   37.0080   28.9670   36.9650 C   0  0  1  0  0  0  0  0  0  0  0  0
   37.3880   30.3550   36.6130 C   0  0  0  0  0  0  0  0  0  0  0  0
   37.1350   29.9370   38.0550 C   0  0  1  0  0  0  0  0  0  0  0  0
   37.7280   28.1300   36.9440 H   0  0  0  0  0  0  0  0  0  0  0  0
   38.4660   30.4920   36.3190 H   0  0  0  0  0  0  0  0  0  0  0  0
   36.6900   31.1220   36.2900 H   0  0  0  0  0  0  0  0  0  0  0  0
   38.0580   29.9020   38.6690 H   0  0  0  0  0  0  0  0  0  0  0  0
   33.6670   28.8460   35.2000 C   0  0  0  0  0  0  0  0  0  0  0  0
   34.9650   29.2430   35.5270 C   0  0  0  0  0  0  0  0  0  0  0  0
   35.6220   28.5790   36.5700 C   0  0  0  0  0  0  0  0  0  0  0  0
   34.9690   27.5770   37.2210 N   0  0  0  0  0  0  0  0  0  0  0  0
   33.7100   27.2040   36.8890 C   0  0  0  0  0  0  0  0  0  0  0  0
   33.0660   27.8420   35.8800 N   0  0  0  0  0  0  0  0  0  0  0  0
   33.0830   29.2980   34.4120 H   0  0  0  0  0  0  0  0  0  0  0  0
   35.4060   30.0300   34.9740 H   0  0  0  0  0  0  0  0  0  0  0  0
   33.2490   26.3980   37.4480 H   0  0  0  0  0  0  0  0  0  0  0  0
   36.0260   30.2980   38.7210 O   0  0  0  0  0  0  0  0  0  0  0  0
   34.5580   28.9260   40.4480 O   0  0  0  0  0  0  0  0  0  0  0  0
   35.8010   29.7660   40.2560 P   0  0  2  0  0  0  0  0  0  0  0  0
   35.7020   31.0030   41.4040 O   0  0  0  0  0  0  0  0  0  0  0  0
   36.4990   31.0890   41.9530 H   0  0  0  0  0  0  0  0  0  0  0  0
   37.0930   28.7780   40.7080 O   0  0  0  0  0  0  0  0  0  0  0  0
   37.0700   28.0930   43.5630 Cl  0  0  0  0  0  0  0  0  0  0  0  0
   37.0340   26.9940   42.1930 C   0  0  0  0  0  0  0  0  0  0  0  0
   37.0480   27.4230   40.8690 C   0  0  0  0  0  0  0  0  0  0  0  0
   37.0170   26.4440   39.9080 C   0  0  0  0  0  0  0  0  0  0  0  0
   37.0290   26.8220   38.8750 H   0  0  0  0  0  0  0  0  0  0  0  0
   36.9740   25.1130   40.2140 C   0  0  0  0  0  0  0  0  0  0  0  0
   36.9510   24.4030   39.4170 H   0  0  0  0  0  0  0  0  0  0  0  0
   36.9590   24.6710   41.5270 C   0  0  0  0  0  3  0  0  0  0  0  0
   36.9910   25.6520   42.5230 C   0  0  0  0  0  3  0  0  0  0  0  0
  1  4  1  6  0  0  0
  1  3  1  0  0  0  0
  2  1  1  0  0  0  0
  2  3  1  0  0  0  0
  3  7  1  1  0  0  0
  3 17  1  0  0  0  0
  5  2  1  0  0  0  0
  6  2  1  0  0  0  0
  8  9  2  0  0  0  0
  8 13  1  0  0  0  0
  9 10  1  0  0  0  0
 10  1  1  0  0  0  0
 10 11  2  0  0  0  0
 12 11  1  0  0  0  0
 12 16  1  0  0  0  0
 13 12  2  0  0  0  0
 14  8  1  0  0  0  0
 15  9  1  0  0  0  0
 17 19  1  0  0  0  0
 19 18  2  1  0  0  0
 19 22  1  0  0  0  0
 19 20  1  0  0  0  0
 20 21  1  0  0  0  0
 22 25  1  0  0  0  0
 24 31  1  0  0  0  0
 24 23  1  0  0  0  0
 25 24  2  0  0  0  0
 26 28  2  0  0  0  0
 26 25  1  0  0  0  0
 27 26  1  0  0  0  0
 28 30  1  0  0  0  0
 29 28  1  0  0  0  0
 30 31  2  0  0  0  0
M  END
>  <minimizedAffinity>
-4.94892836

$$$$

 OpenBabel03252501043D

 31 33  0  0  1  0  0  0  0  0999 V2000
   37.4420   26.7960   39.0670 C   0  0  1  0  0  0  0  0  0  0  0  0
   36.0060   26.7210   38.7130 C   0  0  0  0  0  0  0  0  0  0  0  0
   36.6260   27.9940   39.2740 C   0  0  1  0  0  0  0  0  0  0  0  0
   38.2400   26.8510   38.3060 H   0  0  0  0  0  0  0  0  0  0  0  0
   35.7890   26.7220   37.6080 H   0  0  0  0  0  0  0  0  0  0  0  0
   35.2290   26.3340   39.3660 H   0  0  0  0  0  0  0  0  0  0  0  0
   36.7090   28.8080   38.5240 H   0  0  0  0  0  0  0  0  0  0  0  0
   37.3950   24.3320   41.9330 C   0  0  0  0  0  0  0  0  0  0  0  0
   36.9940   25.0190   40.7860 C   0  0  0  0  0  0  0  0  0  0  0  0
   37.8260   26.0280   40.2870 C   0  0  0  0  0  0  0  0  0  0  0  0
   38.9890   26.2970   40.9420 N   0  0  0  0  0  0  0  0  0  0  0  0
   39.3640   25.6210   42.0530 C   0  0  0  0  0  0  0  0  0  0  0  0
   38.5630   24.6410   42.5430 N   0  0  0  0  0  0  0  0  0  0  0  0
   36.8200   23.5390   42.3900 H   0  0  0  0  0  0  0  0  0  0  0  0
   36.0750   24.7500   40.3340 H   0  0  0  0  0  0  0  0  0  0  0  0
   40.3030   25.8860   42.5240 H   0  0  0  0  0  0  0  0  0  0  0  0
   36.4020   28.4060   40.5320 O   0  0  0  0  0  0  0  0  0  0  0  0
   37.8510   29.9900   42.0860 O   0  0  0  0  0  0  0  0  0  0  0  0
   36.8320   29.9270   40.9690 P   0  0  2  0  0  0  0  0  0  0  0  0
   35.5370   30.8890   41.4740 O   0  0  0  0  0  0  0  0  0  0  0  0
   35.2710   31.5570   40.8210 H   0  0  0  0  0  0  0  0  0  0  0  0
   37.5450   30.7130   39.6570 O   0  0  0  0  0  0  0  0  0  0  0  0
   40.3120   30.0740   38.9090 Cl  0  0  0  0  0  0  0  0  0  0  0  0
   39.6590   31.6340   39.3820 C   0  0  0  0  0  0  0  0  0  0  0  0
   38.3230   31.8340   39.7190 C   0  0  0  0  0  0  0  0  0  0  0  0
   37.9650   33.1110   40.0680 C   0  0  0  0  0  0  0  0  0  0  0  0
   36.9010   33.2290   40.3270 H   0  0  0  0  0  0  0  0  0  0  0  0
   38.8550   34.1470   40.0880 C   0  0  0  0  0  0  0  0  0  0  0  0
   38.5090   35.1170   40.3680 H   0  0  0  0  0  0  0  0  0  0  0  0
   40.1870   33.9640   39.7540 C   0  0  0  0  0  3  0  0  0  0  0  0
   40.5760   32.6690   39.3960 C   0  0  0  0  0  3  0  0  0  0  0  0
  1  4  1  6  0  0  0
  1  3  1  0  0  0  0
  1 10  1  0  0  0  0
  2  1  1  0  0  0  0
  2  3  1  0  0  0  0
  2  6  1  0  0  0  0
  3  7  1  6  0  0  0
  3 17  1  0  0  0  0
  5  2  1  0  0  0  0
  8 14  1  0  0  0  0
  8 13  1  0  0  0  0
  9  8  2  0  0  0  0
 10  9  1  0  0  0  0
 10 11  2  0  0  0  0
 11 12  1  0  0  0  0
 12 16  1  0  0  0  0
 12 13  2  0  0  0  0
 15  9  1  0  0  0  0
 17 19  1  0  0  0  0
 19 20  1  0  0  0  0
 19 18  2  1  0  0  0
 21 20  1  0  0  0  0
 22 25  1  0  0  0  0
 22 19  1  0  0  0  0
 23 24  1  0  0  0  0
 24 31  2  0  0  0  0
 24 25  1  0  0  0  0
 25 26  2  0  0  0  0
 26 28  1  0  0  0  0
 26 27  1  0  0  0  0
 28 29  1  0  0  0  0
 30 28  2  0  0  0  0
 31 30  1  0  0  0  0
M  END
>  <minimizedAffinity>
-4.91461611

$$$$
