
 OpenBabel03252501473D

 33 35  0  0  0  0  0  0  0  0999 V2000
   44.5490   34.4480   40.7160 C   0  0  0  0  0  0  0  0  0  0  0  0
   43.8920   35.2130   41.7150 C   0  0  0  0  0  0  0  0  0  0  0  0
   44.5960   35.5760   42.8690 C   0  0  0  0  0  0  0  0  0  0  0  0
   45.8930   35.1670   42.9680 N   0  0  0  0  0  0  0  0  0  0  0  0
   46.4800   34.4440   42.0010 C   0  0  0  0  0  0  0  0  0  0  0  0
   45.8110   34.1000   40.9070 N   0  0  0  0  0  0  0  0  0  0  0  0
   43.9590   34.1890   39.8350 H   0  0  0  0  0  0  0  0  0  0  0  0
   44.1070   36.1560   43.6350 H   0  0  0  0  0  0  0  0  0  0  0  0
   48.5540   36.2810   41.9250 F   0  0  0  0  0  0  0  0  0  0  0  0
   48.8910   34.9730   42.1310 C   0  0  0  0  0  0  0  0  0  0  0  0
   47.8710   34.0410   42.1720 C   0  0  0  0  0  0  0  0  0  0  0  0
   48.1410   32.6970   42.3770 C   0  0  0  0  0  0  0  0  0  0  0  0
   49.4660   32.3150   42.5390 C   0  0  0  0  0  0  0  0  0  0  0  0
   50.5110   33.2580   42.4990 C   0  0  0  0  0  0  0  0  0  0  0  0
   50.2060   34.6130   42.2900 C   0  0  0  0  0  0  0  0  0  0  0  0
   47.3970   31.9390   42.4160 H   0  0  0  0  0  0  0  0  0  0  0  0
   49.7690   31.3090   42.7010 H   0  0  0  0  0  0  0  0  0  0  0  0
   51.5440   33.0040   42.6200 H   0  0  0  0  0  0  0  0  0  0  0  0
   50.9550   35.3710   42.2520 H   0  0  0  0  0  0  0  0  0  0  0  0
   42.4890   35.6380   41.5730 C   0  0  0  0  0  0  0  0  0  0  0  0
   41.7890   35.4770   40.4620 C   0  0  0  0  0  0  0  0  0  0  0  0
   40.3650   35.9210   40.3480 C   0  0  0  0  0  0  0  0  0  0  0  0
   39.9620   35.9470   41.3860 H   0  0  0  0  0  0  0  0  0  0  0  0
   40.3200   36.9010   39.8530 H   0  0  0  0  0  0  0  0  0  0  0  0
   40.7890   35.9370   37.3180 Cl  0  0  0  0  0  0  0  0  0  0  0  0
   39.7930   34.8160   38.1880 C   0  0  0  0  0  0  0  0  0  0  0  0
   39.6520   34.8730   39.5560 C   0  0  0  0  0  0  0  0  0  0  0  0
   38.8630   33.9860   40.2580 C   0  0  0  0  0  0  0  0  0  0  0  0
   38.7550   34.0350   41.3360 H   0  0  0  0  0  0  0  0  0  0  0  0
   38.2070   33.0200   39.5240 C   0  0  0  0  0  0  0  0  0  0  0  0
   37.5840   32.3250   40.1030 H   0  0  0  0  0  0  0  0  0  0  0  0
   38.2890   32.8870   38.1520 C   0  0  0  0  0  0  0  0  0  0  0  0
   39.1070   33.8200   37.5060 C   0  0  0  0  0  0  0  0  0  0  0  0
  1  6  2  0  0  0  0
  1  2  1  0  0  0  0
  2  3  2  0  0  0  0
  3  4  1  0  0  0  0
  3  8  1  0  0  0  0
  5 11  1  0  0  0  0
  5  4  2  0  0  0  0
  6  5  1  0  0  0  0
  7  1  1  0  0  0  0
  9 10  1  0  0  0  0
 10 11  2  0  0  0  0
 10 15  1  0  0  0  0
 11 12  1  0  0  0  0
 12 16  1  0  0  0  0
 12 13  2  0  0  0  0
 13 17  1  0  0  0  0
 14 13  1  0  0  0  0
 14 18  1  0  0  0  0
 15 14  2  0  0  0  0
 19 15  1  0  0  0  0
 20  2  1  0  0  0  0
 21 20  2  0  0  0  0
 22 21  1  0  0  0  0
 22 23  1  0  0  0  0
 24 22  1  0  0  0  0
 25 26  1  0  0  0  0
 26 27  1  0  0  0  0
 27 28  2  0  0  0  0
 27 22  1  0  0  0  0
 28 29  1  0  0  0  0
 30 31  1  0  0  0  0
 30 28  1  0  0  0  0
 32 30  2  0  0  0  0
 33 32  1  0  0  0  0
 33 26  2  0  0  0  0
M  END
>  <minimizedAffinity>
-7.15105486

>  <minimizedRMSD>
8.68711948

$$$$
