
 OpenBabel03252509283D

 21 22  0  0  0  0  0  0  0  0999 V2000
   47.7400   33.7470   42.9780 C   0  0  0  0  0  0  0  0  0  0  0  0
   47.9400   32.7330   43.4050 H   0  0  0  0  0  0  0  0  0  0  0  0
   48.6690   34.3150   43.1990 H   0  0  0  0  0  0  0  0  0  0  0  0
   45.0530   34.5600   45.4450 C   0  0  0  0  0  0  0  0  0  0  0  0
   46.1570   33.9250   44.8400 C   0  0  0  0  0  0  0  0  0  0  0  0
   46.5920   34.4110   43.5960 C   0  0  0  0  0  0  0  0  0  0  0  0
   45.9230   35.4700   43.0440 N   0  0  0  0  0  0  0  0  0  0  0  0
   44.8700   36.0450   43.6630 C   0  0  0  0  0  0  0  0  0  0  0  0
   44.4430   35.5930   44.8520 N   0  0  0  0  0  0  0  0  0  0  0  0
   44.8020   34.0980   46.4120 H   0  0  0  0  0  0  0  0  0  0  0  0
   46.6730   33.0890   45.2900 H   0  0  0  0  0  0  0  0  0  0  0  0
   44.3230   36.8820   43.2530 H   0  0  0  0  0  0  0  0  0  0  0  0
   49.2280   35.9770   41.6030 Cl  0  0  0  0  0  0  0  0  0  0  0  0
   48.3080   34.6770   40.8450 C   0  0  0  0  0  0  0  0  0  0  0  0
   47.6180   33.6460   41.4930 C   0  0  0  0  0  0  0  0  0  0  0  0
   46.9510   32.7180   40.7240 C   0  0  0  0  0  0  0  0  0  0  0  0
   46.4560   31.9720   41.3250 H   0  0  0  0  0  0  0  0  0  0  0  0
   46.9520   32.7890   39.3620 C   0  0  0  0  0  0  0  0  0  0  0  0
   46.3920   32.0020   38.8380 H   0  0  0  0  0  0  0  0  0  0  0  0
   47.6310   33.8070   38.6810 C   0  0  0  0  0  0  0  0  0  0  0  0
   48.3010   34.7380   39.4470 C   0  0  0  0  0  0  0  0  0  0  0  0
  1  3  1  0  0  0  0
  1  2  1  0  0  0  0
  1  6  1  0  0  0  0
  4 10  1  0  0  0  0
  5 11  1  0  0  0  0
  5  4  2  0  0  0  0
  6  5  1  0  0  0  0
  7  6  2  0  0  0  0
  7  8  1  0  0  0  0
  8  9  2  0  0  0  0
  9  4  1  0  0  0  0
 12  8  1  0  0  0  0
 14 15  1  0  0  0  0
 14 13  1  0  0  0  0
 15  1  1  0  0  0  0
 16 17  1  0  0  0  0
 16 15  2  0  0  0  0
 18 16  1  0  0  0  0
 19 18  1  0  0  0  0
 20 18  2  0  0  0  0
 20 21  1  0  0  0  0
 21 14  2  0  0  0  0
M  END
>  <minimizedAffinity>
-4.57009459

>  <minimizedRMSD>
2.69742703

$$$$
