
 OpenBabel03252509283D

 21 22  0  0  0  0  0  0  0  0999 V2000
   46.5570   35.3190   42.1190 C   0  0  0  0  0  0  0  0  0  0  0  0
   47.5070   35.9080   42.1560 H   0  0  0  0  0  0  0  0  0  0  0  0
   45.8410   36.0040   41.6170 H   0  0  0  0  0  0  0  0  0  0  0  0
   44.5510   35.4290   45.2710 C   0  0  0  0  0  0  0  0  0  0  0  0
   45.0440   35.7680   43.9930 C   0  0  0  0  0  0  0  0  0  0  0  0
   46.0550   34.9600   43.4450 C   0  0  0  0  0  0  0  0  0  0  0  0
   46.5010   33.8940   44.1790 N   0  0  0  0  0  0  0  0  0  0  0  0
   45.9980   33.6110   45.3980 C   0  0  0  0  0  0  0  0  0  0  0  0
   45.0320   34.3720   45.9350 N   0  0  0  0  0  0  0  0  0  0  0  0
   43.7660   36.1270   45.5980 H   0  0  0  0  0  0  0  0  0  0  0  0
   44.6800   36.6130   43.4290 H   0  0  0  0  0  0  0  0  0  0  0  0
   46.3300   32.7770   46.0000 H   0  0  0  0  0  0  0  0  0  0  0  0
   44.0180   34.6520   40.6400 Cl  0  0  0  0  0  0  0  0  0  0  0  0
   45.5670   33.8160   40.5390 C   0  0  0  0  0  0  0  0  0  0  0  0
   46.7410   34.1320   41.2310 C   0  0  0  0  0  0  0  0  0  0  0  0
   47.8580   33.3540   41.0180 C   0  0  0  0  0  0  0  0  0  0  0  0
   48.7030   33.6870   41.6010 H   0  0  0  0  0  0  0  0  0  0  0  0
   47.8370   32.2970   40.1570 C   0  0  0  0  0  0  0  0  0  0  0  0
   48.7770   31.7380   40.0550 H   0  0  0  0  0  0  0  0  0  0  0  0
   46.6780   31.9530   39.4480 C   0  0  0  0  0  3  0  0  0  0  0  0
   45.5580   32.7290   39.6570 C   0  0  0  0  0  3  0  0  0  0  0  0
  1  2  1  0  0  0  0
  1  6  1  0  0  0  0
  3  1  1  0  0  0  0
  4 10  1  0  0  0  0
  4  9  1  0  0  0  0
  5  4  2  0  0  0  0
  6  5  1  0  0  0  0
  6  7  2  0  0  0  0
  7  8  1  0  0  0  0
  8  9  2  0  0  0  0
  8 12  1  0  0  0  0
 11  5  1  0  0  0  0
 14 13  1  0  0  0  0
 14 15  1  0  0  0  0
 15  1  1  0  0  0  0
 16 15  2  0  0  0  0
 16 17  1  0  0  0  0
 18 16  1  0  0  0  0
 19 18  1  0  0  0  0
 20 21  1  0  0  0  0
 20 18  2  0  0  0  0
 21 14  2  0  0  0  0
M  END
>  <minimizedAffinity>
-3.83115935

>  <minimizedRMSD>
1.29246664

$$$$
