
 OpenBabel03252502363D

 24 25  0  0  1  0  0  0  0  0999 V2000
   47.7190   33.7500   42.9720 C   0  0  2  0  0  0  0  0  0  0  0  0
   48.6450   34.2380   43.3470 H   0  0  0  0  0  0  0  0  0  0  0  0
   45.9350   35.4880   43.0130 C   0  0  0  0  0  0  0  0  0  0  0  0
   46.5810   34.4090   43.6130 C   0  0  0  0  0  0  0  0  0  0  0  0
   46.0940   33.9630   44.8700 C   0  0  0  0  0  0  0  0  0  0  0  0
   45.0210   34.6220   45.4120 N   0  0  0  0  0  0  0  0  0  0  0  0
   44.4510   35.6540   44.7770 C   0  0  0  0  0  0  0  0  0  0  0  0
   44.8970   36.0940   43.5810 N   0  0  0  0  0  0  0  0  0  0  0  0
   46.2380   35.8980   42.0650 H   0  0  0  0  0  0  0  0  0  0  0  0
   46.5620   33.1210   45.3860 H   0  0  0  0  0  0  0  0  0  0  0  0
   43.6270   36.0240   45.3750 H   0  0  0  0  0  0  0  0  0  0  0  0
   49.1380   35.9810   41.3560 Cl  0  0  0  0  0  0  0  0  0  0  0  0
   48.2570   34.6540   40.6330 C   0  0  0  0  0  0  0  0  0  0  0  0
   47.6740   33.7210   41.4880 C   0  0  0  0  0  0  0  0  0  0  0  0
   47.0010   32.7040   40.8060 C   0  0  0  0  0  0  0  0  0  0  0  0
   46.4960   31.9020   41.3560 H   0  0  0  0  0  0  0  0  0  0  0  0
   46.8890   32.5800   39.4370 C   0  0  0  0  0  0  0  0  0  0  0  0
   46.3530   31.7660   38.9750 H   0  0  0  0  0  0  0  0  0  0  0  0
   47.4950   33.5450   38.6620 C   0  0  0  0  0  0  0  0  0  0  0  0
   48.1790   34.5820   39.2600 C   0  0  0  0  0  0  0  0  0  0  0  0
   47.7880   32.3150   43.4530 C   0  0  0  0  0  0  0  0  0  0  0  0
   48.0370   32.3510   44.5490 H   0  0  0  0  0  0  0  0  0  0  0  0
   46.8440   31.7610   43.3180 H   0  0  0  0  0  0  0  0  0  0  0  0
   48.6120   31.7950   42.9490 H   0  0  0  0  0  0  0  0  0  0  0  0
  1  2  1  1  0  0  0
  1 21  1  0  0  0  0
  1  4  1  0  0  0  0
  3  8  2  0  0  0  0
  3  4  1  0  0  0  0
  4  5  2  0  0  0  0
  5 10  1  0  0  0  0
  5  6  1  0  0  0  0
  7 11  1  0  0  0  0
  7  6  2  0  0  0  0
  8  7  1  0  0  0  0
  9  3  1  0  0  0  0
 13 12  1  0  0  0  0
 13 14  1  0  0  0  0
 14  1  1  0  0  0  0
 15 16  1  0  0  0  0
 15 14  2  0  0  0  0
 17 15  1  0  0  0  0
 18 17  1  0  0  0  0
 19 20  1  0  0  0  0
 19 17  2  0  0  0  0
 20 13  2  0  0  0  0
 21 22  1  0  0  0  0
 23 21  1  0  0  0  0
 24 21  1  0  0  0  0
M  END
>  <minimizedAffinity>
-4.77250099

>  <minimizedRMSD>
2.10293221

$$$$
