
 OpenBabel03252500403D

 21 22  0  0  0  0  0  0  0  0999 V2000
   37.8880   28.1260   43.6790 C   0  0  0  0  0  0  0  0  0  0  0  0
   36.8840   28.2070   44.1440 H   0  0  0  0  0  0  0  0  0  0  0  0
   38.6380   28.3030   44.4770 H   0  0  0  0  0  0  0  0  0  0  0  0
   37.9730   29.2300   42.6770 C   0  0  0  0  0  0  0  0  0  0  0  0
   39.1960   29.9200   42.5700 C   0  0  0  0  0  0  0  0  0  0  0  0
   39.3130   30.9600   41.6410 C   0  0  0  0  0  0  0  0  0  0  0  0
   38.2140   31.2450   40.8840 N   0  0  0  0  0  0  0  0  0  0  0  0
   37.0520   30.5630   41.0130 C   0  0  0  0  0  0  0  0  0  0  0  0
   36.9220   29.5600   41.9000 N   0  0  0  0  0  0  0  0  0  0  0  0
   40.0510   29.6600   43.1940 H   0  0  0  0  0  0  0  0  0  0  0  0
   40.2150   31.5200   41.5140 H   0  0  0  0  0  0  0  0  0  0  0  0
   36.2080   30.8430   40.3710 H   0  0  0  0  0  0  0  0  0  0  0  0
   40.6780   26.8420   43.6800 Cl  0  0  0  0  0  0  0  0  0  0  0  0
   39.2560   26.1150   42.9820 C   0  0  0  0  0  0  0  0  0  0  0  0
   38.0620   26.7920   43.0450 C   0  0  0  0  0  0  0  0  0  0  0  0
   36.9580   26.1780   42.4760 C   0  0  0  0  0  0  0  0  0  0  0  0
   36.0030   26.6870   42.5100 H   0  0  0  0  0  0  0  0  0  0  0  0
   36.9990   24.9430   41.8610 C   0  0  0  0  0  0  0  0  0  0  0  0
   36.0900   24.5080   41.4280 H   0  0  0  0  0  0  0  0  0  0  0  0
   38.2020   24.2530   41.7940 C   0  0  0  0  0  3  0  0  0  0  0  0
   39.2900   24.8800   42.3660 C   0  0  0  0  0  3  0  0  0  0  0  0
  1  2  1  0  0  0  0
  1  3  1  0  0  0  0
  4  1  1  0  0  0  0
  5  4  1  0  0  0  0
  5 10  1  0  0  0  0
  6  5  2  0  0  0  0
  7  8  2  0  0  0  0
  7  6  1  0  0  0  0
  8  9  1  0  0  0  0
  9  4  2  0  0  0  0
 11  6  1  0  0  0  0
 12  8  1  0  0  0  0
 14 15  1  0  0  0  0
 14 13  1  0  0  0  0
 15  1  1  0  0  0  0
 16 17  1  0  0  0  0
 16 15  2  0  0  0  0
 18 16  1  0  0  0  0
 19 18  1  0  0  0  0
 20 18  2  0  0  0  0
 20 21  1  0  0  0  0
 21 14  2  0  0  0  0
M  END
>  <minimizedAffinity>
-4.54513025

$$$$

 OpenBabel03252500403D

 21 22  0  0  0  0  0  0  0  0999 V2000
   36.5830   27.4110   42.8510 C   0  0  0  0  0  0  0  0  0  0  0  0
   35.7230   26.7620   42.5890 H   0  0  0  0  0  0  0  0  0  0  0  0
   36.3440   27.9050   43.8150 H   0  0  0  0  0  0  0  0  0  0  0  0
   36.6630   28.4470   41.7780 C   0  0  0  0  0  0  0  0  0  0  0  0
   36.4290   28.0310   40.4530 C   0  0  0  0  0  0  0  0  0  0  0  0
   36.4950   28.9740   39.4210 C   0  0  0  0  0  0  0  0  0  0  0  0
   36.7880   30.2610   39.7710 N   0  0  0  0  0  0  0  0  0  0  0  0
   37.0090   30.6260   41.0540 C   0  0  0  0  0  0  0  0  0  0  0  0
   36.9490   29.7330   42.0590 N   0  0  0  0  0  0  0  0  0  0  0  0
   36.1960   26.9930   40.2160 H   0  0  0  0  0  0  0  0  0  0  0  0
   36.3250   28.7190   38.3960 H   0  0  0  0  0  0  0  0  0  0  0  0
   37.2380   31.6780   41.2650 H   0  0  0  0  0  0  0  0  0  0  0  0
   36.6010   24.5660   41.6930 Cl  0  0  0  0  0  0  0  0  0  0  0  0
   37.9680   25.3300   42.4580 C   0  0  0  0  0  0  0  0  0  0  0  0
   37.8330   26.6100   42.9380 C   0  0  0  0  0  0  0  0  0  0  0  0
   38.9450   27.1780   43.5410 C   0  0  0  0  0  0  0  0  0  0  0  0
   38.8690   28.1860   43.9300 H   0  0  0  0  0  0  0  0  0  0  0  0
   40.1570   26.5320   43.6800 C   0  0  0  0  0  0  0  0  0  0  0  0
   41.0010   27.0340   44.1670 H   0  0  0  0  0  0  0  0  0  0  0  0
   40.3000   25.2380   43.1960 C   0  0  0  0  0  3  0  0  0  0  0  0
   39.1830   24.6900   42.5990 C   0  0  0  0  0  3  0  0  0  0  0  0
  1 15  1  0  0  0  0
  1  3  1  0  0  0  0
  2  1  1  0  0  0  0
  4  9  1  0  0  0  0
  4  1  1  0  0  0  0
  5  4  2  0  0  0  0
  6  7  2  0  0  0  0
  6  5  1  0  0  0  0
  7  8  1  0  0  0  0
  8 12  1  0  0  0  0
  8  9  2  0  0  0  0
 10  5  1  0  0  0  0
 11  6  1  0  0  0  0
 13 14  1  0  0  0  0
 14 21  2  0  0  0  0
 14 15  1  0  0  0  0
 15 16  2  0  0  0  0
 16 18  1  0  0  0  0
 16 17  1  0  0  0  0
 18 19  1  0  0  0  0
 20 18  2  0  0  0  0
 21 20  1  0  0  0  0
M  END
>  <minimizedAffinity>
-4.53639746

$$$$

 OpenBabel03252500403D

 21 22  0  0  0  0  0  0  0  0999 V2000
   35.5020   29.0970   40.7400 C   0  0  0  0  0  0  0  0  0  0  0  0
   34.9240   28.6110   39.9280 H   0  0  0  0  0  0  0  0  0  0  0  0
   34.7730   29.4920   41.4760 H   0  0  0  0  0  0  0  0  0  0  0  0
   36.2250   30.2420   40.1080 C   0  0  0  0  0  0  0  0  0  0  0  0
   36.5050   30.1530   38.7310 C   0  0  0  0  0  0  0  0  0  0  0  0
   37.1800   31.2060   38.1040 C   0  0  0  0  0  0  0  0  0  0  0  0
   37.5310   32.2720   38.8810 N   0  0  0  0  0  0  0  0  0  0  0  0
   37.2460   32.3250   40.2030 C   0  0  0  0  0  0  0  0  0  0  0  0
   36.5980   31.3210   40.8220 N   0  0  0  0  0  0  0  0  0  0  0  0
   36.2070   29.2840   38.1450 H   0  0  0  0  0  0  0  0  0  0  0  0
   37.4210   31.1970   37.0610 H   0  0  0  0  0  0  0  0  0  0  0  0
   37.5550   33.2120   40.7680 H   0  0  0  0  0  0  0  0  0  0  0  0
   36.2760   26.5720   39.1710 Cl  0  0  0  0  0  0  0  0  0  0  0  0
   36.8660   26.9660   40.7640 C   0  0  0  0  0  0  0  0  0  0  0  0
   36.4430   28.1280   41.3620 C   0  0  0  0  0  0  0  0  0  0  0  0
   36.9350   28.4000   42.6290 C   0  0  0  0  0  0  0  0  0  0  0  0
   36.6200   29.3090   43.1270 H   0  0  0  0  0  0  0  0  0  0  0  0
   37.8120   27.5750   43.3060 C   0  0  0  0  0  0  0  0  0  0  0  0
   38.1660   27.8450   44.3070 H   0  0  0  0  0  0  0  0  0  0  0  0
   38.2430   26.3990   42.7060 C   0  0  0  0  0  3  0  0  0  0  0  0
   37.7430   26.1460   41.4460 C   0  0  0  0  0  3  0  0  0  0  0  0
  1 15  1  0  0  0  0
  1  3  1  0  0  0  0
  2  1  1  0  0  0  0
  4  1  1  0  0  0  0
  4  9  1  0  0  0  0
  5  4  2  0  0  0  0
  6  5  1  0  0  0  0
  6  7  2  0  0  0  0
  7  8  1  0  0  0  0
  8 12  1  0  0  0  0
  8  9  2  0  0  0  0
 10  5  1  0  0  0  0
 11  6  1  0  0  0  0
 13 14  1  0  0  0  0
 14 15  2  0  0  0  0
 14 21  1  0  0  0  0
 15 16  1  0  0  0  0
 16 17  1  0  0  0  0
 16 18  2  0  0  0  0
 18 19  1  0  0  0  0
 20 18  1  0  0  0  0
 21 20  2  0  0  0  0
M  END
>  <minimizedAffinity>
-4.4821558

$$$$

 OpenBabel03252500403D

 21 22  0  0  0  0  0  0  0  0999 V2000
   36.9760   27.4470   42.9750 C   0  0  0  0  0  0  0  0  0  0  0  0
   37.6250   27.7600   43.8180 H   0  0  0  0  0  0  0  0  0  0  0  0
   36.0140   27.1040   43.4060 H   0  0  0  0  0  0  0  0  0  0  0  0
   37.6630   26.2870   42.3300 C   0  0  0  0  0  0  0  0  0  0  0  0
   36.9310   25.0930   42.1910 C   0  0  0  0  0  0  0  0  0  0  0  0
   37.5410   23.9850   41.5910 C   0  0  0  0  0  0  0  0  0  0  0  0
   38.8310   24.1360   41.1720 N   0  0  0  0  0  0  0  0  0  0  0  0
   39.5070   25.2990   41.3230 C   0  0  0  0  0  0  0  0  0  0  0  0
   38.9360   26.3740   41.8970 N   0  0  0  0  0  0  0  0  0  0  0  0
   35.9000   25.0140   42.5380 H   0  0  0  0  0  0  0  0  0  0  0  0
   37.0360   23.0520   41.4570 H   0  0  0  0  0  0  0  0  0  0  0  0
   40.5410   25.3520   40.9620 H   0  0  0  0  0  0  0  0  0  0  0  0
   38.8890   29.8470   43.1100 Cl  0  0  0  0  0  0  0  0  0  0  0  0
   37.5690   29.6970   41.9800 C   0  0  0  0  0  0  0  0  0  0  0  0
   36.7820   28.5720   42.0210 C   0  0  0  0  0  0  0  0  0  0  0  0
   35.7440   28.4950   41.1060 C   0  0  0  0  0  0  0  0  0  0  0  0
   35.1050   27.6200   41.1140 H   0  0  0  0  0  0  0  0  0  0  0  0
   35.4670   29.4760   40.1750 C   0  0  0  0  0  0  0  0  0  0  0  0
   34.6300   29.3580   39.4770 H   0  0  0  0  0  0  0  0  0  0  0  0
   36.2590   30.6160   40.1290 C   0  0  0  0  0  3  0  0  0  0  0  0
   37.2870   30.6740   41.0460 C   0  0  0  0  0  3  0  0  0  0  0  0
  1  3  1  0  0  0  0
  1  2  1  0  0  0  0
  4  1  1  0  0  0  0
  5  4  1  0  0  0  0
  5 10  1  0  0  0  0
  6  5  2  0  0  0  0
  7  8  2  0  0  0  0
  7  6  1  0  0  0  0
  8  9  1  0  0  0  0
  9  4  2  0  0  0  0
 11  6  1  0  0  0  0
 12  8  1  0  0  0  0
 14 15  1  0  0  0  0
 14 13  1  0  0  0  0
 15  1  1  0  0  0  0
 16 17  1  0  0  0  0
 16 15  2  0  0  0  0
 18 16  1  0  0  0  0
 19 18  1  0  0  0  0
 20 18  2  0  0  0  0
 20 21  1  0  0  0  0
 21 14  2  0  0  0  0
M  END
>  <minimizedAffinity>
-4.47287655

$$$$

 OpenBabel03252500403D

 21 22  0  0  0  0  0  0  0  0999 V2000
   36.2000   30.6850   41.0520 C   0  0  0  0  0  0  0  0  0  0  0  0
   36.4140   31.6320   41.5870 H   0  0  0  0  0  0  0  0  0  0  0  0
   35.1150   30.4820   41.1570 H   0  0  0  0  0  0  0  0  0  0  0  0
   36.9670   29.6210   41.7670 C   0  0  0  0  0  0  0  0  0  0  0  0
   38.2810   29.9270   42.1710 C   0  0  0  0  0  0  0  0  0  0  0  0
   39.0300   28.9560   42.8440 C   0  0  0  0  0  0  0  0  0  0  0  0
   38.4290   27.7510   43.0700 N   0  0  0  0  0  0  0  0  0  0  0  0
   37.1640   27.4900   42.6660 C   0  0  0  0  0  0  0  0  0  0  0  0
   36.4290   28.4120   42.0180 N   0  0  0  0  0  0  0  0  0  0  0  0
   38.7240   30.9030   41.9730 H   0  0  0  0  0  0  0  0  0  0  0  0
   40.0320   29.1290   43.1770 H   0  0  0  0  0  0  0  0  0  0  0  0
   36.7410   26.5010   42.8820 H   0  0  0  0  0  0  0  0  0  0  0  0
   37.7810   33.1560   40.1410 Cl  0  0  0  0  0  0  0  0  0  0  0  0
   37.3130   31.8420   39.0960 C   0  0  0  0  0  0  0  0  0  0  0  0
   36.6040   30.7900   39.6240 C   0  0  0  0  0  0  0  0  0  0  0  0
   36.2500   29.7690   38.7570 C   0  0  0  0  0  0  0  0  0  0  0  0
   35.6900   28.9260   39.1440 H   0  0  0  0  0  0  0  0  0  0  0  0
   36.5680   29.7580   37.4130 C   0  0  0  0  0  0  0  0  0  0  0  0
   36.2600   28.9200   36.7770 H   0  0  0  0  0  0  0  0  0  0  0  0
   37.2850   30.8180   36.8730 C   0  0  0  0  0  3  0  0  0  0  0  0
   37.6280   31.8240   37.7510 C   0  0  0  0  0  3  0  0  0  0  0  0
  1  3  1  0  0  0  0
  1  2  1  0  0  0  0
  1  4  1  0  0  0  0
  4  9  2  0  0  0  0
  4  5  1  0  0  0  0
  5  6  2  0  0  0  0
  6  7  1  0  0  0  0
  6 11  1  0  0  0  0
  8 12  1  0  0  0  0
  8  7  2  0  0  0  0
  9  8  1  0  0  0  0
 10  5  1  0  0  0  0
 14 15  1  0  0  0  0
 14 13  1  0  0  0  0
 15  1  1  0  0  0  0
 16 17  1  0  0  0  0
 16 15  2  0  0  0  0
 18 16  1  0  0  0  0
 19 18  1  0  0  0  0
 20 18  2  0  0  0  0
 20 21  1  0  0  0  0
 21 14  2  0  0  0  0
M  END
>  <minimizedAffinity>
-4.46767473

$$$$

 OpenBabel03252500403D

 21 22  0  0  0  0  0  0  0  0999 V2000
   35.4230   28.9990   40.6670 C   0  0  0  0  0  0  0  0  0  0  0  0
   34.7730   29.3770   41.4820 H   0  0  0  0  0  0  0  0  0  0  0  0
   34.7740   28.4600   39.9470 H   0  0  0  0  0  0  0  0  0  0  0  0
   36.3600   28.0240   41.3030 C   0  0  0  0  0  0  0  0  0  0  0  0
   36.8920   27.0070   40.4880 C   0  0  0  0  0  0  0  0  0  0  0  0
   37.7740   26.0750   41.0480 C   0  0  0  0  0  0  0  0  0  0  0  0
   38.0680   26.2160   42.3740 N   0  0  0  0  0  0  0  0  0  0  0  0
   37.5380   27.2050   43.1290 C   0  0  0  0  0  0  0  0  0  0  0  0
   36.6890   28.1100   42.6070 N   0  0  0  0  0  0  0  0  0  0  0  0
   36.6330   26.9300   39.4320 H   0  0  0  0  0  0  0  0  0  0  0  0
   38.2100   25.2810   40.4800 H   0  0  0  0  0  0  0  0  0  0  0  0
   37.8180   27.2610   44.1870 H   0  0  0  0  0  0  0  0  0  0  0  0
   35.8090   28.9470   37.6200 Cl  0  0  0  0  0  0  0  0  0  0  0  0
   36.3880   30.2140   38.6680 C   0  0  0  0  0  0  0  0  0  0  0  0
   36.1530   30.1210   40.0180 C   0  0  0  0  0  0  0  0  0  0  0  0
   36.6330   31.1490   40.8140 C   0  0  0  0  0  0  0  0  0  0  0  0
   36.4630   31.1040   41.8830 H   0  0  0  0  0  0  0  0  0  0  0  0
   37.3230   32.2400   40.3250 C   0  0  0  0  0  0  0  0  0  0  0  0
   37.6790   33.0220   41.0060 H   0  0  0  0  0  0  0  0  0  0  0  0
   37.5640   32.3400   38.9610 C   0  0  0  0  0  3  0  0  0  0  0  0
   37.0790   31.3080   38.1850 C   0  0  0  0  0  3  0  0  0  0  0  0
  1  4  1  0  0  0  0
  1  2  1  0  0  0  0
  3  1  1  0  0  0  0
  4  9  1  0  0  0  0
  5  6  1  0  0  0  0
  5  4  2  0  0  0  0
  6  7  2  0  0  0  0
  7  8  1  0  0  0  0
  8 12  1  0  0  0  0
  9  8  2  0  0  0  0
 10  5  1  0  0  0  0
 11  6  1  0  0  0  0
 13 14  1  0  0  0  0
 14 15  1  0  0  0  0
 15  1  1  0  0  0  0
 15 16  2  0  0  0  0
 16 17  1  0  0  0  0
 18 16  1  0  0  0  0
 18 19  1  0  0  0  0
 20 18  2  0  0  0  0
 21 14  2  0  0  0  0
 21 20  1  0  0  0  0
M  END
>  <minimizedAffinity>
-4.38923168

$$$$

 OpenBabel03252500403D

 21 22  0  0  0  0  0  0  0  0999 V2000
   37.4890   28.2120   43.5060 C   0  0  0  0  0  0  0  0  0  0  0  0
   37.7580   28.4440   44.5570 H   0  0  0  0  0  0  0  0  0  0  0  0
   36.3910   28.0550   43.4710 H   0  0  0  0  0  0  0  0  0  0  0  0
   38.1760   26.9270   43.1750 C   0  0  0  0  0  0  0  0  0  0  0  0
   37.4850   26.0120   42.3580 C   0  0  0  0  0  0  0  0  0  0  0  0
   38.0980   24.7980   42.0260 C   0  0  0  0  0  0  0  0  0  0  0  0
   39.3480   24.5750   42.5250 N   0  0  0  0  0  0  0  0  0  0  0  0
   39.9840   25.4770   43.3080 C   0  0  0  0  0  0  0  0  0  0  0  0
   39.4100   26.6490   43.6370 N   0  0  0  0  0  0  0  0  0  0  0  0
   36.4870   26.2300   41.9790 H   0  0  0  0  0  0  0  0  0  0  0  0
   37.6240   24.0640   41.4090 H   0  0  0  0  0  0  0  0  0  0  0  0
   40.9890   25.2340   43.6740 H   0  0  0  0  0  0  0  0  0  0  0  0
   35.7260   28.9120   41.0900 Cl  0  0  0  0  0  0  0  0  0  0  0  0
   37.2160   29.7220   41.4940 C   0  0  0  0  0  0  0  0  0  0  0  0
   37.9160   29.3140   42.6030 C   0  0  0  0  0  0  0  0  0  0  0  0
   39.0960   29.9840   42.8860 C   0  0  0  0  0  0  0  0  0  0  0  0
   39.6710   29.6850   43.7540 H   0  0  0  0  0  0  0  0  0  0  0  0
   39.5920   31.0200   42.1210 C   0  0  0  0  0  0  0  0  0  0  0  0
   40.5330   31.5120   42.3950 H   0  0  0  0  0  0  0  0  0  0  0  0
   38.8890   31.4380   40.9980 C   0  0  0  0  0  3  0  0  0  0  0  0
   37.7170   30.7600   40.7340 C   0  0  0  0  0  3  0  0  0  0  0  0
  1  2  1  0  0  0  0
  3  1  1  0  0  0  0
  4  1  1  0  0  0  0
  4  9  1  0  0  0  0
  5  4  2  0  0  0  0
  6  5  1  0  0  0  0
  6  7  2  0  0  0  0
  7  8  1  0  0  0  0
  8  9  2  0  0  0  0
  8 12  1  0  0  0  0
 10  5  1  0  0  0  0
 11  6  1  0  0  0  0
 13 14  1  0  0  0  0
 14 15  1  0  0  0  0
 15 16  2  0  0  0  0
 15  1  1  0  0  0  0
 16 17  1  0  0  0  0
 18 19  1  0  0  0  0
 18 16  1  0  0  0  0
 20 18  2  0  0  0  0
 21 20  1  0  0  0  0
 21 14  2  0  0  0  0
M  END
>  <minimizedAffinity>
-4.38237858

$$$$

 OpenBabel03252500403D

 21 22  0  0  0  0  0  0  0  0999 V2000
   36.3920   30.6490   41.1130 C   0  0  0  0  0  0  0  0  0  0  0  0
   35.2930   30.5850   41.2470 H   0  0  0  0  0  0  0  0  0  0  0  0
   36.7160   31.6380   41.4970 H   0  0  0  0  0  0  0  0  0  0  0  0
   36.6340   30.5950   39.6400 C   0  0  0  0  0  0  0  0  0  0  0  0
   37.4650   31.5840   39.0800 C   0  0  0  0  0  0  0  0  0  0  0  0
   37.7150   31.5650   37.7030 C   0  0  0  0  0  0  0  0  0  0  0  0
   37.1270   30.5690   36.9770 N   0  0  0  0  0  0  0  0  0  0  0  0
   36.3330   29.6340   37.5470 C   0  0  0  0  0  0  0  0  0  0  0  0
   36.0810   29.6370   38.8700 N   0  0  0  0  0  0  0  0  0  0  0  0
   37.9160   32.3620   39.6960 H   0  0  0  0  0  0  0  0  0  0  0  0
   38.3370   32.2880   37.2210 H   0  0  0  0  0  0  0  0  0  0  0  0
   35.8930   28.8610   36.9060 H   0  0  0  0  0  0  0  0  0  0  0  0
   39.2600   31.0700   42.1290 Cl  0  0  0  0  0  0  0  0  0  0  0  0
   38.3470   29.5980   42.3270 C   0  0  0  0  0  0  0  0  0  0  0  0
   37.0700   29.5330   41.8250 C   0  0  0  0  0  0  0  0  0  0  0  0
   36.3820   28.3430   42.0020 C   0  0  0  0  0  0  0  0  0  0  0  0
   35.3730   28.2610   41.6160 H   0  0  0  0  0  0  0  0  0  0  0  0
   36.9090   27.2410   42.6450 C   0  0  0  0  0  0  0  0  0  0  0  0
   36.3150   26.3260   42.7530 H   0  0  0  0  0  0  0  0  0  0  0  0
   38.1990   27.3000   43.1540 C   0  0  0  0  0  3  0  0  0  0  0  0
   38.8680   28.4920   42.9690 C   0  0  0  0  0  3  0  0  0  0  0  0
  1  2  1  0  0  0  0
  1  3  1  0  0  0  0
  1 15  1  0  0  0  0
  4  1  1  0  0  0  0
  5  4  1  0  0  0  0
  5 10  1  0  0  0  0
  6  5  2  0  0  0  0
  7  8  2  0  0  0  0
  7  6  1  0  0  0  0
  8  9  1  0  0  0  0
  9  4  2  0  0  0  0
 11  6  1  0  0  0  0
 12  8  1  0  0  0  0
 13 14  1  0  0  0  0
 14 21  1  0  0  0  0
 15 16  1  0  0  0  0
 15 14  2  0  0  0  0
 16 18  2  0  0  0  0
 17 16  1  0  0  0  0
 18 19  1  0  0  0  0
 18 20  1  0  0  0  0
 21 20  2  0  0  0  0
M  END
>  <minimizedAffinity>
-4.36314011

$$$$

 OpenBabel03252500403D

 21 22  0  0  0  0  0  0  0  0999 V2000
   38.3840   29.4500   39.9140 C   0  0  0  0  0  0  0  0  0  0  0  0
   39.4390   29.2580   39.6290 H   0  0  0  0  0  0  0  0  0  0  0  0
   37.7450   29.0890   39.0830 H   0  0  0  0  0  0  0  0  0  0  0  0
   38.2480   30.9340   40.0250 C   0  0  0  0  0  0  0  0  0  0  0  0
   37.3390   31.5700   39.1580 C   0  0  0  0  0  0  0  0  0  0  0  0
   37.1840   32.9590   39.2330 C   0  0  0  0  0  0  0  0  0  0  0  0
   37.9360   33.6200   40.1600 N   0  0  0  0  0  0  0  0  0  0  0  0
   38.8020   32.9770   40.9780 C   0  0  0  0  0  0  0  0  0  0  0  0
   38.9640   31.6430   40.9190 N   0  0  0  0  0  0  0  0  0  0  0  0
   36.7550   31.0040   38.4320 H   0  0  0  0  0  0  0  0  0  0  0  0
   36.5090   33.4980   38.6020 H   0  0  0  0  0  0  0  0  0  0  0  0
   39.3740   33.5700   41.7010 H   0  0  0  0  0  0  0  0  0  0  0  0
   35.4450   28.8210   40.5480 Cl  0  0  0  0  0  0  0  0  0  0  0  0
   36.7860   28.4340   41.5920 C   0  0  0  0  0  0  0  0  0  0  0  0
   38.0580   28.7690   41.1950 C   0  0  0  0  0  0  0  0  0  0  0  0
   39.0940   28.4450   42.0570 C   0  0  0  0  0  0  0  0  0  0  0  0
   40.1080   28.6970   41.7720 H   0  0  0  0  0  0  0  0  0  0  0  0
   38.9130   27.8140   43.2720 C   0  0  0  0  0  0  0  0  0  0  0  0
   39.7730   27.5830   43.9110 H   0  0  0  0  0  0  0  0  0  0  0  0
   37.6300   27.4720   43.6780 C   0  0  0  0  0  3  0  0  0  0  0  0
   36.6120   27.8020   42.8080 C   0  0  0  0  0  3  0  0  0  0  0  0
  1  4  1  0  0  0  0
  1 15  1  0  0  0  0
  2  1  1  0  0  0  0
  3  1  1  0  0  0  0
  4  9  1  0  0  0  0
  5  6  1  0  0  0  0
  5  4  2  0  0  0  0
  6  7  2  0  0  0  0
  7  8  1  0  0  0  0
  8 12  1  0  0  0  0
  9  8  2  0  0  0  0
 10  5  1  0  0  0  0
 11  6  1  0  0  0  0
 13 14  1  0  0  0  0
 14 21  1  0  0  0  0
 15 14  2  0  0  0  0
 15 16  1  0  0  0  0
 16 18  2  0  0  0  0
 17 16  1  0  0  0  0
 18 20  1  0  0  0  0
 18 19  1  0  0  0  0
 21 20  2  0  0  0  0
M  END
>  <minimizedAffinity>
-4.34096098

$$$$
