
 OpenBabel03252509283D

 21 22  0  0  0  0  0  0  0  0999 V2000
   48.3410   35.0340   41.9840 C   0  0  0  0  0  0  0  0  0  0  0  0
   49.3400   35.0590   42.4870 H   0  0  0  0  0  0  0  0  0  0  0  0
   48.2140   36.0680   41.5980 H   0  0  0  0  0  0  0  0  0  0  0  0
   44.9720   35.0810   43.6000 C   0  0  0  0  0  0  0  0  0  0  0  0
   46.0330   35.3900   42.7240 C   0  0  0  0  0  0  0  0  0  0  0  0
   47.2480   34.7070   42.8990 C   0  0  0  0  0  0  0  0  0  0  0  0
   47.3320   33.7830   43.9050 N   0  0  0  0  0  0  0  0  0  0  0  0
   46.2880   33.5220   44.7190 C   0  0  0  0  0  0  0  0  0  0  0  0
   45.1200   34.1660   44.5640 N   0  0  0  0  0  0  0  0  0  0  0  0
   44.0730   35.6730   43.3700 H   0  0  0  0  0  0  0  0  0  0  0  0
   45.9480   36.1230   41.9350 H   0  0  0  0  0  0  0  0  0  0  0  0
   46.3240   32.7990   45.5210 H   0  0  0  0  0  0  0  0  0  0  0  0
   50.3700   32.8450   42.3960 Cl  0  0  0  0  0  0  0  0  0  0  0  0
   49.3380   33.0980   40.9870 C   0  0  0  0  0  0  0  0  0  0  0  0
   48.4000   34.1190   40.8040 C   0  0  0  0  0  0  0  0  0  0  0  0
   47.6850   34.1510   39.6270 C   0  0  0  0  0  0  0  0  0  0  0  0
   46.9930   34.9770   39.5940 H   0  0  0  0  0  0  0  0  0  0  0  0
   47.8770   33.2170   38.6530 C   0  0  0  0  0  0  0  0  0  0  0  0
   47.2590   33.3270   37.7500 H   0  0  0  0  0  0  0  0  0  0  0  0
   48.8080   32.1820   38.8020 C   0  0  0  0  0  3  0  0  0  0  0  0
   49.5250   32.1450   39.9800 C   0  0  0  0  0  3  0  0  0  0  0  0
  1  2  1  0  0  0  0
  1  6  1  0  0  0  0
  3  1  1  0  0  0  0
  4  9  1  0  0  0  0
  5  6  1  0  0  0  0
  5  4  2  0  0  0  0
  6  7  2  0  0  0  0
  7  8  1  0  0  0  0
  8 12  1  0  0  0  0
  9  8  2  0  0  0  0
 10  4  1  0  0  0  0
 11  5  1  0  0  0  0
 14 13  1  0  0  0  0
 15 14  1  0  0  0  0
 15  1  1  0  0  0  0
 16 15  2  0  0  0  0
 17 16  1  0  0  0  0
 18 20  2  0  0  0  0
 18 16  1  0  0  0  0
 19 18  1  0  0  0  0
 20 21  1  0  0  0  0
 21 14  2  0  0  0  0
M  END
>  <minimizedAffinity>
-3.96211791

>  <minimizedRMSD>
2.91086507

$$$$
