
 OpenBabel03252501493D

 33 35  0  0  0  0  0  0  0  0999 V2000
   35.6680   27.4480   38.7010 C   0  0  0  0  0  0  0  0  0  0  0  0
   35.4470   28.7970   38.3170 C   0  0  0  0  0  0  0  0  0  0  0  0
   36.1090   29.8190   39.0070 C   0  0  0  0  0  0  0  0  0  0  0  0
   36.9420   29.4540   40.0230 N   0  0  0  0  0  0  0  0  0  0  0  0
   37.1260   28.1660   40.3550 C   0  0  0  0  0  0  0  0  0  0  0  0
   36.4970   27.1980   39.7010 N   0  0  0  0  0  0  0  0  0  0  0  0
   35.1290   26.6870   38.1340 H   0  0  0  0  0  0  0  0  0  0  0  0
   35.9480   30.8470   38.7260 H   0  0  0  0  0  0  0  0  0  0  0  0
   36.1980   27.6160   42.9080 F   0  0  0  0  0  0  0  0  0  0  0  0
   37.5500   27.5750   42.7170 C   0  0  0  0  0  0  0  0  0  0  0  0
   38.0330   27.8470   41.4510 C   0  0  0  0  0  0  0  0  0  0  0  0
   39.3930   27.8230   41.1870 C   0  0  0  0  0  0  0  0  0  0  0  0
   40.2570   27.5200   42.2320 C   0  0  0  0  0  0  0  0  0  0  0  0
   39.7730   27.2420   43.5250 C   0  0  0  0  0  0  0  0  0  0  0  0
   38.3890   27.2730   43.7620 C   0  0  0  0  0  0  0  0  0  0  0  0
   39.8190   28.0240   40.2330 H   0  0  0  0  0  0  0  0  0  0  0  0
   41.3130   27.4780   42.1250 H   0  0  0  0  0  0  0  0  0  0  0  0
   40.4050   27.0040   44.3560 H   0  0  0  0  0  0  0  0  0  0  0  0
   37.9660   27.0710   44.7190 H   0  0  0  0  0  0  0  0  0  0  0  0
   34.5390   29.1540   37.2140 C   0  0  0  0  0  3  0  0  0  0  0  0
   33.2730   28.7740   37.1630 C   0  0  0  0  0  3  0  0  0  0  0  0
   32.3750   29.1510   36.0260 C   0  0  0  0  0  0  0  0  0  0  0  0
   33.0240   29.6430   35.2660 H   0  0  0  0  0  0  0  0  0  0  0  0
   31.8730   28.2560   35.6370 H   0  0  0  0  0  0  0  0  0  0  0  0
   31.6310   31.5060   34.2200 Cl  0  0  0  0  0  0  0  0  0  0  0  0
   31.0090   31.2250   35.8140 C   0  0  0  0  0  0  0  0  0  0  0  0
   31.3930   30.1400   36.5670 C   0  0  0  0  0  0  0  0  0  0  0  0
   30.9050   29.9070   37.8370 C   0  0  0  0  0  0  0  0  0  0  0  0
   31.2100   29.0500   38.4260 H   0  0  0  0  0  0  0  0  0  0  0  0
   29.9990   30.8210   38.3320 C   0  0  0  0  0  0  0  0  0  0  0  0
   29.6230   30.6170   39.3450 H   0  0  0  0  0  0  0  0  0  0  0  0
   29.5570   31.9370   37.6500 C   0  0  0  0  0  3  0  0  0  0  0  0
   30.0940   32.1100   36.3700 C   0  0  0  0  0  3  0  0  0  0  0  0
  1  6  1  0  0  0  0
  2  1  2  0  0  0  0
  2  3  1  0  0  0  0
  3  4  2  0  0  0  0
  4  5  1  0  0  0  0
  5 11  1  0  0  0  0
  6  5  2  0  0  0  0
  7  1  1  0  0  0  0
  8  3  1  0  0  0  0
 10  9  1  0  0  0  0
 10 15  1  0  0  0  0
 11 10  2  0  0  0  0
 12 11  1  0  0  0  0
 12 13  2  0  0  0  0
 13 14  1  0  0  0  0
 14 15  2  0  0  0  0
 14 18  1  0  0  0  0
 15 19  1  0  0  0  0
 16 12  1  0  0  0  0
 17 13  1  0  0  0  0
 20  2  1  0  0  0  0
 21 20  2  0  0  0  0
 22 27  1  0  0  0  0
 22 21  1  0  0  0  0
 23 22  1  0  0  0  0
 24 22  1  0  0  0  0
 25 26  1  0  0  0  0
 26 33  2  0  0  0  0
 26 27  1  0  0  0  0
 27 28  2  0  0  0  0
 28 30  1  0  0  0  0
 28 29  1  0  0  0  0
 30 31  1  0  0  0  0
 32 30  2  0  0  0  0
 33 32  1  0  0  0  0
M  END
>  <minimizedAffinity>
-5.99510813

$$$$

 OpenBabel03252501493D

 33 35  0  0  0  0  0  0  0  0999 V2000
   36.1550   28.7570   37.5310 C   0  0  0  0  0  0  0  0  0  0  0  0
   34.7480   28.9440   37.4760 C   0  0  0  0  0  0  0  0  0  0  0  0
   34.0170   28.9700   38.6690 C   0  0  0  0  0  0  0  0  0  0  0  0
   34.7090   28.8140   39.8340 N   0  0  0  0  0  0  0  0  0  0  0  0
   36.0410   28.6400   39.8440 C   0  0  0  0  0  0  0  0  0  0  0  0
   36.7320   28.6140   38.7120 N   0  0  0  0  0  0  0  0  0  0  0  0
   36.6810   28.7430   36.5750 H   0  0  0  0  0  0  0  0  0  0  0  0
   32.9490   29.1110   38.6400 H   0  0  0  0  0  0  0  0  0  0  0  0
   37.3180   30.7570   41.0970 F   0  0  0  0  0  0  0  0  0  0  0  0
   37.3480   29.5490   41.7350 C   0  0  0  0  0  0  0  0  0  0  0  0
   36.7170   28.4810   41.1260 C   0  0  0  0  0  0  0  0  0  0  0  0
   36.7090   27.2270   41.7160 C   0  0  0  0  0  0  0  0  0  0  0  0
   37.3530   27.0760   42.9370 C   0  0  0  0  0  0  0  0  0  0  0  0
   37.9990   28.1590   43.5650 C   0  0  0  0  0  0  0  0  0  0  0  0
   37.9900   29.4180   42.9410 C   0  0  0  0  0  0  0  0  0  0  0  0
   36.2400   26.3710   41.2930 H   0  0  0  0  0  0  0  0  0  0  0  0
   37.4000   26.1540   43.4650 H   0  0  0  0  0  0  0  0  0  0  0  0
   38.5060   28.0840   44.5040 H   0  0  0  0  0  0  0  0  0  0  0  0
   38.4610   30.2730   43.3690 H   0  0  0  0  0  0  0  0  0  0  0  0
   34.0340   29.1100   36.1990 C   0  0  0  0  0  3  0  0  0  0  0  0
   32.7260   29.2920   36.1160 C   0  0  0  0  0  3  0  0  0  0  0  0
   32.0280   29.4550   34.8030 C   0  0  0  0  0  0  0  0  0  0  0  0
   32.8050   29.7820   34.0750 H   0  0  0  0  0  0  0  0  0  0  0  0
   31.5510   28.5090   34.5150 H   0  0  0  0  0  0  0  0  0  0  0  0
   30.1720   30.0500   32.4440 Cl  0  0  0  0  0  0  0  0  0  0  0  0
   30.1510   30.8690   33.9720 C   0  0  0  0  0  0  0  0  0  0  0  0
   31.0200   30.5440   34.9870 C   0  0  0  0  0  0  0  0  0  0  0  0
   31.0110   31.1900   36.2070 C   0  0  0  0  0  0  0  0  0  0  0  0
   31.6990   30.9290   37.0040 H   0  0  0  0  0  0  0  0  0  0  0  0
   30.0800   32.1930   36.3730 C   0  0  0  0  0  0  0  0  0  0  0  0
   30.0910   32.6940   37.3510 H   0  0  0  0  0  0  0  0  0  0  0  0
   29.1710   32.5870   35.4120 C   0  0  0  0  0  3  0  0  0  0  0  0
   29.2370   31.8890   34.2010 C   0  0  0  0  0  3  0  0  0  0  0  0
  1  6  1  0  0  0  0
  2  1  2  0  0  0  0
  2  3  1  0  0  0  0
  3  4  2  0  0  0  0
  4  5  1  0  0  0  0
  5 11  1  0  0  0  0
  6  5  2  0  0  0  0
  7  1  1  0  0  0  0
  8  3  1  0  0  0  0
  9 10  1  0  0  0  0
 10 15  1  0  0  0  0
 11 12  1  0  0  0  0
 11 10  2  0  0  0  0
 12 13  2  0  0  0  0
 13 17  1  0  0  0  0
 13 14  1  0  0  0  0
 14 18  1  0  0  0  0
 15 19  1  0  0  0  0
 15 14  2  0  0  0  0
 16 12  1  0  0  0  0
 20  2  1  0  0  0  0
 21 20  2  0  0  0  0
 22 27  1  0  0  0  0
 22 21  1  0  0  0  0
 23 22  1  0  0  0  0
 24 22  1  0  0  0  0
 25 26  1  0  0  0  0
 26 33  2  0  0  0  0
 26 27  1  0  0  0  0
 27 28  2  0  0  0  0
 28 30  1  0  0  0  0
 28 29  1  0  0  0  0
 30 31  1  0  0  0  0
 32 30  2  0  0  0  0
 33 32  1  0  0  0  0
M  END
>  <minimizedAffinity>
-5.72641134

$$$$

 OpenBabel03252501493D

 33 35  0  0  0  0  0  0  0  0999 V2000
   36.3190   29.1500   38.3060 C   0  0  0  0  0  0  0  0  0  0  0  0
   35.0850   28.9590   38.9800 C   0  0  0  0  0  0  0  0  0  0  0  0
   35.0470   29.0660   40.3750 C   0  0  0  0  0  0  0  0  0  0  0  0
   36.2150   29.3540   41.0150 N   0  0  0  0  0  0  0  0  0  0  0  0
   37.3640   29.5290   40.3410 C   0  0  0  0  0  0  0  0  0  0  0  0
   37.3980   29.4260   39.0180 N   0  0  0  0  0  0  0  0  0  0  0  0
   36.2980   29.0560   37.2180 H   0  0  0  0  0  0  0  0  0  0  0  0
   34.1150   28.9220   40.8980 H   0  0  0  0  0  0  0  0  0  0  0  0
   38.1360   32.1380   40.8670 F   0  0  0  0  0  0  0  0  0  0  0  0
   38.9450   31.1440   41.3410 C   0  0  0  0  0  0  0  0  0  0  0  0
   38.5770   29.8360   41.0890 C   0  0  0  0  0  0  0  0  0  0  0  0
   39.3500   28.7790   41.5410 C   0  0  0  0  0  0  0  0  0  0  0  0
   40.5060   29.0720   42.2530 C   0  0  0  0  0  0  0  0  0  0  0  0
   40.8880   30.4020   42.5140 C   0  0  0  0  0  0  0  0  0  0  0  0
   40.0830   31.4530   42.0440 C   0  0  0  0  0  0  0  0  0  0  0  0
   39.1160   27.7550   41.3750 H   0  0  0  0  0  0  0  0  0  0  0  0
   41.1600   28.3290   42.6390 H   0  0  0  0  0  0  0  0  0  0  0  0
   41.7700   30.6700   43.0590 H   0  0  0  0  0  0  0  0  0  0  0  0
   40.3220   32.4780   42.2130 H   0  0  0  0  0  0  0  0  0  0  0  0
   33.8400   28.6500   38.2550 C   0  0  0  0  0  3  0  0  0  0  0  0
   33.5930   29.0690   37.0250 C   0  0  0  0  0  3  0  0  0  0  0  0
   32.3170   28.7390   36.3150 C   0  0  0  0  0  0  0  0  0  0  0  0
   32.6050   28.1610   35.4070 H   0  0  0  0  0  0  0  0  0  0  0  0
   31.6550   28.1730   36.9840 H   0  0  0  0  0  0  0  0  0  0  0  0
   30.5390   30.1410   38.3730 Cl  0  0  0  0  0  0  0  0  0  0  0  0
   30.8940   30.7320   36.7810 C   0  0  0  0  0  0  0  0  0  0  0  0
   31.7050   30.0410   35.9100 C   0  0  0  0  0  0  0  0  0  0  0  0
   31.9940   30.5020   34.6420 C   0  0  0  0  0  0  0  0  0  0  0  0
   32.6340   29.9550   33.9590 H   0  0  0  0  0  0  0  0  0  0  0  0
   31.4280   31.7040   34.2720 C   0  0  0  0  0  0  0  0  0  0  0  0
   31.6700   32.0520   33.2590 H   0  0  0  0  0  0  0  0  0  0  0  0
   30.6030   32.4640   35.0780 C   0  0  0  0  0  3  0  0  0  0  0  0
   30.3540   31.9360   36.3500 C   0  0  0  0  0  3  0  0  0  0  0  0
  1  2  2  0  0  0  0
  1  6  1  0  0  0  0
  2  3  1  0  0  0  0
  3  8  1  0  0  0  0
  3  4  2  0  0  0  0
  5  4  1  0  0  0  0
  5 11  1  0  0  0  0
  6  5  2  0  0  0  0
  7  1  1  0  0  0  0
  9 10  1  0  0  0  0
 10 15  1  0  0  0  0
 11 10  2  0  0  0  0
 11 12  1  0  0  0  0
 12 13  2  0  0  0  0
 13 14  1  0  0  0  0
 13 17  1  0  0  0  0
 14 18  1  0  0  0  0
 15 19  1  0  0  0  0
 15 14  2  0  0  0  0
 16 12  1  0  0  0  0
 20  2  1  0  0  0  0
 21 20  2  0  0  0  0
 22 24  1  0  0  0  0
 22 21  1  0  0  0  0
 23 22  1  0  0  0  0
 26 25  1  0  0  0  0
 27 22  1  0  0  0  0
 27 26  2  0  0  0  0
 28 27  1  0  0  0  0
 29 28  1  0  0  0  0
 30 28  2  0  0  0  0
 30 32  1  0  0  0  0
 31 30  1  0  0  0  0
 32 33  2  0  0  0  0
 33 26  1  0  0  0  0
M  END
>  <minimizedAffinity>
-5.66019964

$$$$

 OpenBabel03252501493D

 33 35  0  0  0  0  0  0  0  0999 V2000
   38.7690   29.1590   40.4230 C   0  0  0  0  0  0  0  0  0  0  0  0
   38.7070   28.7600   41.7840 C   0  0  0  0  0  0  0  0  0  0  0  0
   38.9800   29.7010   42.7830 C   0  0  0  0  0  0  0  0  0  0  0  0
   39.2930   30.9670   42.3860 N   0  0  0  0  0  0  0  0  0  0  0  0
   39.3410   31.3060   41.0870 C   0  0  0  0  0  0  0  0  0  0  0  0
   39.0830   30.4120   40.1400 N   0  0  0  0  0  0  0  0  0  0  0  0
   38.5490   28.3900   39.6800 H   0  0  0  0  0  0  0  0  0  0  0  0
   38.9370   29.4090   43.8200 H   0  0  0  0  0  0  0  0  0  0  0  0
   37.3950   33.1930   40.5070 F   0  0  0  0  0  0  0  0  0  0  0  0
   38.6970   33.6050   40.4470 C   0  0  0  0  0  0  0  0  0  0  0  0
   39.6820   32.6790   40.7330 C   0  0  0  0  0  0  0  0  0  0  0  0
   41.0220   33.0280   40.6900 C   0  0  0  0  0  0  0  0  0  0  0  0
   41.3460   34.3360   40.3530 C   0  0  0  0  0  0  0  0  0  0  0  0
   40.3480   35.2860   40.0600 C   0  0  0  0  0  0  0  0  0  0  0  0
   38.9980   34.9020   40.1120 C   0  0  0  0  0  0  0  0  0  0  0  0
   41.8200   32.3570   40.9000 H   0  0  0  0  0  0  0  0  0  0  0  0
   42.3440   34.6950   40.2950 H   0  0  0  0  0  0  0  0  0  0  0  0
   40.5560   36.3020   39.7960 H   0  0  0  0  0  0  0  0  0  0  0  0
   38.2010   35.5780   39.9020 H   0  0  0  0  0  0  0  0  0  0  0  0
   38.3640   27.3820   42.1770 C   0  0  0  0  0  3  0  0  0  0  0  0
   37.1360   26.8930   42.1130 C   0  0  0  0  0  3  0  0  0  0  0  0
   36.8180   25.4890   42.5220 C   0  0  0  0  0  0  0  0  0  0  0  0
   37.4480   25.2740   43.4160 H   0  0  0  0  0  0  0  0  0  0  0  0
   35.7440   25.3970   42.7310 H   0  0  0  0  0  0  0  0  0  0  0  0
   39.5150   24.0660   42.7810 Cl  0  0  0  0  0  0  0  0  0  0  0  0
   38.4330   23.9350   41.4310 C   0  0  0  0  0  0  0  0  0  0  0  0
   37.2350   24.6090   41.3880 C   0  0  0  0  0  0  0  0  0  0  0  0
   36.3670   24.5130   40.3190 C   0  0  0  0  0  0  0  0  0  0  0  0
   35.4230   25.0450   40.2900 H   0  0  0  0  0  0  0  0  0  0  0  0
   36.7550   23.6990   39.2740 C   0  0  0  0  0  0  0  0  0  0  0  0
   36.0500   23.6370   38.4340 H   0  0  0  0  0  0  0  0  0  0  0  0
   37.9370   22.9880   39.2310 C   0  0  0  0  0  3  0  0  0  0  0  0
   38.7670   23.1330   40.3480 C   0  0  0  0  0  3  0  0  0  0  0  0
  1  2  1  0  0  0  0
  2 20  1  0  0  0  0
  2  3  2  0  0  0  0
  3  8  1  0  0  0  0
  4  3  1  0  0  0  0
  5  4  2  0  0  0  0
  6  1  2  0  0  0  0
  6  5  1  0  0  0  0
  7  1  1  0  0  0  0
 10  9  1  0  0  0  0
 10 11  1  0  0  0  0
 11  5  1  0  0  0  0
 12 11  2  0  0  0  0
 12 16  1  0  0  0  0
 13 12  1  0  0  0  0
 14 15  1  0  0  0  0
 14 13  2  0  0  0  0
 15 10  2  0  0  0  0
 17 13  1  0  0  0  0
 18 14  1  0  0  0  0
 19 15  1  0  0  0  0
 21 20  2  0  0  0  0
 21 22  1  0  0  0  0
 22 24  1  0  0  0  0
 22 23  1  0  0  0  0
 26 25  1  0  0  0  0
 27 26  1  0  0  0  0
 27 22  1  0  0  0  0
 28 27  2  0  0  0  0
 29 28  1  0  0  0  0
 30 28  1  0  0  0  0
 31 30  1  0  0  0  0
 32 30  2  0  0  0  0
 32 33  1  0  0  0  0
 33 26  2  0  0  0  0
M  END
>  <minimizedAffinity>
-5.65668344

$$$$

 OpenBabel03252501493D

 33 35  0  0  0  0  0  0  0  0999 V2000
   37.4530   29.7230   42.4450 C   0  0  0  0  0  0  0  0  0  0  0  0
   36.9930   28.9850   41.3230 C   0  0  0  0  0  0  0  0  0  0  0  0
   37.7730   27.9310   40.8340 C   0  0  0  0  0  0  0  0  0  0  0  0
   38.9480   27.6690   41.4740 N   0  0  0  0  0  0  0  0  0  0  0  0
   39.3490   28.3910   42.5340 C   0  0  0  0  0  0  0  0  0  0  0  0
   38.6090   29.3900   42.9960 N   0  0  0  0  0  0  0  0  0  0  0  0
   36.8100   30.5350   42.7890 H   0  0  0  0  0  0  0  0  0  0  0  0
   37.4340   27.3640   39.9820 H   0  0  0  0  0  0  0  0  0  0  0  0
   39.6190   26.1730   44.1740 F   0  0  0  0  0  0  0  0  0  0  0  0
   40.7310   26.9450   43.9860 C   0  0  0  0  0  0  0  0  0  0  0  0
   40.6160   28.0550   43.1710 C   0  0  0  0  0  0  0  0  0  0  0  0
   41.7040   28.8820   42.9380 C   0  0  0  0  0  0  0  0  0  0  0  0
   42.9110   28.5620   43.5460 C   0  0  0  0  0  0  0  0  0  0  0  0
   43.0360   27.4320   44.3770 C   0  0  0  0  0  0  0  0  0  0  0  0
   41.9160   26.6130   44.5950 C   0  0  0  0  0  0  0  0  0  0  0  0
   41.6730   29.7490   42.3210 H   0  0  0  0  0  0  0  0  0  0  0  0
   43.7970   29.1360   43.4250 H   0  0  0  0  0  0  0  0  0  0  0  0
   43.9470   27.1520   44.8630 H   0  0  0  0  0  0  0  0  0  0  0  0
   41.9510   25.7450   45.2130 H   0  0  0  0  0  0  0  0  0  0  0  0
   35.7170   29.2950   40.6560 C   0  0  0  0  0  3  0  0  0  0  0  0
   35.2930   28.6690   39.5700 C   0  0  0  0  0  3  0  0  0  0  0  0
   33.9920   29.0090   38.9140 C   0  0  0  0  0  0  0  0  0  0  0  0
   33.2990   28.1670   39.1400 H   0  0  0  0  0  0  0  0  0  0  0  0
   33.6250   29.9720   39.2940 H   0  0  0  0  0  0  0  0  0  0  0  0
   31.5690   29.3330   37.0740 Cl  0  0  0  0  0  0  0  0  0  0  0  0
   33.2180   29.2090   36.5530 C   0  0  0  0  0  0  0  0  0  0  0  0
   34.2570   29.0640   37.4440 C   0  0  0  0  0  0  0  0  0  0  0  0
   35.5720   28.9640   37.0390 C   0  0  0  0  0  0  0  0  0  0  0  0
   36.3870   28.8510   37.7450 H   0  0  0  0  0  0  0  0  0  0  0  0
   35.8120   29.0160   35.6820 C   0  0  0  0  0  0  0  0  0  0  0  0
   36.8660   28.9340   35.3830 H   0  0  0  0  0  0  0  0  0  0  0  0
   34.8350   29.1580   34.7180 C   0  0  0  0  0  3  0  0  0  0  0  0
   33.5250   29.2540   35.1990 C   0  0  0  0  0  3  0  0  0  0  0  0
  1  7  1  0  0  0  0
  1  6  1  0  0  0  0
  2  1  2  0  0  0  0
  3  2  1  0  0  0  0
  3  4  2  0  0  0  0
  4  5  1  0  0  0  0
  5  6  2  0  0  0  0
  5 11  1  0  0  0  0
  8  3  1  0  0  0  0
 10  9  1  0  0  0  0
 10 15  1  0  0  0  0
 11 10  2  0  0  0  0
 12 11  1  0  0  0  0
 12 13  2  0  0  0  0
 13 14  1  0  0  0  0
 14 15  2  0  0  0  0
 14 18  1  0  0  0  0
 15 19  1  0  0  0  0
 16 12  1  0  0  0  0
 17 13  1  0  0  0  0
 20  2  1  0  0  0  0
 21 20  2  0  0  0  0
 22 23  1  0  0  0  0
 22 24  1  0  0  0  0
 22 21  1  0  0  0  0
 26 25  1  0  0  0  0
 26 27  1  0  0  0  0
 27 22  1  0  0  0  0
 28 27  2  0  0  0  0
 28 29  1  0  0  0  0
 30 28  1  0  0  0  0
 31 30  1  0  0  0  0
 32 33  1  0  0  0  0
 32 30  2  0  0  0  0
 33 26  2  0  0  0  0
M  END
>  <minimizedAffinity>
-5.47109795

$$$$

 OpenBabel03252501493D

 33 35  0  0  0  0  0  0  0  0999 V2000
   37.5540   30.7310   38.2990 C   0  0  0  0  0  0  0  0  0  0  0  0
   36.5350   30.5170   39.2640 C   0  0  0  0  0  0  0  0  0  0  0  0
   36.6170   31.1710   40.4980 C   0  0  0  0  0  0  0  0  0  0  0  0
   37.6870   31.9910   40.7050 N   0  0  0  0  0  0  0  0  0  0  0  0
   38.6310   32.1680   39.7650 C   0  0  0  0  0  0  0  0  0  0  0  0
   38.5520   31.5460   38.5960 N   0  0  0  0  0  0  0  0  0  0  0  0
   37.4460   30.1980   37.3520 H   0  0  0  0  0  0  0  0  0  0  0  0
   35.8500   31.0160   41.2400 H   0  0  0  0  0  0  0  0  0  0  0  0
   38.3120   34.9190   39.8840 F   0  0  0  0  0  0  0  0  0  0  0  0
   39.5680   34.4290   40.1080 C   0  0  0  0  0  0  0  0  0  0  0  0
   39.7480   33.0600   40.0530 C   0  0  0  0  0  0  0  0  0  0  0  0
   40.9950   32.4960   40.2700 C   0  0  0  0  0  0  0  0  0  0  0  0
   42.0580   33.3460   40.5430 C   0  0  0  0  0  0  0  0  0  0  0  0
   41.8840   34.7420   40.6010 C   0  0  0  0  0  0  0  0  0  0  0  0
   40.6080   35.2850   40.3770 C   0  0  0  0  0  0  0  0  0  0  0  0
   41.1900   31.4500   40.2390 H   0  0  0  0  0  0  0  0  0  0  0  0
   43.0490   33.0050   40.7230 H   0  0  0  0  0  0  0  0  0  0  0  0
   42.6770   35.4300   40.8080 H   0  0  0  0  0  0  0  0  0  0  0  0
   40.4160   36.3330   40.4090 H   0  0  0  0  0  0  0  0  0  0  0  0
   35.3920   29.6240   39.0060 C   0  0  0  0  0  3  0  0  0  0  0  0
   35.0850   29.1660   37.8030 C   0  0  0  0  0  3  0  0  0  0  0  0
   33.9150   28.2620   37.5720 C   0  0  0  0  0  0  0  0  0  0  0  0
   34.2990   27.4000   36.9790 H   0  0  0  0  0  0  0  0  0  0  0  0
   33.4880   27.9540   38.5360 H   0  0  0  0  0  0  0  0  0  0  0  0
   34.3730   28.3500   34.5480 Cl  0  0  0  0  0  0  0  0  0  0  0  0
   33.0690   29.1220   35.3910 C   0  0  0  0  0  0  0  0  0  0  0  0
   32.9310   29.0370   36.7580 C   0  0  0  0  0  0  0  0  0  0  0  0
   31.8970   29.6480   37.4380 C   0  0  0  0  0  0  0  0  0  0  0  0
   31.7920   29.5770   38.5150 H   0  0  0  0  0  0  0  0  0  0  0  0
   30.9900   30.3620   36.6830 C   0  0  0  0  0  0  0  0  0  0  0  0
   30.1760   30.8400   37.2450 H   0  0  0  0  0  0  0  0  0  0  0  0
   31.0500   30.5020   35.3110 C   0  0  0  0  0  3  0  0  0  0  0  0
   32.1240   29.8560   34.6870 C   0  0  0  0  0  3  0  0  0  0  0  0
  1  6  2  0  0  0  0
  1  2  1  0  0  0  0
  2  3  2  0  0  0  0
  3  4  1  0  0  0  0
  3  8  1  0  0  0  0
  5 11  1  0  0  0  0
  5  4  2  0  0  0  0
  6  5  1  0  0  0  0
  7  1  1  0  0  0  0
  9 10  1  0  0  0  0
 10 15  1  0  0  0  0
 11 10  2  0  0  0  0
 11 12  1  0  0  0  0
 12 13  2  0  0  0  0
 13 14  1  0  0  0  0
 13 17  1  0  0  0  0
 14 18  1  0  0  0  0
 15 19  1  0  0  0  0
 15 14  2  0  0  0  0
 16 12  1  0  0  0  0
 20  2  1  0  0  0  0
 21 20  2  0  0  0  0
 22 21  1  0  0  0  0
 22 24  1  0  0  0  0
 23 22  1  0  0  0  0
 25 26  1  0  0  0  0
 26 27  1  0  0  0  0
 27 28  2  0  0  0  0
 27 22  1  0  0  0  0
 28 29  1  0  0  0  0
 30 31  1  0  0  0  0
 30 28  1  0  0  0  0
 32 30  2  0  0  0  0
 33 32  1  0  0  0  0
 33 26  2  0  0  0  0
M  END
>  <minimizedAffinity>
-5.42735147

$$$$

 OpenBabel03252501493D

 33 35  0  0  0  0  0  0  0  0999 V2000
   34.2960   29.1270   39.1370 C   0  0  0  0  0  0  0  0  0  0  0  0
   34.8460   28.8030   37.8690 C   0  0  0  0  0  0  0  0  0  0  0  0
   36.1460   28.2900   37.8010 C   0  0  0  0  0  0  0  0  0  0  0  0
   36.8200   28.1280   38.9760 N   0  0  0  0  0  0  0  0  0  0  0  0
   36.2650   28.4470   40.1560 C   0  0  0  0  0  0  0  0  0  0  0  0
   35.0320   28.9340   40.2190 N   0  0  0  0  0  0  0  0  0  0  0  0
   33.2790   29.5240   39.1380 H   0  0  0  0  0  0  0  0  0  0  0  0
   36.5750   28.0400   36.8440 H   0  0  0  0  0  0  0  0  0  0  0  0
   36.7230   25.9210   41.2010 F   0  0  0  0  0  0  0  0  0  0  0  0
   37.2600   26.9800   41.8790 C   0  0  0  0  0  0  0  0  0  0  0  0
   37.0420   28.2480   41.3740 C   0  0  0  0  0  0  0  0  0  0  0  0
   37.5570   29.3660   42.0100 C   0  0  0  0  0  0  0  0  0  0  0  0
   38.2970   29.1750   43.1700 C   0  0  0  0  0  0  0  0  0  0  0  0
   38.5230   27.8870   43.6910 C   0  0  0  0  0  0  0  0  0  0  0  0
   37.9880   26.7720   43.0230 C   0  0  0  0  0  0  0  0  0  0  0  0
   37.4200   30.3640   41.6670 H   0  0  0  0  0  0  0  0  0  0  0  0
   38.7300   29.9710   43.7250 H   0  0  0  0  0  0  0  0  0  0  0  0
   39.0870   27.6980   44.5810 H   0  0  0  0  0  0  0  0  0  0  0  0
   38.1280   25.7740   43.3710 H   0  0  0  0  0  0  0  0  0  0  0  0
   34.0880   28.9890   36.6200 C   0  0  0  0  0  3  0  0  0  0  0  0
   32.7660   29.0070   36.5680 C   0  0  0  0  0  3  0  0  0  0  0  0
   32.0240   29.1970   35.2820 C   0  0  0  0  0  0  0  0  0  0  0  0
   32.7490   29.6490   34.5670 H   0  0  0  0  0  0  0  0  0  0  0  0
   31.6330   28.2310   34.9330 H   0  0  0  0  0  0  0  0  0  0  0  0
   29.3640   28.0360   36.2520 Cl  0  0  0  0  0  0  0  0  0  0  0  0
   29.6970   29.7200   36.0040 C   0  0  0  0  0  0  0  0  0  0  0  0
   30.9220   30.1650   35.5640 C   0  0  0  0  0  0  0  0  0  0  0  0
   31.1960   31.5030   35.3640 C   0  0  0  0  0  0  0  0  0  0  0  0
   32.1640   31.8490   35.0170 H   0  0  0  0  0  0  0  0  0  0  0  0
   30.1760   32.3940   35.6250 C   0  0  0  0  0  0  0  0  0  0  0  0
   30.4170   33.4530   35.4580 H   0  0  0  0  0  0  0  0  0  0  0  0
   28.9180   32.0380   36.0680 C   0  0  0  0  0  3  0  0  0  0  0  0
   28.7110   30.6670   36.2490 C   0  0  0  0  0  3  0  0  0  0  0  0
  1  7  1  0  0  0  0
  1  6  1  0  0  0  0
  2  1  2  0  0  0  0
  3  2  1  0  0  0  0
  3  4  2  0  0  0  0
  4  5  1  0  0  0  0
  5  6  2  0  0  0  0
  5 11  1  0  0  0  0
  8  3  1  0  0  0  0
  9 10  1  0  0  0  0
 10 15  1  0  0  0  0
 11 10  2  0  0  0  0
 11 12  1  0  0  0  0
 12 13  2  0  0  0  0
 13 14  1  0  0  0  0
 13 17  1  0  0  0  0
 14 18  1  0  0  0  0
 15 19  1  0  0  0  0
 15 14  2  0  0  0  0
 16 12  1  0  0  0  0
 20  2  1  0  0  0  0
 21 20  2  0  0  0  0
 22 27  1  0  0  0  0
 22 21  1  0  0  0  0
 23 22  1  0  0  0  0
 24 22  1  0  0  0  0
 26 33  1  0  0  0  0
 26 25  1  0  0  0  0
 27 26  2  0  0  0  0
 28 27  1  0  0  0  0
 28 30  2  0  0  0  0
 29 28  1  0  0  0  0
 30 32  1  0  0  0  0
 31 30  1  0  0  0  0
 32 33  2  0  0  0  0
M  END
>  <minimizedAffinity>
-5.38971519

$$$$

 OpenBabel03252501493D

 33 35  0  0  0  0  0  0  0  0999 V2000
   36.8570   28.4060   42.1400 C   0  0  0  0  0  0  0  0  0  0  0  0
   37.6520   27.4410   41.4660 C   0  0  0  0  0  0  0  0  0  0  0  0
   38.5650   27.8680   40.4960 C   0  0  0  0  0  0  0  0  0  0  0  0
   38.6420   29.2070   40.2510 N   0  0  0  0  0  0  0  0  0  0  0  0
   37.8730   30.0890   40.9110 C   0  0  0  0  0  0  0  0  0  0  0  0
   37.0060   29.6820   41.8290 N   0  0  0  0  0  0  0  0  0  0  0  0
   36.1590   28.0240   42.8880 H   0  0  0  0  0  0  0  0  0  0  0  0
   39.1740   27.1440   39.9770 H   0  0  0  0  0  0  0  0  0  0  0  0
   36.1900   31.3570   39.1090 F   0  0  0  0  0  0  0  0  0  0  0  0
   37.1580   32.1210   39.6980 C   0  0  0  0  0  0  0  0  0  0  0  0
   38.0070   31.5070   40.5990 C   0  0  0  0  0  0  0  0  0  0  0  0
   39.0110   32.2220   41.2320 C   0  0  0  0  0  0  0  0  0  0  0  0
   39.1390   33.5730   40.9350 C   0  0  0  0  0  0  0  0  0  0  0  0
   38.2770   34.2060   40.0180 C   0  0  0  0  0  0  0  0  0  0  0  0
   37.2690   33.4540   39.3920 C   0  0  0  0  0  0  0  0  0  0  0  0
   39.6920   31.8020   41.9330 H   0  0  0  0  0  0  0  0  0  0  0  0
   39.8770   34.2010   41.3700 H   0  0  0  0  0  0  0  0  0  0  0  0
   38.3430   35.2430   39.7620 H   0  0  0  0  0  0  0  0  0  0  0  0
   36.5880   33.8800   38.6910 H   0  0  0  0  0  0  0  0  0  0  0  0
   37.5430   26.0010   41.7580 C   0  0  0  0  0  3  0  0  0  0  0  0
   37.6630   25.0620   40.8340 C   0  0  0  0  0  3  0  0  0  0  0  0
   37.5450   23.6060   41.1610 C   0  0  0  0  0  0  0  0  0  0  0  0
   38.5800   23.1940   41.1290 H   0  0  0  0  0  0  0  0  0  0  0  0
   37.0720   23.4840   42.1440 H   0  0  0  0  0  0  0  0  0  0  0  0
   38.5140   20.9350   40.0260 Cl  0  0  0  0  0  0  0  0  0  0  0  0
   37.0940   21.7890   39.5150 C   0  0  0  0  0  0  0  0  0  0  0  0
   36.7230   22.9900   40.0760 C   0  0  0  0  0  0  0  0  0  0  0  0
   35.5950   23.6780   39.6770 C   0  0  0  0  0  0  0  0  0  0  0  0
   35.3060   24.6230   40.1220 H   0  0  0  0  0  0  0  0  0  0  0  0
   34.8390   23.1050   38.6750 C   0  0  0  0  0  0  0  0  0  0  0  0
   33.9460   23.6700   38.3730 H   0  0  0  0  0  0  0  0  0  0  0  0
   35.1340   21.9070   38.0560 C   0  0  0  0  0  3  0  0  0  0  0  0
   36.2910   21.2650   38.5110 C   0  0  0  0  0  3  0  0  0  0  0  0
  1  7  1  0  0  0  0
  2 20  1  0  0  0  0
  2  1  2  0  0  0  0
  3  2  1  0  0  0  0
  4  3  2  0  0  0  0
  4  5  1  0  0  0  0
  5  6  2  0  0  0  0
  6  1  1  0  0  0  0
  8  3  1  0  0  0  0
  9 10  1  0  0  0  0
 10 11  1  0  0  0  0
 11  5  1  0  0  0  0
 11 12  2  0  0  0  0
 12 16  1  0  0  0  0
 13 12  1  0  0  0  0
 13 17  1  0  0  0  0
 14 13  2  0  0  0  0
 15 10  2  0  0  0  0
 15 14  1  0  0  0  0
 18 14  1  0  0  0  0
 19 15  1  0  0  0  0
 21 22  1  0  0  0  0
 21 20  2  0  0  0  0
 22 24  1  0  0  0  0
 23 22  1  0  0  0  0
 26 25  1  0  0  0  0
 26 27  1  0  0  0  0
 27 22  1  0  0  0  0
 28 27  2  0  0  0  0
 28 29  1  0  0  0  0
 30 28  1  0  0  0  0
 31 30  1  0  0  0  0
 32 33  1  0  0  0  0
 32 30  2  0  0  0  0
 33 26  2  0  0  0  0
M  END
>  <minimizedAffinity>
-5.32591534

$$$$

 OpenBabel03252501493D

 33 35  0  0  0  0  0  0  0  0999 V2000
   37.4890   30.3590   40.3240 C   0  0  0  0  0  0  0  0  0  0  0  0
   38.6650   30.7310   41.0260 C   0  0  0  0  0  0  0  0  0  0  0  0
   39.3880   29.7500   41.7130 C   0  0  0  0  0  0  0  0  0  0  0  0
   38.9140   28.4720   41.6660 N   0  0  0  0  0  0  0  0  0  0  0  0
   37.7960   28.1590   40.9900 C   0  0  0  0  0  0  0  0  0  0  0  0
   37.1110   29.0920   40.3400 N   0  0  0  0  0  0  0  0  0  0  0  0
   36.9590   31.1600   39.8040 H   0  0  0  0  0  0  0  0  0  0  0  0
   40.2820   30.0210   42.2510 H   0  0  0  0  0  0  0  0  0  0  0  0
   37.5810   26.6770   43.3220 F   0  0  0  0  0  0  0  0  0  0  0  0
   37.2460   26.0500   42.1550 C   0  0  0  0  0  0  0  0  0  0  0  0
   37.3470   26.7720   40.9810 C   0  0  0  0  0  0  0  0  0  0  0  0
   37.0240   26.1990   39.7610 C   0  0  0  0  0  0  0  0  0  0  0  0
   36.5960   24.8780   39.7540 C   0  0  0  0  0  0  0  0  0  0  0  0
   36.4910   24.1340   40.9450 C   0  0  0  0  0  0  0  0  0  0  0  0
   36.8250   24.7430   42.1660 C   0  0  0  0  0  0  0  0  0  0  0  0
   37.0830   26.7070   38.8290 H   0  0  0  0  0  0  0  0  0  0  0  0
   36.3260   24.3550   38.8690 H   0  0  0  0  0  0  0  0  0  0  0  0
   36.1660   23.1150   40.9820 H   0  0  0  0  0  0  0  0  0  0  0  0
   36.7640   24.2300   43.0990 H   0  0  0  0  0  0  0  0  0  0  0  0
   39.1480   32.1220   41.0550 C   0  0  0  0  0  3  0  0  0  0  0  0
   40.2430   32.5240   40.4290 C   0  0  0  0  0  3  0  0  0  0  0  0
   40.7100   33.9450   40.4790 C   0  0  0  0  0  0  0  0  0  0  0  0
   39.9310   34.5480   39.9570 H   0  0  0  0  0  0  0  0  0  0  0  0
   40.8520   34.2530   41.5230 H   0  0  0  0  0  0  0  0  0  0  0  0
   43.3070   33.7590   42.0860 Cl  0  0  0  0  0  0  0  0  0  0  0  0
   43.1990   33.9230   40.3630 C   0  0  0  0  0  0  0  0  0  0  0  0
   41.9900   34.0010   39.7110 C   0  0  0  0  0  0  0  0  0  0  0  0
   41.8940   34.1310   38.3400 C   0  0  0  0  0  0  0  0  0  0  0  0
   40.9390   34.1920   37.8300 H   0  0  0  0  0  0  0  0  0  0  0  0
   43.0780   34.1820   37.6350 C   0  0  0  0  0  0  0  0  0  0  0  0
   42.9780   34.2870   36.5460 H   0  0  0  0  0  0  0  0  0  0  0  0
   44.3340   34.1120   38.2040 C   0  0  0  0  0  3  0  0  0  0  0  0
   44.3560   33.9800   39.5970 C   0  0  0  0  0  3  0  0  0  0  0  0
  1  6  2  0  0  0  0
  1  2  1  0  0  0  0
  2 20  1  0  0  0  0
  2  3  2  0  0  0  0
  3  8  1  0  0  0  0
  4  3  1  0  0  0  0
  5  4  2  0  0  0  0
  6  5  1  0  0  0  0
  7  1  1  0  0  0  0
 10 15  1  0  0  0  0
 10  9  1  0  0  0  0
 11  5  1  0  0  0  0
 11 10  2  0  0  0  0
 12 11  1  0  0  0  0
 13 12  2  0  0  0  0
 13 14  1  0  0  0  0
 14 18  1  0  0  0  0
 14 15  2  0  0  0  0
 15 19  1  0  0  0  0
 16 12  1  0  0  0  0
 17 13  1  0  0  0  0
 21 22  1  0  0  0  0
 21 20  2  0  0  0  0
 22 24  1  0  0  0  0
 23 22  1  0  0  0  0
 26 25  1  0  0  0  0
 27 26  1  0  0  0  0
 27 22  1  0  0  0  0
 28 27  2  0  0  0  0
 29 28  1  0  0  0  0
 30 32  2  0  0  0  0
 30 28  1  0  0  0  0
 31 30  1  0  0  0  0
 32 33  1  0  0  0  0
 33 26  2  0  0  0  0
M  END
>  <minimizedAffinity>
-5.28581238

$$$$
