
 OpenBabel03242520263D

 38 40  0  0  0  0  0  0  0  0999 V2000
   45.1880   35.6480   43.4570 C   0  0  0  0  0  0  0  0  0  0  0  0
   46.0340   34.4960   43.4080 C   0  0  0  0  0  0  0  0  0  0  0  0
   46.1250   33.7200   44.5570 C   0  0  0  0  0  0  0  0  0  0  0  0
   45.4050   34.0920   45.6660 N   0  0  0  0  0  0  0  0  0  0  0  0
   44.6220   35.1760   45.6790 C   0  0  0  0  0  0  0  0  0  0  0  0
   44.5120   35.9510   44.5810 N   0  0  0  0  0  0  0  0  0  0  0  0
   45.0680   36.2930   42.6100 H   0  0  0  0  0  0  0  0  0  0  0  0
   44.1500   35.2860   46.6440 H   0  0  0  0  0  0  0  0  0  0  0  0
   46.6920   34.2730   42.1890 N   0  0  0  0  0  0  0  0  0  0  0  0
   47.8820   34.9910   41.7790 C   0  0  0  0  0  0  0  0  0  0  0  0
   48.4020   34.4100   40.4960 C   0  0  0  0  0  0  0  0  0  0  0  0
   47.4150   34.3280   39.4690 N   0  0  0  0  0  0  0  0  0  0  0  0
   46.1950   33.6940   39.8670 C   0  0  0  0  0  0  0  0  0  0  0  0
   46.1390   33.2590   41.2940 C   0  0  0  0  0  0  0  0  0  0  0  0
   48.6390   34.8180   42.5700 H   0  0  0  0  0  0  0  0  0  0  0  0
   47.7170   36.0810   41.7110 H   0  0  0  0  0  0  0  0  0  0  0  0
   48.7650   33.3700   40.7100 H   0  0  0  0  0  0  0  0  0  0  0  0
   49.2670   34.9670   40.1230 H   0  0  0  0  0  0  0  0  0  0  0  0
   47.1510   35.3260   39.2180 H   0  0  0  0  0  0  0  0  0  0  0  0
   45.2810   34.2880   39.6300 H   0  0  0  0  0  0  0  0  0  0  0  0
   46.0970   32.7770   39.2480 H   0  0  0  0  0  0  0  0  0  0  0  0
   45.0660   33.0660   41.5450 H   0  0  0  0  0  0  0  0  0  0  0  0
   46.6780   32.3110   41.4690 H   0  0  0  0  0  0  0  0  0  0  0  0
   46.9440   32.6180   44.4860 O   0  0  0  0  0  0  0  0  0  0  0  0
   44.8750   31.1750   43.6980 O   0  0  0  0  0  0  0  0  0  0  0  0
   46.2230   31.0470   44.3890 P   0  0  1  0  0  0  0  0  0  0  0  0
   47.2600   30.0650   43.5190 O   0  0  0  0  0  0  0  0  0  0  0  0
   48.1560   30.1510   43.9140 H   0  0  0  0  0  0  0  0  0  0  0  0
   46.0020   30.5200   45.9690 O   0  0  0  0  0  0  0  0  0  0  0  0
   44.8920   31.8320   48.3110 Cl  0  0  0  0  0  0  0  0  0  0  0  0
   46.4870   31.1050   48.1300 C   0  0  0  0  0  0  0  0  0  0  0  0
   46.9620   30.4850   46.9680 C   0  0  0  0  0  0  0  0  0  0  0  0
   48.2340   29.9560   46.9660 C   0  0  0  0  0  0  0  0  0  0  0  0
   48.4920   29.5110   46.0340 H   0  0  0  0  0  0  0  0  0  0  0  0
   49.0060   30.0490   48.1010 C   0  0  0  0  0  0  0  0  0  0  0  0
   50.0000   29.6200   48.0510 H   0  0  0  0  0  0  0  0  0  0  0  0
   48.5860   30.6460   49.2590 C   0  0  0  0  0  0  0  0  0  0  0  0
   47.3110   31.1730   49.2560 C   0  0  0  0  0  0  0  0  0  0  0  0
  1  6  1  0  0  0  0
  2  1  2  0  0  0  0
  2  3  1  0  0  0  0
  3  4  2  0  0  0  0
  4  5  1  0  0  0  0
  5  8  1  0  0  0  0
  6  5  2  0  0  0  0
  7  1  1  0  0  0  0
  9  2  1  0  0  0  0
 10  9  1  0  0  0  0
 10 15  1  0  0  0  0
 11 17  1  0  0  0  0
 11 10  1  0  0  0  0
 12 13  1  0  0  0  0
 12 11  1  0  0  0  0
 13 14  1  0  0  0  0
 14 23  1  0  0  0  0
 14 22  1  0  0  0  0
 14  9  1  0  0  0  0
 16 10  1  0  0  0  0
 18 11  1  0  0  0  0
 19 12  1  0  0  0  0
 20 13  1  0  0  0  0
 21 13  1  0  0  0  0
 24  3  1  0  0  0  0
 26 25  2  6  0  0  0
 26 24  1  0  0  0  0
 26 29  1  0  0  0  0
 27 28  1  0  0  0  0
 27 26  1  0  0  0  0
 29 32  1  0  0  0  0
 31 30  1  0  0  0  0
 31 38  1  0  0  0  0
 32 31  2  0  0  0  0
 33 32  1  0  0  0  0
 33 35  2  0  0  0  0
 34 33  1  0  0  0  0
 35 37  1  0  0  0  0
 36 35  1  0  0  0  0
 38 37  2  0  0  0  0
M  END
>  <minimizedAffinity>
-5.41902781

>  <minimizedRMSD>
2.10495329

$$$$
