
 OpenBabel03252509283D

 21 22  0  0  0  0  0  0  0  0999 V2000
   46.9450   34.9380   41.9050 C   0  0  0  0  0  0  0  0  0  0  0  0
   48.0220   34.6750   42.0480 H   0  0  0  0  0  0  0  0  0  0  0  0
   46.9780   35.9620   41.4750 H   0  0  0  0  0  0  0  0  0  0  0  0
   44.5620   36.0350   44.5670 C   0  0  0  0  0  0  0  0  0  0  0  0
   45.2980   36.0160   43.3640 C   0  0  0  0  0  0  0  0  0  0  0  0
   46.1880   34.9490   43.1570 C   0  0  0  0  0  0  0  0  0  0  0  0
   46.2890   33.9910   44.1300 N   0  0  0  0  0  0  0  0  0  0  0  0
   45.5620   34.0530   45.2650 C   0  0  0  0  0  0  0  0  0  0  0  0
   44.7070   35.0660   45.4780 N   0  0  0  0  0  0  0  0  0  0  0  0
   43.9000   36.9120   44.6220 H   0  0  0  0  0  0  0  0  0  0  0  0
   45.2050   36.7810   42.6080 H   0  0  0  0  0  0  0  0  0  0  0  0
   45.6200   33.3120   46.0500 H   0  0  0  0  0  0  0  0  0  0  0  0
   49.0150   33.1010   40.7160 Cl  0  0  0  0  0  0  0  0  0  0  0  0
   47.2980   33.1800   40.3190 C   0  0  0  0  0  0  0  0  0  0  0  0
   46.3440   34.0380   40.8750 C   0  0  0  0  0  0  0  0  0  0  0  0
   45.0430   33.9510   40.4300 C   0  0  0  0  0  0  0  0  0  0  0  0
   44.3950   34.6570   40.9260 H   0  0  0  0  0  0  0  0  0  0  0  0
   44.6780   33.0550   39.4700 C   0  0  0  0  0  0  0  0  0  0  0  0
   43.6170   33.0620   39.1820 H   0  0  0  0  0  0  0  0  0  0  0  0
   45.6070   32.1810   38.8910 C   0  0  0  0  0  3  0  0  0  0  0  0
   46.9100   32.2650   39.3340 C   0  0  0  0  0  3  0  0  0  0  0  0
  1  2  1  0  0  0  0
  1  6  1  0  0  0  0
  3  1  1  0  0  0  0
  4 10  1  0  0  0  0
  4  9  1  0  0  0  0
  5  4  2  0  0  0  0
  6  5  1  0  0  0  0
  6  7  2  0  0  0  0
  7  8  1  0  0  0  0
  8  9  2  0  0  0  0
  8 12  1  0  0  0  0
 11  5  1  0  0  0  0
 14 13  1  0  0  0  0
 14 15  1  0  0  0  0
 15  1  1  0  0  0  0
 16 15  2  0  0  0  0
 16 17  1  0  0  0  0
 18 16  1  0  0  0  0
 19 18  1  0  0  0  0
 20 21  1  0  0  0  0
 20 18  2  0  0  0  0
 21 14  2  0  0  0  0
M  END
>  <minimizedAffinity>
-4.01515245

>  <minimizedRMSD>
0.137726888

$$$$
