
 OpenBabel03242521153D

 34 36  0  0  0  0  0  0  0  0999 V2000
   44.6070   35.4040   44.9640 C   0  0  0  0  0  0  0  0  0  0  0  0
   45.1830   35.4350   43.6690 C   0  0  0  0  0  0  0  0  0  0  0  0
   46.2210   34.5570   43.4100 C   0  0  0  0  0  0  0  0  0  0  0  0
   46.6350   33.7050   44.4180 N   0  0  0  0  0  0  0  0  0  0  0  0
   46.0590   33.7140   45.6220 C   0  0  0  0  0  0  0  0  0  0  0  0
   45.0360   34.5620   45.9160 N   0  0  0  0  0  0  0  0  0  0  0  0
   43.7880   36.0610   45.2450 H   0  0  0  0  0  0  0  0  0  0  0  0
   44.8000   36.1330   42.9380 H   0  0  0  0  0  0  0  0  0  0  0  0
   46.8060   34.5720   42.1300 N   0  0  0  0  0  0  0  0  0  0  0  0
   47.9720   35.2030   41.9550 C   0  0  0  0  0  0  0  0  0  0  0  0
   48.5580   35.2190   40.6910 C   0  0  0  0  0  0  0  0  0  0  0  0
   47.9040   34.5790   39.6730 C   0  0  0  0  0  0  0  0  0  0  0  0
   48.4420   34.5940   38.5230 O   0  0  0  0  0  0  0  0  0  0  0  0
   46.7250   33.9320   39.8150 N   0  0  0  0  0  0  0  0  0  0  0  0
   46.2240   33.9620   41.0650 C   0  0  0  0  0  0  0  0  0  0  0  0
   45.1320   33.3930   41.3160 O   0  0  0  0  0  0  0  0  0  0  0  0
   48.4640   35.6990   42.7770 H   0  0  0  0  0  0  0  0  0  0  0  0
   49.5030   35.7300   40.5480 H   0  0  0  0  0  0  0  0  0  0  0  0
   46.2170   33.4420   39.0470 H   0  0  0  0  0  0  0  0  0  0  0  0
   46.6970   32.7000   46.5140 C   0  0  0  0  0  0  0  0  0  0  0  0
   47.5380   33.0850   47.0930 H   0  0  0  0  0  0  0  0  0  0  0  0
   47.0680   31.8820   45.8360 H   0  0  0  0  0  0  0  0  0  0  0  0
   45.6600   32.0440   47.4100 C   0  0  0  0  0  0  0  0  0  0  0  0
   45.8770   32.3610   48.4690 H   0  0  0  0  0  0  0  0  0  0  0  0
   44.6630   32.4080   47.1060 H   0  0  0  0  0  0  0  0  0  0  0  0
   48.0530   30.5170   48.5450 Cl  0  0  0  0  0  0  0  0  0  0  0  0
   46.6870   29.7880   47.7750 C   0  0  0  0  0  0  0  0  0  0  0  0
   45.6520   30.5680   47.2940 C   0  0  0  0  0  0  0  0  0  0  0  0
   44.5850   29.9100   46.6850 C   0  0  0  0  0  0  0  0  0  0  0  0
   43.7710   30.5470   46.3080 H   0  0  0  0  0  0  0  0  0  0  0  0
   44.4830   28.5550   46.5290 C   0  0  0  0  0  0  0  0  0  0  0  0
   43.6200   28.1400   46.0470 H   0  0  0  0  0  0  0  0  0  0  0  0
   45.5100   27.7760   47.0070 C   0  0  0  0  0  0  0  0  0  0  0  0
   46.5760   28.4180   47.6130 C   0  0  0  0  0  0  0  0  0  0  0  0
  1  7  1  0  0  0  0
  1  6  1  0  0  0  0
  2  1  2  0  0  0  0
  3  2  1  0  0  0  0
  3  4  2  0  0  0  0
  4  5  1  0  0  0  0
  5  6  2  0  0  0  0
  5 20  1  0  0  0  0
  8  2  1  0  0  0  0
  9  3  1  0  0  0  0
 10  9  1  0  0  0  0
 10 17  1  0  0  0  0
 11 10  2  0  0  0  0
 12 14  1  0  0  0  0
 12 11  1  0  0  0  0
 13 12  2  0  0  0  0
 14 15  1  0  0  0  0
 15 16  2  0  0  0  0
 15  9  1  0  0  0  0
 18 11  1  0  0  0  0
 19 14  1  0  0  0  0
 20 21  1  0  0  0  0
 20 23  1  0  0  0  0
 22 20  1  0  0  0  0
 23 24  1  0  0  0  0
 25 23  1  0  0  0  0
 27 26  1  0  0  0  0
 28 23  1  0  0  0  0
 28 27  2  0  0  0  0
 29 28  1  0  0  0  0
 30 29  1  0  0  0  0
 31 29  2  0  0  0  0
 31 33  1  0  0  0  0
 32 31  1  0  0  0  0
 33 34  2  0  0  0  0
 34 27  1  0  0  0  0
M  END
>  <minimizedAffinity>
-5.95572996

>  <minimizedRMSD>
1.64669418

$$$$
