
 OpenBabel03252508463D

 45 47  0  0  0  0  0  0  0  0999 V2000
   42.6850   31.4350   42.5720 N   0  0  0  0  0  0  0  0  0  0  0  0
   42.9890   31.6360   43.5530 H   0  0  0  0  0  0  0  0  0  0  0  0
   43.0080   32.4850   41.6630 C   0  0  0  0  0  0  0  0  0  0  0  0
   42.0530   32.9730   41.3080 H   0  0  0  0  0  0  0  0  0  0  0  0
   43.4710   32.1110   40.7080 H   0  0  0  0  0  0  0  0  0  0  0  0
   43.6770   34.8850   41.8990 C   0  0  0  0  0  0  0  0  0  0  0  0
   43.8940   33.5510   42.2100 C   0  0  0  0  0  0  0  0  0  0  0  0
   44.9470   33.2360   43.0360 C   0  0  0  0  0  0  0  0  0  0  0  0
   45.7510   34.2180   43.5310 C   0  0  0  0  0  0  0  0  0  0  0  0
   45.5570   35.5510   43.2370 C   0  0  0  0  0  0  0  0  0  0  0  0
   44.4870   35.8280   42.4020 C   0  0  0  0  0  0  0  0  0  0  0  0
   45.0830   32.1780   43.2550 H   0  0  0  0  0  0  0  0  0  0  0  0
   46.5660   33.8940   44.1800 H   0  0  0  0  0  0  0  0  0  0  0  0
   46.2130   36.3080   43.6450 H   0  0  0  0  0  0  0  0  0  0  0  0
   44.3090   36.8710   42.1520 H   0  0  0  0  0  0  0  0  0  0  0  0
   40.2580   35.7820   40.5390 C   0  0  0  0  0  0  0  0  0  0  0  0
   41.2800   35.5430   41.4790 C   0  0  0  0  0  0  0  0  0  0  0  0
   42.5400   35.1610   41.0170 C   0  0  0  0  0  0  0  0  0  0  0  0
   42.7030   35.0410   39.6760 N   0  0  0  0  0  0  0  0  0  0  0  0
   41.6990   35.2780   38.7880 C   0  0  0  0  0  0  0  0  0  0  0  0
   40.4930   35.6450   39.2390 N   0  0  0  0  0  0  0  0  0  0  0  0
   39.3110   36.0730   40.9440 H   0  0  0  0  0  0  0  0  0  0  0  0
   41.1470   35.6400   42.5600 H   0  0  0  0  0  0  0  0  0  0  0  0
   41.9820   35.1420   37.7520 H   0  0  0  0  0  0  0  0  0  0  0  0
   40.9970   31.0900   42.6160 S   0  0  0  0  0  0  0  0  0  0  0  0
   40.1780   32.3440   42.4530 O   0  0  0  0  0  0  0  0  0  0  0  0
   39.4270   32.4700   41.8150 H   0  0  0  0  0  0  0  0  0  0  0  0
   40.6190   30.3850   43.8640 O   0  0  0  0  0  0  0  0  0  0  0  0
   39.8790   30.6510   44.4320 H   0  0  0  0  0  0  0  0  0  0  0  0
   40.6740   30.0850   41.3000 O   0  0  0  0  0  0  0  0  0  0  0  0
   39.9350   29.0080   41.7810 C   0  0  0  0  0  0  0  0  0  0  0  0
   39.5620   29.1110   42.7960 H   0  0  0  0  0  0  0  0  0  0  0  0
   39.0370   28.9090   41.1150 H   0  0  0  0  0  0  0  0  0  0  0  0
   40.7310   27.7270   41.5860 C   0  0  0  0  0  0  0  0  0  0  0  0
   41.5150   27.7230   42.3870 H   0  0  0  0  0  0  0  0  0  0  0  0
   41.1750   27.6690   40.5810 H   0  0  0  0  0  0  0  0  0  0  0  0
   41.6540   25.4200   43.4310 Cl  0  0  0  0  0  0  0  0  0  0  0  0
   40.1290   25.5130   42.5810 C   0  0  0  0  0  0  0  0  0  0  0  0
   39.7990   26.5910   41.7660 C   0  0  0  0  0  0  0  0  0  0  0  0
   38.5690   26.5410   41.1430 C   0  0  0  0  0  0  0  0  0  0  0  0
   38.2430   27.3590   40.4870 H   0  0  0  0  0  0  0  0  0  0  0  0
   37.7180   25.4710   41.3290 C   0  0  0  0  0  0  0  0  0  0  0  0
   36.7270   25.3840   40.8530 H   0  0  0  0  0  0  0  0  0  0  0  0
   38.0370   24.3990   42.1340 C   0  0  0  0  0  3  0  0  0  0  0  0
   39.2520   24.4350   42.7580 C   0  0  0  0  0  3  0  0  0  0  0  0
  1 25  1  0  0  0  0
  1  2  1  0  0  0  0
  3  7  1  0  0  0  0
  3  1  1  0  0  0  0
  4  3  1  0  0  0  0
  5  3  1  0  0  0  0
  6  7  2  0  0  0  0
  6 11  1  0  0  0  0
  7  8  1  0  0  0  0
  8 12  1  0  0  0  0
  8  9  2  0  0  0  0
  9 13  1  0  0  0  0
 10  9  1  0  0  0  0
 10 14  1  0  0  0  0
 11 10  2  0  0  0  0
 15 11  1  0  0  0  0
 16 22  1  0  0  0  0
 16 17  1  0  0  0  0
 17 23  1  0  0  0  0
 18 17  2  0  0  0  0
 18  6  1  0  0  0  0
 19 18  1  0  0  0  0
 20 21  1  0  0  0  0
 20 19  2  0  0  0  0
 21 16  2  0  0  0  0
 24 20  1  0  0  0  0
 25 28  1  0  0  0  0
 26 25  1  0  0  0  0
 27 26  1  0  0  0  0
 28 29  1  0  0  0  0
 30 31  1  0  0  0  0
 30 25  1  0  0  0  0
 31 32  1  0  0  0  0
 33 31  1  0  0  0  0
 34 39  1  0  0  0  0
 34 31  1  0  0  0  0
 34 35  1  0  0  0  0
 36 34  1  0  0  0  0
 38 45  1  0  0  0  0
 38 37  1  0  0  0  0
 39 38  2  0  0  0  0
 40 42  2  0  0  0  0
 40 39  1  0  0  0  0
 41 40  1  0  0  0  0
 42 44  1  0  0  0  0
 43 42  1  0  0  0  0
 44 45  2  0  0  0  0
M  END
>  <minimizedAffinity>
-5.16793156

>  <minimizedRMSD>
0.86303848

$$$$
