
 OpenBabel03242521553D

 48 52  0  0  0  0  0  0  0  0999 V2000
   46.7290   32.0260   46.2650 C   0  0  0  0  0  0  0  0  0  0  0  0
   46.8710   32.6770   47.4890 C   0  0  0  0  0  0  0  0  0  0  0  0
   47.4130   32.0580   48.6230 C   0  0  0  0  0  0  0  0  0  0  0  0
   47.8330   30.7580   48.5710 C   0  0  0  0  0  0  0  0  0  0  0  0
   47.6930   30.0790   47.3490 C   0  0  0  0  0  0  0  0  0  0  0  0
   48.0710   28.7700   47.3510 C   0  0  0  0  0  0  0  0  0  0  0  0
   47.8750   28.0420   46.1750 C   0  0  0  0  0  0  0  0  0  0  0  0
   47.2850   28.7070   45.0440 C   0  0  0  0  0  0  0  0  0  0  0  0
   46.9570   30.0340   45.1990 C   0  0  0  0  0  0  0  0  0  0  0  0
   47.1350   30.7800   46.2770 C   0  0  0  0  0  0  0  0  0  0  0  0
   46.5350   33.7270   47.5430 H   0  0  0  0  0  0  0  0  0  0  0  0
   47.4860   32.6370   49.5360 H   0  0  0  0  0  0  0  0  0  0  0  0
   48.2590   30.2700   49.4370 H   0  0  0  0  0  0  0  0  0  0  0  0
   48.5050   28.3180   48.2330 H   0  0  0  0  0  0  0  0  0  0  0  0
   48.2020   27.0200   46.2510 H   0  0  0  0  0  0  0  0  0  0  0  0
   47.2600   27.9190   44.3070 H   0  0  0  0  0  0  0  0  0  0  0  0
   44.7850   29.6640   44.4390 C   0  0  0  0  0  0  0  0  0  0  0  0
   46.1220   30.0340   44.0180 C   0  0  0  0  0  0  0  0  0  0  0  0
   46.1860   30.1130   42.6910 C   0  0  0  0  0  0  0  0  0  0  0  0
   45.1500   29.8790   41.8090 C   0  0  0  0  0  0  0  0  0  0  0  0
   43.8950   29.5280   42.2320 C   0  0  0  0  0  0  0  0  0  0  0  0
   43.7230   29.4200   43.5930 C   0  0  0  0  0  0  0  0  0  0  0  0
   47.2270   30.4000   42.4660 H   0  0  0  0  0  0  0  0  0  0  0  0
   45.4390   30.0040   40.7690 H   0  0  0  0  0  0  0  0  0  0  0  0
   43.1280   29.3580   41.4930 H   0  0  0  0  0  0  0  0  0  0  0  0
   44.3380   29.4940   45.7800 O   0  0  0  0  0  0  0  0  0  0  0  0
   44.2310   30.3720   46.2780 H   0  0  0  0  0  0  0  0  0  0  0  0
   42.4430   29.0580   43.9460 O   0  0  0  0  0  0  0  0  0  0  0  0
   40.1380   29.3660   45.6760 Cl  0  0  0  0  0  0  0  0  0  0  0  0
   41.1070   27.9200   45.3600 C   0  0  0  0  0  0  0  0  0  0  0  0
   42.2130   27.8210   44.5130 C   0  0  0  0  0  0  0  0  0  0  0  0
   42.8270   26.5910   44.4120 C   0  0  0  0  0  0  0  0  0  0  0  0
   43.6620   26.6230   43.7280 H   0  0  0  0  0  0  0  0  0  0  0  0
   42.3590   25.5100   45.1220 C   0  0  0  0  0  0  0  0  0  0  0  0
   42.9090   24.6160   44.9650 H   0  0  0  0  0  0  0  0  0  0  0  0
   41.2680   25.5920   45.9620 C   0  0  0  0  0  0  0  0  0  0  0  0
   40.6380   26.8130   46.0790 C   0  0  0  0  0  0  0  0  0  0  0  0
   45.2450   33.8770   43.3830 C   0  0  0  0  0  0  0  0  0  0  0  0
   46.4240   34.3910   42.7940 C   0  0  0  0  0  0  0  0  0  0  0  0
   47.6130   34.0450   43.4030 C   0  0  0  0  0  0  0  0  0  0  0  0
   47.4930   33.2710   44.4770 N   0  0  0  0  0  0  0  0  0  0  0  0
   46.4080   32.7740   45.0590 C   0  0  0  0  0  0  0  0  0  0  0  0
   45.2970   33.1030   44.4720 N   0  0  0  0  0  0  0  0  0  0  0  0
   44.3020   34.1430   42.9090 H   0  0  0  0  0  0  0  0  0  0  0  0
   46.4090   35.0140   41.9230 H   0  0  0  0  0  0  0  0  0  0  0  0
   48.8700   34.4300   42.8780 N   0  0  0  0  0  0  0  0  0  0  0  0
   48.8950   34.9070   41.9550 H   0  0  0  0  0  0  0  0  0  0  0  0
   49.7150   34.2240   43.4300 H   0  0  0  0  0  0  0  0  0  0  0  0
  1 10  2  0  0  0  0
  1  2  1  0  0  0  0
  2 11  1  0  0  0  0
  2  3  2  0  0  0  0
  3 12  1  0  0  0  0
  4  3  1  0  0  0  0
  4 13  1  0  0  0  0
  5  6  1  0  0  0  0
  5  4  2  0  0  0  0
  6 14  1  0  0  0  0
  7 15  1  0  0  0  0
  7  6  2  0  0  0  0
  8  9  2  0  0  0  0
  8  7  1  0  0  0  0
  9 10  1  0  0  0  0
 10  5  1  0  0  0  0
 16  8  1  0  0  0  0
 17 26  1  0  0  0  0
 18 17  1  0  0  0  0
 18  9  1  0  0  0  0
 19 18  2  0  0  0  0
 20 21  2  0  0  0  0
 20 19  1  0  0  0  0
 21 22  1  0  0  0  0
 22 28  1  0  0  0  0
 22 17  2  0  0  0  0
 23 19  1  0  0  0  0
 24 20  1  0  0  0  0
 25 21  1  0  0  0  0
 26 27  1  0  0  0  0
 28 31  1  0  0  0  0
 30 29  1  0  0  0  0
 30 37  1  0  0  0  0
 31 30  2  0  0  0  0
 32 31  1  0  0  0  0
 32 34  2  0  0  0  0
 33 32  1  0  0  0  0
 34 36  1  0  0  0  0
 35 34  1  0  0  0  0
 36 37  2  0  0  0  0
 38 43  1  0  0  0  0
 39 38  2  0  0  0  0
 39 40  1  0  0  0  0
 40 41  2  0  0  0  0
 41 42  1  0  0  0  0
 42  1  1  0  0  0  0
 43 42  2  0  0  0  0
 44 38  1  0  0  0  0
 45 39  1  0  0  0  0
 46 40  1  0  0  0  0
 46 48  1  0  0  0  0
 47 46  1  0  0  0  0
M  END
>  <minimizedAffinity>
-5.89520741

>  <minimizedRMSD>
1.04719877

$$$$
