
 OpenBabel03252508463D

 45 47  0  0  0  0  0  0  0  0999 V2000
   42.7120   31.5040   42.5690 N   0  0  0  0  0  0  0  0  0  0  0  0
   42.9810   31.7320   43.5540 H   0  0  0  0  0  0  0  0  0  0  0  0
   43.0420   32.5390   41.6470 C   0  0  0  0  0  0  0  0  0  0  0  0
   42.0900   33.0100   41.2630 H   0  0  0  0  0  0  0  0  0  0  0  0
   43.5290   32.1530   40.7090 H   0  0  0  0  0  0  0  0  0  0  0  0
   43.6580   34.9540   41.8800 C   0  0  0  0  0  0  0  0  0  0  0  0
   43.9050   33.6260   42.1910 C   0  0  0  0  0  0  0  0  0  0  0  0
   44.9670   33.3350   43.0140 C   0  0  0  0  0  0  0  0  0  0  0  0
   45.7500   34.3350   43.5070 C   0  0  0  0  0  0  0  0  0  0  0  0
   45.5250   35.6630   43.2130 C   0  0  0  0  0  0  0  0  0  0  0  0
   44.4470   35.9160   42.3810 C   0  0  0  0  0  0  0  0  0  0  0  0
   45.1270   32.2810   43.2340 H   0  0  0  0  0  0  0  0  0  0  0  0
   46.5740   34.0300   44.1540 H   0  0  0  0  0  0  0  0  0  0  0  0
   46.1650   36.4350   43.6200 H   0  0  0  0  0  0  0  0  0  0  0  0
   44.2460   36.9550   42.1300 H   0  0  0  0  0  0  0  0  0  0  0  0
   40.2190   35.7850   40.5280 C   0  0  0  0  0  0  0  0  0  0  0  0
   41.2480   35.5710   41.4650 C   0  0  0  0  0  0  0  0  0  0  0  0
   42.5130   35.2040   41.0010 C   0  0  0  0  0  0  0  0  0  0  0  0
   42.6720   35.0750   39.6600 N   0  0  0  0  0  0  0  0  0  0  0  0
   41.6600   35.2880   38.7750 C   0  0  0  0  0  0  0  0  0  0  0  0
   40.4510   35.6400   39.2270 N   0  0  0  0  0  0  0  0  0  0  0  0
   39.2690   36.0640   40.9340 H   0  0  0  0  0  0  0  0  0  0  0  0
   41.1190   35.6760   42.5450 H   0  0  0  0  0  0  0  0  0  0  0  0
   41.9410   35.1470   37.7390 H   0  0  0  0  0  0  0  0  0  0  0  0
   41.0310   31.1230   42.5670 S   0  0  0  0  0  0  0  0  0  0  0  0
   40.1890   32.3660   42.4390 O   0  0  0  0  0  0  0  0  0  0  0  0
   39.4480   32.5020   41.7930 H   0  0  0  0  0  0  0  0  0  0  0  0
   40.6460   30.3610   43.7780 O   0  0  0  0  0  0  0  0  0  0  0  0
   39.8900   30.5890   44.3430 H   0  0  0  0  0  0  0  0  0  0  0  0
   40.7530   30.1660   41.2070 O   0  0  0  0  0  0  0  0  0  0  0  0
   40.0120   29.0650   41.6260 C   0  0  0  0  0  0  0  0  0  0  0  0
   40.4810   28.0980   41.4690 H   0  0  0  0  0  0  0  0  0  0  0  0
   39.8660   29.1760   42.7330 H   0  0  0  0  0  0  0  0  0  0  0  0
   38.6190   29.1370   41.0200 C   0  0  0  0  0  0  0  0  0  0  0  0
   38.7530   29.5230   39.9760 H   0  0  0  0  0  0  0  0  0  0  0  0
   37.9490   29.7820   41.6100 H   0  0  0  0  0  0  0  0  0  0  0  0
   35.8360   28.7470   39.7280 Cl  0  0  0  0  0  0  0  0  0  0  0  0
   36.8280   27.4940   40.4340 C   0  0  0  0  0  0  0  0  0  0  0  0
   38.0700   27.7630   41.0000 C   0  0  0  0  0  0  0  0  0  0  0  0
   38.7510   26.6880   41.5330 C   0  0  0  0  0  0  0  0  0  0  0  0
   39.7380   26.8270   41.9950 H   0  0  0  0  0  0  0  0  0  0  0  0
   38.2170   25.4170   41.5010 C   0  0  0  0  0  0  0  0  0  0  0  0
   38.7200   24.5270   41.9130 H   0  0  0  0  0  0  0  0  0  0  0  0
   36.9870   25.1420   40.9420 C   0  0  0  0  0  3  0  0  0  0  0  0
   36.3010   26.1960   40.4100 C   0  0  0  0  0  3  0  0  0  0  0  0
  1  2  1  0  0  0  0
  3  7  1  0  0  0  0
  3  1  1  0  0  0  0
  4  3  1  0  0  0  0
  5  3  1  0  0  0  0
  6  7  2  0  0  0  0
  6 11  1  0  0  0  0
  7  8  1  0  0  0  0
  8 12  1  0  0  0  0
  8  9  2  0  0  0  0
  9 13  1  0  0  0  0
 10  9  1  0  0  0  0
 10 14  1  0  0  0  0
 11 10  2  0  0  0  0
 15 11  1  0  0  0  0
 16 22  1  0  0  0  0
 16 17  1  0  0  0  0
 17 23  1  0  0  0  0
 18 17  2  0  0  0  0
 18  6  1  0  0  0  0
 19 18  1  0  0  0  0
 20 21  1  0  0  0  0
 20 19  2  0  0  0  0
 21 16  2  0  0  0  0
 24 20  1  0  0  0  0
 25  1  1  0  0  0  0
 25 28  1  0  0  0  0
 26 25  1  0  0  0  0
 27 26  1  0  0  0  0
 28 29  1  0  0  0  0
 30 31  1  0  0  0  0
 30 25  1  0  0  0  0
 31 33  1  0  0  0  0
 32 31  1  0  0  0  0
 34 36  1  0  0  0  0
 34 31  1  0  0  0  0
 35 34  1  0  0  0  0
 37 38  1  0  0  0  0
 38 39  1  0  0  0  0
 39 34  1  0  0  0  0
 39 40  2  0  0  0  0
 40 41  1  0  0  0  0
 42 40  1  0  0  0  0
 42 43  1  0  0  0  0
 44 42  2  0  0  0  0
 45 38  2  0  0  0  0
 45 44  1  0  0  0  0
M  END
>  <minimizedAffinity>
-5.49879313

>  <minimizedRMSD>
1.4828397

$$$$
