
 OpenBabel03252508463D

 45 47  0  0  0  0  0  0  0  0999 V2000
   42.6730   31.3860   42.5820 N   0  0  0  0  0  0  0  0  0  0  0  0
   42.9900   31.5770   43.5600 H   0  0  0  0  0  0  0  0  0  0  0  0
   42.9790   32.4460   41.6790 C   0  0  0  0  0  0  0  0  0  0  0  0
   42.0170   32.9390   41.3490 H   0  0  0  0  0  0  0  0  0  0  0  0
   43.4230   32.0840   40.7110 H   0  0  0  0  0  0  0  0  0  0  0  0
   43.6710   34.8400   41.9070 C   0  0  0  0  0  0  0  0  0  0  0  0
   43.8750   33.5060   42.2220 C   0  0  0  0  0  0  0  0  0  0  0  0
   44.9260   33.1830   43.0470 C   0  0  0  0  0  0  0  0  0  0  0  0
   45.7410   34.1590   43.5380 C   0  0  0  0  0  0  0  0  0  0  0  0
   45.5590   35.4920   43.2400 C   0  0  0  0  0  0  0  0  0  0  0  0
   44.4910   35.7780   42.4060 C   0  0  0  0  0  0  0  0  0  0  0  0
   45.0530   32.1250   43.2690 H   0  0  0  0  0  0  0  0  0  0  0  0
   46.5540   33.8290   44.1860 H   0  0  0  0  0  0  0  0  0  0  0  0
   46.2230   36.2450   43.6450 H   0  0  0  0  0  0  0  0  0  0  0  0
   44.3230   36.8220   42.1530 H   0  0  0  0  0  0  0  0  0  0  0  0
   40.2540   35.7490   40.5500 C   0  0  0  0  0  0  0  0  0  0  0  0
   41.2730   35.5010   41.4900 C   0  0  0  0  0  0  0  0  0  0  0  0
   42.5360   35.1250   41.0260 C   0  0  0  0  0  0  0  0  0  0  0  0
   42.7010   35.0200   39.6840 N   0  0  0  0  0  0  0  0  0  0  0  0
   41.6990   35.2660   38.7970 C   0  0  0  0  0  0  0  0  0  0  0  0
   40.4910   35.6260   39.2490 N   0  0  0  0  0  0  0  0  0  0  0  0
   39.3050   36.0340   40.9560 H   0  0  0  0  0  0  0  0  0  0  0  0
   41.1390   35.5850   42.5710 H   0  0  0  0  0  0  0  0  0  0  0  0
   41.9840   35.1410   37.7600 H   0  0  0  0  0  0  0  0  0  0  0  0
   40.9870   31.0330   42.6460 S   0  0  0  0  0  0  0  0  0  0  0  0
   40.1610   32.2850   42.5100 O   0  0  0  0  0  0  0  0  0  0  0  0
   39.4000   32.4150   41.8850 H   0  0  0  0  0  0  0  0  0  0  0  0
   40.6300   30.3110   43.8900 O   0  0  0  0  0  0  0  0  0  0  0  0
   39.8980   30.5660   44.4720 H   0  0  0  0  0  0  0  0  0  0  0  0
   40.6500   30.0430   41.3230 O   0  0  0  0  0  0  0  0  0  0  0  0
   40.0500   28.8890   41.8180 C   0  0  0  0  0  0  0  0  0  0  0  0
   39.8740   28.8760   42.8900 H   0  0  0  0  0  0  0  0  0  0  0  0
   39.0450   28.8090   41.3250 H   0  0  0  0  0  0  0  0  0  0  0  0
   40.8340   27.6740   41.3470 C   0  0  0  0  0  0  0  0  0  0  0  0
   41.8730   27.7990   41.7480 H   0  0  0  0  0  0  0  0  0  0  0  0
   40.8290   27.5830   40.2500 H   0  0  0  0  0  0  0  0  0  0  0  0
   42.2160   26.3850   43.7980 Cl  0  0  0  0  0  0  0  0  0  0  0  0
   40.7420   25.8340   43.0370 C   0  0  0  0  0  0  0  0  0  0  0  0
   40.1930   26.4750   41.9320 C   0  0  0  0  0  0  0  0  0  0  0  0
   39.0310   25.9360   41.4190 C   0  0  0  0  0  0  0  0  0  0  0  0
   38.5420   26.3920   40.5470 H   0  0  0  0  0  0  0  0  0  0  0  0
   38.4530   24.8170   41.9830 C   0  0  0  0  0  0  0  0  0  0  0  0
   37.5280   24.3490   41.6090 H   0  0  0  0  0  0  0  0  0  0  0  0
   38.9900   24.1760   43.0780 C   0  0  0  0  0  3  0  0  0  0  0  0
   40.1400   24.6970   43.5970 C   0  0  0  0  0  3  0  0  0  0  0  0
  1 25  1  0  0  0  0
  1  2  1  0  0  0  0
  3  7  1  0  0  0  0
  3  1  1  0  0  0  0
  4  3  1  0  0  0  0
  5  3  1  0  0  0  0
  6  7  2  0  0  0  0
  6 11  1  0  0  0  0
  7  8  1  0  0  0  0
  8 12  1  0  0  0  0
  8  9  2  0  0  0  0
  9 13  1  0  0  0  0
 10  9  1  0  0  0  0
 10 14  1  0  0  0  0
 11 10  2  0  0  0  0
 15 11  1  0  0  0  0
 16 22  1  0  0  0  0
 16 17  1  0  0  0  0
 17 23  1  0  0  0  0
 18 17  2  0  0  0  0
 18  6  1  0  0  0  0
 19 18  1  0  0  0  0
 20 21  1  0  0  0  0
 20 19  2  0  0  0  0
 21 16  2  0  0  0  0
 24 20  1  0  0  0  0
 25 28  1  0  0  0  0
 26 25  1  0  0  0  0
 27 26  1  0  0  0  0
 28 29  1  0  0  0  0
 30 31  1  0  0  0  0
 30 25  1  0  0  0  0
 31 32  1  0  0  0  0
 33 31  1  0  0  0  0
 34 35  1  0  0  0  0
 34 31  1  0  0  0  0
 34 39  1  0  0  0  0
 36 34  1  0  0  0  0
 38 45  1  0  0  0  0
 38 37  1  0  0  0  0
 39 38  2  0  0  0  0
 40 39  1  0  0  0  0
 40 42  2  0  0  0  0
 41 40  1  0  0  0  0
 42 44  1  0  0  0  0
 43 42  1  0  0  0  0
 44 45  2  0  0  0  0
M  END
>  <minimizedAffinity>
-5.08521748

>  <minimizedRMSD>
0.413308084

$$$$
