
 OpenBabel03252506203D

 33 35  0  0  0  0  0  0  0  0999 V2000
   35.0270   28.9240   38.3630 C   0  0  0  0  0  0  0  0  0  0  0  0
   35.9210   29.3190   37.3520 C   0  0  0  0  0  0  0  0  0  0  0  0
   37.2840   29.3180   37.6810 C   0  0  0  0  0  0  0  0  0  0  0  0
   37.6650   28.9450   38.9220 N   0  0  0  0  0  0  0  0  0  0  0  0
   36.7750   28.5710   39.8680 C   0  0  0  0  0  0  0  0  0  0  0  0
   35.4540   28.5600   39.5890 N   0  0  0  0  0  0  0  0  0  0  0  0
   35.5800   29.6120   36.3660 H   0  0  0  0  0  0  0  0  0  0  0  0
   38.0260   29.6010   36.9740 H   0  0  0  0  0  0  0  0  0  0  0  0
   37.1470   25.5930   40.2700 Cl  0  0  0  0  0  0  0  0  0  0  0  0
   37.4840   26.8290   41.4400 C   0  0  0  0  0  0  0  0  0  0  0  0
   37.2860   28.1870   41.1820 C   0  0  0  0  0  0  0  0  0  0  0  0
   37.5430   29.1850   42.0820 C   0  0  0  0  0  0  0  0  0  0  0  0
   38.0270   28.7830   43.3110 C   0  0  0  0  0  0  0  0  0  0  0  0
   38.2630   27.4740   43.6790 C   0  0  0  0  0  0  0  0  0  0  0  0
   37.9690   26.5320   42.6930 C   0  0  0  0  0  0  0  0  0  0  0  0
   37.3730   30.2270   41.8370 H   0  0  0  0  0  0  0  0  0  0  0  0
   38.2320   29.5840   44.0360 H   0  0  0  0  0  0  0  0  0  0  0  0
   38.6350   27.2310   44.6420 H   0  0  0  0  0  0  0  0  0  0  0  0
   38.1520   25.4920   42.9740 H   0  0  0  0  0  0  0  0  0  0  0  0
   33.5750   28.9070   38.0660 C   0  0  0  0  0  3  0  0  0  0  0  0
   33.2110   28.8720   36.8080 C   0  0  0  0  0  3  0  0  0  0  0  0
   31.7580   28.8550   36.4460 C   0  0  0  0  0  0  0  0  0  0  0  0
   31.6480   28.0970   35.6440 H   0  0  0  0  0  0  0  0  0  0  0  0
   31.1260   28.5270   37.2970 H   0  0  0  0  0  0  0  0  0  0  0  0
   30.1690   30.3800   38.4000 Cl  0  0  0  0  0  0  0  0  0  0  0  0
   30.6070   30.9530   36.7960 C   0  0  0  0  0  0  0  0  0  0  0  0
   31.3520   30.1960   35.9240 C   0  0  0  0  0  0  0  0  0  0  0  0
   31.6960   30.6520   34.6570 C   0  0  0  0  0  0  0  0  0  0  0  0
   32.2750   30.0280   34.0150 H   0  0  0  0  0  0  0  0  0  0  0  0
   31.2660   31.9050   34.2830 C   0  0  0  0  0  0  0  0  0  0  0  0
   31.4990   32.3190   33.3100 H   0  0  0  0  0  0  0  0  0  0  0  0
   30.5150   32.6770   35.1520 C   0  0  0  0  0  3  0  0  0  0  0  0
   30.1840   32.1990   36.4110 C   0  0  0  0  0  3  0  0  0  0  0  0
  1  6  1  0  0  0  0
  2  3  1  0  0  0  0
  2  1  2  0  0  0  0
  3  4  2  0  0  0  0
  4  5  1  0  0  0  0
  5 11  1  0  0  0  0
  6  5  2  0  0  0  0
  7  2  1  0  0  0  0
  8  3  1  0  0  0  0
  9 10  1  0  0  0  0
 10 15  1  0  0  0  0
 11 10  2  0  0  0  0
 11 12  1  0  0  0  0
 12 13  2  0  0  0  0
 13 14  1  0  0  0  0
 13 17  1  0  0  0  0
 14 18  1  0  0  0  0
 15 19  1  0  0  0  0
 15 14  2  0  0  0  0
 16 12  1  0  0  0  0
 20  1  1  0  0  0  0
 21 20  2  0  0  0  0
 22 21  1  0  0  0  0
 22 24  1  0  0  0  0
 23 22  1  0  0  0  0
 26 25  1  0  0  0  0
 27 22  1  0  0  0  0
 27 26  2  0  0  0  0
 28 27  1  0  0  0  0
 29 28  1  0  0  0  0
 30 28  2  0  0  0  0
 30 32  1  0  0  0  0
 31 30  1  0  0  0  0
 32 33  2  0  0  0  0
 33 26  1  0  0  0  0
M  END
>  <minimizedAffinity>
-6.12419701

$$$$

 OpenBabel03252506203D

 33 35  0  0  0  0  0  0  0  0999 V2000
   37.1820   30.1040   40.6470 C   0  0  0  0  0  0  0  0  0  0  0  0
   37.4780   31.4780   40.6970 C   0  0  0  0  0  0  0  0  0  0  0  0
   37.3120   32.2020   39.5080 C   0  0  0  0  0  0  0  0  0  0  0  0
   36.8870   31.5610   38.3970 N   0  0  0  0  0  0  0  0  0  0  0  0
   36.6120   30.2380   38.3890 C   0  0  0  0  0  0  0  0  0  0  0  0
   36.7600   29.5080   39.5150 N   0  0  0  0  0  0  0  0  0  0  0  0
   37.8180   31.9600   41.6070 H   0  0  0  0  0  0  0  0  0  0  0  0
   37.5120   33.2450   39.4600 H   0  0  0  0  0  0  0  0  0  0  0  0
   33.9030   28.8910   38.5290 Cl  0  0  0  0  0  0  0  0  0  0  0  0
   34.9160   28.9980   37.1250 C   0  0  0  0  0  0  0  0  0  0  0  0
   36.1580   29.6360   37.1370 C   0  0  0  0  0  0  0  0  0  0  0  0
   36.9790   29.7380   36.0470 C   0  0  0  0  0  0  0  0  0  0  0  0
   36.5150   29.1600   34.8820 C   0  0  0  0  0  0  0  0  0  0  0  0
   35.3080   28.5050   34.7500 C   0  0  0  0  0  0  0  0  0  0  0  0
   34.5440   28.4540   35.9170 C   0  0  0  0  0  0  0  0  0  0  0  0
   37.9360   30.2440   36.1030 H   0  0  0  0  0  0  0  0  0  0  0  0
   37.1750   29.2400   34.0060 H   0  0  0  0  0  0  0  0  0  0  0  0
   35.0100   28.0800   33.8250 H   0  0  0  0  0  0  0  0  0  0  0  0
   33.5870   27.9370   35.8230 H   0  0  0  0  0  0  0  0  0  0  0  0
   37.3400   29.2940   41.8790 C   0  0  0  0  0  3  0  0  0  0  0  0
   36.7630   28.1190   41.9120 C   0  0  0  0  0  3  0  0  0  0  0  0
   36.8860   27.2560   43.1310 C   0  0  0  0  0  0  0  0  0  0  0  0
   36.8430   27.9430   44.0010 H   0  0  0  0  0  0  0  0  0  0  0  0
   36.0340   26.5530   43.2240 H   0  0  0  0  0  0  0  0  0  0  0  0
   36.7370   24.6360   41.7980 Cl  0  0  0  0  0  0  0  0  0  0  0  0
   38.1930   25.3190   42.5070 C   0  0  0  0  0  0  0  0  0  0  0  0
   38.2040   26.5500   43.1190 C   0  0  0  0  0  0  0  0  0  0  0  0
   39.3570   27.0870   43.6800 C   0  0  0  0  0  0  0  0  0  0  0  0
   39.3160   28.0460   44.1440 H   0  0  0  0  0  0  0  0  0  0  0  0
   40.5150   26.3450   43.6100 C   0  0  0  0  0  0  0  0  0  0  0  0
   41.4460   26.7060   44.0270 H   0  0  0  0  0  0  0  0  0  0  0  0
   40.5170   25.1050   42.9970 C   0  0  0  0  0  3  0  0  0  0  0  0
   39.3530   24.5900   42.4450 C   0  0  0  0  0  3  0  0  0  0  0  0
  1  2  1  0  0  0  0
  1 20  1  0  0  0  0
  2  7  1  0  0  0  0
  3  2  2  0  0  0  0
  4  3  1  0  0  0  0
  5  4  2  0  0  0  0
  5  6  1  0  0  0  0
  6  1  2  0  0  0  0
  8  3  1  0  0  0  0
 10 11  1  0  0  0  0
 10  9  1  0  0  0  0
 11  5  1  0  0  0  0
 12 16  1  0  0  0  0
 12 11  2  0  0  0  0
 13 12  1  0  0  0  0
 14 13  2  0  0  0  0
 14 15  1  0  0  0  0
 15 10  2  0  0  0  0
 17 13  1  0  0  0  0
 18 14  1  0  0  0  0
 19 15  1  0  0  0  0
 20 21  2  0  0  0  0
 21 22  1  0  0  0  0
 22 24  1  0  0  0  0
 22 23  1  0  0  0  0
 25 26  1  0  0  0  0
 26 27  1  0  0  0  0
 27 22  1  0  0  0  0
 27 28  2  0  0  0  0
 28 29  1  0  0  0  0
 30 28  1  0  0  0  0
 30 31  1  0  0  0  0
 32 30  2  0  0  0  0
 33 26  2  0  0  0  0
 33 32  1  0  0  0  0
M  END
>  <minimizedAffinity>
-5.96456051

$$$$

 OpenBabel03252506203D

 33 35  0  0  0  0  0  0  0  0999 V2000
   35.1860   27.9490   36.9510 C   0  0  0  0  0  0  0  0  0  0  0  0
   36.3210   28.1070   36.1370 C   0  0  0  0  0  0  0  0  0  0  0  0
   37.5690   27.9640   36.7600 C   0  0  0  0  0  0  0  0  0  0  0  0
   37.6200   27.6880   38.0820 N   0  0  0  0  0  0  0  0  0  0  0  0
   36.5050   27.5430   38.8320 C   0  0  0  0  0  0  0  0  0  0  0  0
   35.2860   27.6740   38.2660 N   0  0  0  0  0  0  0  0  0  0  0  0
   36.2430   28.3290   35.0780 H   0  0  0  0  0  0  0  0  0  0  0  0
   38.4770   28.0660   36.2170 H   0  0  0  0  0  0  0  0  0  0  0  0
   35.9160   29.8570   40.6930 Cl  0  0  0  0  0  0  0  0  0  0  0  0
   36.4100   28.2650   41.1720 C   0  0  0  0  0  0  0  0  0  0  0  0
   36.6650   27.2460   40.2540 C   0  0  0  0  0  0  0  0  0  0  0  0
   37.0550   25.9800   40.5990 C   0  0  0  0  0  0  0  0  0  0  0  0
   37.1930   25.7360   41.9520 C   0  0  0  0  0  0  0  0  0  0  0  0
   36.9680   26.6630   42.9490 C   0  0  0  0  0  0  0  0  0  0  0  0
   36.5750   27.9220   42.4950 C   0  0  0  0  0  0  0  0  0  0  0  0
   37.2430   25.2200   39.8500 H   0  0  0  0  0  0  0  0  0  0  0  0
   37.5080   24.7200   42.2300 H   0  0  0  0  0  0  0  0  0  0  0  0
   37.0930   26.4120   43.9720 H   0  0  0  0  0  0  0  0  0  0  0  0
   36.3950   28.6630   43.2770 H   0  0  0  0  0  0  0  0  0  0  0  0
   33.8430   28.0890   36.3390 C   0  0  0  0  0  3  0  0  0  0  0  0
   33.4480   29.2930   36.0070 C   0  0  0  0  0  3  0  0  0  0  0  0
   32.1000   29.4960   35.3860 C   0  0  0  0  0  0  0  0  0  0  0  0
   32.2700   30.0930   34.4670 H   0  0  0  0  0  0  0  0  0  0  0  0
   31.6410   28.5360   35.0740 H   0  0  0  0  0  0  0  0  0  0  0  0
   31.3400   32.1260   34.3030 Cl  0  0  0  0  0  0  0  0  0  0  0  0
   30.8370   31.5020   35.8680 C   0  0  0  0  0  0  0  0  0  0  0  0
   31.2240   30.2640   36.3230 C   0  0  0  0  0  0  0  0  0  0  0  0
   30.8250   29.7740   37.5620 C   0  0  0  0  0  0  0  0  0  0  0  0
   31.1520   28.8080   37.8720 H   0  0  0  0  0  0  0  0  0  0  0  0
   30.0170   30.5710   38.3410 C   0  0  0  0  0  0  0  0  0  0  0  0
   29.6720   30.2480   39.3160 H   0  0  0  0  0  0  0  0  0  0  0  0
   29.6210   31.8190   37.8940 C   0  0  0  0  0  3  0  0  0  0  0  0
   30.0320   32.2850   36.6550 C   0  0  0  0  0  3  0  0  0  0  0  0
  1  6  1  0  0  0  0
  2  3  1  0  0  0  0
  2  1  2  0  0  0  0
  3  4  2  0  0  0  0
  4  5  1  0  0  0  0
  5 11  1  0  0  0  0
  6  5  2  0  0  0  0
  7  2  1  0  0  0  0
  8  3  1  0  0  0  0
  9 10  1  0  0  0  0
 10 15  1  0  0  0  0
 11 12  1  0  0  0  0
 11 10  2  0  0  0  0
 12 13  2  0  0  0  0
 13 17  1  0  0  0  0
 13 14  1  0  0  0  0
 14 18  1  0  0  0  0
 15 14  2  0  0  0  0
 15 19  1  0  0  0  0
 16 12  1  0  0  0  0
 20  1  1  0  0  0  0
 21 20  2  0  0  0  0
 22 21  1  0  0  0  0
 22 27  1  0  0  0  0
 23 22  1  0  0  0  0
 24 22  1  0  0  0  0
 25 26  1  0  0  0  0
 26 27  2  0  0  0  0
 26 33  1  0  0  0  0
 27 28  1  0  0  0  0
 28 29  1  0  0  0  0
 28 30  2  0  0  0  0
 30 31  1  0  0  0  0
 32 30  1  0  0  0  0
 33 32  2  0  0  0  0
M  END
>  <minimizedAffinity>
-5.81759644

$$$$

 OpenBabel03252506203D

 33 35  0  0  0  0  0  0  0  0999 V2000
   33.9400   28.0920   37.5110 C   0  0  0  0  0  0  0  0  0  0  0  0
   33.6350   26.8810   36.8650 C   0  0  0  0  0  0  0  0  0  0  0  0
   32.5450   26.8940   35.9830 C   0  0  0  0  0  0  0  0  0  0  0  0
   31.8570   28.0420   35.7980 N   0  0  0  0  0  0  0  0  0  0  0  0
   32.1810   29.1870   36.4380 C   0  0  0  0  0  0  0  0  0  0  0  0
   33.2230   29.2130   37.2960 N   0  0  0  0  0  0  0  0  0  0  0  0
   34.2090   25.9770   37.0360 H   0  0  0  0  0  0  0  0  0  0  0  0
   32.2490   26.0210   35.4520 H   0  0  0  0  0  0  0  0  0  0  0  0
   30.4040   30.0600   38.7290 Cl  0  0  0  0  0  0  0  0  0  0  0  0
   30.5300   30.8390   37.1840 C   0  0  0  0  0  0  0  0  0  0  0  0
   31.3740   30.3760   36.1720 C   0  0  0  0  0  0  0  0  0  0  0  0
   31.4970   30.9680   34.9450 C   0  0  0  0  0  0  0  0  0  0  0  0
   30.7210   32.0910   34.7320 C   0  0  0  0  0  0  0  0  0  0  0  0
   29.8540   32.6390   35.6540 C   0  0  0  0  0  0  0  0  0  0  0  0
   29.8000   31.9630   36.8740 C   0  0  0  0  0  0  0  0  0  0  0  0
   32.1660   30.5720   34.1890 H   0  0  0  0  0  0  0  0  0  0  0  0
   30.8190   32.5660   33.7450 H   0  0  0  0  0  0  0  0  0  0  0  0
   29.2840   33.5040   35.4280 H   0  0  0  0  0  0  0  0  0  0  0  0
   29.1160   32.3890   37.6110 H   0  0  0  0  0  0  0  0  0  0  0  0
   35.0830   28.1310   38.4530 C   0  0  0  0  0  3  0  0  0  0  0  0
   36.1720   27.4840   38.1160 C   0  0  0  0  0  3  0  0  0  0  0  0
   37.3590   27.4860   39.0290 C   0  0  0  0  0  0  0  0  0  0  0  0
   38.2330   27.2220   38.3990 H   0  0  0  0  0  0  0  0  0  0  0  0
   37.5510   28.4930   39.4520 H   0  0  0  0  0  0  0  0  0  0  0  0
   37.6030   28.6120   41.7370 Cl  0  0  0  0  0  0  0  0  0  0  0  0
   37.2840   26.9210   41.3800 C   0  0  0  0  0  0  0  0  0  0  0  0
   37.1810   26.4500   40.0920 C   0  0  0  0  0  0  0  0  0  0  0  0
   36.9290   25.1120   39.8120 C   0  0  0  0  0  0  0  0  0  0  0  0
   36.8580   24.7930   38.7960 H   0  0  0  0  0  0  0  0  0  0  0  0
   36.7830   24.2470   40.8730 C   0  0  0  0  0  0  0  0  0  0  0  0
   36.5860   23.1920   40.7230 H   0  0  0  0  0  0  0  0  0  0  0  0
   36.8850   24.7080   42.1730 C   0  0  0  0  0  3  0  0  0  0  0  0
   37.1370   26.0480   42.4270 C   0  0  0  0  0  3  0  0  0  0  0  0
  1 20  1  0  0  0  0
  2  7  1  0  0  0  0
  2  1  2  0  0  0  0
  3  2  1  0  0  0  0
  4  3  2  0  0  0  0
  4  5  1  0  0  0  0
  5  6  2  0  0  0  0
  6  1  1  0  0  0  0
  8  3  1  0  0  0  0
 10  9  1  0  0  0  0
 11  5  1  0  0  0  0
 11 10  2  0  0  0  0
 12 11  1  0  0  0  0
 13 12  2  0  0  0  0
 13 14  1  0  0  0  0
 14 15  2  0  0  0  0
 15 10  1  0  0  0  0
 15 19  1  0  0  0  0
 16 12  1  0  0  0  0
 17 13  1  0  0  0  0
 18 14  1  0  0  0  0
 21 20  2  0  0  0  0
 21 22  1  0  0  0  0
 22 24  1  0  0  0  0
 22 27  1  0  0  0  0
 23 22  1  0  0  0  0
 26 25  1  0  0  0  0
 26 33  1  0  0  0  0
 27 26  2  0  0  0  0
 28 27  1  0  0  0  0
 28 30  2  0  0  0  0
 29 28  1  0  0  0  0
 30 32  1  0  0  0  0
 31 30  1  0  0  0  0
 32 33  2  0  0  0  0
M  END
>  <minimizedAffinity>
-5.74992466

$$$$

 OpenBabel03252506203D

 33 35  0  0  0  0  0  0  0  0999 V2000
   35.7470   29.1380   38.4080 C   0  0  0  0  0  0  0  0  0  0  0  0
   35.9670   28.0640   39.2890 C   0  0  0  0  0  0  0  0  0  0  0  0
   36.9690   28.2370   40.2550 C   0  0  0  0  0  0  0  0  0  0  0  0
   37.6590   29.3980   40.2930 N   0  0  0  0  0  0  0  0  0  0  0  0
   37.4180   30.4080   39.4280 C   0  0  0  0  0  0  0  0  0  0  0  0
   36.4620   30.2780   38.4840 N   0  0  0  0  0  0  0  0  0  0  0  0
   35.3940   27.1460   39.2310 H   0  0  0  0  0  0  0  0  0  0  0  0
   37.1980   27.4750   40.9610 H   0  0  0  0  0  0  0  0  0  0  0  0
   40.0900   30.3230   38.0040 Cl  0  0  0  0  0  0  0  0  0  0  0  0
   39.4640   31.6580   38.9170 C   0  0  0  0  0  0  0  0  0  0  0  0
   38.2190   31.6240   39.5490 C   0  0  0  0  0  0  0  0  0  0  0  0
   37.6970   32.6600   40.2740 C   0  0  0  0  0  0  0  0  0  0  0  0
   38.4810   33.7930   40.3640 C   0  0  0  0  0  0  0  0  0  0  0  0
   39.7240   33.9430   39.7830 C   0  0  0  0  0  0  0  0  0  0  0  0
   40.1680   32.8310   39.0650 C   0  0  0  0  0  0  0  0  0  0  0  0
   36.7260   32.5870   40.7480 H   0  0  0  0  0  0  0  0  0  0  0  0
   38.0640   34.6260   40.9480 H   0  0  0  0  0  0  0  0  0  0  0  0
   40.2780   34.8410   39.8910 H   0  0  0  0  0  0  0  0  0  0  0  0
   41.1510   32.9400   38.6010 H   0  0  0  0  0  0  0  0  0  0  0  0
   34.6980   29.0060   37.3700 C   0  0  0  0  0  3  0  0  0  0  0  0
   33.4490   28.9920   37.7640 C   0  0  0  0  0  3  0  0  0  0  0  0
   32.3460   28.8590   36.7600 C   0  0  0  0  0  0  0  0  0  0  0  0
   32.8200   28.9700   35.7640 H   0  0  0  0  0  0  0  0  0  0  0  0
   31.8800   27.8520   36.7920 H   0  0  0  0  0  0  0  0  0  0  0  0
   32.1590   30.6430   34.4270 Cl  0  0  0  0  0  0  0  0  0  0  0  0
   31.2160   30.8170   35.9010 C   0  0  0  0  0  0  0  0  0  0  0  0
   31.3460   29.9520   36.9610 C   0  0  0  0  0  0  0  0  0  0  0  0
   30.6000   30.0920   38.1260 C   0  0  0  0  0  0  0  0  0  0  0  0
   30.7360   29.3960   38.9220 H   0  0  0  0  0  0  0  0  0  0  0  0
   29.7080   31.1390   38.1990 C   0  0  0  0  0  0  0  0  0  0  0  0
   29.0970   31.3040   39.0780 H   0  0  0  0  0  0  0  0  0  0  0  0
   29.5690   32.0170   37.1380 C   0  0  0  0  0  3  0  0  0  0  0  0
   30.3250   31.8560   35.9870 C   0  0  0  0  0  3  0  0  0  0  0  0
  1  6  2  0  0  0  0
  1  2  1  0  0  0  0
  2  3  2  0  0  0  0
  3  4  1  0  0  0  0
  3  8  1  0  0  0  0
  5 11  1  0  0  0  0
  5  4  2  0  0  0  0
  6  5  1  0  0  0  0
  7  2  1  0  0  0  0
  9 10  1  0  0  0  0
 10 15  2  0  0  0  0
 10 11  1  0  0  0  0
 11 12  2  0  0  0  0
 12 13  1  0  0  0  0
 12 16  1  0  0  0  0
 13 17  1  0  0  0  0
 14 18  1  0  0  0  0
 14 13  2  0  0  0  0
 15 14  1  0  0  0  0
 19 15  1  0  0  0  0
 20 21  2  0  0  0  0
 20  1  1  0  0  0  0
 22 24  1  0  0  0  0
 22 27  1  0  0  0  0
 22 21  1  0  0  0  0
 23 22  1  0  0  0  0
 25 26  1  0  0  0  0
 26 33  2  0  0  0  0
 26 27  1  0  0  0  0
 27 28  2  0  0  0  0
 28 30  1  0  0  0  0
 28 29  1  0  0  0  0
 30 31  1  0  0  0  0
 32 30  2  0  0  0  0
 33 32  1  0  0  0  0
M  END
>  <minimizedAffinity>
-5.70098495

$$$$

 OpenBabel03252506203D

 33 35  0  0  0  0  0  0  0  0999 V2000
   34.3220   28.7840   38.6820 C   0  0  0  0  0  0  0  0  0  0  0  0
   34.8300   27.5830   38.1560 C   0  0  0  0  0  0  0  0  0  0  0  0
   34.3420   27.1880   36.9020 C   0  0  0  0  0  0  0  0  0  0  0  0
   33.4290   27.9610   36.2740 N   0  0  0  0  0  0  0  0  0  0  0  0
   32.9640   29.1100   36.8120 C   0  0  0  0  0  0  0  0  0  0  0  0
   33.4100   29.5220   38.0180 N   0  0  0  0  0  0  0  0  0  0  0  0
   35.5630   26.9870   38.6870 H   0  0  0  0  0  0  0  0  0  0  0  0
   34.6760   26.2940   36.4320 H   0  0  0  0  0  0  0  0  0  0  0  0
   30.5860   30.0690   38.4230 Cl  0  0  0  0  0  0  0  0  0  0  0  0
   30.8520   30.3510   36.7320 C   0  0  0  0  0  0  0  0  0  0  0  0
   31.9770   29.8750   36.0550 C   0  0  0  0  0  0  0  0  0  0  0  0
   32.2160   30.0820   34.7240 C   0  0  0  0  0  0  0  0  0  0  0  0
   31.2620   30.8120   34.0420 C   0  0  0  0  0  0  0  0  0  0  0  0
   30.1140   31.3320   34.6040 C   0  0  0  0  0  0  0  0  0  0  0  0
   29.9610   31.0670   35.9650 C   0  0  0  0  0  0  0  0  0  0  0  0
   33.1030   29.6920   34.2400 H   0  0  0  0  0  0  0  0  0  0  0  0
   31.4520   30.9770   32.9720 H   0  0  0  0  0  0  0  0  0  0  0  0
   29.4180   31.8840   34.0230 H   0  0  0  0  0  0  0  0  0  0  0  0
   29.0550   31.4750   36.4190 H   0  0  0  0  0  0  0  0  0  0  0  0
   34.8070   29.2460   40.0040 C   0  0  0  0  0  3  0  0  0  0  0  0
   36.0450   29.6650   40.0860 C   0  0  0  0  0  3  0  0  0  0  0  0
   36.5920   30.1430   41.3960 C   0  0  0  0  0  0  0  0  0  0  0  0
   37.3290   30.9350   41.1520 H   0  0  0  0  0  0  0  0  0  0  0  0
   35.8050   30.6080   42.0250 H   0  0  0  0  0  0  0  0  0  0  0  0
   39.3530   30.8260   42.1540 Cl  0  0  0  0  0  0  0  0  0  0  0  0
   38.5780   29.2800   42.4740 C   0  0  0  0  0  0  0  0  0  0  0  0
   37.2820   29.0170   42.0950 C   0  0  0  0  0  0  0  0  0  0  0  0
   36.6720   27.7930   42.3480 C   0  0  0  0  0  0  0  0  0  0  0  0
   35.6660   27.6350   42.0340 H   0  0  0  0  0  0  0  0  0  0  0  0
   37.4070   26.8280   43.0000 C   0  0  0  0  0  0  0  0  0  0  0  0
   36.9910   25.8550   43.2260 H   0  0  0  0  0  0  0  0  0  0  0  0
   38.7120   27.0820   43.3860 C   0  0  0  0  0  3  0  0  0  0  0  0
   39.2980   28.3100   43.1210 C   0  0  0  0  0  3  0  0  0  0  0  0
  1 20  1  0  0  0  0
  2  1  1  0  0  0  0
  2  7  1  0  0  0  0
  3  2  2  0  0  0  0
  4  5  2  0  0  0  0
  4  3  1  0  0  0  0
  5  6  1  0  0  0  0
  6  1  2  0  0  0  0
  8  3  1  0  0  0  0
 10  9  1  0  0  0  0
 11 10  1  0  0  0  0
 11  5  1  0  0  0  0
 12 11  2  0  0  0  0
 13 14  2  0  0  0  0
 13 12  1  0  0  0  0
 14 15  1  0  0  0  0
 15 19  1  0  0  0  0
 15 10  2  0  0  0  0
 16 12  1  0  0  0  0
 17 13  1  0  0  0  0
 18 14  1  0  0  0  0
 20 21  2  0  0  0  0
 21 22  1  0  0  0  0
 22 24  1  0  0  0  0
 22 27  1  0  0  0  0
 23 22  1  0  0  0  0
 25 26  1  0  0  0  0
 26 33  1  0  0  0  0
 27 28  1  0  0  0  0
 27 26  2  0  0  0  0
 28 30  2  0  0  0  0
 29 28  1  0  0  0  0
 30 31  1  0  0  0  0
 30 32  1  0  0  0  0
 33 32  2  0  0  0  0
M  END
>  <minimizedAffinity>
-5.61424732

$$$$

 OpenBabel03252506203D

 33 35  0  0  0  0  0  0  0  0999 V2000
   38.0740   27.0190   42.1760 C   0  0  0  0  0  0  0  0  0  0  0  0
   38.8550   26.9580   43.3440 C   0  0  0  0  0  0  0  0  0  0  0  0
   39.6630   25.8220   43.5030 C   0  0  0  0  0  0  0  0  0  0  0  0
   39.6530   24.8640   42.5500 N   0  0  0  0  0  0  0  0  0  0  0  0
   38.8870   24.9590   41.4400 C   0  0  0  0  0  0  0  0  0  0  0  0
   38.0960   26.0370   41.2530 N   0  0  0  0  0  0  0  0  0  0  0  0
   38.8390   27.7450   44.0890 H   0  0  0  0  0  0  0  0  0  0  0  0
   40.2860   25.6980   44.3550 H   0  0  0  0  0  0  0  0  0  0  0  0
   40.8730   25.3620   39.1900 Cl  0  0  0  0  0  0  0  0  0  0  0  0
   39.8390   23.9860   39.4020 C   0  0  0  0  0  0  0  0  0  0  0  0
   38.9450   23.8700   40.4680 C   0  0  0  0  0  0  0  0  0  0  0  0
   38.1180   22.7980   40.6640 C   0  0  0  0  0  0  0  0  0  0  0  0
   38.2020   21.7870   39.7260 C   0  0  0  0  0  0  0  0  0  0  0  0
   39.0460   21.7900   38.6340 C   0  0  0  0  0  0  0  0  0  0  0  0
   39.8480   22.9270   38.5230 C   0  0  0  0  0  0  0  0  0  0  0  0
   37.4380   22.7520   41.5070 H   0  0  0  0  0  0  0  0  0  0  0  0
   37.5370   20.9260   39.8820 H   0  0  0  0  0  0  0  0  0  0  0  0
   39.0620   20.9810   37.9490 H   0  0  0  0  0  0  0  0  0  0  0  0
   40.5200   22.9390   37.6620 H   0  0  0  0  0  0  0  0  0  0  0  0
   37.2030   28.1990   41.9610 C   0  0  0  0  0  3  0  0  0  0  0  0
   36.3600   28.1580   40.9590 C   0  0  0  0  0  3  0  0  0  0  0  0
   35.4570   29.3220   40.6910 C   0  0  0  0  0  0  0  0  0  0  0  0
   34.6850   28.9570   39.9820 H   0  0  0  0  0  0  0  0  0  0  0  0
   34.9290   29.6540   41.6080 H   0  0  0  0  0  0  0  0  0  0  0  0
   35.7230   28.9690   37.7800 Cl  0  0  0  0  0  0  0  0  0  0  0  0
   36.3900   30.3160   38.6920 C   0  0  0  0  0  0  0  0  0  0  0  0
   36.2340   30.4290   40.0540 C   0  0  0  0  0  0  0  0  0  0  0  0
   36.7640   31.4950   40.7730 C   0  0  0  0  0  0  0  0  0  0  0  0
   36.6170   31.5390   41.8280 H   0  0  0  0  0  0  0  0  0  0  0  0
   37.4640   32.4560   40.0790 C   0  0  0  0  0  0  0  0  0  0  0  0
   37.9010   33.3110   40.5800 H   0  0  0  0  0  0  0  0  0  0  0  0
   37.6270   32.3530   38.7090 C   0  0  0  0  0  3  0  0  0  0  0  0
   37.0900   31.2800   38.0150 C   0  0  0  0  0  3  0  0  0  0  0  0
  1  2  1  0  0  0  0
  2  3  2  0  0  0  0
  2  7  1  0  0  0  0
  3  8  1  0  0  0  0
  4  3  1  0  0  0  0
  5  4  2  0  0  0  0
  6  5  1  0  0  0  0
  6  1  2  0  0  0  0
  9 10  1  0  0  0  0
 10 11  1  0  0  0  0
 11 12  2  0  0  0  0
 11  5  1  0  0  0  0
 12 16  1  0  0  0  0
 13 17  1  0  0  0  0
 13 12  1  0  0  0  0
 14 13  2  0  0  0  0
 15 14  1  0  0  0  0
 15 10  2  0  0  0  0
 18 14  1  0  0  0  0
 19 15  1  0  0  0  0
 20  1  1  0  0  0  0
 21 20  2  0  0  0  0
 22 21  1  0  0  0  0
 22 24  1  0  0  0  0
 23 22  1  0  0  0  0
 25 26  1  0  0  0  0
 26 27  1  0  0  0  0
 27 22  1  0  0  0  0
 27 28  2  0  0  0  0
 28 29  1  0  0  0  0
 30 31  1  0  0  0  0
 30 28  1  0  0  0  0
 32 30  2  0  0  0  0
 33 26  2  0  0  0  0
 33 32  1  0  0  0  0
M  END
>  <minimizedAffinity>
-5.61169863

$$$$

 OpenBabel03252506203D

 33 35  0  0  0  0  0  0  0  0999 V2000
   32.0360   29.6420   36.3710 C   0  0  0  0  0  0  0  0  0  0  0  0
   31.0830   29.6240   37.4040 C   0  0  0  0  0  0  0  0  0  0  0  0
   29.7780   30.0100   37.0650 C   0  0  0  0  0  0  0  0  0  0  0  0
   29.5050   30.3720   35.7920 N   0  0  0  0  0  0  0  0  0  0  0  0
   30.4490   30.3760   34.8260 C   0  0  0  0  0  0  0  0  0  0  0  0
   31.7170   30.0120   35.1150 N   0  0  0  0  0  0  0  0  0  0  0  0
   31.3360   29.3270   38.4160 H   0  0  0  0  0  0  0  0  0  0  0  0
   28.9970   30.0220   37.7860 H   0  0  0  0  0  0  0  0  0  0  0  0
   30.1380   28.1080   32.8430 Cl  0  0  0  0  0  0  0  0  0  0  0  0
   29.8920   29.7930   32.5110 C   0  0  0  0  0  0  0  0  0  0  0  0
   30.0550   30.7850   33.4790 C   0  0  0  0  0  0  0  0  0  0  0  0
   29.8670   32.1210   33.2490 C   0  0  0  0  0  0  0  0  0  0  0  0
   29.4920   32.4690   31.9660 C   0  0  0  0  0  0  0  0  0  0  0  0
   29.3010   31.5780   30.9300 C   0  0  0  0  0  0  0  0  0  0  0  0
   29.5170   30.2410   31.2650 C   0  0  0  0  0  0  0  0  0  0  0  0
   30.0060   32.8570   34.0330 H   0  0  0  0  0  0  0  0  0  0  0  0
   29.3430   33.5420   31.7800 H   0  0  0  0  0  0  0  0  0  0  0  0
   29.0140   31.9110   29.9640 H   0  0  0  0  0  0  0  0  0  0  0  0
   29.3680   29.5280   30.4510 H   0  0  0  0  0  0  0  0  0  0  0  0
   33.4300   29.2420   36.6780 C   0  0  0  0  0  3  0  0  0  0  0  0
   33.7020   28.8780   37.9060 C   0  0  0  0  0  3  0  0  0  0  0  0
   35.0940   28.4650   38.2760 C   0  0  0  0  0  0  0  0  0  0  0  0
   34.9880   27.5640   38.9150 H   0  0  0  0  0  0  0  0  0  0  0  0
   35.6860   28.1700   37.3860 H   0  0  0  0  0  0  0  0  0  0  0  0
   36.8710   30.1170   36.6090 Cl  0  0  0  0  0  0  0  0  0  0  0  0
   36.5960   30.3600   38.3290 C   0  0  0  0  0  0  0  0  0  0  0  0
   35.7530   29.5550   39.0580 C   0  0  0  0  0  0  0  0  0  0  0  0
   35.5380   29.7490   40.4180 C   0  0  0  0  0  0  0  0  0  0  0  0
   34.8760   29.0980   40.9420 H   0  0  0  0  0  0  0  0  0  0  0  0
   36.2010   30.7860   41.0350 C   0  0  0  0  0  0  0  0  0  0  0  0
   36.0780   30.9910   42.0910 H   0  0  0  0  0  0  0  0  0  0  0  0
   37.0520   31.6040   40.3110 C   0  0  0  0  0  3  0  0  0  0  0  0
   37.2500   31.3890   38.9560 C   0  0  0  0  0  3  0  0  0  0  0  0
  1 20  1  0  0  0  0
  1  2  1  0  0  0  0
  2  7  1  0  0  0  0
  3  2  2  0  0  0  0
  3  8  1  0  0  0  0
  4  3  1  0  0  0  0
  5  6  1  0  0  0  0
  5  4  2  0  0  0  0
  6  1  2  0  0  0  0
 10  9  1  0  0  0  0
 10 11  1  0  0  0  0
 11  5  1  0  0  0  0
 12 11  2  0  0  0  0
 12 16  1  0  0  0  0
 13 12  1  0  0  0  0
 14 15  1  0  0  0  0
 14 13  2  0  0  0  0
 15 10  2  0  0  0  0
 17 13  1  0  0  0  0
 18 14  1  0  0  0  0
 19 15  1  0  0  0  0
 20 21  2  0  0  0  0
 21 22  1  0  0  0  0
 22 23  1  0  0  0  0
 22 27  1  0  0  0  0
 24 22  1  0  0  0  0
 25 26  1  0  0  0  0
 26 33  2  0  0  0  0
 26 27  1  0  0  0  0
 27 28  2  0  0  0  0
 28 29  1  0  0  0  0
 28 30  1  0  0  0  0
 30 31  1  0  0  0  0
 32 30  2  0  0  0  0
 33 32  1  0  0  0  0
M  END
>  <minimizedAffinity>
-5.60680199

$$$$

 OpenBabel03252506203D

 33 35  0  0  0  0  0  0  0  0999 V2000
   35.7430   28.6640   36.6220 C   0  0  0  0  0  0  0  0  0  0  0  0
   36.7350   27.9730   35.9050 C   0  0  0  0  0  0  0  0  0  0  0  0
   38.0670   28.2770   36.2200 C   0  0  0  0  0  0  0  0  0  0  0  0
   38.3290   29.1960   37.1750 N   0  0  0  0  0  0  0  0  0  0  0  0
   37.3470   29.8400   37.8430 C   0  0  0  0  0  0  0  0  0  0  0  0
   36.0520   29.5740   37.5670 N   0  0  0  0  0  0  0  0  0  0  0  0
   36.4900   27.2400   35.1440 H   0  0  0  0  0  0  0  0  0  0  0  0
   38.8780   27.7980   35.7260 H   0  0  0  0  0  0  0  0  0  0  0  0
   38.3520   28.6550   40.4420 Cl  0  0  0  0  0  0  0  0  0  0  0  0
   38.2050   30.3450   40.0830 C   0  0  0  0  0  0  0  0  0  0  0  0
   37.7310   30.8180   38.8580 C   0  0  0  0  0  0  0  0  0  0  0  0
   37.6050   32.1440   38.5440 C   0  0  0  0  0  0  0  0  0  0  0  0
   37.9800   33.0390   39.5270 C   0  0  0  0  0  0  0  0  0  0  0  0
   38.4620   32.6900   40.7710 C   0  0  0  0  0  0  0  0  0  0  0  0
   38.5530   31.3150   40.9950 C   0  0  0  0  0  0  0  0  0  0  0  0
   37.2300   32.4650   37.5790 H   0  0  0  0  0  0  0  0  0  0  0  0
   37.8770   34.1050   39.2760 H   0  0  0  0  0  0  0  0  0  0  0  0
   38.7320   33.4280   41.4840 H   0  0  0  0  0  0  0  0  0  0  0  0
   38.9340   31.0290   41.9780 H   0  0  0  0  0  0  0  0  0  0  0  0
   34.3190   28.3790   36.3280 C   0  0  0  0  0  3  0  0  0  0  0  0
   33.4210   29.2070   36.8010 C   0  0  0  0  0  3  0  0  0  0  0  0
   31.9660   28.9690   36.5380 C   0  0  0  0  0  0  0  0  0  0  0  0
   31.9180   28.2910   35.6610 H   0  0  0  0  0  0  0  0  0  0  0  0
   31.4750   28.4460   37.3840 H   0  0  0  0  0  0  0  0  0  0  0  0
   30.3820   30.0150   38.7870 Cl  0  0  0  0  0  0  0  0  0  0  0  0
   30.5400   30.7990   37.2210 C   0  0  0  0  0  0  0  0  0  0  0  0
   31.2950   30.2620   36.2050 C   0  0  0  0  0  0  0  0  0  0  0  0
   31.4170   30.8830   34.9670 C   0  0  0  0  0  0  0  0  0  0  0  0
   32.0130   30.4280   34.2100 H   0  0  0  0  0  0  0  0  0  0  0  0
   30.7520   32.0730   34.7740 C   0  0  0  0  0  0  0  0  0  0  0  0
   30.8060   32.6070   33.8330 H   0  0  0  0  0  0  0  0  0  0  0  0
   29.9890   32.6230   35.7890 C   0  0  0  0  0  3  0  0  0  0  0  0
   29.8820   31.9840   37.0150 C   0  0  0  0  0  3  0  0  0  0  0  0
  1  6  1  0  0  0  0
  2  3  1  0  0  0  0
  2  1  2  0  0  0  0
  3  4  2  0  0  0  0
  4  5  1  0  0  0  0
  5 11  1  0  0  0  0
  6  5  2  0  0  0  0
  7  2  1  0  0  0  0
  8  3  1  0  0  0  0
 10  9  1  0  0  0  0
 10 15  1  0  0  0  0
 11 10  2  0  0  0  0
 12 11  1  0  0  0  0
 12 13  2  0  0  0  0
 13 14  1  0  0  0  0
 14 15  2  0  0  0  0
 14 18  1  0  0  0  0
 15 19  1  0  0  0  0
 16 12  1  0  0  0  0
 17 13  1  0  0  0  0
 20  1  1  0  0  0  0
 20 21  2  0  0  0  0
 22 21  1  0  0  0  0
 22 24  1  0  0  0  0
 23 22  1  0  0  0  0
 26 25  1  0  0  0  0
 27 22  1  0  0  0  0
 27 26  2  0  0  0  0
 28 27  1  0  0  0  0
 29 28  1  0  0  0  0
 30 28  2  0  0  0  0
 30 32  1  0  0  0  0
 31 30  1  0  0  0  0
 32 33  2  0  0  0  0
 33 26  1  0  0  0  0
M  END
>  <minimizedAffinity>
-5.58567047

$$$$
