
 OpenBabel03252508463D

 45 47  0  0  0  0  0  0  0  0999 V2000
   42.6820   31.4470   42.5780 N   0  0  0  0  0  0  0  0  0  0  0  0
   42.9870   31.6640   43.5550 H   0  0  0  0  0  0  0  0  0  0  0  0
   42.9920   32.4880   41.6540 C   0  0  0  0  0  0  0  0  0  0  0  0
   42.0310   32.9590   41.2930 H   0  0  0  0  0  0  0  0  0  0  0  0
   43.4600   32.1060   40.7040 H   0  0  0  0  0  0  0  0  0  0  0  0
   43.6220   34.9000   41.8700 C   0  0  0  0  0  0  0  0  0  0  0  0
   43.8650   33.5720   42.1860 C   0  0  0  0  0  0  0  0  0  0  0  0
   44.9320   33.2810   43.0010 C   0  0  0  0  0  0  0  0  0  0  0  0
   45.7240   34.2800   43.4820 C   0  0  0  0  0  0  0  0  0  0  0  0
   45.5030   35.6070   43.1830 C   0  0  0  0  0  0  0  0  0  0  0  0
   44.4200   35.8610   42.3580 C   0  0  0  0  0  0  0  0  0  0  0  0
   45.0890   32.2270   43.2240 H   0  0  0  0  0  0  0  0  0  0  0  0
   46.5520   33.9740   44.1240 H   0  0  0  0  0  0  0  0  0  0  0  0
   46.1510   36.3780   43.5800 H   0  0  0  0  0  0  0  0  0  0  0  0
   44.2210   36.8990   42.1050 H   0  0  0  0  0  0  0  0  0  0  0  0
   40.1730   35.7330   40.5430 C   0  0  0  0  0  0  0  0  0  0  0  0
   41.2090   35.5180   41.4730 C   0  0  0  0  0  0  0  0  0  0  0  0
   42.4700   35.1520   40.9990 C   0  0  0  0  0  0  0  0  0  0  0  0
   42.6200   35.0240   39.6570 N   0  0  0  0  0  0  0  0  0  0  0  0
   41.6020   35.2380   38.7790 C   0  0  0  0  0  0  0  0  0  0  0  0
   40.3950   35.5900   39.2410 N   0  0  0  0  0  0  0  0  0  0  0  0
   39.2260   36.0120   40.9560 H   0  0  0  0  0  0  0  0  0  0  0  0
   41.0870   35.6210   42.5540 H   0  0  0  0  0  0  0  0  0  0  0  0
   41.8750   35.0980   37.7410 H   0  0  0  0  0  0  0  0  0  0  0  0
   40.9980   31.0840   42.6310 S   0  0  0  0  0  0  0  0  0  0  0  0
   40.1650   32.3260   42.4460 O   0  0  0  0  0  0  0  0  0  0  0  0
   39.4120   32.4320   41.8070 H   0  0  0  0  0  0  0  0  0  0  0  0
   40.6290   30.3980   43.8910 O   0  0  0  0  0  0  0  0  0  0  0  0
   39.8870   30.6660   44.4560 H   0  0  0  0  0  0  0  0  0  0  0  0
   40.6850   30.0530   41.3340 O   0  0  0  0  0  0  0  0  0  0  0  0
   39.8420   29.0500   41.8040 C   0  0  0  0  0  0  0  0  0  0  0  0
   39.3900   29.2350   42.7740 H   0  0  0  0  0  0  0  0  0  0  0  0
   39.0010   28.9620   41.0670 H   0  0  0  0  0  0  0  0  0  0  0  0
   40.5720   27.7170   41.7530 C   0  0  0  0  0  0  0  0  0  0  0  0
   41.1680   27.6510   42.6990 H   0  0  0  0  0  0  0  0  0  0  0  0
   41.2120   27.6340   40.8610 H   0  0  0  0  0  0  0  0  0  0  0  0
   41.2560   25.0460   43.1570 Cl  0  0  0  0  0  0  0  0  0  0  0  0
   39.7680   25.4180   42.3170 C   0  0  0  0  0  0  0  0  0  0  0  0
   39.5480   26.6490   41.7090 C   0  0  0  0  0  0  0  0  0  0  0  0
   38.3360   26.8150   41.0710 C   0  0  0  0  0  0  0  0  0  0  0  0
   38.0940   27.7620   40.5700 H   0  0  0  0  0  0  0  0  0  0  0  0
   37.3970   25.8040   41.0460 C   0  0  0  0  0  0  0  0  0  0  0  0
   36.4170   25.8860   40.5500 H   0  0  0  0  0  0  0  0  0  0  0  0
   37.6080   24.5800   41.6470 C   0  0  0  0  0  3  0  0  0  0  0  0
   38.8030   24.4010   42.2820 C   0  0  0  0  0  3  0  0  0  0  0  0
  1 25  1  0  0  0  0
  1  2  1  0  0  0  0
  3  7  1  0  0  0  0
  3  1  1  0  0  0  0
  4  3  1  0  0  0  0
  5  3  1  0  0  0  0
  6  7  2  0  0  0  0
  6 11  1  0  0  0  0
  7  8  1  0  0  0  0
  8 12  1  0  0  0  0
  8  9  2  0  0  0  0
  9 13  1  0  0  0  0
 10  9  1  0  0  0  0
 10 14  1  0  0  0  0
 11 10  2  0  0  0  0
 15 11  1  0  0  0  0
 16 22  1  0  0  0  0
 16 17  1  0  0  0  0
 17 23  1  0  0  0  0
 18 17  2  0  0  0  0
 18  6  1  0  0  0  0
 19 18  1  0  0  0  0
 20 21  1  0  0  0  0
 20 19  2  0  0  0  0
 21 16  2  0  0  0  0
 24 20  1  0  0  0  0
 25 28  1  0  0  0  0
 26 25  1  0  0  0  0
 27 26  1  0  0  0  0
 28 29  1  0  0  0  0
 30 31  1  0  0  0  0
 30 25  1  0  0  0  0
 31 32  1  0  0  0  0
 33 31  1  0  0  0  0
 34 31  1  0  0  0  0
 34 35  1  0  0  0  0
 36 34  1  0  0  0  0
 38 37  1  0  0  0  0
 39 34  1  0  0  0  0
 39 38  2  0  0  0  0
 40 39  1  0  0  0  0
 41 40  1  0  0  0  0
 42 40  2  0  0  0  0
 42 44  1  0  0  0  0
 43 42  1  0  0  0  0
 44 45  2  0  0  0  0
 45 38  1  0  0  0  0
M  END
>  <minimizedAffinity>
-5.18069649

>  <minimizedRMSD>
0.791693151

$$$$
