
 OpenBabel03252508463D

 45 47  0  0  0  0  0  0  0  0999 V2000
   42.6790   31.4270   42.5710 N   0  0  0  0  0  0  0  0  0  0  0  0
   42.9910   31.6220   43.5500 H   0  0  0  0  0  0  0  0  0  0  0  0
   43.0010   32.4780   41.6630 C   0  0  0  0  0  0  0  0  0  0  0  0
   42.0460   32.9670   41.3100 H   0  0  0  0  0  0  0  0  0  0  0  0
   43.4620   32.1050   40.7070 H   0  0  0  0  0  0  0  0  0  0  0  0
   43.6750   34.8760   41.8990 C   0  0  0  0  0  0  0  0  0  0  0  0
   43.8890   33.5420   42.2100 C   0  0  0  0  0  0  0  0  0  0  0  0
   44.9410   33.2260   43.0360 C   0  0  0  0  0  0  0  0  0  0  0  0
   45.7470   34.2060   43.5310 C   0  0  0  0  0  0  0  0  0  0  0  0
   45.5550   35.5390   43.2370 C   0  0  0  0  0  0  0  0  0  0  0  0
   44.4860   35.8190   42.4020 C   0  0  0  0  0  0  0  0  0  0  0  0
   45.0750   32.1670   43.2550 H   0  0  0  0  0  0  0  0  0  0  0  0
   46.5620   33.8800   44.1800 H   0  0  0  0  0  0  0  0  0  0  0  0
   46.2130   36.2950   43.6460 H   0  0  0  0  0  0  0  0  0  0  0  0
   44.3110   36.8620   42.1520 H   0  0  0  0  0  0  0  0  0  0  0  0
   40.2590   35.7840   40.5390 C   0  0  0  0  0  0  0  0  0  0  0  0
   41.2800   35.5430   41.4790 C   0  0  0  0  0  0  0  0  0  0  0  0
   42.5390   35.1550   41.0170 C   0  0  0  0  0  0  0  0  0  0  0  0
   42.7010   35.0320   39.6760 N   0  0  0  0  0  0  0  0  0  0  0  0
   41.6970   35.2700   38.7890 C   0  0  0  0  0  0  0  0  0  0  0  0
   40.4920   35.6430   39.2390 N   0  0  0  0  0  0  0  0  0  0  0  0
   39.3120   36.0790   40.9430 H   0  0  0  0  0  0  0  0  0  0  0  0
   41.1480   35.6430   42.5590 H   0  0  0  0  0  0  0  0  0  0  0  0
   41.9790   35.1310   37.7530 H   0  0  0  0  0  0  0  0  0  0  0  0
   40.9900   31.0910   42.6260 S   0  0  0  0  0  0  0  0  0  0  0  0
   40.1760   32.3450   42.4430 O   0  0  0  0  0  0  0  0  0  0  0  0
   39.4240   32.4640   41.8050 H   0  0  0  0  0  0  0  0  0  0  0  0
   40.6120   30.4090   43.8870 O   0  0  0  0  0  0  0  0  0  0  0  0
   39.8750   30.6890   44.4530 H   0  0  0  0  0  0  0  0  0  0  0  0
   40.6580   30.0640   41.3290 O   0  0  0  0  0  0  0  0  0  0  0  0
   39.8270   29.0560   41.8080 C   0  0  0  0  0  0  0  0  0  0  0  0
   39.3870   29.2360   42.7840 H   0  0  0  0  0  0  0  0  0  0  0  0
   38.9770   28.9650   41.0820 H   0  0  0  0  0  0  0  0  0  0  0  0
   40.5640   27.7270   41.7440 C   0  0  0  0  0  0  0  0  0  0  0  0
   41.1700   27.6600   42.6840 H   0  0  0  0  0  0  0  0  0  0  0  0
   41.1960   27.6520   40.8460 H   0  0  0  0  0  0  0  0  0  0  0  0
   41.2620   25.0650   43.1560 Cl  0  0  0  0  0  0  0  0  0  0  0  0
   39.7730   25.4260   42.3180 C   0  0  0  0  0  0  0  0  0  0  0  0
   39.5460   26.6540   41.7050 C   0  0  0  0  0  0  0  0  0  0  0  0
   38.3310   26.8110   41.0680 C   0  0  0  0  0  0  0  0  0  0  0  0
   38.0840   27.7550   40.5630 H   0  0  0  0  0  0  0  0  0  0  0  0
   37.3990   25.7960   41.0470 C   0  0  0  0  0  0  0  0  0  0  0  0
   36.4180   25.8710   40.5510 H   0  0  0  0  0  0  0  0  0  0  0  0
   37.6160   24.5740   41.6520 C   0  0  0  0  0  3  0  0  0  0  0  0
   38.8130   24.4040   42.2860 C   0  0  0  0  0  3  0  0  0  0  0  0
  1 25  1  0  0  0  0
  1  2  1  0  0  0  0
  3  7  1  0  0  0  0
  3  1  1  0  0  0  0
  4  3  1  0  0  0  0
  5  3  1  0  0  0  0
  6  7  2  0  0  0  0
  6 11  1  0  0  0  0
  7  8  1  0  0  0  0
  8 12  1  0  0  0  0
  8  9  2  0  0  0  0
  9 13  1  0  0  0  0
 10  9  1  0  0  0  0
 10 14  1  0  0  0  0
 11 10  2  0  0  0  0
 15 11  1  0  0  0  0
 16 22  1  0  0  0  0
 16 17  1  0  0  0  0
 17 23  1  0  0  0  0
 18 17  2  0  0  0  0
 18  6  1  0  0  0  0
 19 18  1  0  0  0  0
 20 21  1  0  0  0  0
 20 19  2  0  0  0  0
 21 16  2  0  0  0  0
 24 20  1  0  0  0  0
 25 28  1  0  0  0  0
 26 25  1  0  0  0  0
 27 26  1  0  0  0  0
 28 29  1  0  0  0  0
 30 31  1  0  0  0  0
 30 25  1  0  0  0  0
 31 32  1  0  0  0  0
 33 31  1  0  0  0  0
 34 31  1  0  0  0  0
 34 35  1  0  0  0  0
 36 34  1  0  0  0  0
 38 37  1  0  0  0  0
 39 34  1  0  0  0  0
 39 38  2  0  0  0  0
 40 39  1  0  0  0  0
 41 40  1  0  0  0  0
 42 40  2  0  0  0  0
 42 44  1  0  0  0  0
 43 42  1  0  0  0  0
 44 45  2  0  0  0  0
 45 38  1  0  0  0  0
M  END
>  <minimizedAffinity>
-5.17372894

>  <minimizedRMSD>
0.71073699

$$$$
