
 OpenBabel03252504543D

 21 22  0  0  0  0  0  0  0  0999 V2000
   36.5750   27.3820   42.7630 C   0  0  0  0  0  0  0  0  0  0  0  0
   35.8350   26.5760   42.5320 H   0  0  0  0  0  0  0  0  0  0  0  0
   36.2300   27.7850   43.7390 H   0  0  0  0  0  0  0  0  0  0  0  0
   36.2110   29.1340   39.4820 C   0  0  0  0  0  0  0  0  0  0  0  0
   36.2030   28.1120   40.4540 C   0  0  0  0  0  0  0  0  0  0  0  0
   36.5880   28.4490   41.7620 C   0  0  0  0  0  0  0  0  0  0  0  0
   36.9480   29.7440   42.0180 N   0  0  0  0  0  0  0  0  0  0  0  0
   36.9400   30.6870   41.0530 C   0  0  0  0  0  0  0  0  0  0  0  0
   36.5730   30.3820   39.7990 N   0  0  0  0  0  0  0  0  0  0  0  0
   35.8910   28.7570   38.4980 H   0  0  0  0  0  0  0  0  0  0  0  0
   35.9160   27.0940   40.2330 H   0  0  0  0  0  0  0  0  0  0  0  0
   37.2180   31.7180   41.2250 H   0  0  0  0  0  0  0  0  0  0  0  0
   36.6980   24.5740   41.6780 Cl  0  0  0  0  0  0  0  0  0  0  0  0
   37.9890   25.4710   42.4750 C   0  0  0  0  0  0  0  0  0  0  0  0
   37.9220   26.7750   42.9780 C   0  0  0  0  0  0  0  0  0  0  0  0
   39.0440   27.3080   43.5740 C   0  0  0  0  0  0  0  0  0  0  0  0
   38.8800   28.3150   43.9240 H   0  0  0  0  0  0  0  0  0  0  0  0
   40.2010   26.5930   43.6800 C   0  0  0  0  0  0  0  0  0  0  0  0
   41.0400   27.1050   44.1710 H   0  0  0  0  0  0  0  0  0  0  0  0
   40.3040   25.2860   43.1890 C   0  0  0  0  0  3  0  0  0  0  0  0
   39.1830   24.7490   42.5910 C   0  0  0  0  0  3  0  0  0  0  0  0
  1 15  1  0  0  0  0
  1  3  1  0  0  0  0
  2  1  1  0  0  0  0
  4  9  2  0  0  0  0
  4  5  1  0  0  0  0
  5  6  2  0  0  0  0
  6  7  1  0  0  0  0
  6  1  1  0  0  0  0
  8 12  1  0  0  0  0
  8  7  2  0  0  0  0
  9  8  1  0  0  0  0
 10  4  1  0  0  0  0
 11  5  1  0  0  0  0
 13 14  1  0  0  0  0
 14 21  2  0  0  0  0
 14 15  1  0  0  0  0
 15 16  2  0  0  0  0
 16 18  1  0  0  0  0
 16 17  1  0  0  0  0
 18 19  1  0  0  0  0
 20 18  2  0  0  0  0
 21 20  1  0  0  0  0
M  END
>  <minimizedAffinity>
-4.59224892

$$$$

 OpenBabel03252504543D

 21 22  0  0  0  0  0  0  0  0999 V2000
   35.5550   29.0310   40.7570 C   0  0  0  0  0  0  0  0  0  0  0  0
   34.9970   28.4040   40.0170 H   0  0  0  0  0  0  0  0  0  0  0  0
   34.7640   29.3840   41.4520 H   0  0  0  0  0  0  0  0  0  0  0  0
   37.1130   31.2230   38.1620 C   0  0  0  0  0  0  0  0  0  0  0  0
   36.4680   30.1210   38.7620 C   0  0  0  0  0  0  0  0  0  0  0  0
   36.2260   30.1770   40.1440 C   0  0  0  0  0  0  0  0  0  0  0  0
   36.6270   31.2930   40.8280 N   0  0  0  0  0  0  0  0  0  0  0  0
   37.2410   32.3230   40.2080 C   0  0  0  0  0  0  0  0  0  0  0  0
   37.4790   32.2850   38.8880 N   0  0  0  0  0  0  0  0  0  0  0  0
   37.2500   31.0700   37.0800 H   0  0  0  0  0  0  0  0  0  0  0  0
   36.1600   29.2480   38.2060 H   0  0  0  0  0  0  0  0  0  0  0  0
   37.5680   33.2170   40.7200 H   0  0  0  0  0  0  0  0  0  0  0  0
   36.3030   26.5510   39.2170 Cl  0  0  0  0  0  0  0  0  0  0  0  0
   36.8420   27.0130   40.8310 C   0  0  0  0  0  0  0  0  0  0  0  0
   36.4880   28.1660   41.5390 C   0  0  0  0  0  0  0  0  0  0  0  0
   37.0140   28.3520   42.7980 C   0  0  0  0  0  0  0  0  0  0  0  0
   36.6750   29.2700   43.2510 H   0  0  0  0  0  0  0  0  0  0  0  0
   37.8630   27.4410   43.3560 C   0  0  0  0  0  0  0  0  0  0  0  0
   38.2300   27.6790   44.3650 H   0  0  0  0  0  0  0  0  0  0  0  0
   38.2380   26.2760   42.6770 C   0  0  0  0  0  3  0  0  0  0  0  0
   37.7140   26.0860   41.4160 C   0  0  0  0  0  3  0  0  0  0  0  0
  1  3  1  0  0  0  0
  1 15  1  0  0  0  0
  2  1  1  0  0  0  0
  4  5  2  0  0  0  0
  4  9  1  0  0  0  0
  5  6  1  0  0  0  0
  6  1  1  0  0  0  0
  6  7  2  0  0  0  0
  8 12  1  0  0  0  0
  8  7  1  0  0  0  0
  9  8  2  0  0  0  0
 10  4  1  0  0  0  0
 11  5  1  0  0  0  0
 13 14  1  0  0  0  0
 14 21  2  0  0  0  0
 14 15  1  0  0  0  0
 15 16  2  0  0  0  0
 16 17  1  0  0  0  0
 16 18  1  0  0  0  0
 18 19  1  0  0  0  0
 20 18  2  0  0  0  0
 21 20  1  0  0  0  0
M  END
>  <minimizedAffinity>
-4.49666405

$$$$

 OpenBabel03252504543D

 21 22  0  0  0  0  0  0  0  0999 V2000
   37.7110   28.0130   43.5630 C   0  0  0  0  0  0  0  0  0  0  0  0
   36.8400   28.0270   44.2640 H   0  0  0  0  0  0  0  0  0  0  0  0
   38.5890   28.1390   44.2310 H   0  0  0  0  0  0  0  0  0  0  0  0
   38.8110   30.9190   41.4850 C   0  0  0  0  0  0  0  0  0  0  0  0
   38.8360   29.8710   42.4300 C   0  0  0  0  0  0  0  0  0  0  0  0
   37.6730   29.0980   42.5820 C   0  0  0  0  0  0  0  0  0  0  0  0
   36.5870   29.4030   41.8080 N   0  0  0  0  0  0  0  0  0  0  0  0
   36.6110   30.4170   40.9170 C   0  0  0  0  0  0  0  0  0  0  0  0
   37.7150   31.1640   40.7590 N   0  0  0  0  0  0  0  0  0  0  0  0
   39.7720   31.4540   41.4510 H   0  0  0  0  0  0  0  0  0  0  0  0
   39.7040   29.6450   43.0320 H   0  0  0  0  0  0  0  0  0  0  0  0
   35.7700   30.6810   40.2930 H   0  0  0  0  0  0  0  0  0  0  0  0
   40.5350   26.9700   43.6800 Cl  0  0  0  0  0  0  0  0  0  0  0  0
   39.1270   26.1720   42.9800 C   0  0  0  0  0  0  0  0  0  0  0  0
   37.8190   26.6650   42.9280 C   0  0  0  0  0  0  0  0  0  0  0  0
   36.8470   25.8900   42.3350 C   0  0  0  0  0  0  0  0  0  0  0  0
   35.8800   26.3660   42.3510 H   0  0  0  0  0  0  0  0  0  0  0  0
   37.1380   24.6680   41.8040 C   0  0  0  0  0  0  0  0  0  0  0  0
   36.2950   24.1260   41.3520 H   0  0  0  0  0  0  0  0  0  0  0  0
   38.4360   24.1430   41.8370 C   0  0  0  0  0  3  0  0  0  0  0  0
   39.4110   24.9160   42.4300 C   0  0  0  0  0  3  0  0  0  0  0  0
  1  3  1  0  0  0  0
  1  2  1  0  0  0  0
  4  5  1  0  0  0  0
  5  6  2  0  0  0  0
  5 11  1  0  0  0  0
  6  1  1  0  0  0  0
  7  6  1  0  0  0  0
  8  7  2  0  0  0  0
  9  8  1  0  0  0  0
  9  4  2  0  0  0  0
 10  4  1  0  0  0  0
 12  8  1  0  0  0  0
 14 13  1  0  0  0  0
 15 14  1  0  0  0  0
 15  1  1  0  0  0  0
 16 17  1  0  0  0  0
 16 15  2  0  0  0  0
 18 20  2  0  0  0  0
 18 16  1  0  0  0  0
 19 18  1  0  0  0  0
 20 21  1  0  0  0  0
 21 14  2  0  0  0  0
M  END
>  <minimizedAffinity>
-4.49267292

$$$$

 OpenBabel03252504543D

 21 22  0  0  0  0  0  0  0  0999 V2000
   36.2180   30.5660   41.0420 C   0  0  0  0  0  0  0  0  0  0  0  0
   36.4250   31.5870   41.4490 H   0  0  0  0  0  0  0  0  0  0  0  0
   35.1180   30.4560   41.1510 H   0  0  0  0  0  0  0  0  0  0  0  0
   38.8470   28.7740   43.0030 C   0  0  0  0  0  0  0  0  0  0  0  0
   38.1820   29.7900   42.2850 C   0  0  0  0  0  0  0  0  0  0  0  0
   36.9000   29.5060   41.7830 C   0  0  0  0  0  0  0  0  0  0  0  0
   36.3730   28.2650   42.0200 N   0  0  0  0  0  0  0  0  0  0  0  0
   37.0490   27.3260   42.7140 C   0  0  0  0  0  0  0  0  0  0  0  0
   38.2740   27.5820   43.2000 N   0  0  0  0  0  0  0  0  0  0  0  0
   39.8380   29.1070   43.3470 H   0  0  0  0  0  0  0  0  0  0  0  0
   38.6150   30.7630   42.1070 H   0  0  0  0  0  0  0  0  0  0  0  0
   36.6580   26.3390   42.9170 H   0  0  0  0  0  0  0  0  0  0  0  0
   37.6940   33.0520   40.1910 Cl  0  0  0  0  0  0  0  0  0  0  0  0
   37.2160   31.6910   39.1770 C   0  0  0  0  0  0  0  0  0  0  0  0
   36.5290   30.5400   39.5810 C   0  0  0  0  0  0  0  0  0  0  0  0
   36.2410   29.5810   38.6360 C   0  0  0  0  0  0  0  0  0  0  0  0
   35.7120   28.7410   39.0560 H   0  0  0  0  0  0  0  0  0  0  0  0
   36.6110   29.7330   37.3320 C   0  0  0  0  0  0  0  0  0  0  0  0
   36.3360   28.9130   36.6540 H   0  0  0  0  0  0  0  0  0  0  0  0
   37.2990   30.8710   36.8920 C   0  0  0  0  0  3  0  0  0  0  0  0
   37.5880   31.8340   37.8350 C   0  0  0  0  0  3  0  0  0  0  0  0
  1  3  1  0  0  0  0
  1  2  1  0  0  0  0
  1  6  1  0  0  0  0
  4  9  1  0  0  0  0
  4 10  1  0  0  0  0
  5  4  2  0  0  0  0
  6  7  2  0  0  0  0
  6  5  1  0  0  0  0
  7  8  1  0  0  0  0
  8 12  1  0  0  0  0
  8  9  2  0  0  0  0
 11  5  1  0  0  0  0
 14 15  1  0  0  0  0
 14 13  1  0  0  0  0
 15  1  1  0  0  0  0
 16 17  1  0  0  0  0
 16 15  2  0  0  0  0
 18 16  1  0  0  0  0
 19 18  1  0  0  0  0
 20 18  2  0  0  0  0
 20 21  1  0  0  0  0
 21 14  2  0  0  0  0
M  END
>  <minimizedAffinity>
-4.4888134

$$$$

 OpenBabel03252504543D

 21 22  0  0  0  0  0  0  0  0999 V2000
   36.9040   27.4660   42.8560 C   0  0  0  0  0  0  0  0  0  0  0  0
   37.4550   27.9210   43.7160 H   0  0  0  0  0  0  0  0  0  0  0  0
   35.9430   27.1340   43.3040 H   0  0  0  0  0  0  0  0  0  0  0  0
   37.5430   24.0130   41.5750 C   0  0  0  0  0  0  0  0  0  0  0  0
   36.8790   25.1230   42.1390 C   0  0  0  0  0  0  0  0  0  0  0  0
   37.6020   26.3200   42.2720 C   0  0  0  0  0  0  0  0  0  0  0  0
   38.9030   26.3410   41.8490 N   0  0  0  0  0  0  0  0  0  0  0  0
   39.4950   25.2520   41.3160 C   0  0  0  0  0  0  0  0  0  0  0  0
   38.8180   24.1010   41.1810 N   0  0  0  0  0  0  0  0  0  0  0  0
   36.8820   23.1340   41.5200 H   0  0  0  0  0  0  0  0  0  0  0  0
   35.8510   25.0870   42.4680 H   0  0  0  0  0  0  0  0  0  0  0  0
   40.5200   25.2390   40.9730 H   0  0  0  0  0  0  0  0  0  0  0  0
   38.8020   29.7950   43.0840 Cl  0  0  0  0  0  0  0  0  0  0  0  0
   37.4670   29.6090   41.9470 C   0  0  0  0  0  0  0  0  0  0  0  0
   36.5890   28.5230   41.8500 C   0  0  0  0  0  0  0  0  0  0  0  0
   35.6010   28.5620   40.8910 C   0  0  0  0  0  0  0  0  0  0  0  0
   34.9850   27.6770   40.9060 H   0  0  0  0  0  0  0  0  0  0  0  0
   35.4670   29.6260   40.0500 C   0  0  0  0  0  0  0  0  0  0  0  0
   34.6480   29.5630   39.3190 H   0  0  0  0  0  0  0  0  0  0  0  0
   36.3260   30.7300   40.1190 C   0  0  0  0  0  3  0  0  0  0  0  0
   37.3170   30.6950   41.0770 C   0  0  0  0  0  3  0  0  0  0  0  0
  1  3  1  0  0  0  0
  1  2  1  0  0  0  0
  4  5  1  0  0  0  0
  5  6  2  0  0  0  0
  5 11  1  0  0  0  0
  6  1  1  0  0  0  0
  7  6  1  0  0  0  0
  8  7  2  0  0  0  0
  9  8  1  0  0  0  0
  9  4  2  0  0  0  0
 10  4  1  0  0  0  0
 12  8  1  0  0  0  0
 14 13  1  0  0  0  0
 15 14  1  0  0  0  0
 15  1  1  0  0  0  0
 16 17  1  0  0  0  0
 16 15  2  0  0  0  0
 18 20  2  0  0  0  0
 18 16  1  0  0  0  0
 19 18  1  0  0  0  0
 20 21  1  0  0  0  0
 21 14  2  0  0  0  0
M  END
>  <minimizedAffinity>
-4.47864246

$$$$

 OpenBabel03252504543D

 21 22  0  0  0  0  0  0  0  0999 V2000
   37.4440   28.2050   43.4670 C   0  0  0  0  0  0  0  0  0  0  0  0
   37.4750   28.4480   44.5580 H   0  0  0  0  0  0  0  0  0  0  0  0
   36.3580   28.1780   43.2340 H   0  0  0  0  0  0  0  0  0  0  0  0
   39.9230   25.4100   43.3820 C   0  0  0  0  0  0  0  0  0  0  0  0
   39.3280   26.6540   43.6800 C   0  0  0  0  0  0  0  0  0  0  0  0
   38.0530   26.9130   43.1500 C   0  0  0  0  0  0  0  0  0  0  0  0
   37.4630   25.9490   42.3800 N   0  0  0  0  0  0  0  0  0  0  0  0
   38.0730   24.7730   42.1230 C   0  0  0  0  0  0  0  0  0  0  0  0
   39.2910   24.5090   42.6220 N   0  0  0  0  0  0  0  0  0  0  0  0
   40.9160   25.3160   43.8470 H   0  0  0  0  0  0  0  0  0  0  0  0
   39.8100   27.4040   44.2900 H   0  0  0  0  0  0  0  0  0  0  0  0
   37.6320   23.9920   41.5190 H   0  0  0  0  0  0  0  0  0  0  0  0
   35.7670   28.8840   41.0570 Cl  0  0  0  0  0  0  0  0  0  0  0  0
   37.2680   29.6550   41.5690 C   0  0  0  0  0  0  0  0  0  0  0  0
   38.0420   29.3320   42.6890 C   0  0  0  0  0  0  0  0  0  0  0  0
   39.1920   30.0520   42.9240 C   0  0  0  0  0  0  0  0  0  0  0  0
   39.7070   29.7190   43.8110 H   0  0  0  0  0  0  0  0  0  0  0  0
   39.5820   31.0600   42.0920 C   0  0  0  0  0  0  0  0  0  0  0  0
   40.5150   31.5750   42.3640 H   0  0  0  0  0  0  0  0  0  0  0  0
   38.8340   31.4100   40.9620 C   0  0  0  0  0  3  0  0  0  0  0  0
   37.6810   30.6920   40.7240 C   0  0  0  0  0  3  0  0  0  0  0  0
  1  2  1  0  0  0  0
  3  1  1  0  0  0  0
  4  5  1  0  0  0  0
  4 10  1  0  0  0  0
  5 11  1  0  0  0  0
  6  1  1  0  0  0  0
  6  5  2  0  0  0  0
  7  6  1  0  0  0  0
  8  7  2  0  0  0  0
  8  9  1  0  0  0  0
  9  4  2  0  0  0  0
 12  8  1  0  0  0  0
 13 14  1  0  0  0  0
 14 15  1  0  0  0  0
 15 16  2  0  0  0  0
 15  1  1  0  0  0  0
 16 17  1  0  0  0  0
 18 19  1  0  0  0  0
 18 16  1  0  0  0  0
 20 18  2  0  0  0  0
 21 20  1  0  0  0  0
 21 14  2  0  0  0  0
M  END
>  <minimizedAffinity>
-4.42717218

$$$$

 OpenBabel03252504543D

 21 22  0  0  0  0  0  0  0  0999 V2000
   36.8380   31.2310   40.9850 C   0  0  0  0  0  0  0  0  0  0  0  0
   36.0080   31.0020   40.2710 H   0  0  0  0  0  0  0  0  0  0  0  0
   36.3690   31.9150   41.7240 H   0  0  0  0  0  0  0  0  0  0  0  0
   39.5150   32.0060   38.4940 C   0  0  0  0  0  0  0  0  0  0  0  0
   38.4200   31.3730   39.1190 C   0  0  0  0  0  0  0  0  0  0  0  0
   37.9750   31.8940   40.3460 C   0  0  0  0  0  0  0  0  0  0  0  0
   38.6260   32.9810   40.8620 N   0  0  0  0  0  0  0  0  0  0  0  0
   39.6700   33.5520   40.2250 C   0  0  0  0  0  0  0  0  0  0  0  0
   40.1060   33.0670   39.0520 N   0  0  0  0  0  0  0  0  0  0  0  0
   39.7750   31.5160   37.5440 H   0  0  0  0  0  0  0  0  0  0  0  0
   37.9190   30.5140   38.6970 H   0  0  0  0  0  0  0  0  0  0  0  0
   40.2030   34.4120   40.6080 H   0  0  0  0  0  0  0  0  0  0  0  0
   34.9530   28.9640   40.3640 Cl  0  0  0  0  0  0  0  0  0  0  0  0
   36.3590   28.9270   41.4270 C   0  0  0  0  0  0  0  0  0  0  0  0
   37.2290   29.9860   41.7110 C   0  0  0  0  0  0  0  0  0  0  0  0
   38.2780   29.7610   42.5740 C   0  0  0  0  0  0  0  0  0  0  0  0
   38.8810   30.6430   42.7200 H   0  0  0  0  0  0  0  0  0  0  0  0
   38.4790   28.5400   43.1470 C   0  0  0  0  0  0  0  0  0  0  0  0
   39.3440   28.4610   43.8220 H   0  0  0  0  0  0  0  0  0  0  0  0
   37.6290   27.4580   42.8870 C   0  0  0  0  0  3  0  0  0  0  0  0
   36.5780   27.6790   42.0230 C   0  0  0  0  0  3  0  0  0  0  0  0
  1 15  1  0  0  0  0
  1  3  1  0  0  0  0
  2  1  1  0  0  0  0
  4  9  2  0  0  0  0
  4  5  1  0  0  0  0
  5  6  2  0  0  0  0
  6  7  1  0  0  0  0
  6  1  1  0  0  0  0
  8 12  1  0  0  0  0
  8  7  2  0  0  0  0
  9  8  1  0  0  0  0
 10  4  1  0  0  0  0
 11  5  1  0  0  0  0
 13 14  1  0  0  0  0
 14 15  2  0  0  0  0
 14 21  1  0  0  0  0
 15 16  1  0  0  0  0
 16 17  1  0  0  0  0
 16 18  2  0  0  0  0
 18 19  1  0  0  0  0
 20 18  1  0  0  0  0
 21 20  2  0  0  0  0
M  END
>  <minimizedAffinity>
-4.40928984

$$$$

 OpenBabel03252504543D

 21 22  0  0  0  0  0  0  0  0999 V2000
   36.6250   30.5650   41.1590 C   0  0  0  0  0  0  0  0  0  0  0  0
   35.5570   30.7830   41.4100 H   0  0  0  0  0  0  0  0  0  0  0  0
   37.1790   31.4240   41.5950 H   0  0  0  0  0  0  0  0  0  0  0  0
   36.1750   29.7060   37.5500 C   0  0  0  0  0  0  0  0  0  0  0  0
   35.9470   29.7790   38.9400 C   0  0  0  0  0  0  0  0  0  0  0  0
   36.8720   30.4940   39.7190 C   0  0  0  0  0  0  0  0  0  0  0  0
   37.9370   31.0770   39.0880 N   0  0  0  0  0  0  0  0  0  0  0  0
   38.1130   30.9780   37.7530 C   0  0  0  0  0  0  0  0  0  0  0  0
   37.2370   30.3000   36.9950 N   0  0  0  0  0  0  0  0  0  0  0  0
   35.3900   29.1250   37.0420 H   0  0  0  0  0  0  0  0  0  0  0  0
   35.1010   29.3110   39.4210 H   0  0  0  0  0  0  0  0  0  0  0  0
   38.9430   31.4280   37.2270 H   0  0  0  0  0  0  0  0  0  0  0  0
   39.3800   30.9090   42.3320 Cl  0  0  0  0  0  0  0  0  0  0  0  0
   38.3440   29.4860   42.4320 C   0  0  0  0  0  0  0  0  0  0  0  0
   37.0660   29.3340   41.8820 C   0  0  0  0  0  0  0  0  0  0  0  0
   36.4090   28.1380   42.0660 C   0  0  0  0  0  0  0  0  0  0  0  0
   35.4350   28.1320   41.6020 H   0  0  0  0  0  0  0  0  0  0  0  0
   36.9770   27.1140   42.7660 C   0  0  0  0  0  0  0  0  0  0  0  0
   36.3740   26.2000   42.8580 H   0  0  0  0  0  0  0  0  0  0  0  0
   38.2540   27.2300   43.3290 C   0  0  0  0  0  3  0  0  0  0  0  0
   38.9150   28.4260   43.1470 C   0  0  0  0  0  3  0  0  0  0  0  0
  1  2  1  0  0  0  0
  1  3  1  0  0  0  0
  1 15  1  0  0  0  0
  4  5  1  0  0  0  0
  5 11  1  0  0  0  0
  5  6  2  0  0  0  0
  6  1  1  0  0  0  0
  7  6  1  0  0  0  0
  8  7  2  0  0  0  0
  9  4  2  0  0  0  0
  9  8  1  0  0  0  0
 10  4  1  0  0  0  0
 12  8  1  0  0  0  0
 13 14  1  0  0  0  0
 14 21  1  0  0  0  0
 15 16  1  0  0  0  0
 15 14  2  0  0  0  0
 16 18  2  0  0  0  0
 17 16  1  0  0  0  0
 18 19  1  0  0  0  0
 18 20  1  0  0  0  0
 21 20  2  0  0  0  0
M  END
>  <minimizedAffinity>
-4.31487703

$$$$

 OpenBabel03252504543D

 21 22  0  0  0  0  0  0  0  0999 V2000
   36.9080   26.7570   43.0900 C   0  0  0  0  0  0  0  0  0  0  0  0
   35.8570   26.5760   43.4270 H   0  0  0  0  0  0  0  0  0  0  0  0
   37.4920   26.7530   44.0350 H   0  0  0  0  0  0  0  0  0  0  0  0
   36.2740   29.6200   40.7730 C   0  0  0  0  0  0  0  0  0  0  0  0
   36.1210   28.3840   41.4370 C   0  0  0  0  0  0  0  0  0  0  0  0
   37.0770   28.0390   42.4070 C   0  0  0  0  0  0  0  0  0  0  0  0
   38.0980   28.9170   42.6510 N   0  0  0  0  0  0  0  0  0  0  0  0
   38.2020   30.0880   41.9890 C   0  0  0  0  0  0  0  0  0  0  0  0
   37.2960   30.4330   41.0610 N   0  0  0  0  0  0  0  0  0  0  0  0
   35.4710   29.7850   40.0390 H   0  0  0  0  0  0  0  0  0  0  0  0
   35.3080   27.7040   41.2300 H   0  0  0  0  0  0  0  0  0  0  0  0
   38.9950   30.8010   42.1610 H   0  0  0  0  0  0  0  0  0  0  0  0
   39.7870   26.0870   43.6770 Cl  0  0  0  0  0  0  0  0  0  0  0  0
   38.7110   25.2800   42.5380 C   0  0  0  0  0  0  0  0  0  0  0  0
   37.3750   25.5990   42.2700 C   0  0  0  0  0  0  0  0  0  0  0  0
   36.6940   24.8480   41.3380 C   0  0  0  0  0  0  0  0  0  0  0  0
   35.6760   25.1800   41.2120 H   0  0  0  0  0  0  0  0  0  0  0  0
   37.2940   23.8140   40.6820 C   0  0  0  0  0  0  0  0  0  0  0  0
   36.6680   23.2750   39.9560 H   0  0  0  0  0  0  0  0  0  0  0  0
   38.6290   23.4670   40.9230 C   0  0  0  0  0  3  0  0  0  0  0  0
   39.3140   24.2160   41.8560 C   0  0  0  0  0  3  0  0  0  0  0  0
  1  2  1  0  0  0  0
  1  3  1  0  0  0  0
  4  9  2  0  0  0  0
  4  5  1  0  0  0  0
  5  6  2  0  0  0  0
  6  7  1  0  0  0  0
  6  1  1  0  0  0  0
  8 12  1  0  0  0  0
  8  7  2  0  0  0  0
  9  8  1  0  0  0  0
 10  4  1  0  0  0  0
 11  5  1  0  0  0  0
 14 13  1  0  0  0  0
 15 14  1  0  0  0  0
 15  1  1  0  0  0  0
 16 15  2  0  0  0  0
 17 16  1  0  0  0  0
 18 20  2  0  0  0  0
 18 16  1  0  0  0  0
 19 18  1  0  0  0  0
 20 21  1  0  0  0  0
 21 14  2  0  0  0  0
M  END
>  <minimizedAffinity>
-4.28012896

$$$$
