
 OpenBabel03252508483D

 45 47  0  0  0  0  0  0  0  0999 V2000
   36.8140   29.1950   42.9830 N   0  0  0  0  0  0  0  0  0  0  0  0
   36.5690   29.8910   43.7250 H   0  0  0  0  0  0  0  0  0  0  0  0
   38.0430   28.5190   43.2370 C   0  0  0  0  0  0  0  0  0  0  0  0
   38.2690   28.5660   44.3430 H   0  0  0  0  0  0  0  0  0  0  0  0
   38.9310   29.0350   42.7760 H   0  0  0  0  0  0  0  0  0  0  0  0
   39.2900   26.4400   42.6170 C   0  0  0  0  0  0  0  0  0  0  0  0
   38.0820   27.0900   42.8190 C   0  0  0  0  0  0  0  0  0  0  0  0
   36.9200   26.3820   42.6230 C   0  0  0  0  0  0  0  0  0  0  0  0
   36.9660   25.0750   42.2410 C   0  0  0  0  0  0  0  0  0  0  0  0
   38.1540   24.4070   42.0340 C   0  0  0  0  0  0  0  0  0  0  0  0
   39.3030   25.1530   42.2400 C   0  0  0  0  0  0  0  0  0  0  0  0
   35.9940   26.9280   42.7910 H   0  0  0  0  0  0  0  0  0  0  0  0
   36.0050   24.5770   42.1050 H   0  0  0  0  0  0  0  0  0  0  0  0
   38.1580   23.3680   41.7290 H   0  0  0  0  0  0  0  0  0  0  0  0
   40.2550   24.6530   42.0830 H   0  0  0  0  0  0  0  0  0  0  0  0
   42.1440   28.9040   42.2540 C   0  0  0  0  0  0  0  0  0  0  0  0
   40.9720   28.1900   41.9340 C   0  0  0  0  0  0  0  0  0  0  0  0
   40.4950   27.2430   42.8420 C   0  0  0  0  0  0  0  0  0  0  0  0
   41.1990   27.0670   43.9880 N   0  0  0  0  0  0  0  0  0  0  0  0
   42.3290   27.7700   44.2730 C   0  0  0  0  0  0  0  0  0  0  0  0
   42.7800   28.6780   43.3980 N   0  0  0  0  0  0  0  0  0  0  0  0
   42.4680   29.6190   41.5260 H   0  0  0  0  0  0  0  0  0  0  0  0
   40.4060   28.3330   41.0100 H   0  0  0  0  0  0  0  0  0  0  0  0
   42.7780   27.5190   45.2260 H   0  0  0  0  0  0  0  0  0  0  0  0
   36.8120   30.0270   41.4740 S   0  0  0  0  0  0  0  0  0  0  0  0
   35.6820   31.0210   41.3990 O   0  0  0  0  0  0  0  0  0  0  0  0
   35.7610   31.9740   41.1320 H   0  0  0  0  0  0  0  0  0  0  0  0
   36.7460   29.0840   40.3330 O   0  0  0  0  0  0  0  0  0  0  0  0
   36.1190   29.1670   39.5970 H   0  0  0  0  0  0  0  0  0  0  0  0
   38.2620   30.8850   41.3920 O   0  0  0  0  0  0  0  0  0  0  0  0
   38.3020   31.5010   40.1450 C   0  0  0  0  0  0  0  0  0  0  0  0
   37.4860   31.2510   39.4720 H   0  0  0  0  0  0  0  0  0  0  0  0
   38.2430   32.6060   40.3280 H   0  0  0  0  0  0  0  0  0  0  0  0
   39.6640   31.2640   39.5120 C   0  0  0  0  0  0  0  0  0  0  0  0
   39.4660   30.7960   38.5130 H   0  0  0  0  0  0  0  0  0  0  0  0
   40.3030   30.6250   40.1410 H   0  0  0  0  0  0  0  0  0  0  0  0
   41.5470   31.6170   37.0810 Cl  0  0  0  0  0  0  0  0  0  0  0  0
   41.1740   32.8310   38.2820 C   0  0  0  0  0  0  0  0  0  0  0  0
   40.3160   32.5820   39.3480 C   0  0  0  0  0  0  0  0  0  0  0  0
   40.1100   33.6210   40.2320 C   0  0  0  0  0  0  0  0  0  0  0  0
   39.4440   33.4940   41.0970 H   0  0  0  0  0  0  0  0  0  0  0  0
   40.7290   34.8420   40.0570 C   0  0  0  0  0  0  0  0  0  0  0  0
   40.5980   35.7000   40.7340 H   0  0  0  0  0  0  0  0  0  0  0  0
   41.5820   35.0980   39.0020 C   0  0  0  0  0  3  0  0  0  0  0  0
   41.7940   34.0780   38.1190 C   0  0  0  0  0  3  0  0  0  0  0  0
  1  3  1  0  0  0  0
  1  2  1  0  0  0  0
  3  4  1  0  0  0  0
  5  3  1  0  0  0  0
  6  7  1  0  0  0  0
  6 18  1  0  0  0  0
  7  3  1  0  0  0  0
  8 12  1  0  0  0  0
  8  7  2  0  0  0  0
  9  8  1  0  0  0  0
 10 11  1  0  0  0  0
 10  9  2  0  0  0  0
 11  6  2  0  0  0  0
 13  9  1  0  0  0  0
 14 10  1  0  0  0  0
 15 11  1  0  0  0  0
 16 21  1  0  0  0  0
 17 16  2  0  0  0  0
 17 18  1  0  0  0  0
 18 19  2  0  0  0  0
 19 20  1  0  0  0  0
 20 24  1  0  0  0  0
 21 20  2  0  0  0  0
 22 16  1  0  0  0  0
 23 17  1  0  0  0  0
 25  1  1  0  0  0  0
 26 25  1  0  0  0  0
 27 26  1  0  0  0  0
 28 25  1  0  0  0  0
 29 28  1  0  0  0  0
 30 25  1  0  0  0  0
 31 33  1  0  0  0  0
 31 30  1  0  0  0  0
 32 31  1  0  0  0  0
 34 36  1  0  0  0  0
 34 31  1  0  0  0  0
 35 34  1  0  0  0  0
 37 38  1  0  0  0  0
 38 39  1  0  0  0  0
 39 34  1  0  0  0  0
 39 40  2  0  0  0  0
 40 41  1  0  0  0  0
 42 40  1  0  0  0  0
 42 43  1  0  0  0  0
 44 42  2  0  0  0  0
 45 38  2  0  0  0  0
 45 44  1  0  0  0  0
M  END
>  <minimizedAffinity>
-6.06527805

$$$$

 OpenBabel03252508483D

 45 47  0  0  0  0  0  0  0  0999 V2000
   34.0470   29.3990   39.5850 N   0  0  0  0  0  0  0  0  0  0  0  0
   33.4850   29.0350   40.3890 H   0  0  0  0  0  0  0  0  0  0  0  0
   34.0690   28.5070   38.4730 C   0  0  0  0  0  0  0  0  0  0  0  0
   33.5830   27.5320   38.7710 H   0  0  0  0  0  0  0  0  0  0  0  0
   35.1110   28.1920   38.1840 H   0  0  0  0  0  0  0  0  0  0  0  0
   34.0090   28.9290   36.0070 C   0  0  0  0  0  0  0  0  0  0  0  0
   33.3890   29.0050   37.2440 C   0  0  0  0  0  0  0  0  0  0  0  0
   32.1290   29.5510   37.3100 C   0  0  0  0  0  0  0  0  0  0  0  0
   31.5150   30.0030   36.1810 C   0  0  0  0  0  0  0  0  0  0  0  0
   32.1100   29.9390   34.9400 C   0  0  0  0  0  0  0  0  0  0  0  0
   33.3790   29.3830   34.9140 C   0  0  0  0  0  0  0  0  0  0  0  0
   31.6770   29.5920   38.3000 H   0  0  0  0  0  0  0  0  0  0  0  0
   30.5160   30.4230   36.3090 H   0  0  0  0  0  0  0  0  0  0  0  0
   31.5970   30.3070   34.0610 H   0  0  0  0  0  0  0  0  0  0  0  0
   33.8740   29.3200   33.9480 H   0  0  0  0  0  0  0  0  0  0  0  0
   36.9280   26.5320   35.7290 C   0  0  0  0  0  0  0  0  0  0  0  0
   35.5980   26.9930   35.7080 C   0  0  0  0  0  0  0  0  0  0  0  0
   35.3490   28.3370   35.9970 C   0  0  0  0  0  0  0  0  0  0  0  0
   36.4180   29.1210   36.2840 N   0  0  0  0  0  0  0  0  0  0  0  0
   37.6950   28.6490   36.2970 C   0  0  0  0  0  0  0  0  0  0  0  0
   37.9250   27.3600   36.0190 N   0  0  0  0  0  0  0  0  0  0  0  0
   37.0650   25.4940   35.5000 H   0  0  0  0  0  0  0  0  0  0  0  0
   34.7370   26.3600   35.4760 H   0  0  0  0  0  0  0  0  0  0  0  0
   38.4400   29.3950   36.5430 H   0  0  0  0  0  0  0  0  0  0  0  0
   35.6240   29.7610   40.1790 S   0  0  0  0  0  0  0  0  0  0  0  0
   35.5640   30.7220   41.3380 O   0  0  0  0  0  0  0  0  0  0  0  0
   36.0190   30.6070   42.2140 H   0  0  0  0  0  0  0  0  0  0  0  0
   36.4980   30.2960   39.1090 O   0  0  0  0  0  0  0  0  0  0  0  0
   37.0290   31.1030   39.1970 H   0  0  0  0  0  0  0  0  0  0  0  0
   36.2740   28.3100   40.7420 O   0  0  0  0  0  0  0  0  0  0  0  0
   36.9340   28.5930   41.9340 C   0  0  0  0  0  0  0  0  0  0  0  0
   37.9890   28.8330   41.8400 H   0  0  0  0  0  0  0  0  0  0  0  0
   36.4350   29.4970   42.3740 H   0  0  0  0  0  0  0  0  0  0  0  0
   36.6850   27.4670   42.9250 C   0  0  0  0  0  0  0  0  0  0  0  0
   35.8820   26.8280   42.4760 H   0  0  0  0  0  0  0  0  0  0  0  0
   36.3950   27.8490   43.9160 H   0  0  0  0  0  0  0  0  0  0  0  0
   36.7960   24.6850   41.5730 Cl  0  0  0  0  0  0  0  0  0  0  0  0
   38.0860   25.4450   42.4760 C   0  0  0  0  0  0  0  0  0  0  0  0
   37.9450   26.7010   43.0560 C   0  0  0  0  0  0  0  0  0  0  0  0
   39.0340   27.1870   43.7510 C   0  0  0  0  0  0  0  0  0  0  0  0
   38.9930   28.1730   44.2330 H   0  0  0  0  0  0  0  0  0  0  0  0
   40.1980   26.4550   43.8570 C   0  0  0  0  0  0  0  0  0  0  0  0
   41.0930   26.7970   44.4010 H   0  0  0  0  0  0  0  0  0  0  0  0
   40.3460   25.2070   43.2860 C   0  0  0  0  0  3  0  0  0  0  0  0
   39.2760   24.7140   42.5950 C   0  0  0  0  0  3  0  0  0  0  0  0
  1 25  1  0  0  0  0
  1  2  1  0  0  0  0
  3  4  1  0  0  0  0
  3  1  1  0  0  0  0
  5  3  1  0  0  0  0
  6  7  1  0  0  0  0
  7  8  2  0  0  0  0
  7  3  1  0  0  0  0
  8 12  1  0  0  0  0
  9 13  1  0  0  0  0
  9  8  1  0  0  0  0
 10  9  2  0  0  0  0
 11 10  1  0  0  0  0
 11  6  2  0  0  0  0
 14 10  1  0  0  0  0
 15 11  1  0  0  0  0
 16 21  1  0  0  0  0
 17 16  2  0  0  0  0
 17 18  1  0  0  0  0
 18  6  1  0  0  0  0
 18 19  2  0  0  0  0
 19 20  1  0  0  0  0
 20 24  1  0  0  0  0
 21 20  2  0  0  0  0
 22 16  1  0  0  0  0
 23 17  1  0  0  0  0
 25 30  1  0  0  0  0
 25 26  1  0  0  0  0
 26 27  1  0  0  0  0
 28 29  1  0  0  0  0
 28 25  1  0  0  0  0
 30 31  1  0  0  0  0
 31 33  1  0  0  0  0
 31 34  1  0  0  0  0
 32 31  1  0  0  0  0
 34 39  1  0  0  0  0
 34 36  1  0  0  0  0
 35 34  1  0  0  0  0
 37 38  1  0  0  0  0
 38 45  2  0  0  0  0
 38 39  1  0  0  0  0
 39 40  2  0  0  0  0
 40 42  1  0  0  0  0
 40 41  1  0  0  0  0
 42 43  1  0  0  0  0
 44 42  2  0  0  0  0
 45 44  1  0  0  0  0
M  END
>  <minimizedAffinity>
-5.99537659

$$$$

 OpenBabel03252508483D

 45 47  0  0  0  0  0  0  0  0999 V2000
   36.9250   29.1130   42.9560 N   0  0  0  0  0  0  0  0  0  0  0  0
   36.6640   29.7520   43.7430 H   0  0  0  0  0  0  0  0  0  0  0  0
   38.1550   28.4280   43.1790 C   0  0  0  0  0  0  0  0  0  0  0  0
   38.4280   28.5050   44.2730 H   0  0  0  0  0  0  0  0  0  0  0  0
   39.0300   28.9170   42.6670 H   0  0  0  0  0  0  0  0  0  0  0  0
   39.3480   26.2850   42.6830 C   0  0  0  0  0  0  0  0  0  0  0  0
   38.1580   26.9860   42.8040 C   0  0  0  0  0  0  0  0  0  0  0  0
   36.9810   26.3180   42.5700 C   0  0  0  0  0  0  0  0  0  0  0  0
   36.9930   24.9990   42.2270 C   0  0  0  0  0  0  0  0  0  0  0  0
   38.1620   24.2800   42.1000 C   0  0  0  0  0  0  0  0  0  0  0  0
   39.3280   24.9870   42.3430 C   0  0  0  0  0  0  0  0  0  0  0  0
   36.0690   26.9040   42.6750 H   0  0  0  0  0  0  0  0  0  0  0  0
   36.0210   24.5340   42.0570 H   0  0  0  0  0  0  0  0  0  0  0  0
   38.1400   23.2330   41.8260 H   0  0  0  0  0  0  0  0  0  0  0  0
   40.2670   24.4460   42.2500 H   0  0  0  0  0  0  0  0  0  0  0  0
   42.2860   28.6610   42.4170 C   0  0  0  0  0  0  0  0  0  0  0  0
   41.1010   27.9870   42.0600 C   0  0  0  0  0  0  0  0  0  0  0  0
   40.5710   27.0470   42.9460 C   0  0  0  0  0  0  0  0  0  0  0  0
   41.2400   26.8390   44.1080 N   0  0  0  0  0  0  0  0  0  0  0  0
   42.3830   27.5040   44.4290 C   0  0  0  0  0  0  0  0  0  0  0  0
   42.8850   28.4050   43.5750 N   0  0  0  0  0  0  0  0  0  0  0  0
   42.6510   29.3720   41.7040 H   0  0  0  0  0  0  0  0  0  0  0  0
   40.5640   28.1560   41.1230 H   0  0  0  0  0  0  0  0  0  0  0  0
   42.8000   27.2310   45.3900 H   0  0  0  0  0  0  0  0  0  0  0  0
   36.9410   30.0540   41.5120 S   0  0  0  0  0  0  0  0  0  0  0  0
   38.2190   30.8430   41.3870 O   0  0  0  0  0  0  0  0  0  0  0  0
   38.8060   30.8760   40.5870 H   0  0  0  0  0  0  0  0  0  0  0  0
   35.7680   30.9570   41.4390 O   0  0  0  0  0  0  0  0  0  0  0  0
   35.8260   31.9040   41.2380 H   0  0  0  0  0  0  0  0  0  0  0  0
   36.8760   28.9660   40.2250 O   0  0  0  0  0  0  0  0  0  0  0  0
   36.6950   29.7150   39.0660 C   0  0  0  0  0  0  0  0  0  0  0  0
   36.8820   30.7810   39.1620 H   0  0  0  0  0  0  0  0  0  0  0  0
   37.4270   29.3250   38.3110 H   0  0  0  0  0  0  0  0  0  0  0  0
   35.3180   29.4220   38.4900 C   0  0  0  0  0  0  0  0  0  0  0  0
   34.7210   30.3620   38.6160 H   0  0  0  0  0  0  0  0  0  0  0  0
   34.8390   28.5650   38.9880 H   0  0  0  0  0  0  0  0  0  0  0  0
   32.7520   28.9800   36.8170 Cl  0  0  0  0  0  0  0  0  0  0  0  0
   34.3950   28.8980   36.2260 C   0  0  0  0  0  0  0  0  0  0  0  0
   35.4930   29.1070   37.0540 C   0  0  0  0  0  0  0  0  0  0  0  0
   36.7380   29.0050   36.4680 C   0  0  0  0  0  0  0  0  0  0  0  0
   37.6490   29.1580   37.0630 H   0  0  0  0  0  0  0  0  0  0  0  0
   36.8740   28.7110   35.1270 C   0  0  0  0  0  0  0  0  0  0  0  0
   37.8440   28.6180   34.6140 H   0  0  0  0  0  0  0  0  0  0  0  0
   35.7910   28.5020   34.2980 C   0  0  0  0  0  3  0  0  0  0  0  0
   34.5520   28.6000   34.8650 C   0  0  0  0  0  3  0  0  0  0  0  0
  1  3  1  0  0  0  0
  1  2  1  0  0  0  0
  3  4  1  0  0  0  0
  5  3  1  0  0  0  0
  6  7  1  0  0  0  0
  6 18  1  0  0  0  0
  7  3  1  0  0  0  0
  8 12  1  0  0  0  0
  8  7  2  0  0  0  0
  9  8  1  0  0  0  0
 10  9  2  0  0  0  0
 10 11  1  0  0  0  0
 11  6  2  0  0  0  0
 13  9  1  0  0  0  0
 14 10  1  0  0  0  0
 15 11  1  0  0  0  0
 16 21  1  0  0  0  0
 17 16  2  0  0  0  0
 17 18  1  0  0  0  0
 18 19  2  0  0  0  0
 19 20  1  0  0  0  0
 20 24  1  0  0  0  0
 21 20  2  0  0  0  0
 22 16  1  0  0  0  0
 23 17  1  0  0  0  0
 25  1  1  0  0  0  0
 26 25  1  0  0  0  0
 27 26  1  0  0  0  0
 28 25  1  0  0  0  0
 29 28  1  0  0  0  0
 30 25  1  0  0  0  0
 31 32  1  0  0  0  0
 31 30  1  0  0  0  0
 33 31  1  0  0  0  0
 34 35  1  0  0  0  0
 34 36  1  0  0  0  0
 34 31  1  0  0  0  0
 38 37  1  0  0  0  0
 38 39  1  0  0  0  0
 39 34  1  0  0  0  0
 40 39  2  0  0  0  0
 40 41  1  0  0  0  0
 42 40  1  0  0  0  0
 43 42  1  0  0  0  0
 44 45  1  0  0  0  0
 44 42  2  0  0  0  0
 45 38  2  0  0  0  0
M  END
>  <minimizedAffinity>
-5.9488821

$$$$

 OpenBabel03252508483D

 45 47  0  0  0  0  0  0  0  0999 V2000
   36.4690   28.9570   42.0860 N   0  0  0  0  0  0  0  0  0  0  0  0
   35.7220   28.9590   42.8180 H   0  0  0  0  0  0  0  0  0  0  0  0
   37.6950   29.5270   42.5400 C   0  0  0  0  0  0  0  0  0  0  0  0
   37.4880   30.1810   43.4370 H   0  0  0  0  0  0  0  0  0  0  0  0
   38.1430   30.2470   41.8000 H   0  0  0  0  0  0  0  0  0  0  0  0
   40.0610   28.7130   42.4920 C   0  0  0  0  0  0  0  0  0  0  0  0
   38.7520   28.5470   42.9180 C   0  0  0  0  0  0  0  0  0  0  0  0
   38.4530   27.4550   43.6970 C   0  0  0  0  0  0  0  0  0  0  0  0
   39.4260   26.5650   44.0380 C   0  0  0  0  0  0  0  0  0  0  0  0
   40.7340   26.7080   43.6280 C   0  0  0  0  0  0  0  0  0  0  0  0
   40.9970   27.8190   42.8440 C   0  0  0  0  0  0  0  0  0  0  0  0
   37.4140   27.3610   44.0100 H   0  0  0  0  0  0  0  0  0  0  0  0
   39.1160   25.7230   44.6590 H   0  0  0  0  0  0  0  0  0  0  0  0
   41.4850   25.9830   43.9140 H   0  0  0  0  0  0  0  0  0  0  0  0
   42.0200   27.9580   42.5050 H   0  0  0  0  0  0  0  0  0  0  0  0
   40.9420   32.1970   41.2970 C   0  0  0  0  0  0  0  0  0  0  0  0
   40.7210   31.1280   42.1860 C   0  0  0  0  0  0  0  0  0  0  0  0
   40.3210   29.8950   41.6660 C   0  0  0  0  0  0  0  0  0  0  0  0
   40.1690   29.8050   40.3210 N   0  0  0  0  0  0  0  0  0  0  0  0
   40.3900   30.8550   39.4840 C   0  0  0  0  0  0  0  0  0  0  0  0
   40.7730   32.0340   39.9890 N   0  0  0  0  0  0  0  0  0  0  0  0
   41.2470   33.1210   41.7450 H   0  0  0  0  0  0  0  0  0  0  0  0
   40.8440   31.2020   43.2690 H   0  0  0  0  0  0  0  0  0  0  0  0
   40.2280   30.6290   38.4370 H   0  0  0  0  0  0  0  0  0  0  0  0
   35.8360   29.7580   40.6990 S   0  0  0  0  0  0  0  0  0  0  0  0
   35.8680   31.2550   40.8690 O   0  0  0  0  0  0  0  0  0  0  0  0
   36.2360   31.9070   40.2170 H   0  0  0  0  0  0  0  0  0  0  0  0
   34.4590   29.3040   40.3890 O   0  0  0  0  0  0  0  0  0  0  0  0
   33.7160   29.9050   40.2250 H   0  0  0  0  0  0  0  0  0  0  0  0
   36.8460   29.3620   39.4070 O   0  0  0  0  0  0  0  0  0  0  0  0
   36.7480   27.9870   39.2190 C   0  0  0  0  0  0  0  0  0  0  0  0
   36.0600   27.4710   39.8830 H   0  0  0  0  0  0  0  0  0  0  0  0
   36.3700   27.8290   38.1760 H   0  0  0  0  0  0  0  0  0  0  0  0
   38.1410   27.3770   39.2460 C   0  0  0  0  0  0  0  0  0  0  0  0
   38.8170   28.1610   39.6770 H   0  0  0  0  0  0  0  0  0  0  0  0
   38.4700   27.0630   38.2430 H   0  0  0  0  0  0  0  0  0  0  0  0
   40.7980   25.8650   39.7300 Cl  0  0  0  0  0  0  0  0  0  0  0  0
   39.2390   25.4540   40.4060 C   0  0  0  0  0  0  0  0  0  0  0  0
   38.0930   26.1900   40.1290 C   0  0  0  0  0  0  0  0  0  0  0  0
   36.9230   25.7580   40.7180 C   0  0  0  0  0  0  0  0  0  0  0  0
   35.9790   26.2920   40.5430 H   0  0  0  0  0  0  0  0  0  0  0  0
   36.9030   24.6490   41.5390 C   0  0  0  0  0  0  0  0  0  0  0  0
   35.9960   24.2630   42.0310 H   0  0  0  0  0  0  0  0  0  0  0  0
   38.0360   23.9120   41.8190 C   0  0  0  0  0  3  0  0  0  0  0  0
   39.2020   24.3300   41.2430 C   0  0  0  0  0  3  0  0  0  0  0  0
  1  3  1  0  0  0  0
  1  2  1  0  0  0  0
  3  7  1  0  0  0  0
  3  4  1  0  0  0  0
  5  3  1  0  0  0  0
  6 11  2  0  0  0  0
  6  7  1  0  0  0  0
  7  8  2  0  0  0  0
  8 12  1  0  0  0  0
  8  9  1  0  0  0  0
  9 13  1  0  0  0  0
 10 14  1  0  0  0  0
 10  9  2  0  0  0  0
 11 10  1  0  0  0  0
 15 11  1  0  0  0  0
 16 22  1  0  0  0  0
 16 17  1  0  0  0  0
 17 23  1  0  0  0  0
 18 17  2  0  0  0  0
 18  6  1  0  0  0  0
 19 18  1  0  0  0  0
 20 21  1  0  0  0  0
 20 19  2  0  0  0  0
 21 16  2  0  0  0  0
 24 20  1  0  0  0  0
 25 26  1  0  0  0  0
 25  1  1  0  0  0  0
 27 26  1  0  0  0  0
 28 25  1  0  0  0  0
 29 28  1  0  0  0  0
 30 25  1  0  0  0  0
 31 34  1  0  0  0  0
 31 30  1  0  0  0  0
 31 32  1  0  0  0  0
 33 31  1  0  0  0  0
 34 35  1  0  0  0  0
 34 39  1  0  0  0  0
 36 34  1  0  0  0  0
 37 38  1  0  0  0  0
 38 45  1  0  0  0  0
 39 38  2  0  0  0  0
 39 40  1  0  0  0  0
 40 42  2  0  0  0  0
 41 40  1  0  0  0  0
 42 44  1  0  0  0  0
 42 43  1  0  0  0  0
 45 44  2  0  0  0  0
M  END
>  <minimizedAffinity>
-5.89880276

$$$$

 OpenBabel03252508483D

 45 47  0  0  0  0  0  0  0  0999 V2000
   38.2090   31.5050   41.1700 N   0  0  0  0  0  0  0  0  0  0  0  0
   38.1180   32.1460   41.9920 H   0  0  0  0  0  0  0  0  0  0  0  0
   37.9970   32.1650   39.9240 C   0  0  0  0  0  0  0  0  0  0  0  0
   37.3690   33.0880   40.0970 H   0  0  0  0  0  0  0  0  0  0  0  0
   37.3700   31.5630   39.2100 H   0  0  0  0  0  0  0  0  0  0  0  0
   39.6390   31.9240   38.0500 C   0  0  0  0  0  0  0  0  0  0  0  0
   39.2340   32.5790   39.2040 C   0  0  0  0  0  0  0  0  0  0  0  0
   40.0040   33.6190   39.6670 C   0  0  0  0  0  0  0  0  0  0  0  0
   41.1330   33.9900   39.0010 C   0  0  0  0  0  0  0  0  0  0  0  0
   41.5560   33.3560   37.8530 C   0  0  0  0  0  0  0  0  0  0  0  0
   40.7560   32.3120   37.4180 C   0  0  0  0  0  0  0  0  0  0  0  0
   39.6520   34.1060   40.5750 H   0  0  0  0  0  0  0  0  0  0  0  0
   41.6930   34.8240   39.4270 H   0  0  0  0  0  0  0  0  0  0  0  0
   42.4580   33.6730   37.3470 H   0  0  0  0  0  0  0  0  0  0  0  0
   41.0650   31.7920   36.5140 H   0  0  0  0  0  0  0  0  0  0  0  0
   36.7820   29.8820   36.6310 C   0  0  0  0  0  0  0  0  0  0  0  0
   37.5230   31.0140   37.0240 C   0  0  0  0  0  0  0  0  0  0  0  0
   38.7790   30.8250   37.6020 C   0  0  0  0  0  0  0  0  0  0  0  0
   39.2120   29.5480   37.7520 N   0  0  0  0  0  0  0  0  0  0  0  0
   38.4760   28.4710   37.3640 C   0  0  0  0  0  0  0  0  0  0  0  0
   37.2720   28.6600   36.8090 N   0  0  0  0  0  0  0  0  0  0  0  0
   35.8250   30.0790   36.1930 H   0  0  0  0  0  0  0  0  0  0  0  0
   37.1730   32.0420   36.9020 H   0  0  0  0  0  0  0  0  0  0  0  0
   38.9540   27.5170   37.5480 H   0  0  0  0  0  0  0  0  0  0  0  0
   37.1250   30.1890   41.4180 S   0  0  0  0  0  0  0  0  0  0  0  0
   37.2260   29.1800   40.3040 O   0  0  0  0  0  0  0  0  0  0  0  0
   37.3390   28.1990   40.4160 H   0  0  0  0  0  0  0  0  0  0  0  0
   35.7270   30.6570   41.5650 O   0  0  0  0  0  0  0  0  0  0  0  0
   34.9770   30.2840   41.0750 H   0  0  0  0  0  0  0  0  0  0  0  0
   37.6020   29.4320   42.8480 O   0  0  0  0  0  0  0  0  0  0  0  0
   38.6580   28.5830   42.5280 C   0  0  0  0  0  0  0  0  0  0  0  0
   38.6820   28.2320   41.5010 H   0  0  0  0  0  0  0  0  0  0  0  0
   39.6020   29.1640   42.6930 H   0  0  0  0  0  0  0  0  0  0  0  0
   38.7020   27.4390   43.5290 C   0  0  0  0  0  0  0  0  0  0  0  0
   37.9100   27.6600   44.2910 H   0  0  0  0  0  0  0  0  0  0  0  0
   39.6950   27.3390   43.9930 H   0  0  0  0  0  0  0  0  0  0  0  0
   40.9800   25.3680   43.2110 Cl  0  0  0  0  0  0  0  0  0  0  0  0
   39.3460   25.2050   42.6110 C   0  0  0  0  0  0  0  0  0  0  0  0
   38.3850   26.1920   42.7970 C   0  0  0  0  0  0  0  0  0  0  0  0
   37.1350   25.9460   42.2680 C   0  0  0  0  0  0  0  0  0  0  0  0
   36.3270   26.6830   42.3780 H   0  0  0  0  0  0  0  0  0  0  0  0
   36.8640   24.7750   41.5900 C   0  0  0  0  0  0  0  0  0  0  0  0
   35.8850   24.5320   41.1490 H   0  0  0  0  0  0  0  0  0  0  0  0
   37.8120   23.7900   41.4010 C   0  0  0  0  0  3  0  0  0  0  0  0
   39.0540   24.0200   41.9200 C   0  0  0  0  0  3  0  0  0  0  0  0
  1 25  1  0  0  0  0
  1  2  1  0  0  0  0
  3  4  1  0  0  0  0
  3  1  1  0  0  0  0
  5  3  1  0  0  0  0
  6  7  1  0  0  0  0
  7  8  2  0  0  0  0
  7  3  1  0  0  0  0
  8 12  1  0  0  0  0
  9 13  1  0  0  0  0
  9  8  1  0  0  0  0
 10  9  2  0  0  0  0
 11 10  1  0  0  0  0
 11  6  2  0  0  0  0
 14 10  1  0  0  0  0
 15 11  1  0  0  0  0
 16 21  2  0  0  0  0
 16 17  1  0  0  0  0
 17 18  2  0  0  0  0
 18 19  1  0  0  0  0
 18  6  1  0  0  0  0
 20 24  1  0  0  0  0
 20 19  2  0  0  0  0
 21 20  1  0  0  0  0
 22 16  1  0  0  0  0
 23 17  1  0  0  0  0
 25 28  1  0  0  0  0
 25 30  1  0  0  0  0
 26 27  1  0  0  0  0
 26 25  1  0  0  0  0
 29 28  1  0  0  0  0
 31 33  1  0  0  0  0
 31 30  1  0  0  0  0
 31 34  1  0  0  0  0
 32 31  1  0  0  0  0
 34 36  1  0  0  0  0
 34 35  1  0  0  0  0
 38 39  1  0  0  0  0
 38 37  1  0  0  0  0
 39 34  1  0  0  0  0
 40 41  1  0  0  0  0
 40 39  2  0  0  0  0
 42 40  1  0  0  0  0
 43 42  1  0  0  0  0
 44 42  2  0  0  0  0
 44 45  1  0  0  0  0
 45 38  2  0  0  0  0
M  END
>  <minimizedAffinity>
-5.89638424

$$$$

 OpenBabel03252508483D

 45 47  0  0  0  0  0  0  0  0999 V2000
   38.8500   29.6520   37.0330 N   0  0  0  0  0  0  0  0  0  0  0  0
   38.9130   29.7350   35.9920 H   0  0  0  0  0  0  0  0  0  0  0  0
   38.0120   30.6440   37.6210 C   0  0  0  0  0  0  0  0  0  0  0  0
   37.4670   31.2000   36.8020 H   0  0  0  0  0  0  0  0  0  0  0  0
   38.5920   31.4590   38.1370 H   0  0  0  0  0  0  0  0  0  0  0  0
   36.7590   30.7860   39.7830 C   0  0  0  0  0  0  0  0  0  0  0  0
   36.9970   30.1310   38.5840 C   0  0  0  0  0  0  0  0  0  0  0  0
   36.2740   28.9960   38.3060 C   0  0  0  0  0  0  0  0  0  0  0  0
   35.3480   28.5340   39.1930 C   0  0  0  0  0  0  0  0  0  0  0  0
   35.0930   29.1670   40.3900 C   0  0  0  0  0  0  0  0  0  0  0  0
   35.8410   30.3060   40.6350 C   0  0  0  0  0  0  0  0  0  0  0  0
   36.4920   28.5110   37.3550 H   0  0  0  0  0  0  0  0  0  0  0  0
   34.8120   27.6280   38.9040 H   0  0  0  0  0  0  0  0  0  0  0  0
   34.3510   28.7750   41.0740 H   0  0  0  0  0  0  0  0  0  0  0  0
   35.6620   30.8270   41.5730 H   0  0  0  0  0  0  0  0  0  0  0  0
   38.0470   34.3470   39.8530 C   0  0  0  0  0  0  0  0  0  0  0  0
   37.2020   33.2580   39.5610 C   0  0  0  0  0  0  0  0  0  0  0  0
   37.5570   31.9900   40.0250 C   0  0  0  0  0  0  0  0  0  0  0  0
   38.7080   31.8860   40.7360 N   0  0  0  0  0  0  0  0  0  0  0  0
   39.5060   32.9540   41.0040 C   0  0  0  0  0  0  0  0  0  0  0  0
   39.1590   34.1670   40.5560 N   0  0  0  0  0  0  0  0  0  0  0  0
   37.7300   35.2970   39.4750 H   0  0  0  0  0  0  0  0  0  0  0  0
   36.2750   33.3440   38.9880 H   0  0  0  0  0  0  0  0  0  0  0  0
   40.3900   32.7130   41.5820 H   0  0  0  0  0  0  0  0  0  0  0  0
   40.4580   29.6880   37.6510 S   0  0  0  0  0  0  0  0  0  0  0  0
   40.6550   30.8440   38.5970 O   0  0  0  0  0  0  0  0  0  0  0  0
   41.0490   30.7910   39.5070 H   0  0  0  0  0  0  0  0  0  0  0  0
   41.4590   29.7390   36.5600 O   0  0  0  0  0  0  0  0  0  0  0  0
   42.1920   30.3730   36.5270 H   0  0  0  0  0  0  0  0  0  0  0  0
   40.6730   28.2610   38.5250 O   0  0  0  0  0  0  0  0  0  0  0  0
   40.0830   28.4520   39.7710 C   0  0  0  0  0  0  0  0  0  0  0  0
   40.7710   28.6230   40.5940 H   0  0  0  0  0  0  0  0  0  0  0  0
   39.4430   29.3700   39.6880 H   0  0  0  0  0  0  0  0  0  0  0  0
   39.1210   27.3080   40.0510 C   0  0  0  0  0  0  0  0  0  0  0  0
   39.7520   26.3850   40.1370 H   0  0  0  0  0  0  0  0  0  0  0  0
   38.3610   27.2090   39.2610 H   0  0  0  0  0  0  0  0  0  0  0  0
   36.8460   25.3960   40.9130 Cl  0  0  0  0  0  0  0  0  0  0  0  0
   37.4160   26.7880   41.8040 C   0  0  0  0  0  0  0  0  0  0  0  0
   38.4460   27.5970   41.3360 C   0  0  0  0  0  0  0  0  0  0  0  0
   38.7970   28.6700   42.1280 C   0  0  0  0  0  0  0  0  0  0  0  0
   39.6030   29.3510   41.8200 H   0  0  0  0  0  0  0  0  0  0  0  0
   38.1520   28.9180   43.3230 C   0  0  0  0  0  0  0  0  0  0  0  0
   38.3950   29.7610   43.9890 H   0  0  0  0  0  0  0  0  0  0  0  0
   37.1300   28.1210   43.7940 C   0  0  0  0  0  3  0  0  0  0  0  0
   36.7720   27.0540   43.0200 C   0  0  0  0  0  3  0  0  0  0  0  0
  1  3  1  0  0  0  0
  1 25  1  0  0  0  0
  2  1  1  0  0  0  0
  3  5  1  0  0  0  0
  3  7  1  0  0  0  0
  4  3  1  0  0  0  0
  6 18  1  0  0  0  0
  6 11  1  0  0  0  0
  7  6  2  0  0  0  0
  8  7  1  0  0  0  0
  8  9  2  0  0  0  0
  9 10  1  0  0  0  0
 10 11  2  0  0  0  0
 10 14  1  0  0  0  0
 11 15  1  0  0  0  0
 12  8  1  0  0  0  0
 13  9  1  0  0  0  0
 16 21  1  0  0  0  0
 17 16  2  0  0  0  0
 17 18  1  0  0  0  0
 18 19  2  0  0  0  0
 19 20  1  0  0  0  0
 20 24  1  0  0  0  0
 21 20  2  0  0  0  0
 22 16  1  0  0  0  0
 23 17  1  0  0  0  0
 25 30  1  0  0  0  0
 25 26  1  0  0  0  0
 26 27  1  0  0  0  0
 28 25  1  0  0  0  0
 29 28  1  0  0  0  0
 30 31  1  0  0  0  0
 31 34  1  0  0  0  0
 31 32  1  0  0  0  0
 33 31  1  0  0  0  0
 34 35  1  0  0  0  0
 34 39  1  0  0  0  0
 36 34  1  0  0  0  0
 37 38  1  0  0  0  0
 38 45  1  0  0  0  0
 39 38  2  0  0  0  0
 39 40  1  0  0  0  0
 40 42  2  0  0  0  0
 41 40  1  0  0  0  0
 42 44  1  0  0  0  0
 42 43  1  0  0  0  0
 45 44  2  0  0  0  0
M  END
>  <minimizedAffinity>
-5.85717297

$$$$

 OpenBabel03252508483D

 45 47  0  0  0  0  0  0  0  0999 V2000
   38.3450   31.3860   40.7190 N   0  0  0  0  0  0  0  0  0  0  0  0
   38.9530   30.7790   40.1210 H   0  0  0  0  0  0  0  0  0  0  0  0
   37.0930   30.7820   41.0340 C   0  0  0  0  0  0  0  0  0  0  0  0
   36.5020   30.6390   40.0820 H   0  0  0  0  0  0  0  0  0  0  0  0
   36.4260   31.4490   41.6480 H   0  0  0  0  0  0  0  0  0  0  0  0
   36.6170   28.3280   41.1630 C   0  0  0  0  0  0  0  0  0  0  0  0
   37.1770   29.4650   41.7260 C   0  0  0  0  0  0  0  0  0  0  0  0
   37.8120   29.3460   42.9380 C   0  0  0  0  0  0  0  0  0  0  0  0
   37.8850   28.1370   43.5630 C   0  0  0  0  0  0  0  0  0  0  0  0
   37.3360   26.9940   43.0240 C   0  0  0  0  0  0  0  0  0  0  0  0
   36.7030   27.1530   41.8020 C   0  0  0  0  0  0  0  0  0  0  0  0
   38.2390   30.2610   43.3470 H   0  0  0  0  0  0  0  0  0  0  0  0
   38.4040   28.1190   44.5220 H   0  0  0  0  0  0  0  0  0  0  0  0
   37.4090   26.0480   43.5450 H   0  0  0  0  0  0  0  0  0  0  0  0
   36.2600   26.2680   41.3530 H   0  0  0  0  0  0  0  0  0  0  0  0
   34.0910   29.0640   38.4380 C   0  0  0  0  0  0  0  0  0  0  0  0
   34.6250   28.9200   39.7330 C   0  0  0  0  0  0  0  0  0  0  0  0
   35.9540   28.5140   39.8690 C   0  0  0  0  0  0  0  0  0  0  0  0
   36.6550   28.2810   38.7310 N   0  0  0  0  0  0  0  0  0  0  0  0
   36.1140   28.4280   37.4910 C   0  0  0  0  0  0  0  0  0  0  0  0
   34.8400   28.8180   37.3680 N   0  0  0  0  0  0  0  0  0  0  0  0
   33.0680   29.3770   38.3870 H   0  0  0  0  0  0  0  0  0  0  0  0
   34.0600   29.1080   40.6490 H   0  0  0  0  0  0  0  0  0  0  0  0
   36.7970   28.2060   36.6800 H   0  0  0  0  0  0  0  0  0  0  0  0
   38.1690   32.8970   39.9100 S   0  0  0  0  0  0  0  0  0  0  0  0
   36.7470   33.3910   39.9750 O   0  0  0  0  0  0  0  0  0  0  0  0
   36.4580   34.2990   40.2560 H   0  0  0  0  0  0  0  0  0  0  0  0
   38.6230   32.8160   38.5020 O   0  0  0  0  0  0  0  0  0  0  0  0
   38.1030   33.1330   37.7470 H   0  0  0  0  0  0  0  0  0  0  0  0
   39.1400   34.0040   40.7340 O   0  0  0  0  0  0  0  0  0  0  0  0
   40.4630   33.6360   40.5070 C   0  0  0  0  0  0  0  0  0  0  0  0
   40.9340   33.0660   41.3020 H   0  0  0  0  0  0  0  0  0  0  0  0
   40.4640   32.9810   39.5960 H   0  0  0  0  0  0  0  0  0  0  0  0
   41.2670   34.8690   40.1250 C   0  0  0  0  0  0  0  0  0  0  0  0
   41.1120   35.6100   40.9510 H   0  0  0  0  0  0  0  0  0  0  0  0
   40.9570   35.2740   39.1500 H   0  0  0  0  0  0  0  0  0  0  0  0
   42.3540   34.0370   37.3500 Cl  0  0  0  0  0  0  0  0  0  0  0  0
   43.2640   34.0830   38.8420 C   0  0  0  0  0  0  0  0  0  0  0  0
   42.6900   34.4670   40.0490 C   0  0  0  0  0  0  0  0  0  0  0  0
   43.5120   34.4540   41.1560 C   0  0  0  0  0  0  0  0  0  0  0  0
   43.1250   34.7460   42.1420 H   0  0  0  0  0  0  0  0  0  0  0  0
   44.8360   34.0770   41.0590 C   0  0  0  0  0  0  0  0  0  0  0  0
   45.5320   34.0480   41.9120 H   0  0  0  0  0  0  0  0  0  0  0  0
   45.4130   33.6940   39.8650 C   0  0  0  0  0  3  0  0  0  0  0  0
   44.6110   33.7030   38.7600 C   0  0  0  0  0  3  0  0  0  0  0  0
  1  3  1  0  0  0  0
  2  1  1  0  0  0  0
  3  5  1  0  0  0  0
  3  7  1  0  0  0  0
  4  3  1  0  0  0  0
  6  7  2  0  0  0  0
  6 11  1  0  0  0  0
  7  8  1  0  0  0  0
  8 12  1  0  0  0  0
  8  9  2  0  0  0  0
  9 13  1  0  0  0  0
 10 14  1  0  0  0  0
 10  9  1  0  0  0  0
 11 10  2  0  0  0  0
 15 11  1  0  0  0  0
 16 17  1  0  0  0  0
 17 18  2  0  0  0  0
 17 23  1  0  0  0  0
 18  6  1  0  0  0  0
 19 18  1  0  0  0  0
 20 19  2  0  0  0  0
 21 20  1  0  0  0  0
 21 16  2  0  0  0  0
 22 16  1  0  0  0  0
 24 20  1  0  0  0  0
 25 26  1  0  0  0  0
 25  1  1  0  0  0  0
 25 30  1  0  0  0  0
 26 27  1  0  0  0  0
 28 25  1  0  0  0  0
 29 28  1  0  0  0  0
 31 30  1  0  0  0  0
 31 32  1  0  0  0  0
 33 31  1  0  0  0  0
 34 31  1  0  0  0  0
 34 35  1  0  0  0  0
 36 34  1  0  0  0  0
 37 38  1  0  0  0  0
 38 39  1  0  0  0  0
 39 34  1  0  0  0  0
 39 40  2  0  0  0  0
 40 41  1  0  0  0  0
 42 40  1  0  0  0  0
 42 43  1  0  0  0  0
 44 42  2  0  0  0  0
 45 38  2  0  0  0  0
 45 44  1  0  0  0  0
M  END
>  <minimizedAffinity>
-5.83877563

$$$$

 OpenBabel03252508483D

 45 47  0  0  0  0  0  0  0  0999 V2000
   36.5390   28.6220   42.3140 N   0  0  0  0  0  0  0  0  0  0  0  0
   37.4050   29.0720   42.6920 H   0  0  0  0  0  0  0  0  0  0  0  0
   36.6470   27.2030   42.2160 C   0  0  0  0  0  0  0  0  0  0  0  0
   36.4570   26.8920   41.1470 H   0  0  0  0  0  0  0  0  0  0  0  0
   35.8400   26.6620   42.7840 H   0  0  0  0  0  0  0  0  0  0  0  0
   38.4820   25.5150   42.0050 C   0  0  0  0  0  0  0  0  0  0  0  0
   37.9580   26.6340   42.6360 C   0  0  0  0  0  0  0  0  0  0  0  0
   38.6780   27.2030   43.6580 C   0  0  0  0  0  0  0  0  0  0  0  0
   39.8770   26.6750   44.0340 C   0  0  0  0  0  0  0  0  0  0  0  0
   40.4190   25.5650   43.4240 C   0  0  0  0  0  0  0  0  0  0  0  0
   39.6640   25.0180   42.3990 C   0  0  0  0  0  0  0  0  0  0  0  0
   38.2320   28.0790   44.1270 H   0  0  0  0  0  0  0  0  0  0  0  0
   40.3920   27.1800   44.8530 H   0  0  0  0  0  0  0  0  0  0  0  0
   41.3730   25.1680   43.7460 H   0  0  0  0  0  0  0  0  0  0  0  0
   40.0660   24.1410   41.8990 H   0  0  0  0  0  0  0  0  0  0  0  0
   35.8760   23.6210   40.0150 C   0  0  0  0  0  0  0  0  0  0  0  0
   36.5820   24.1060   41.1330 C   0  0  0  0  0  0  0  0  0  0  0  0
   37.6730   24.9510   40.9220 C   0  0  0  0  0  0  0  0  0  0  0  0
   37.9870   25.2550   39.6380 N   0  0  0  0  0  0  0  0  0  0  0  0
   37.2880   24.7730   38.5750 C   0  0  0  0  0  0  0  0  0  0  0  0
   36.2430   23.9630   38.7850 N   0  0  0  0  0  0  0  0  0  0  0  0
   35.0480   22.9760   40.2300 H   0  0  0  0  0  0  0  0  0  0  0  0
   36.3270   23.8600   42.1670 H   0  0  0  0  0  0  0  0  0  0  0  0
   37.6590   25.1050   37.6130 H   0  0  0  0  0  0  0  0  0  0  0  0
   36.1880   29.3680   40.8010 S   0  0  0  0  0  0  0  0  0  0  0  0
   34.7050   29.4010   40.5390 O   0  0  0  0  0  0  0  0  0  0  0  0
   34.1790   30.1980   40.2640 H   0  0  0  0  0  0  0  0  0  0  0  0
   36.8940   28.6950   39.6860 O   0  0  0  0  0  0  0  0  0  0  0  0
   36.4620   28.4100   38.8650 H   0  0  0  0  0  0  0  0  0  0  0  0
   36.7300   30.9610   40.9100 O   0  0  0  0  0  0  0  0  0  0  0  0
   38.0420   30.9790   40.4470 C   0  0  0  0  0  0  0  0  0  0  0  0
   38.4390   30.0200   40.1260 H   0  0  0  0  0  0  0  0  0  0  0  0
   38.0610   31.6520   39.5500 H   0  0  0  0  0  0  0  0  0  0  0  0
   38.9300   31.6520   41.4820 C   0  0  0  0  0  0  0  0  0  0  0  0
   39.7190   30.9020   41.7510 H   0  0  0  0  0  0  0  0  0  0  0  0
   38.3580   31.9750   42.3650 H   0  0  0  0  0  0  0  0  0  0  0  0
   41.9090   31.4490   40.6690 Cl  0  0  0  0  0  0  0  0  0  0  0  0
   40.8700   32.8360   40.4410 C   0  0  0  0  0  0  0  0  0  0  0  0
   39.5390   32.8400   40.8430 C   0  0  0  0  0  0  0  0  0  0  0  0
   38.8270   33.9990   40.6150 C   0  0  0  0  0  0  0  0  0  0  0  0
   37.7710   34.0720   40.9060 H   0  0  0  0  0  0  0  0  0  0  0  0
   39.4170   35.0940   40.0160 C   0  0  0  0  0  0  0  0  0  0  0  0
   38.8930   36.0410   39.8130 H   0  0  0  0  0  0  0  0  0  0  0  0
   40.7380   35.0990   39.6140 C   0  0  0  0  0  3  0  0  0  0  0  0
   41.4540   33.9570   39.8340 C   0  0  0  0  0  3  0  0  0  0  0  0
  1  2  1  0  0  0  0
  3  1  1  0  0  0  0
  3  7  1  0  0  0  0
  3  5  1  0  0  0  0
  4  3  1  0  0  0  0
  6 11  2  0  0  0  0
  6  7  1  0  0  0  0
  7  8  2  0  0  0  0
  8  9  1  0  0  0  0
  8 12  1  0  0  0  0
  9 13  1  0  0  0  0
 10 14  1  0  0  0  0
 10  9  2  0  0  0  0
 11 10  1  0  0  0  0
 15 11  1  0  0  0  0
 16 22  1  0  0  0  0
 16 17  1  0  0  0  0
 17 23  1  0  0  0  0
 18 17  2  0  0  0  0
 18  6  1  0  0  0  0
 19 18  1  0  0  0  0
 20 21  1  0  0  0  0
 20 19  2  0  0  0  0
 21 16  2  0  0  0  0
 24 20  1  0  0  0  0
 25 30  1  0  0  0  0
 25  1  1  0  0  0  0
 26 25  1  0  0  0  0
 27 26  1  0  0  0  0
 28 25  1  0  0  0  0
 29 28  1  0  0  0  0
 31 30  1  0  0  0  0
 31 34  1  0  0  0  0
 32 31  1  0  0  0  0
 33 31  1  0  0  0  0
 34 35  1  0  0  0  0
 34 36  1  0  0  0  0
 38 37  1  0  0  0  0
 38 39  1  0  0  0  0
 39 34  1  0  0  0  0
 40 39  2  0  0  0  0
 40 41  1  0  0  0  0
 42 40  1  0  0  0  0
 43 42  1  0  0  0  0
 44 45  1  0  0  0  0
 44 42  2  0  0  0  0
 45 38  2  0  0  0  0
M  END
>  <minimizedAffinity>
-5.83719349

$$$$

 OpenBabel03252508483D

 45 47  0  0  0  0  0  0  0  0999 V2000
   35.9560   31.3330   40.8770 N   0  0  0  0  0  0  0  0  0  0  0  0
   35.6500   31.9550   41.6610 H   0  0  0  0  0  0  0  0  0  0  0  0
   36.2940   30.0180   41.3090 C   0  0  0  0  0  0  0  0  0  0  0  0
   35.6750   29.7560   42.2170 H   0  0  0  0  0  0  0  0  0  0  0  0
   37.3500   29.9400   41.6920 H   0  0  0  0  0  0  0  0  0  0  0  0
   36.8690   27.7920   40.3200 C   0  0  0  0  0  0  0  0  0  0  0  0
   36.0990   28.9440   40.2940 C   0  0  0  0  0  0  0  0  0  0  0  0
   35.1510   29.0720   39.3080 C   0  0  0  0  0  0  0  0  0  0  0  0
   34.9790   28.0850   38.3840 C   0  0  0  0  0  0  0  0  0  0  0  0
   35.7320   26.9300   38.3890 C   0  0  0  0  0  0  0  0  0  0  0  0
   36.6780   26.8380   39.3970 C   0  0  0  0  0  0  0  0  0  0  0  0
   34.5680   29.9920   39.3220 H   0  0  0  0  0  0  0  0  0  0  0  0
   34.2080   28.2550   37.6320 H   0  0  0  0  0  0  0  0  0  0  0  0
   35.5730   26.1640   37.6420 H   0  0  0  0  0  0  0  0  0  0  0  0
   37.2870   25.9380   39.4260 H   0  0  0  0  0  0  0  0  0  0  0  0
   38.6280   27.1410   43.6110 C   0  0  0  0  0  0  0  0  0  0  0  0
   37.5950   27.1680   42.6540 C   0  0  0  0  0  0  0  0  0  0  0  0
   37.8630   27.7090   41.3940 C   0  0  0  0  0  0  0  0  0  0  0  0
   39.1150   28.1800   41.1710 N   0  0  0  0  0  0  0  0  0  0  0  0
   40.0950   28.1420   42.1140 C   0  0  0  0  0  0  0  0  0  0  0  0
   39.8320   27.6220   43.3190 N   0  0  0  0  0  0  0  0  0  0  0  0
   38.3730   26.7170   44.5600 H   0  0  0  0  0  0  0  0  0  0  0  0
   36.5870   26.7880   42.8350 H   0  0  0  0  0  0  0  0  0  0  0  0
   41.0410   28.5550   41.7870 H   0  0  0  0  0  0  0  0  0  0  0  0
   37.2560   32.1230   40.0680 S   0  0  0  0  0  0  0  0  0  0  0  0
   37.2490   33.6050   40.3380 O   0  0  0  0  0  0  0  0  0  0  0  0
   38.0260   34.1470   40.6370 H   0  0  0  0  0  0  0  0  0  0  0  0
   37.2270   31.8640   38.6090 O   0  0  0  0  0  0  0  0  0  0  0  0
   37.2940   32.5580   37.9350 H   0  0  0  0  0  0  0  0  0  0  0  0
   38.6820   31.4870   40.7080 O   0  0  0  0  0  0  0  0  0  0  0  0
   39.6110   32.5230   40.7430 C   0  0  0  0  0  0  0  0  0  0  0  0
   39.3700   33.3890   40.1330 H   0  0  0  0  0  0  0  0  0  0  0  0
   39.6590   32.8790   41.8050 H   0  0  0  0  0  0  0  0  0  0  0  0
   40.9930   31.9670   40.4350 C   0  0  0  0  0  0  0  0  0  0  0  0
   41.1190   32.0420   39.3230 H   0  0  0  0  0  0  0  0  0  0  0  0
   41.1050   30.9300   40.7870 H   0  0  0  0  0  0  0  0  0  0  0  0
   42.8100   30.6020   42.5350 Cl  0  0  0  0  0  0  0  0  0  0  0  0
   42.8430   32.2900   42.0840 C   0  0  0  0  0  0  0  0  0  0  0  0
   41.9820   32.8200   41.1290 C   0  0  0  0  0  0  0  0  0  0  0  0
   42.1030   34.1700   40.8690 C   0  0  0  0  0  0  0  0  0  0  0  0
   41.4560   34.6550   40.1250 H   0  0  0  0  0  0  0  0  0  0  0  0
   43.0350   34.9440   41.5290 C   0  0  0  0  0  0  0  0  0  0  0  0
   43.1700   36.0240   41.3580 H   0  0  0  0  0  0  0  0  0  0  0  0
   43.8930   34.4270   42.4780 C   0  0  0  0  0  3  0  0  0  0  0  0
   43.7850   33.0920   42.7450 C   0  0  0  0  0  3  0  0  0  0  0  0
  1  3  1  0  0  0  0
  1  2  1  0  0  0  0
  3  5  1  0  0  0  0
  3  4  1  0  0  0  0
  6 18  1  0  0  0  0
  7  6  1  0  0  0  0
  7  3  1  0  0  0  0
  8 12  1  0  0  0  0
  8  7  2  0  0  0  0
  9 10  2  0  0  0  0
  9  8  1  0  0  0  0
 10 11  1  0  0  0  0
 11 15  1  0  0  0  0
 11  6  2  0  0  0  0
 13  9  1  0  0  0  0
 14 10  1  0  0  0  0
 16 22  1  0  0  0  0
 17 23  1  0  0  0  0
 17 16  2  0  0  0  0
 18 17  1  0  0  0  0
 19 18  2  0  0  0  0
 19 20  1  0  0  0  0
 20 21  2  0  0  0  0
 21 16  1  0  0  0  0
 24 20  1  0  0  0  0
 25 26  1  0  0  0  0
 25 30  1  0  0  0  0
 25  1  1  0  0  0  0
 26 27  1  0  0  0  0
 28 25  1  0  0  0  0
 29 28  1  0  0  0  0
 30 31  1  0  0  0  0
 31 33  1  0  0  0  0
 32 31  1  0  0  0  0
 34 31  1  0  0  0  0
 34 36  1  0  0  0  0
 34 39  1  0  0  0  0
 35 34  1  0  0  0  0
 38 37  1  0  0  0  0
 38 45  1  0  0  0  0
 39 38  2  0  0  0  0
 40 39  1  0  0  0  0
 40 42  2  0  0  0  0
 41 40  1  0  0  0  0
 42 44  1  0  0  0  0
 43 42  1  0  0  0  0
 44 45  2  0  0  0  0
M  END
>  <minimizedAffinity>
-5.76417255

$$$$
