
 OpenBabel03252508463D

 45 47  0  0  0  0  0  0  0  0999 V2000
   42.7620   31.3910   42.7020 N   0  0  0  0  0  0  0  0  0  0  0  0
   42.8940   31.7070   43.6910 H   0  0  0  0  0  0  0  0  0  0  0  0
   43.0890   32.3990   41.7480 C   0  0  0  0  0  0  0  0  0  0  0  0
   42.1340   32.8470   41.3430 H   0  0  0  0  0  0  0  0  0  0  0  0
   43.5840   31.9860   40.8260 H   0  0  0  0  0  0  0  0  0  0  0  0
   43.6690   34.8270   41.9200 C   0  0  0  0  0  0  0  0  0  0  0  0
   43.9380   33.5100   42.2600 C   0  0  0  0  0  0  0  0  0  0  0  0
   45.0100   33.2560   43.0830 C   0  0  0  0  0  0  0  0  0  0  0  0
   45.7810   34.2790   43.5470 C   0  0  0  0  0  0  0  0  0  0  0  0
   45.5340   35.5950   43.2230 C   0  0  0  0  0  0  0  0  0  0  0  0
   44.4470   35.8130   42.3920 C   0  0  0  0  0  0  0  0  0  0  0  0
   45.1870   32.2090   43.3260 H   0  0  0  0  0  0  0  0  0  0  0  0
   46.6130   34.0010   44.1950 H   0  0  0  0  0  0  0  0  0  0  0  0
   46.1650   36.3860   43.6060 H   0  0  0  0  0  0  0  0  0  0  0  0
   44.2280   36.8420   42.1180 H   0  0  0  0  0  0  0  0  0  0  0  0
   40.1880   35.4780   40.5760 C   0  0  0  0  0  0  0  0  0  0  0  0
   41.2240   35.2910   41.5120 C   0  0  0  0  0  0  0  0  0  0  0  0
   42.5150   35.0390   41.0430 C   0  0  0  0  0  0  0  0  0  0  0  0
   42.6910   34.9900   39.6980 N   0  0  0  0  0  0  0  0  0  0  0  0
   41.6730   35.1750   38.8150 C   0  0  0  0  0  0  0  0  0  0  0  0
   40.4380   35.4160   39.2720 N   0  0  0  0  0  0  0  0  0  0  0  0
   39.2180   35.6680   40.9860 H   0  0  0  0  0  0  0  0  0  0  0  0
   41.0810   35.3310   42.5950 H   0  0  0  0  0  0  0  0  0  0  0  0
   41.9690   35.1070   37.7760 H   0  0  0  0  0  0  0  0  0  0  0  0
   41.1390   30.8320   42.5500 S   0  0  0  0  0  0  0  0  0  0  0  0
   40.2660   31.8640   41.8840 O   0  0  0  0  0  0  0  0  0  0  0  0
   39.6560   31.7030   41.1170 H   0  0  0  0  0  0  0  0  0  0  0  0
   40.5720   30.4460   43.8630 O   0  0  0  0  0  0  0  0  0  0  0  0
   39.7100   30.7470   44.1900 H   0  0  0  0  0  0  0  0  0  0  0  0
   41.1870   29.4730   41.5530 O   0  0  0  0  0  0  0  0  0  0  0  0
   40.7140   28.4000   42.3020 C   0  0  0  0  0  0  0  0  0  0  0  0
   40.1100   28.6620   43.1660 H   0  0  0  0  0  0  0  0  0  0  0  0
   40.0600   27.7940   41.6220 H   0  0  0  0  0  0  0  0  0  0  0  0
   41.8770   27.4910   42.6670 C   0  0  0  0  0  0  0  0  0  0  0  0
   42.7320   28.1680   42.9280 H   0  0  0  0  0  0  0  0  0  0  0  0
   42.1360   26.8070   41.8440 H   0  0  0  0  0  0  0  0  0  0  0  0
   42.7820   28.5080   45.4460 Cl  0  0  0  0  0  0  0  0  0  0  0  0
   41.8260   27.0790   45.1320 C   0  0  0  0  0  0  0  0  0  0  0  0
   41.4690   26.6940   43.8450 C   0  0  0  0  0  0  0  0  0  0  0  0
   40.7200   25.5400   43.7310 C   0  0  0  0  0  0  0  0  0  0  0  0
   40.4020   25.1770   42.7440 H   0  0  0  0  0  0  0  0  0  0  0  0
   40.3510   24.8150   44.8450 C   0  0  0  0  0  0  0  0  0  0  0  0
   39.7560   23.8880   44.8070 H   0  0  0  0  0  0  0  0  0  0  0  0
   40.7020   25.1900   46.1250 C   0  0  0  0  0  3  0  0  0  0  0  0
   41.4420   26.3300   46.2540 C   0  0  0  0  0  3  0  0  0  0  0  0
  1  2  1  0  0  0  0
  3  7  1  0  0  0  0
  3  1  1  0  0  0  0
  4  3  1  0  0  0  0
  5  3  1  0  0  0  0
  6  7  2  0  0  0  0
  6 11  1  0  0  0  0
  7  8  1  0  0  0  0
  8 12  1  0  0  0  0
  8  9  2  0  0  0  0
  9 13  1  0  0  0  0
 10  9  1  0  0  0  0
 10 14  1  0  0  0  0
 11 10  2  0  0  0  0
 15 11  1  0  0  0  0
 16 22  1  0  0  0  0
 16 17  1  0  0  0  0
 17 23  1  0  0  0  0
 18 17  2  0  0  0  0
 18  6  1  0  0  0  0
 19 18  1  0  0  0  0
 20 21  1  0  0  0  0
 20 19  2  0  0  0  0
 21 16  2  0  0  0  0
 24 20  1  0  0  0  0
 25  1  1  0  0  0  0
 25 28  1  0  0  0  0
 26 25  1  0  0  0  0
 27 26  1  0  0  0  0
 28 29  1  0  0  0  0
 30 31  1  0  0  0  0
 30 25  1  0  0  0  0
 31 34  1  0  0  0  0
 31 32  1  0  0  0  0
 33 31  1  0  0  0  0
 34 35  1  0  0  0  0
 34 39  1  0  0  0  0
 36 34  1  0  0  0  0
 38 37  1  0  0  0  0
 38 45  1  0  0  0  0
 39 38  2  0  0  0  0
 40 39  1  0  0  0  0
 40 42  2  0  0  0  0
 41 40  1  0  0  0  0
 42 44  1  0  0  0  0
 43 42  1  0  0  0  0
 44 45  2  0  0  0  0
M  END
>  <minimizedAffinity>
-5.38302088

>  <minimizedRMSD>
1.74512911

$$$$
