
 OpenBabel03252508463D

 45 47  0  0  0  0  0  0  0  0999 V2000
   42.7060   31.4320   42.6070 N   0  0  0  0  0  0  0  0  0  0  0  0
   42.9850   31.6690   43.5870 H   0  0  0  0  0  0  0  0  0  0  0  0
   43.0040   32.4700   41.6760 C   0  0  0  0  0  0  0  0  0  0  0  0
   42.0380   32.9320   41.3180 H   0  0  0  0  0  0  0  0  0  0  0  0
   43.4690   32.0870   40.7260 H   0  0  0  0  0  0  0  0  0  0  0  0
   43.6210   34.8870   41.8720 C   0  0  0  0  0  0  0  0  0  0  0  0
   43.8720   33.5630   42.1980 C   0  0  0  0  0  0  0  0  0  0  0  0
   44.9420   33.2830   43.0130 C   0  0  0  0  0  0  0  0  0  0  0  0
   45.7310   34.2900   43.4850 C   0  0  0  0  0  0  0  0  0  0  0  0
   45.5020   35.6130   43.1760 C   0  0  0  0  0  0  0  0  0  0  0  0
   44.4160   35.8560   42.3510 C   0  0  0  0  0  0  0  0  0  0  0  0
   45.1050   32.2320   43.2440 H   0  0  0  0  0  0  0  0  0  0  0  0
   46.5610   33.9930   44.1270 H   0  0  0  0  0  0  0  0  0  0  0  0
   46.1470   36.3910   43.5660 H   0  0  0  0  0  0  0  0  0  0  0  0
   44.2110   36.8910   42.0900 H   0  0  0  0  0  0  0  0  0  0  0  0
   40.1620   35.6730   40.5470 C   0  0  0  0  0  0  0  0  0  0  0  0
   41.2000   35.4680   41.4760 C   0  0  0  0  0  0  0  0  0  0  0  0
   42.4670   35.1260   41.0020 C   0  0  0  0  0  0  0  0  0  0  0  0
   42.6200   35.0100   39.6590 N   0  0  0  0  0  0  0  0  0  0  0  0
   41.6000   35.2130   38.7810 C   0  0  0  0  0  0  0  0  0  0  0  0
   40.3870   35.5420   39.2440 N   0  0  0  0  0  0  0  0  0  0  0  0
   39.2090   35.9340   40.9610 H   0  0  0  0  0  0  0  0  0  0  0  0
   41.0750   35.5620   42.5580 H   0  0  0  0  0  0  0  0  0  0  0  0
   41.8760   35.0850   37.7420 H   0  0  0  0  0  0  0  0  0  0  0  0
   41.0330   31.0210   42.6320 S   0  0  0  0  0  0  0  0  0  0  0  0
   40.1670   32.2420   42.4550 O   0  0  0  0  0  0  0  0  0  0  0  0
   39.4200   32.3370   41.8080 H   0  0  0  0  0  0  0  0  0  0  0  0
   40.6670   30.3050   43.8770 O   0  0  0  0  0  0  0  0  0  0  0  0
   39.9110   30.5440   44.4360 H   0  0  0  0  0  0  0  0  0  0  0  0
   40.7650   30.0010   41.3160 O   0  0  0  0  0  0  0  0  0  0  0  0
   40.1630   28.8470   41.8090 C   0  0  0  0  0  0  0  0  0  0  0  0
   40.6070   28.4360   42.7110 H   0  0  0  0  0  0  0  0  0  0  0  0
   39.1050   29.1180   42.0640 H   0  0  0  0  0  0  0  0  0  0  0  0
   40.0640   27.8170   40.6950 C   0  0  0  0  0  0  0  0  0  0  0  0
   41.1160   27.5990   40.3770 H   0  0  0  0  0  0  0  0  0  0  0  0
   39.4530   28.1810   39.8540 H   0  0  0  0  0  0  0  0  0  0  0  0
   37.1580   27.2040   39.8250 Cl  0  0  0  0  0  0  0  0  0  0  0  0
   38.1300   26.2500   40.9210 C   0  0  0  0  0  0  0  0  0  0  0  0
   39.4300   26.6060   41.2610 C   0  0  0  0  0  0  0  0  0  0  0  0
   40.0870   25.7740   42.1440 C   0  0  0  0  0  0  0  0  0  0  0  0
   41.1180   25.9940   42.4560 H   0  0  0  0  0  0  0  0  0  0  0  0
   39.4750   24.6500   42.6570 C   0  0  0  0  0  0  0  0  0  0  0  0
   39.9550   23.9560   43.3660 H   0  0  0  0  0  0  0  0  0  0  0  0
   38.1840   24.2900   42.3250 C   0  0  0  0  0  3  0  0  0  0  0  0
   37.5220   25.1040   41.4530 C   0  0  0  0  0  3  0  0  0  0  0  0
  1 25  1  0  0  0  0
  1  2  1  0  0  0  0
  3  7  1  0  0  0  0
  3  1  1  0  0  0  0
  4  3  1  0  0  0  0
  5  3  1  0  0  0  0
  6  7  2  0  0  0  0
  6 11  1  0  0  0  0
  7  8  1  0  0  0  0
  8 12  1  0  0  0  0
  8  9  2  0  0  0  0
  9 13  1  0  0  0  0
 10  9  1  0  0  0  0
 10 14  1  0  0  0  0
 11 10  2  0  0  0  0
 15 11  1  0  0  0  0
 16 22  1  0  0  0  0
 16 17  1  0  0  0  0
 17 23  1  0  0  0  0
 18 17  2  0  0  0  0
 18  6  1  0  0  0  0
 19 18  1  0  0  0  0
 20 21  1  0  0  0  0
 20 19  2  0  0  0  0
 21 16  2  0  0  0  0
 24 20  1  0  0  0  0
 25 28  1  0  0  0  0
 26 25  1  0  0  0  0
 27 26  1  0  0  0  0
 28 29  1  0  0  0  0
 30 31  1  0  0  0  0
 30 25  1  0  0  0  0
 31 33  1  0  0  0  0
 31 32  1  0  0  0  0
 34 39  1  0  0  0  0
 34 31  1  0  0  0  0
 35 34  1  0  0  0  0
 36 34  1  0  0  0  0
 37 38  1  0  0  0  0
 38 39  2  0  0  0  0
 38 45  1  0  0  0  0
 39 40  1  0  0  0  0
 40 41  1  0  0  0  0
 40 42  2  0  0  0  0
 42 43  1  0  0  0  0
 44 42  1  0  0  0  0
 45 44  2  0  0  0  0
M  END
>  <minimizedAffinity>
-5.12728596

>  <minimizedRMSD>
0.487283081

$$$$
