
 OpenBabel03252508463D

 45 47  0  0  0  0  0  0  0  0999 V2000
   42.6850   31.4360   42.5740 N   0  0  0  0  0  0  0  0  0  0  0  0
   42.9880   31.6380   43.5550 H   0  0  0  0  0  0  0  0  0  0  0  0
   43.0080   32.4850   41.6640 C   0  0  0  0  0  0  0  0  0  0  0  0
   42.0530   32.9730   41.3080 H   0  0  0  0  0  0  0  0  0  0  0  0
   43.4720   32.1100   40.7090 H   0  0  0  0  0  0  0  0  0  0  0  0
   43.6780   34.8850   41.8990 C   0  0  0  0  0  0  0  0  0  0  0  0
   43.8940   33.5510   42.2110 C   0  0  0  0  0  0  0  0  0  0  0  0
   44.9470   33.2370   43.0360 C   0  0  0  0  0  0  0  0  0  0  0  0
   45.7520   34.2190   43.5310 C   0  0  0  0  0  0  0  0  0  0  0  0
   45.5570   35.5520   43.2360 C   0  0  0  0  0  0  0  0  0  0  0  0
   44.4870   35.8290   42.4010 C   0  0  0  0  0  0  0  0  0  0  0  0
   45.0830   32.1790   43.2560 H   0  0  0  0  0  0  0  0  0  0  0  0
   46.5670   33.8950   44.1790 H   0  0  0  0  0  0  0  0  0  0  0  0
   46.2140   36.3090   43.6440 H   0  0  0  0  0  0  0  0  0  0  0  0
   44.3100   36.8720   42.1500 H   0  0  0  0  0  0  0  0  0  0  0  0
   40.2580   35.7820   40.5390 C   0  0  0  0  0  0  0  0  0  0  0  0
   41.2800   35.5430   41.4800 C   0  0  0  0  0  0  0  0  0  0  0  0
   42.5410   35.1610   41.0170 C   0  0  0  0  0  0  0  0  0  0  0  0
   42.7040   35.0420   39.6760 N   0  0  0  0  0  0  0  0  0  0  0  0
   41.6990   35.2780   38.7880 C   0  0  0  0  0  0  0  0  0  0  0  0
   40.4930   35.6450   39.2390 N   0  0  0  0  0  0  0  0  0  0  0  0
   39.3110   36.0720   40.9440 H   0  0  0  0  0  0  0  0  0  0  0  0
   41.1470   35.6400   42.5600 H   0  0  0  0  0  0  0  0  0  0  0  0
   41.9820   35.1420   37.7520 H   0  0  0  0  0  0  0  0  0  0  0  0
   40.9970   31.0900   42.6160 S   0  0  0  0  0  0  0  0  0  0  0  0
   40.1770   32.3430   42.4520 O   0  0  0  0  0  0  0  0  0  0  0  0
   39.4270   32.4690   41.8130 H   0  0  0  0  0  0  0  0  0  0  0  0
   40.6180   30.3850   43.8630 O   0  0  0  0  0  0  0  0  0  0  0  0
   39.8780   30.6500   44.4310 H   0  0  0  0  0  0  0  0  0  0  0  0
   40.6760   30.0850   41.3000 O   0  0  0  0  0  0  0  0  0  0  0  0
   39.9360   29.0080   41.7790 C   0  0  0  0  0  0  0  0  0  0  0  0
   39.5600   29.1120   42.7930 H   0  0  0  0  0  0  0  0  0  0  0  0
   39.0400   28.9090   41.1120 H   0  0  0  0  0  0  0  0  0  0  0  0
   40.7320   27.7270   41.5880 C   0  0  0  0  0  0  0  0  0  0  0  0
   41.5150   27.7240   42.3900 H   0  0  0  0  0  0  0  0  0  0  0  0
   41.1780   27.6680   40.5830 H   0  0  0  0  0  0  0  0  0  0  0  0
   41.6540   25.4200   43.4310 Cl  0  0  0  0  0  0  0  0  0  0  0  0
   40.1290   25.5130   42.5820 C   0  0  0  0  0  0  0  0  0  0  0  0
   39.8000   26.5910   41.7670 C   0  0  0  0  0  0  0  0  0  0  0  0
   38.5690   26.5420   41.1450 C   0  0  0  0  0  0  0  0  0  0  0  0
   38.2430   27.3600   40.4880 H   0  0  0  0  0  0  0  0  0  0  0  0
   37.7180   25.4710   41.3290 C   0  0  0  0  0  0  0  0  0  0  0  0
   36.7280   25.3840   40.8540 H   0  0  0  0  0  0  0  0  0  0  0  0
   38.0380   24.3990   42.1350 C   0  0  0  0  0  3  0  0  0  0  0  0
   39.2520   24.4340   42.7570 C   0  0  0  0  0  3  0  0  0  0  0  0
  1 25  1  0  0  0  0
  1  2  1  0  0  0  0
  3  7  1  0  0  0  0
  3  1  1  0  0  0  0
  4  3  1  0  0  0  0
  5  3  1  0  0  0  0
  6  7  2  0  0  0  0
  6 11  1  0  0  0  0
  7  8  1  0  0  0  0
  8 12  1  0  0  0  0
  8  9  2  0  0  0  0
  9 13  1  0  0  0  0
 10  9  1  0  0  0  0
 10 14  1  0  0  0  0
 11 10  2  0  0  0  0
 15 11  1  0  0  0  0
 16 22  1  0  0  0  0
 16 17  1  0  0  0  0
 17 23  1  0  0  0  0
 18 17  2  0  0  0  0
 18  6  1  0  0  0  0
 19 18  1  0  0  0  0
 20 21  1  0  0  0  0
 20 19  2  0  0  0  0
 21 16  2  0  0  0  0
 24 20  1  0  0  0  0
 25 28  1  0  0  0  0
 26 25  1  0  0  0  0
 27 26  1  0  0  0  0
 28 29  1  0  0  0  0
 30 31  1  0  0  0  0
 30 25  1  0  0  0  0
 31 32  1  0  0  0  0
 33 31  1  0  0  0  0
 34 39  1  0  0  0  0
 34 31  1  0  0  0  0
 34 35  1  0  0  0  0
 36 34  1  0  0  0  0
 38 45  1  0  0  0  0
 38 37  1  0  0  0  0
 39 38  2  0  0  0  0
 40 42  2  0  0  0  0
 40 39  1  0  0  0  0
 41 40  1  0  0  0  0
 42 44  1  0  0  0  0
 43 42  1  0  0  0  0
 44 45  2  0  0  0  0
M  END
>  <minimizedAffinity>
-5.16574621

>  <minimizedRMSD>
0.401459634

$$$$
