
 OpenBabel03252502253D

 34 36  0  0  1  0  0  0  0  0999 V2000
   36.8710   30.4980   39.3140 N   0  0  0  0  0  0  0  0  0  0  0  0
   36.8890   29.6890   38.0980 C   0  0  0  0  0  0  0  0  0  0  0  0
   35.3950   29.5500   37.7430 C   0  0  0  0  0  0  0  0  0  0  0  0
   34.6720   28.7660   38.7910 C   0  0  0  0  0  0  0  0  0  0  0  0
   35.0960   29.0660   40.1860 C   0  0  0  0  0  0  0  0  0  0  0  0
   35.9090   30.3180   40.3790 C   0  0  1  0  0  0  0  0  0  0  0  0
   37.3930   30.2010   37.2790 H   0  0  0  0  0  0  0  0  0  0  0  0
   37.2680   28.7030   38.3710 H   0  0  0  0  0  0  0  0  0  0  0  0
   35.4070   28.8960   36.8240 H   0  0  0  0  0  0  0  0  0  0  0  0
   34.9590   30.5190   37.5020 H   0  0  0  0  0  0  0  0  0  0  0  0
   34.8350   27.6660   38.6370 H   0  0  0  0  0  0  0  0  0  0  0  0
   33.5850   28.9130   38.6060 H   0  0  0  0  0  0  0  0  0  0  0  0
   35.5950   28.2120   40.6930 H   0  0  0  0  0  0  0  0  0  0  0  0
   34.1540   29.2320   40.7660 H   0  0  0  0  0  0  0  0  0  0  0  0
   35.2510   31.2050   40.3730 H   0  0  0  0  0  0  0  0  0  0  0  0
   38.5110   33.7720   40.0980 C   0  0  0  0  0  0  0  0  0  0  0  0
   37.4710   32.8310   39.9560 C   0  0  0  0  0  0  0  0  0  0  0  0
   37.8480   31.5390   39.4970 C   0  0  0  0  0  0  0  0  0  0  0  0
   39.1570   31.3070   39.2320 N   0  0  0  0  0  0  0  0  0  0  0  0
   40.1220   32.2420   39.3830 C   0  0  0  0  0  0  0  0  0  0  0  0
   39.7870   33.4820   39.8200 N   0  0  0  0  0  0  0  0  0  0  0  0
   38.2390   34.7660   40.4500 H   0  0  0  0  0  0  0  0  0  0  0  0
   36.4420   33.0230   40.1680 H   0  0  0  0  0  0  0  0  0  0  0  0
   41.1060   31.8730   39.1240 H   0  0  0  0  0  0  0  0  0  0  0  0
   36.5770   30.2160   41.5720 O   0  0  0  0  0  0  0  0  0  0  0  0
   39.5020   30.7540   42.6150 Cl  0  0  0  0  0  0  0  0  0  0  0  0
   38.6260   29.2460   42.7000 C   0  0  0  0  0  0  0  0  0  0  0  0
   37.3640   29.3140   42.1620 C   0  0  0  0  0  0  0  0  0  0  0  0
   36.6410   28.1080   42.2230 C   0  0  0  0  0  0  0  0  0  0  0  0
   35.6190   27.8730   41.8730 H   0  0  0  0  0  0  0  0  0  0  0  0
   37.1690   26.9360   42.7870 C   0  0  0  0  0  0  0  0  0  0  0  0
   36.7040   25.9860   42.8770 H   0  0  0  0  0  0  0  0  0  0  0  0
   38.4510   27.0000   43.2940 C   0  0  0  0  0  3  0  0  0  0  0  0
   39.2150   28.1440   43.2690 C   0  0  0  0  0  3  0  0  0  0  0  0
  1 18  1  0  0  0  0
  1  6  1  0  0  0  0
  2  8  1  0  0  0  0
  2  1  1  0  0  0  0
  3  2  1  0  0  0  0
  3  4  1  0  0  0  0
  4  5  1  0  0  0  0
  5  6  1  0  0  0  0
  5 13  1  0  0  0  0
  5 14  1  0  0  0  0
  6 15  1  1  0  0  0
  6 25  1  0  0  0  0
  7  2  1  0  0  0  0
  9  3  1  0  0  0  0
 10  3  1  0  0  0  0
 11  4  1  0  0  0  0
 12  4  1  0  0  0  0
 16 22  1  0  0  0  0
 17 16  1  0  0  0  0
 17 23  1  0  0  0  0
 18 17  2  0  0  0  0
 19 20  2  0  0  0  0
 19 18  1  0  0  0  0
 20 21  1  0  0  0  0
 21 16  2  0  0  0  0
 24 20  1  0  0  0  0
 25 28  1  0  0  0  0
 26 27  1  0  0  0  0
 27 34  1  0  0  0  0
 28 29  1  0  0  0  0
 28 27  2  0  0  0  0
 29 31  2  0  0  0  0
 30 29  1  0  0  0  0
 31 32  1  0  0  0  0
 31 33  1  0  0  0  0
 34 33  2  0  0  0  0
M  END
>  <minimizedAffinity>
-5.92973471

$$$$

 OpenBabel03252502253D

 34 36  0  0  1  0  0  0  0  0999 V2000
   37.3670   30.5980   39.6340 N   0  0  0  0  0  0  0  0  0  0  0  0
   37.3290   29.9520   38.3240 C   0  0  0  0  0  0  0  0  0  0  0  0
   35.8430   29.5700   38.1620 C   0  0  0  0  0  0  0  0  0  0  0  0
   35.4450   28.5480   39.1780 C   0  0  0  0  0  0  0  0  0  0  0  0
   36.0290   28.7620   40.5290 C   0  0  0  0  0  0  0  0  0  0  0  0
   36.6350   30.1170   40.7850 C   0  0  1  0  0  0  0  0  0  0  0  0
   37.5980   30.6410   37.5260 H   0  0  0  0  0  0  0  0  0  0  0  0
   37.9100   29.0320   38.4010 H   0  0  0  0  0  0  0  0  0  0  0  0
   35.8200   29.0400   37.1670 H   0  0  0  0  0  0  0  0  0  0  0  0
   35.2140   30.4580   38.1220 H   0  0  0  0  0  0  0  0  0  0  0  0
   35.7680   27.5240   38.8480 H   0  0  0  0  0  0  0  0  0  0  0  0
   34.3330   28.5040   39.1660 H   0  0  0  0  0  0  0  0  0  0  0  0
   36.7430   27.9680   40.8380 H   0  0  0  0  0  0  0  0  0  0  0  0
   35.1780   28.6780   41.2510 H   0  0  0  0  0  0  0  0  0  0  0  0
   35.8420   30.8560   40.9950 H   0  0  0  0  0  0  0  0  0  0  0  0
   38.4480   34.1200   40.3060 C   0  0  0  0  0  0  0  0  0  0  0  0
   37.5690   33.0310   40.1390 C   0  0  0  0  0  0  0  0  0  0  0  0
   38.1670   31.7790   39.8260 C   0  0  0  0  0  0  0  0  0  0  0  0
   39.5160   31.7220   39.7120 N   0  0  0  0  0  0  0  0  0  0  0  0
   40.3220   32.7940   39.8810 C   0  0  0  0  0  0  0  0  0  0  0  0
   39.7740   33.9990   40.1790 N   0  0  0  0  0  0  0  0  0  0  0  0
   38.0050   35.0850   40.5460 H   0  0  0  0  0  0  0  0  0  0  0  0
   36.5060   33.0860   40.2310 H   0  0  0  0  0  0  0  0  0  0  0  0
   41.3690   32.5550   39.7510 H   0  0  0  0  0  0  0  0  0  0  0  0
   37.4940   30.0100   41.8480 O   0  0  0  0  0  0  0  0  0  0  0  0
   36.3370   27.7180   43.6760 Cl  0  0  0  0  0  0  0  0  0  0  0  0
   38.0070   27.9470   43.2220 C   0  0  0  0  0  0  0  0  0  0  0  0
   38.2120   29.0370   42.4130 C   0  0  0  0  0  0  0  0  0  0  0  0
   39.5530   29.2370   42.0350 C   0  0  0  0  0  0  0  0  0  0  0  0
   40.0030   30.0220   41.4000 H   0  0  0  0  0  0  0  0  0  0  0  0
   40.5920   28.3910   42.4540 C   0  0  0  0  0  0  0  0  0  0  0  0
   41.6260   28.4610   42.2230 H   0  0  0  0  0  0  0  0  0  0  0  0
   40.2530   27.3290   43.2660 C   0  0  0  0  0  3  0  0  0  0  0  0
   38.9650   27.0710   43.6750 C   0  0  0  0  0  3  0  0  0  0  0  0
  1 18  1  0  0  0  0
  1  6  1  0  0  0  0
  2  8  1  0  0  0  0
  2  1  1  0  0  0  0
  3  2  1  0  0  0  0
  3  4  1  0  0  0  0
  4  5  1  0  0  0  0
  5  6  1  0  0  0  0
  5 13  1  0  0  0  0
  5 14  1  0  0  0  0
  6 15  1  1  0  0  0
  6 25  1  0  0  0  0
  7  2  1  0  0  0  0
  9  3  1  0  0  0  0
 10  3  1  0  0  0  0
 11  4  1  0  0  0  0
 12  4  1  0  0  0  0
 16 22  1  0  0  0  0
 17 23  1  0  0  0  0
 17 16  2  0  0  0  0
 18 17  1  0  0  0  0
 19 18  2  0  0  0  0
 19 20  1  0  0  0  0
 20 21  2  0  0  0  0
 21 16  1  0  0  0  0
 24 20  1  0  0  0  0
 25 28  1  0  0  0  0
 27 34  1  0  0  0  0
 27 26  1  0  0  0  0
 28 27  2  0  0  0  0
 29 28  1  0  0  0  0
 29 31  2  0  0  0  0
 30 29  1  0  0  0  0
 31 33  1  0  0  0  0
 32 31  1  0  0  0  0
 33 34  2  0  0  0  0
M  END
>  <minimizedAffinity>
-5.48332739

$$$$

 OpenBabel03252502253D

 34 36  0  0  1  0  0  0  0  0999 V2000
   36.8010   28.1660   40.9420 N   0  0  0  0  0  0  0  0  0  0  0  0
   36.9930   26.8440   41.5310 C   0  0  0  0  0  0  0  0  0  0  0  0
   36.6130   27.0570   43.0110 C   0  0  0  0  0  0  0  0  0  0  0  0
   37.5740   27.9890   43.6760 C   0  0  0  0  0  0  0  0  0  0  0  0
   38.0050   29.1350   42.8320 C   0  0  0  0  0  0  0  0  0  0  0  0
   37.1850   29.3970   41.5970 C   0  0  1  0  0  0  0  0  0  0  0  0
   36.3160   26.1070   41.1020 H   0  0  0  0  0  0  0  0  0  0  0  0
   38.0610   26.6210   41.4830 H   0  0  0  0  0  0  0  0  0  0  0  0
   36.7950   26.0450   43.4730 H   0  0  0  0  0  0  0  0  0  0  0  0
   35.5610   27.3240   43.1080 H   0  0  0  0  0  0  0  0  0  0  0  0
   38.5080   27.4400   43.9720 H   0  0  0  0  0  0  0  0  0  0  0  0
   37.1100   28.2870   44.6430 H   0  0  0  0  0  0  0  0  0  0  0  0
   39.0850   29.1130   42.5670 H   0  0  0  0  0  0  0  0  0  0  0  0
   37.8860   30.0490   43.4650 H   0  0  0  0  0  0  0  0  0  0  0  0
   36.2530   29.9260   41.8630 H   0  0  0  0  0  0  0  0  0  0  0  0
   34.4150   28.9290   38.1570 C   0  0  0  0  0  0  0  0  0  0  0  0
   34.9060   28.8590   39.4770 C   0  0  0  0  0  0  0  0  0  0  0  0
   36.1990   28.2890   39.6400 C   0  0  0  0  0  0  0  0  0  0  0  0
   36.8560   27.8600   38.5350 N   0  0  0  0  0  0  0  0  0  0  0  0
   36.3460   27.9470   37.2860 C   0  0  0  0  0  0  0  0  0  0  0  0
   35.1150   28.4870   37.1060 N   0  0  0  0  0  0  0  0  0  0  0  0
   33.4270   29.3630   38.0150 H   0  0  0  0  0  0  0  0  0  0  0  0
   34.3790   29.2000   40.3420 H   0  0  0  0  0  0  0  0  0  0  0  0
   37.0160   27.5550   36.5330 H   0  0  0  0  0  0  0  0  0  0  0  0
   37.9390   30.1470   40.7310 O   0  0  0  0  0  0  0  0  0  0  0  0
   40.5480   31.5290   41.8310 Cl  0  0  0  0  0  0  0  0  0  0  0  0
   39.2580   32.2980   40.9400 C   0  0  0  0  0  0  0  0  0  0  0  0
   38.2460   31.4380   40.5900 C   0  0  0  0  0  0  0  0  0  0  0  0
   37.1970   32.0390   39.8700 C   0  0  0  0  0  0  0  0  0  0  0  0
   36.2670   31.5980   39.4660 H   0  0  0  0  0  0  0  0  0  0  0  0
   37.1890   33.4030   39.5400 C   0  0  0  0  0  0  0  0  0  0  0  0
   36.4480   33.9430   39.0040 H   0  0  0  0  0  0  0  0  0  0  0  0
   38.2680   34.1600   39.9500 C   0  0  0  0  0  3  0  0  0  0  0  0
   39.3280   33.6400   40.6570 C   0  0  0  0  0  3  0  0  0  0  0  0
  1  2  1  0  0  0  0
  1  6  1  0  0  0  0
  2  3  1  0  0  0  0
  3 10  1  0  0  0  0
  3  9  1  0  0  0  0
  3  4  1  0  0  0  0
  4 11  1  0  0  0  0
  4 12  1  0  0  0  0
  5 14  1  0  0  0  0
  5  4  1  0  0  0  0
  6 15  1  1  0  0  0
  6  5  1  0  0  0  0
  7  2  1  0  0  0  0
  8  2  1  0  0  0  0
 13  5  1  0  0  0  0
 16 17  1  0  0  0  0
 17 18  2  0  0  0  0
 17 23  1  0  0  0  0
 18  1  1  0  0  0  0
 19 18  1  0  0  0  0
 20 19  2  0  0  0  0
 21 20  1  0  0  0  0
 21 16  2  0  0  0  0
 22 16  1  0  0  0  0
 24 20  1  0  0  0  0
 25  6  1  0  0  0  0
 27 26  1  0  0  0  0
 28 25  1  0  0  0  0
 28 27  2  0  0  0  0
 29 28  1  0  0  0  0
 30 29  1  0  0  0  0
 31 29  2  0  0  0  0
 31 33  1  0  0  0  0
 32 31  1  0  0  0  0
 33 34  2  0  0  0  0
 34 27  1  0  0  0  0
M  END
>  <minimizedAffinity>
-5.42665339

$$$$

 OpenBabel03252502253D

 34 36  0  0  1  0  0  0  0  0999 V2000
   40.4200   32.0370   40.9680 N   0  0  0  0  0  0  0  0  0  0  0  0
   41.3350   33.1720   41.0540 C   0  0  0  0  0  0  0  0  0  0  0  0
   42.7140   32.5020   41.2280 C   0  0  0  0  0  0  0  0  0  0  0  0
   42.7860   31.7680   42.5280 C   0  0  0  0  0  0  0  0  0  0  0  0
   41.5400   31.0440   42.8970 C   0  0  0  0  0  0  0  0  0  0  0  0
   40.5290   30.8570   41.7970 C   0  0  1  0  0  0  0  0  0  0  0  0
   41.3460   33.7540   40.1340 H   0  0  0  0  0  0  0  0  0  0  0  0
   41.0990   33.7090   41.9750 H   0  0  0  0  0  0  0  0  0  0  0  0
   43.4160   33.3790   41.3300 H   0  0  0  0  0  0  0  0  0  0  0  0
   42.9770   31.9180   40.3470 H   0  0  0  0  0  0  0  0  0  0  0  0
   43.0020   32.4830   43.3680 H   0  0  0  0  0  0  0  0  0  0  0  0
   43.6890   31.1200   42.4780 H   0  0  0  0  0  0  0  0  0  0  0  0
   41.0380   31.4520   43.8020 H   0  0  0  0  0  0  0  0  0  0  0  0
   41.8560   30.0120   43.1870 H   0  0  0  0  0  0  0  0  0  0  0  0
   40.8330   30.0260   41.1370 H   0  0  0  0  0  0  0  0  0  0  0  0
   38.1390   31.2000   38.1180 C   0  0  0  0  0  0  0  0  0  0  0  0
   39.2390   31.0800   38.9920 C   0  0  0  0  0  0  0  0  0  0  0  0
   39.3390   32.0600   40.0180 C   0  0  0  0  0  0  0  0  0  0  0  0
   38.3870   33.0230   40.0820 N   0  0  0  0  0  0  0  0  0  0  0  0
   37.3480   33.0990   39.2210 C   0  0  0  0  0  0  0  0  0  0  0  0
   37.2320   32.1760   38.2330 N   0  0  0  0  0  0  0  0  0  0  0  0
   38.0480   30.4570   37.3270 H   0  0  0  0  0  0  0  0  0  0  0  0
   39.9840   30.3170   38.9330 H   0  0  0  0  0  0  0  0  0  0  0  0
   36.6920   33.9340   39.4290 H   0  0  0  0  0  0  0  0  0  0  0  0
   39.3110   30.6010   42.3720 O   0  0  0  0  0  0  0  0  0  0  0  0
   36.3380   30.5260   41.3290 Cl  0  0  0  0  0  0  0  0  0  0  0  0
   37.1990   29.2280   42.1160 C   0  0  0  0  0  0  0  0  0  0  0  0
   38.4880   29.5530   42.4600 C   0  0  0  0  0  0  0  0  0  0  0  0
   39.2000   28.5180   43.0950 C   0  0  0  0  0  0  0  0  0  0  0  0
   40.2370   28.4980   43.4760 H   0  0  0  0  0  0  0  0  0  0  0  0
   38.6350   27.2590   43.3540 C   0  0  0  0  0  0  0  0  0  0  0  0
   39.0890   26.4230   43.8240 H   0  0  0  0  0  0  0  0  0  0  0  0
   37.3290   27.0590   42.9570 C   0  0  0  0  0  3  0  0  0  0  0  0
   36.5730   28.0240   42.3320 C   0  0  0  0  0  3  0  0  0  0  0  0
  1  2  1  0  0  0  0
  1  6  1  0  0  0  0
  2  3  1  0  0  0  0
  2  8  1  0  0  0  0
  3  9  1  0  0  0  0
  3  4  1  0  0  0  0
  4  5  1  0  0  0  0
  4 11  1  0  0  0  0
  5 14  1  0  0  0  0
  5 13  1  0  0  0  0
  6 15  1  6  0  0  0
  6 25  1  0  0  0  0
  6  5  1  0  0  0  0
  7  2  1  0  0  0  0
 10  3  1  0  0  0  0
 12  4  1  0  0  0  0
 16 21  2  0  0  0  0
 16 17  1  0  0  0  0
 17 18  2  0  0  0  0
 18 19  1  0  0  0  0
 18  1  1  0  0  0  0
 20 24  1  0  0  0  0
 20 19  2  0  0  0  0
 21 20  1  0  0  0  0
 22 16  1  0  0  0  0
 23 17  1  0  0  0  0
 25 28  1  0  0  0  0
 26 27  1  0  0  0  0
 27 34  2  0  0  0  0
 27 28  1  0  0  0  0
 28 29  2  0  0  0  0
 29 31  1  0  0  0  0
 29 30  1  0  0  0  0
 31 32  1  0  0  0  0
 33 31  2  0  0  0  0
 34 33  1  0  0  0  0
M  END
>  <minimizedAffinity>
-5.12740374

$$$$

 OpenBabel03252502253D

 34 36  0  0  1  0  0  0  0  0999 V2000
   36.8930   27.6190   40.2520 N   0  0  0  0  0  0  0  0  0  0  0  0
   37.7760   26.4550   40.2580 C   0  0  0  0  0  0  0  0  0  0  0  0
   37.0810   25.4900   41.2410 C   0  0  0  0  0  0  0  0  0  0  0  0
   37.0750   26.0560   42.6240 C   0  0  0  0  0  0  0  0  0  0  0  0
   36.8180   27.5200   42.6900 C   0  0  0  0  0  0  0  0  0  0  0  0
   36.2680   28.1550   41.4410 C   0  0  1  0  0  0  0  0  0  0  0  0
   37.8240   25.9780   39.2810 H   0  0  0  0  0  0  0  0  0  0  0  0
   38.7220   26.7690   40.7020 H   0  0  0  0  0  0  0  0  0  0  0  0
   37.7810   24.6060   41.2730 H   0  0  0  0  0  0  0  0  0  0  0  0
   36.1090   25.1780   40.8600 H   0  0  0  0  0  0  0  0  0  0  0  0
   38.0680   25.8830   43.1210 H   0  0  0  0  0  0  0  0  0  0  0  0
   36.3600   25.4420   43.2160 H   0  0  0  0  0  0  0  0  0  0  0  0
   37.6850   28.1090   43.0600 H   0  0  0  0  0  0  0  0  0  0  0  0
   36.0250   27.6600   43.4670 H   0  0  0  0  0  0  0  0  0  0  0  0
   35.1860   27.9540   41.3550 H   0  0  0  0  0  0  0  0  0  0  0  0
   35.1090   29.2220   37.3760 C   0  0  0  0  0  0  0  0  0  0  0  0
   35.2700   28.5550   38.6080 C   0  0  0  0  0  0  0  0  0  0  0  0
   36.6080   28.2940   39.0130 C   0  0  0  0  0  0  0  0  0  0  0  0
   37.6160   28.6960   38.2010 N   0  0  0  0  0  0  0  0  0  0  0  0
   37.4140   29.3340   37.0270 C   0  0  0  0  0  0  0  0  0  0  0  0
   36.1470   29.5950   36.6190 N   0  0  0  0  0  0  0  0  0  0  0  0
   34.0900   29.4310   37.0520 H   0  0  0  0  0  0  0  0  0  0  0  0
   34.4680   28.2420   39.2410 H   0  0  0  0  0  0  0  0  0  0  0  0
   38.3380   29.5770   36.5180 H   0  0  0  0  0  0  0  0  0  0  0  0
   36.5090   29.5040   41.5030 O   0  0  0  0  0  0  0  0  0  0  0  0
   36.8820   31.9220   39.5180 Cl  0  0  0  0  0  0  0  0  0  0  0  0
   38.0210   31.3780   40.7230 C   0  0  0  0  0  0  0  0  0  0  0  0
   37.5820   30.2940   41.4440 C   0  0  0  0  0  0  0  0  0  0  0  0
   38.4870   29.8410   42.4220 C   0  0  0  0  0  0  0  0  0  0  0  0
   38.4010   29.0030   43.1370 H   0  0  0  0  0  0  0  0  0  0  0  0
   39.7340   30.4490   42.6390 C   0  0  0  0  0  0  0  0  0  0  0  0
   40.4780   30.1800   43.3470 H   0  0  0  0  0  0  0  0  0  0  0  0
   40.0560   31.5310   41.8470 C   0  0  0  0  0  3  0  0  0  0  0  0
   39.2220   32.0290   40.8720 C   0  0  0  0  0  3  0  0  0  0  0  0
  1  2  1  0  0  0  0
  1  6  1  0  0  0  0
  2  8  1  0  0  0  0
  2  3  1  0  0  0  0
  3  9  1  0  0  0  0
  3  4  1  0  0  0  0
  4  5  1  0  0  0  0
  4 11  1  0  0  0  0
  4 12  1  0  0  0  0
  5 13  1  0  0  0  0
  5 14  1  0  0  0  0
  6 15  1  6  0  0  0
  6 25  1  0  0  0  0
  6  5  1  0  0  0  0
  7  2  1  0  0  0  0
 10  3  1  0  0  0  0
 16 17  1  0  0  0  0
 17 18  2  0  0  0  0
 17 23  1  0  0  0  0
 18  1  1  0  0  0  0
 19 18  1  0  0  0  0
 20 19  2  0  0  0  0
 21 20  1  0  0  0  0
 21 16  2  0  0  0  0
 22 16  1  0  0  0  0
 24 20  1  0  0  0  0
 26 27  1  0  0  0  0
 27 34  2  0  0  0  0
 27 28  1  0  0  0  0
 28 25  1  0  0  0  0
 28 29  2  0  0  0  0
 29 31  1  0  0  0  0
 29 30  1  0  0  0  0
 31 32  1  0  0  0  0
 33 31  2  0  0  0  0
 34 33  1  0  0  0  0
M  END
>  <minimizedAffinity>
-5.02047777

$$$$

 OpenBabel03252502253D

 34 36  0  0  1  0  0  0  0  0999 V2000
   37.1130   26.7930   40.7040 N   0  0  0  0  0  0  0  0  0  0  0  0
   37.3800   25.8880   39.5890 C   0  0  0  0  0  0  0  0  0  0  0  0
   36.3680   24.7450   39.8130 C   0  0  0  0  0  0  0  0  0  0  0  0
   36.6760   24.0050   41.0750 C   0  0  0  0  0  0  0  0  0  0  0  0
   37.1050   24.8690   42.2070 C   0  0  0  0  0  0  0  0  0  0  0  0
   36.8460   26.3440   42.0520 C   0  0  1  0  0  0  0  0  0  0  0  0
   37.1670   26.3550   38.6290 H   0  0  0  0  0  0  0  0  0  0  0  0
   38.3840   25.4860   39.7320 H   0  0  0  0  0  0  0  0  0  0  0  0
   36.5980   24.0290   38.9720 H   0  0  0  0  0  0  0  0  0  0  0  0
   35.3450   25.1060   39.7210 H   0  0  0  0  0  0  0  0  0  0  0  0
   37.5050   23.2680   40.9020 H   0  0  0  0  0  0  0  0  0  0  0  0
   35.7870   23.3730   41.2970 H   0  0  0  0  0  0  0  0  0  0  0  0
   38.1590   24.7040   42.5190 H   0  0  0  0  0  0  0  0  0  0  0  0
   36.4920   24.5520   43.0870 H   0  0  0  0  0  0  0  0  0  0  0  0
   35.7860   26.5700   42.2640 H   0  0  0  0  0  0  0  0  0  0  0  0
   37.9930   30.2380   39.5270 C   0  0  0  0  0  0  0  0  0  0  0  0
   38.0940   28.8400   39.6720 C   0  0  0  0  0  0  0  0  0  0  0  0
   37.1090   28.2160   40.4850 C   0  0  0  0  0  0  0  0  0  0  0  0
   36.1580   28.9960   41.0550 N   0  0  0  0  0  0  0  0  0  0  0  0
   36.0990   30.3360   40.8890 C   0  0  0  0  0  0  0  0  0  0  0  0
   37.0280   30.9540   40.1170 N   0  0  0  0  0  0  0  0  0  0  0  0
   38.7390   30.7300   38.9070 H   0  0  0  0  0  0  0  0  0  0  0  0
   38.8480   28.2330   39.2180 H   0  0  0  0  0  0  0  0  0  0  0  0
   35.2710   30.7880   41.4200 H   0  0  0  0  0  0  0  0  0  0  0  0
   37.6680   27.0180   42.9190 O   0  0  0  0  0  0  0  0  0  0  0  0
   39.1690   29.7880   42.8910 Cl  0  0  0  0  0  0  0  0  0  0  0  0
   39.8930   28.2120   43.0990 C   0  0  0  0  0  0  0  0  0  0  0  0
   38.9840   27.1830   43.0670 C   0  0  0  0  0  0  0  0  0  0  0  0
   39.5480   25.9050   43.2330 C   0  0  0  0  0  0  0  0  0  0  0  0
   39.0650   24.9110   43.2500 H   0  0  0  0  0  0  0  0  0  0  0  0
   40.9250   25.7030   43.4160 C   0  0  0  0  0  0  0  0  0  0  0  0
   41.4400   24.7830   43.5480 H   0  0  0  0  0  0  0  0  0  0  0  0
   41.7320   26.8210   43.4290 C   0  0  0  0  0  3  0  0  0  0  0  0
   41.2510   28.1010   43.2730 C   0  0  0  0  0  3  0  0  0  0  0  0
  1  6  1  0  0  0  0
  2  8  1  0  0  0  0
  2  3  1  0  0  0  0
  2  1  1  0  0  0  0
  3  4  1  0  0  0  0
  4 12  1  0  0  0  0
  4  5  1  0  0  0  0
  5 13  1  0  0  0  0
  5 14  1  0  0  0  0
  6  5  1  0  0  0  0
  6 15  1  1  0  0  0
  6 25  1  0  0  0  0
  7  2  1  0  0  0  0
  9  3  1  0  0  0  0
 10  3  1  0  0  0  0
 11  4  1  0  0  0  0
 16 17  2  0  0  0  0
 16 21  1  0  0  0  0
 17 18  1  0  0  0  0
 18  1  1  0  0  0  0
 18 19  2  0  0  0  0
 20 19  1  0  0  0  0
 20 24  1  0  0  0  0
 21 20  2  0  0  0  0
 22 16  1  0  0  0  0
 23 17  1  0  0  0  0
 25 28  1  0  0  0  0
 26 27  1  0  0  0  0
 27 34  1  0  0  0  0
 28 27  2  0  0  0  0
 28 29  1  0  0  0  0
 29 30  1  0  0  0  0
 29 31  2  0  0  0  0
 31 33  1  0  0  0  0
 31 32  1  0  0  0  0
 34 33  2  0  0  0  0
M  END
>  <minimizedAffinity>
-4.96851158

$$$$

 OpenBabel03252502253D

 34 36  0  0  1  0  0  0  0  0999 V2000
   37.4550   29.8460   39.4320 N   0  0  0  0  0  0  0  0  0  0  0  0
   36.5700   30.6040   38.5510 C   0  0  0  0  0  0  0  0  0  0  0  0
   37.3960   31.8630   38.2180 C   0  0  0  0  0  0  0  0  0  0  0  0
   37.6230   32.6870   39.4450 C   0  0  0  0  0  0  0  0  0  0  0  0
   37.9050   31.8990   40.6740 C   0  0  0  0  0  0  0  0  0  0  0  0
   38.2620   30.4510   40.4680 C   0  0  1  0  0  0  0  0  0  0  0  0
   36.3650   30.0690   37.6250 H   0  0  0  0  0  0  0  0  0  0  0  0
   35.7070   30.9100   39.1460 H   0  0  0  0  0  0  0  0  0  0  0  0
   36.7000   32.4650   37.5670 H   0  0  0  0  0  0  0  0  0  0  0  0
   38.2940   31.6040   37.6580 H   0  0  0  0  0  0  0  0  0  0  0  0
   36.7170   33.3130   39.6660 H   0  0  0  0  0  0  0  0  0  0  0  0
   38.4140   33.4270   39.1890 H   0  0  0  0  0  0  0  0  0  0  0  0
   37.1130   31.9820   41.4490 H   0  0  0  0  0  0  0  0  0  0  0  0
   38.8100   32.3630   41.1390 H   0  0  0  0  0  0  0  0  0  0  0  0
   39.3160   30.3590   40.1500 H   0  0  0  0  0  0  0  0  0  0  0  0
   36.6390   26.1920   39.3370 C   0  0  0  0  0  0  0  0  0  0  0  0
   36.4270   27.5750   39.5040 C   0  0  0  0  0  0  0  0  0  0  0  0
   37.5530   28.4170   39.2900 C   0  0  0  0  0  0  0  0  0  0  0  0
   38.7310   27.8390   38.9460 N   0  0  0  0  0  0  0  0  0  0  0  0
   38.8880   26.5050   38.7970 C   0  0  0  0  0  0  0  0  0  0  0  0
   37.8280   25.6820   38.9960 N   0  0  0  0  0  0  0  0  0  0  0  0
   35.7860   25.5340   39.4970 H   0  0  0  0  0  0  0  0  0  0  0  0
   35.4940   28.0210   39.7750 H   0  0  0  0  0  0  0  0  0  0  0  0
   39.8980   26.2310   38.5200 H   0  0  0  0  0  0  0  0  0  0  0  0
   38.0500   29.7830   41.6470 O   0  0  0  0  0  0  0  0  0  0  0  0
   36.6430   27.3340   43.0420 Cl  0  0  0  0  0  0  0  0  0  0  0  0
   38.3530   27.6860   43.0310 C   0  0  0  0  0  0  0  0  0  0  0  0
   38.6740   28.8270   42.3380 C   0  0  0  0  0  0  0  0  0  0  0  0
   40.0480   29.1280   42.3170 C   0  0  0  0  0  0  0  0  0  0  0  0
   40.5850   29.9700   41.8440 H   0  0  0  0  0  0  0  0  0  0  0  0
   41.0080   28.3250   42.9530 C   0  0  0  0  0  0  0  0  0  0  0  0
   42.0600   28.4690   42.9920 H   0  0  0  0  0  0  0  0  0  0  0  0
   40.5560   27.2030   43.6160 C   0  0  0  0  0  3  0  0  0  0  0  0
   39.2280   26.8480   43.6790 C   0  0  0  0  0  3  0  0  0  0  0  0
  1  6  1  0  0  0  0
  2  8  1  0  0  0  0
  2  1  1  0  0  0  0
  3  2  1  0  0  0  0
  3  4  1  0  0  0  0
  4 11  1  0  0  0  0
  4  5  1  0  0  0  0
  5 14  1  0  0  0  0
  5 13  1  0  0  0  0
  6 15  1  6  0  0  0
  6  5  1  0  0  0  0
  6 25  1  0  0  0  0
  7  2  1  0  0  0  0
  9  3  1  0  0  0  0
 10  3  1  0  0  0  0
 12  4  1  0  0  0  0
 16 22  1  0  0  0  0
 16 17  1  0  0  0  0
 17 23  1  0  0  0  0
 18  1  1  0  0  0  0
 18 17  2  0  0  0  0
 19 18  1  0  0  0  0
 20 19  2  0  0  0  0
 20 21  1  0  0  0  0
 21 16  2  0  0  0  0
 24 20  1  0  0  0  0
 25 28  1  0  0  0  0
 27 26  1  0  0  0  0
 27 34  1  0  0  0  0
 28 27  2  0  0  0  0
 29 28  1  0  0  0  0
 29 31  2  0  0  0  0
 30 29  1  0  0  0  0
 31 32  1  0  0  0  0
 31 33  1  0  0  0  0
 33 34  2  0  0  0  0
M  END
>  <minimizedAffinity>
-4.89794302

$$$$

 OpenBabel03252502253D

 34 36  0  0  1  0  0  0  0  0999 V2000
   37.5420   31.2450   39.2950 N   0  0  0  0  0  0  0  0  0  0  0  0
   36.9520   32.5050   39.7400 C   0  0  0  0  0  0  0  0  0  0  0  0
   38.1740   33.4330   39.8940 C   0  0  0  0  0  0  0  0  0  0  0  0
   39.0730   32.9480   40.9860 C   0  0  0  0  0  0  0  0  0  0  0  0
   39.2320   31.4700   41.0430 C   0  0  0  0  0  0  0  0  0  0  0  0
   38.7720   30.7050   39.8310 C   0  0  1  0  0  0  0  0  0  0  0  0
   36.2880   32.9280   38.9880 H   0  0  0  0  0  0  0  0  0  0  0  0
   36.5290   32.3320   40.7310 H   0  0  0  0  0  0  0  0  0  0  0  0
   37.7230   34.3950   40.2710 H   0  0  0  0  0  0  0  0  0  0  0  0
   38.6580   33.6030   38.9320 H   0  0  0  0  0  0  0  0  0  0  0  0
   38.6760   33.2670   41.9870 H   0  0  0  0  0  0  0  0  0  0  0  0
   40.0320   33.5040   40.8790 H   0  0  0  0  0  0  0  0  0  0  0  0
   38.8040   31.0110   41.9610 H   0  0  0  0  0  0  0  0  0  0  0  0
   40.3310   31.2800   41.1140 H   0  0  0  0  0  0  0  0  0  0  0  0
   39.5290   30.7690   39.0300 H   0  0  0  0  0  0  0  0  0  0  0  0
   36.7200   29.5850   36.0400 C   0  0  0  0  0  0  0  0  0  0  0  0
   37.4420   30.3680   36.9640 C   0  0  0  0  0  0  0  0  0  0  0  0
   36.8910   30.4720   38.2700 C   0  0  0  0  0  0  0  0  0  0  0  0
   35.7290   29.8230   38.5310 N   0  0  0  0  0  0  0  0  0  0  0  0
   35.0700   29.0820   37.6130 C   0  0  0  0  0  0  0  0  0  0  0  0
   35.5770   28.9680   36.3590 N   0  0  0  0  0  0  0  0  0  0  0  0
   37.1300   29.4960   35.0350 H   0  0  0  0  0  0  0  0  0  0  0  0
   38.3570   30.8760   36.7480 H   0  0  0  0  0  0  0  0  0  0  0  0
   34.1630   28.6400   38.0040 H   0  0  0  0  0  0  0  0  0  0  0  0
   38.5630   29.4000   40.2000 O   0  0  0  0  0  0  0  0  0  0  0  0
   40.9660   28.4720   42.0140 Cl  0  0  0  0  0  0  0  0  0  0  0  0
   39.2680   28.2090   42.3200 C   0  0  0  0  0  0  0  0  0  0  0  0
   38.4490   28.7300   41.3490 C   0  0  0  0  0  0  0  0  0  0  0  0
   37.0750   28.5300   41.5780 C   0  0  0  0  0  0  0  0  0  0  0  0
   36.2010   28.8350   40.9740 H   0  0  0  0  0  0  0  0  0  0  0  0
   36.5860   27.8530   42.7060 C   0  0  0  0  0  0  0  0  0  0  0  0
   35.5760   27.6530   42.9630 H   0  0  0  0  0  0  0  0  0  0  0  0
   37.5150   27.3770   43.6090 C   0  0  0  0  0  3  0  0  0  0  0  0
   38.8720   27.5360   43.4500 C   0  0  0  0  0  3  0  0  0  0  0  0
  1  2  1  0  0  0  0
  1  6  1  0  0  0  0
  2  3  1  0  0  0  0
  2  8  1  0  0  0  0
  3  9  1  0  0  0  0
  3  4  1  0  0  0  0
  4  5  1  0  0  0  0
  4 11  1  0  0  0  0
  5 14  1  0  0  0  0
  5 13  1  0  0  0  0
  6 15  1  6  0  0  0
  6 25  1  0  0  0  0
  6  5  1  0  0  0  0
  7  2  1  0  0  0  0
 10  3  1  0  0  0  0
 12  4  1  0  0  0  0
 16 21  2  0  0  0  0
 16 17  1  0  0  0  0
 17 18  2  0  0  0  0
 18 19  1  0  0  0  0
 18  1  1  0  0  0  0
 20 24  1  0  0  0  0
 20 19  2  0  0  0  0
 21 20  1  0  0  0  0
 22 16  1  0  0  0  0
 23 17  1  0  0  0  0
 25 28  1  0  0  0  0
 26 27  1  0  0  0  0
 27 34  1  0  0  0  0
 28 29  1  0  0  0  0
 28 27  2  0  0  0  0
 29 31  2  0  0  0  0
 30 29  1  0  0  0  0
 31 32  1  0  0  0  0
 31 33  1  0  0  0  0
 34 33  2  0  0  0  0
M  END
>  <minimizedAffinity>
-4.8723855

$$$$

 OpenBabel03252502253D

 34 36  0  0  1  0  0  0  0  0999 V2000
   38.2440   30.7270   41.0380 N   0  0  0  0  0  0  0  0  0  0  0  0
   39.4270   31.5650   40.8610 C   0  0  0  0  0  0  0  0  0  0  0  0
   38.8710   32.9970   41.0010 C   0  0  0  0  0  0  0  0  0  0  0  0
   37.9280   33.3100   39.8840 C   0  0  0  0  0  0  0  0  0  0  0  0
   37.0350   32.1850   39.4980 C   0  0  0  0  0  0  0  0  0  0  0  0
   36.9510   31.0390   40.4700 C   0  0  1  0  0  0  0  0  0  0  0  0
   40.1610   31.4000   41.6480 H   0  0  0  0  0  0  0  0  0  0  0  0
   39.7660   31.4310   39.8320 H   0  0  0  0  0  0  0  0  0  0  0  0
   39.7780   33.6440   40.8280 H   0  0  0  0  0  0  0  0  0  0  0  0
   38.4800   33.1670   42.0030 H   0  0  0  0  0  0  0  0  0  0  0  0
   38.4990   33.5980   38.9610 H   0  0  0  0  0  0  0  0  0  0  0  0
   37.3880   34.2390   40.1760 H   0  0  0  0  0  0  0  0  0  0  0  0
   37.2260   31.7960   38.4740 H   0  0  0  0  0  0  0  0  0  0  0  0
   36.0020   32.6120   39.4530 H   0  0  0  0  0  0  0  0  0  0  0  0
   36.2830   31.2990   41.3090 H   0  0  0  0  0  0  0  0  0  0  0  0
   39.2530   27.3510   42.3070 C   0  0  0  0  0  0  0  0  0  0  0  0
   39.2530   28.4910   41.4760 C   0  0  0  0  0  0  0  0  0  0  0  0
   38.3320   29.5190   41.8160 C   0  0  0  0  0  0  0  0  0  0  0  0
   37.5320   29.3350   42.8950 N   0  0  0  0  0  0  0  0  0  0  0  0
   37.5670   28.2250   43.6650 C   0  0  0  0  0  0  0  0  0  0  0  0
   38.4370   27.2300   43.3600 N   0  0  0  0  0  0  0  0  0  0  0  0
   39.9530   26.5550   42.0610 H   0  0  0  0  0  0  0  0  0  0  0  0
   39.8880   28.6260   40.6280 H   0  0  0  0  0  0  0  0  0  0  0  0
   36.8560   28.2590   44.4800 H   0  0  0  0  0  0  0  0  0  0  0  0
   36.4820   29.9390   39.7980 O   0  0  0  0  0  0  0  0  0  0  0  0
   38.8830   29.6340   37.7810 Cl  0  0  0  0  0  0  0  0  0  0  0  0
   37.1950   29.3470   37.4420 C   0  0  0  0  0  0  0  0  0  0  0  0
   36.3740   29.5630   38.5220 C   0  0  0  0  0  0  0  0  0  0  0  0
   35.0090   29.3360   38.2690 C   0  0  0  0  0  0  0  0  0  0  0  0
   34.1360   29.4290   38.9400 H   0  0  0  0  0  0  0  0  0  0  0  0
   34.5300   28.9240   37.0150 C   0  0  0  0  0  0  0  0  0  0  0  0
   33.5250   28.7300   36.7300 H   0  0  0  0  0  0  0  0  0  0  0  0
   35.4580   28.7420   36.0110 C   0  0  0  0  0  3  0  0  0  0  0  0
   36.8080   28.9450   36.1870 C   0  0  0  0  0  3  0  0  0  0  0  0
  1 18  1  0  0  0  0
  2  3  1  0  0  0  0
  2  1  1  0  0  0  0
  2  7  1  0  0  0  0
  3 10  1  0  0  0  0
  4 12  1  0  0  0  0
  4  3  1  0  0  0  0
  5  4  1  0  0  0  0
  5  6  1  0  0  0  0
  6  1  1  0  0  0  0
  6 15  1  1  0  0  0
  8  2  1  0  0  0  0
  9  3  1  0  0  0  0
 11  4  1  0  0  0  0
 13  5  1  0  0  0  0
 14  5  1  0  0  0  0
 16 21  1  0  0  0  0
 17 18  1  0  0  0  0
 17 16  2  0  0  0  0
 18 19  2  0  0  0  0
 19 20  1  0  0  0  0
 20 24  1  0  0  0  0
 21 20  2  0  0  0  0
 22 16  1  0  0  0  0
 23 17  1  0  0  0  0
 25  6  1  0  0  0  0
 27 26  1  0  0  0  0
 27 28  1  0  0  0  0
 28 25  1  0  0  0  0
 29 28  2  0  0  0  0
 29 30  1  0  0  0  0
 31 29  1  0  0  0  0
 32 31  1  0  0  0  0
 33 34  1  0  0  0  0
 33 31  2  0  0  0  0
 34 27  2  0  0  0  0
M  END
>  <minimizedAffinity>
-4.85413551

$$$$
