
 OpenBabel03252508463D

 45 47  0  0  0  0  0  0  0  0999 V2000
   42.7010   31.3570   42.6260 N   0  0  0  0  0  0  0  0  0  0  0  0
   43.0330   31.5480   43.5990 H   0  0  0  0  0  0  0  0  0  0  0  0
   42.9990   32.4140   41.7170 C   0  0  0  0  0  0  0  0  0  0  0  0
   42.0350   32.9020   41.3880 H   0  0  0  0  0  0  0  0  0  0  0  0
   43.4410   32.0490   40.7490 H   0  0  0  0  0  0  0  0  0  0  0  0
   43.6860   34.8110   41.9310 C   0  0  0  0  0  0  0  0  0  0  0  0
   43.8950   33.4790   42.2520 C   0  0  0  0  0  0  0  0  0  0  0  0
   44.9490   33.1640   43.0750 C   0  0  0  0  0  0  0  0  0  0  0  0
   45.7630   34.1440   43.5590 C   0  0  0  0  0  0  0  0  0  0  0  0
   45.5760   35.4750   43.2540 C   0  0  0  0  0  0  0  0  0  0  0  0
   44.5050   35.7540   42.4220 C   0  0  0  0  0  0  0  0  0  0  0  0
   45.0790   32.1070   43.3020 H   0  0  0  0  0  0  0  0  0  0  0  0
   46.5790   33.8200   44.2060 H   0  0  0  0  0  0  0  0  0  0  0  0
   46.2400   36.2310   43.6540 H   0  0  0  0  0  0  0  0  0  0  0  0
   44.3330   36.7960   42.1640 H   0  0  0  0  0  0  0  0  0  0  0  0
   40.2600   35.6950   40.5800 C   0  0  0  0  0  0  0  0  0  0  0  0
   41.2830   35.4540   41.5180 C   0  0  0  0  0  0  0  0  0  0  0  0
   42.5470   35.0880   41.0520 C   0  0  0  0  0  0  0  0  0  0  0  0
   42.7120   34.9870   39.7090 N   0  0  0  0  0  0  0  0  0  0  0  0
   41.7060   35.2260   38.8240 C   0  0  0  0  0  0  0  0  0  0  0  0
   40.4960   35.5760   39.2780 N   0  0  0  0  0  0  0  0  0  0  0  0
   39.3090   35.9720   40.9880 H   0  0  0  0  0  0  0  0  0  0  0  0
   41.1490   35.5360   42.5990 H   0  0  0  0  0  0  0  0  0  0  0  0
   41.9910   35.1050   37.7860 H   0  0  0  0  0  0  0  0  0  0  0  0
   41.0140   31.0140   42.7150 S   0  0  0  0  0  0  0  0  0  0  0  0
   40.1920   32.1800   42.2320 O   0  0  0  0  0  0  0  0  0  0  0  0
   39.4570   32.1380   41.5660 H   0  0  0  0  0  0  0  0  0  0  0  0
   40.6090   30.6300   44.0880 O   0  0  0  0  0  0  0  0  0  0  0  0
   39.8540   31.0190   44.5570 H   0  0  0  0  0  0  0  0  0  0  0  0
   40.7290   29.7140   41.6770 O   0  0  0  0  0  0  0  0  0  0  0  0
   40.2780   28.6570   42.4620 C   0  0  0  0  0  0  0  0  0  0  0  0
   39.8320   28.9360   43.4120 H   0  0  0  0  0  0  0  0  0  0  0  0
   39.4800   28.1340   41.8720 H   0  0  0  0  0  0  0  0  0  0  0  0
   41.3970   27.6410   42.6260 C   0  0  0  0  0  0  0  0  0  0  0  0
   42.3330   28.2330   42.7980 H   0  0  0  0  0  0  0  0  0  0  0  0
   41.4870   26.9840   41.7470 H   0  0  0  0  0  0  0  0  0  0  0  0
   40.6100   24.6920   42.1250 Cl  0  0  0  0  0  0  0  0  0  0  0  0
   40.7220   25.4790   43.6820 C   0  0  0  0  0  0  0  0  0  0  0  0
   41.0810   26.8150   43.8120 C   0  0  0  0  0  0  0  0  0  0  0  0
   41.1240   27.3210   45.0960 C   0  0  0  0  0  0  0  0  0  0  0  0
   41.4000   28.3680   45.2740 H   0  0  0  0  0  0  0  0  0  0  0  0
   40.8250   26.5300   46.1860 C   0  0  0  0  0  0  0  0  0  0  0  0
   40.8440   26.8850   47.2280 H   0  0  0  0  0  0  0  0  0  0  0  0
   40.4690   25.2020   46.0640 C   0  0  0  0  0  3  0  0  0  0  0  0
   40.4210   24.6880   44.8000 C   0  0  0  0  0  3  0  0  0  0  0  0
  1 25  1  0  0  0  0
  1  2  1  0  0  0  0
  3  7  1  0  0  0  0
  3  1  1  0  0  0  0
  4  3  1  0  0  0  0
  5  3  1  0  0  0  0
  6  7  2  0  0  0  0
  6 11  1  0  0  0  0
  7  8  1  0  0  0  0
  8 12  1  0  0  0  0
  8  9  2  0  0  0  0
  9 13  1  0  0  0  0
 10  9  1  0  0  0  0
 10 14  1  0  0  0  0
 11 10  2  0  0  0  0
 15 11  1  0  0  0  0
 16 22  1  0  0  0  0
 16 17  1  0  0  0  0
 17 23  1  0  0  0  0
 18 17  2  0  0  0  0
 18  6  1  0  0  0  0
 19 18  1  0  0  0  0
 20 21  1  0  0  0  0
 20 19  2  0  0  0  0
 21 16  2  0  0  0  0
 24 20  1  0  0  0  0
 25 28  1  0  0  0  0
 26 25  1  0  0  0  0
 27 26  1  0  0  0  0
 28 29  1  0  0  0  0
 30 31  1  0  0  0  0
 30 25  1  0  0  0  0
 31 34  1  0  0  0  0
 31 32  1  0  0  0  0
 33 31  1  0  0  0  0
 34 35  1  0  0  0  0
 34 39  1  0  0  0  0
 36 34  1  0  0  0  0
 37 38  1  0  0  0  0
 38 39  2  0  0  0  0
 38 45  1  0  0  0  0
 39 40  1  0  0  0  0
 40 41  1  0  0  0  0
 40 42  2  0  0  0  0
 42 43  1  0  0  0  0
 44 42  1  0  0  0  0
 45 44  2  0  0  0  0
M  END
>  <minimizedAffinity>
-5.44107962

>  <minimizedRMSD>
1.7091186

$$$$
