
 OpenBabel03242522343D

 21 22  0  0  0  0  0  0  0  0999 V2000
   36.2020   30.7570   41.0390 C   0  0  0  0  0  0  0  0  0  0  0  0
   36.2210   31.7390   41.5040 H   0  0  0  0  0  0  0  0  0  0  0  0
   35.1450   30.3810   41.0640 H   0  0  0  0  0  0  0  0  0  0  0  0
   37.2400   27.6000   42.7120 C   0  0  0  0  0  0  0  0  0  0  0  0
   38.5420   27.8930   43.1160 C   0  0  0  0  0  0  0  0  0  0  0  0
   39.0490   29.1670   42.8110 C   0  0  0  0  0  0  0  0  0  0  0  0
   38.2570   30.0510   42.1420 N   0  0  0  0  0  0  0  0  0  0  0  0
   36.9940   29.7210   41.7690 C   0  0  0  0  0  0  0  0  0  0  0  0
   36.5150   28.5040   42.0610 N   0  0  0  0  0  0  0  0  0  0  0  0
   36.8750   26.6000   42.9640 H   0  0  0  0  0  0  0  0  0  0  0  0
   39.2080   27.2270   43.6470 H   0  0  0  0  0  0  0  0  0  0  0  0
   40.0380   29.5260   43.0640 H   0  0  0  0  0  0  0  0  0  0  0  0
   37.7660   33.2090   40.0690 Cl  0  0  0  0  0  0  0  0  0  0  0  0
   37.3100   31.8650   39.0630 C   0  0  0  0  0  0  0  0  0  0  0  0
   36.6050   30.8050   39.5940 C   0  0  0  0  0  0  0  0  0  0  0  0
   36.2420   29.7370   38.8000 C   0  0  0  0  0  0  0  0  0  0  0  0
   35.6830   28.9040   39.2360 H   0  0  0  0  0  0  0  0  0  0  0  0
   36.5490   29.6570   37.4580 C   0  0  0  0  0  0  0  0  0  0  0  0
   36.2350   28.7940   36.8930 H   0  0  0  0  0  0  0  0  0  0  0  0
   37.2630   30.7290   36.9140 C   0  0  0  0  0  3  0  0  0  0  0  0
   37.6300   31.8030   37.7090 C   0  0  0  0  0  3  0  0  0  0  0  0
  1  3  1  0  0  0  0
  1  2  1  0  0  0  0
  1  8  1  0  0  0  0
  4 10  1  0  0  0  0
  4  5  1  0  0  0  0
  5 11  1  0  0  0  0
  6 12  1  0  0  0  0
  6  5  2  0  0  0  0
  7  6  1  0  0  0  0
  8  9  1  0  0  0  0
  8  7  2  0  0  0  0
  9  4  2  0  0  0  0
 14 15  1  0  0  0  0
 14 13  1  0  0  0  0
 15  1  1  0  0  0  0
 16 17  1  0  0  0  0
 16 15  2  0  0  0  0
 18 16  1  0  0  0  0
 19 18  1  0  0  0  0
 20 18  2  0  0  0  0
 20 21  1  0  0  0  0
 21 14  2  0  0  0  0
M  END
>  <minimizedAffinity>
-4.54025841

$$$$

 OpenBabel03242522343D

 21 22  0  0  0  0  0  0  0  0999 V2000
   36.5950   27.4000   42.8690 C   0  0  0  0  0  0  0  0  0  0  0  0
   35.7460   26.7220   42.8890 H   0  0  0  0  0  0  0  0  0  0  0  0
   36.5450   28.0460   43.7860 H   0  0  0  0  0  0  0  0  0  0  0  0
   36.3220   28.8660   39.4600 C   0  0  0  0  0  0  0  0  0  0  0  0
   36.5900   30.2140   39.6950 C   0  0  0  0  0  0  0  0  0  0  0  0
   36.8620   30.6050   41.0160 C   0  0  0  0  0  0  0  0  0  0  0  0
   36.8510   29.6620   42.0000 N   0  0  0  0  0  0  0  0  0  0  0  0
   36.5840   28.3610   41.7240 C   0  0  0  0  0  0  0  0  0  0  0  0
   36.3250   27.9920   40.4620 N   0  0  0  0  0  0  0  0  0  0  0  0
   36.1140   28.5940   38.4220 H   0  0  0  0  0  0  0  0  0  0  0  0
   36.6100   30.9980   38.9500 H   0  0  0  0  0  0  0  0  0  0  0  0
   37.0850   31.6130   41.3390 H   0  0  0  0  0  0  0  0  0  0  0  0
   36.7290   24.5940   41.6420 Cl  0  0  0  0  0  0  0  0  0  0  0  0
   38.0650   25.4050   42.4070 C   0  0  0  0  0  0  0  0  0  0  0  0
   37.9050   26.6700   42.9300 C   0  0  0  0  0  0  0  0  0  0  0  0
   38.9620   27.3170   43.5380 C   0  0  0  0  0  0  0  0  0  0  0  0
   38.8190   28.3210   43.9480 H   0  0  0  0  0  0  0  0  0  0  0  0
   40.2160   26.7580   43.6600 C   0  0  0  0  0  0  0  0  0  0  0  0
   41.0000   27.3160   44.1470 H   0  0  0  0  0  0  0  0  0  0  0  0
   40.3850   25.4740   43.1310 C   0  0  0  0  0  3  0  0  0  0  0  0
   39.3260   24.8230   42.5200 C   0  0  0  0  0  3  0  0  0  0  0  0
  1  2  1  0  0  0  0
  1 15  1  0  0  0  0
  1  3  1  0  0  0  0
  4  5  2  0  0  0  0
  4  9  1  0  0  0  0
  5  6  1  0  0  0  0
  6 12  1  0  0  0  0
  6  7  2  0  0  0  0
  8  7  1  0  0  0  0
  8  1  1  0  0  0  0
  9  8  2  0  0  0  0
 10  4  1  0  0  0  0
 11  5  1  0  0  0  0
 13 14  1  0  0  0  0
 14 21  2  0  0  0  0
 14 15  1  0  0  0  0
 15 16  2  0  0  0  0
 16 18  1  0  0  0  0
 16 17  1  0  0  0  0
 18 19  1  0  0  0  0
 20 18  2  0  0  0  0
 21 20  1  0  0  0  0
M  END
>  <minimizedAffinity>
-4.51723671

$$$$

 OpenBabel03242522343D

 21 22  0  0  0  0  0  0  0  0999 V2000
   35.5000   29.0830   40.8150 C   0  0  0  0  0  0  0  0  0  0  0  0
   34.7390   28.5820   40.2230 H   0  0  0  0  0  0  0  0  0  0  0  0
   34.9910   29.6010   41.6700 H   0  0  0  0  0  0  0  0  0  0  0  0
   37.1780   31.0770   38.1600 C   0  0  0  0  0  0  0  0  0  0  0  0
   37.5590   32.2280   38.8500 C   0  0  0  0  0  0  0  0  0  0  0  0
   37.2380   32.3070   40.2150 C   0  0  0  0  0  0  0  0  0  0  0  0
   36.5750   31.2700   40.7990 N   0  0  0  0  0  0  0  0  0  0  0  0
   36.2250   30.1690   40.0870 C   0  0  0  0  0  0  0  0  0  0  0  0
   36.5330   30.0980   38.7850 N   0  0  0  0  0  0  0  0  0  0  0  0
   37.4430   31.0460   37.0990 H   0  0  0  0  0  0  0  0  0  0  0  0
   38.0850   33.0750   38.4310 H   0  0  0  0  0  0  0  0  0  0  0  0
   37.4730   33.1370   40.8670 H   0  0  0  0  0  0  0  0  0  0  0  0
   36.2590   26.6040   39.1800 Cl  0  0  0  0  0  0  0  0  0  0  0  0
   36.8780   26.9720   40.7640 C   0  0  0  0  0  0  0  0  0  0  0  0
   36.4750   28.1150   41.4210 C   0  0  0  0  0  0  0  0  0  0  0  0
   36.9630   28.4110   42.6770 C   0  0  0  0  0  0  0  0  0  0  0  0
   36.6340   29.3220   43.1850 H   0  0  0  0  0  0  0  0  0  0  0  0
   37.8620   27.6070   43.3440 C   0  0  0  0  0  0  0  0  0  0  0  0
   38.2050   27.8950   44.3250 H   0  0  0  0  0  0  0  0  0  0  0  0
   38.2740   26.4450   42.6830 C   0  0  0  0  0  3  0  0  0  0  0  0
   37.7860   26.1460   41.4210 C   0  0  0  0  0  3  0  0  0  0  0  0
  1 15  1  0  0  0  0
  1  3  1  0  0  0  0
  2  1  1  0  0  0  0
  4  9  2  0  0  0  0
  4  5  1  0  0  0  0
  5  6  2  0  0  0  0
  6  7  1  0  0  0  0
  6 12  1  0  0  0  0
  8  7  2  0  0  0  0
  8  1  1  0  0  0  0
  9  8  1  0  0  0  0
 10  4  1  0  0  0  0
 11  5  1  0  0  0  0
 13 14  1  0  0  0  0
 14 15  2  0  0  0  0
 14 21  1  0  0  0  0
 15 16  1  0  0  0  0
 16 17  1  0  0  0  0
 16 18  2  0  0  0  0
 18 19  1  0  0  0  0
 20 18  1  0  0  0  0
 21 20  2  0  0  0  0
M  END
>  <minimizedAffinity>
-4.47135735

$$$$

 OpenBabel03242522343D

 21 22  0  0  0  0  0  0  0  0999 V2000
   37.9110   28.6640   43.4030 C   0  0  0  0  0  0  0  0  0  0  0  0
   37.1360   28.8040   44.1520 H   0  0  0  0  0  0  0  0  0  0  0  0
   38.8880   28.9850   43.8510 H   0  0  0  0  0  0  0  0  0  0  0  0
   36.4500   30.7840   40.7170 C   0  0  0  0  0  0  0  0  0  0  0  0
   37.5650   31.0820   39.9360 C   0  0  0  0  0  0  0  0  0  0  0  0
   38.8030   30.5540   40.3360 C   0  0  0  0  0  0  0  0  0  0  0  0
   38.8610   29.7830   41.4580 N   0  0  0  0  0  0  0  0  0  0  0  0
   37.7480   29.5200   42.1880 C   0  0  0  0  0  0  0  0  0  0  0  0
   36.5690   30.0260   41.8020 N   0  0  0  0  0  0  0  0  0  0  0  0
   35.5010   31.2110   40.3790 H   0  0  0  0  0  0  0  0  0  0  0  0
   37.5700   31.6880   39.0390 H   0  0  0  0  0  0  0  0  0  0  0  0
   39.7450   30.7040   39.8250 H   0  0  0  0  0  0  0  0  0  0  0  0
   40.6930   27.4060   43.6800 Cl  0  0  0  0  0  0  0  0  0  0  0  0
   39.2820   26.5690   43.1020 C   0  0  0  0  0  0  0  0  0  0  0  0
   38.0710   27.2230   43.0140 C   0  0  0  0  0  0  0  0  0  0  0  0
   36.9490   26.5640   42.5560 C   0  0  0  0  0  0  0  0  0  0  0  0
   35.9960   27.0970   42.4920 H   0  0  0  0  0  0  0  0  0  0  0  0
   36.9600   25.2410   42.1660 C   0  0  0  0  0  0  0  0  0  0  0  0
   36.0480   24.7840   41.8170 H   0  0  0  0  0  0  0  0  0  0  0  0
   38.1850   24.5730   42.2530 C   0  0  0  0  0  3  0  0  0  0  0  0
   39.3130   25.2320   42.7130 C   0  0  0  0  0  3  0  0  0  0  0  0
  1  3  1  0  0  0  0
  1  2  1  0  0  0  0
  4  9  1  0  0  0  0
  5  6  1  0  0  0  0
  5  4  2  0  0  0  0
  6  7  2  0  0  0  0
  7  8  1  0  0  0  0
  8  1  1  0  0  0  0
  9  8  2  0  0  0  0
 10  4  1  0  0  0  0
 11  5  1  0  0  0  0
 12  6  1  0  0  0  0
 14 13  1  0  0  0  0
 15 14  1  0  0  0  0
 15  1  1  0  0  0  0
 16 15  2  0  0  0  0
 17 16  1  0  0  0  0
 18 20  2  0  0  0  0
 18 16  1  0  0  0  0
 19 18  1  0  0  0  0
 20 21  1  0  0  0  0
 21 14  2  0  0  0  0
M  END
>  <minimizedAffinity>
-4.41265297

$$$$

 OpenBabel03242522343D

 21 22  0  0  0  0  0  0  0  0999 V2000
   35.4490   28.9700   40.7940 C   0  0  0  0  0  0  0  0  0  0  0  0
   34.6620   29.3530   41.4390 H   0  0  0  0  0  0  0  0  0  0  0  0
   34.9740   28.3090   40.0220 H   0  0  0  0  0  0  0  0  0  0  0  0
   37.7460   27.5260   43.3390 C   0  0  0  0  0  0  0  0  0  0  0  0
   38.2600   26.4120   42.6770 C   0  0  0  0  0  0  0  0  0  0  0  0
   37.8160   26.1690   41.3670 C   0  0  0  0  0  0  0  0  0  0  0  0
   36.9110   27.0200   40.8070 N   0  0  0  0  0  0  0  0  0  0  0  0
   36.4380   28.0930   41.4920 C   0  0  0  0  0  0  0  0  0  0  0  0
   36.8650   28.3210   42.7410 N   0  0  0  0  0  0  0  0  0  0  0  0
   38.1120   27.6870   44.3580 H   0  0  0  0  0  0  0  0  0  0  0  0
   38.9780   25.7080   43.0780 H   0  0  0  0  0  0  0  0  0  0  0  0
   38.1310   25.3450   40.7400 H   0  0  0  0  0  0  0  0  0  0  0  0
   35.8710   28.6030   37.7800 Cl  0  0  0  0  0  0  0  0  0  0  0  0
   36.3900   29.9920   38.6900 C   0  0  0  0  0  0  0  0  0  0  0  0
   36.1530   30.0650   40.0460 C   0  0  0  0  0  0  0  0  0  0  0  0
   36.5630   31.1640   40.7720 C   0  0  0  0  0  0  0  0  0  0  0  0
   36.3670   31.2070   41.8470 H   0  0  0  0  0  0  0  0  0  0  0  0
   37.2200   32.2370   40.2070 C   0  0  0  0  0  0  0  0  0  0  0  0
   37.5140   33.0660   40.8300 H   0  0  0  0  0  0  0  0  0  0  0  0
   37.4630   32.1690   38.8320 C   0  0  0  0  0  3  0  0  0  0  0  0
   37.0520   31.0660   38.1000 C   0  0  0  0  0  3  0  0  0  0  0  0
  1  2  1  0  0  0  0
  1  8  1  0  0  0  0
  3  1  1  0  0  0  0
  4 10  1  0  0  0  0
  5 11  1  0  0  0  0
  5  4  2  0  0  0  0
  6  5  1  0  0  0  0
  7  6  2  0  0  0  0
  7  8  1  0  0  0  0
  8  9  2  0  0  0  0
  9  4  1  0  0  0  0
 12  6  1  0  0  0  0
 13 14  1  0  0  0  0
 14 15  1  0  0  0  0
 15 16  2  0  0  0  0
 15  1  1  0  0  0  0
 16 17  1  0  0  0  0
 18 16  1  0  0  0  0
 18 19  1  0  0  0  0
 20 18  2  0  0  0  0
 21 14  2  0  0  0  0
 21 20  1  0  0  0  0
M  END
>  <minimizedAffinity>
-4.39254618

$$$$

 OpenBabel03242522343D

 21 22  0  0  0  0  0  0  0  0999 V2000
   36.9740   28.1310   43.1980 C   0  0  0  0  0  0  0  0  0  0  0  0
   37.2500   28.7510   44.0470 H   0  0  0  0  0  0  0  0  0  0  0  0
   35.9420   27.7320   43.3800 H   0  0  0  0  0  0  0  0  0  0  0  0
   38.2500   24.8030   42.1310 C   0  0  0  0  0  0  0  0  0  0  0  0
   39.4820   24.7360   42.7800 C   0  0  0  0  0  0  0  0  0  0  0  0
   39.8610   25.8290   43.5760 C   0  0  0  0  0  0  0  0  0  0  0  0
   39.0190   26.8960   43.6780 N   0  0  0  0  0  0  0  0  0  0  0  0
   37.8290   26.9170   43.0260 C   0  0  0  0  0  0  0  0  0  0  0  0
   37.4720   25.8720   42.2680 N   0  0  0  0  0  0  0  0  0  0  0  0
   37.9850   23.9360   41.5180 H   0  0  0  0  0  0  0  0  0  0  0  0
   40.1830   23.9130   42.7310 H   0  0  0  0  0  0  0  0  0  0  0  0
   40.7840   25.9090   44.1340 H   0  0  0  0  0  0  0  0  0  0  0  0
   39.1900   30.1820   42.6660 Cl  0  0  0  0  0  0  0  0  0  0  0  0
   37.8610   29.8600   41.5900 C   0  0  0  0  0  0  0  0  0  0  0  0
   36.9120   28.9150   41.9190 C   0  0  0  0  0  0  0  0  0  0  0  0
   35.8560   28.6560   41.0700 C   0  0  0  0  0  0  0  0  0  0  0  0
   35.1110   27.9040   41.3450 H   0  0  0  0  0  0  0  0  0  0  0  0
   35.6810   29.3060   39.8670 C   0  0  0  0  0  0  0  0  0  0  0  0
   34.8330   29.0570   39.2480 H   0  0  0  0  0  0  0  0  0  0  0  0
   36.6400   30.2650   39.5270 C   0  0  0  0  0  3  0  0  0  0  0  0
   37.7020   30.5270   40.3790 C   0  0  0  0  0  3  0  0  0  0  0  0
  1  3  1  0  0  0  0
  1  2  1  0  0  0  0
  4  9  2  0  0  0  0
  4  5  1  0  0  0  0
  5  6  2  0  0  0  0
  6  7  1  0  0  0  0
  6 12  1  0  0  0  0
  8  1  1  0  0  0  0
  8  7  2  0  0  0  0
  9  8  1  0  0  0  0
 10  4  1  0  0  0  0
 11  5  1  0  0  0  0
 14 15  1  0  0  0  0
 14 13  1  0  0  0  0
 15  1  1  0  0  0  0
 16 17  1  0  0  0  0
 16 15  2  0  0  0  0
 18 16  1  0  0  0  0
 19 18  1  0  0  0  0
 20 18  2  0  0  0  0
 20 21  1  0  0  0  0
 21 14  2  0  0  0  0
M  END
>  <minimizedAffinity>
-4.31445599

$$$$

 OpenBabel03242522343D

 21 22  0  0  0  0  0  0  0  0999 V2000
   36.0270   30.3820   40.9000 C   0  0  0  0  0  0  0  0  0  0  0  0
   36.4550   31.3810   40.8740 H   0  0  0  0  0  0  0  0  0  0  0  0
   35.0260   30.4460   41.4020 H   0  0  0  0  0  0  0  0  0  0  0  0
   38.6080   28.8400   43.0910 C   0  0  0  0  0  0  0  0  0  0  0  0
   38.1550   27.5270   43.2030 C   0  0  0  0  0  0  0  0  0  0  0  0
   36.9730   27.1830   42.5270 C   0  0  0  0  0  0  0  0  0  0  0  0
   36.3260   28.1380   41.8000 N   0  0  0  0  0  0  0  0  0  0  0  0
   36.8060   29.4060   41.7210 C   0  0  0  0  0  0  0  0  0  0  0  0
   37.9340   29.7280   42.3670 N   0  0  0  0  0  0  0  0  0  0  0  0
   39.5310   29.0760   43.6290 H   0  0  0  0  0  0  0  0  0  0  0  0
   38.6320   26.7350   43.7660 H   0  0  0  0  0  0  0  0  0  0  0  0
   36.5110   26.2050   42.5270 H   0  0  0  0  0  0  0  0  0  0  0  0
   38.1830   30.8420   38.7690 Cl  0  0  0  0  0  0  0  0  0  0  0  0
   36.6910   29.9900   38.4990 C   0  0  0  0  0  0  0  0  0  0  0  0
   35.7810   29.8340   39.5240 C   0  0  0  0  0  0  0  0  0  0  0  0
   34.5960   29.1590   39.3140 C   0  0  0  0  0  0  0  0  0  0  0  0
   33.8860   29.0440   40.1370 H   0  0  0  0  0  0  0  0  0  0  0  0
   34.2490   28.6090   38.0990 C   0  0  0  0  0  0  0  0  0  0  0  0
   33.3070   28.0930   38.0000 H   0  0  0  0  0  0  0  0  0  0  0  0
   35.1670   28.7630   37.0550 C   0  0  0  0  0  3  0  0  0  0  0  0
   36.3580   29.4400   37.2630 C   0  0  0  0  0  3  0  0  0  0  0  0
  1  3  1  0  0  0  0
  1  8  1  0  0  0  0
  2  1  1  0  0  0  0
  4  5  1  0  0  0  0
  4 10  1  0  0  0  0
  5 11  1  0  0  0  0
  6  5  2  0  0  0  0
  7  6  1  0  0  0  0
  8  7  2  0  0  0  0
  8  9  1  0  0  0  0
  9  4  2  0  0  0  0
 12  6  1  0  0  0  0
 14 13  1  0  0  0  0
 14 15  1  0  0  0  0
 15  1  1  0  0  0  0
 16 15  2  0  0  0  0
 16 17  1  0  0  0  0
 18 16  1  0  0  0  0
 19 18  1  0  0  0  0
 20 21  1  0  0  0  0
 20 18  2  0  0  0  0
 21 14  2  0  0  0  0
M  END
>  <minimizedAffinity>
-4.28734922

$$$$

 OpenBabel03242522343D

 21 22  0  0  0  0  0  0  0  0999 V2000
   36.6110   30.4350   41.3200 C   0  0  0  0  0  0  0  0  0  0  0  0
   35.5780   30.5810   41.6270 H   0  0  0  0  0  0  0  0  0  0  0  0
   37.1900   31.3530   41.6050 H   0  0  0  0  0  0  0  0  0  0  0  0
   38.0470   30.5850   37.8910 C   0  0  0  0  0  0  0  0  0  0  0  0
   37.0290   30.0260   37.1190 C   0  0  0  0  0  0  0  0  0  0  0  0
   35.8640   29.6050   37.7800 C   0  0  0  0  0  0  0  0  0  0  0  0
   35.7790   29.7580   39.1320 N   0  0  0  0  0  0  0  0  0  0  0  0
   36.7970   30.3090   39.8420 C   0  0  0  0  0  0  0  0  0  0  0  0
   37.9060   30.7080   39.2070 N   0  0  0  0  0  0  0  0  0  0  0  0
   38.9410   30.9020   37.3460 H   0  0  0  0  0  0  0  0  0  0  0  0
   37.0500   29.8830   36.0470 H   0  0  0  0  0  0  0  0  0  0  0  0
   35.0010   29.1570   37.3070 H   0  0  0  0  0  0  0  0  0  0  0  0
   39.4370   30.8430   42.4360 Cl  0  0  0  0  0  0  0  0  0  0  0  0
   38.5240   29.3670   42.5680 C   0  0  0  0  0  0  0  0  0  0  0  0
   37.2570   29.2820   42.0320 C   0  0  0  0  0  0  0  0  0  0  0  0
   36.5290   28.1140   42.1330 C   0  0  0  0  0  0  0  0  0  0  0  0
   35.5250   28.0630   41.7030 H   0  0  0  0  0  0  0  0  0  0  0  0
   37.0060   26.9820   42.7600 C   0  0  0  0  0  0  0  0  0  0  0  0
   36.3870   26.1010   42.8050 H   0  0  0  0  0  0  0  0  0  0  0  0
   38.2910   27.0630   43.3050 C   0  0  0  0  0  3  0  0  0  0  0  0
   39.0230   28.2340   43.2050 C   0  0  0  0  0  3  0  0  0  0  0  0
  1  3  1  0  0  0  0
  1  2  1  0  0  0  0
  1 15  1  0  0  0  0
  4  9  1  0  0  0  0
  5  6  1  0  0  0  0
  5  4  2  0  0  0  0
  6  7  2  0  0  0  0
  7  8  1  0  0  0  0
  8  1  1  0  0  0  0
  9  8  2  0  0  0  0
 10  4  1  0  0  0  0
 11  5  1  0  0  0  0
 12  6  1  0  0  0  0
 13 14  1  0  0  0  0
 14 21  1  0  0  0  0
 15 16  1  0  0  0  0
 15 14  2  0  0  0  0
 16 18  2  0  0  0  0
 17 16  1  0  0  0  0
 18 19  1  0  0  0  0
 18 20  1  0  0  0  0
 21 20  2  0  0  0  0
M  END
>  <minimizedAffinity>
-4.24122572

$$$$

 OpenBabel03242522343D

 21 22  0  0  0  0  0  0  0  0999 V2000
   39.4040   29.5920   40.6980 C   0  0  0  0  0  0  0  0  0  0  0  0
   40.3970   29.6540   41.1350 H   0  0  0  0  0  0  0  0  0  0  0  0
   39.4940   29.0880   39.7000 H   0  0  0  0  0  0  0  0  0  0  0  0
   38.6090   33.2270   40.7040 C   0  0  0  0  0  0  0  0  0  0  0  0
   37.5700   33.3040   39.7770 C   0  0  0  0  0  0  0  0  0  0  0  0
   37.1530   32.1130   39.1620 C   0  0  0  0  0  0  0  0  0  0  0  0
   37.7750   30.9460   39.4930 N   0  0  0  0  0  0  0  0  0  0  0  0
   38.7840   30.9200   40.4010 C   0  0  0  0  0  0  0  0  0  0  0  0
   39.1770   32.0590   40.9850 N   0  0  0  0  0  0  0  0  0  0  0  0
   38.9100   34.1720   41.1640 H   0  0  0  0  0  0  0  0  0  0  0  0
   37.0470   34.2040   39.4820 H   0  0  0  0  0  0  0  0  0  0  0  0
   36.3620   32.0280   38.4290 H   0  0  0  0  0  0  0  0  0  0  0  0
   38.1960   27.0970   39.3910 Cl  0  0  0  0  0  0  0  0  0  0  0  0
   37.8800   27.6100   41.0230 C   0  0  0  0  0  0  0  0  0  0  0  0
   38.4730   28.7500   41.5220 C   0  0  0  0  0  0  0  0  0  0  0  0
   38.2260   29.1610   42.8160 C   0  0  0  0  0  0  0  0  0  0  0  0
   38.7050   30.0670   43.1970 H   0  0  0  0  0  0  0  0  0  0  0  0
   37.3920   28.4790   43.6760 C   0  0  0  0  0  0  0  0  0  0  0  0
   37.2400   28.8530   44.6760 H   0  0  0  0  0  0  0  0  0  0  0  0
   36.7870   27.3210   43.1750 C   0  0  0  0  0  3  0  0  0  0  0  0
   37.0340   26.9060   41.8770 C   0  0  0  0  0  3  0  0  0  0  0  0
  1  2  1  0  0  0  0
  1 15  1  0  0  0  0
  3  1  1  0  0  0  0
  4  9  1  0  0  0  0
  4 10  1  0  0  0  0
  5  4  2  0  0  0  0
  6  7  2  0  0  0  0
  6  5  1  0  0  0  0
  7  8  1  0  0  0  0
  8  1  1  0  0  0  0
  8  9  2  0  0  0  0
 11  5  1  0  0  0  0
 12  6  1  0  0  0  0
 13 14  1  0  0  0  0
 14 15  2  0  0  0  0
 14 21  1  0  0  0  0
 15 16  1  0  0  0  0
 16 17  1  0  0  0  0
 16 18  2  0  0  0  0
 18 19  1  0  0  0  0
 20 18  1  0  0  0  0
 21 20  2  0  0  0  0
M  END
>  <minimizedAffinity>
-4.23884726

$$$$
