
 OpenBabel03252506593D

 24 25  0  0  0  0  0  0  0  0999 V2000
   37.4090   28.4440   43.4590 C   0  0  0  0  0  0  0  0  0  0  0  0
   36.5080   27.9190   43.0620 H   0  0  0  0  0  0  0  0  0  0  0  0
   37.1560   28.7860   44.4670 H   0  0  0  0  0  0  0  0  0  0  0  0
   37.8160   29.5370   42.5820 C   0  0  0  0  0  0  0  0  0  0  0  0
   39.0870   30.0900   42.6370 C   0  0  0  0  0  0  0  0  0  0  0  0
   39.4520   31.1380   41.7830 C   0  0  0  0  0  0  0  0  0  0  0  0
   38.4900   31.5590   40.9220 N   0  0  0  0  0  0  0  0  0  0  0  0
   37.2520   31.0120   40.8760 C   0  0  0  0  0  0  0  0  0  0  0  0
   36.9120   30.0080   41.6980 N   0  0  0  0  0  0  0  0  0  0  0  0
   39.8320   29.7330   43.3350 H   0  0  0  0  0  0  0  0  0  0  0  0
   40.4330   31.5470   41.8440 H   0  0  0  0  0  0  0  0  0  0  0  0
   36.4930   31.3600   40.1810 H   0  0  0  0  0  0  0  0  0  0  0  0
   38.5520   27.4730   43.6090 C   0  0  0  0  0  0  0  0  0  0  0  0
   39.4950   27.9560   43.2630 H   0  0  0  0  0  0  0  0  0  0  0  0
   38.7010   27.2250   44.6670 H   0  0  0  0  0  0  0  0  0  0  0  0
   40.8900   25.6200   43.4420 Cl  0  0  0  0  0  0  0  0  0  0  0  0
   39.3430   25.2730   42.7090 C   0  0  0  0  0  0  0  0  0  0  0  0
   38.3390   26.2070   42.8540 C   0  0  0  0  0  0  0  0  0  0  0  0
   37.1110   25.9380   42.2750 C   0  0  0  0  0  0  0  0  0  0  0  0
   36.2810   26.6140   42.3430 H   0  0  0  0  0  0  0  0  0  0  0  0
   36.8990   24.7600   41.5680 C   0  0  0  0  0  0  0  0  0  0  0  0
   35.9420   24.5130   41.0970 H   0  0  0  0  0  0  0  0  0  0  0  0
   37.9240   23.8180   41.4250 C   0  0  0  0  0  3  0  0  0  0  0  0
   39.1390   24.1030   42.0090 C   0  0  0  0  0  3  0  0  0  0  0  0
  1 13  1  0  0  0  0
  1  3  1  0  0  0  0
  2  1  1  0  0  0  0
  4  5  1  0  0  0  0
  4  1  1  0  0  0  0
  5 10  1  0  0  0  0
  6 11  1  0  0  0  0
  6  5  2  0  0  0  0
  7  6  1  0  0  0  0
  8  7  2  0  0  0  0
  8  9  1  0  0  0  0
  9  4  2  0  0  0  0
 12  8  1  0  0  0  0
 13 15  1  0  0  0  0
 14 13  1  0  0  0  0
 17 18  1  0  0  0  0
 17 16  1  0  0  0  0
 18 13  1  0  0  0  0
 19 20  1  0  0  0  0
 19 18  2  0  0  0  0
 21 19  1  0  0  0  0
 22 21  1  0  0  0  0
 23 21  2  0  0  0  0
 23 24  1  0  0  0  0
 24 17  2  0  0  0  0
M  END
>  <minimizedAffinity>
-4.72176123

$$$$

 OpenBabel03252506593D

 24 25  0  0  0  0  0  0  0  0999 V2000
   38.0060   29.0580   43.0650 C   0  0  0  0  0  0  0  0  0  0  0  0
   37.8780   29.7600   43.9220 H   0  0  0  0  0  0  0  0  0  0  0  0
   39.0720   29.0540   42.8180 H   0  0  0  0  0  0  0  0  0  0  0  0
   37.1690   29.4430   41.9330 C   0  0  0  0  0  0  0  0  0  0  0  0
   36.2380   28.5780   41.3790 C   0  0  0  0  0  0  0  0  0  0  0  0
   35.4460   28.9730   40.2930 C   0  0  0  0  0  0  0  0  0  0  0  0
   35.6580   30.2340   39.8380 N   0  0  0  0  0  0  0  0  0  0  0  0
   36.5710   31.0710   40.3870 C   0  0  0  0  0  0  0  0  0  0  0  0
   37.3240   30.6830   41.4270 N   0  0  0  0  0  0  0  0  0  0  0  0
   36.0920   27.5770   41.7640 H   0  0  0  0  0  0  0  0  0  0  0  0
   34.7380   28.2910   39.8850 H   0  0  0  0  0  0  0  0  0  0  0  0
   36.7290   32.0790   40.0110 H   0  0  0  0  0  0  0  0  0  0  0  0
   37.6590   27.6530   43.4870 C   0  0  0  0  0  0  0  0  0  0  0  0
   37.3630   27.6530   44.5620 H   0  0  0  0  0  0  0  0  0  0  0  0
   36.7870   27.2950   42.9270 H   0  0  0  0  0  0  0  0  0  0  0  0
   36.9540   25.0520   42.1970 Cl  0  0  0  0  0  0  0  0  0  0  0  0
   38.5770   25.4610   42.6960 C   0  0  0  0  0  0  0  0  0  0  0  0
   38.7790   26.6930   43.2810 C   0  0  0  0  0  0  0  0  0  0  0  0
   40.0630   27.0230   43.6790 C   0  0  0  0  0  0  0  0  0  0  0  0
   40.3000   27.9610   44.1410 H   0  0  0  0  0  0  0  0  0  0  0  0
   41.1160   26.1350   43.4920 C   0  0  0  0  0  0  0  0  0  0  0  0
   42.1440   26.3620   43.7940 H   0  0  0  0  0  0  0  0  0  0  0  0
   40.9030   24.8870   42.8980 C   0  0  0  0  0  3  0  0  0  0  0  0
   39.6180   24.5770   42.5090 C   0  0  0  0  0  3  0  0  0  0  0  0
  1 13  1  0  0  0  0
  1  2  1  0  0  0  0
  3  1  1  0  0  0  0
  4  1  1  0  0  0  0
  5 10  1  0  0  0  0
  5  4  2  0  0  0  0
  6  5  1  0  0  0  0
  7  6  2  0  0  0  0
  7  8  1  0  0  0  0
  8  9  2  0  0  0  0
  9  4  1  0  0  0  0
 11  6  1  0  0  0  0
 12  8  1  0  0  0  0
 13 14  1  0  0  0  0
 15 13  1  0  0  0  0
 16 17  1  0  0  0  0
 17 18  1  0  0  0  0
 18 13  1  0  0  0  0
 18 19  2  0  0  0  0
 19 20  1  0  0  0  0
 21 19  1  0  0  0  0
 21 22  1  0  0  0  0
 23 21  2  0  0  0  0
 24 17  2  0  0  0  0
 24 23  1  0  0  0  0
M  END
>  <minimizedAffinity>
-4.68028784

$$$$

 OpenBabel03252506593D

 24 25  0  0  0  0  0  0  0  0999 V2000
   35.5870   28.7440   40.8890 C   0  0  0  0  0  0  0  0  0  0  0  0
   34.5930   28.5410   41.3530 H   0  0  0  0  0  0  0  0  0  0  0  0
   35.6100   28.1950   39.9420 H   0  0  0  0  0  0  0  0  0  0  0  0
   36.6780   28.3650   41.7820 C   0  0  0  0  0  0  0  0  0  0  0  0
   37.0470   27.0420   41.9720 C   0  0  0  0  0  0  0  0  0  0  0  0
   38.0980   26.7060   42.8340 C   0  0  0  0  0  0  0  0  0  0  0  0
   38.7090   27.7490   43.4530 N   0  0  0  0  0  0  0  0  0  0  0  0
   38.3400   29.0380   43.2600 C   0  0  0  0  0  0  0  0  0  0  0  0
   37.3320   29.3490   42.4320 N   0  0  0  0  0  0  0  0  0  0  0  0
   36.5410   26.2320   41.4640 H   0  0  0  0  0  0  0  0  0  0  0  0
   38.3640   25.6840   42.9640 H   0  0  0  0  0  0  0  0  0  0  0  0
   38.8390   29.8620   43.7620 H   0  0  0  0  0  0  0  0  0  0  0  0
   35.7110   30.2040   40.5410 C   0  0  0  0  0  0  0  0  0  0  0  0
   34.7050   30.6830   40.5900 H   0  0  0  0  0  0  0  0  0  0  0  0
   36.3340   30.7190   41.2830 H   0  0  0  0  0  0  0  0  0  0  0  0
   37.4270   32.6320   40.2360 Cl  0  0  0  0  0  0  0  0  0  0  0  0
   37.1110   31.5170   38.9300 C   0  0  0  0  0  0  0  0  0  0  0  0
   36.3030   30.4310   39.1930 C   0  0  0  0  0  0  0  0  0  0  0  0
   36.0480   29.5430   38.1610 C   0  0  0  0  0  0  0  0  0  0  0  0
   35.4300   28.6770   38.2870 H   0  0  0  0  0  0  0  0  0  0  0  0
   36.5940   29.7430   36.8990 C   0  0  0  0  0  0  0  0  0  0  0  0
   36.4150   29.0630   36.0590 H   0  0  0  0  0  0  0  0  0  0  0  0
   37.4130   30.8480   36.6400 C   0  0  0  0  0  3  0  0  0  0  0  0
   37.6550   31.7200   37.6800 C   0  0  0  0  0  3  0  0  0  0  0  0
  1  2  1  0  0  0  0
  1  4  1  0  0  0  0
  3  1  1  0  0  0  0
  4  5  2  0  0  0  0
  4  9  1  0  0  0  0
  5  6  1  0  0  0  0
  6 11  1  0  0  0  0
  6  7  2  0  0  0  0
  8  7  1  0  0  0  0
  8 12  1  0  0  0  0
  9  8  2  0  0  0  0
 10  5  1  0  0  0  0
 13 14  1  0  0  0  0
 13  1  1  0  0  0  0
 13 15  1  0  0  0  0
 17 18  1  0  0  0  0
 17 16  1  0  0  0  0
 18 13  1  0  0  0  0
 19 20  1  0  0  0  0
 19 18  2  0  0  0  0
 21 19  1  0  0  0  0
 22 21  1  0  0  0  0
 23 21  2  0  0  0  0
 23 24  1  0  0  0  0
 24 17  2  0  0  0  0
M  END
>  <minimizedAffinity>
-4.61830139

$$$$

 OpenBabel03252506593D

 24 25  0  0  0  0  0  0  0  0999 V2000
   37.7120   29.8540   40.9770 C   0  0  0  0  0  0  0  0  0  0  0  0
   38.4610   29.2020   40.4690 H   0  0  0  0  0  0  0  0  0  0  0  0
   36.7240   29.4920   40.6740 H   0  0  0  0  0  0  0  0  0  0  0  0
   37.9190   31.2600   40.6470 C   0  0  0  0  0  0  0  0  0  0  0  0
   37.0430   31.9610   39.8330 C   0  0  0  0  0  0  0  0  0  0  0  0
   37.2650   33.3110   39.5320 C   0  0  0  0  0  0  0  0  0  0  0  0
   38.3760   33.8630   40.0840 N   0  0  0  0  0  0  0  0  0  0  0  0
   39.2260   33.1680   40.8780 C   0  0  0  0  0  0  0  0  0  0  0  0
   39.0040   31.8760   41.1600 N   0  0  0  0  0  0  0  0  0  0  0  0
   36.1650   31.4940   39.4070 H   0  0  0  0  0  0  0  0  0  0  0  0
   36.5780   33.8290   38.9050 H   0  0  0  0  0  0  0  0  0  0  0  0
   40.1110   33.6240   41.3120 H   0  0  0  0  0  0  0  0  0  0  0  0
   37.7940   29.6750   42.4710 C   0  0  0  0  0  0  0  0  0  0  0  0
   38.0700   30.6460   42.9450 H   0  0  0  0  0  0  0  0  0  0  0  0
   36.8110   29.4030   42.8740 H   0  0  0  0  0  0  0  0  0  0  0  0
   36.6520   27.0600   43.3600 Cl  0  0  0  0  0  0  0  0  0  0  0  0
   38.3680   27.3830   43.3050 C   0  0  0  0  0  0  0  0  0  0  0  0
   38.7740   28.6290   42.8760 C   0  0  0  0  0  0  0  0  0  0  0  0
   40.1320   28.8910   42.8300 C   0  0  0  0  0  0  0  0  0  0  0  0
   40.5270   29.8350   42.5090 H   0  0  0  0  0  0  0  0  0  0  0  0
   41.0570   27.9230   43.2060 C   0  0  0  0  0  0  0  0  0  0  0  0
   42.1390   28.0940   43.1820 H   0  0  0  0  0  0  0  0  0  0  0  0
   40.6370   26.6620   43.6400 C   0  0  0  0  0  3  0  0  0  0  0  0
   39.2800   26.4200   43.6780 C   0  0  0  0  0  3  0  0  0  0  0  0
  1 13  1  0  0  0  0
  2  1  1  0  0  0  0
  3  1  1  0  0  0  0
  4  1  1  0  0  0  0
  4  9  1  0  0  0  0
  5  4  2  0  0  0  0
  6  5  1  0  0  0  0
  6  7  2  0  0  0  0
  7  8  1  0  0  0  0
  8  9  2  0  0  0  0
  8 12  1  0  0  0  0
 10  5  1  0  0  0  0
 11  6  1  0  0  0  0
 13 15  1  0  0  0  0
 13 18  1  0  0  0  0
 13 14  1  0  0  0  0
 17 16  1  0  0  0  0
 17 24  1  0  0  0  0
 18 17  2  0  0  0  0
 19 18  1  0  0  0  0
 19 21  2  0  0  0  0
 20 19  1  0  0  0  0
 21 23  1  0  0  0  0
 22 21  1  0  0  0  0
 23 24  2  0  0  0  0
M  END
>  <minimizedAffinity>
-4.57562637

$$$$

 OpenBabel03252506593D

 24 25  0  0  0  0  0  0  0  0999 V2000
   36.2710   27.7570   40.0810 C   0  0  0  0  0  0  0  0  0  0  0  0
   35.6160   26.8560   40.0150 H   0  0  0  0  0  0  0  0  0  0  0  0
   36.8550   27.7890   39.1560 H   0  0  0  0  0  0  0  0  0  0  0  0
   37.1120   27.7150   41.2730 C   0  0  0  0  0  0  0  0  0  0  0  0
   36.5780   27.7600   42.5520 C   0  0  0  0  0  0  0  0  0  0  0  0
   37.4080   27.7180   43.6790 C   0  0  0  0  0  0  0  0  0  0  0  0
   38.7390   27.6340   43.4280 N   0  0  0  0  0  0  0  0  0  0  0  0
   39.2510   27.5910   42.1750 C   0  0  0  0  0  0  0  0  0  0  0  0
   38.4470   27.6310   41.1010 N   0  0  0  0  0  0  0  0  0  0  0  0
   35.5110   27.8280   42.7200 H   0  0  0  0  0  0  0  0  0  0  0  0
   36.9750   27.7540   44.6510 H   0  0  0  0  0  0  0  0  0  0  0  0
   40.3190   27.5230   41.9900 H   0  0  0  0  0  0  0  0  0  0  0  0
   35.4340   29.0090   40.1040 C   0  0  0  0  0  0  0  0  0  0  0  0
   34.5750   28.8930   39.4020 H   0  0  0  0  0  0  0  0  0  0  0  0
   34.9990   29.1550   41.1010 H   0  0  0  0  0  0  0  0  0  0  0  0
   36.1070   29.3470   37.2120 Cl  0  0  0  0  0  0  0  0  0  0  0  0
   36.5760   30.4950   38.4420 C   0  0  0  0  0  0  0  0  0  0  0  0
   36.2070   30.2300   39.7440 C   0  0  0  0  0  0  0  0  0  0  0  0
   36.5770   31.1350   40.7230 C   0  0  0  0  0  0  0  0  0  0  0  0
   36.3280   31.0000   41.7570 H   0  0  0  0  0  0  0  0  0  0  0  0
   37.2990   32.2790   40.4000 C   0  0  0  0  0  0  0  0  0  0  0  0
   37.6080   33.0170   41.1470 H   0  0  0  0  0  0  0  0  0  0  0  0
   37.6690   32.5400   39.0760 C   0  0  0  0  0  3  0  0  0  0  0  0
   37.2920   31.6260   38.1160 C   0  0  0  0  0  3  0  0  0  0  0  0
  1 13  1  0  0  0  0
  1  4  1  0  0  0  0
  2  1  1  0  0  0  0
  3  1  1  0  0  0  0
  4  5  1  0  0  0  0
  5 10  1  0  0  0  0
  5  6  2  0  0  0  0
  6 11  1  0  0  0  0
  7  6  1  0  0  0  0
  8  7  2  0  0  0  0
  9  4  2  0  0  0  0
  9  8  1  0  0  0  0
 12  8  1  0  0  0  0
 13 15  1  0  0  0  0
 14 13  1  0  0  0  0
 16 17  1  0  0  0  0
 17 18  1  0  0  0  0
 18 13  1  0  0  0  0
 18 19  2  0  0  0  0
 19 20  1  0  0  0  0
 21 19  1  0  0  0  0
 21 22  1  0  0  0  0
 23 21  2  0  0  0  0
 24 17  2  0  0  0  0
 24 23  1  0  0  0  0
M  END
>  <minimizedAffinity>
-4.55640268

$$$$

 OpenBabel03252506593D

 24 25  0  0  0  0  0  0  0  0999 V2000
   35.3430   29.3060   40.2660 C   0  0  0  0  0  0  0  0  0  0  0  0
   34.4010   29.2540   39.6720 H   0  0  0  0  0  0  0  0  0  0  0  0
   35.0480   29.4320   41.3130 H   0  0  0  0  0  0  0  0  0  0  0  0
   36.2100   30.3820   39.7950 C   0  0  0  0  0  0  0  0  0  0  0  0
   36.6610   30.4430   38.4850 C   0  0  0  0  0  0  0  0  0  0  0  0
   37.4910   31.4870   38.0590 C   0  0  0  0  0  0  0  0  0  0  0  0
   37.8110   32.4080   39.0030 N   0  0  0  0  0  0  0  0  0  0  0  0
   37.3640   32.3400   40.2800 C   0  0  0  0  0  0  0  0  0  0  0  0
   36.5700   31.3360   40.6780 N   0  0  0  0  0  0  0  0  0  0  0  0
   36.3890   29.6920   37.7550 H   0  0  0  0  0  0  0  0  0  0  0  0
   37.8250   31.5120   37.0480 H   0  0  0  0  0  0  0  0  0  0  0  0
   37.6290   33.0860   41.0240 H   0  0  0  0  0  0  0  0  0  0  0  0
   36.0840   27.9970   40.1830 C   0  0  0  0  0  0  0  0  0  0  0  0
   35.3500   27.1570   40.1630 H   0  0  0  0  0  0  0  0  0  0  0  0
   36.6450   27.9380   39.2420 H   0  0  0  0  0  0  0  0  0  0  0  0
   38.9570   27.6300   39.4470 Cl  0  0  0  0  0  0  0  0  0  0  0  0
   38.3850   27.6160   41.0970 C   0  0  0  0  0  0  0  0  0  0  0  0
   37.0350   27.7960   41.3120 C   0  0  0  0  0  0  0  0  0  0  0  0
   36.5760   27.7860   42.6180 C   0  0  0  0  0  0  0  0  0  0  0  0
   35.5410   27.9180   42.8650 H   0  0  0  0  0  0  0  0  0  0  0  0
   37.4530   27.6000   43.6800 C   0  0  0  0  0  0  0  0  0  0  0  0
   37.1260   27.5860   44.7250 H   0  0  0  0  0  0  0  0  0  0  0  0
   38.8220   27.4170   43.4530 C   0  0  0  0  0  3  0  0  0  0  0  0
   39.2590   27.4310   42.1460 C   0  0  0  0  0  3  0  0  0  0  0  0
  1  3  1  0  0  0  0
  2  1  1  0  0  0  0
  4  1  1  0  0  0  0
  4  9  1  0  0  0  0
  5  4  2  0  0  0  0
  6  5  1  0  0  0  0
  6  7  2  0  0  0  0
  7  8  1  0  0  0  0
  8  9  2  0  0  0  0
  8 12  1  0  0  0  0
 10  5  1  0  0  0  0
 11  6  1  0  0  0  0
 13  1  1  0  0  0  0
 13 18  1  0  0  0  0
 14 13  1  0  0  0  0
 15 13  1  0  0  0  0
 16 17  1  0  0  0  0
 17 18  2  0  0  0  0
 17 24  1  0  0  0  0
 18 19  1  0  0  0  0
 19 20  1  0  0  0  0
 19 21  2  0  0  0  0
 21 22  1  0  0  0  0
 23 21  1  0  0  0  0
 24 23  2  0  0  0  0
M  END
>  <minimizedAffinity>
-4.49832296

$$$$

 OpenBabel03252506593D

 24 25  0  0  0  0  0  0  0  0999 V2000
   37.5280   31.2220   39.3250 C   0  0  0  0  0  0  0  0  0  0  0  0
   37.8900   30.1900   39.1050 H   0  0  0  0  0  0  0  0  0  0  0  0
   36.7800   31.4620   38.5640 H   0  0  0  0  0  0  0  0  0  0  0  0
   38.6310   32.1780   39.3480 C   0  0  0  0  0  0  0  0  0  0  0  0
   38.6500   33.2590   40.2160 C   0  0  0  0  0  0  0  0  0  0  0  0
   39.7210   34.1610   40.2180 C   0  0  0  0  0  0  0  0  0  0  0  0
   40.7120   33.9010   39.3270 N   0  0  0  0  0  0  0  0  0  0  0  0
   40.6840   32.8420   38.4830 C   0  0  0  0  0  0  0  0  0  0  0  0
   39.6530   31.9840   38.4900 N   0  0  0  0  0  0  0  0  0  0  0  0
   37.8440   33.4400   40.9160 H   0  0  0  0  0  0  0  0  0  0  0  0
   39.7130   34.9840   40.8940 H   0  0  0  0  0  0  0  0  0  0  0  0
   41.4850   32.6470   37.7760 H   0  0  0  0  0  0  0  0  0  0  0  0
   36.8150   31.2510   40.6520 C   0  0  0  0  0  0  0  0  0  0  0  0
   37.1230   32.1620   41.2170 H   0  0  0  0  0  0  0  0  0  0  0  0
   35.7320   31.3360   40.4980 H   0  0  0  0  0  0  0  0  0  0  0  0
   34.8790   28.9950   40.3590 Cl  0  0  0  0  0  0  0  0  0  0  0  0
   36.2570   28.9370   41.4300 C   0  0  0  0  0  0  0  0  0  0  0  0
   37.0800   30.0420   41.4790 C   0  0  0  0  0  0  0  0  0  0  0  0
   38.1740   30.0020   42.3270 C   0  0  0  0  0  0  0  0  0  0  0  0
   38.8590   30.8210   42.4210 H   0  0  0  0  0  0  0  0  0  0  0  0
   38.4320   28.8790   43.1040 C   0  0  0  0  0  0  0  0  0  0  0  0
   39.2870   28.8110   43.7850 H   0  0  0  0  0  0  0  0  0  0  0  0
   37.5910   27.7620   43.0490 C   0  0  0  0  0  3  0  0  0  0  0  0
   36.5080   27.8210   42.1990 C   0  0  0  0  0  3  0  0  0  0  0  0
  1  4  1  0  0  0  0
  1 13  1  0  0  0  0
  2  1  1  0  0  0  0
  3  1  1  0  0  0  0
  4  5  1  0  0  0  0
  5  6  2  0  0  0  0
  5 10  1  0  0  0  0
  6 11  1  0  0  0  0
  7  6  1  0  0  0  0
  8  9  1  0  0  0  0
  8  7  2  0  0  0  0
  9  4  2  0  0  0  0
 12  8  1  0  0  0  0
 13 14  1  0  0  0  0
 13 18  1  0  0  0  0
 15 13  1  0  0  0  0
 16 17  1  0  0  0  0
 17 18  2  0  0  0  0
 17 24  1  0  0  0  0
 18 19  1  0  0  0  0
 19 20  1  0  0  0  0
 19 21  2  0  0  0  0
 21 22  1  0  0  0  0
 23 21  1  0  0  0  0
 24 23  2  0  0  0  0
M  END
>  <minimizedAffinity>
-4.49085426

$$$$

 OpenBabel03252506593D

 24 25  0  0  0  0  0  0  0  0999 V2000
   37.2010   28.1900   42.9220 C   0  0  0  0  0  0  0  0  0  0  0  0
   37.8560   29.0890   42.8400 H   0  0  0  0  0  0  0  0  0  0  0  0
   36.6000   28.3210   43.8280 H   0  0  0  0  0  0  0  0  0  0  0  0
   37.9870   26.9600   42.9440 C   0  0  0  0  0  0  0  0  0  0  0  0
   37.5760   25.8140   42.2810 C   0  0  0  0  0  0  0  0  0  0  0  0
   38.3500   24.6470   42.3170 C   0  0  0  0  0  0  0  0  0  0  0  0
   39.5000   24.7250   43.0340 N   0  0  0  0  0  0  0  0  0  0  0  0
   39.8920   25.8500   43.6780 C   0  0  0  0  0  0  0  0  0  0  0  0
   39.1440   26.9620   43.6370 N   0  0  0  0  0  0  0  0  0  0  0  0
   36.6530   25.7820   41.7170 H   0  0  0  0  0  0  0  0  0  0  0  0
   38.0140   23.7790   41.8000 H   0  0  0  0  0  0  0  0  0  0  0  0
   40.8160   25.8970   44.2470 H   0  0  0  0  0  0  0  0  0  0  0  0
   36.2330   28.1440   41.7680 C   0  0  0  0  0  0  0  0  0  0  0  0
   36.3150   27.1560   41.2570 H   0  0  0  0  0  0  0  0  0  0  0  0
   35.2020   28.2160   42.1360 H   0  0  0  0  0  0  0  0  0  0  0  0
   36.3200   27.3310   38.8940 Cl  0  0  0  0  0  0  0  0  0  0  0  0
   36.5180   28.9830   39.4250 C   0  0  0  0  0  0  0  0  0  0  0  0
   36.4580   29.2340   40.7800 C   0  0  0  0  0  0  0  0  0  0  0  0
   36.6140   30.5420   41.2070 C   0  0  0  0  0  0  0  0  0  0  0  0
   36.5810   30.8170   42.2420 H   0  0  0  0  0  0  0  0  0  0  0  0
   36.8250   31.5690   40.2940 C   0  0  0  0  0  0  0  0  0  0  0  0
   36.9520   32.6140   40.5950 H   0  0  0  0  0  0  0  0  0  0  0  0
   36.8850   31.3050   38.9210 C   0  0  0  0  0  3  0  0  0  0  0  0
   36.7260   29.9970   38.5160 C   0  0  0  0  0  3  0  0  0  0  0  0
  1  4  1  0  0  0  0
  1  3  1  0  0  0  0
  2  1  1  0  0  0  0
  4  9  1  0  0  0  0
  5  6  1  0  0  0  0
  5  4  2  0  0  0  0
  6  7  2  0  0  0  0
  7  8  1  0  0  0  0
  8 12  1  0  0  0  0
  9  8  2  0  0  0  0
 10  5  1  0  0  0  0
 11  6  1  0  0  0  0
 13 15  1  0  0  0  0
 13  1  1  0  0  0  0
 14 13  1  0  0  0  0
 16 17  1  0  0  0  0
 17 18  1  0  0  0  0
 18 19  2  0  0  0  0
 18 13  1  0  0  0  0
 19 20  1  0  0  0  0
 21 22  1  0  0  0  0
 21 19  1  0  0  0  0
 23 21  2  0  0  0  0
 24 23  1  0  0  0  0
 24 17  2  0  0  0  0
M  END
>  <minimizedAffinity>
-4.4790926

$$$$

 OpenBabel03252506593D

 24 25  0  0  0  0  0  0  0  0999 V2000
   36.1510   28.2360   41.1080 C   0  0  0  0  0  0  0  0  0  0  0  0
   36.3120   27.3950   40.3920 H   0  0  0  0  0  0  0  0  0  0  0  0
   35.0710   28.4010   41.1610 H   0  0  0  0  0  0  0  0  0  0  0  0
   36.8820   29.4300   40.6960 C   0  0  0  0  0  0  0  0  0  0  0  0
   36.4040   30.7070   40.9480 C   0  0  0  0  0  0  0  0  0  0  0  0
   37.1260   31.8370   40.5420 C   0  0  0  0  0  0  0  0  0  0  0  0
   38.2960   31.5900   39.9000 N   0  0  0  0  0  0  0  0  0  0  0  0
   38.7530   30.3380   39.6590 C   0  0  0  0  0  0  0  0  0  0  0  0
   38.0550   29.2620   40.0510 N   0  0  0  0  0  0  0  0  0  0  0  0
   35.4670   30.8730   41.4620 H   0  0  0  0  0  0  0  0  0  0  0  0
   36.7390   32.8080   40.7470 H   0  0  0  0  0  0  0  0  0  0  0  0
   39.6920   30.1560   39.1430 H   0  0  0  0  0  0  0  0  0  0  0  0
   36.5920   27.8330   42.4910 C   0  0  0  0  0  0  0  0  0  0  0  0
   37.1230   28.6880   42.9730 H   0  0  0  0  0  0  0  0  0  0  0  0
   35.7190   27.6190   43.1190 H   0  0  0  0  0  0  0  0  0  0  0  0
   39.4600   28.3060   43.1830 Cl  0  0  0  0  0  0  0  0  0  0  0  0
   38.8200   26.7290   42.7950 C   0  0  0  0  0  0  0  0  0  0  0  0
   37.4780   26.6360   42.4920 C   0  0  0  0  0  0  0  0  0  0  0  0
   36.9650   25.3890   42.1820 C   0  0  0  0  0  0  0  0  0  0  0  0
   35.9330   25.2350   41.9350 H   0  0  0  0  0  0  0  0  0  0  0  0
   37.7810   24.2630   42.1790 C   0  0  0  0  0  0  0  0  0  0  0  0
   37.4100   23.2610   41.9400 H   0  0  0  0  0  0  0  0  0  0  0  0
   39.1410   24.3660   42.4880 C   0  0  0  0  0  3  0  0  0  0  0  0
   39.6340   25.6160   42.7930 C   0  0  0  0  0  3  0  0  0  0  0  0
  1  3  1  0  0  0  0
  1 13  1  0  0  0  0
  2  1  1  0  0  0  0
  4  5  1  0  0  0  0
  4  1  1  0  0  0  0
  5 10  1  0  0  0  0
  6 11  1  0  0  0  0
  6  5  2  0  0  0  0
  7  6  1  0  0  0  0
  8  7  2  0  0  0  0
  8  9  1  0  0  0  0
  9  4  2  0  0  0  0
 12  8  1  0  0  0  0
 13 18  1  0  0  0  0
 13 14  1  0  0  0  0
 13 15  1  0  0  0  0
 17 16  1  0  0  0  0
 18 17  2  0  0  0  0
 19 18  1  0  0  0  0
 20 19  1  0  0  0  0
 21 19  2  0  0  0  0
 21 23  1  0  0  0  0
 22 21  1  0  0  0  0
 23 24  2  0  0  0  0
 24 17  1  0  0  0  0
M  END
>  <minimizedAffinity>
-4.47602654

$$$$
