
 OpenBabel03252507223D

 47 50  0  0  1  0  0  0  0  0999 V2000
   46.0860   31.5430   43.7050 C   0  0  0  0  0  0  0  0  0  0  0  0
   44.8890   31.1310   43.8220 O   0  0  0  0  0  0  0  0  0  0  0  0
   46.4140   32.8820   43.3650 N   0  0  0  0  0  0  0  0  0  0  0  0
   47.4250   33.7860   43.9340 C   0  0  0  0  0  0  0  0  0  0  0  0
   48.2700   34.3570   42.7990 C   0  0  0  0  0  0  0  0  0  0  0  0
   47.4320   35.2120   41.9080 C   0  0  0  0  0  0  0  0  0  0  0  0
   45.9640   34.9630   42.1930 C   0  0  0  0  0  0  0  0  0  0  0  0
   45.6640   33.5050   42.3030 C   0  0  2  0  0  0  0  0  0  0  0  0
   46.9130   34.5740   44.5210 H   0  0  0  0  0  0  0  0  0  0  0  0
   48.0950   33.2440   44.6420 H   0  0  0  0  0  0  0  0  0  0  0  0
   49.1870   34.8130   43.1520 H   0  0  0  0  0  0  0  0  0  0  0  0
   48.5740   33.4470   42.2040 H   0  0  0  0  0  0  0  0  0  0  0  0
   47.6140   36.2920   42.1440 H   0  0  0  0  0  0  0  0  0  0  0  0
   47.6350   35.0740   40.8310 H   0  0  0  0  0  0  0  0  0  0  0  0
   45.4380   35.3170   41.2580 H   0  0  0  0  0  0  0  0  0  0  0  0
   45.5830   35.5850   43.0150 H   0  0  0  0  0  0  0  0  0  0  0  0
   46.0090   33.0520   41.3250 H   0  0  0  0  0  0  0  0  0  0  0  0
   47.8460   30.1150   42.7990 C   0  0  0  0  0  0  0  0  0  0  0  0
   47.1520   30.6000   43.9290 C   0  0  0  0  0  0  0  0  0  0  0  0
   47.4990   30.1770   45.2040 C   0  0  0  0  0  0  0  0  0  0  0  0
   48.5160   29.2920   45.3140 N   0  0  0  0  0  0  0  0  0  0  0  0
   49.1990   28.8100   44.2310 C   0  0  0  0  0  0  0  0  0  0  0  0
   48.8470   29.2330   42.9960 N   0  0  0  0  0  0  0  0  0  0  0  0
   47.6030   30.4200   41.8110 H   0  0  0  0  0  0  0  0  0  0  0  0
   49.9690   28.1230   44.4950 H   0  0  0  0  0  0  0  0  0  0  0  0
   46.7640   30.6900   46.3290 C   0  0  0  0  0  0  0  0  0  0  0  0
   47.1220   31.8530   46.9210 C   0  0  0  0  0  0  0  0  0  0  0  0
   46.3960   32.3220   47.9970 C   0  0  0  0  0  0  0  0  0  0  0  0
   45.2950   31.6430   48.5130 C   0  0  0  0  0  0  0  0  0  0  0  0
   44.9640   30.4460   47.8700 C   0  0  0  0  0  0  0  0  0  0  0  0
   45.6930   30.0300   46.8320 N   0  0  0  0  0  0  0  0  0  0  0  0
   47.9450   32.4850   46.6430 H   0  0  0  0  0  0  0  0  0  0  0  0
   46.6120   33.2390   48.5280 H   0  0  0  0  0  0  0  0  0  0  0  0
   44.6960   31.9470   49.3370 H   0  0  0  0  0  0  0  0  0  0  0  0
   44.1310   29.8160   48.1670 H   0  0  0  0  0  0  0  0  0  0  0  0
   44.1910   33.2780   42.3730 C   0  0  0  0  0  0  0  0  0  0  0  0
   43.6650   33.8420   43.1390 H   0  0  0  0  0  0  0  0  0  0  0  0
   43.9000   32.1870   42.4510 H   0  0  0  0  0  0  0  0  0  0  0  0
   44.8390   31.3400   40.0710 Cl  0  0  0  0  0  0  0  0  0  0  0  0
   43.9110   32.8140   39.8980 C   0  0  0  0  0  0  0  0  0  0  0  0
   43.6700   33.6180   40.9920 C   0  0  0  0  0  0  0  0  0  0  0  0
   42.9350   34.7870   40.8830 C   0  0  0  0  0  0  0  0  0  0  0  0
   42.7640   35.3950   41.7550 H   0  0  0  0  0  0  0  0  0  0  0  0
   42.4100   35.2020   39.6770 C   0  0  0  0  0  0  0  0  0  0  0  0
   41.8450   36.1240   39.6590 H   0  0  0  0  0  0  0  0  0  0  0  0
   42.6430   34.4070   38.5730 C   0  0  0  0  0  0  0  0  0  0  0  0
   43.3790   33.2390   38.6880 C   0  0  0  0  0  0  0  0  0  0  0  0
  1  2  2  0  0  0  0
  1 19  1  0  0  0  0
  3  1  1  0  0  0  0
  3  4  1  0  0  0  0
  4  9  1  0  0  0  0
  4 10  1  0  0  0  0
  5 11  1  0  0  0  0
  5  4  1  0  0  0  0
  6 13  1  0  0  0  0
  6  7  1  0  0  0  0
  6  5  1  0  0  0  0
  7  8  1  0  0  0  0
  7 16  1  0  0  0  0
  8 17  1  6  0  0  0
  8 36  1  0  0  0  0
  8  3  1  0  0  0  0
 12  5  1  0  0  0  0
 14  6  1  0  0  0  0
 15  7  1  0  0  0  0
 18 23  2  0  0  0  0
 18 19  1  0  0  0  0
 19 20  2  0  0  0  0
 20 21  1  0  0  0  0
 20 26  1  0  0  0  0
 22 25  1  0  0  0  0
 22 21  2  0  0  0  0
 23 22  1  0  0  0  0
 24 18  1  0  0  0  0
 26 31  2  0  0  0  0
 26 27  1  0  0  0  0
 27 28  2  0  0  0  0
 28 29  1  0  0  0  0
 28 33  1  0  0  0  0
 29 34  1  0  0  0  0
 30 35  1  0  0  0  0
 30 29  2  0  0  0  0
 31 30  1  0  0  0  0
 32 27  1  0  0  0  0
 36 38  1  0  0  0  0
 36 37  1  0  0  0  0
 40 39  1  0  0  0  0
 40 41  1  0  0  0  0
 41 36  1  0  0  0  0
 42 41  2  0  0  0  0
 42 43  1  0  0  0  0
 44 42  1  0  0  0  0
 45 44  1  0  0  0  0
 46 47  1  0  0  0  0
 46 44  2  0  0  0  0
 47 40  2  0  0  0  0
M  END
>  <minimizedAffinity>
-5.2184577

>  <minimizedRMSD>
5.63838673

$$$$
