
 OpenBabel03242517363D

 23 24  0  0  0  0  0  0  0  0999 V2000
   35.5250   28.9670   40.6650 C   0  0  0  0  0  0  0  0  0  0  0  0
   35.0520   29.2920   41.6130 H   0  0  0  0  0  0  0  0  0  0  0  0
   34.7040   28.6210   40.0060 H   0  0  0  0  0  0  0  0  0  0  0  0
   35.8010   28.9140   37.6150 Cl  0  0  0  0  0  0  0  0  0  0  0  0
   36.3650   30.2120   38.6720 C   0  0  0  0  0  0  0  0  0  0  0  0
   36.1900   30.1370   40.0410 C   0  0  0  0  0  0  0  0  0  0  0  0
   36.6460   31.1680   40.8250 C   0  0  0  0  0  0  0  0  0  0  0  0
   36.5140   31.1190   41.8880 H   0  0  0  0  0  0  0  0  0  0  0  0
   37.2740   32.2840   40.3020 C   0  0  0  0  0  0  0  0  0  0  0  0
   37.6500   33.1210   40.8900 H   0  0  0  0  0  0  0  0  0  0  0  0
   37.4140   32.2870   38.9140 C   0  0  0  0  0  3  0  0  0  0  0  0
   36.9760   31.2790   38.0830 C   0  0  0  0  0  3  0  0  0  0  0  0
   36.8950   27.5930   42.1880 C   0  0  0  0  0  3  0  0  0  0  0  0
   36.5020   27.8760   40.9550 C   0  0  0  0  0  3  0  0  0  0  0  0
   38.9550   26.7760   43.3520 C   0  0  0  0  0  0  0  0  0  0  0  0
   37.8390   26.5550   42.5510 C   0  0  0  0  0  0  0  0  0  0  0  0
   37.6350   25.2510   42.0800 C   0  0  0  0  0  0  0  0  0  0  0  0
   38.5290   24.2720   42.4250 N   0  0  0  0  0  0  0  0  0  0  0  0
   39.5940   24.5350   43.2020 C   0  0  0  0  0  0  0  0  0  0  0  0
   39.7990   25.7850   43.6610 N   0  0  0  0  0  0  0  0  0  0  0  0
   39.1340   27.7910   43.7330 H   0  0  0  0  0  0  0  0  0  0  0  0
   36.7740   25.0060   41.4450 H   0  0  0  0  0  0  0  0  0  0  0  0
   40.2870   23.7470   43.4600 H   0  0  0  0  0  0  0  0  0  0  0  0
  1 14  1  0  0  0  0
  1  2  1  0  0  0  0
  3  1  1  0  0  0  0
  4  5  1  0  0  0  0
  5  6  1  0  0  0  0
  6  1  1  0  0  0  0
  6  7  2  0  0  0  0
  7  8  1  0  0  0  0
  9  7  1  0  0  0  0
  9 10  1  0  0  0  0
 11  9  2  0  0  0  0
 12  5  2  0  0  0  0
 12 11  1  0  0  0  0
 13 16  1  0  0  0  0
 14 13  2  0  0  0  0
 15 20  1  0  0  0  0
 15 21  1  0  0  0  0
 16 15  2  0  0  0  0
 17 18  2  0  0  0  0
 17 16  1  0  0  0  0
 18 19  1  0  0  0  0
 19 23  1  0  0  0  0
 19 20  2  0  0  0  0
 22 17  1  0  0  0  0
M  END
>  <minimizedAffinity>
-4.99910259

$$$$

 OpenBabel03242517363D

 23 24  0  0  0  0  0  0  0  0999 V2000
   36.8920   27.4430   42.8740 C   0  0  0  0  0  0  0  0  0  0  0  0
   36.2220   27.0940   42.0640 H   0  0  0  0  0  0  0  0  0  0  0  0
   36.3180   27.3560   43.8170 H   0  0  0  0  0  0  0  0  0  0  0  0
   36.6050   24.7220   41.4960 Cl  0  0  0  0  0  0  0  0  0  0  0  0
   38.0440   25.2920   42.3460 C   0  0  0  0  0  0  0  0  0  0  0  0
   38.0700   26.5430   42.9350 C   0  0  0  0  0  0  0  0  0  0  0  0
   39.2100   26.9450   43.5870 C   0  0  0  0  0  0  0  0  0  0  0  0
   39.2390   27.9130   44.0470 H   0  0  0  0  0  0  0  0  0  0  0  0
   40.3390   26.1500   43.6800 C   0  0  0  0  0  0  0  0  0  0  0  0
   41.2600   26.4330   44.1880 H   0  0  0  0  0  0  0  0  0  0  0  0
   40.2360   24.9040   43.0610 C   0  0  0  0  0  3  0  0  0  0  0  0
   39.1170   24.4530   42.3950 C   0  0  0  0  0  3  0  0  0  0  0  0
   37.3080   29.3560   41.3730 C   0  0  0  0  0  3  0  0  0  0  0  0
   37.2990   28.8530   42.5990 C   0  0  0  0  0  3  0  0  0  0  0  0
   36.8840   31.5710   40.2870 C   0  0  0  0  0  0  0  0  0  0  0  0
   37.6900   30.7100   41.0250 C   0  0  0  0  0  0  0  0  0  0  0  0
   38.9360   31.1970   41.4440 C   0  0  0  0  0  0  0  0  0  0  0  0
   39.2940   32.4770   41.1120 N   0  0  0  0  0  0  0  0  0  0  0  0
   38.4800   33.2720   40.3970 C   0  0  0  0  0  0  0  0  0  0  0  0
   37.2810   32.8140   39.9890 N   0  0  0  0  0  0  0  0  0  0  0  0
   35.9030   31.2100   39.9490 H   0  0  0  0  0  0  0  0  0  0  0  0
   39.6210   30.5720   42.0300 H   0  0  0  0  0  0  0  0  0  0  0  0
   38.7850   34.2780   40.1460 H   0  0  0  0  0  0  0  0  0  0  0  0
  1  6  1  0  0  0  0
  1  3  1  0  0  0  0
  2  1  1  0  0  0  0
  4  5  1  0  0  0  0
  5 12  2  0  0  0  0
  5  6  1  0  0  0  0
  6  7  2  0  0  0  0
  7  9  1  0  0  0  0
  7  8  1  0  0  0  0
  9 10  1  0  0  0  0
 11  9  2  0  0  0  0
 12 11  1  0  0  0  0
 13 14  2  0  0  0  0
 14  1  1  0  0  0  0
 15 16  1  0  0  0  0
 16 13  1  0  0  0  0
 16 17  2  0  0  0  0
 17 22  1  0  0  0  0
 18 17  1  0  0  0  0
 19 18  2  0  0  0  0
 20 15  2  0  0  0  0
 20 19  1  0  0  0  0
 21 15  1  0  0  0  0
 23 19  1  0  0  0  0
M  END
>  <minimizedAffinity>
-4.95169306

$$$$

 OpenBabel03242517363D

 23 24  0  0  0  0  0  0  0  0999 V2000
   39.3900   27.5970   43.4770 C   0  0  0  0  0  0  0  0  0  0  0  0
   39.2240   27.5920   44.5730 H   0  0  0  0  0  0  0  0  0  0  0  0
   40.4880   27.6010   43.3250 H   0  0  0  0  0  0  0  0  0  0  0  0
   41.3150   25.2340   43.1780 Cl  0  0  0  0  0  0  0  0  0  0  0  0
   39.6070   25.2260   42.7290 C   0  0  0  0  0  0  0  0  0  0  0  0
   38.8230   26.3510   42.9060 C   0  0  0  0  0  0  0  0  0  0  0  0
   37.5010   26.3010   42.5420 C   0  0  0  0  0  0  0  0  0  0  0  0
   36.8850   27.1690   42.6760 H   0  0  0  0  0  0  0  0  0  0  0  0
   36.9150   25.1690   42.0040 C   0  0  0  0  0  0  0  0  0  0  0  0
   35.8710   25.0900   41.7020 H   0  0  0  0  0  0  0  0  0  0  0  0
   37.7690   24.0760   41.8560 C   0  0  0  0  0  3  0  0  0  0  0  0
   39.1020   24.0730   42.2040 C   0  0  0  0  0  3  0  0  0  0  0  0
   39.3800   29.6010   42.0390 C   0  0  0  0  0  3  0  0  0  0  0  0
   38.7440   28.8080   42.8890 C   0  0  0  0  0  3  0  0  0  0  0  0
   37.5380   30.8580   40.9010 C   0  0  0  0  0  0  0  0  0  0  0  0
   38.8250   30.7920   41.4270 C   0  0  0  0  0  0  0  0  0  0  0  0
   39.6100   31.9500   41.3510 C   0  0  0  0  0  0  0  0  0  0  0  0
   39.0820   33.0740   40.7730 N   0  0  0  0  0  0  0  0  0  0  0  0
   37.8320   33.0890   40.2780 C   0  0  0  0  0  0  0  0  0  0  0  0
   37.0690   31.9820   40.3460 N   0  0  0  0  0  0  0  0  0  0  0  0
   36.9050   29.9610   40.9510 H   0  0  0  0  0  0  0  0  0  0  0  0
   40.6330   31.9680   41.7470 H   0  0  0  0  0  0  0  0  0  0  0  0
   37.4380   33.9870   39.8250 H   0  0  0  0  0  0  0  0  0  0  0  0
  1  2  1  0  0  0  0
  3  1  1  0  0  0  0
  5  6  1  0  0  0  0
  5  4  1  0  0  0  0
  6  1  1  0  0  0  0
  7  8  1  0  0  0  0
  7  6  2  0  0  0  0
  9  7  1  0  0  0  0
 10  9  1  0  0  0  0
 11  9  2  0  0  0  0
 11 12  1  0  0  0  0
 12  5  2  0  0  0  0
 13 14  2  0  0  0  0
 14  1  1  0  0  0  0
 15 21  1  0  0  0  0
 15 16  1  0  0  0  0
 16 13  1  0  0  0  0
 17 16  2  0  0  0  0
 17 22  1  0  0  0  0
 18 17  1  0  0  0  0
 19 20  1  0  0  0  0
 19 18  2  0  0  0  0
 20 15  2  0  0  0  0
 23 19  1  0  0  0  0
M  END
>  <minimizedAffinity>
-4.65924644

$$$$

 OpenBabel03242517363D

 23 24  0  0  0  0  0  0  0  0999 V2000
   36.5850   30.4140   41.3910 C   0  0  0  0  0  0  0  0  0  0  0  0
   35.7920   30.8140   42.0540 H   0  0  0  0  0  0  0  0  0  0  0  0
   37.3490   31.2110   41.2990 H   0  0  0  0  0  0  0  0  0  0  0  0
   39.4310   30.7580   42.4710 Cl  0  0  0  0  0  0  0  0  0  0  0  0
   38.4730   29.2770   42.5620 C   0  0  0  0  0  0  0  0  0  0  0  0
   37.1930   29.2280   42.0410 C   0  0  0  0  0  0  0  0  0  0  0  0
   36.4850   28.0550   42.1330 C   0  0  0  0  0  0  0  0  0  0  0  0
   35.4920   28.0080   41.7320 H   0  0  0  0  0  0  0  0  0  0  0  0
   36.9990   26.9150   42.7260 C   0  0  0  0  0  0  0  0  0  0  0  0
   36.4700   25.9670   42.8170 H   0  0  0  0  0  0  0  0  0  0  0  0
   38.2950   27.0430   43.2270 C   0  0  0  0  0  3  0  0  0  0  0  0
   39.0470   28.1950   43.1600 C   0  0  0  0  0  3  0  0  0  0  0  0
   36.7020   30.0560   38.9540 C   0  0  0  0  0  3  0  0  0  0  0  0
   35.9870   30.0630   40.0690 C   0  0  0  0  0  3  0  0  0  0  0  0
   36.9010   29.9760   36.4600 C   0  0  0  0  0  0  0  0  0  0  0  0
   36.1970   29.7300   37.6350 C   0  0  0  0  0  0  0  0  0  0  0  0
   34.9350   29.1330   37.5150 C   0  0  0  0  0  0  0  0  0  0  0  0
   34.4610   28.8260   36.2670 N   0  0  0  0  0  0  0  0  0  0  0  0
   35.1780   29.0840   35.1590 C   0  0  0  0  0  0  0  0  0  0  0  0
   36.3920   29.6570   35.2630 N   0  0  0  0  0  0  0  0  0  0  0  0
   37.8930   30.4430   36.5300 H   0  0  0  0  0  0  0  0  0  0  0  0
   34.3270   28.9100   38.4010 H   0  0  0  0  0  0  0  0  0  0  0  0
   34.7830   28.8340   34.1850 H   0  0  0  0  0  0  0  0  0  0  0  0
  1  6  1  0  0  0  0
  1  2  1  0  0  0  0
  3  1  1  0  0  0  0
  4  5  1  0  0  0  0
  5 12  1  0  0  0  0
  6  7  1  0  0  0  0
  6  5  2  0  0  0  0
  7  9  2  0  0  0  0
  8  7  1  0  0  0  0
  9 10  1  0  0  0  0
  9 11  1  0  0  0  0
 12 11  2  0  0  0  0
 13 14  2  0  0  0  0
 14  1  1  0  0  0  0
 15 21  1  0  0  0  0
 15 16  1  0  0  0  0
 16 13  1  0  0  0  0
 17 16  2  0  0  0  0
 17 22  1  0  0  0  0
 18 17  1  0  0  0  0
 19 20  1  0  0  0  0
 19 18  2  0  0  0  0
 20 15  2  0  0  0  0
 23 19  1  0  0  0  0
M  END
>  <minimizedAffinity>
-4.60114431

$$$$

 OpenBabel03242517363D

 23 24  0  0  0  0  0  0  0  0999 V2000
   36.2460   30.6740   40.8950 C   0  0  0  0  0  0  0  0  0  0  0  0
   35.6000   30.4670   40.0200 H   0  0  0  0  0  0  0  0  0  0  0  0
   35.6080   31.1830   41.6440 H   0  0  0  0  0  0  0  0  0  0  0  0
   35.6100   28.1660   39.2560 Cl  0  0  0  0  0  0  0  0  0  0  0  0
   36.4800   28.1900   40.7930 C   0  0  0  0  0  0  0  0  0  0  0  0
   36.7160   29.3820   41.4540 C   0  0  0  0  0  0  0  0  0  0  0  0
   37.3950   29.3550   42.6470 C   0  0  0  0  0  0  0  0  0  0  0  0
   37.5820   30.2740   43.1670 H   0  0  0  0  0  0  0  0  0  0  0  0
   37.8560   28.1820   43.2190 C   0  0  0  0  0  0  0  0  0  0  0  0
   38.3970   28.1190   44.1630 H   0  0  0  0  0  0  0  0  0  0  0  0
   37.5800   27.0230   42.4930 C   0  0  0  0  0  3  0  0  0  0  0  0
   36.9030   26.9950   41.2940 C   0  0  0  0  0  3  0  0  0  0  0  0
   38.1520   31.2200   39.4270 C   0  0  0  0  0  3  0  0  0  0  0  0
   37.3920   31.5300   40.4680 C   0  0  0  0  0  3  0  0  0  0  0  0
   39.7970   33.0950   39.6290 C   0  0  0  0  0  0  0  0  0  0  0  0
   39.2800   31.9950   38.9510 C   0  0  0  0  0  0  0  0  0  0  0  0
   39.8980   31.6330   37.7470 C   0  0  0  0  0  0  0  0  0  0  0  0
   40.9650   32.3680   37.3010 N   0  0  0  0  0  0  0  0  0  0  0  0
   41.4290   33.4250   37.9900 C   0  0  0  0  0  0  0  0  0  0  0  0
   40.8420   33.7810   39.1490 N   0  0  0  0  0  0  0  0  0  0  0  0
   39.3280   33.3960   40.5760 H   0  0  0  0  0  0  0  0  0  0  0  0
   39.5420   30.7750   37.1620 H   0  0  0  0  0  0  0  0  0  0  0  0
   42.2710   33.9900   37.6180 H   0  0  0  0  0  0  0  0  0  0  0  0
  1  6  1  0  0  0  0
  1  3  1  0  0  0  0
  2  1  1  0  0  0  0
  4  5  1  0  0  0  0
  5 12  2  0  0  0  0
  5  6  1  0  0  0  0
  6  7  2  0  0  0  0
  7  8  1  0  0  0  0
  7  9  1  0  0  0  0
  9 10  1  0  0  0  0
 11  9  2  0  0  0  0
 12 11  1  0  0  0  0
 13 14  2  0  0  0  0
 14  1  1  0  0  0  0
 15 21  1  0  0  0  0
 16 13  1  0  0  0  0
 16 15  2  0  0  0  0
 17 16  1  0  0  0  0
 18 17  2  0  0  0  0
 18 19  1  0  0  0  0
 19 20  2  0  0  0  0
 20 15  1  0  0  0  0
 22 17  1  0  0  0  0
 23 19  1  0  0  0  0
M  END
>  <minimizedAffinity>
-4.50834894

$$$$

 OpenBabel03242517363D

 23 24  0  0  0  0  0  0  0  0999 V2000
   35.9420   29.7500   40.8020 C   0  0  0  0  0  0  0  0  0  0  0  0
   35.7760   30.6810   41.3790 H   0  0  0  0  0  0  0  0  0  0  0  0
   34.9650   29.2310   40.7520 H   0  0  0  0  0  0  0  0  0  0  0  0
   37.5210   32.3590   40.5110 Cl  0  0  0  0  0  0  0  0  0  0  0  0
   37.0890   31.2710   39.1880 C   0  0  0  0  0  0  0  0  0  0  0  0
   36.3710   30.1140   39.4290 C   0  0  0  0  0  0  0  0  0  0  0  0
   36.0550   29.2980   38.3710 C   0  0  0  0  0  0  0  0  0  0  0  0
   35.4990   28.3990   38.5480 H   0  0  0  0  0  0  0  0  0  0  0  0
   36.4250   29.5840   37.0680 C   0  0  0  0  0  0  0  0  0  0  0  0
   36.1930   28.9640   36.2030 H   0  0  0  0  0  0  0  0  0  0  0  0
   37.1460   30.7680   36.9060 C   0  0  0  0  0  3  0  0  0  0  0  0
   37.4880   31.6210   37.9320 C   0  0  0  0  0  3  0  0  0  0  0  0
   36.9120   27.6000   41.5220 C   0  0  0  0  0  3  0  0  0  0  0  0
   36.9760   28.9230   41.4920 C   0  0  0  0  0  3  0  0  0  0  0  0
   38.8030   27.1710   43.1050 C   0  0  0  0  0  0  0  0  0  0  0  0
   37.8710   26.7280   42.1710 C   0  0  0  0  0  0  0  0  0  0  0  0
   37.8760   25.3630   41.8560 C   0  0  0  0  0  0  0  0  0  0  0  0
   38.7840   24.5420   42.4720 N   0  0  0  0  0  0  0  0  0  0  0  0
   39.6660   25.0170   43.3680 C   0  0  0  0  0  0  0  0  0  0  0  0
   39.6700   26.3270   43.6790 N   0  0  0  0  0  0  0  0  0  0  0  0
   38.8160   28.2370   43.3680 H   0  0  0  0  0  0  0  0  0  0  0  0
   37.1680   24.9460   41.1290 H   0  0  0  0  0  0  0  0  0  0  0  0
   40.3740   24.3500   43.8400 H   0  0  0  0  0  0  0  0  0  0  0  0
  1  2  1  0  0  0  0
  1 14  1  0  0  0  0
  3  1  1  0  0  0  0
  5  6  1  0  0  0  0
  5  4  1  0  0  0  0
  6  1  1  0  0  0  0
  7  8  1  0  0  0  0
  7  6  2  0  0  0  0
  9  7  1  0  0  0  0
 10  9  1  0  0  0  0
 11  9  2  0  0  0  0
 11 12  1  0  0  0  0
 12  5  2  0  0  0  0
 13 16  1  0  0  0  0
 14 13  2  0  0  0  0
 15 21  1  0  0  0  0
 15 20  1  0  0  0  0
 16 15  2  0  0  0  0
 17 16  1  0  0  0  0
 17 18  2  0  0  0  0
 18 19  1  0  0  0  0
 19 20  2  0  0  0  0
 19 23  1  0  0  0  0
 22 17  1  0  0  0  0
M  END
>  <minimizedAffinity>
-4.50437784

$$$$

 OpenBabel03242517363D

 23 24  0  0  0  0  0  0  0  0999 V2000
   36.8260   27.5820   42.8870 C   0  0  0  0  0  0  0  0  0  0  0  0
   37.7260   27.7820   43.5030 H   0  0  0  0  0  0  0  0  0  0  0  0
   35.9620   27.5940   43.5800 H   0  0  0  0  0  0  0  0  0  0  0  0
   38.9160   29.8190   42.9990 Cl  0  0  0  0  0  0  0  0  0  0  0  0
   37.5650   29.7370   41.8650 C   0  0  0  0  0  0  0  0  0  0  0  0
   36.6750   28.6790   41.8990 C   0  0  0  0  0  0  0  0  0  0  0  0
   35.6380   28.6560   41.0000 C   0  0  0  0  0  0  0  0  0  0  0  0
   34.9430   27.8400   41.0190 H   0  0  0  0  0  0  0  0  0  0  0  0
   35.4440   29.6490   40.0570 C   0  0  0  0  0  0  0  0  0  0  0  0
   34.6340   29.6680   39.3280 H   0  0  0  0  0  0  0  0  0  0  0  0
   36.3820   30.6820   40.0850 C   0  0  0  0  0  3  0  0  0  0  0  0
   37.4390   30.7530   40.9650 C   0  0  0  0  0  3  0  0  0  0  0  0
   38.0520   25.9540   41.4980 C   0  0  0  0  0  3  0  0  0  0  0  0
   36.9780   26.2590   42.2120 C   0  0  0  0  0  3  0  0  0  0  0  0
   37.5650   23.5320   41.0940 C   0  0  0  0  0  0  0  0  0  0  0  0
   38.2740   24.6960   40.8120 C   0  0  0  0  0  0  0  0  0  0  0  0
   39.2490   24.6270   39.8090 C   0  0  0  0  0  0  0  0  0  0  0  0
   39.4560   23.4370   39.1630 N   0  0  0  0  0  0  0  0  0  0  0  0
   38.7450   22.3380   39.4700 C   0  0  0  0  0  0  0  0  0  0  0  0
   37.8050   22.3930   40.4330 N   0  0  0  0  0  0  0  0  0  0  0  0
   36.7940   23.5630   41.8770 H   0  0  0  0  0  0  0  0  0  0  0  0
   39.8440   25.5080   39.5360 H   0  0  0  0  0  0  0  0  0  0  0  0
   38.9270   21.4100   38.9480 H   0  0  0  0  0  0  0  0  0  0  0  0
  1  2  1  0  0  0  0
  1  3  1  0  0  0  0
  5  6  1  0  0  0  0
  5  4  1  0  0  0  0
  6  1  1  0  0  0  0
  7  8  1  0  0  0  0
  7  6  2  0  0  0  0
  9 11  2  0  0  0  0
  9  7  1  0  0  0  0
 10  9  1  0  0  0  0
 11 12  1  0  0  0  0
 12  5  2  0  0  0  0
 13 14  2  0  0  0  0
 14  1  1  0  0  0  0
 15 21  1  0  0  0  0
 16 15  1  0  0  0  0
 16 13  1  0  0  0  0
 17 16  2  0  0  0  0
 18 19  2  0  0  0  0
 18 17  1  0  0  0  0
 19 20  1  0  0  0  0
 20 15  2  0  0  0  0
 22 17  1  0  0  0  0
 23 19  1  0  0  0  0
M  END
>  <minimizedAffinity>
-4.45962

$$$$

 OpenBabel03242517363D

 23 24  0  0  0  0  0  0  0  0999 V2000
   36.8250   25.5630   42.5710 C   0  0  0  0  0  0  0  0  0  0  0  0
   35.7270   25.6210   42.7010 H   0  0  0  0  0  0  0  0  0  0  0  0
   37.2390   25.2210   43.5400 H   0  0  0  0  0  0  0  0  0  0  0  0
   39.5600   24.1950   42.7480 Cl  0  0  0  0  0  0  0  0  0  0  0  0
   38.3340   23.8780   41.5170 C   0  0  0  0  0  0  0  0  0  0  0  0
   37.1280   24.5530   41.5280 C   0  0  0  0  0  0  0  0  0  0  0  0
   36.2040   24.2760   40.5510 C   0  0  0  0  0  0  0  0  0  0  0  0
   35.2660   24.7950   40.5510 H   0  0  0  0  0  0  0  0  0  0  0  0
   36.4280   23.3460   39.5510 C   0  0  0  0  0  0  0  0  0  0  0  0
   35.7230   23.0990   38.7580 H   0  0  0  0  0  0  0  0  0  0  0  0
   37.6680   22.7070   39.6060 C   0  0  0  0  0  3  0  0  0  0  0  0
   38.6280   22.9480   40.5640 C   0  0  0  0  0  3  0  0  0  0  0  0
   36.5410   27.8920   41.8080 C   0  0  0  0  0  3  0  0  0  0  0  0
   37.3450   26.9100   42.1910 C   0  0  0  0  0  3  0  0  0  0  0  0
   38.2680   29.6890   41.5790 C   0  0  0  0  0  0  0  0  0  0  0  0
   36.9660   29.2220   41.4220 C   0  0  0  0  0  0  0  0  0  0  0  0
   36.0320   30.1020   40.8590 C   0  0  0  0  0  0  0  0  0  0  0  0
   36.4380   31.3590   40.4950 N   0  0  0  0  0  0  0  0  0  0  0  0
   37.7080   31.7650   40.6670 C   0  0  0  0  0  0  0  0  0  0  0  0
   38.6140   30.9280   41.2070 N   0  0  0  0  0  0  0  0  0  0  0  0
   39.0170   29.0160   42.0180 H   0  0  0  0  0  0  0  0  0  0  0  0
   34.9890   29.7980   40.7060 H   0  0  0  0  0  0  0  0  0  0  0  0
   38.0040   32.7620   40.3730 H   0  0  0  0  0  0  0  0  0  0  0  0
  1  2  1  0  0  0  0
  1  3  1  0  0  0  0
  5  6  1  0  0  0  0
  5  4  1  0  0  0  0
  6  1  1  0  0  0  0
  7  8  1  0  0  0  0
  7  6  2  0  0  0  0
  9 11  2  0  0  0  0
  9  7  1  0  0  0  0
 10  9  1  0  0  0  0
 11 12  1  0  0  0  0
 12  5  2  0  0  0  0
 13 14  2  0  0  0  0
 14  1  1  0  0  0  0
 15 21  1  0  0  0  0
 16 15  1  0  0  0  0
 16 13  1  0  0  0  0
 17 16  2  0  0  0  0
 18 19  2  0  0  0  0
 18 17  1  0  0  0  0
 19 20  1  0  0  0  0
 20 15  2  0  0  0  0
 22 17  1  0  0  0  0
 23 19  1  0  0  0  0
M  END
>  <minimizedAffinity>
-4.43072891

$$$$

 OpenBabel03242517363D

 23 24  0  0  0  0  0  0  0  0999 V2000
   36.1750   28.8980   41.0560 C   0  0  0  0  0  0  0  0  0  0  0  0
   35.5140   29.1380   40.2000 H   0  0  0  0  0  0  0  0  0  0  0  0
   35.5670   29.0350   41.9720 H   0  0  0  0  0  0  0  0  0  0  0  0
   36.9010   27.4940   43.6800 Cl  0  0  0  0  0  0  0  0  0  0  0  0
   36.9350   26.7510   42.0780 C   0  0  0  0  0  0  0  0  0  0  0  0
   36.5860   27.4760   40.9530 C   0  0  0  0  0  0  0  0  0  0  0  0
   36.6280   26.8590   39.7280 C   0  0  0  0  0  0  0  0  0  0  0  0
   36.3590   27.4130   38.8500 H   0  0  0  0  0  0  0  0  0  0  0  0
   37.0040   25.5370   39.5680 C   0  0  0  0  0  0  0  0  0  0  0  0
   37.0500   25.0120   38.6140 H   0  0  0  0  0  0  0  0  0  0  0  0
   37.3410   24.8720   40.7480 C   0  0  0  0  0  3  0  0  0  0  0  0
   37.3170   25.4440   42.0000 C   0  0  0  0  0  3  0  0  0  0  0  0
   37.2720   31.0610   40.6060 C   0  0  0  0  0  3  0  0  0  0  0  0
   37.3570   29.8090   41.0320 C   0  0  0  0  0  3  0  0  0  0  0  0
   39.6480   31.7260   41.0250 C   0  0  0  0  0  0  0  0  0  0  0  0
   38.3700   32.0050   40.5500 C   0  0  0  0  0  0  0  0  0  0  0  0
   38.1540   33.2720   39.9910 C   0  0  0  0  0  0  0  0  0  0  0  0
   39.1950   34.1610   39.9400 N   0  0  0  0  0  0  0  0  0  0  0  0
   40.4130   33.8460   40.4120 C   0  0  0  0  0  0  0  0  0  0  0  0
   40.6310   32.6320   40.9520 N   0  0  0  0  0  0  0  0  0  0  0  0
   39.8400   30.7390   41.4670 H   0  0  0  0  0  0  0  0  0  0  0  0
   37.1710   33.5570   39.5960 H   0  0  0  0  0  0  0  0  0  0  0  0
   41.2180   34.5650   40.3620 H   0  0  0  0  0  0  0  0  0  0  0  0
  1  3  1  0  0  0  0
  2  1  1  0  0  0  0
  5  4  1  0  0  0  0
  6  1  1  0  0  0  0
  6  5  2  0  0  0  0
  7  6  1  0  0  0  0
  8  7  1  0  0  0  0
  9  7  2  0  0  0  0
  9 11  1  0  0  0  0
 10  9  1  0  0  0  0
 11 12  2  0  0  0  0
 12  5  1  0  0  0  0
 13 14  2  0  0  0  0
 14  1  1  0  0  0  0
 15 21  1  0  0  0  0
 16 13  1  0  0  0  0
 16 15  2  0  0  0  0
 17 16  1  0  0  0  0
 18 17  2  0  0  0  0
 18 19  1  0  0  0  0
 19 20  2  0  0  0  0
 20 15  1  0  0  0  0
 22 17  1  0  0  0  0
 23 19  1  0  0  0  0
M  END
>  <minimizedAffinity>
-4.38861847

$$$$
