
 OpenBabel03242523353D

 37 40  0  0  0  0  0  0  0  0999 V2000
   41.5010   32.2330   40.7320 C   0  0  0  0  0  0  0  0  0  0  0  0
   42.1860   33.1210   40.8240 H   0  0  0  0  0  0  0  0  0  0  0  0
   41.8760   31.6410   39.9010 H   0  0  0  0  0  0  0  0  0  0  0  0
   38.6550   34.5790   40.2360 C   0  0  0  0  0  0  0  0  0  0  0  0
   37.6440   33.6840   39.9120 C   0  0  0  0  0  0  0  0  0  0  0  0
   37.9100   32.3170   39.8590 C   0  0  0  0  0  0  0  0  0  0  0  0
   39.1950   31.9150   40.1390 N   0  0  0  0  0  0  0  0  0  0  0  0
   40.1650   32.8080   40.4530 C   0  0  0  0  0  0  0  0  0  0  0  0
   39.8670   34.1060   40.4910 N   0  0  0  0  0  0  0  0  0  0  0  0
   38.3890   35.6230   40.2610 H   0  0  0  0  0  0  0  0  0  0  0  0
   36.6650   34.0330   39.7190 H   0  0  0  0  0  0  0  0  0  0  0  0
   37.5250   31.1870   36.9340 Cl  0  0  0  0  0  0  0  0  0  0  0  0
   36.7020   30.6390   38.3670 C   0  0  0  0  0  0  0  0  0  0  0  0
   36.9920   31.2380   39.5620 C   0  0  0  0  0  0  0  0  0  0  0  0
   36.2880   30.6760   40.6060 C   0  0  0  0  0  0  0  0  0  0  0  0
   36.3780   31.0110   41.6360 H   0  0  0  0  0  0  0  0  0  0  0  0
   35.3990   29.6370   40.4610 C   0  0  0  0  0  0  0  0  0  0  0  0
   34.8630   29.2190   41.3000 H   0  0  0  0  0  0  0  0  0  0  0  0
   35.1550   29.0860   39.2470 C   0  0  0  0  0  3  0  0  0  0  0  0
   35.8250   29.6010   38.1690 C   0  0  0  0  0  3  0  0  0  0  0  0
   41.4210   31.3790   42.3190 S   0  0  0  0  0  0  0  0  0  0  0  0
   40.4170   29.9160   42.2010 C   0  0  0  0  0  0  0  0  0  0  0  0
   40.8640   28.9090   41.3790 C   0  0  0  0  0  0  0  0  0  0  0  0
   40.1000   27.7650   41.2790 C   0  0  0  0  0  0  0  0  0  0  0  0
   38.9150   27.6080   41.9730 C   0  0  0  0  0  0  0  0  0  0  0  0
   38.1880   26.4830   41.8610 N   0  0  0  0  0  0  0  0  0  0  0  0
   37.0360   26.3090   42.5280 C   0  0  0  0  0  0  0  0  0  0  0  0
   36.5870   27.3190   43.3520 C   0  0  0  0  0  0  0  0  0  0  0  0
   37.3220   28.4930   43.4840 C   0  0  0  0  0  0  0  0  0  0  0  0
   38.5310   28.6700   42.7820 C   0  0  0  0  0  0  0  0  0  0  0  0
   39.2470   29.8270   42.9200 C   0  0  0  0  0  0  0  0  0  0  0  0
   41.7550   28.8750   40.7770 H   0  0  0  0  0  0  0  0  0  0  0  0
   40.3790   26.9140   40.6480 H   0  0  0  0  0  0  0  0  0  0  0  0
   36.5750   25.3530   42.3300 H   0  0  0  0  0  0  0  0  0  0  0  0
   35.6620   27.1310   43.8610 H   0  0  0  0  0  0  0  0  0  0  0  0
   36.9400   29.2650   44.1380 H   0  0  0  0  0  0  0  0  0  0  0  0
   38.9160   30.6260   43.5570 H   0  0  0  0  0  0  0  0  0  0  0  0
  1  2  1  0  0  0  0
  1 21  1  0  0  0  0
  3  1  1  0  0  0  0
  4 10  1  0  0  0  0
  4  9  1  0  0  0  0
  5  4  2  0  0  0  0
  6  5  1  0  0  0  0
  6  7  2  0  0  0  0
  7  8  1  0  0  0  0
  8  9  2  0  0  0  0
  8  1  1  0  0  0  0
 11  5  1  0  0  0  0
 12 13  1  0  0  0  0
 13 14  1  0  0  0  0
 14  6  1  0  0  0  0
 14 15  2  0  0  0  0
 15 16  1  0  0  0  0
 17 15  1  0  0  0  0
 17 18  1  0  0  0  0
 19 17  2  0  0  0  0
 20 13  2  0  0  0  0
 20 19  1  0  0  0  0
 22 21  1  0  0  0  0
 22 31  1  0  0  0  0
 23 22  2  0  0  0  0
 24 23  1  0  0  0  0
 24 25  2  0  0  0  0
 25 30  1  0  0  0  0
 26 25  1  0  0  0  0
 26 27  2  0  0  0  0
 27 28  1  0  0  0  0
 28 29  2  0  0  0  0
 28 35  1  0  0  0  0
 29 36  1  0  0  0  0
 30 31  2  0  0  0  0
 30 29  1  0  0  0  0
 31 37  1  0  0  0  0
 32 23  1  0  0  0  0
 33 24  1  0  0  0  0
 34 27  1  0  0  0  0
M  END
>  <minimizedAffinity>
-6.63138103

$$$$

 OpenBabel03242523353D

 37 40  0  0  0  0  0  0  0  0999 V2000
   40.9670   31.0520   40.9810 C   0  0  0  0  0  0  0  0  0  0  0  0
   41.7820   31.8280   41.0150 H   0  0  0  0  0  0  0  0  0  0  0  0
   41.2760   30.3160   40.2420 H   0  0  0  0  0  0  0  0  0  0  0  0
   38.5050   33.7370   40.2210 C   0  0  0  0  0  0  0  0  0  0  0  0
   37.4380   32.9770   39.7570 C   0  0  0  0  0  0  0  0  0  0  0  0
   37.5420   31.5890   39.6990 C   0  0  0  0  0  0  0  0  0  0  0  0
   38.7270   31.0280   40.1150 N   0  0  0  0  0  0  0  0  0  0  0  0
   39.7530   31.7910   40.5640 C   0  0  0  0  0  0  0  0  0  0  0  0
   39.6120   33.1150   40.6020 N   0  0  0  0  0  0  0  0  0  0  0  0
   38.3660   34.8050   40.2430 H   0  0  0  0  0  0  0  0  0  0  0  0
   36.5390   33.4470   39.4610 H   0  0  0  0  0  0  0  0  0  0  0  0
   37.2300   30.7220   36.6760 Cl  0  0  0  0  0  0  0  0  0  0  0  0
   36.2690   30.1580   38.0150 C   0  0  0  0  0  0  0  0  0  0  0  0
   36.5420   30.6350   39.2680 C   0  0  0  0  0  0  0  0  0  0  0  0
   35.7230   30.0730   40.2240 C   0  0  0  0  0  0  0  0  0  0  0  0
   35.7810   30.3210   41.2810 H   0  0  0  0  0  0  0  0  0  0  0  0
   34.7470   29.1460   39.9500 C   0  0  0  0  0  0  0  0  0  0  0  0
   34.1210   28.7250   40.7220 H   0  0  0  0  0  0  0  0  0  0  0  0
   34.5250   28.7130   38.6840 C   0  0  0  0  0  3  0  0  0  0  0  0
   35.3080   29.2340   37.6880 C   0  0  0  0  0  3  0  0  0  0  0  0
   40.6890   30.4120   42.6440 S   0  0  0  0  0  0  0  0  0  0  0  0
   39.6030   29.0040   42.6070 C   0  0  0  0  0  0  0  0  0  0  0  0
   38.3090   29.1940   43.0310 C   0  0  0  0  0  0  0  0  0  0  0  0
   37.4520   28.1140   43.0060 C   0  0  0  0  0  0  0  0  0  0  0  0
   37.8540   26.8650   42.5710 C   0  0  0  0  0  0  0  0  0  0  0  0
   36.9990   25.8270   42.5530 N   0  0  0  0  0  0  0  0  0  0  0  0
   37.3690   24.6070   42.1320 C   0  0  0  0  0  0  0  0  0  0  0  0
   38.6660   24.4150   41.7060 C   0  0  0  0  0  0  0  0  0  0  0  0
   39.5680   25.4750   41.7160 C   0  0  0  0  0  0  0  0  0  0  0  0
   39.1760   26.7530   42.1580 C   0  0  0  0  0  0  0  0  0  0  0  0
   40.0700   27.7880   42.1620 C   0  0  0  0  0  0  0  0  0  0  0  0
   37.8450   30.0920   43.3970 H   0  0  0  0  0  0  0  0  0  0  0  0
   36.4060   28.1740   43.3260 H   0  0  0  0  0  0  0  0  0  0  0  0
   36.5680   23.8850   42.1790 H   0  0  0  0  0  0  0  0  0  0  0  0
   38.9110   23.4240   41.3810 H   0  0  0  0  0  0  0  0  0  0  0  0
   40.5790   25.2890   41.3760 H   0  0  0  0  0  0  0  0  0  0  0  0
   41.0850   27.6610   41.8340 H   0  0  0  0  0  0  0  0  0  0  0  0
  1  2  1  0  0  0  0
  1 21  1  0  0  0  0
  3  1  1  0  0  0  0
  4 10  1  0  0  0  0
  4  9  1  0  0  0  0
  5  4  2  0  0  0  0
  6  5  1  0  0  0  0
  6  7  2  0  0  0  0
  7  8  1  0  0  0  0
  8  9  2  0  0  0  0
  8  1  1  0  0  0  0
 11  5  1  0  0  0  0
 12 13  1  0  0  0  0
 13 14  1  0  0  0  0
 14  6  1  0  0  0  0
 14 15  2  0  0  0  0
 15 16  1  0  0  0  0
 17 15  1  0  0  0  0
 17 18  1  0  0  0  0
 19 17  2  0  0  0  0
 20 13  2  0  0  0  0
 20 19  1  0  0  0  0
 22 21  1  0  0  0  0
 22 23  1  0  0  0  0
 23 32  1  0  0  0  0
 24 23  2  0  0  0  0
 24 33  1  0  0  0  0
 25 24  1  0  0  0  0
 26 25  1  0  0  0  0
 27 34  1  0  0  0  0
 27 26  2  0  0  0  0
 28 29  2  0  0  0  0
 28 27  1  0  0  0  0
 29 30  1  0  0  0  0
 30 31  1  0  0  0  0
 30 25  2  0  0  0  0
 31 22  2  0  0  0  0
 35 28  1  0  0  0  0
 36 29  1  0  0  0  0
 37 31  1  0  0  0  0
M  END
>  <minimizedAffinity>
-6.34887886

$$$$

 OpenBabel03242523353D

 37 40  0  0  0  0  0  0  0  0999 V2000
   35.9950   26.3050   37.3640 C   0  0  0  0  0  0  0  0  0  0  0  0
   35.6050   25.6400   36.5430 H   0  0  0  0  0  0  0  0  0  0  0  0
   36.9450   26.6990   37.0120 H   0  0  0  0  0  0  0  0  0  0  0  0
   35.9860   23.3570   39.6340 C   0  0  0  0  0  0  0  0  0  0  0  0
   36.5260   23.9210   40.7830 C   0  0  0  0  0  0  0  0  0  0  0  0
   36.8880   25.2660   40.7970 C   0  0  0  0  0  0  0  0  0  0  0  0
   36.6870   25.9850   39.6420 N   0  0  0  0  0  0  0  0  0  0  0  0
   36.1580   25.4110   38.5340 C   0  0  0  0  0  0  0  0  0  0  0  0
   35.8260   24.1200   38.5640 N   0  0  0  0  0  0  0  0  0  0  0  0
   35.7260   22.3120   39.6840 H   0  0  0  0  0  0  0  0  0  0  0  0
   36.6510   23.3380   41.6550 H   0  0  0  0  0  0  0  0  0  0  0  0
   39.9120   25.0070   41.6760 Cl  0  0  0  0  0  0  0  0  0  0  0  0
   38.7130   26.0390   42.4030 C   0  0  0  0  0  0  0  0  0  0  0  0
   37.4430   26.0320   41.8930 C   0  0  0  0  0  0  0  0  0  0  0  0
   36.6180   26.9210   42.5500 C   0  0  0  0  0  0  0  0  0  0  0  0
   35.5710   27.0640   42.2950 H   0  0  0  0  0  0  0  0  0  0  0  0
   37.0240   27.7170   43.5940 C   0  0  0  0  0  0  0  0  0  0  0  0
   36.3520   28.4030   44.0880 H   0  0  0  0  0  0  0  0  0  0  0  0
   38.2980   27.6760   44.0540 C   0  0  0  0  0  3  0  0  0  0  0  0
   39.1680   26.8130   43.4420 C   0  0  0  0  0  3  0  0  0  0  0  0
   34.7450   27.5380   37.7720 S   0  0  0  0  0  0  0  0  0  0  0  0
   35.4710   28.9150   38.6320 C   0  0  0  0  0  0  0  0  0  0  0  0
   35.1100   29.0980   39.9460 C   0  0  0  0  0  0  0  0  0  0  0  0
   35.6660   30.1580   40.6310 C   0  0  0  0  0  0  0  0  0  0  0  0
   36.5630   31.0280   40.0390 C   0  0  0  0  0  0  0  0  0  0  0  0
   37.0940   32.0530   40.7280 N   0  0  0  0  0  0  0  0  0  0  0  0
   37.9690   32.9070   40.1720 C   0  0  0  0  0  0  0  0  0  0  0  0
   38.3310   32.7240   38.8550 C   0  0  0  0  0  0  0  0  0  0  0  0
   37.7950   31.6700   38.1220 C   0  0  0  0  0  0  0  0  0  0  0  0
   36.8770   30.7760   38.7090 C   0  0  0  0  0  0  0  0  0  0  0  0
   36.3570   29.7410   37.9820 C   0  0  0  0  0  0  0  0  0  0  0  0
   34.4310   28.5180   40.5460 H   0  0  0  0  0  0  0  0  0  0  0  0
   35.4350   30.3800   41.6780 H   0  0  0  0  0  0  0  0  0  0  0  0
   38.3000   33.6730   40.8570 H   0  0  0  0  0  0  0  0  0  0  0  0
   39.0320   33.4320   38.4590 H   0  0  0  0  0  0  0  0  0  0  0  0
   38.1010   31.5560   37.0910 H   0  0  0  0  0  0  0  0  0  0  0  0
   36.6270   29.5800   36.9540 H   0  0  0  0  0  0  0  0  0  0  0  0
  1 21  1  0  0  0  0
  1  8  1  0  0  0  0
  2  1  1  0  0  0  0
  3  1  1  0  0  0  0
  4 10  1  0  0  0  0
  4  5  1  0  0  0  0
  5  6  2  0  0  0  0
  5 11  1  0  0  0  0
  6 14  1  0  0  0  0
  7  6  1  0  0  0  0
  8  9  1  0  0  0  0
  8  7  2  0  0  0  0
  9  4  2  0  0  0  0
 12 13  1  0  0  0  0
 13 20  1  0  0  0  0
 14 13  2  0  0  0  0
 14 15  1  0  0  0  0
 15 17  2  0  0  0  0
 16 15  1  0  0  0  0
 17 19  1  0  0  0  0
 17 18  1  0  0  0  0
 20 19  2  0  0  0  0
 21 22  1  0  0  0  0
 22 23  1  0  0  0  0
 23 32  1  0  0  0  0
 23 24  2  0  0  0  0
 24 33  1  0  0  0  0
 25 24  1  0  0  0  0
 25 26  1  0  0  0  0
 27 26  2  0  0  0  0
 27 34  1  0  0  0  0
 28 27  1  0  0  0  0
 29 30  1  0  0  0  0
 29 28  2  0  0  0  0
 30 25  2  0  0  0  0
 31 22  2  0  0  0  0
 31 30  1  0  0  0  0
 35 28  1  0  0  0  0
 36 29  1  0  0  0  0
 37 31  1  0  0  0  0
M  END
>  <minimizedAffinity>
-6.16253424

$$$$

 OpenBabel03242523353D

 37 40  0  0  0  0  0  0  0  0999 V2000
   35.7480   26.0820   37.4430 C   0  0  0  0  0  0  0  0  0  0  0  0
   35.1970   25.1970   37.0180 H   0  0  0  0  0  0  0  0  0  0  0  0
   36.5890   26.2660   36.7790 H   0  0  0  0  0  0  0  0  0  0  0  0
   36.4210   24.0820   40.5080 C   0  0  0  0  0  0  0  0  0  0  0  0
   37.0420   25.0380   41.3020 C   0  0  0  0  0  0  0  0  0  0  0  0
   37.2330   26.3300   40.8180 C   0  0  0  0  0  0  0  0  0  0  0  0
   36.7850   26.6000   39.5460 N   0  0  0  0  0  0  0  0  0  0  0  0
   36.1820   25.6500   38.7910 C   0  0  0  0  0  0  0  0  0  0  0  0
   36.0200   24.4260   39.2920 N   0  0  0  0  0  0  0  0  0  0  0  0
   36.3020   23.1000   40.9350 H   0  0  0  0  0  0  0  0  0  0  0  0
   37.3590   24.7940   42.2800 H   0  0  0  0  0  0  0  0  0  0  0  0
   36.2580   27.3060   43.6610 Cl  0  0  0  0  0  0  0  0  0  0  0  0
   37.5380   28.0110   42.7130 C   0  0  0  0  0  0  0  0  0  0  0  0
   37.8360   27.4580   41.4970 C   0  0  0  0  0  0  0  0  0  0  0  0
   38.8890   28.1020   40.8810 C   0  0  0  0  0  0  0  0  0  0  0  0
   39.2780   27.8140   39.9080 H   0  0  0  0  0  0  0  0  0  0  0  0
   39.5570   29.1730   41.4250 C   0  0  0  0  0  0  0  0  0  0  0  0
   40.3780   29.6560   40.9160 H   0  0  0  0  0  0  0  0  0  0  0  0
   39.2120   29.6760   42.6360 C   0  0  0  0  0  3  0  0  0  0  0  0
   38.1730   29.0780   43.2990 C   0  0  0  0  0  3  0  0  0  0  0  0
   34.5990   27.4570   37.6380 S   0  0  0  0  0  0  0  0  0  0  0  0
   35.3600   28.7970   38.5270 C   0  0  0  0  0  0  0  0  0  0  0  0
   34.8800   29.0710   39.7860 C   0  0  0  0  0  0  0  0  0  0  0  0
   35.4610   30.1040   40.4920 C   0  0  0  0  0  0  0  0  0  0  0  0
   36.4970   30.8590   39.9730 C   0  0  0  0  0  0  0  0  0  0  0  0
   37.0490   31.8590   40.6810 N   0  0  0  0  0  0  0  0  0  0  0  0
   38.0570   32.6020   40.1970 C   0  0  0  0  0  0  0  0  0  0  0  0
   38.5390   32.3280   38.9350 C   0  0  0  0  0  0  0  0  0  0  0  0
   37.9830   31.2970   38.1840 C   0  0  0  0  0  0  0  0  0  0  0  0
   36.9250   30.5200   38.6960 C   0  0  0  0  0  0  0  0  0  0  0  0
   36.3870   29.5080   37.9510 C   0  0  0  0  0  0  0  0  0  0  0  0
   34.0880   28.5840   40.3260 H   0  0  0  0  0  0  0  0  0  0  0  0
   35.1420   30.3920   41.4990 H   0  0  0  0  0  0  0  0  0  0  0  0
   38.3870   33.3640   40.8880 H   0  0  0  0  0  0  0  0  0  0  0  0
   39.3430   32.9500   38.5950 H   0  0  0  0  0  0  0  0  0  0  0  0
   38.3840   31.1100   37.1970 H   0  0  0  0  0  0  0  0  0  0  0  0
   36.7480   29.2760   36.9650 H   0  0  0  0  0  0  0  0  0  0  0  0
  1 21  1  0  0  0  0
  1  8  1  0  0  0  0
  2  1  1  0  0  0  0
  3  1  1  0  0  0  0
  4 10  1  0  0  0  0
  4  5  1  0  0  0  0
  5 11  1  0  0  0  0
  6  5  2  0  0  0  0
  6 14  1  0  0  0  0
  7  6  1  0  0  0  0
  8  9  1  0  0  0  0
  8  7  2  0  0  0  0
  9  4  2  0  0  0  0
 13 20  1  0  0  0  0
 13 12  1  0  0  0  0
 14 13  2  0  0  0  0
 15 17  2  0  0  0  0
 15 14  1  0  0  0  0
 16 15  1  0  0  0  0
 17 19  1  0  0  0  0
 18 17  1  0  0  0  0
 19 20  2  0  0  0  0
 21 22  1  0  0  0  0
 22 23  1  0  0  0  0
 23 32  1  0  0  0  0
 23 24  2  0  0  0  0
 24 33  1  0  0  0  0
 25 24  1  0  0  0  0
 25 26  1  0  0  0  0
 27 26  2  0  0  0  0
 27 34  1  0  0  0  0
 28 27  1  0  0  0  0
 29 30  1  0  0  0  0
 29 28  2  0  0  0  0
 30 25  2  0  0  0  0
 31 22  2  0  0  0  0
 31 30  1  0  0  0  0
 35 28  1  0  0  0  0
 36 29  1  0  0  0  0
 37 31  1  0  0  0  0
M  END
>  <minimizedAffinity>
-6.07185936

$$$$

 OpenBabel03242523353D

 37 40  0  0  0  0  0  0  0  0999 V2000
   36.5690   26.7500   37.4900 C   0  0  0  0  0  0  0  0  0  0  0  0
   35.9740   26.2830   36.6560 H   0  0  0  0  0  0  0  0  0  0  0  0
   37.5850   26.8580   37.1180 H   0  0  0  0  0  0  0  0  0  0  0  0
   35.7010   23.8300   39.6270 C   0  0  0  0  0  0  0  0  0  0  0  0
   36.4400   24.1220   40.7670 C   0  0  0  0  0  0  0  0  0  0  0  0
   37.2170   25.2770   40.8180 C   0  0  0  0  0  0  0  0  0  0  0  0
   37.2120   26.0900   39.7090 N   0  0  0  0  0  0  0  0  0  0  0  0
   36.4820   25.7830   38.6090 C   0  0  0  0  0  0  0  0  0  0  0  0
   35.7530   24.6670   38.6020 N   0  0  0  0  0  0  0  0  0  0  0  0
   35.1200   22.9220   39.6460 H   0  0  0  0  0  0  0  0  0  0  0  0
   36.4050   23.4780   41.6040 H   0  0  0  0  0  0  0  0  0  0  0  0
   36.5260   27.9240   42.4000 Cl  0  0  0  0  0  0  0  0  0  0  0  0
   37.8830   26.8730   42.6930 C   0  0  0  0  0  0  0  0  0  0  0  0
   38.0330   25.7580   41.9140 C   0  0  0  0  0  0  0  0  0  0  0  0
   39.1300   25.0110   42.2860 C   0  0  0  0  0  0  0  0  0  0  0  0
   39.4200   24.0880   41.7900 H   0  0  0  0  0  0  0  0  0  0  0  0
   39.9730   25.3480   43.3170 C   0  0  0  0  0  0  0  0  0  0  0  0
   40.8260   24.7400   43.5840 H   0  0  0  0  0  0  0  0  0  0  0  0
   39.7710   26.4680   44.0530 C   0  0  0  0  0  3  0  0  0  0  0  0
   38.6960   27.2530   43.7330 C   0  0  0  0  0  3  0  0  0  0  0  0
   35.7660   28.2790   38.0080 S   0  0  0  0  0  0  0  0  0  0  0  0
   36.9710   29.5270   38.3970 C   0  0  0  0  0  0  0  0  0  0  0  0
   38.2890   29.2340   38.1380 C   0  0  0  0  0  0  0  0  0  0  0  0
   39.2370   30.1920   38.4300 C   0  0  0  0  0  0  0  0  0  0  0  0
   38.9010   31.4210   38.9670 C   0  0  0  0  0  0  0  0  0  0  0  0
   39.8430   32.3400   39.2400 N   0  0  0  0  0  0  0  0  0  0  0  0
   39.5370   33.5410   39.7590 C   0  0  0  0  0  0  0  0  0  0  0  0
   38.2160   33.8360   40.0190 C   0  0  0  0  0  0  0  0  0  0  0  0
   37.2240   32.8990   39.7450 C   0  0  0  0  0  0  0  0  0  0  0  0
   37.5490   31.6420   39.2000 C   0  0  0  0  0  0  0  0  0  0  0  0
   36.5670   30.7290   38.9310 C   0  0  0  0  0  0  0  0  0  0  0  0
   38.7110   28.3340   37.7280 H   0  0  0  0  0  0  0  0  0  0  0  0
   40.3080   30.0440   38.2570 H   0  0  0  0  0  0  0  0  0  0  0  0
   40.4050   34.1620   39.9200 H   0  0  0  0  0  0  0  0  0  0  0  0
   38.0250   34.8060   40.4340 H   0  0  0  0  0  0  0  0  0  0  0  0
   36.1980   33.1640   39.9620 H   0  0  0  0  0  0  0  0  0  0  0  0
   35.5300   30.9390   39.1250 H   0  0  0  0  0  0  0  0  0  0  0  0
  1 21  1  0  0  0  0
  1  8  1  0  0  0  0
  2  1  1  0  0  0  0
  3  1  1  0  0  0  0
  4 10  1  0  0  0  0
  4  5  1  0  0  0  0
  5  6  2  0  0  0  0
  5 11  1  0  0  0  0
  6 14  1  0  0  0  0
  7  6  1  0  0  0  0
  8  7  2  0  0  0  0
  9  8  1  0  0  0  0
  9  4  2  0  0  0  0
 12 13  1  0  0  0  0
 13 20  1  0  0  0  0
 14 15  1  0  0  0  0
 14 13  2  0  0  0  0
 15 17  2  0  0  0  0
 16 15  1  0  0  0  0
 17 18  1  0  0  0  0
 17 19  1  0  0  0  0
 20 19  2  0  0  0  0
 21 22  1  0  0  0  0
 22 31  1  0  0  0  0
 23 22  2  0  0  0  0
 23 24  1  0  0  0  0
 24 25  2  0  0  0  0
 25 30  1  0  0  0  0
 25 26  1  0  0  0  0
 26 27  2  0  0  0  0
 27 34  1  0  0  0  0
 27 28  1  0  0  0  0
 28 35  1  0  0  0  0
 29 36  1  0  0  0  0
 29 28  2  0  0  0  0
 30 29  1  0  0  0  0
 31 37  1  0  0  0  0
 31 30  2  0  0  0  0
 32 23  1  0  0  0  0
 33 24  1  0  0  0  0
M  END
>  <minimizedAffinity>
-6.05606461

$$$$

 OpenBabel03242523353D

 37 40  0  0  0  0  0  0  0  0999 V2000
   39.7860   33.1620   40.1730 C   0  0  0  0  0  0  0  0  0  0  0  0
   40.1580   32.8920   39.1450 H   0  0  0  0  0  0  0  0  0  0  0  0
   40.2230   34.1280   40.4120 H   0  0  0  0  0  0  0  0  0  0  0  0
   41.9180   31.0550   42.3770 C   0  0  0  0  0  0  0  0  0  0  0  0
   41.0410   30.0150   42.6580 C   0  0  0  0  0  0  0  0  0  0  0  0
   39.7560   30.0200   42.1190 C   0  0  0  0  0  0  0  0  0  0  0  0
   39.4140   31.0830   41.3160 N   0  0  0  0  0  0  0  0  0  0  0  0
   40.2880   32.0850   41.0560 C   0  0  0  0  0  0  0  0  0  0  0  0
   41.5080   32.0410   41.5920 N   0  0  0  0  0  0  0  0  0  0  0  0
   42.8980   30.9960   42.8220 H   0  0  0  0  0  0  0  0  0  0  0  0
   41.3480   29.2090   43.2690 H   0  0  0  0  0  0  0  0  0  0  0  0
   38.9210   28.0610   39.7850 Cl  0  0  0  0  0  0  0  0  0  0  0  0
   38.2310   28.1130   41.3830 C   0  0  0  0  0  0  0  0  0  0  0  0
   38.7160   29.0270   42.2800 C   0  0  0  0  0  0  0  0  0  0  0  0
   38.0960   28.9250   43.5070 C   0  0  0  0  0  0  0  0  0  0  0  0
   38.3390   29.5620   44.3540 H   0  0  0  0  0  0  0  0  0  0  0  0
   37.1060   28.0150   43.7940 C   0  0  0  0  0  0  0  0  0  0  0  0
   36.6400   27.9610   44.7660 H   0  0  0  0  0  0  0  0  0  0  0  0
   36.6680   27.1350   42.8600 C   0  0  0  0  0  3  0  0  0  0  0  0
   37.2470   27.1850   41.6200 C   0  0  0  0  0  3  0  0  0  0  0  0
   37.9840   33.1010   40.1860 S   0  0  0  0  0  0  0  0  0  0  0  0
   37.3850   31.8210   39.1070 C   0  0  0  0  0  0  0  0  0  0  0  0
   37.8770   31.7970   37.8230 C   0  0  0  0  0  0  0  0  0  0  0  0
   37.4270   30.8080   36.9740 C   0  0  0  0  0  0  0  0  0  0  0  0
   36.5090   29.8550   37.3740 C   0  0  0  0  0  0  0  0  0  0  0  0
   36.0870   28.8990   36.5280 N   0  0  0  0  0  0  0  0  0  0  0  0
   35.1980   27.9630   36.8980 C   0  0  0  0  0  0  0  0  0  0  0  0
   34.7050   27.9860   38.1850 C   0  0  0  0  0  0  0  0  0  0  0  0
   35.1270   28.9660   39.0780 C   0  0  0  0  0  0  0  0  0  0  0  0
   36.0600   29.9460   38.6860 C   0  0  0  0  0  0  0  0  0  0  0  0
   36.4710   30.9040   39.5710 C   0  0  0  0  0  0  0  0  0  0  0  0
   38.5860   32.4590   37.3610 H   0  0  0  0  0  0  0  0  0  0  0  0
   37.7640   30.7140   35.9360 H   0  0  0  0  0  0  0  0  0  0  0  0
   34.9640   27.2690   36.1040 H   0  0  0  0  0  0  0  0  0  0  0  0
   33.9980   27.2180   38.4290 H   0  0  0  0  0  0  0  0  0  0  0  0
   34.7190   28.9540   40.0790 H   0  0  0  0  0  0  0  0  0  0  0  0
   36.0990   30.9390   40.5790 H   0  0  0  0  0  0  0  0  0  0  0  0
  1 21  1  0  0  0  0
  1  3  1  0  0  0  0
  1  8  1  0  0  0  0
  2  1  1  0  0  0  0
  4  5  1  0  0  0  0
  4 10  1  0  0  0  0
  5 11  1  0  0  0  0
  6 14  1  0  0  0  0
  6  5  2  0  0  0  0
  7  6  1  0  0  0  0
  8  7  2  0  0  0  0
  8  9  1  0  0  0  0
  9  4  2  0  0  0  0
 12 13  1  0  0  0  0
 13 20  2  0  0  0  0
 13 14  1  0  0  0  0
 14 15  2  0  0  0  0
 15 17  1  0  0  0  0
 15 16  1  0  0  0  0
 17 18  1  0  0  0  0
 19 17  2  0  0  0  0
 20 19  1  0  0  0  0
 22 31  1  0  0  0  0
 22 21  1  0  0  0  0
 23 22  2  0  0  0  0
 24 25  2  0  0  0  0
 24 23  1  0  0  0  0
 25 30  1  0  0  0  0
 26 27  2  0  0  0  0
 26 25  1  0  0  0  0
 27 28  1  0  0  0  0
 28 35  1  0  0  0  0
 28 29  2  0  0  0  0
 29 36  1  0  0  0  0
 30 29  1  0  0  0  0
 30 31  2  0  0  0  0
 31 37  1  0  0  0  0
 32 23  1  0  0  0  0
 33 24  1  0  0  0  0
 34 27  1  0  0  0  0
M  END
>  <minimizedAffinity>
-6.04421377

$$$$

 OpenBabel03242523353D

 37 40  0  0  0  0  0  0  0  0999 V2000
   36.9630   30.1780   39.8190 C   0  0  0  0  0  0  0  0  0  0  0  0
   35.9150   29.8460   39.5760 H   0  0  0  0  0  0  0  0  0  0  0  0
   37.5660   29.9550   38.9430 H   0  0  0  0  0  0  0  0  0  0  0  0
   37.9890   29.0890   43.2260 C   0  0  0  0  0  0  0  0  0  0  0  0
   38.0730   27.7150   43.0380 C   0  0  0  0  0  0  0  0  0  0  0  0
   37.7900   27.1630   41.7900 C   0  0  0  0  0  0  0  0  0  0  0  0
   37.4320   28.0290   40.7840 N   0  0  0  0  0  0  0  0  0  0  0  0
   37.3580   29.3660   40.9930 C   0  0  0  0  0  0  0  0  0  0  0  0
   37.6370   29.8520   42.2030 N   0  0  0  0  0  0  0  0  0  0  0  0
   38.2200   29.4570   44.2120 H   0  0  0  0  0  0  0  0  0  0  0  0
   38.3660   27.0850   43.8340 H   0  0  0  0  0  0  0  0  0  0  0  0
   40.4960   25.5340   41.7000 Cl  0  0  0  0  0  0  0  0  0  0  0  0
   38.9140   24.9260   41.2990 C   0  0  0  0  0  0  0  0  0  0  0  0
   37.8410   25.7700   41.3970 C   0  0  0  0  0  0  0  0  0  0  0  0
   36.6570   25.1390   41.0800 C   0  0  0  0  0  0  0  0  0  0  0  0
   35.6910   25.6380   41.0970 H   0  0  0  0  0  0  0  0  0  0  0  0
   36.5660   23.8190   40.7080 C   0  0  0  0  0  0  0  0  0  0  0  0
   35.6230   23.3540   40.4650 H   0  0  0  0  0  0  0  0  0  0  0  0
   37.6690   23.0340   40.6280 C   0  0  0  0  0  3  0  0  0  0  0  0
   38.8770   23.6040   40.9320 C   0  0  0  0  0  3  0  0  0  0  0  0
   36.9350   31.9100   40.3210 S   0  0  0  0  0  0  0  0  0  0  0  0
   38.4330   32.7350   39.8340 C   0  0  0  0  0  0  0  0  0  0  0  0
   38.7350   33.9180   40.4650 C   0  0  0  0  0  0  0  0  0  0  0  0
   39.8960   34.5700   40.1030 C   0  0  0  0  0  0  0  0  0  0  0  0
   40.7500   34.0710   39.1370 C   0  0  0  0  0  0  0  0  0  0  0  0
   41.8770   34.7230   38.8030 N   0  0  0  0  0  0  0  0  0  0  0  0
   42.7210   34.2540   37.8700 C   0  0  0  0  0  0  0  0  0  0  0  0
   42.4190   33.0680   37.2360 C   0  0  0  0  0  0  0  0  0  0  0  0
   41.2580   32.3750   37.5660 C   0  0  0  0  0  0  0  0  0  0  0  0
   40.3750   32.8710   38.5460 C   0  0  0  0  0  0  0  0  0  0  0  0
   39.2380   32.1820   38.8650 C   0  0  0  0  0  0  0  0  0  0  0  0
   38.1820   34.4360   41.2280 H   0  0  0  0  0  0  0  0  0  0  0  0
   40.2140   35.5170   40.5520 H   0  0  0  0  0  0  0  0  0  0  0  0
   43.5770   34.8940   37.7180 H   0  0  0  0  0  0  0  0  0  0  0  0
   43.1240   32.7370   36.4990 H   0  0  0  0  0  0  0  0  0  0  0  0
   41.0520   31.4480   37.0490 H   0  0  0  0  0  0  0  0  0  0  0  0
   38.9840   31.2540   38.3840 H   0  0  0  0  0  0  0  0  0  0  0  0
  1 21  1  0  0  0  0
  1  8  1  0  0  0  0
  2  1  1  0  0  0  0
  3  1  1  0  0  0  0
  4 10  1  0  0  0  0
  5  4  1  0  0  0  0
  5 11  1  0  0  0  0
  6  5  2  0  0  0  0
  7  8  2  0  0  0  0
  7  6  1  0  0  0  0
  8  9  1  0  0  0  0
  9  4  2  0  0  0  0
 13 14  1  0  0  0  0
 13 12  1  0  0  0  0
 14  6  1  0  0  0  0
 15 16  1  0  0  0  0
 15 14  2  0  0  0  0
 17 15  1  0  0  0  0
 18 17  1  0  0  0  0
 19 17  2  0  0  0  0
 19 20  1  0  0  0  0
 20 13  2  0  0  0  0
 22 21  1  0  0  0  0
 22 23  1  0  0  0  0
 23 32  1  0  0  0  0
 24 23  2  0  0  0  0
 24 33  1  0  0  0  0
 25 24  1  0  0  0  0
 26 25  1  0  0  0  0
 27 26  2  0  0  0  0
 28 29  2  0  0  0  0
 28 27  1  0  0  0  0
 29 30  1  0  0  0  0
 30 31  1  0  0  0  0
 30 25  2  0  0  0  0
 31 22  2  0  0  0  0
 34 27  1  0  0  0  0
 35 28  1  0  0  0  0
 36 29  1  0  0  0  0
 37 31  1  0  0  0  0
M  END
>  <minimizedAffinity>
-5.9791503

$$$$

 OpenBabel03242523353D

 37 40  0  0  0  0  0  0  0  0999 V2000
   35.3770   27.7680   37.0060 C   0  0  0  0  0  0  0  0  0  0  0  0
   35.9830   27.6480   36.0650 H   0  0  0  0  0  0  0  0  0  0  0  0
   35.6910   26.9710   37.6750 H   0  0  0  0  0  0  0  0  0  0  0  0
   32.1240   26.3700   35.8610 C   0  0  0  0  0  0  0  0  0  0  0  0
   31.3590   27.5280   35.7970 C   0  0  0  0  0  0  0  0  0  0  0  0
   31.9230   28.7560   36.1340 C   0  0  0  0  0  0  0  0  0  0  0  0
   33.2430   28.7590   36.5210 N   0  0  0  0  0  0  0  0  0  0  0  0
   33.9680   27.6150   36.5740 C   0  0  0  0  0  0  0  0  0  0  0  0
   33.3890   26.4610   36.2450 N   0  0  0  0  0  0  0  0  0  0  0  0
   31.6330   25.4500   35.5890 H   0  0  0  0  0  0  0  0  0  0  0  0
   30.3520   27.4850   35.4800 H   0  0  0  0  0  0  0  0  0  0  0  0
   30.5340   30.0050   38.6820 Cl  0  0  0  0  0  0  0  0  0  0  0  0
   30.6570   30.7440   37.1090 C   0  0  0  0  0  0  0  0  0  0  0  0
   31.2990   30.0630   36.1110 C   0  0  0  0  0  0  0  0  0  0  0  0
   31.3450   30.7860   34.9390 C   0  0  0  0  0  0  0  0  0  0  0  0
   31.8120   30.4200   34.0280 H   0  0  0  0  0  0  0  0  0  0  0  0
   30.8060   32.0420   34.7900 C   0  0  0  0  0  0  0  0  0  0  0  0
   30.8580   32.5830   33.8570 H   0  0  0  0  0  0  0  0  0  0  0  0
   30.1800   32.6640   35.8190 C   0  0  0  0  0  3  0  0  0  0  0  0
   30.1030   31.9960   37.0130 C   0  0  0  0  0  3  0  0  0  0  0  0
   35.5890   29.4420   37.6400 S   0  0  0  0  0  0  0  0  0  0  0  0
   36.3160   29.4180   39.2630 C   0  0  0  0  0  0  0  0  0  0  0  0
   37.2090   30.4170   39.5690 C   0  0  0  0  0  0  0  0  0  0  0  0
   37.7790   30.4160   40.8250 C   0  0  0  0  0  0  0  0  0  0  0  0
   37.4800   29.4510   41.7680 C   0  0  0  0  0  0  0  0  0  0  0  0
   38.0480   29.4730   42.9870 N   0  0  0  0  0  0  0  0  0  0  0  0
   37.7690   28.5460   43.9180 C   0  0  0  0  0  0  0  0  0  0  0  0
   36.8740   27.5440   43.6130 C   0  0  0  0  0  0  0  0  0  0  0  0
   36.2750   27.5020   42.3570 C   0  0  0  0  0  0  0  0  0  0  0  0
   36.5700   28.4750   41.3830 C   0  0  0  0  0  0  0  0  0  0  0  0
   35.9740   28.4260   40.1530 C   0  0  0  0  0  0  0  0  0  0  0  0
   37.5460   31.2320   38.9530 H   0  0  0  0  0  0  0  0  0  0  0  0
   38.5000   31.1720   41.1530 H   0  0  0  0  0  0  0  0  0  0  0  0
   38.3060   28.7050   44.8420 H   0  0  0  0  0  0  0  0  0  0  0  0
   36.6860   26.8300   44.3900 H   0  0  0  0  0  0  0  0  0  0  0  0
   35.5770   26.7000   42.1510 H   0  0  0  0  0  0  0  0  0  0  0  0
   35.2720   27.6540   39.8940 H   0  0  0  0  0  0  0  0  0  0  0  0
  1 21  1  0  0  0  0
  1  3  1  0  0  0  0
  2  1  1  0  0  0  0
  4  9  1  0  0  0  0
  5  4  2  0  0  0  0
  5  6  1  0  0  0  0
  6  7  2  0  0  0  0
  7  8  1  0  0  0  0
  8  1  1  0  0  0  0
  9  8  2  0  0  0  0
 10  4  1  0  0  0  0
 11  5  1  0  0  0  0
 13 12  1  0  0  0  0
 14  6  1  0  0  0  0
 14 13  2  0  0  0  0
 15 14  1  0  0  0  0
 16 15  1  0  0  0  0
 17 15  2  0  0  0  0
 17 19  1  0  0  0  0
 18 17  1  0  0  0  0
 19 20  2  0  0  0  0
 20 13  1  0  0  0  0
 21 22  1  0  0  0  0
 22 23  2  0  0  0  0
 22 31  1  0  0  0  0
 23 24  1  0  0  0  0
 24 33  1  0  0  0  0
 24 25  2  0  0  0  0
 25 26  1  0  0  0  0
 26 27  2  0  0  0  0
 27 34  1  0  0  0  0
 28 27  1  0  0  0  0
 28 35  1  0  0  0  0
 29 28  2  0  0  0  0
 30 25  1  0  0  0  0
 30 29  1  0  0  0  0
 31 30  2  0  0  0  0
 32 23  1  0  0  0  0
 36 29  1  0  0  0  0
 37 31  1  0  0  0  0
M  END
>  <minimizedAffinity>
-5.96143961

$$$$

 OpenBabel03242523353D

 37 40  0  0  0  0  0  0  0  0999 V2000
   37.7210   28.8320   43.1880 C   0  0  0  0  0  0  0  0  0  0  0  0
   36.8520   28.1710   43.4660 H   0  0  0  0  0  0  0  0  0  0  0  0
   37.8840   29.4950   44.0340 H   0  0  0  0  0  0  0  0  0  0  0  0
   35.7970   29.9790   40.2160 C   0  0  0  0  0  0  0  0  0  0  0  0
   36.6100   31.0150   39.7740 C   0  0  0  0  0  0  0  0  0  0  0  0
   37.7820   31.3250   40.4600 C   0  0  0  0  0  0  0  0  0  0  0  0
   38.0820   30.5690   41.5690 N   0  0  0  0  0  0  0  0  0  0  0  0
   37.2730   29.5630   41.9800 C   0  0  0  0  0  0  0  0  0  0  0  0
   36.1600   29.3000   41.2950 N   0  0  0  0  0  0  0  0  0  0  0  0
   34.9040   29.7870   39.6450 H   0  0  0  0  0  0  0  0  0  0  0  0
   36.3510   31.5630   38.9080 H   0  0  0  0  0  0  0  0  0  0  0  0
   40.4130   30.6960   38.8270 Cl  0  0  0  0  0  0  0  0  0  0  0  0
   39.9400   32.2480   39.4610 C   0  0  0  0  0  0  0  0  0  0  0  0
   38.7590   32.3460   40.1450 C   0  0  0  0  0  0  0  0  0  0  0  0
   38.5060   33.6390   40.5550 C   0  0  0  0  0  0  0  0  0  0  0  0
   37.6190   33.9250   41.1130 H   0  0  0  0  0  0  0  0  0  0  0  0
   39.3430   34.7000   40.3060 C   0  0  0  0  0  0  0  0  0  0  0  0
   39.1160   35.7010   40.6420 H   0  0  0  0  0  0  0  0  0  0  0  0
   40.5010   34.5370   39.6210 C   0  0  0  0  0  3  0  0  0  0  0  0
   40.8090   33.2750   39.1860 C   0  0  0  0  0  3  0  0  0  0  0  0
   39.1260   27.8000   42.7280 S   0  0  0  0  0  0  0  0  0  0  0  0
   38.5810   26.2900   41.9630 C   0  0  0  0  0  0  0  0  0  0  0  0
   37.3810   25.7680   42.3840 C   0  0  0  0  0  0  0  0  0  0  0  0
   36.9400   24.5990   41.8000 C   0  0  0  0  0  0  0  0  0  0  0  0
   37.6620   23.9500   40.8170 C   0  0  0  0  0  0  0  0  0  0  0  0
   37.2100   22.8130   40.2600 N   0  0  0  0  0  0  0  0  0  0  0  0
   37.8960   22.1680   39.3020 C   0  0  0  0  0  0  0  0  0  0  0  0
   39.0990   22.6900   38.8790 C   0  0  0  0  0  0  0  0  0  0  0  0
   39.5860   23.8660   39.4410 C   0  0  0  0  0  0  0  0  0  0  0  0
   38.8640   24.5400   40.4460 C   0  0  0  0  0  0  0  0  0  0  0  0
   39.3500   25.6960   40.9900 C   0  0  0  0  0  0  0  0  0  0  0  0
   36.7060   26.1460   43.1320 H   0  0  0  0  0  0  0  0  0  0  0  0
   35.9970   24.1130   42.0740 H   0  0  0  0  0  0  0  0  0  0  0  0
   37.3980   21.2720   38.9600 H   0  0  0  0  0  0  0  0  0  0  0  0
   39.6060   22.1380   38.1130 H   0  0  0  0  0  0  0  0  0  0  0  0
   40.5340   24.2480   39.0850 H   0  0  0  0  0  0  0  0  0  0  0  0
   40.2860   26.1210   40.6740 H   0  0  0  0  0  0  0  0  0  0  0  0
  1  2  1  0  0  0  0
  1  3  1  0  0  0  0
  4  9  1  0  0  0  0
  5  4  2  0  0  0  0
  5  6  1  0  0  0  0
  6  7  2  0  0  0  0
  7  8  1  0  0  0  0
  8  1  1  0  0  0  0
  9  8  2  0  0  0  0
 10  4  1  0  0  0  0
 11  5  1  0  0  0  0
 12 13  1  0  0  0  0
 13 14  1  0  0  0  0
 14  6  1  0  0  0  0
 14 15  2  0  0  0  0
 15 16  1  0  0  0  0
 17 15  1  0  0  0  0
 17 18  1  0  0  0  0
 19 17  2  0  0  0  0
 20 13  2  0  0  0  0
 20 19  1  0  0  0  0
 21  1  1  0  0  0  0
 22 23  1  0  0  0  0
 22 21  1  0  0  0  0
 23 32  1  0  0  0  0
 24 33  1  0  0  0  0
 24 23  2  0  0  0  0
 25 24  1  0  0  0  0
 26 25  2  0  0  0  0
 27 26  1  0  0  0  0
 28 27  2  0  0  0  0
 28 29  1  0  0  0  0
 29 30  2  0  0  0  0
 30 25  1  0  0  0  0
 30 31  1  0  0  0  0
 31 22  2  0  0  0  0
 34 27  1  0  0  0  0
 35 28  1  0  0  0  0
 36 29  1  0  0  0  0
 37 31  1  0  0  0  0
M  END
>  <minimizedAffinity>
-5.87950277

$$$$
