
 OpenBabel03252502423D

 24 25  0  0  0  0  0  0  0  0999 V2000
   37.3580   28.8490   43.3020 C   0  0  0  0  0  0  0  0  0  0  0  0
   38.3840   28.7370   43.7260 H   0  0  0  0  0  0  0  0  0  0  0  0
   36.6210   29.2030   44.0190 H   0  0  0  0  0  0  0  0  0  0  0  0
   38.8840   31.2280   40.8240 C   0  0  0  0  0  0  0  0  0  0  0  0
   38.7550   30.3150   41.8800 C   0  0  0  0  0  0  0  0  0  0  0  0
   37.4900   29.8150   42.1860 C   0  0  0  0  0  0  0  0  0  0  0  0
   36.4460   30.2450   41.4370 N   0  0  0  0  0  0  0  0  0  0  0  0
   36.5940   31.1280   40.4200 C   0  0  0  0  0  0  0  0  0  0  0  0
   37.7970   31.6140   40.1170 N   0  0  0  0  0  0  0  0  0  0  0  0
   39.9160   31.5340   40.6980 H   0  0  0  0  0  0  0  0  0  0  0  0
   39.5960   29.9660   42.4840 H   0  0  0  0  0  0  0  0  0  0  0  0
   35.7130   31.4310   39.8600 H   0  0  0  0  0  0  0  0  0  0  0  0
   37.0080   27.4930   42.7330 C   0  0  0  0  0  0  0  0  0  0  0  0
   36.1340   27.0730   43.2710 H   0  0  0  0  0  0  0  0  0  0  0  0
   36.8060   27.5320   41.6500 H   0  0  0  0  0  0  0  0  0  0  0  0
   36.6770   24.9380   41.2550 Cl  0  0  0  0  0  0  0  0  0  0  0  0
   38.0680   25.4130   42.2300 C   0  0  0  0  0  0  0  0  0  0  0  0
   38.1990   26.6240   42.9150 C   0  0  0  0  0  0  0  0  0  0  0  0
   39.3480   26.8640   43.6400 C   0  0  0  0  0  0  0  0  0  0  0  0
   39.3460   27.8280   44.1290 H   0  0  0  0  0  0  0  0  0  0  0  0
   40.3430   25.9110   43.6790 C   0  0  0  0  0  0  0  0  0  0  0  0
   41.2200   26.1580   44.2660 H   0  0  0  0  0  0  0  0  0  0  0  0
   40.2010   24.7120   42.9960 C   0  0  0  0  0  3  0  0  0  0  0  0
   39.0600   24.4550   42.2640 C   0  0  0  0  0  3  0  0  0  0  0  0
  1  2  1  0  0  0  0
  1  3  1  0  0  0  0
  4  5  1  0  0  0  0
  5  6  2  0  0  0  0
  5 11  1  0  0  0  0
  6  1  1  0  0  0  0
  7  6  1  0  0  0  0
  8  7  2  0  0  0  0
  9  8  1  0  0  0  0
  9  4  2  0  0  0  0
 10  4  1  0  0  0  0
 12  8  1  0  0  0  0
 13 18  1  0  0  0  0
 13 14  1  0  0  0  0
 13  1  1  0  0  0  0
 15 13  1  0  0  0  0
 16 17  1  0  0  0  0
 17 24  2  0  0  0  0
 17 18  1  0  0  0  0
 18 19  2  0  0  0  0
 19 21  1  0  0  0  0
 19 20  1  0  0  0  0
 21 22  1  0  0  0  0
 23 21  2  0  0  0  0
 24 23  1  0  0  0  0
M  END
>  <minimizedAffinity>
-4.68045282

$$$$

 OpenBabel03252502423D

 24 25  0  0  0  0  0  0  0  0999 V2000
   36.4490   28.3320   41.9090 C   0  0  0  0  0  0  0  0  0  0  0  0
   35.4480   28.5780   42.3380 H   0  0  0  0  0  0  0  0  0  0  0  0
   36.4100   27.6660   41.0510 H   0  0  0  0  0  0  0  0  0  0  0  0
   38.9500   31.1030   41.4600 C   0  0  0  0  0  0  0  0  0  0  0  0
   38.3830   29.8750   41.8300 C   0  0  0  0  0  0  0  0  0  0  0  0
   37.0450   29.6320   41.5190 C   0  0  0  0  0  0  0  0  0  0  0  0
   36.3630   30.6050   40.8690 N   0  0  0  0  0  0  0  0  0  0  0  0
   36.9320   31.7850   40.5210 C   0  0  0  0  0  0  0  0  0  0  0  0
   38.2090   32.0310   40.8120 N   0  0  0  0  0  0  0  0  0  0  0  0
   39.9880   31.1580   41.7630 H   0  0  0  0  0  0  0  0  0  0  0  0
   38.9310   29.0880   42.3520 H   0  0  0  0  0  0  0  0  0  0  0  0
   36.3270   32.5230   40.0010 H   0  0  0  0  0  0  0  0  0  0  0  0
   37.2480   27.7550   43.0550 C   0  0  0  0  0  0  0  0  0  0  0  0
   38.1310   28.3940   43.2580 H   0  0  0  0  0  0  0  0  0  0  0  0
   36.6450   27.6370   43.9700 H   0  0  0  0  0  0  0  0  0  0  0  0
   40.1190   27.3240   43.6800 Cl  0  0  0  0  0  0  0  0  0  0  0  0
   39.0240   26.1640   42.9280 C   0  0  0  0  0  0  0  0  0  0  0  0
   37.6750   26.3920   42.6460 C   0  0  0  0  0  0  0  0  0  0  0  0
   36.9330   25.3890   42.0550 C   0  0  0  0  0  0  0  0  0  0  0  0
   35.9040   25.6710   41.8820 H   0  0  0  0  0  0  0  0  0  0  0  0
   37.5310   24.1850   41.7520 C   0  0  0  0  0  0  0  0  0  0  0  0
   36.8970   23.4390   41.2880 H   0  0  0  0  0  0  0  0  0  0  0  0
   38.8720   23.9710   42.0360 C   0  0  0  0  0  3  0  0  0  0  0  0
   39.6290   24.9610   42.6280 C   0  0  0  0  0  3  0  0  0  0  0  0
  1  2  1  0  0  0  0
  1 13  1  0  0  0  0
  3  1  1  0  0  0  0
  4 10  1  0  0  0  0
  4  5  1  0  0  0  0
  5 11  1  0  0  0  0
  6  5  2  0  0  0  0
  6  1  1  0  0  0  0
  7  6  1  0  0  0  0
  8  9  1  0  0  0  0
  8  7  2  0  0  0  0
  9  4  2  0  0  0  0
 12  8  1  0  0  0  0
 13 14  1  0  0  0  0
 13 15  1  0  0  0  0
 17 16  1  0  0  0  0
 18 17  1  0  0  0  0
 18 13  1  0  0  0  0
 19 18  2  0  0  0  0
 20 19  1  0  0  0  0
 21 23  2  0  0  0  0
 21 19  1  0  0  0  0
 22 21  1  0  0  0  0
 23 24  1  0  0  0  0
 24 17  2  0  0  0  0
M  END
>  <minimizedAffinity>
-4.56550598

$$$$

 OpenBabel03252502423D

 24 25  0  0  0  0  0  0  0  0999 V2000
   36.7450   27.1360   43.0990 C   0  0  0  0  0  0  0  0  0  0  0  0
   35.9280   27.3260   42.3630 H   0  0  0  0  0  0  0  0  0  0  0  0
   36.3920   26.8720   44.0930 H   0  0  0  0  0  0  0  0  0  0  0  0
   37.6320   23.8460   41.5110 C   0  0  0  0  0  0  0  0  0  0  0  0
   36.8780   24.8980   42.0510 C   0  0  0  0  0  0  0  0  0  0  0  0
   37.5450   26.0250   42.5310 C   0  0  0  0  0  0  0  0  0  0  0  0
   38.8970   26.0400   42.4460 N   0  0  0  0  0  0  0  0  0  0  0  0
   39.6050   25.0120   41.9190 C   0  0  0  0  0  0  0  0  0  0  0  0
   38.9810   23.9290   41.4580 N   0  0  0  0  0  0  0  0  0  0  0  0
   36.9900   23.0380   41.1800 H   0  0  0  0  0  0  0  0  0  0  0  0
   35.7890   24.8890   42.1190 H   0  0  0  0  0  0  0  0  0  0  0  0
   40.6880   25.0890   41.8820 H   0  0  0  0  0  0  0  0  0  0  0  0
   37.5870   28.3910   43.0980 C   0  0  0  0  0  0  0  0  0  0  0  0
   37.4590   28.9310   44.0580 H   0  0  0  0  0  0  0  0  0  0  0  0
   38.6530   28.1820   42.9180 H   0  0  0  0  0  0  0  0  0  0  0  0
   39.4590   30.6460   42.6150 Cl  0  0  0  0  0  0  0  0  0  0  0  0
   37.9820   30.2990   41.7160 C   0  0  0  0  0  0  0  0  0  0  0  0
   37.1180   29.2290   41.9630 C   0  0  0  0  0  0  0  0  0  0  0  0
   35.9960   29.0770   41.1760 C   0  0  0  0  0  0  0  0  0  0  0  0
   35.3990   28.2180   41.4520 H   0  0  0  0  0  0  0  0  0  0  0  0
   35.7430   29.9780   40.1640 C   0  0  0  0  0  0  0  0  0  0  0  0
   34.8460   29.8060   39.5820 H   0  0  0  0  0  0  0  0  0  0  0  0
   36.6080   31.0370   39.9290 C   0  0  0  0  0  3  0  0  0  0  0  0
   37.7360   31.2050   40.7050 C   0  0  0  0  0  3  0  0  0  0  0  0
  1  3  1  0  0  0  0
  2  1  1  0  0  0  0
  4  5  1  0  0  0  0
  5 11  1  0  0  0  0
  5  6  2  0  0  0  0
  6  1  1  0  0  0  0
  7  6  1  0  0  0  0
  8  7  2  0  0  0  0
  9  4  2  0  0  0  0
  9  8  1  0  0  0  0
 10  4  1  0  0  0  0
 12  8  1  0  0  0  0
 13  1  1  0  0  0  0
 13 14  1  0  0  0  0
 15 13  1  0  0  0  0
 17 18  1  0  0  0  0
 17 16  1  0  0  0  0
 18 13  1  0  0  0  0
 19 20  1  0  0  0  0
 19 18  2  0  0  0  0
 21 19  1  0  0  0  0
 22 21  1  0  0  0  0
 23 21  2  0  0  0  0
 23 24  1  0  0  0  0
 24 17  2  0  0  0  0
M  END
>  <minimizedAffinity>
-4.55284071

$$$$

 OpenBabel03252502423D

 24 25  0  0  0  0  0  0  0  0999 V2000
   35.5810   28.8670   40.9150 C   0  0  0  0  0  0  0  0  0  0  0  0
   35.6640   28.3320   39.9390 H   0  0  0  0  0  0  0  0  0  0  0  0
   34.6390   28.6970   41.4320 H   0  0  0  0  0  0  0  0  0  0  0  0
   38.0730   26.5390   42.4990 C   0  0  0  0  0  0  0  0  0  0  0  0
   37.0030   27.0090   41.7230 C   0  0  0  0  0  0  0  0  0  0  0  0
   36.7100   28.3730   41.7380 C   0  0  0  0  0  0  0  0  0  0  0  0
   37.4840   29.1740   42.5090 N   0  0  0  0  0  0  0  0  0  0  0  0
   38.5130   28.6980   43.2510 C   0  0  0  0  0  0  0  0  0  0  0  0
   38.8030   27.3970   43.2460 N   0  0  0  0  0  0  0  0  0  0  0  0
   38.1860   25.4670   42.3950 H   0  0  0  0  0  0  0  0  0  0  0  0
   36.3790   26.3660   41.1000 H   0  0  0  0  0  0  0  0  0  0  0  0
   39.0930   29.3970   43.8480 H   0  0  0  0  0  0  0  0  0  0  0  0
   35.8130   30.3250   40.5950 C   0  0  0  0  0  0  0  0  0  0  0  0
   34.8630   30.8880   40.6950 H   0  0  0  0  0  0  0  0  0  0  0  0
   36.5920   30.7760   41.2310 H   0  0  0  0  0  0  0  0  0  0  0  0
   37.4420   32.7730   40.1760 Cl  0  0  0  0  0  0  0  0  0  0  0  0
   37.0810   31.5350   38.9730 C   0  0  0  0  0  0  0  0  0  0  0  0
   36.3120   30.3900   39.1970 C   0  0  0  0  0  0  0  0  0  0  0  0
   36.1130   29.5020   38.1600 C   0  0  0  0  0  0  0  0  0  0  0  0
   35.5050   28.6530   38.4420 H   0  0  0  0  0  0  0  0  0  0  0  0
   36.6700   29.7560   36.9260 C   0  0  0  0  0  0  0  0  0  0  0  0
   36.4770   29.0230   36.1520 H   0  0  0  0  0  0  0  0  0  0  0  0
   37.4310   30.8970   36.7150 C   0  0  0  0  0  3  0  0  0  0  0  0
   37.6430   31.7960   37.7410 C   0  0  0  0  0  3  0  0  0  0  0  0
  1  3  1  0  0  0  0
  1  6  1  0  0  0  0
  2  1  1  0  0  0  0
  4  9  1  0  0  0  0
  5  6  1  0  0  0  0
  5  4  2  0  0  0  0
  6  7  2  0  0  0  0
  7  8  1  0  0  0  0
  8 12  1  0  0  0  0
  9  8  2  0  0  0  0
 10  4  1  0  0  0  0
 11  5  1  0  0  0  0
 13 14  1  0  0  0  0
 13  1  1  0  0  0  0
 13 15  1  0  0  0  0
 17 18  1  0  0  0  0
 17 16  1  0  0  0  0
 18 13  1  0  0  0  0
 19 20  1  0  0  0  0
 19 18  2  0  0  0  0
 21 19  1  0  0  0  0
 22 21  1  0  0  0  0
 23 21  2  0  0  0  0
 23 24  1  0  0  0  0
 24 17  2  0  0  0  0
M  END
>  <minimizedAffinity>
-4.5500865

$$$$

 OpenBabel03252502423D

 24 25  0  0  0  0  0  0  0  0999 V2000
   35.3670   29.1740   40.2770 C   0  0  0  0  0  0  0  0  0  0  0  0
   35.2270   29.2980   41.3780 H   0  0  0  0  0  0  0  0  0  0  0  0
   34.4370   29.1440   39.7150 H   0  0  0  0  0  0  0  0  0  0  0  0
   37.3490   31.5090   38.0970 C   0  0  0  0  0  0  0  0  0  0  0  0
   36.5760   30.4140   38.5090 C   0  0  0  0  0  0  0  0  0  0  0  0
   36.1860   30.3310   39.8460 C   0  0  0  0  0  0  0  0  0  0  0  0
   36.5810   31.3240   40.6790 N   0  0  0  0  0  0  0  0  0  0  0  0
   37.3290   32.3730   40.2590 C   0  0  0  0  0  0  0  0  0  0  0  0
   37.7080   32.4640   38.9850 N   0  0  0  0  0  0  0  0  0  0  0  0
   37.5810   31.4460   37.0410 H   0  0  0  0  0  0  0  0  0  0  0  0
   36.2550   29.6140   37.8390 H   0  0  0  0  0  0  0  0  0  0  0  0
   37.6110   33.1340   40.9810 H   0  0  0  0  0  0  0  0  0  0  0  0
   36.1830   27.9120   40.1150 C   0  0  0  0  0  0  0  0  0  0  0  0
   35.5100   27.0430   39.9750 H   0  0  0  0  0  0  0  0  0  0  0  0
   36.8980   27.9790   39.2790 H   0  0  0  0  0  0  0  0  0  0  0  0
   39.0530   27.5200   39.4580 Cl  0  0  0  0  0  0  0  0  0  0  0  0
   38.3440   27.5640   41.0720 C   0  0  0  0  0  0  0  0  0  0  0  0
   36.9880   27.7520   41.3540 C   0  0  0  0  0  0  0  0  0  0  0  0
   36.5720   27.7670   42.6700 C   0  0  0  0  0  0  0  0  0  0  0  0
   35.5070   27.9200   42.7740 H   0  0  0  0  0  0  0  0  0  0  0  0
   37.4940   27.5960   43.6800 C   0  0  0  0  0  0  0  0  0  0  0  0
   37.1050   27.6160   44.6910 H   0  0  0  0  0  0  0  0  0  0  0  0
   38.8370   27.4090   43.3880 C   0  0  0  0  0  3  0  0  0  0  0  0
   39.2720   27.3930   42.0780 C   0  0  0  0  0  3  0  0  0  0  0  0
  1  2  1  0  0  0  0
  3  1  1  0  0  0  0
  4  5  2  0  0  0  0
  4  9  1  0  0  0  0
  5  6  1  0  0  0  0
  6  1  1  0  0  0  0
  6  7  2  0  0  0  0
  8  7  1  0  0  0  0
  8 12  1  0  0  0  0
  9  8  2  0  0  0  0
 10  4  1  0  0  0  0
 11  5  1  0  0  0  0
 13  1  1  0  0  0  0
 13 18  1  0  0  0  0
 14 13  1  0  0  0  0
 15 13  1  0  0  0  0
 16 17  1  0  0  0  0
 17 18  2  0  0  0  0
 17 24  1  0  0  0  0
 18 19  1  0  0  0  0
 19 20  1  0  0  0  0
 19 21  2  0  0  0  0
 21 22  1  0  0  0  0
 23 21  1  0  0  0  0
 24 23  2  0  0  0  0
M  END
>  <minimizedAffinity>
-4.51039743

$$$$

 OpenBabel03252502423D

 24 25  0  0  0  0  0  0  0  0999 V2000
   35.6250   30.0440   40.4300 C   0  0  0  0  0  0  0  0  0  0  0  0
   34.8640   30.8550   40.5240 H   0  0  0  0  0  0  0  0  0  0  0  0
   35.2350   29.0480   40.6230 H   0  0  0  0  0  0  0  0  0  0  0  0
   37.5780   31.1840   37.4260 C   0  0  0  0  0  0  0  0  0  0  0  0
   37.0930   31.0990   38.7390 C   0  0  0  0  0  0  0  0  0  0  0  0
   36.1330   30.1330   39.0400 C   0  0  0  0  0  0  0  0  0  0  0  0
   35.7190   29.3230   38.0370 N   0  0  0  0  0  0  0  0  0  0  0  0
   36.2010   29.4230   36.7740 C   0  0  0  0  0  0  0  0  0  0  0  0
   37.1180   30.3410   36.4720 N   0  0  0  0  0  0  0  0  0  0  0  0
   38.3120   31.9740   37.3330 H   0  0  0  0  0  0  0  0  0  0  0  0
   37.4270   31.7500   39.5500 H   0  0  0  0  0  0  0  0  0  0  0  0
   35.8250   28.7410   36.0170 H   0  0  0  0  0  0  0  0  0  0  0  0
   36.7370   30.4250   41.3800 C   0  0  0  0  0  0  0  0  0  0  0  0
   37.5660   30.9000   40.8180 H   0  0  0  0  0  0  0  0  0  0  0  0
   36.3910   31.0930   42.1850 H   0  0  0  0  0  0  0  0  0  0  0  0
   39.4800   30.7620   42.4680 Cl  0  0  0  0  0  0  0  0  0  0  0  0
   38.4910   29.3040   42.5520 C   0  0  0  0  0  0  0  0  0  0  0  0
   37.2000   29.1730   42.0330 C   0  0  0  0  0  0  0  0  0  0  0  0
   36.5400   27.9700   42.1730 C   0  0  0  0  0  0  0  0  0  0  0  0
   35.5500   27.9770   41.7370 H   0  0  0  0  0  0  0  0  0  0  0  0
   37.1580   26.9220   42.8190 C   0  0  0  0  0  0  0  0  0  0  0  0
   36.5890   26.0030   42.8960 H   0  0  0  0  0  0  0  0  0  0  0  0
   38.4400   27.0640   43.3300 C   0  0  0  0  0  3  0  0  0  0  0  0
   39.1160   28.2600   43.2000 C   0  0  0  0  0  3  0  0  0  0  0  0
  1  2  1  0  0  0  0
  1  3  1  0  0  0  0
  1 13  1  0  0  0  0
  4  5  1  0  0  0  0
  5  6  2  0  0  0  0
  5 11  1  0  0  0  0
  6  1  1  0  0  0  0
  7  6  1  0  0  0  0
  8  7  2  0  0  0  0
  9  8  1  0  0  0  0
  9  4  2  0  0  0  0
 10  4  1  0  0  0  0
 12  8  1  0  0  0  0
 13 18  1  0  0  0  0
 13 15  1  0  0  0  0
 14 13  1  0  0  0  0
 16 17  1  0  0  0  0
 17 24  1  0  0  0  0
 18 19  1  0  0  0  0
 18 17  2  0  0  0  0
 19 21  2  0  0  0  0
 20 19  1  0  0  0  0
 21 22  1  0  0  0  0
 21 23  1  0  0  0  0
 24 23  2  0  0  0  0
M  END
>  <minimizedAffinity>
-4.47870111

$$$$

 OpenBabel03252502423D

 24 25  0  0  0  0  0  0  0  0999 V2000
   39.3920   29.7220   42.3930 C   0  0  0  0  0  0  0  0  0  0  0  0
   39.8930   29.0750   41.6340 H   0  0  0  0  0  0  0  0  0  0  0  0
   40.0640   30.1080   43.1560 H   0  0  0  0  0  0  0  0  0  0  0  0
   36.9490   31.7290   40.3600 C   0  0  0  0  0  0  0  0  0  0  0  0
   37.5210   30.6710   41.0810 C   0  0  0  0  0  0  0  0  0  0  0  0
   38.7920   30.8410   41.6290 C   0  0  0  0  0  0  0  0  0  0  0  0
   39.4080   32.0310   41.4320 N   0  0  0  0  0  0  0  0  0  0  0  0
   38.8360   33.0400   40.7310 C   0  0  0  0  0  0  0  0  0  0  0  0
   37.6220   32.8910   40.2010 N   0  0  0  0  0  0  0  0  0  0  0  0
   35.9660   31.4610   39.9910 H   0  0  0  0  0  0  0  0  0  0  0  0
   37.0250   29.7120   41.2430 H   0  0  0  0  0  0  0  0  0  0  0  0
   39.3870   33.9690   40.6100 H   0  0  0  0  0  0  0  0  0  0  0  0
   38.2810   28.8770   42.9730 C   0  0  0  0  0  0  0  0  0  0  0  0
   38.0530   29.2110   44.0050 H   0  0  0  0  0  0  0  0  0  0  0  0
   37.3700   28.9010   42.3540 H   0  0  0  0  0  0  0  0  0  0  0  0
   36.6370   27.2070   41.1480 Cl  0  0  0  0  0  0  0  0  0  0  0  0
   38.0010   26.6620   42.1240 C   0  0  0  0  0  0  0  0  0  0  0  0
   38.7600   27.4700   42.9740 C   0  0  0  0  0  0  0  0  0  0  0  0
   39.8050   26.9080   43.6790 C   0  0  0  0  0  0  0  0  0  0  0  0
   40.3250   27.6200   44.3040 H   0  0  0  0  0  0  0  0  0  0  0  0
   40.0820   25.5660   43.5350 C   0  0  0  0  0  0  0  0  0  0  0  0
   40.9140   25.1840   44.1150 H   0  0  0  0  0  0  0  0  0  0  0  0
   39.3210   24.7730   42.6880 C   0  0  0  0  0  3  0  0  0  0  0  0
   38.2730   25.3180   41.9740 C   0  0  0  0  0  3  0  0  0  0  0  0
  1 13  1  0  0  0  0
  1  3  1  0  0  0  0
  2  1  1  0  0  0  0
  4  5  1  0  0  0  0
  5 11  1  0  0  0  0
  5  6  2  0  0  0  0
  6  1  1  0  0  0  0
  7  6  1  0  0  0  0
  8  7  2  0  0  0  0
  9  4  2  0  0  0  0
  9  8  1  0  0  0  0
 10  4  1  0  0  0  0
 12  8  1  0  0  0  0
 13 18  1  0  0  0  0
 13 14  1  0  0  0  0
 15 13  1  0  0  0  0
 16 17  1  0  0  0  0
 17 18  1  0  0  0  0
 18 19  2  0  0  0  0
 19 20  1  0  0  0  0
 21 19  1  0  0  0  0
 21 22  1  0  0  0  0
 23 21  2  0  0  0  0
 24 17  2  0  0  0  0
 24 23  1  0  0  0  0
M  END
>  <minimizedAffinity>
-4.46773052

$$$$

 OpenBabel03252502423D

 24 25  0  0  0  0  0  0  0  0999 V2000
   37.9040   30.8630   39.5600 C   0  0  0  0  0  0  0  0  0  0  0  0
   37.2460   31.0140   38.6710 H   0  0  0  0  0  0  0  0  0  0  0  0
   38.4340   29.9140   39.5590 H   0  0  0  0  0  0  0  0  0  0  0  0
   39.5380   34.1610   40.3280 C   0  0  0  0  0  0  0  0  0  0  0  0
   38.6250   33.0960   40.3460 C   0  0  0  0  0  0  0  0  0  0  0  0
   38.8690   31.9870   39.5360 C   0  0  0  0  0  0  0  0  0  0  0  0
   39.9870   32.0010   38.7710 N   0  0  0  0  0  0  0  0  0  0  0  0
   40.8560   33.0410   38.7700 C   0  0  0  0  0  0  0  0  0  0  0  0
   40.6340   34.1070   39.5380 N   0  0  0  0  0  0  0  0  0  0  0  0
   39.2250   34.9520   40.9980 H   0  0  0  0  0  0  0  0  0  0  0  0
   37.7240   33.0820   40.9630 H   0  0  0  0  0  0  0  0  0  0  0  0
   41.7330   32.9870   38.1310 H   0  0  0  0  0  0  0  0  0  0  0  0
   37.0000   31.0220   40.7610 C   0  0  0  0  0  0  0  0  0  0  0  0
   37.2160   31.9830   41.2690 H   0  0  0  0  0  0  0  0  0  0  0  0
   35.9330   30.9640   40.4930 H   0  0  0  0  0  0  0  0  0  0  0  0
   34.9640   28.8880   40.4090 Cl  0  0  0  0  0  0  0  0  0  0  0  0
   36.3310   28.8600   41.5240 C   0  0  0  0  0  0  0  0  0  0  0  0
   37.2770   29.8780   41.6680 C   0  0  0  0  0  0  0  0  0  0  0  0
   38.2990   29.7200   42.5810 C   0  0  0  0  0  0  0  0  0  0  0  0
   38.9730   30.5650   42.6120 H   0  0  0  0  0  0  0  0  0  0  0  0
   38.3710   28.5680   43.3330 C   0  0  0  0  0  0  0  0  0  0  0  0
   39.1960   28.5040   44.0340 H   0  0  0  0  0  0  0  0  0  0  0  0
   37.4260   27.5640   43.1820 C   0  0  0  0  0  3  0  0  0  0  0  0
   36.3970   27.7040   42.2720 C   0  0  0  0  0  3  0  0  0  0  0  0
  1 13  1  0  0  0  0
  2  1  1  0  0  0  0
  3  1  1  0  0  0  0
  4  5  1  0  0  0  0
  4 10  1  0  0  0  0
  5 11  1  0  0  0  0
  6  1  1  0  0  0  0
  6  5  2  0  0  0  0
  7  6  1  0  0  0  0
  8  7  2  0  0  0  0
  8  9  1  0  0  0  0
  9  4  2  0  0  0  0
 12  8  1  0  0  0  0
 13 14  1  0  0  0  0
 13 18  1  0  0  0  0
 15 13  1  0  0  0  0
 16 17  1  0  0  0  0
 17 18  2  0  0  0  0
 17 24  1  0  0  0  0
 18 19  1  0  0  0  0
 19 20  1  0  0  0  0
 19 21  2  0  0  0  0
 21 22  1  0  0  0  0
 23 21  1  0  0  0  0
 24 23  2  0  0  0  0
M  END
>  <minimizedAffinity>
-4.42958403

$$$$

 OpenBabel03252502423D

 24 25  0  0  0  0  0  0  0  0999 V2000
   38.7070   28.1450   43.0690 C   0  0  0  0  0  0  0  0  0  0  0  0
   38.8960   28.2110   44.1670 H   0  0  0  0  0  0  0  0  0  0  0  0
   39.5190   28.5310   42.4580 H   0  0  0  0  0  0  0  0  0  0  0  0
   37.0440   24.9280   42.0600 C   0  0  0  0  0  0  0  0  0  0  0  0
   37.2460   26.2890   42.3310 C   0  0  0  0  0  0  0  0  0  0  0  0
   38.4970   26.7060   42.7860 C   0  0  0  0  0  0  0  0  0  0  0  0
   39.4550   25.7620   42.9430 N   0  0  0  0  0  0  0  0  0  0  0  0
   39.2380   24.4510   42.6760 C   0  0  0  0  0  0  0  0  0  0  0  0
   38.0480   24.0390   42.2400 N   0  0  0  0  0  0  0  0  0  0  0  0
   36.0330   24.7460   41.7170 H   0  0  0  0  0  0  0  0  0  0  0  0
   36.4750   27.0520   42.2030 H   0  0  0  0  0  0  0  0  0  0  0  0
   40.0520   23.7460   42.8240 H   0  0  0  0  0  0  0  0  0  0  0  0
   37.4080   28.8810   42.8400 C   0  0  0  0  0  0  0  0  0  0  0  0
   36.6370   28.1780   42.4650 H   0  0  0  0  0  0  0  0  0  0  0  0
   37.0490   29.3920   43.7480 H   0  0  0  0  0  0  0  0  0  0  0  0
   35.2500   28.9670   40.8000 Cl  0  0  0  0  0  0  0  0  0  0  0  0
   36.6780   30.0000   40.8600 C   0  0  0  0  0  0  0  0  0  0  0  0
   37.6790   29.9410   41.8330 C   0  0  0  0  0  0  0  0  0  0  0  0
   38.7430   30.8160   41.7560 C   0  0  0  0  0  0  0  0  0  0  0  0
   39.4570   30.6840   42.5570 H   0  0  0  0  0  0  0  0  0  0  0  0
   38.8030   31.7300   40.7270 C   0  0  0  0  0  0  0  0  0  0  0  0
   39.6630   32.3890   40.7210 H   0  0  0  0  0  0  0  0  0  0  0  0
   37.8040   31.7800   39.7660 C   0  0  0  0  0  3  0  0  0  0  0  0
   36.7310   30.9130   39.8270 C   0  0  0  0  0  3  0  0  0  0  0  0
  1  2  1  0  0  0  0
  3  1  1  0  0  0  0
  4  9  2  0  0  0  0
  4  5  1  0  0  0  0
  5  6  2  0  0  0  0
  6  7  1  0  0  0  0
  6  1  1  0  0  0  0
  8 12  1  0  0  0  0
  8  7  2  0  0  0  0
  9  8  1  0  0  0  0
 10  4  1  0  0  0  0
 11  5  1  0  0  0  0
 13  1  1  0  0  0  0
 13 15  1  0  0  0  0
 14 13  1  0  0  0  0
 16 17  1  0  0  0  0
 17 18  1  0  0  0  0
 18 13  1  0  0  0  0
 19 18  2  0  0  0  0
 19 20  1  0  0  0  0
 21 19  1  0  0  0  0
 22 21  1  0  0  0  0
 23 24  1  0  0  0  0
 23 21  2  0  0  0  0
 24 17  2  0  0  0  0
M  END
>  <minimizedAffinity>
-4.28757

$$$$
