
 OpenBabel03252506593D

 24 25  0  0  0  0  0  0  0  0999 V2000
   46.3110   33.4120   45.9190 C   0  0  0  0  0  0  0  0  0  0  0  0
   47.4180   33.4210   45.7830 H   0  0  0  0  0  0  0  0  0  0  0  0
   46.0410   34.3730   46.3670 H   0  0  0  0  0  0  0  0  0  0  0  0
   45.8850   32.2760   46.7310 C   0  0  0  0  0  0  0  0  0  0  0  0
   45.9860   30.9700   46.2780 C   0  0  0  0  0  0  0  0  0  0  0  0
   45.5710   29.8980   47.0780 C   0  0  0  0  0  0  0  0  0  0  0  0
   45.0740   30.2300   48.2970 N   0  0  0  0  0  0  0  0  0  0  0  0
   44.9800   31.5100   48.7290 C   0  0  0  0  0  0  0  0  0  0  0  0
   45.3800   32.5290   47.9550 N   0  0  0  0  0  0  0  0  0  0  0  0
   46.3860   30.7360   45.3000 H   0  0  0  0  0  0  0  0  0  0  0  0
   45.6580   28.9030   46.7090 H   0  0  0  0  0  0  0  0  0  0  0  0
   44.5800   31.7600   49.7080 H   0  0  0  0  0  0  0  0  0  0  0  0
   45.6230   33.3540   44.5800 C   0  0  0  0  0  0  0  0  0  0  0  0
   45.2860   32.3090   44.3820 H   0  0  0  0  0  0  0  0  0  0  0  0
   44.7160   33.9720   44.5930 H   0  0  0  0  0  0  0  0  0  0  0  0
   44.2210   34.3170   42.1230 Cl  0  0  0  0  0  0  0  0  0  0  0  0
   45.9600   34.2810   42.2770 C   0  0  0  0  0  0  0  0  0  0  0  0
   46.4910   33.8150   43.4610 C   0  0  0  0  0  0  0  0  0  0  0  0
   47.8700   33.7840   43.5890 C   0  0  0  0  0  0  0  0  0  0  0  0
   48.3570   33.4360   44.4790 H   0  0  0  0  0  0  0  0  0  0  0  0
   48.6910   34.2120   42.5530 C   0  0  0  0  0  0  0  0  0  0  0  0
   49.7840   34.2030   42.6190 H   0  0  0  0  0  0  0  0  0  0  0  0
   48.1440   34.6840   41.3550 C   0  0  0  0  0  3  0  0  0  0  0  0
   46.7700   34.7070   41.2460 C   0  0  0  0  0  3  0  0  0  0  0  0
  1  3  1  0  0  0  0
  1  4  1  0  0  0  0
  2  1  1  0  0  0  0
  4  9  1  0  0  0  0
  5  4  2  0  0  0  0
  5  6  1  0  0  0  0
  6  7  2  0  0  0  0
  7  8  1  0  0  0  0
  8 12  1  0  0  0  0
  9  8  2  0  0  0  0
 10  5  1  0  0  0  0
 11  6  1  0  0  0  0
 13 15  1  0  0  0  0
 13  1  1  0  0  0  0
 14 13  1  0  0  0  0
 16 17  1  0  0  0  0
 17 18  1  0  0  0  0
 18 19  2  0  0  0  0
 18 13  1  0  0  0  0
 19 20  1  0  0  0  0
 21 22  1  0  0  0  0
 21 19  1  0  0  0  0
 23 21  2  0  0  0  0
 24 23  1  0  0  0  0
 24 17  2  0  0  0  0
M  END
>  <minimizedAffinity>
-4.2223649

>  <minimizedRMSD>
5.35093403

$$$$
