
 OpenBabel03252505303D

 27 28  0  0  0  0  0  0  0  0999 V2000
   47.0210   32.3690   48.4850 O   0  0  0  0  0  0  0  0  0  0  0  0
   45.9030   31.8480   47.5660 P   0  0  1  0  0  0  0  0  0  0  0  0
   44.3990   32.4330   48.0100 O   0  0  0  0  0  0  0  0  0  0  0  0
   44.4720   32.8230   48.9160 H   0  0  0  0  0  0  0  0  0  0  0  0
   46.3200   32.3220   45.9850 O   0  0  0  0  0  0  0  0  0  0  0  0
   44.6000   35.3930   45.4870 C   0  0  0  0  0  0  0  0  0  0  0  0
   44.9120   35.7530   44.1610 C   0  0  0  0  0  0  0  0  0  0  0  0
   45.7500   34.8770   43.4440 C   0  0  0  0  0  0  0  0  0  0  0  0
   46.2000   33.7490   44.0770 N   0  0  0  0  0  0  0  0  0  0  0  0
   45.8640   33.4610   45.3510 C   0  0  0  0  0  0  0  0  0  0  0  0
   45.0680   34.2800   46.0520 N   0  0  0  0  0  0  0  0  0  0  0  0
   43.9560   36.0620   46.0450 H   0  0  0  0  0  0  0  0  0  0  0  0
   44.5660   36.6260   43.6630 H   0  0  0  0  0  0  0  0  0  0  0  0
   46.0650   35.0370   42.4180 H   0  0  0  0  0  0  0  0  0  0  0  0
   45.8970   30.1610   47.7280 O   0  0  0  0  0  0  0  0  0  0  0  0
   45.2700   29.6450   46.6100 C   0  0  0  0  0  0  0  0  0  0  0  0
   44.5470   30.3640   46.1870 H   0  0  0  0  0  0  0  0  0  0  0  0
   46.0540   29.4800   45.8460 H   0  0  0  0  0  0  0  0  0  0  0  0
   43.2130   28.6720   44.6100 Cl  0  0  0  0  0  0  0  0  0  0  0  0
   43.7060   27.8550   46.0820 C   0  0  0  0  0  0  0  0  0  0  0  0
   44.6640   28.3410   46.9820 C   0  0  0  0  0  0  0  0  0  0  0  0
   44.9690   27.6070   48.1070 C   0  0  0  0  0  0  0  0  0  0  0  0
   45.7140   28.0290   48.7660 H   0  0  0  0  0  0  0  0  0  0  0  0
   44.3600   26.4000   48.3810 C   0  0  0  0  0  0  0  0  0  0  0  0
   44.5990   25.8280   49.2620 H   0  0  0  0  0  0  0  0  0  0  0  0
   43.4000   25.8700   47.5210 C   0  0  0  0  0  3  0  0  0  0  0  0
   43.1320   26.6440   46.4090 C   0  0  0  0  0  3  0  0  0  0  0  0
  2 15  1  0  0  0  0
  2  3  1  0  0  0  0
  2  1  2  1  0  0  0
  3  4  1  0  0  0  0
  5  2  1  0  0  0  0
  6 12  1  0  0  0  0
  6 11  1  0  0  0  0
  7  6  2  0  0  0  0
  8  9  2  0  0  0  0
  8  7  1  0  0  0  0
  9 10  1  0  0  0  0
 10  5  1  0  0  0  0
 10 11  2  0  0  0  0
 13  7  1  0  0  0  0
 14  8  1  0  0  0  0
 16 21  1  0  0  0  0
 16 15  1  0  0  0  0
 17 16  1  0  0  0  0
 18 16  1  0  0  0  0
 19 20  1  0  0  0  0
 20 27  2  0  0  0  0
 20 21  1  0  0  0  0
 21 22  2  0  0  0  0
 22 24  1  0  0  0  0
 22 23  1  0  0  0  0
 24 25  1  0  0  0  0
 26 24  2  0  0  0  0
 27 26  1  0  0  0  0
M  END
>  <minimizedAffinity>
-4.96846914

>  <minimizedRMSD>
0.946326196

$$$$
