
 OpenBabel03242518533D

 39 41  0  0  1  0  0  0  0  0999 V2000
   36.6130   29.4140   38.9770 C   0  0  1  0  0  0  0  0  0  0  0  0
   35.7240   29.3760   37.8730 C   0  0  0  0  0  0  0  0  0  0  0  0
   36.4480   29.6090   36.6030 C   0  0  0  0  0  0  0  0  0  0  0  0
   37.4840   30.6250   36.7370 C   0  0  0  0  0  0  0  0  0  0  0  0
   38.5440   30.0300   37.6200 C   0  0  0  0  0  0  0  0  0  0  0  0
   37.9400   30.0110   38.9670 C   0  0  1  0  0  0  0  0  0  0  0  0
   36.9500   28.2920   39.0310 H   0  0  0  0  0  0  0  0  0  0  0  0
   34.7810   29.9660   37.8400 H   0  0  0  0  0  0  0  0  0  0  0  0
   35.2440   28.3480   37.6830 H   0  0  0  0  0  0  0  0  0  0  0  0
   36.9100   28.6760   36.2270 H   0  0  0  0  0  0  0  0  0  0  0  0
   35.7300   29.9320   35.8050 H   0  0  0  0  0  0  0  0  0  0  0  0
   38.0050   30.6540   35.7210 H   0  0  0  0  0  0  0  0  0  0  0  0
   37.2260   31.6610   36.9010 H   0  0  0  0  0  0  0  0  0  0  0  0
   38.7250   29.0460   37.1150 H   0  0  0  0  0  0  0  0  0  0  0  0
   39.4290   30.6310   37.4680 H   0  0  0  0  0  0  0  0  0  0  0  0
   38.7940   29.3790   39.2650 H   0  0  0  0  0  0  0  0  0  0  0  0
   40.6090   31.0410   40.4210 Cl  0  0  0  0  0  0  0  0  0  0  0  0
   39.2370   31.9780   40.0170 C   0  0  0  0  0  0  0  0  0  0  0  0
   38.1930   31.3930   39.3950 C   0  0  0  0  0  0  0  0  0  0  0  0
   37.1500   32.2970   39.1450 C   0  0  0  0  0  0  0  0  0  0  0  0
   36.2340   32.0330   38.6840 H   0  0  0  0  0  0  0  0  0  0  0  0
   37.1820   33.6290   39.4900 C   0  0  0  0  0  0  0  0  0  0  0  0
   36.3720   34.3210   39.2940 H   0  0  0  0  0  0  0  0  0  0  0  0
   38.2750   34.1590   40.1210 C   0  0  0  0  0  3  0  0  0  0  0  0
   39.3210   33.3030   40.3850 C   0  0  0  0  0  3  0  0  0  0  0  0
   36.0050   29.3930   40.3120 C   0  0  0  0  0  0  0  0  0  0  0  0
   34.9290   29.9100   40.6650 O   0  0  0  0  0  0  0  0  0  0  0  0
   37.9790   28.6300   43.3080 C   0  0  0  0  0  0  0  0  0  0  0  0
   38.1210   27.2170   43.2740 C   0  0  0  0  0  0  0  0  0  0  0  0
   37.5320   26.5760   42.1850 C   0  0  0  0  0  0  0  0  0  0  0  0
   36.9010   27.3580   41.3010 N   0  0  0  0  0  0  0  0  0  0  0  0
   36.7640   28.6680   41.3260 C   0  0  0  0  0  0  0  0  0  0  0  0
   37.3360   29.3150   42.3830 N   0  0  0  0  0  0  0  0  0  0  0  0
   38.4210   29.1550   44.1290 H   0  0  0  0  0  0  0  0  0  0  0  0
   38.6440   26.6440   44.0250 H   0  0  0  0  0  0  0  0  0  0  0  0
   37.6650   25.1180   42.1320 C   0  0  0  0  0  0  0  0  0  0  0  0
   37.7030   24.6830   40.8170 F   0  0  0  0  0  0  0  0  0  0  0  0
   36.4340   24.6320   42.5560 F   0  0  0  0  0  0  0  0  0  0  0  0
   38.6940   24.6270   42.8530 F   0  0  0  0  0  0  0  0  0  0  0  0
  1  7  1  6  0  0  0
  1 26  1  0  0  0  0
  2  1  1  0  0  0  0
  3  4  1  0  0  0  0
  3  2  1  0  0  0  0
  4 13  1  0  0  0  0
  4  5  1  0  0  0  0
  5  6  1  0  0  0  0
  6  1  1  0  0  0  0
  6 16  1  1  0  0  0
  6 19  1  0  0  0  0
  8  2  1  0  0  0  0
  9  2  1  0  0  0  0
 10  3  1  0  0  0  0
 11  3  1  0  0  0  0
 12  4  1  0  0  0  0
 14  5  1  0  0  0  0
 15  5  1  0  0  0  0
 18 25  1  0  0  0  0
 18 17  1  0  0  0  0
 19 18  2  0  0  0  0
 20 19  1  0  0  0  0
 20 22  2  0  0  0  0
 21 20  1  0  0  0  0
 22 24  1  0  0  0  0
 23 22  1  0  0  0  0
 24 25  2  0  0  0  0
 26 27  2  0  0  0  0
 26 32  1  0  0  0  0
 28 34  1  0  0  0  0
 29 28  1  0  0  0  0
 29 35  1  0  0  0  0
 30 29  2  0  0  0  0
 31 32  2  0  0  0  0
 31 30  1  0  0  0  0
 32 33  1  0  0  0  0
 33 28  2  0  0  0  0
 36 30  1  0  0  0  0
 36 38  1  0  0  0  0
 36 39  1  0  0  0  0
 37 36  1  0  0  0  0
M  END
>  <minimizedAffinity>
-6.23536253

$$$$

 OpenBabel03242518533D

 39 41  0  0  1  0  0  0  0  0999 V2000
   36.4460   30.7970   39.8020 C   0  0  1  0  0  0  0  0  0  0  0  0
   37.1470   31.6200   40.7190 C   0  0  0  0  0  0  0  0  0  0  0  0
   37.9330   32.6540   40.0070 C   0  0  0  0  0  0  0  0  0  0  0  0
   38.5490   32.1380   38.7910 C   0  0  0  0  0  0  0  0  0  0  0  0
   37.4220   31.8590   37.8360 C   0  0  0  0  0  0  0  0  0  0  0  0
   36.7540   30.6640   38.3860 C   0  0  1  0  0  0  0  0  0  0  0  0
   35.4440   31.3960   39.6850 H   0  0  0  0  0  0  0  0  0  0  0  0
   37.7860   31.2080   41.5310 H   0  0  0  0  0  0  0  0  0  0  0  0
   36.4730   32.2640   41.3930 H   0  0  0  0  0  0  0  0  0  0  0  0
   37.3040   33.5270   39.7460 H   0  0  0  0  0  0  0  0  0  0  0  0
   38.7390   33.0520   40.6760 H   0  0  0  0  0  0  0  0  0  0  0  0
   39.0560   33.0410   38.3090 H   0  0  0  0  0  0  0  0  0  0  0  0
   39.3490   31.4140   38.8390 H   0  0  0  0  0  0  0  0  0  0  0  0
   36.8640   32.8300   37.8640 H   0  0  0  0  0  0  0  0  0  0  0  0
   37.8740   31.7840   36.8570 H   0  0  0  0  0  0  0  0  0  0  0  0
   35.9470   30.8660   37.6600 H   0  0  0  0  0  0  0  0  0  0  0  0
   36.4820   29.3220   35.4830 Cl  0  0  0  0  0  0  0  0  0  0  0  0
   37.6340   28.9360   36.6860 C   0  0  0  0  0  0  0  0  0  0  0  0
   37.6210   29.6030   37.8580 C   0  0  0  0  0  0  0  0  0  0  0  0
   38.6230   29.1580   38.7330 C   0  0  0  0  0  0  0  0  0  0  0  0
   38.7700   29.5390   39.7100 H   0  0  0  0  0  0  0  0  0  0  0  0
   39.5210   28.1590   38.4360 C   0  0  0  0  0  0  0  0  0  0  0  0
   40.2930   27.8210   39.1170 H   0  0  0  0  0  0  0  0  0  0  0  0
   39.4790   27.5210   37.2250 C   0  0  0  0  0  3  0  0  0  0  0  0
   38.5080   27.9290   36.3380 C   0  0  0  0  0  3  0  0  0  0  0  0
   35.7830   29.6120   40.3570 C   0  0  0  0  0  0  0  0  0  0  0  0
   34.6530   29.1710   40.0780 O   0  0  0  0  0  0  0  0  0  0  0  0
   37.8030   28.8090   43.3120 C   0  0  0  0  0  0  0  0  0  0  0  0
   37.9620   27.4000   43.2460 C   0  0  0  0  0  0  0  0  0  0  0  0
   37.3670   26.7740   42.1510 C   0  0  0  0  0  0  0  0  0  0  0  0
   36.7160   27.5670   41.2910 N   0  0  0  0  0  0  0  0  0  0  0  0
   36.5640   28.8740   41.3460 C   0  0  0  0  0  0  0  0  0  0  0  0
   37.1410   29.5060   42.4090 N   0  0  0  0  0  0  0  0  0  0  0  0
   38.2490   29.3220   44.1380 H   0  0  0  0  0  0  0  0  0  0  0  0
   38.5010   26.8170   43.9790 H   0  0  0  0  0  0  0  0  0  0  0  0
   37.5160   25.3190   42.0650 C   0  0  0  0  0  0  0  0  0  0  0  0
   38.7160   24.9210   42.6320 F   0  0  0  0  0  0  0  0  0  0  0  0
   37.7400   25.0630   40.7170 F   0  0  0  0  0  0  0  0  0  0  0  0
   36.4720   24.6230   42.5600 F   0  0  0  0  0  0  0  0  0  0  0  0
  1  7  1  6  0  0  0
  1 26  1  0  0  0  0
  1  2  1  0  0  0  0
  2  9  1  0  0  0  0
  2  8  1  0  0  0  0
  3 11  1  0  0  0  0
  3  2  1  0  0  0  0
  4 13  1  0  0  0  0
  4  3  1  0  0  0  0
  5 14  1  0  0  0  0
  5  6  1  0  0  0  0
  5  4  1  0  0  0  0
  6 16  1  6  0  0  0
  6  1  1  0  0  0  0
 10  3  1  0  0  0  0
 12  4  1  0  0  0  0
 15  5  1  0  0  0  0
 17 18  1  0  0  0  0
 18 19  1  0  0  0  0
 19  6  1  0  0  0  0
 19 20  2  0  0  0  0
 20 21  1  0  0  0  0
 22 20  1  0  0  0  0
 22 23  1  0  0  0  0
 24 22  2  0  0  0  0
 25 18  2  0  0  0  0
 25 24  1  0  0  0  0
 26 32  1  0  0  0  0
 27 26  2  0  0  0  0
 28 34  1  0  0  0  0
 29 28  1  0  0  0  0
 29 35  1  0  0  0  0
 30 29  2  0  0  0  0
 31 32  2  0  0  0  0
 31 30  1  0  0  0  0
 32 33  1  0  0  0  0
 33 28  2  0  0  0  0
 36 30  1  0  0  0  0
 36 39  1  0  0  0  0
 36 37  1  0  0  0  0
 38 36  1  0  0  0  0
M  END
>  <minimizedAffinity>
-6.22974825

$$$$

 OpenBabel03242518533D

 39 41  0  0  1  0  0  0  0  0999 V2000
   37.1500   29.9100   39.4350 C   0  0  1  0  0  0  0  0  0  0  0  0
   36.8160   29.8930   38.0570 C   0  0  0  0  0  0  0  0  0  0  0  0
   35.3890   29.5490   37.8630 C   0  0  0  0  0  0  0  0  0  0  0  0
   34.9400   28.5170   38.7890 C   0  0  0  0  0  0  0  0  0  0  0  0
   34.9490   29.1460   40.1540 C   0  0  0  0  0  0  0  0  0  0  0  0
   36.3780   29.2780   40.4950 C   0  0  1  0  0  0  0  0  0  0  0  0
   36.9040   31.0240   39.7100 H   0  0  0  0  0  0  0  0  0  0  0  0
   37.4070   29.3280   37.3020 H   0  0  0  0  0  0  0  0  0  0  0  0
   36.8820   30.9170   37.5380 H   0  0  0  0  0  0  0  0  0  0  0  0
   34.7420   30.4400   37.9800 H   0  0  0  0  0  0  0  0  0  0  0  0
   35.2200   29.1890   36.8150 H   0  0  0  0  0  0  0  0  0  0  0  0
   33.8220   28.4010   38.5850 H   0  0  0  0  0  0  0  0  0  0  0  0
   35.3020   27.5040   38.7080 H   0  0  0  0  0  0  0  0  0  0  0  0
   34.3660   30.0850   39.9680 H   0  0  0  0  0  0  0  0  0  0  0  0
   34.3340   28.5120   40.7770 H   0  0  0  0  0  0  0  0  0  0  0  0
   36.0480   29.9070   41.3400 H   0  0  0  0  0  0  0  0  0  0  0  0
   37.1670   28.5330   43.5150 Cl  0  0  0  0  0  0  0  0  0  0  0  0
   37.0150   27.4510   42.2000 C   0  0  0  0  0  0  0  0  0  0  0  0
   36.6650   27.9250   40.9870 C   0  0  0  0  0  0  0  0  0  0  0  0
   36.5940   26.9090   40.0210 C   0  0  0  0  0  0  0  0  0  0  0  0
   36.3550   27.0750   39.0030 H   0  0  0  0  0  0  0  0  0  0  0  0
   36.8500   25.5810   40.2760 C   0  0  0  0  0  0  0  0  0  0  0  0
   36.7920   24.8030   39.5250 H   0  0  0  0  0  0  0  0  0  0  0  0
   37.2010   25.1680   41.5320 C   0  0  0  0  0  3  0  0  0  0  0  0
   37.2820   26.1350   42.5090 C   0  0  0  0  0  3  0  0  0  0  0  0
   38.5730   30.0440   39.7650 C   0  0  0  0  0  0  0  0  0  0  0  0
   39.3970   29.1320   39.9590 O   0  0  0  0  0  0  0  0  0  0  0  0
   38.8950   33.5670   40.7300 C   0  0  0  0  0  0  0  0  0  0  0  0
   40.0840   33.9940   40.0820 C   0  0  0  0  0  0  0  0  0  0  0  0
   40.7290   33.0300   39.3070 C   0  0  0  0  0  0  0  0  0  0  0  0
   40.1600   31.8200   39.2630 N   0  0  0  0  0  0  0  0  0  0  0  0
   39.0580   31.4170   39.8620 C   0  0  0  0  0  0  0  0  0  0  0  0
   38.4100   32.3460   40.6240 N   0  0  0  0  0  0  0  0  0  0  0  0
   38.3730   34.2820   41.3320 H   0  0  0  0  0  0  0  0  0  0  0  0
   40.4920   34.9910   40.1600 H   0  0  0  0  0  0  0  0  0  0  0  0
   41.9600   33.4480   38.6300 C   0  0  0  0  0  0  0  0  0  0  0  0
   42.7870   32.3590   38.4130 F   0  0  0  0  0  0  0  0  0  0  0  0
   42.6710   34.1580   39.5910 F   0  0  0  0  0  0  0  0  0  0  0  0
   41.7590   34.1590   37.5020 F   0  0  0  0  0  0  0  0  0  0  0  0
  1  7  1  1  0  0  0
  1 26  1  0  0  0  0
  1  6  1  0  0  0  0
  2  1  1  0  0  0  0
  3 10  1  0  0  0  0
  3  2  1  0  0  0  0
  3  4  1  0  0  0  0
  4  5  1  0  0  0  0
  5  6  1  0  0  0  0
  5 15  1  0  0  0  0
  6 19  1  0  0  0  0
  6 16  1  1  0  0  0
  8  2  1  0  0  0  0
  9  2  1  0  0  0  0
 11  3  1  0  0  0  0
 12  4  1  0  0  0  0
 13  4  1  0  0  0  0
 14  5  1  0  0  0  0
 18 25  1  0  0  0  0
 18 17  1  0  0  0  0
 19 18  2  0  0  0  0
 20 22  2  0  0  0  0
 20 19  1  0  0  0  0
 21 20  1  0  0  0  0
 22 24  1  0  0  0  0
 23 22  1  0  0  0  0
 24 25  2  0  0  0  0
 26 32  1  0  0  0  0
 26 27  2  0  0  0  0
 28 34  1  0  0  0  0
 29 35  1  0  0  0  0
 29 28  2  0  0  0  0
 30 29  1  0  0  0  0
 31 30  2  0  0  0  0
 31 32  1  0  0  0  0
 32 33  2  0  0  0  0
 33 28  1  0  0  0  0
 36 30  1  0  0  0  0
 36 38  1  0  0  0  0
 37 36  1  0  0  0  0
 39 36  1  0  0  0  0
M  END
>  <minimizedAffinity>
-6.11514854

$$$$

 OpenBabel03242518533D

 39 41  0  0  1  0  0  0  0  0999 V2000
   38.8490   27.7160   41.4910 C   0  0  1  0  0  0  0  0  0  0  0  0
   38.8770   28.3340   42.7670 C   0  0  0  0  0  0  0  0  0  0  0  0
   37.8940   27.7050   43.6800 C   0  0  0  0  0  0  0  0  0  0  0  0
   36.6490   27.3690   43.0010 C   0  0  0  0  0  0  0  0  0  0  0  0
   36.9790   26.2550   42.0480 C   0  0  0  0  0  0  0  0  0  0  0  0
   37.7610   26.9000   40.9750 C   0  0  1  0  0  0  0  0  0  0  0  0
   39.6300   26.8540   41.6430 H   0  0  0  0  0  0  0  0  0  0  0  0
   38.8110   29.4360   42.9040 H   0  0  0  0  0  0  0  0  0  0  0  0
   39.8590   28.1870   43.3460 H   0  0  0  0  0  0  0  0  0  0  0  0
   38.3070   26.7890   44.1440 H   0  0  0  0  0  0  0  0  0  0  0  0
   37.6640   28.3970   44.5310 H   0  0  0  0  0  0  0  0  0  0  0  0
   36.0180   26.8340   43.7880 H   0  0  0  0  0  0  0  0  0  0  0  0
   35.9830   28.1420   42.6480 H   0  0  0  0  0  0  0  0  0  0  0  0
   37.5110   25.5370   42.7240 H   0  0  0  0  0  0  0  0  0  0  0  0
   36.0340   25.7990   41.7850 H   0  0  0  0  0  0  0  0  0  0  0  0
   37.9990   25.8790   40.6300 H   0  0  0  0  0  0  0  0  0  0  0  0
   36.8500   25.7490   38.1220 Cl  0  0  0  0  0  0  0  0  0  0  0  0
   36.1880   27.0960   38.9410 C   0  0  0  0  0  0  0  0  0  0  0  0
   36.6800   27.4480   40.1460 C   0  0  0  0  0  0  0  0  0  0  0  0
   36.0340   28.5760   40.6740 C   0  0  0  0  0  0  0  0  0  0  0  0
   36.2840   29.0230   41.6000 H   0  0  0  0  0  0  0  0  0  0  0  0
   35.0140   29.2490   40.0420 C   0  0  0  0  0  0  0  0  0  0  0  0
   34.5200   30.1190   40.4560 H   0  0  0  0  0  0  0  0  0  0  0  0
   34.5620   28.8380   38.8170 C   0  0  0  0  0  3  0  0  0  0  0  0
   35.1710   27.7330   38.2640 C   0  0  0  0  0  3  0  0  0  0  0  0
   39.6310   28.3640   40.4310 C   0  0  0  0  0  0  0  0  0  0  0  0
   40.2540   27.8160   39.5040 O   0  0  0  0  0  0  0  0  0  0  0  0
   40.7770   31.8130   40.9210 C   0  0  0  0  0  0  0  0  0  0  0  0
   39.6820   32.6040   40.4840 C   0  0  0  0  0  0  0  0  0  0  0  0
   38.5630   31.8970   40.0450 C   0  0  0  0  0  0  0  0  0  0  0  0
   38.6460   30.5620   40.0840 N   0  0  0  0  0  0  0  0  0  0  0  0
   39.6580   29.8220   40.4870 C   0  0  0  0  0  0  0  0  0  0  0  0
   40.7630   30.4950   40.9230 N   0  0  0  0  0  0  0  0  0  0  0  0
   41.6520   32.3230   41.2670 H   0  0  0  0  0  0  0  0  0  0  0  0
   39.6800   33.6840   40.4760 H   0  0  0  0  0  0  0  0  0  0  0  0
   37.4220   32.6940   39.5860 C   0  0  0  0  0  0  0  0  0  0  0  0
   37.5490   34.0080   40.0050 F   0  0  0  0  0  0  0  0  0  0  0  0
   36.3490   32.2550   40.3540 F   0  0  0  0  0  0  0  0  0  0  0  0
   37.1820   32.6100   38.2620 F   0  0  0  0  0  0  0  0  0  0  0  0
  1  7  1  1  0  0  0
  1  2  1  0  0  0  0
  2  8  1  0  0  0  0
  2  9  1  0  0  0  0
  2  3  1  0  0  0  0
  3 10  1  0  0  0  0
  3 11  1  0  0  0  0
  4  3  1  0  0  0  0
  4 12  1  0  0  0  0
  5 14  1  0  0  0  0
  5  4  1  0  0  0  0
  6 16  1  6  0  0  0
  6  1  1  0  0  0  0
  6  5  1  0  0  0  0
 13  4  1  0  0  0  0
 15  5  1  0  0  0  0
 17 18  1  0  0  0  0
 18 19  1  0  0  0  0
 19 20  2  0  0  0  0
 19  6  1  0  0  0  0
 20 21  1  0  0  0  0
 22 23  1  0  0  0  0
 22 20  1  0  0  0  0
 24 22  2  0  0  0  0
 25 24  1  0  0  0  0
 25 18  2  0  0  0  0
 26 32  1  0  0  0  0
 26  1  1  0  0  0  0
 27 26  2  0  0  0  0
 28 33  1  0  0  0  0
 28 34  1  0  0  0  0
 29 28  2  0  0  0  0
 30 31  2  0  0  0  0
 30 29  1  0  0  0  0
 31 32  1  0  0  0  0
 32 33  2  0  0  0  0
 35 29  1  0  0  0  0
 36 37  1  0  0  0  0
 36 30  1  0  0  0  0
 36 38  1  0  0  0  0
 39 36  1  0  0  0  0
M  END
>  <minimizedAffinity>
-6.09646177

$$$$

 OpenBabel03242518533D

 39 41  0  0  1  0  0  0  0  0999 V2000
   39.0960   30.9880   40.2070 C   0  0  1  0  0  0  0  0  0  0  0  0
   39.7960   32.1540   39.8050 C   0  0  0  0  0  0  0  0  0  0  0  0
   38.9050   33.3370   39.8250 C   0  0  0  0  0  0  0  0  0  0  0  0
   37.5640   33.0260   39.3470 C   0  0  0  0  0  0  0  0  0  0  0  0
   36.9480   32.1270   40.3810 C   0  0  0  0  0  0  0  0  0  0  0  0
   37.6490   30.8380   40.2220 C   0  0  1  0  0  0  0  0  0  0  0  0
   39.2600   31.0180   41.3680 H   0  0  0  0  0  0  0  0  0  0  0  0
   40.4020   32.2010   38.8730 H   0  0  0  0  0  0  0  0  0  0  0  0
   40.6320   32.4800   40.5240 H   0  0  0  0  0  0  0  0  0  0  0  0
   38.8300   33.7660   40.8430 H   0  0  0  0  0  0  0  0  0  0  0  0
   39.3350   34.1520   39.1860 H   0  0  0  0  0  0  0  0  0  0  0  0
   36.9700   33.9920   39.4810 H   0  0  0  0  0  0  0  0  0  0  0  0
   37.3890   32.7810   38.3100 H   0  0  0  0  0  0  0  0  0  0  0  0
   37.1330   32.7110   41.3190 H   0  0  0  0  0  0  0  0  0  0  0  0
   35.8820   32.1520   40.1990 H   0  0  0  0  0  0  0  0  0  0  0  0
   37.1700   30.5390   41.1700 H   0  0  0  0  0  0  0  0  0  0  0  0
   35.0060   29.0390   40.4950 Cl  0  0  0  0  0  0  0  0  0  0  0  0
   35.7950   29.4860   39.0450 C   0  0  0  0  0  0  0  0  0  0  0  0
   36.8990   30.2590   39.1000 C   0  0  0  0  0  0  0  0  0  0  0  0
   37.4250   30.5240   37.8270 C   0  0  0  0  0  0  0  0  0  0  0  0
   38.2990   31.0960   37.6540 H   0  0  0  0  0  0  0  0  0  0  0  0
   36.8830   30.0540   36.6530 C   0  0  0  0  0  0  0  0  0  0  0  0
   37.2950   30.2630   35.6740 H   0  0  0  0  0  0  0  0  0  0  0  0
   35.7600   29.2720   36.6690 C   0  0  0  0  0  3  0  0  0  0  0  0
   35.2120   28.9890   37.9000 C   0  0  0  0  0  3  0  0  0  0  0  0
   39.8020   29.7110   40.0470 C   0  0  0  0  0  0  0  0  0  0  0  0
   40.5010   29.3440   39.0850 O   0  0  0  0  0  0  0  0  0  0  0  0
   40.4020   27.9220   43.1920 C   0  0  0  0  0  0  0  0  0  0  0  0
   39.2840   27.0550   43.3120 C   0  0  0  0  0  0  0  0  0  0  0  0
   38.3580   27.1130   42.2700 C   0  0  0  0  0  0  0  0  0  0  0  0
   38.6250   27.9750   41.2820 N   0  0  0  0  0  0  0  0  0  0  0  0
   39.6600   28.7820   41.1640 C   0  0  0  0  0  0  0  0  0  0  0  0
   40.5790   28.7390   42.1720 N   0  0  0  0  0  0  0  0  0  0  0  0
   41.1340   27.9010   43.9730 H   0  0  0  0  0  0  0  0  0  0  0  0
   39.1270   26.3810   44.1420 H   0  0  0  0  0  0  0  0  0  0  0  0
   37.1950   26.2290   42.3760 C   0  0  0  0  0  0  0  0  0  0  0  0
   37.5990   24.9120   42.5180 F   0  0  0  0  0  0  0  0  0  0  0  0
   36.6390   26.2190   41.1020 F   0  0  0  0  0  0  0  0  0  0  0  0
   36.3090   26.5870   43.3270 F   0  0  0  0  0  0  0  0  0  0  0  0
  1  6  1  0  0  0  0
  1  7  1  1  0  0  0
  2  3  1  0  0  0  0
  2  1  1  0  0  0  0
  2  9  1  0  0  0  0
  3 10  1  0  0  0  0
  4 12  1  0  0  0  0
  4  3  1  0  0  0  0
  4  5  1  0  0  0  0
  5 14  1  0  0  0  0
  6  5  1  0  0  0  0
  6 16  1  1  0  0  0
  8  2  1  0  0  0  0
 11  3  1  0  0  0  0
 13  4  1  0  0  0  0
 15  5  1  0  0  0  0
 18 19  1  0  0  0  0
 18 17  1  0  0  0  0
 19  6  1  0  0  0  0
 20 19  2  0  0  0  0
 21 20  1  0  0  0  0
 22 24  2  0  0  0  0
 22 20  1  0  0  0  0
 23 22  1  0  0  0  0
 24 25  1  0  0  0  0
 25 18  2  0  0  0  0
 26  1  1  0  0  0  0
 26 32  1  0  0  0  0
 27 26  2  0  0  0  0
 28 29  1  0  0  0  0
 28 34  1  0  0  0  0
 29 35  1  0  0  0  0
 30 36  1  0  0  0  0
 30 29  2  0  0  0  0
 31 30  1  0  0  0  0
 32 31  2  0  0  0  0
 32 33  1  0  0  0  0
 33 28  2  0  0  0  0
 36 37  1  0  0  0  0
 36 39  1  0  0  0  0
 38 36  1  0  0  0  0
M  END
>  <minimizedAffinity>
-6.09276581

$$$$

 OpenBabel03242518533D

 39 41  0  0  1  0  0  0  0  0999 V2000
   38.6730   27.2870   42.5430 C   0  0  1  0  0  0  0  0  0  0  0  0
   39.2960   26.7130   43.6800 C   0  0  0  0  0  0  0  0  0  0  0  0
   40.4370   25.8570   43.2810 C   0  0  0  0  0  0  0  0  0  0  0  0
   40.1550   25.0910   42.0730 C   0  0  0  0  0  0  0  0  0  0  0  0
   40.0780   26.0880   40.9520 C   0  0  0  0  0  0  0  0  0  0  0  0
   38.8090   26.8060   41.1760 C   0  0  1  0  0  0  0  0  0  0  0  0
   39.2950   28.2740   42.4210 H   0  0  0  0  0  0  0  0  0  0  0  0
   38.7270   26.1740   44.4700 H   0  0  0  0  0  0  0  0  0  0  0  0
   39.8070   27.4710   44.3770 H   0  0  0  0  0  0  0  0  0  0  0  0
   41.3510   26.4580   43.1170 H   0  0  0  0  0  0  0  0  0  0  0  0
   40.6890   25.1440   44.1080 H   0  0  0  0  0  0  0  0  0  0  0  0
   41.1270   24.5380   41.8390 H   0  0  0  0  0  0  0  0  0  0  0  0
   39.4250   24.2950   42.0790 H   0  0  0  0  0  0  0  0  0  0  0  0
   41.0330   26.6560   41.0970 H   0  0  0  0  0  0  0  0  0  0  0  0
   40.1860   25.5180   40.0390 H   0  0  0  0  0  0  0  0  0  0  0  0
   39.1560   27.5190   40.4090 H   0  0  0  0  0  0  0  0  0  0  0  0
   37.8370   26.8830   38.1190 Cl  0  0  0  0  0  0  0  0  0  0  0  0
   37.3450   25.7720   39.3210 C   0  0  0  0  0  0  0  0  0  0  0  0
   37.8570   25.8690   40.5660 C   0  0  0  0  0  0  0  0  0  0  0  0
   37.3440   24.8890   41.4280 C   0  0  0  0  0  0  0  0  0  0  0  0
   37.6030   24.8060   42.4510 H   0  0  0  0  0  0  0  0  0  0  0  0
   36.4250   23.9350   41.0560 C   0  0  0  0  0  0  0  0  0  0  0  0
   36.0330   23.1820   41.7280 H   0  0  0  0  0  0  0  0  0  0  0  0
   35.9460   23.8930   39.7740 C   0  0  0  0  0  3  0  0  0  0  0  0
   36.4250   24.8380   38.8960 C   0  0  0  0  0  3  0  0  0  0  0  0
   37.4110   28.0000   42.7760 C   0  0  0  0  0  0  0  0  0  0  0  0
   36.5800   27.7990   43.6800 O   0  0  0  0  0  0  0  0  0  0  0  0
   35.7290   30.0720   40.2600 C   0  0  0  0  0  0  0  0  0  0  0  0
   36.5890   31.1910   40.1060 C   0  0  0  0  0  0  0  0  0  0  0  0
   37.7480   31.1740   40.8810 C   0  0  0  0  0  0  0  0  0  0  0  0
   37.9180   30.1130   41.6790 N   0  0  0  0  0  0  0  0  0  0  0  0
   37.1240   29.0720   41.8280 C   0  0  0  0  0  0  0  0  0  0  0  0
   35.9850   29.0680   41.0760 N   0  0  0  0  0  0  0  0  0  0  0  0
   34.8310   30.0510   39.6780 H   0  0  0  0  0  0  0  0  0  0  0  0
   36.3910   32.0200   39.4420 H   0  0  0  0  0  0  0  0  0  0  0  0
   38.6490   32.3210   40.7390 C   0  0  0  0  0  0  0  0  0  0  0  0
   39.5430   32.1090   39.7030 F   0  0  0  0  0  0  0  0  0  0  0  0
   39.4830   32.2580   41.8500 F   0  0  0  0  0  0  0  0  0  0  0  0
   38.0230   33.5100   40.6270 F   0  0  0  0  0  0  0  0  0  0  0  0
  1  7  1  6  0  0  0
  1 26  1  0  0  0  0
  1  2  1  0  0  0  0
  2  9  1  0  0  0  0
  2  8  1  0  0  0  0
  3  2  1  0  0  0  0
  3 11  1  0  0  0  0
  4 13  1  0  0  0  0
  4  3  1  0  0  0  0
  5 14  1  0  0  0  0
  5  6  1  0  0  0  0
  5  4  1  0  0  0  0
  6 16  1  6  0  0  0
  6  1  1  0  0  0  0
 10  3  1  0  0  0  0
 12  4  1  0  0  0  0
 15  5  1  0  0  0  0
 17 18  1  0  0  0  0
 18 19  1  0  0  0  0
 19  6  1  0  0  0  0
 19 20  2  0  0  0  0
 20 21  1  0  0  0  0
 22 20  1  0  0  0  0
 22 23  1  0  0  0  0
 24 22  2  0  0  0  0
 25 18  2  0  0  0  0
 25 24  1  0  0  0  0
 26 27  2  0  0  0  0
 28 33  1  0  0  0  0
 29 28  2  0  0  0  0
 29 30  1  0  0  0  0
 30 31  2  0  0  0  0
 31 32  1  0  0  0  0
 32 26  1  0  0  0  0
 33 32  2  0  0  0  0
 34 28  1  0  0  0  0
 35 29  1  0  0  0  0
 36 30  1  0  0  0  0
 36 38  1  0  0  0  0
 37 36  1  0  0  0  0
 39 36  1  0  0  0  0
M  END
>  <minimizedAffinity>
-5.98258924

$$$$

 OpenBabel03242518533D

 39 41  0  0  1  0  0  0  0  0999 V2000
   36.1600   27.2460   37.3840 C   0  0  1  0  0  0  0  0  0  0  0  0
   35.0100   26.4340   37.5530 C   0  0  0  0  0  0  0  0  0  0  0  0
   33.7970   27.1280   37.0640 C   0  0  0  0  0  0  0  0  0  0  0  0
   33.8050   28.5480   37.3910 C   0  0  0  0  0  0  0  0  0  0  0  0
   34.8970   29.1620   36.5610 C   0  0  0  0  0  0  0  0  0  0  0  0
   36.1490   28.6870   37.1800 C   0  0  1  0  0  0  0  0  0  0  0  0
   36.4920   26.9410   36.3010 H   0  0  0  0  0  0  0  0  0  0  0  0
   34.7560   25.9450   38.5190 H   0  0  0  0  0  0  0  0  0  0  0  0
   35.0040   25.4770   36.9140 H   0  0  0  0  0  0  0  0  0  0  0  0
   33.6830   27.0140   35.9690 H   0  0  0  0  0  0  0  0  0  0  0  0
   32.8810   26.6620   37.5130 H   0  0  0  0  0  0  0  0  0  0  0  0
   32.8640   28.9710   36.9010 H   0  0  0  0  0  0  0  0  0  0  0  0
   33.7120   28.8830   38.4130 H   0  0  0  0  0  0  0  0  0  0  0  0
   34.6400   28.7800   35.5400 H   0  0  0  0  0  0  0  0  0  0  0  0
   34.7040   30.2260   36.5570 H   0  0  0  0  0  0  0  0  0  0  0  0
   36.6610   29.0870   36.2880 H   0  0  0  0  0  0  0  0  0  0  0  0
   37.8610   31.3990   37.0760 Cl  0  0  0  0  0  0  0  0  0  0  0  0
   36.9640   30.8060   38.4050 C   0  0  0  0  0  0  0  0  0  0  0  0
   36.2860   29.6460   38.2840 C   0  0  0  0  0  0  0  0  0  0  0  0
   35.6130   29.3000   39.4650 C   0  0  0  0  0  0  0  0  0  0  0  0
   35.0400   28.4170   39.5840 H   0  0  0  0  0  0  0  0  0  0  0  0
   35.6350   30.0520   40.6170 C   0  0  0  0  0  0  0  0  0  0  0  0
   35.1120   29.7780   41.5250 H   0  0  0  0  0  0  0  0  0  0  0  0
   36.3440   31.2210   40.6710 C   0  0  0  0  0  3  0  0  0  0  0  0
   37.0200   31.5960   39.5320 C   0  0  0  0  0  3  0  0  0  0  0  0
   37.4010   26.7640   38.0010 C   0  0  0  0  0  0  0  0  0  0  0  0
   38.5570   26.8480   37.5490 O   0  0  0  0  0  0  0  0  0  0  0  0
   36.8970   24.2230   40.5970 C   0  0  0  0  0  0  0  0  0  0  0  0
   37.0190   24.9460   41.8140 C   0  0  0  0  0  0  0  0  0  0  0  0
   37.2580   26.3130   41.6830 C   0  0  0  0  0  0  0  0  0  0  0  0
   37.3460   26.7880   40.4340 N   0  0  0  0  0  0  0  0  0  0  0  0
   37.2350   26.1240   39.3020 C   0  0  0  0  0  0  0  0  0  0  0  0
   36.9990   24.7840   39.4080 N   0  0  0  0  0  0  0  0  0  0  0  0
   36.7110   23.1710   40.6610 H   0  0  0  0  0  0  0  0  0  0  0  0
   36.9390   24.4990   42.7940 H   0  0  0  0  0  0  0  0  0  0  0  0
   37.3900   27.0780   42.9250 C   0  0  0  0  0  0  0  0  0  0  0  0
   36.2120   27.0300   43.6510 F   0  0  0  0  0  0  0  0  0  0  0  0
   37.4220   28.4090   42.5230 F   0  0  0  0  0  0  0  0  0  0  0  0
   38.4570   26.7380   43.6770 F   0  0  0  0  0  0  0  0  0  0  0  0
  1  7  1  6  0  0  0
  1  2  1  0  0  0  0
  1 26  1  0  0  0  0
  2  8  1  0  0  0  0
  3  4  1  0  0  0  0
  3 11  1  0  0  0  0
  3  2  1  0  0  0  0
  4 13  1  0  0  0  0
  5  6  1  0  0  0  0
  5  4  1  0  0  0  0
  6 16  1  6  0  0  0
  6  1  1  0  0  0  0
  6 19  1  0  0  0  0
  9  2  1  0  0  0  0
 10  3  1  0  0  0  0
 12  4  1  0  0  0  0
 14  5  1  0  0  0  0
 15  5  1  0  0  0  0
 17 18  1  0  0  0  0
 18 25  1  0  0  0  0
 19 18  2  0  0  0  0
 19 20  1  0  0  0  0
 20 21  1  0  0  0  0
 20 22  2  0  0  0  0
 22 24  1  0  0  0  0
 22 23  1  0  0  0  0
 25 24  2  0  0  0  0
 26 32  1  0  0  0  0
 27 26  2  0  0  0  0
 28 34  1  0  0  0  0
 28 29  1  0  0  0  0
 29 35  1  0  0  0  0
 30 29  2  0  0  0  0
 30 36  1  0  0  0  0
 31 30  1  0  0  0  0
 32 33  1  0  0  0  0
 32 31  2  0  0  0  0
 33 28  2  0  0  0  0
 36 37  1  0  0  0  0
 36 39  1  0  0  0  0
 38 36  1  0  0  0  0
M  END
>  <minimizedAffinity>
-5.95865488

$$$$

 OpenBabel03242518533D

 39 41  0  0  1  0  0  0  0  0999 V2000
   36.9770   29.5920   38.4710 C   0  0  1  0  0  0  0  0  0  0  0  0
   36.3010   29.3760   37.2430 C   0  0  0  0  0  0  0  0  0  0  0  0
   34.8430   29.2370   37.4600 C   0  0  0  0  0  0  0  0  0  0  0  0
   34.5350   28.4780   38.6650 C   0  0  0  0  0  0  0  0  0  0  0  0
   34.9640   29.3360   39.8220 C   0  0  0  0  0  0  0  0  0  0  0  0
   36.4380   29.2960   39.7900 C   0  0  1  0  0  0  0  0  0  0  0  0
   36.9360   30.7620   38.5460 H   0  0  0  0  0  0  0  0  0  0  0  0
   36.6120   28.5950   36.5140 H   0  0  0  0  0  0  0  0  0  0  0  0
   36.3440   30.2640   36.5130 H   0  0  0  0  0  0  0  0  0  0  0  0
   34.3510   30.2270   37.5250 H   0  0  0  0  0  0  0  0  0  0  0  0
   34.3720   28.7240   36.5820 H   0  0  0  0  0  0  0  0  0  0  0  0
   33.3960   28.5080   38.7510 H   0  0  0  0  0  0  0  0  0  0  0  0
   34.7500   27.4220   38.7250 H   0  0  0  0  0  0  0  0  0  0  0  0
   34.4610   30.3060   39.5750 H   0  0  0  0  0  0  0  0  0  0  0  0
   34.4630   28.9340   40.6920 H   0  0  0  0  0  0  0  0  0  0  0  0
   36.4070   30.1140   40.5310 H   0  0  0  0  0  0  0  0  0  0  0  0
   37.2980   29.0090   42.8680 Cl  0  0  0  0  0  0  0  0  0  0  0  0
   37.0620   27.7380   41.7480 C   0  0  0  0  0  0  0  0  0  0  0  0
   36.6900   28.0270   40.4840 C   0  0  0  0  0  0  0  0  0  0  0  0
   36.5490   26.8750   39.6970 C   0  0  0  0  0  0  0  0  0  0  0  0
   36.2820   26.8870   38.6720 H   0  0  0  0  0  0  0  0  0  0  0  0
   36.7620   25.5950   40.1540 C   0  0  0  0  0  0  0  0  0  0  0  0
   36.6510   24.7100   39.5390 H   0  0  0  0  0  0  0  0  0  0  0  0
   37.1390   25.3720   41.4500 C   0  0  0  0  0  3  0  0  0  0  0  0
   37.2890   26.4780   42.2570 C   0  0  0  0  0  3  0  0  0  0  0  0
   38.4430   29.5520   38.4290 C   0  0  0  0  0  0  0  0  0  0  0  0
   39.1650   28.7520   37.8070 O   0  0  0  0  0  0  0  0  0  0  0  0
   39.7970   32.7930   39.4850 C   0  0  0  0  0  0  0  0  0  0  0  0
   40.3130   32.5430   40.7830 C   0  0  0  0  0  0  0  0  0  0  0  0
   40.1850   31.2330   41.2430 C   0  0  0  0  0  0  0  0  0  0  0  0
   39.5930   30.3650   40.4140 N   0  0  0  0  0  0  0  0  0  0  0  0
   39.1110   30.5890   39.2090 C   0  0  0  0  0  0  0  0  0  0  0  0
   39.2280   31.8660   38.7400 N   0  0  0  0  0  0  0  0  0  0  0  0
   39.8800   33.7890   39.0990 H   0  0  0  0  0  0  0  0  0  0  0  0
   40.7810   33.2940   41.4040 H   0  0  0  0  0  0  0  0  0  0  0  0
   40.7090   30.9530   42.5820 C   0  0  0  0  0  0  0  0  0  0  0  0
   40.8480   29.5880   42.7730 F   0  0  0  0  0  0  0  0  0  0  0  0
   39.6620   31.2550   43.4450 F   0  0  0  0  0  0  0  0  0  0  0  0
   41.8410   31.6200   42.8860 F   0  0  0  0  0  0  0  0  0  0  0  0
  1  7  1  1  0  0  0
  1  6  1  0  0  0  0
  2  3  1  0  0  0  0
  2  1  1  0  0  0  0
  3 10  1  0  0  0  0
  3  4  1  0  0  0  0
  4 13  1  0  0  0  0
  4 12  1  0  0  0  0
  4  5  1  0  0  0  0
  5 15  1  0  0  0  0
  6  5  1  0  0  0  0
  6 19  1  0  0  0  0
  6 16  1  1  0  0  0
  8  2  1  0  0  0  0
  9  2  1  0  0  0  0
 11  3  1  0  0  0  0
 14  5  1  0  0  0  0
 18 25  1  0  0  0  0
 18 17  1  0  0  0  0
 19 18  2  0  0  0  0
 20 22  2  0  0  0  0
 20 19  1  0  0  0  0
 21 20  1  0  0  0  0
 22 24  1  0  0  0  0
 23 22  1  0  0  0  0
 24 25  2  0  0  0  0
 26  1  1  0  0  0  0
 26 32  1  0  0  0  0
 27 26  2  0  0  0  0
 28 29  1  0  0  0  0
 29 30  2  0  0  0  0
 29 35  1  0  0  0  0
 30 36  1  0  0  0  0
 31 30  1  0  0  0  0
 32 31  2  0  0  0  0
 33 32  1  0  0  0  0
 33 28  2  0  0  0  0
 34 28  1  0  0  0  0
 36 37  1  0  0  0  0
 36 39  1  0  0  0  0
 36 38  1  0  0  0  0
M  END
>  <minimizedAffinity>
-5.78014994

$$$$

 OpenBabel03242518533D

 39 41  0  0  1  0  0  0  0  0999 V2000
   36.9880   28.6490   38.5970 C   0  0  1  0  0  0  0  0  0  0  0  0
   35.7950   28.0950   38.0660 C   0  0  0  0  0  0  0  0  0  0  0  0
   34.6110   28.8650   38.5130 C   0  0  0  0  0  0  0  0  0  0  0  0
   34.7240   29.2920   39.9010 C   0  0  0  0  0  0  0  0  0  0  0  0
   35.8210   30.3190   39.9360 C   0  0  0  0  0  0  0  0  0  0  0  0
   37.0620   29.5460   39.7400 C   0  0  1  0  0  0  0  0  0  0  0  0
   37.2580   29.4350   37.7680 H   0  0  0  0  0  0  0  0  0  0  0  0
   35.5470   27.0140   38.1450 H   0  0  0  0  0  0  0  0  0  0  0  0
   35.7030   28.1700   36.9220 H   0  0  0  0  0  0  0  0  0  0  0  0
   34.4480   29.7560   37.8760 H   0  0  0  0  0  0  0  0  0  0  0  0
   33.6860   28.2420   38.4030 H   0  0  0  0  0  0  0  0  0  0  0  0
   33.7940   29.9270   40.0930 H   0  0  0  0  0  0  0  0  0  0  0  0
   34.6920   28.5740   40.7070 H   0  0  0  0  0  0  0  0  0  0  0  0
   35.5010   31.0120   39.1150 H   0  0  0  0  0  0  0  0  0  0  0  0
   35.6970   30.8550   40.8670 H   0  0  0  0  0  0  0  0  0  0  0  0
   37.5650   30.5190   39.6020 H   0  0  0  0  0  0  0  0  0  0  0  0
   39.2740   30.7210   41.7470 Cl  0  0  0  0  0  0  0  0  0  0  0  0
   38.1830   29.4410   42.0600 C   0  0  0  0  0  0  0  0  0  0  0  0
   37.3030   29.0700   41.1080 C   0  0  0  0  0  0  0  0  0  0  0  0
   36.4910   28.0040   41.5230 C   0  0  0  0  0  0  0  0  0  0  0  0
   35.7500   27.5530   40.9170 H   0  0  0  0  0  0  0  0  0  0  0  0
   36.5760   27.4030   42.7570 C   0  0  0  0  0  0  0  0  0  0  0  0
   35.9450   26.5800   43.0700 H   0  0  0  0  0  0  0  0  0  0  0  0
   37.4930   27.8290   43.6790 C   0  0  0  0  0  3  0  0  0  0  0  0
   38.3110   28.8740   43.3090 C   0  0  0  0  0  3  0  0  0  0  0  0
   38.2180   27.8750   38.3950 C   0  0  0  0  0  0  0  0  0  0  0  0
   39.3560   28.3080   38.1380 O   0  0  0  0  0  0  0  0  0  0  0  0
   38.0990   24.2950   37.6050 C   0  0  0  0  0  0  0  0  0  0  0  0
   37.8550   23.6740   38.8580 C   0  0  0  0  0  0  0  0  0  0  0  0
   37.7210   24.5380   39.9450 C   0  0  0  0  0  0  0  0  0  0  0  0
   37.8380   25.8460   39.6860 N   0  0  0  0  0  0  0  0  0  0  0  0
   38.0650   26.4290   38.5270 C   0  0  0  0  0  0  0  0  0  0  0  0
   38.1970   25.6010   37.4500 N   0  0  0  0  0  0  0  0  0  0  0  0
   38.2040   23.6620   36.7480 H   0  0  0  0  0  0  0  0  0  0  0  0
   37.7720   22.6070   38.9990 H   0  0  0  0  0  0  0  0  0  0  0  0
   37.4710   23.9190   41.2490 C   0  0  0  0  0  0  0  0  0  0  0  0
   38.4690   24.2600   42.1470 F   0  0  0  0  0  0  0  0  0  0  0  0
   37.7170   22.5650   41.0530 F   0  0  0  0  0  0  0  0  0  0  0  0
   36.2420   24.1570   41.7510 F   0  0  0  0  0  0  0  0  0  0  0  0
  1  7  1  6  0  0  0
  1  6  1  0  0  0  0
  2  8  1  0  0  0  0
  2  3  1  0  0  0  0
  2  1  1  0  0  0  0
  3  4  1  0  0  0  0
  4  5  1  0  0  0  0
  4 12  1  0  0  0  0
  4 13  1  0  0  0  0
  5 15  1  0  0  0  0
  6 16  1  6  0  0  0
  6  5  1  0  0  0  0
  6 19  1  0  0  0  0
  9  2  1  0  0  0  0
 10  3  1  0  0  0  0
 11  3  1  0  0  0  0
 14  5  1  0  0  0  0
 17 18  1  0  0  0  0
 18 25  1  0  0  0  0
 19 20  1  0  0  0  0
 19 18  2  0  0  0  0
 20 22  2  0  0  0  0
 21 20  1  0  0  0  0
 22 23  1  0  0  0  0
 22 24  1  0  0  0  0
 25 24  2  0  0  0  0
 26 32  1  0  0  0  0
 26  1  1  0  0  0  0
 27 26  2  0  0  0  0
 28 29  1  0  0  0  0
 29 35  1  0  0  0  0
 29 30  2  0  0  0  0
 30 36  1  0  0  0  0
 31 30  1  0  0  0  0
 32 31  2  0  0  0  0
 33 28  2  0  0  0  0
 33 32  1  0  0  0  0
 34 28  1  0  0  0  0
 36 39  1  0  0  0  0
 36 37  1  0  0  0  0
 38 36  1  0  0  0  0
M  END
>  <minimizedAffinity>
-5.67725706

$$$$
