
 OpenBabel03252503523D

 21 22  0  0  0  0  0  0  0  0999 V2000
   36.8580   28.4110   41.9040 C   0  0  0  0  0  0  0  0  0  0  0  0
   36.1560   28.2140   40.7020 C   0  0  0  0  0  0  0  0  0  0  0  0
   35.9050   29.3030   39.8670 C   0  0  0  0  0  0  0  0  0  0  0  0
   36.3650   30.5040   40.2810 N   0  0  0  0  0  0  0  0  0  0  0  0
   37.0330   30.6850   41.4280 C   0  0  0  0  0  0  0  0  0  0  0  0
   37.2780   29.6410   42.2370 N   0  0  0  0  0  0  0  0  0  0  0  0
   35.8270   27.2390   40.4460 H   0  0  0  0  0  0  0  0  0  0  0  0
   37.3800   31.6810   41.7100 H   0  0  0  0  0  0  0  0  0  0  0  0
   37.6520   29.4800   37.5040 Cl  0  0  0  0  0  0  0  0  0  0  0  0
   35.9010   29.2230   37.4340 C   0  0  0  0  0  0  0  0  0  0  0  0
   35.1830   29.1570   38.6100 C   0  0  0  0  0  0  0  0  0  0  0  0
   33.8370   28.9570   38.4820 C   0  0  0  0  0  0  0  0  0  0  0  0
   33.2420   28.9010   39.3830 H   0  0  0  0  0  0  0  0  0  0  0  0
   33.1990   28.8250   37.2650 C   0  0  0  0  0  0  0  0  0  0  0  0
   32.1260   28.6680   37.2220 H   0  0  0  0  0  0  0  0  0  0  0  0
   33.9870   28.9030   36.1350 C   0  0  0  0  0  3  0  0  0  0  0  0
   35.3480   29.1020   36.1770 C   0  0  0  0  0  3  0  0  0  0  0  0
   37.0960   27.2120   42.7550 C   0  0  0  0  0  0  0  0  0  0  0  0
   38.3250   27.2820   43.3890 F   0  0  0  0  0  0  0  0  0  0  0  0
   36.0740   27.1210   43.6800 F   0  0  0  0  0  0  0  0  0  0  0  0
   37.0130   26.0620   41.9730 F   0  0  0  0  0  0  0  0  0  0  0  0
  1  6  1  0  0  0  0
  1 18  1  0  0  0  0
  2  1  2  0  0  0  0
  3  4  2  0  0  0  0
  3  2  1  0  0  0  0
  4  5  1  0  0  0  0
  5  8  1  0  0  0  0
  5  6  2  0  0  0  0
  7  2  1  0  0  0  0
 10  9  1  0  0  0  0
 10 11  1  0  0  0  0
 11  3  1  0  0  0  0
 12 11  2  0  0  0  0
 12 13  1  0  0  0  0
 14 12  1  0  0  0  0
 15 14  1  0  0  0  0
 16 17  1  0  0  0  0
 16 14  2  0  0  0  0
 17 10  2  0  0  0  0
 18 19  1  0  0  0  0
 18 20  1  0  0  0  0
 21 18  1  0  0  0  0
M  END
>  <minimizedAffinity>
-5.05854225

$$$$

 OpenBabel03252503523D

 21 22  0  0  0  0  0  0  0  0999 V2000
   38.5310   32.1110   39.6850 C   0  0  0  0  0  0  0  0  0  0  0  0
   38.3760   31.2410   40.7780 C   0  0  0  0  0  0  0  0  0  0  0  0
   38.2810   29.8670   40.5540 C   0  0  0  0  0  0  0  0  0  0  0  0
   38.3460   29.4560   39.2690 N   0  0  0  0  0  0  0  0  0  0  0  0
   38.4930   30.2900   38.2320 C   0  0  0  0  0  0  0  0  0  0  0  0
   38.5840   31.6140   38.4400 N   0  0  0  0  0  0  0  0  0  0  0  0
   38.3340   31.6410   41.7590 H   0  0  0  0  0  0  0  0  0  0  0  0
   38.5380   29.8980   37.2140 H   0  0  0  0  0  0  0  0  0  0  0  0
   35.5040   28.9500   40.8920 Cl  0  0  0  0  0  0  0  0  0  0  0  0
   36.8600   28.4210   41.9010 C   0  0  0  0  0  0  0  0  0  0  0  0
   38.1210   28.9190   41.6490 C   0  0  0  0  0  0  0  0  0  0  0  0
   39.1200   28.4680   42.4660 C   0  0  0  0  0  0  0  0  0  0  0  0
   40.1220   28.8380   42.2980 H   0  0  0  0  0  0  0  0  0  0  0  0
   38.9150   27.5670   43.4920 C   0  0  0  0  0  0  0  0  0  0  0  0
   39.7470   27.2430   44.1120 H   0  0  0  0  0  0  0  0  0  0  0  0
   37.6260   27.1160   43.6800 C   0  0  0  0  0  3  0  0  0  0  0  0
   36.5650   27.5200   42.9030 C   0  0  0  0  0  3  0  0  0  0  0  0
   38.6260   33.5660   39.9850 C   0  0  0  0  0  0  0  0  0  0  0  0
   39.6670   34.1560   39.2890 F   0  0  0  0  0  0  0  0  0  0  0  0
   37.4220   34.1610   39.6580 F   0  0  0  0  0  0  0  0  0  0  0  0
   38.7870   33.7500   41.3570 F   0  0  0  0  0  0  0  0  0  0  0  0
  1 18  1  0  0  0  0
  1  2  1  0  0  0  0
  2  7  1  0  0  0  0
  3  2  2  0  0  0  0
  3 11  1  0  0  0  0
  4  3  1  0  0  0  0
  5  6  1  0  0  0  0
  5  4  2  0  0  0  0
  6  1  2  0  0  0  0
  8  5  1  0  0  0  0
  9 10  1  0  0  0  0
 10 17  1  0  0  0  0
 11 10  2  0  0  0  0
 11 12  1  0  0  0  0
 12 14  2  0  0  0  0
 13 12  1  0  0  0  0
 14 16  1  0  0  0  0
 14 15  1  0  0  0  0
 17 16  2  0  0  0  0
 18 21  1  0  0  0  0
 19 18  1  0  0  0  0
 20 18  1  0  0  0  0
M  END
>  <minimizedAffinity>
-4.92146111

$$$$

 OpenBabel03252503523D

 21 22  0  0  0  0  0  0  0  0999 V2000
   38.0660   30.6180   41.2470 C   0  0  0  0  0  0  0  0  0  0  0  0
   38.1770   29.2180   41.2990 C   0  0  0  0  0  0  0  0  0  0  0  0
   37.0610   28.4300   41.0130 C   0  0  0  0  0  0  0  0  0  0  0  0
   35.9210   29.0830   40.6990 N   0  0  0  0  0  0  0  0  0  0  0  0
   35.8220   30.4170   40.6520 C   0  0  0  0  0  0  0  0  0  0  0  0
   36.8920   31.1820   40.9260 N   0  0  0  0  0  0  0  0  0  0  0  0
   39.1080   28.7790   41.5530 H   0  0  0  0  0  0  0  0  0  0  0  0
   34.8720   30.8880   40.3930 H   0  0  0  0  0  0  0  0  0  0  0  0
   36.4300   27.3160   43.6650 Cl  0  0  0  0  0  0  0  0  0  0  0  0
   36.8410   26.3410   42.2440 C   0  0  0  0  0  0  0  0  0  0  0  0
   37.1190   26.9740   41.0510 C   0  0  0  0  0  0  0  0  0  0  0  0
   37.4270   26.1610   39.9960 C   0  0  0  0  0  0  0  0  0  0  0  0
   37.6520   26.6230   39.0450 H   0  0  0  0  0  0  0  0  0  0  0  0
   37.4690   24.7840   40.0840 C   0  0  0  0  0  0  0  0  0  0  0  0
   37.7210   24.1860   39.2130 H   0  0  0  0  0  0  0  0  0  0  0  0
   37.1780   24.2270   41.3110 C   0  0  0  0  0  3  0  0  0  0  0  0
   36.8580   24.9740   42.4220 C   0  0  0  0  0  3  0  0  0  0  0  0
   39.2890   31.4070   41.5610 C   0  0  0  0  0  0  0  0  0  0  0  0
   39.0510   32.7670   41.4530 F   0  0  0  0  0  0  0  0  0  0  0  0
   39.7020   31.0850   42.8400 F   0  0  0  0  0  0  0  0  0  0  0  0
   40.3230   31.0210   40.7130 F   0  0  0  0  0  0  0  0  0  0  0  0
  1  2  1  0  0  0  0
  1 18  1  0  0  0  0
  2  7  1  0  0  0  0
  3 11  1  0  0  0  0
  3  2  2  0  0  0  0
  4  3  1  0  0  0  0
  5  4  2  0  0  0  0
  5  6  1  0  0  0  0
  6  1  2  0  0  0  0
  8  5  1  0  0  0  0
 10 17  1  0  0  0  0
 10  9  1  0  0  0  0
 11 10  2  0  0  0  0
 12 14  2  0  0  0  0
 12 11  1  0  0  0  0
 13 12  1  0  0  0  0
 14 16  1  0  0  0  0
 15 14  1  0  0  0  0
 16 17  2  0  0  0  0
 18 20  1  0  0  0  0
 19 18  1  0  0  0  0
 21 18  1  0  0  0  0
M  END
>  <minimizedAffinity>
-4.8240304

$$$$

 OpenBabel03252503523D

 21 22  0  0  0  0  0  0  0  0999 V2000
   36.9860   27.6080   41.5340 C   0  0  0  0  0  0  0  0  0  0  0  0
   37.4330   28.9380   41.4630 C   0  0  0  0  0  0  0  0  0  0  0  0
   37.4990   29.5760   40.2230 C   0  0  0  0  0  0  0  0  0  0  0  0
   37.1200   28.8510   39.1480 N   0  0  0  0  0  0  0  0  0  0  0  0
   36.6950   27.5830   39.2220 C   0  0  0  0  0  0  0  0  0  0  0  0
   36.6300   26.9630   40.4130 N   0  0  0  0  0  0  0  0  0  0  0  0
   37.7130   29.4410   42.3530 H   0  0  0  0  0  0  0  0  0  0  0  0
   36.4030   27.0480   38.3170 H   0  0  0  0  0  0  0  0  0  0  0  0
   40.4260   29.8130   40.0110 Cl  0  0  0  0  0  0  0  0  0  0  0  0
   39.3080   31.1860   39.9830 C   0  0  0  0  0  0  0  0  0  0  0  0
   37.9530   30.9540   40.0910 C   0  0  0  0  0  0  0  0  0  0  0  0
   37.1500   32.0590   40.0610 C   0  0  0  0  0  0  0  0  0  0  0  0
   36.0810   31.9150   40.1440 H   0  0  0  0  0  0  0  0  0  0  0  0
   37.6300   33.3470   39.9340 C   0  0  0  0  0  0  0  0  0  0  0  0
   36.9450   34.1900   39.9170 H   0  0  0  0  0  0  0  0  0  0  0  0
   38.9970   33.4960   39.8320 C   0  0  0  0  0  3  0  0  0  0  0  0
   39.8750   32.4360   39.8530 C   0  0  0  0  0  3  0  0  0  0  0  0
   36.9370   26.9800   42.8830 C   0  0  0  0  0  0  0  0  0  0  0  0
   38.1030   27.2160   43.5910 F   0  0  0  0  0  0  0  0  0  0  0  0
   35.8450   27.4840   43.5620 F   0  0  0  0  0  0  0  0  0  0  0  0
   36.7120   25.6120   42.7520 F   0  0  0  0  0  0  0  0  0  0  0  0
  1 18  1  0  0  0  0
  2  1  1  0  0  0  0
  2  7  1  0  0  0  0
  3  2  2  0  0  0  0
  4  5  2  0  0  0  0
  4  3  1  0  0  0  0
  5  6  1  0  0  0  0
  6  1  2  0  0  0  0
  8  5  1  0  0  0  0
 10  9  1  0  0  0  0
 10 11  1  0  0  0  0
 11  3  1  0  0  0  0
 12 11  2  0  0  0  0
 12 13  1  0  0  0  0
 14 12  1  0  0  0  0
 15 14  1  0  0  0  0
 16 17  1  0  0  0  0
 16 14  2  0  0  0  0
 17 10  2  0  0  0  0
 18 20  1  0  0  0  0
 18 19  1  0  0  0  0
 21 18  1  0  0  0  0
M  END
>  <minimizedAffinity>
-4.80174017

$$$$

 OpenBabel03252503523D

 21 22  0  0  0  0  0  0  0  0999 V2000
   37.1620   26.7600   41.5850 C   0  0  0  0  0  0  0  0  0  0  0  0
   37.3490   28.0130   40.9770 C   0  0  0  0  0  0  0  0  0  0  0  0
   37.4320   29.1570   41.7720 C   0  0  0  0  0  0  0  0  0  0  0  0
   37.3240   28.9770   43.1060 N   0  0  0  0  0  0  0  0  0  0  0  0
   37.1450   27.7810   43.6800 C   0  0  0  0  0  0  0  0  0  0  0  0
   37.0640   26.6750   42.9200 N   0  0  0  0  0  0  0  0  0  0  0  0
   37.4260   28.0730   39.9210 H   0  0  0  0  0  0  0  0  0  0  0  0
   37.0630   27.6990   44.7650 H   0  0  0  0  0  0  0  0  0  0  0  0
   40.0640   30.3170   42.4010 Cl  0  0  0  0  0  0  0  0  0  0  0  0
   38.8250   31.1230   41.4260 C   0  0  0  0  0  0  0  0  0  0  0  0
   37.6260   30.4810   41.1960 C   0  0  0  0  0  0  0  0  0  0  0  0
   36.7170   31.1610   40.4340 C   0  0  0  0  0  0  0  0  0  0  0  0
   35.7650   30.6880   40.2340 H   0  0  0  0  0  0  0  0  0  0  0  0
   36.9500   32.4170   39.9110 C   0  0  0  0  0  0  0  0  0  0  0  0
   36.1900   32.9110   39.3120 H   0  0  0  0  0  0  0  0  0  0  0  0
   38.1730   32.9910   40.1850 C   0  0  0  0  0  3  0  0  0  0  0  0
   39.1420   32.3750   40.9430 C   0  0  0  0  0  3  0  0  0  0  0  0
   37.0810   25.5760   40.6870 C   0  0  0  0  0  0  0  0  0  0  0  0
   36.5740   24.4730   41.3530 F   0  0  0  0  0  0  0  0  0  0  0  0
   36.2850   25.9000   39.6050 F   0  0  0  0  0  0  0  0  0  0  0  0
   38.3430   25.2970   40.1670 F   0  0  0  0  0  0  0  0  0  0  0  0
  1  6  1  0  0  0  0
  2  1  2  0  0  0  0
  2  3  1  0  0  0  0
  3  4  2  0  0  0  0
  4  5  1  0  0  0  0
  5  8  1  0  0  0  0
  6  5  2  0  0  0  0
  7  2  1  0  0  0  0
 10  9  1  0  0  0  0
 11 10  1  0  0  0  0
 11  3  1  0  0  0  0
 12 11  2  0  0  0  0
 13 12  1  0  0  0  0
 14 16  2  0  0  0  0
 14 12  1  0  0  0  0
 15 14  1  0  0  0  0
 16 17  1  0  0  0  0
 17 10  2  0  0  0  0
 18 19  1  0  0  0  0
 18  1  1  0  0  0  0
 20 18  1  0  0  0  0
 21 18  1  0  0  0  0
M  END
>  <minimizedAffinity>
-4.79431677

$$$$

 OpenBabel03252503523D

 21 22  0  0  0  0  0  0  0  0999 V2000
   37.1310   30.6380   38.2430 C   0  0  0  0  0  0  0  0  0  0  0  0
   37.2840   29.6510   39.2310 C   0  0  0  0  0  0  0  0  0  0  0  0
   37.3700   30.0280   40.5720 C   0  0  0  0  0  0  0  0  0  0  0  0
   37.2980   31.3510   40.8350 N   0  0  0  0  0  0  0  0  0  0  0  0
   37.1530   32.2870   39.8890 C   0  0  0  0  0  0  0  0  0  0  0  0
   37.0700   31.9310   38.5960 N   0  0  0  0  0  0  0  0  0  0  0  0
   37.3320   28.6310   38.9450 H   0  0  0  0  0  0  0  0  0  0  0  0
   37.1020   33.3420   40.1640 H   0  0  0  0  0  0  0  0  0  0  0  0
   40.1520   29.7710   41.5020 Cl  0  0  0  0  0  0  0  0  0  0  0  0
   38.7920   28.8430   42.1530 C   0  0  0  0  0  0  0  0  0  0  0  0
   37.5290   29.0480   41.6380 C   0  0  0  0  0  0  0  0  0  0  0  0
   36.5270   28.2980   42.1870 C   0  0  0  0  0  0  0  0  0  0  0  0
   35.5230   28.4310   41.8080 H   0  0  0  0  0  0  0  0  0  0  0  0
   36.7290   27.3790   43.1980 C   0  0  0  0  0  0  0  0  0  0  0  0
   35.8950   26.8090   43.5980 H   0  0  0  0  0  0  0  0  0  0  0  0
   38.0210   27.2330   43.6590 C   0  0  0  0  0  3  0  0  0  0  0  0
   39.0850   27.9480   43.1600 C   0  0  0  0  0  3  0  0  0  0  0  0
   37.0450   30.1760   36.8300 C   0  0  0  0  0  0  0  0  0  0  0  0
   38.0600   29.2830   36.5310 F   0  0  0  0  0  0  0  0  0  0  0  0
   35.8080   29.5920   36.6340 F   0  0  0  0  0  0  0  0  0  0  0  0
   37.0920   31.2760   35.9770 F   0  0  0  0  0  0  0  0  0  0  0  0
  1  6  2  0  0  0  0
  1  2  1  0  0  0  0
  2  3  2  0  0  0  0
  3  4  1  0  0  0  0
  3 11  1  0  0  0  0
  5  8  1  0  0  0  0
  5  4  2  0  0  0  0
  6  5  1  0  0  0  0
  7  2  1  0  0  0  0
  9 10  1  0  0  0  0
 10 17  1  0  0  0  0
 11 10  2  0  0  0  0
 11 12  1  0  0  0  0
 12 14  2  0  0  0  0
 13 12  1  0  0  0  0
 14 15  1  0  0  0  0
 14 16  1  0  0  0  0
 17 16  2  0  0  0  0
 18  1  1  0  0  0  0
 19 18  1  0  0  0  0
 20 18  1  0  0  0  0
 21 18  1  0  0  0  0
M  END
>  <minimizedAffinity>
-4.65658522

$$$$

 OpenBabel03252503523D

 21 22  0  0  0  0  0  0  0  0999 V2000
   37.6610   26.6810   42.2910 C   0  0  0  0  0  0  0  0  0  0  0  0
   37.8080   27.4660   41.1340 C   0  0  0  0  0  0  0  0  0  0  0  0
   37.8360   28.8560   41.2460 C   0  0  0  0  0  0  0  0  0  0  0  0
   37.7150   29.3670   42.4910 N   0  0  0  0  0  0  0  0  0  0  0  0
   37.5750   28.6140   43.5890 C   0  0  0  0  0  0  0  0  0  0  0  0
   37.5470   27.2750   43.4890 N   0  0  0  0  0  0  0  0  0  0  0  0
   37.8970   26.9900   40.1910 H   0  0  0  0  0  0  0  0  0  0  0  0
   37.4810   29.0860   44.5690 H   0  0  0  0  0  0  0  0  0  0  0  0
   35.2630   29.6450   40.0500 Cl  0  0  0  0  0  0  0  0  0  0  0  0
   36.8450   30.1510   39.4380 C   0  0  0  0  0  0  0  0  0  0  0  0
   37.9860   29.7180   40.0810 C   0  0  0  0  0  0  0  0  0  0  0  0
   39.1730   30.1470   39.5540 C   0  0  0  0  0  0  0  0  0  0  0  0
   40.0880   29.8270   40.0320 H   0  0  0  0  0  0  0  0  0  0  0  0
   39.2620   30.9650   38.4460 C   0  0  0  0  0  0  0  0  0  0  0  0
   40.2330   31.2750   38.0690 H   0  0  0  0  0  0  0  0  0  0  0  0
   38.0760   31.3550   37.8600 C   0  0  0  0  0  3  0  0  0  0  0  0
   36.8420   30.9670   38.3270 C   0  0  0  0  0  3  0  0  0  0  0  0
   37.6380   25.2040   42.1100 C   0  0  0  0  0  0  0  0  0  0  0  0
   37.8120   24.8570   40.7820 F   0  0  0  0  0  0  0  0  0  0  0  0
   38.6340   24.6510   42.8930 F   0  0  0  0  0  0  0  0  0  0  0  0
   36.4370   24.6930   42.5980 F   0  0  0  0  0  0  0  0  0  0  0  0
  1  6  1  0  0  0  0
  2  3  1  0  0  0  0
  2  1  2  0  0  0  0
  3  4  2  0  0  0  0
  4  5  1  0  0  0  0
  5  8  1  0  0  0  0
  6  5  2  0  0  0  0
  7  2  1  0  0  0  0
 10  9  1  0  0  0  0
 10 11  1  0  0  0  0
 11  3  1  0  0  0  0
 12 13  1  0  0  0  0
 12 11  2  0  0  0  0
 14 12  1  0  0  0  0
 15 14  1  0  0  0  0
 16 17  1  0  0  0  0
 16 14  2  0  0  0  0
 17 10  2  0  0  0  0
 18  1  1  0  0  0  0
 18 21  1  0  0  0  0
 18 20  1  0  0  0  0
 19 18  1  0  0  0  0
M  END
>  <minimizedAffinity>
-4.65533447

$$$$

 OpenBabel03252503523D

 21 22  0  0  0  0  0  0  0  0999 V2000
   36.7980   29.0030   41.5080 C   0  0  0  0  0  0  0  0  0  0  0  0
   36.9790   27.7220   40.9580 C   0  0  0  0  0  0  0  0  0  0  0  0
   37.7600   26.7870   41.6370 C   0  0  0  0  0  0  0  0  0  0  0  0
   38.3050   27.1870   42.8070 N   0  0  0  0  0  0  0  0  0  0  0  0
   38.1300   28.4100   43.3250 C   0  0  0  0  0  0  0  0  0  0  0  0
   37.3780   29.3150   42.6760 N   0  0  0  0  0  0  0  0  0  0  0  0
   36.5170   27.4830   40.0340 H   0  0  0  0  0  0  0  0  0  0  0  0
   38.5970   28.6750   44.2750 H   0  0  0  0  0  0  0  0  0  0  0  0
   40.1990   26.5690   40.0020 Cl  0  0  0  0  0  0  0  0  0  0  0  0
   39.0960   25.2250   40.3330 C   0  0  0  0  0  0  0  0  0  0  0  0
   37.9810   25.4450   41.1150 C   0  0  0  0  0  0  0  0  0  0  0  0
   37.1740   24.3630   41.3300 C   0  0  0  0  0  0  0  0  0  0  0  0
   36.2900   24.4990   41.9380 H   0  0  0  0  0  0  0  0  0  0  0  0
   37.4270   23.1090   40.8110 C   0  0  0  0  0  0  0  0  0  0  0  0
   36.7510   22.2840   41.0140 H   0  0  0  0  0  0  0  0  0  0  0  0
   38.5620   22.9700   40.0400 C   0  0  0  0  0  3  0  0  0  0  0  0
   39.4260   24.0080   39.7750 C   0  0  0  0  0  3  0  0  0  0  0  0
   35.9540   29.9590   40.7390 C   0  0  0  0  0  0  0  0  0  0  0  0
   35.8640   31.1810   41.3820 F   0  0  0  0  0  0  0  0  0  0  0  0
   36.5010   30.1100   39.4790 F   0  0  0  0  0  0  0  0  0  0  0  0
   34.6880   29.4110   40.5460 F   0  0  0  0  0  0  0  0  0  0  0  0
  1  6  1  0  0  0  0
  2  1  2  0  0  0  0
  2  3  1  0  0  0  0
  3  4  2  0  0  0  0
  4  5  1  0  0  0  0
  5  8  1  0  0  0  0
  6  5  2  0  0  0  0
  7  2  1  0  0  0  0
  9 10  1  0  0  0  0
 10 11  1  0  0  0  0
 11 12  2  0  0  0  0
 11  3  1  0  0  0  0
 12 13  1  0  0  0  0
 14 15  1  0  0  0  0
 14 12  1  0  0  0  0
 16 14  2  0  0  0  0
 17 16  1  0  0  0  0
 17 10  2  0  0  0  0
 18 19  1  0  0  0  0
 18  1  1  0  0  0  0
 20 18  1  0  0  0  0
 21 18  1  0  0  0  0
M  END
>  <minimizedAffinity>
-4.62490273

$$$$

 OpenBabel03252503523D

 21 22  0  0  0  0  0  0  0  0999 V2000
   35.0330   29.0050   38.0690 C   0  0  0  0  0  0  0  0  0  0  0  0
   35.3690   28.6330   39.3820 C   0  0  0  0  0  0  0  0  0  0  0  0
   36.6810   28.7950   39.8280 C   0  0  0  0  0  0  0  0  0  0  0  0
   37.5630   29.3110   38.9430 N   0  0  0  0  0  0  0  0  0  0  0  0
   37.2370   29.6630   37.6930 C   0  0  0  0  0  0  0  0  0  0  0  0
   35.9750   29.5090   37.2580 N   0  0  0  0  0  0  0  0  0  0  0  0
   34.6200   28.2350   40.0180 H   0  0  0  0  0  0  0  0  0  0  0  0
   37.9940   30.0740   37.0230 H   0  0  0  0  0  0  0  0  0  0  0  0
   36.9990   25.8900   40.1890 Cl  0  0  0  0  0  0  0  0  0  0  0  0
   37.2650   27.0900   41.4640 C   0  0  0  0  0  0  0  0  0  0  0  0
   37.0860   28.4280   41.1780 C   0  0  0  0  0  0  0  0  0  0  0  0
   37.3080   29.2980   42.2080 C   0  0  0  0  0  0  0  0  0  0  0  0
   37.1760   30.3540   42.0210 H   0  0  0  0  0  0  0  0  0  0  0  0
   37.6910   28.8980   43.4730 C   0  0  0  0  0  0  0  0  0  0  0  0
   37.8540   29.6340   44.2560 H   0  0  0  0  0  0  0  0  0  0  0  0
   37.8500   27.5440   43.6790 C   0  0  0  0  0  3  0  0  0  0  0  0
   37.6450   26.6030   42.6970 C   0  0  0  0  0  3  0  0  0  0  0  0
   33.6180   28.8090   37.6500 C   0  0  0  0  0  0  0  0  0  0  0  0
   33.3590   27.4810   37.3590 F   0  0  0  0  0  0  0  0  0  0  0  0
   32.7940   29.2550   38.6650 F   0  0  0  0  0  0  0  0  0  0  0  0
   33.3430   29.6160   36.5480 F   0  0  0  0  0  0  0  0  0  0  0  0
  1  2  1  0  0  0  0
  2  3  2  0  0  0  0
  2  7  1  0  0  0  0
  3 11  1  0  0  0  0
  4  3  1  0  0  0  0
  5  4  2  0  0  0  0
  6  5  1  0  0  0  0
  6  1  2  0  0  0  0
  8  5  1  0  0  0  0
  9 10  1  0  0  0  0
 10 17  1  0  0  0  0
 11 10  2  0  0  0  0
 11 12  1  0  0  0  0
 12 14  2  0  0  0  0
 13 12  1  0  0  0  0
 14 16  1  0  0  0  0
 14 15  1  0  0  0  0
 17 16  2  0  0  0  0
 18  1  1  0  0  0  0
 18 20  1  0  0  0  0
 19 18  1  0  0  0  0
 21 18  1  0  0  0  0
M  END
>  <minimizedAffinity>
-4.62143803

$$$$
