
 OpenBabel03242516073D

 36 39  0  0  0  0  0  0  0  0999 V2000
   38.2540   29.0230   37.9820 Cl  0  0  0  0  0  0  0  0  0  0  0  0
   36.6510   29.0410   38.6560 C   0  0  0  0  0  0  0  0  0  0  0  0
   35.5330   28.9440   37.8820 C   0  0  0  0  0  0  0  0  0  0  0  0
   34.3340   28.9710   38.5360 C   0  0  0  0  0  0  0  0  0  0  0  0
   34.2200   29.0860   39.8790 C   0  0  0  0  0  0  0  0  0  0  0  0
   35.3450   29.1830   40.6610 C   0  0  0  0  0  0  0  0  0  0  0  0
   36.5800   29.1580   40.0200 C   0  0  0  0  0  0  0  0  0  0  0  0
   33.4240   28.8960   37.9440 H   0  0  0  0  0  0  0  0  0  0  0  0
   33.2440   29.1010   40.3440 H   0  0  0  0  0  0  0  0  0  0  0  0
   35.2280   29.2740   41.7290 H   0  0  0  0  0  0  0  0  0  0  0  0
   35.6670   27.5780   34.3490 C   0  0  0  0  0  0  0  0  0  0  0  0
   35.4860   27.6510   35.7370 C   0  0  0  0  0  0  0  0  0  0  0  0
   35.7070   28.8230   36.4500 C   0  0  0  0  0  0  0  0  0  0  0  0
   36.1140   29.8820   35.6850 N   0  0  0  0  0  0  0  0  0  0  0  0
   36.2860   29.8070   34.3620 C   0  0  0  0  0  0  0  0  0  0  0  0
   36.0680   28.6780   33.7050 N   0  0  0  0  0  0  0  0  0  0  0  0
   35.4650   26.6100   33.8960 H   0  0  0  0  0  0  0  0  0  0  0  0
   35.1620   26.7730   36.2820 H   0  0  0  0  0  0  0  0  0  0  0  0
   36.6100   30.7300   33.8990 H   0  0  0  0  0  0  0  0  0  0  0  0
   37.7990   29.2630   40.8530 C   0  0  0  0  0  0  0  0  0  0  0  0
   38.4290   28.1530   41.4350 C   0  0  0  0  0  0  0  0  0  0  0  0
   39.8370   28.8460   42.3250 S   0  0  0  0  0  0  0  0  0  0  0  0
   39.3540   30.6180   41.7590 C   0  0  0  0  0  0  0  0  0  0  0  0
   38.4440   30.3660   41.1590 N   0  0  0  0  0  0  0  0  0  0  0  0
   40.0460   31.8200   42.0850 N   0  0  0  0  0  0  0  0  0  0  0  0
   40.8870   31.9090   41.4520 H   0  0  0  0  0  0  0  0  0  0  0  0
   39.8280   32.5280   42.7960 H   0  0  0  0  0  0  0  0  0  0  0  0
   36.4260   27.2640   43.5630 Cl  0  0  0  0  0  0  0  0  0  0  0  0
   37.1510   26.2520   42.3100 C   0  0  0  0  0  0  0  0  0  0  0  0
   38.0640   26.7240   41.3640 C   0  0  0  0  0  0  0  0  0  0  0  0
   38.5790   25.8580   40.4200 C   0  0  0  0  0  0  0  0  0  0  0  0
   39.2870   26.2440   39.6910 H   0  0  0  0  0  0  0  0  0  0  0  0
   38.1690   24.5310   40.4400 C   0  0  0  0  0  0  0  0  0  0  0  0
   38.5850   23.8550   39.6870 H   0  0  0  0  0  0  0  0  0  0  0  0
   37.2640   24.0830   41.3880 C   0  0  0  0  0  3  0  0  0  0  0  0
   36.7440   24.9390   42.3340 C   0  0  0  0  0  3  0  0  0  0  0  0
  1  2  1  0  0  0  0
  2  7  1  0  0  0  0
  3  4  1  0  0  0  0
  3  2  2  0  0  0  0
  4  5  2  0  0  0  0
  5  9  1  0  0  0  0
  5  6  1  0  0  0  0
  6 10  1  0  0  0  0
  7  6  2  0  0  0  0
  7 20  1  0  0  0  0
  8  4  1  0  0  0  0
 11 12  1  0  0  0  0
 12 18  1  0  0  0  0
 12 13  2  0  0  0  0
 13  3  1  0  0  0  0
 14 13  1  0  0  0  0
 15 14  2  0  0  0  0
 16 11  2  0  0  0  0
 16 15  1  0  0  0  0
 17 11  1  0  0  0  0
 19 15  1  0  0  0  0
 20 24  1  0  0  0  0
 20 21  2  0  0  0  0
 21 22  1  0  0  0  0
 23 25  1  0  0  0  0
 23 22  1  0  0  0  0
 24 23  2  0  0  0  0
 25 27  1  0  0  0  0
 26 25  1  0  0  0  0
 29 36  1  0  0  0  0
 29 28  1  0  0  0  0
 30 21  1  0  0  0  0
 30 29  2  0  0  0  0
 31 33  2  0  0  0  0
 31 30  1  0  0  0  0
 32 31  1  0  0  0  0
 33 35  1  0  0  0  0
 34 33  1  0  0  0  0
 35 36  2  0  0  0  0
M  END
>  <minimizedAffinity>
-6.16303349

$$$$

 OpenBabel03242516073D

 36 39  0  0  0  0  0  0  0  0999 V2000
   40.6930   30.4790   38.5270 Cl  0  0  0  0  0  0  0  0  0  0  0  0
   39.4300   31.5580   39.0420 C   0  0  0  0  0  0  0  0  0  0  0  0
   39.6920   32.7540   39.6420 C   0  0  0  0  0  0  0  0  0  0  0  0
   38.6110   33.5080   39.9990 C   0  0  0  0  0  0  0  0  0  0  0  0
   37.3320   33.1240   39.7840 C   0  0  0  0  0  0  0  0  0  0  0  0
   37.0650   31.9200   39.1800 C   0  0  0  0  0  0  0  0  0  0  0  0
   38.1500   31.1310   38.8060 C   0  0  0  0  0  0  0  0  0  0  0  0
   38.7910   34.4670   40.4800 H   0  0  0  0  0  0  0  0  0  0  0  0
   36.5130   33.7620   40.0870 H   0  0  0  0  0  0  0  0  0  0  0  0
   36.0370   31.6360   39.0200 H   0  0  0  0  0  0  0  0  0  0  0  0
   43.1270   33.2310   41.1750 C   0  0  0  0  0  0  0  0  0  0  0  0
   41.7840   32.8590   41.0170 C   0  0  0  0  0  0  0  0  0  0  0  0
   41.0780   33.1190   39.8490 C   0  0  0  0  0  0  0  0  0  0  0  0
   41.8020   33.7630   38.8830 N   0  0  0  0  0  0  0  0  0  0  0  0
   43.0820   34.1160   39.0380 C   0  0  0  0  0  0  0  0  0  0  0  0
   43.7320   33.8560   40.1620 N   0  0  0  0  0  0  0  0  0  0  0  0
   43.5780   32.9780   42.1310 H   0  0  0  0  0  0  0  0  0  0  0  0
   41.2700   32.3520   41.8240 H   0  0  0  0  0  0  0  0  0  0  0  0
   43.5150   34.6180   38.1830 H   0  0  0  0  0  0  0  0  0  0  0  0
   37.8730   29.8320   38.1540 C   0  0  0  0  0  0  0  0  0  0  0  0
   37.7540   28.6270   38.8620 C   0  0  0  0  0  0  0  0  0  0  0  0
   37.4240   27.3860   37.5940 S   0  0  0  0  0  0  0  0  0  0  0  0
   37.4970   28.7320   36.2240 C   0  0  0  0  0  0  0  0  0  0  0  0
   37.7070   29.6230   36.8680 N   0  0  0  0  0  0  0  0  0  0  0  0
   37.3170   28.5160   34.8280 N   0  0  0  0  0  0  0  0  0  0  0  0
   36.2830   28.4480   34.6250 H   0  0  0  0  0  0  0  0  0  0  0  0
   38.0200   28.4320   34.0830 H   0  0  0  0  0  0  0  0  0  0  0  0
   35.1320   28.9610   40.3930 Cl  0  0  0  0  0  0  0  0  0  0  0  0
   36.6990   28.5160   41.0730 C   0  0  0  0  0  0  0  0  0  0  0  0
   37.8630   28.3790   40.3130 C   0  0  0  0  0  0  0  0  0  0  0  0
   39.0460   28.0260   40.9330 C   0  0  0  0  0  0  0  0  0  0  0  0
   39.9410   27.9230   40.3250 H   0  0  0  0  0  0  0  0  0  0  0  0
   39.0410   27.8160   42.3070 C   0  0  0  0  0  0  0  0  0  0  0  0
   39.9850   27.5370   42.7850 H   0  0  0  0  0  0  0  0  0  0  0  0
   37.8760   27.9580   43.0410 C   0  0  0  0  0  3  0  0  0  0  0  0
   36.6910   28.3100   42.4330 C   0  0  0  0  0  3  0  0  0  0  0  0
  1  2  1  0  0  0  0
  2  3  1  0  0  0  0
  3 13  1  0  0  0  0
  3  4  2  0  0  0  0
  4  8  1  0  0  0  0
  5  4  1  0  0  0  0
  5  9  1  0  0  0  0
  6  5  2  0  0  0  0
  7  2  2  0  0  0  0
  7  6  1  0  0  0  0
 10  6  1  0  0  0  0
 11 17  1  0  0  0  0
 12 11  1  0  0  0  0
 12 18  1  0  0  0  0
 13 12  2  0  0  0  0
 14 15  2  0  0  0  0
 14 13  1  0  0  0  0
 15 16  1  0  0  0  0
 16 11  2  0  0  0  0
 19 15  1  0  0  0  0
 20  7  1  0  0  0  0
 20 21  2  0  0  0  0
 21 30  1  0  0  0  0
 22 21  1  0  0  0  0
 23 24  2  0  0  0  0
 23 22  1  0  0  0  0
 24 20  1  0  0  0  0
 25 23  1  0  0  0  0
 26 25  1  0  0  0  0
 27 25  1  0  0  0  0
 28 29  1  0  0  0  0
 29 36  1  0  0  0  0
 30 31  1  0  0  0  0
 30 29  2  0  0  0  0
 31 33  2  0  0  0  0
 32 31  1  0  0  0  0
 33 34  1  0  0  0  0
 33 35  1  0  0  0  0
 36 35  2  0  0  0  0
M  END
>  <minimizedAffinity>
-6.15018749

$$$$

 OpenBabel03242516073D

 36 39  0  0  0  0  0  0  0  0999 V2000
   40.0020   29.0320   39.4450 Cl  0  0  0  0  0  0  0  0  0  0  0  0
   39.3280   28.5770   40.9820 C   0  0  0  0  0  0  0  0  0  0  0  0
   39.5010   27.3350   41.5150 C   0  0  0  0  0  0  0  0  0  0  0  0
   38.9190   27.1050   42.7290 C   0  0  0  0  0  0  0  0  0  0  0  0
   38.2020   28.0350   43.3990 C   0  0  0  0  0  0  0  0  0  0  0  0
   38.0260   29.2880   42.8640 C   0  0  0  0  0  0  0  0  0  0  0  0
   38.6090   29.5490   41.6270 C   0  0  0  0  0  0  0  0  0  0  0  0
   39.0400   26.1210   43.1790 H   0  0  0  0  0  0  0  0  0  0  0  0
   37.7630   27.7990   44.3580 H   0  0  0  0  0  0  0  0  0  0  0  0
   37.4500   30.0130   43.4170 H   0  0  0  0  0  0  0  0  0  0  0  0
   40.5200   24.5640   39.1370 C   0  0  0  0  0  0  0  0  0  0  0  0
   39.7310   25.4780   39.8480 C   0  0  0  0  0  0  0  0  0  0  0  0
   40.2770   26.3740   40.7590 C   0  0  0  0  0  0  0  0  0  0  0  0
   41.6350   26.2820   40.8960 N   0  0  0  0  0  0  0  0  0  0  0  0
   42.3840   25.4090   40.2160 C   0  0  0  0  0  0  0  0  0  0  0  0
   41.8380   24.5650   39.3530 N   0  0  0  0  0  0  0  0  0  0  0  0
   39.9860   23.9110   38.4510 H   0  0  0  0  0  0  0  0  0  0  0  0
   38.6590   25.4970   39.6910 H   0  0  0  0  0  0  0  0  0  0  0  0
   43.4420   25.4600   40.4360 H   0  0  0  0  0  0  0  0  0  0  0  0
   38.4260   30.8950   41.0410 C   0  0  0  0  0  0  0  0  0  0  0  0
   37.3980   31.2070   40.1380 C   0  0  0  0  0  0  0  0  0  0  0  0
   37.6460   32.9530   39.7550 S   0  0  0  0  0  0  0  0  0  0  0  0
   39.1710   33.0180   40.9220 C   0  0  0  0  0  0  0  0  0  0  0  0
   39.1680   31.9540   41.2700 N   0  0  0  0  0  0  0  0  0  0  0  0
   39.9830   34.1610   41.1770 N   0  0  0  0  0  0  0  0  0  0  0  0
   39.4910   34.7760   41.8800 H   0  0  0  0  0  0  0  0  0  0  0  0
   40.8990   34.4130   40.7860 H   0  0  0  0  0  0  0  0  0  0  0  0
   37.6710   30.6010   37.1560 Cl  0  0  0  0  0  0  0  0  0  0  0  0
   36.3980   30.0250   38.2370 C   0  0  0  0  0  0  0  0  0  0  0  0
   36.3330   30.3410   39.5960 C   0  0  0  0  0  0  0  0  0  0  0  0
   35.2990   29.8440   40.3650 C   0  0  0  0  0  0  0  0  0  0  0  0
   35.2660   30.1000   41.4200 H   0  0  0  0  0  0  0  0  0  0  0  0
   34.3450   29.0370   39.7560 C   0  0  0  0  0  0  0  0  0  0  0  0
   33.5320   28.6490   40.3760 H   0  0  0  0  0  0  0  0  0  0  0  0
   34.4290   28.7360   38.4070 C   0  0  0  0  0  3  0  0  0  0  0  0
   35.4560   29.2270   37.6310 C   0  0  0  0  0  3  0  0  0  0  0  0
  1  2  1  0  0  0  0
  2  3  2  0  0  0  0
  2  7  1  0  0  0  0
  3  4  1  0  0  0  0
  4  8  1  0  0  0  0
  4  5  2  0  0  0  0
  5  9  1  0  0  0  0
  6  5  1  0  0  0  0
  6 10  1  0  0  0  0
  7  6  2  0  0  0  0
 11 16  2  0  0  0  0
 11 12  1  0  0  0  0
 12 13  2  0  0  0  0
 13 14  1  0  0  0  0
 13  3  1  0  0  0  0
 15 19  1  0  0  0  0
 15 14  2  0  0  0  0
 16 15  1  0  0  0  0
 17 11  1  0  0  0  0
 18 12  1  0  0  0  0
 20 24  1  0  0  0  0
 20  7  1  0  0  0  0
 21 20  2  0  0  0  0
 22 21  1  0  0  0  0
 22 23  1  0  0  0  0
 23 25  1  0  0  0  0
 23 24  2  0  0  0  0
 25 26  1  0  0  0  0
 27 25  1  0  0  0  0
 28 29  1  0  0  0  0
 29 30  1  0  0  0  0
 30 21  1  0  0  0  0
 30 31  2  0  0  0  0
 31 32  1  0  0  0  0
 33 31  1  0  0  0  0
 33 34  1  0  0  0  0
 35 33  2  0  0  0  0
 36 29  2  0  0  0  0
 36 35  1  0  0  0  0
M  END
>  <minimizedAffinity>
-6.13678789

$$$$

 OpenBabel03242516073D

 36 39  0  0  0  0  0  0  0  0999 V2000
   39.8240   26.8660   40.4970 Cl  0  0  0  0  0  0  0  0  0  0  0  0
   38.6700   27.3020   41.7230 C   0  0  0  0  0  0  0  0  0  0  0  0
   37.5600   26.5520   41.9800 C   0  0  0  0  0  0  0  0  0  0  0  0
   36.7340   27.0040   42.9690 C   0  0  0  0  0  0  0  0  0  0  0  0
   36.9700   28.1310   43.6800 C   0  0  0  0  0  0  0  0  0  0  0  0
   38.0870   28.8870   43.4240 C   0  0  0  0  0  0  0  0  0  0  0  0
   38.9470   28.4490   42.4200 C   0  0  0  0  0  0  0  0  0  0  0  0
   35.8400   26.4260   43.1950 H   0  0  0  0  0  0  0  0  0  0  0  0
   36.2810   28.4420   44.4530 H   0  0  0  0  0  0  0  0  0  0  0  0
   38.2530   29.7810   44.0030 H   0  0  0  0  0  0  0  0  0  0  0  0
   37.6470   22.9750   40.7280 C   0  0  0  0  0  0  0  0  0  0  0  0
   37.8730   24.1100   41.5200 C   0  0  0  0  0  0  0  0  0  0  0  0
   37.3530   25.3550   41.1920 C   0  0  0  0  0  0  0  0  0  0  0  0
   36.6130   25.3730   40.0410 N   0  0  0  0  0  0  0  0  0  0  0  0
   36.4010   24.2900   39.2890 C   0  0  0  0  0  0  0  0  0  0  0  0
   36.9080   23.1130   39.6240 N   0  0  0  0  0  0  0  0  0  0  0  0
   38.1030   22.0530   41.0820 H   0  0  0  0  0  0  0  0  0  0  0  0
   38.4690   24.0240   42.4210 H   0  0  0  0  0  0  0  0  0  0  0  0
   35.7960   24.4660   38.4090 H   0  0  0  0  0  0  0  0  0  0  0  0
   40.1530   29.2560   42.1350 C   0  0  0  0  0  0  0  0  0  0  0  0
   40.1750   30.3040   41.2020 C   0  0  0  0  0  0  0  0  0  0  0  0
   41.8670   30.9280   41.2580 S   0  0  0  0  0  0  0  0  0  0  0  0
   42.3280   29.6260   42.5950 C   0  0  0  0  0  0  0  0  0  0  0  0
   41.3360   29.1170   42.6900 N   0  0  0  0  0  0  0  0  0  0  0  0
   43.6060   29.4670   43.2040 N   0  0  0  0  0  0  0  0  0  0  0  0
   43.7150   30.1960   43.9590 H   0  0  0  0  0  0  0  0  0  0  0  0
   44.3470   28.7850   43.0000 H   0  0  0  0  0  0  0  0  0  0  0  0
   40.3690   29.4480   38.2760 Cl  0  0  0  0  0  0  0  0  0  0  0  0
   39.1160   30.4640   38.9960 C   0  0  0  0  0  0  0  0  0  0  0  0
   39.0870   30.8180   40.3470 C   0  0  0  0  0  0  0  0  0  0  0  0
   38.0650   31.6180   40.8210 C   0  0  0  0  0  0  0  0  0  0  0  0
   38.0590   31.8820   41.8750 H   0  0  0  0  0  0  0  0  0  0  0  0
   37.0900   32.0500   39.9310 C   0  0  0  0  0  0  0  0  0  0  0  0
   36.2870   32.6830   40.3200 H   0  0  0  0  0  0  0  0  0  0  0  0
   37.1390   31.6870   38.5960 C   0  0  0  0  0  3  0  0  0  0  0  0
   38.1530   30.8900   38.1120 C   0  0  0  0  0  3  0  0  0  0  0  0
  1  2  1  0  0  0  0
  2  3  2  0  0  0  0
  2  7  1  0  0  0  0
  3  4  1  0  0  0  0
  4  8  1  0  0  0  0
  4  5  2  0  0  0  0
  5  9  1  0  0  0  0
  6  5  1  0  0  0  0
  6 10  1  0  0  0  0
  7  6  2  0  0  0  0
 11 17  1  0  0  0  0
 11 12  1  0  0  0  0
 12 18  1  0  0  0  0
 13 12  2  0  0  0  0
 13  3  1  0  0  0  0
 14 13  1  0  0  0  0
 15 16  1  0  0  0  0
 15 14  2  0  0  0  0
 16 11  2  0  0  0  0
 19 15  1  0  0  0  0
 20  7  1  0  0  0  0
 20 24  1  0  0  0  0
 21 22  1  0  0  0  0
 21 20  2  0  0  0  0
 22 23  1  0  0  0  0
 23 24  2  0  0  0  0
 23 25  1  0  0  0  0
 25 26  1  0  0  0  0
 27 25  1  0  0  0  0
 28 29  1  0  0  0  0
 29 30  1  0  0  0  0
 30 31  2  0  0  0  0
 30 21  1  0  0  0  0
 31 32  1  0  0  0  0
 33 34  1  0  0  0  0
 33 31  1  0  0  0  0
 35 33  2  0  0  0  0
 36 35  1  0  0  0  0
 36 29  2  0  0  0  0
M  END
>  <minimizedAffinity>
-5.9283123

$$$$

 OpenBabel03242516073D

 36 39  0  0  0  0  0  0  0  0999 V2000
   40.5270   30.5000   38.0170 Cl  0  0  0  0  0  0  0  0  0  0  0  0
   39.3270   31.4950   38.7880 C   0  0  0  0  0  0  0  0  0  0  0  0
   39.6420   32.6640   39.4140 C   0  0  0  0  0  0  0  0  0  0  0  0
   38.6070   33.3520   39.9800 C   0  0  0  0  0  0  0  0  0  0  0  0
   37.3230   32.9290   39.9420 C   0  0  0  0  0  0  0  0  0  0  0  0
   37.0020   31.7520   39.3110 C   0  0  0  0  0  0  0  0  0  0  0  0
   38.0400   31.0310   38.7260 C   0  0  0  0  0  0  0  0  0  0  0  0
   38.8290   34.2890   40.4870 H   0  0  0  0  0  0  0  0  0  0  0  0
   36.5420   33.5140   40.4070 H   0  0  0  0  0  0  0  0  0  0  0  0
   35.9720   31.4350   39.2940 H   0  0  0  0  0  0  0  0  0  0  0  0
   42.9900   34.1610   38.4550 C   0  0  0  0  0  0  0  0  0  0  0  0
   41.6410   33.7840   38.4010 C   0  0  0  0  0  0  0  0  0  0  0  0
   41.0310   33.0740   39.4270 C   0  0  0  0  0  0  0  0  0  0  0  0
   41.8560   32.7800   40.4790 N   0  0  0  0  0  0  0  0  0  0  0  0
   43.1410   33.1410   40.5260 C   0  0  0  0  0  0  0  0  0  0  0  0
   43.7000   33.8180   39.5330 N   0  0  0  0  0  0  0  0  0  0  0  0
   43.3610   34.7130   37.5950 H   0  0  0  0  0  0  0  0  0  0  0  0
   41.0440   34.0500   37.5370 H   0  0  0  0  0  0  0  0  0  0  0  0
   43.6610   32.8340   41.4240 H   0  0  0  0  0  0  0  0  0  0  0  0
   37.7060   29.7610   38.0440 C   0  0  0  0  0  0  0  0  0  0  0  0
   37.4840   28.5560   38.7280 C   0  0  0  0  0  0  0  0  0  0  0  0
   37.1240   27.3560   37.4300 S   0  0  0  0  0  0  0  0  0  0  0  0
   37.3330   28.7120   36.0850 C   0  0  0  0  0  0  0  0  0  0  0  0
   37.5750   29.5800   36.7490 N   0  0  0  0  0  0  0  0  0  0  0  0
   37.1930   28.5270   34.6790 N   0  0  0  0  0  0  0  0  0  0  0  0
   36.1660   28.5280   34.4380 H   0  0  0  0  0  0  0  0  0  0  0  0
   37.9170   28.4070   33.9590 H   0  0  0  0  0  0  0  0  0  0  0  0
   40.1930   27.5800   39.7490 Cl  0  0  0  0  0  0  0  0  0  0  0  0
   38.7330   27.8320   40.7100 C   0  0  0  0  0  0  0  0  0  0  0  0
   37.5220   28.2820   40.1780 C   0  0  0  0  0  0  0  0  0  0  0  0
   36.4310   28.4510   41.0090 C   0  0  0  0  0  0  0  0  0  0  0  0
   35.4990   28.8030   40.5770 H   0  0  0  0  0  0  0  0  0  0  0  0
   36.5740   28.1630   42.3610 C   0  0  0  0  0  0  0  0  0  0  0  0
   35.7020   28.3010   43.0070 H   0  0  0  0  0  0  0  0  0  0  0  0
   37.7830   27.7170   42.8670 C   0  0  0  0  0  3  0  0  0  0  0  0
   38.8770   27.5460   42.0480 C   0  0  0  0  0  3  0  0  0  0  0  0
  1  2  1  0  0  0  0
  2  3  1  0  0  0  0
  3 13  1  0  0  0  0
  3  4  2  0  0  0  0
  4  8  1  0  0  0  0
  5  4  1  0  0  0  0
  5  9  1  0  0  0  0
  6  5  2  0  0  0  0
  7  2  2  0  0  0  0
  7  6  1  0  0  0  0
 10  6  1  0  0  0  0
 11 16  1  0  0  0  0
 12 11  2  0  0  0  0
 12 13  1  0  0  0  0
 13 14  2  0  0  0  0
 14 15  1  0  0  0  0
 15 19  1  0  0  0  0
 16 15  2  0  0  0  0
 17 11  1  0  0  0  0
 18 12  1  0  0  0  0
 20  7  1  0  0  0  0
 20 21  2  0  0  0  0
 21 30  1  0  0  0  0
 22 21  1  0  0  0  0
 23 24  2  0  0  0  0
 23 22  1  0  0  0  0
 24 20  1  0  0  0  0
 25 23  1  0  0  0  0
 26 25  1  0  0  0  0
 27 25  1  0  0  0  0
 28 29  1  0  0  0  0
 29 36  1  0  0  0  0
 30 29  2  0  0  0  0
 30 31  1  0  0  0  0
 31 33  2  0  0  0  0
 32 31  1  0  0  0  0
 33 35  1  0  0  0  0
 33 34  1  0  0  0  0
 36 35  2  0  0  0  0
M  END
>  <minimizedAffinity>
-5.92092466

$$$$

 OpenBabel03242516073D

 36 39  0  0  0  0  0  0  0  0999 V2000
   37.9230   27.6430   39.2860 Cl  0  0  0  0  0  0  0  0  0  0  0  0
   37.7090   27.9240   40.9890 C   0  0  0  0  0  0  0  0  0  0  0  0
   37.7100   29.1770   41.5270 C   0  0  0  0  0  0  0  0  0  0  0  0
   37.5330   29.2610   42.8790 C   0  0  0  0  0  0  0  0  0  0  0  0
   37.3630   28.1820   43.6760 C   0  0  0  0  0  0  0  0  0  0  0  0
   37.3620   26.9190   43.1370 C   0  0  0  0  0  0  0  0  0  0  0  0
   37.5400   26.8050   41.7610 C   0  0  0  0  0  0  0  0  0  0  0  0
   37.5280   30.2490   43.3350 H   0  0  0  0  0  0  0  0  0  0  0  0
   37.2260   28.3070   44.7410 H   0  0  0  0  0  0  0  0  0  0  0  0
   37.2250   26.0740   43.7930 H   0  0  0  0  0  0  0  0  0  0  0  0
   37.0770   32.1140   39.2150 C   0  0  0  0  0  0  0  0  0  0  0  0
   36.8520   31.0330   40.0790 C   0  0  0  0  0  0  0  0  0  0  0  0
   37.8950   30.3000   40.6310 C   0  0  0  0  0  0  0  0  0  0  0  0
   39.1420   30.7230   40.2600 N   0  0  0  0  0  0  0  0  0  0  0  0
   39.3510   31.7530   39.4360 C   0  0  0  0  0  0  0  0  0  0  0  0
   38.3390   32.4360   38.9220 N   0  0  0  0  0  0  0  0  0  0  0  0
   36.1860   32.6140   38.8420 H   0  0  0  0  0  0  0  0  0  0  0  0
   35.8370   30.7510   40.3310 H   0  0  0  0  0  0  0  0  0  0  0  0
   40.3940   31.9650   39.2380 H   0  0  0  0  0  0  0  0  0  0  0  0
   37.5420   25.4480   41.1690 C   0  0  0  0  0  0  0  0  0  0  0  0
   38.6960   24.6560   41.0660 C   0  0  0  0  0  0  0  0  0  0  0  0
   38.1310   23.1330   40.2810 S   0  0  0  0  0  0  0  0  0  0  0  0
   36.3350   23.8110   40.2000 C   0  0  0  0  0  0  0  0  0  0  0  0
   36.5060   24.8120   40.6730 N   0  0  0  0  0  0  0  0  0  0  0  0
   35.2040   23.1290   39.6650 N   0  0  0  0  0  0  0  0  0  0  0  0
   34.8510   22.4420   40.3840 H   0  0  0  0  0  0  0  0  0  0  0  0
   34.7510   23.2330   38.7480 H   0  0  0  0  0  0  0  0  0  0  0  0
   40.5610   25.4520   38.7820 Cl  0  0  0  0  0  0  0  0  0  0  0  0
   40.9840   25.3260   40.4920 C   0  0  0  0  0  0  0  0  0  0  0  0
   40.0780   24.9550   41.4890 C   0  0  0  0  0  0  0  0  0  0  0  0
   40.4990   24.8840   42.8020 C   0  0  0  0  0  0  0  0  0  0  0  0
   39.7790   24.5950   43.5640 H   0  0  0  0  0  0  0  0  0  0  0  0
   41.8230   25.1850   43.0940 C   0  0  0  0  0  0  0  0  0  0  0  0
   42.1430   25.1240   44.1380 H   0  0  0  0  0  0  0  0  0  0  0  0
   42.7050   25.5490   42.0900 C   0  0  0  0  0  3  0  0  0  0  0  0
   42.2950   25.6240   40.7770 C   0  0  0  0  0  3  0  0  0  0  0  0
  1  2  1  0  0  0  0
  2  3  2  0  0  0  0
  2  7  1  0  0  0  0
  3  4  1  0  0  0  0
  4  8  1  0  0  0  0
  4  5  2  0  0  0  0
  5  9  1  0  0  0  0
  6  5  1  0  0  0  0
  6 10  1  0  0  0  0
  7  6  2  0  0  0  0
 11 12  1  0  0  0  0
 12 18  1  0  0  0  0
 12 13  2  0  0  0  0
 13  3  1  0  0  0  0
 14 13  1  0  0  0  0
 15 14  2  0  0  0  0
 16 11  2  0  0  0  0
 16 15  1  0  0  0  0
 17 11  1  0  0  0  0
 19 15  1  0  0  0  0
 20  7  1  0  0  0  0
 21 20  2  0  0  0  0
 21 30  1  0  0  0  0
 22 21  1  0  0  0  0
 23 22  1  0  0  0  0
 23 24  2  0  0  0  0
 24 20  1  0  0  0  0
 25 23  1  0  0  0  0
 25 26  1  0  0  0  0
 27 25  1  0  0  0  0
 28 29  1  0  0  0  0
 29 36  2  0  0  0  0
 29 30  1  0  0  0  0
 30 31  2  0  0  0  0
 31 33  1  0  0  0  0
 31 32  1  0  0  0  0
 33 34  1  0  0  0  0
 35 33  2  0  0  0  0
 36 35  1  0  0  0  0
M  END
>  <minimizedAffinity>
-5.89216709

$$$$

 OpenBabel03242516073D

 36 39  0  0  0  0  0  0  0  0999 V2000
   40.0940   27.8870   39.3060 Cl  0  0  0  0  0  0  0  0  0  0  0  0
   39.9170   29.0130   40.6190 C   0  0  0  0  0  0  0  0  0  0  0  0
   40.3940   30.2890   40.5560 C   0  0  0  0  0  0  0  0  0  0  0  0
   40.1910   31.0720   41.6560 C   0  0  0  0  0  0  0  0  0  0  0  0
   39.5540   30.6420   42.7690 C   0  0  0  0  0  0  0  0  0  0  0  0
   39.0720   29.3580   42.8360 C   0  0  0  0  0  0  0  0  0  0  0  0
   39.2660   28.5380   41.7270 C   0  0  0  0  0  0  0  0  0  0  0  0
   40.5610   32.0950   41.6330 H   0  0  0  0  0  0  0  0  0  0  0  0
   39.4200   31.3060   43.6120 H   0  0  0  0  0  0  0  0  0  0  0  0
   38.5680   29.0380   43.7340 H   0  0  0  0  0  0  0  0  0  0  0  0
   43.0280   30.8890   37.8960 C   0  0  0  0  0  0  0  0  0  0  0  0
   42.4140   30.4720   39.0850 C   0  0  0  0  0  0  0  0  0  0  0  0
   41.0690   30.7010   39.3420 C   0  0  0  0  0  0  0  0  0  0  0  0
   40.4070   31.3620   38.3440 N   0  0  0  0  0  0  0  0  0  0  0  0
   40.9960   31.7580   37.2110 C   0  0  0  0  0  0  0  0  0  0  0  0
   42.2810   31.5270   36.9900 N   0  0  0  0  0  0  0  0  0  0  0  0
   44.0860   30.6560   37.8030 H   0  0  0  0  0  0  0  0  0  0  0  0
   42.9980   29.9530   39.8360 H   0  0  0  0  0  0  0  0  0  0  0  0
   40.3390   32.2690   36.5200 H   0  0  0  0  0  0  0  0  0  0  0  0
   38.7520   27.1520   41.7880 C   0  0  0  0  0  0  0  0  0  0  0  0
   37.5340   26.7580   41.2110 C   0  0  0  0  0  0  0  0  0  0  0  0
   37.4060   24.9970   41.5830 S   0  0  0  0  0  0  0  0  0  0  0  0
   39.0900   25.0440   42.5070 C   0  0  0  0  0  0  0  0  0  0  0  0
   39.3330   26.1280   42.3700 N   0  0  0  0  0  0  0  0  0  0  0  0
   39.7300   23.9390   43.1390 N   0  0  0  0  0  0  0  0  0  0  0  0
   40.2160   23.3610   42.4020 H   0  0  0  0  0  0  0  0  0  0  0  0
   39.7600   23.6820   44.1340 H   0  0  0  0  0  0  0  0  0  0  0  0
   37.3070   26.0210   38.2560 Cl  0  0  0  0  0  0  0  0  0  0  0  0
   36.3970   27.2770   39.1020 C   0  0  0  0  0  0  0  0  0  0  0  0
   36.5510   27.5620   40.4610 C   0  0  0  0  0  0  0  0  0  0  0  0
   35.7940   28.5640   41.0380 C   0  0  0  0  0  0  0  0  0  0  0  0
   35.9270   28.7710   42.0960 H   0  0  0  0  0  0  0  0  0  0  0  0
   34.8960   29.2630   40.2410 C   0  0  0  0  0  0  0  0  0  0  0  0
   34.3040   30.0530   40.7110 H   0  0  0  0  0  0  0  0  0  0  0  0
   34.7610   28.9640   38.8960 C   0  0  0  0  0  3  0  0  0  0  0  0
   35.5100   27.9670   38.3100 C   0  0  0  0  0  3  0  0  0  0  0  0
  1  2  1  0  0  0  0
  2  7  1  0  0  0  0
  3  2  2  0  0  0  0
  3  4  1  0  0  0  0
  4  5  2  0  0  0  0
  5  6  1  0  0  0  0
  5  9  1  0  0  0  0
  6 10  1  0  0  0  0
  7 20  1  0  0  0  0
  7  6  2  0  0  0  0
  8  4  1  0  0  0  0
 11 12  1  0  0  0  0
 12 13  2  0  0  0  0
 12 18  1  0  0  0  0
 13  3  1  0  0  0  0
 14 13  1  0  0  0  0
 15 14  2  0  0  0  0
 16 15  1  0  0  0  0
 16 11  2  0  0  0  0
 17 11  1  0  0  0  0
 19 15  1  0  0  0  0
 20 24  1  0  0  0  0
 21 22  1  0  0  0  0
 21 20  2  0  0  0  0
 22 23  1  0  0  0  0
 23 25  1  0  0  0  0
 24 23  2  0  0  0  0
 25 27  1  0  0  0  0
 26 25  1  0  0  0  0
 28 29  1  0  0  0  0
 29 30  1  0  0  0  0
 30 31  2  0  0  0  0
 30 21  1  0  0  0  0
 31 32  1  0  0  0  0
 33 34  1  0  0  0  0
 33 31  1  0  0  0  0
 35 33  2  0  0  0  0
 36 35  1  0  0  0  0
 36 29  2  0  0  0  0
M  END
>  <minimizedAffinity>
-5.83674097

$$$$

 OpenBabel03242516073D

 36 39  0  0  0  0  0  0  0  0999 V2000
   40.6610   30.1900   39.8320 Cl  0  0  0  0  0  0  0  0  0  0  0  0
   39.3890   31.3730   39.9040 C   0  0  0  0  0  0  0  0  0  0  0  0
   39.5820   32.6740   39.5430 C   0  0  0  0  0  0  0  0  0  0  0  0
   38.5010   33.5030   39.6470 C   0  0  0  0  0  0  0  0  0  0  0  0
   37.2880   33.0930   40.0810 C   0  0  0  0  0  0  0  0  0  0  0  0
   37.0910   31.7840   40.4460 C   0  0  0  0  0  0  0  0  0  0  0  0
   38.1770   30.9170   40.3490 C   0  0  0  0  0  0  0  0  0  0  0  0
   38.6260   34.5460   39.3650 H   0  0  0  0  0  0  0  0  0  0  0  0
   36.4660   33.7930   40.1430 H   0  0  0  0  0  0  0  0  0  0  0  0
   36.1150   31.4810   40.7890 H   0  0  0  0  0  0  0  0  0  0  0  0
   42.5790   33.4400   37.3510 C   0  0  0  0  0  0  0  0  0  0  0  0
   41.2910   33.0550   37.7520 C   0  0  0  0  0  0  0  0  0  0  0  0
   40.9000   33.0630   39.0840 C   0  0  0  0  0  0  0  0  0  0  0  0
   41.8700   33.4730   39.9570 N   0  0  0  0  0  0  0  0  0  0  0  0
   43.0960   33.8380   39.5710 C   0  0  0  0  0  0  0  0  0  0  0  0
   43.4450   33.8220   38.2930 N   0  0  0  0  0  0  0  0  0  0  0  0
   42.7750   33.3940   36.2830 H   0  0  0  0  0  0  0  0  0  0  0  0
   40.5700   32.7410   37.0070 H   0  0  0  0  0  0  0  0  0  0  0  0
   43.7500   34.1370   40.3790 H   0  0  0  0  0  0  0  0  0  0  0  0
   37.9760   29.5040   40.7400 C   0  0  0  0  0  0  0  0  0  0  0  0
   37.4040   28.5450   39.8900 C   0  0  0  0  0  0  0  0  0  0  0  0
   37.4000   27.0240   40.8590 S   0  0  0  0  0  0  0  0  0  0  0  0
   38.2090   27.9390   42.3430 C   0  0  0  0  0  0  0  0  0  0  0  0
   38.2890   28.9610   41.8940 N   0  0  0  0  0  0  0  0  0  0  0  0
   38.5540   27.3590   43.5980 N   0  0  0  0  0  0  0  0  0  0  0  0
   39.4680   26.8420   43.4930 H   0  0  0  0  0  0  0  0  0  0  0  0
   38.0530   27.3940   44.4950 H   0  0  0  0  0  0  0  0  0  0  0  0
   34.4160   29.1540   39.6960 Cl  0  0  0  0  0  0  0  0  0  0  0  0
   35.5450   28.9760   38.3490 C   0  0  0  0  0  0  0  0  0  0  0  0
   36.9050   28.6980   38.5090 C   0  0  0  0  0  0  0  0  0  0  0  0
   37.7130   28.5760   37.3950 C   0  0  0  0  0  0  0  0  0  0  0  0
   38.7680   28.3600   37.5400 H   0  0  0  0  0  0  0  0  0  0  0  0
   37.1420   28.7370   36.1390 C   0  0  0  0  0  0  0  0  0  0  0  0
   37.7940   28.6390   35.2650 H   0  0  0  0  0  0  0  0  0  0  0  0
   35.7920   29.0130   36.0030 C   0  0  0  0  0  3  0  0  0  0  0  0
   34.9770   29.1350   37.1070 C   0  0  0  0  0  3  0  0  0  0  0  0
  1  2  1  0  0  0  0
  2  7  1  0  0  0  0
  3  4  1  0  0  0  0
  3  2  2  0  0  0  0
  4  5  2  0  0  0  0
  5  9  1  0  0  0  0
  5  6  1  0  0  0  0
  6 10  1  0  0  0  0
  7  6  2  0  0  0  0
  7 20  1  0  0  0  0
  8  4  1  0  0  0  0
 11 12  2  0  0  0  0
 11 16  1  0  0  0  0
 12 13  1  0  0  0  0
 13  3  1  0  0  0  0
 13 14  2  0  0  0  0
 15 14  1  0  0  0  0
 15 19  1  0  0  0  0
 16 15  2  0  0  0  0
 17 11  1  0  0  0  0
 18 12  1  0  0  0  0
 20 24  1  0  0  0  0
 21 20  2  0  0  0  0
 21 22  1  0  0  0  0
 22 23  1  0  0  0  0
 23 25  1  0  0  0  0
 24 23  2  0  0  0  0
 25 27  1  0  0  0  0
 26 25  1  0  0  0  0
 29 30  1  0  0  0  0
 29 28  1  0  0  0  0
 30 21  1  0  0  0  0
 31 32  1  0  0  0  0
 31 30  2  0  0  0  0
 33 31  1  0  0  0  0
 34 33  1  0  0  0  0
 35 33  2  0  0  0  0
 35 36  1  0  0  0  0
 36 29  2  0  0  0  0
M  END
>  <minimizedAffinity>
-5.73799276

$$$$

 OpenBabel03242516073D

 36 39  0  0  0  0  0  0  0  0999 V2000
   38.4110   28.2470   39.3660 Cl  0  0  0  0  0  0  0  0  0  0  0  0
   37.9820   28.0000   41.0330 C   0  0  0  0  0  0  0  0  0  0  0  0
   37.6020   26.7830   41.5150 C   0  0  0  0  0  0  0  0  0  0  0  0
   37.2890   26.7240   42.8440 C   0  0  0  0  0  0  0  0  0  0  0  0
   37.3420   27.7930   43.6700 C   0  0  0  0  0  0  0  0  0  0  0  0
   37.7240   29.0210   43.1860 C   0  0  0  0  0  0  0  0  0  0  0  0
   38.0490   29.1090   41.8350 C   0  0  0  0  0  0  0  0  0  0  0  0
   36.9820   25.7650   43.2560 H   0  0  0  0  0  0  0  0  0  0  0  0
   37.0840   27.6890   44.7140 H   0  0  0  0  0  0  0  0  0  0  0  0
   37.7580   29.8580   43.8640 H   0  0  0  0  0  0  0  0  0  0  0  0
   36.4810   24.2890   38.8900 C   0  0  0  0  0  0  0  0  0  0  0  0
   36.4780   25.3790   39.7720 C   0  0  0  0  0  0  0  0  0  0  0  0
   37.5610   25.6690   40.5910 C   0  0  0  0  0  0  0  0  0  0  0  0
   38.6150   24.8070   40.4610 N   0  0  0  0  0  0  0  0  0  0  0  0
   38.6140   23.7690   39.6200 C   0  0  0  0  0  0  0  0  0  0  0  0
   37.5680   23.5130   38.8490 N   0  0  0  0  0  0  0  0  0  0  0  0
   35.5790   24.1570   38.2980 H   0  0  0  0  0  0  0  0  0  0  0  0
   35.6090   26.0220   39.8240 H   0  0  0  0  0  0  0  0  0  0  0  0
   39.5220   23.1800   39.6330 H   0  0  0  0  0  0  0  0  0  0  0  0
   38.4620   30.4270   41.3030 C   0  0  0  0  0  0  0  0  0  0  0  0
   39.8030   30.8300   41.2070 C   0  0  0  0  0  0  0  0  0  0  0  0
   39.7260   32.4910   40.5060 S   0  0  0  0  0  0  0  0  0  0  0  0
   37.8080   32.4020   40.4390 C   0  0  0  0  0  0  0  0  0  0  0  0
   37.6670   31.3750   40.8630 N   0  0  0  0  0  0  0  0  0  0  0  0
   36.9370   33.4240   39.9620 N   0  0  0  0  0  0  0  0  0  0  0  0
   36.9180   33.3890   38.9080 H   0  0  0  0  0  0  0  0  0  0  0  0
   36.3880   34.1140   40.4900 H   0  0  0  0  0  0  0  0  0  0  0  0
   41.4130   29.7930   38.8280 Cl  0  0  0  0  0  0  0  0  0  0  0  0
   41.8130   29.5960   40.5370 C   0  0  0  0  0  0  0  0  0  0  0  0
   41.0290   30.0990   41.5790 C   0  0  0  0  0  0  0  0  0  0  0  0
   41.4220   29.8970   42.8880 C   0  0  0  0  0  0  0  0  0  0  0  0
   40.8000   30.2960   43.6840 H   0  0  0  0  0  0  0  0  0  0  0  0
   42.5950   29.1930   43.1290 C   0  0  0  0  0  0  0  0  0  0  0  0
   42.8950   29.0410   44.1710 H   0  0  0  0  0  0  0  0  0  0  0  0
   43.3560   28.7030   42.0820 C   0  0  0  0  0  3  0  0  0  0  0  0
   42.9740   28.8990   40.7720 C   0  0  0  0  0  3  0  0  0  0  0  0
  1  2  1  0  0  0  0
  2  3  2  0  0  0  0
  2  7  1  0  0  0  0
  3  4  1  0  0  0  0
  4  8  1  0  0  0  0
  4  5  2  0  0  0  0
  5  9  1  0  0  0  0
  6  5  1  0  0  0  0
  6 10  1  0  0  0  0
  7  6  2  0  0  0  0
 11 12  1  0  0  0  0
 12 18  1  0  0  0  0
 12 13  2  0  0  0  0
 13  3  1  0  0  0  0
 14 13  1  0  0  0  0
 15 19  1  0  0  0  0
 15 14  2  0  0  0  0
 16 11  2  0  0  0  0
 16 15  1  0  0  0  0
 17 11  1  0  0  0  0
 20  7  1  0  0  0  0
 21 20  2  0  0  0  0
 21 30  1  0  0  0  0
 22 21  1  0  0  0  0
 23 22  1  0  0  0  0
 23 24  2  0  0  0  0
 24 20  1  0  0  0  0
 25 23  1  0  0  0  0
 25 27  1  0  0  0  0
 26 25  1  0  0  0  0
 28 29  1  0  0  0  0
 29 36  2  0  0  0  0
 29 30  1  0  0  0  0
 30 31  2  0  0  0  0
 31 33  1  0  0  0  0
 31 32  1  0  0  0  0
 33 34  1  0  0  0  0
 35 33  2  0  0  0  0
 36 35  1  0  0  0  0
M  END
>  <minimizedAffinity>
-5.73473644

$$$$
