
 OpenBabel03252507313D

 49 52  0  0  1  0  0  0  0  0999 V2000
   47.0690   32.4600   45.3250 C   0  0  0  0  0  0  0  0  0  0  0  0
   46.0060   33.1390   45.9110 C   0  0  0  0  0  0  0  0  0  0  0  0
   45.3740   34.1870   45.2020 C   0  0  0  0  0  0  0  0  0  0  0  0
   45.8790   34.4730   43.9370 N   0  0  0  0  0  0  0  0  0  0  0  0
   46.9060   33.7820   43.4320 C   0  0  0  0  0  0  0  0  0  0  0  0
   47.4880   32.7960   44.1110 N   0  0  0  0  0  0  0  0  0  0  0  0
   45.4970   33.1130   46.8500 H   0  0  0  0  0  0  0  0  0  0  0  0
   44.5560   34.8040   45.4920 H   0  0  0  0  0  0  0  0  0  0  0  0
   47.6670   31.3770   46.0780 C   0  0  2  0  0  0  0  0  0  0  0  0
   47.2580   29.9870   45.5010 C   0  0  0  0  0  0  0  0  0  0  0  0
   48.0180   28.9160   46.2040 C   0  0  0  0  0  0  0  0  0  0  0  0
   48.1110   29.0430   47.6830 C   0  0  0  0  0  0  0  0  0  0  0  0
   48.2600   30.3950   48.1620 C   0  0  0  0  0  0  0  0  0  0  0  0
   47.3100   31.4070   47.4820 C   0  0  2  0  0  0  0  0  0  0  0  0
   48.7740   31.3590   45.9320 H   0  0  0  0  0  0  0  0  0  0  0  0
   47.5590   30.0440   44.4350 H   0  0  0  0  0  0  0  0  0  0  0  0
   46.1750   29.8630   45.5000 H   0  0  0  0  0  0  0  0  0  0  0  0
   48.9680   28.7870   45.6490 H   0  0  0  0  0  0  0  0  0  0  0  0
   47.4570   27.9560   46.0070 H   0  0  0  0  0  0  0  0  0  0  0  0
   47.7070   28.2370   48.3000 H   0  0  0  0  0  0  0  0  0  0  0  0
   49.2080   28.6790   47.8270 H   0  0  0  0  0  0  0  0  0  0  0  0
   49.2610   30.8860   48.1080 H   0  0  0  0  0  0  0  0  0  0  0  0
   47.9540   30.4480   49.2380 H   0  0  0  0  0  0  0  0  0  0  0  0
   47.5390   32.3150   48.0410 H   0  0  0  0  0  0  0  0  0  0  0  0
   45.9330   30.9400   47.6610 N   0  0  0  0  0  0  0  0  0  0  0  0
   45.2080   30.5900   48.8130 C   0  0  0  0  0  0  0  0  0  0  0  0
   44.7160   31.4590   49.6190 O   0  0  0  0  0  0  0  0  0  0  0  0
   45.0520   29.1860   49.0170 N   0  0  0  0  0  0  0  0  0  0  0  0
   45.2810   30.7340   46.8130 H   0  0  0  0  0  0  0  0  0  0  0  0
   44.5880   28.5460   48.3350 H   0  0  0  0  0  0  0  0  0  0  0  0
   45.2140   28.3610   49.6380 H   0  0  0  0  0  0  0  0  0  0  0  0
   47.4020   34.1500   42.1020 C   0  0  0  0  0  0  0  0  0  0  0  0
   48.2690   35.2060   41.9340 C   0  0  0  0  0  0  0  0  0  0  0  0
   48.7710   35.6020   40.7150 C   0  0  0  0  0  0  0  0  0  0  0  0
   48.3390   34.8500   39.6280 C   0  0  0  0  0  0  0  0  0  0  0  0
   47.4740   33.7960   39.7890 C   0  0  0  0  0  0  0  0  0  0  0  0
   47.0120   33.4530   41.0230 N   0  0  0  0  0  0  0  0  0  0  0  0
   48.5820   35.7690   42.8080 H   0  0  0  0  0  0  0  0  0  0  0  0
   49.4460   36.4260   40.5860 H   0  0  0  0  0  0  0  0  0  0  0  0
   48.7240   35.1470   38.6630 H   0  0  0  0  0  0  0  0  0  0  0  0
   49.2800   31.5670   38.9690 Cl  0  0  0  0  0  0  0  0  0  0  0  0
   47.7520   31.9390   38.1730 C   0  0  0  0  0  0  0  0  0  0  0  0
   47.0150   33.0000   38.6580 C   0  0  0  0  0  0  0  0  0  0  0  0
   45.8390   33.2120   37.9730 C   0  0  0  0  0  0  0  0  0  0  0  0
   45.1950   34.0240   38.2810 H   0  0  0  0  0  0  0  0  0  0  0  0
   45.4320   32.4400   36.9040 C   0  0  0  0  0  0  0  0  0  0  0  0
   44.4920   32.6770   36.4220 H   0  0  0  0  0  0  0  0  0  0  0  0
   46.2170   31.3930   36.4690 C   0  0  0  0  0  3  0  0  0  0  0  0
   47.4050   31.1290   37.1150 C   0  0  0  0  0  3  0  0  0  0  0  0
  1  2  1  0  0  0  0
  1  9  1  0  0  0  0
  2  7  1  0  0  0  0
  3  8  1  0  0  0  0
  3  2  2  0  0  0  0
  4  3  1  0  0  0  0
  5  4  2  0  0  0  0
  5  6  1  0  0  0  0
  6  1  2  0  0  0  0
  9 15  1  6  0  0  0
  9 14  1  0  0  0  0
 10  9  1  0  0  0  0
 10 11  1  0  0  0  0
 11 12  1  0  0  0  0
 12 21  1  0  0  0  0
 12 13  1  0  0  0  0
 12 20  1  0  0  0  0
 13 23  1  0  0  0  0
 14 25  1  0  0  0  0
 14 24  1  1  0  0  0
 14 13  1  0  0  0  0
 16 10  1  0  0  0  0
 17 10  1  0  0  0  0
 18 11  1  0  0  0  0
 19 11  1  0  0  0  0
 22 13  1  0  0  0  0
 25 26  1  0  0  0  0
 26 28  1  0  0  0  0
 26 27  2  0  0  0  0
 28 31  1  0  0  0  0
 29 25  1  0  0  0  0
 30 28  1  0  0  0  0
 32  5  1  0  0  0  0
 33 32  1  0  0  0  0
 33 38  1  0  0  0  0
 34 33  2  0  0  0  0
 35 36  2  0  0  0  0
 35 34  1  0  0  0  0
 36 37  1  0  0  0  0
 37 32  2  0  0  0  0
 39 34  1  0  0  0  0
 40 35  1  0  0  0  0
 42 43  1  0  0  0  0
 42 41  1  0  0  0  0
 43 36  1  0  0  0  0
 44 45  1  0  0  0  0
 44 43  2  0  0  0  0
 46 44  1  0  0  0  0
 47 46  1  0  0  0  0
 48 46  2  0  0  0  0
 48 49  1  0  0  0  0
 49 42  2  0  0  0  0
M  END
>  <minimizedAffinity>
-6.30010414

>  <minimizedRMSD>
0.766715646

$$$$
