
 OpenBabel03252509233D

 27 29  0  0  1  0  0  0  0  0999 V2000
   46.7070   35.0320   42.3140 C   0  0  1  0  0  0  0  0  0  0  0  0
   48.1840   34.5610   42.4130 C   0  0  0  0  0  0  0  0  0  0  0  0
   47.0520   33.8390   41.6290 C   0  0  2  0  0  0  0  0  0  0  0  0
   46.6090   36.0420   41.8710 H   0  0  0  0  0  0  0  0  0  0  0  0
   48.9080   35.1240   41.8220 H   0  0  0  0  0  0  0  0  0  0  0  0
   48.5500   34.1180   43.3310 H   0  0  0  0  0  0  0  0  0  0  0  0
   46.7860   32.8640   42.1080 H   0  0  0  0  0  0  0  0  0  0  0  0
   48.9920   35.7250   40.2110 Cl  0  0  0  0  0  0  0  0  0  0  0  0
   48.0420   34.4880   39.4090 C   0  0  0  0  0  0  0  0  0  0  0  0
   47.2090   33.7090   40.1630 C   0  0  0  0  0  0  0  0  0  0  0  0
   46.4380   32.7140   39.5600 C   0  0  0  0  0  0  0  0  0  0  0  0
   45.7470   32.0380   40.0440 H   0  0  0  0  0  0  0  0  0  0  0  0
   46.5380   32.5400   38.1940 C   0  0  0  0  0  0  0  0  0  0  0  0
   45.9740   31.7940   37.6540 H   0  0  0  0  0  0  0  0  0  0  0  0
   47.3950   33.3480   37.4480 C   0  0  0  0  0  3  0  0  0  0  0  0
   48.1690   34.3430   38.0400 C   0  0  0  0  0  3  0  0  0  0  0  0
   44.4370   35.6390   45.2460 C   0  0  0  0  0  0  0  0  0  0  0  0
   45.0870   35.8550   43.9830 C   0  0  0  0  0  0  0  0  0  0  0  0
   46.0320   34.9160   43.6630 C   0  0  0  0  0  0  0  0  0  0  0  0
   46.3290   33.8550   44.4960 N   0  0  0  0  0  0  0  0  0  0  0  0
   45.6900   33.6990   45.6710 C   0  0  0  0  0  0  0  0  0  0  0  0
   44.7460   34.5860   46.0490 N   0  0  0  0  0  0  0  0  0  0  0  0
   43.6880   36.3810   45.5010 H   0  0  0  0  0  0  0  0  0  0  0  0
   45.8970   32.8810   46.3440 H   0  0  0  0  0  0  0  0  0  0  0  0
   44.7790   36.9610   43.1530 N   0  0  0  0  0  0  0  0  0  0  0  0
   44.4770   36.6830   42.2070 H   0  0  0  0  0  0  0  0  0  0  0  0
   44.7980   37.9920   43.3170 H   0  0  0  0  0  0  0  0  0  0  0  0
  1  4  1  6  0  0  0
  1  2  1  0  0  0  0
  1 19  1  0  0  0  0
  2  6  1  0  0  0  0
  3  7  1  1  0  0  0
  3  1  1  0  0  0  0
  3  2  1  0  0  0  0
  5  2  1  0  0  0  0
  9 10  1  0  0  0  0
  9  8  1  0  0  0  0
 10  3  1  0  0  0  0
 11 12  1  0  0  0  0
 11 10  2  0  0  0  0
 13 11  1  0  0  0  0
 14 13  1  0  0  0  0
 15 16  1  0  0  0  0
 15 13  2  0  0  0  0
 16  9  2  0  0  0  0
 17 23  1  0  0  0  0
 17 22  1  0  0  0  0
 18 17  2  0  0  0  0
 19 18  1  0  0  0  0
 19 20  2  0  0  0  0
 20 21  1  0  0  0  0
 21 22  2  0  0  0  0
 21 24  1  0  0  0  0
 25 27  1  0  0  0  0
 25 18  1  0  0  0  0
 26 25  1  0  0  0  0
M  END
>  <minimizedAffinity>
-5.30242252

>  <minimizedRMSD>
0.723280489

$$$$
