
 OpenBabel03252503533D

 36 38  0  0  1  0  0  0  0  0999 V2000
   46.8370   32.8380   45.0500 N   0  0  0  0  0  0  0  0  0  0  0  0
   46.2210   33.1890   46.3360 C   0  0  0  0  0  0  0  0  0  0  0  0
   47.0370   32.4820   47.4080 C   0  0  0  0  0  0  0  0  0  0  0  0
   46.7590   31.0070   47.2940 C   0  0  0  0  0  0  0  0  0  0  0  0
   47.0060   30.5810   45.8810 C   0  0  0  0  0  0  0  0  0  0  0  0
   47.5570   31.6360   44.9920 C   0  0  1  0  0  0  0  0  0  0  0  0
   46.2840   34.2720   46.4860 H   0  0  0  0  0  0  0  0  0  0  0  0
   45.2120   32.7630   46.3420 H   0  0  0  0  0  0  0  0  0  0  0  0
   48.1140   32.7160   47.3340 H   0  0  0  0  0  0  0  0  0  0  0  0
   46.5840   32.8040   48.3690 H   0  0  0  0  0  0  0  0  0  0  0  0
   47.4120   30.4920   48.0190 H   0  0  0  0  0  0  0  0  0  0  0  0
   45.7130   30.8550   47.6340 H   0  0  0  0  0  0  0  0  0  0  0  0
   47.7320   29.7200   45.9120 H   0  0  0  0  0  0  0  0  0  0  0  0
   46.0590   30.1320   45.5170 H   0  0  0  0  0  0  0  0  0  0  0  0
   48.6060   31.8400   45.2850 H   0  0  0  0  0  0  0  0  0  0  0  0
   44.9330   30.5450   43.6820 Cl  0  0  0  0  0  0  0  0  0  0  0  0
   46.5220   30.4310   43.0050 C   0  0  0  0  0  0  0  0  0  0  0  0
   47.6500   30.9390   43.6620 C   0  0  0  0  0  0  0  0  0  0  0  0
   48.8800   30.7310   43.0060 C   0  0  0  0  0  0  0  0  0  0  0  0
   49.7260   31.1340   43.5420 H   0  0  0  0  0  0  0  0  0  0  0  0
   48.9780   30.0770   41.7990 C   0  0  0  0  0  0  0  0  0  0  0  0
   49.9980   30.0060   41.4390 H   0  0  0  0  0  0  0  0  0  0  0  0
   47.8340   29.5990   41.1950 C   0  0  0  0  0  0  0  0  0  0  0  0
   46.6060   29.7750   41.7960 C   0  0  0  0  0  0  0  0  0  0  0  0
   47.5910   34.9810   42.1400 C   0  0  0  0  0  0  0  0  0  0  0  0
   47.7770   34.1680   43.2560 C   0  0  0  0  0  0  0  0  0  0  0  0
   46.6810   33.6980   43.9500 C   0  0  0  0  0  0  0  0  0  0  0  0
   45.4500   34.0610   43.5050 N   0  0  0  0  0  0  0  0  0  0  0  0
   45.2740   34.8520   42.4250 C   0  0  0  0  0  0  0  0  0  0  0  0
   46.3510   35.3110   41.7410 N   0  0  0  0  0  0  0  0  0  0  0  0
   48.7960   34.0030   43.5120 H   0  0  0  0  0  0  0  0  0  0  0  0
   44.2540   35.1010   42.1300 H   0  0  0  0  0  0  0  0  0  0  0  0
   48.8190   35.4230   41.3930 C   0  0  0  0  0  0  0  0  0  0  0  0
   48.6040   35.4360   40.0190 F   0  0  0  0  0  0  0  0  0  0  0  0
   49.1450   36.6750   41.8590 F   0  0  0  0  0  0  0  0  0  0  0  0
   49.8730   34.5620   41.6720 F   0  0  0  0  0  0  0  0  0  0  0  0
  1  2  1  0  0  0  0
  2  8  1  0  0  0  0
  2  7  1  0  0  0  0
  2  3  1  0  0  0  0
  3 10  1  0  0  0  0
  4  3  1  0  0  0  0
  4 12  1  0  0  0  0
  4 11  1  0  0  0  0
  5 13  1  0  0  0  0
  5  4  1  0  0  0  0
  6  1  1  0  0  0  0
  6 15  1  1  0  0  0
  6  5  1  0  0  0  0
  9  3  1  0  0  0  0
 14  5  1  0  0  0  0
 17 18  1  0  0  0  0
 17 16  1  0  0  0  0
 18  6  1  0  0  0  0
 19 20  1  0  0  0  0
 19 18  2  0  0  0  0
 21 19  1  0  0  0  0
 22 21  1  0  0  0  0
 23 24  1  0  0  0  0
 23 21  2  0  0  0  0
 24 17  2  0  0  0  0
 25 26  1  0  0  0  0
 26 31  1  0  0  0  0
 26 27  2  0  0  0  0
 27  1  1  0  0  0  0
 28 27  1  0  0  0  0
 29 28  2  0  0  0  0
 30 25  2  0  0  0  0
 30 29  1  0  0  0  0
 32 29  1  0  0  0  0
 33 36  1  0  0  0  0
 33 35  1  0  0  0  0
 33 25  1  0  0  0  0
 34 33  1  0  0  0  0
M  END
>  <minimizedAffinity>
-5.22970676

>  <minimizedRMSD>
2.0101347

$$$$
