
 OpenBabel03252509233D

 27 29  0  0  1  0  0  0  0  0999 V2000
   46.5420   34.8030   41.9930 C   0  0  1  0  0  0  0  0  0  0  0  0
   48.0180   35.2880   42.0020 C   0  0  0  0  0  0  0  0  0  0  0  0
   47.5370   33.8540   41.6430 C   0  0  2  0  0  0  0  0  0  0  0  0
   45.9070   35.3790   41.2930 H   0  0  0  0  0  0  0  0  0  0  0  0
   48.3180   35.9280   41.1700 H   0  0  0  0  0  0  0  0  0  0  0  0
   48.5280   35.4500   42.9430 H   0  0  0  0  0  0  0  0  0  0  0  0
   47.8530   33.1150   42.4210 H   0  0  0  0  0  0  0  0  0  0  0  0
   50.1510   32.3580   41.1360 Cl  0  0  0  0  0  0  0  0  0  0  0  0
   48.9370   32.6800   39.9140 C   0  0  0  0  0  0  0  0  0  0  0  0
   47.8080   33.3620   40.2740 C   0  0  0  0  0  0  0  0  0  0  0  0
   46.8190   33.6370   39.3270 C   0  0  0  0  0  0  0  0  0  0  0  0
   45.8890   34.1650   39.4880 H   0  0  0  0  0  0  0  0  0  0  0  0
   47.0100   33.2060   38.0310 C   0  0  0  0  0  0  0  0  0  0  0  0
   46.2940   33.3790   37.2430 H   0  0  0  0  0  0  0  0  0  0  0  0
   48.1700   32.5120   37.6890 C   0  0  0  0  0  3  0  0  0  0  0  0
   49.1630   32.2340   38.6260 C   0  0  0  0  0  3  0  0  0  0  0  0
   44.5320   35.6030   45.0640 C   0  0  0  0  0  0  0  0  0  0  0  0
   45.0620   35.7310   43.7350 C   0  0  0  0  0  0  0  0  0  0  0  0
   45.9920   34.7810   43.4020 C   0  0  0  0  0  0  0  0  0  0  0  0
   46.3810   33.7890   44.2810 N   0  0  0  0  0  0  0  0  0  0  0  0
   45.8520   33.7150   45.5170 C   0  0  0  0  0  0  0  0  0  0  0  0
   44.9310   34.6170   45.9120 N   0  0  0  0  0  0  0  0  0  0  0  0
   43.7950   36.3540   45.3300 H   0  0  0  0  0  0  0  0  0  0  0  0
   46.1340   32.9520   46.2270 H   0  0  0  0  0  0  0  0  0  0  0  0
   44.6620   36.7670   42.8570 N   0  0  0  0  0  0  0  0  0  0  0  0
   44.2820   36.4150   41.9650 H   0  0  0  0  0  0  0  0  0  0  0  0
   44.6770   37.8080   42.9420 H   0  0  0  0  0  0  0  0  0  0  0  0
  1  4  1  6  0  0  0
  1  2  1  0  0  0  0
  1 19  1  0  0  0  0
  2  6  1  0  0  0  0
  3  1  1  0  0  0  0
  3  2  1  0  0  0  0
  3  7  1  1  0  0  0
  5  2  1  0  0  0  0
  9 10  1  0  0  0  0
  9  8  1  0  0  0  0
 10  3  1  0  0  0  0
 11 12  1  0  0  0  0
 11 10  2  0  0  0  0
 13 11  1  0  0  0  0
 14 13  1  0  0  0  0
 15 13  2  0  0  0  0
 15 16  1  0  0  0  0
 16  9  2  0  0  0  0
 17 23  1  0  0  0  0
 17 22  1  0  0  0  0
 18 17  2  0  0  0  0
 19 18  1  0  0  0  0
 19 20  2  0  0  0  0
 20 21  1  0  0  0  0
 21 22  2  0  0  0  0
 21 24  1  0  0  0  0
 25 27  1  0  0  0  0
 25 18  1  0  0  0  0
 26 25  1  0  0  0  0
M  END
>  <minimizedAffinity>
-5.03151512

>  <minimizedRMSD>
0.603482723

$$$$
