
 OpenBabel03252509233D

 27 29  0  0  1  0  0  0  0  0999 V2000
   46.7070   35.0320   42.3160 C   0  0  1  0  0  0  0  0  0  0  0  0
   48.1840   34.5600   42.4150 C   0  0  0  0  0  0  0  0  0  0  0  0
   47.0520   33.8390   41.6300 C   0  0  2  0  0  0  0  0  0  0  0  0
   46.6100   36.0420   41.8720 H   0  0  0  0  0  0  0  0  0  0  0  0
   48.9090   35.1230   41.8240 H   0  0  0  0  0  0  0  0  0  0  0  0
   48.5500   34.1170   43.3330 H   0  0  0  0  0  0  0  0  0  0  0  0
   46.7850   32.8640   42.1090 H   0  0  0  0  0  0  0  0  0  0  0  0
   48.9910   35.7250   40.2130 Cl  0  0  0  0  0  0  0  0  0  0  0  0
   48.0430   34.4890   39.4110 C   0  0  0  0  0  0  0  0  0  0  0  0
   47.2090   33.7090   40.1640 C   0  0  0  0  0  0  0  0  0  0  0  0
   46.4380   32.7140   39.5600 C   0  0  0  0  0  0  0  0  0  0  0  0
   45.7470   32.0380   40.0450 H   0  0  0  0  0  0  0  0  0  0  0  0
   46.5380   32.5410   38.1950 C   0  0  0  0  0  0  0  0  0  0  0  0
   45.9760   31.7950   37.6550 H   0  0  0  0  0  0  0  0  0  0  0  0
   47.3950   33.3490   37.4490 C   0  0  0  0  0  3  0  0  0  0  0  0
   48.1690   34.3440   38.0420 C   0  0  0  0  0  3  0  0  0  0  0  0
   44.4370   35.6390   45.2460 C   0  0  0  0  0  0  0  0  0  0  0  0
   45.0870   35.8550   43.9840 C   0  0  0  0  0  0  0  0  0  0  0  0
   46.0320   34.9160   43.6640 C   0  0  0  0  0  0  0  0  0  0  0  0
   46.3280   33.8550   44.4970 N   0  0  0  0  0  0  0  0  0  0  0  0
   45.6890   33.6990   45.6720 C   0  0  0  0  0  0  0  0  0  0  0  0
   44.7460   34.5860   46.0490 N   0  0  0  0  0  0  0  0  0  0  0  0
   43.6880   36.3820   45.5010 H   0  0  0  0  0  0  0  0  0  0  0  0
   45.8960   32.8810   46.3450 H   0  0  0  0  0  0  0  0  0  0  0  0
   44.7800   36.9620   43.1550 N   0  0  0  0  0  0  0  0  0  0  0  0
   44.4790   36.6840   42.2080 H   0  0  0  0  0  0  0  0  0  0  0  0
   44.8000   37.9930   43.3180 H   0  0  0  0  0  0  0  0  0  0  0  0
  1  4  1  6  0  0  0
  1  2  1  0  0  0  0
  1 19  1  0  0  0  0
  2  6  1  0  0  0  0
  3  7  1  1  0  0  0
  3  1  1  0  0  0  0
  3  2  1  0  0  0  0
  5  2  1  0  0  0  0
  9 10  1  0  0  0  0
  9  8  1  0  0  0  0
 10  3  1  0  0  0  0
 11 12  1  0  0  0  0
 11 10  2  0  0  0  0
 13 11  1  0  0  0  0
 14 13  1  0  0  0  0
 15 16  1  0  0  0  0
 15 13  2  0  0  0  0
 16  9  2  0  0  0  0
 17 23  1  0  0  0  0
 17 22  1  0  0  0  0
 18 17  2  0  0  0  0
 19 18  1  0  0  0  0
 19 20  2  0  0  0  0
 20 21  1  0  0  0  0
 21 22  2  0  0  0  0
 21 24  1  0  0  0  0
 25 27  1  0  0  0  0
 25 18  1  0  0  0  0
 26 25  1  0  0  0  0
M  END
>  <minimizedAffinity>
-5.30234051

>  <minimizedRMSD>
0.573630154

$$$$
