
 OpenBabel03252507313D

 49 52  0  0  1  0  0  0  0  0999 V2000
   47.0330   32.4600   45.3060 C   0  0  0  0  0  0  0  0  0  0  0  0
   45.9860   33.1570   45.8970 C   0  0  0  0  0  0  0  0  0  0  0  0
   45.3750   34.2220   45.1950 C   0  0  0  0  0  0  0  0  0  0  0  0
   45.8850   34.5060   43.9310 N   0  0  0  0  0  0  0  0  0  0  0  0
   46.8970   33.7960   43.4210 C   0  0  0  0  0  0  0  0  0  0  0  0
   47.4590   32.7940   44.0940 N   0  0  0  0  0  0  0  0  0  0  0  0
   45.4770   33.1360   46.8370 H   0  0  0  0  0  0  0  0  0  0  0  0
   44.5710   34.8550   45.4900 H   0  0  0  0  0  0  0  0  0  0  0  0
   47.6090   31.3590   46.0520 C   0  0  2  0  0  0  0  0  0  0  0  0
   47.0750   29.9850   45.5440 C   0  0  0  0  0  0  0  0  0  0  0  0
   47.8100   28.8850   46.2300 C   0  0  0  0  0  0  0  0  0  0  0  0
   48.0080   29.0440   47.6950 C   0  0  0  0  0  0  0  0  0  0  0  0
   48.2740   30.3950   48.1220 C   0  0  0  0  0  0  0  0  0  0  0  0
   47.3490   31.4490   47.4740 C   0  0  2  0  0  0  0  0  0  0  0  0
   48.7010   31.2640   45.8350 H   0  0  0  0  0  0  0  0  0  0  0  0
   47.3080   29.9940   44.4600 H   0  0  0  0  0  0  0  0  0  0  0  0
   45.9890   29.9320   45.6170 H   0  0  0  0  0  0  0  0  0  0  0  0
   48.7100   28.6790   45.6190 H   0  0  0  0  0  0  0  0  0  0  0  0
   47.1760   27.9590   46.0990 H   0  0  0  0  0  0  0  0  0  0  0  0
   47.5940   28.2830   48.3610 H   0  0  0  0  0  0  0  0  0  0  0  0
   49.0860   28.6120   47.7800 H   0  0  0  0  0  0  0  0  0  0  0  0
   49.3000   30.8170   47.9890 H   0  0  0  0  0  0  0  0  0  0  0  0
   48.0450   30.4970   49.2130 H   0  0  0  0  0  0  0  0  0  0  0  0
   47.6720   32.3550   47.9890 H   0  0  0  0  0  0  0  0  0  0  0  0
   45.9590   31.0790   47.7550 N   0  0  0  0  0  0  0  0  0  0  0  0
   45.3160   30.7070   48.9480 C   0  0  0  0  0  0  0  0  0  0  0  0
   44.9740   31.5530   49.8510 O   0  0  0  0  0  0  0  0  0  0  0  0
   45.0610   29.3080   49.0770 N   0  0  0  0  0  0  0  0  0  0  0  0
   45.2180   30.9850   46.9630 H   0  0  0  0  0  0  0  0  0  0  0  0
   44.4850   28.7560   48.4050 H   0  0  0  0  0  0  0  0  0  0  0  0
   45.2100   28.4310   49.6270 H   0  0  0  0  0  0  0  0  0  0  0  0
   47.4000   34.1620   42.0930 C   0  0  0  0  0  0  0  0  0  0  0  0
   48.2680   35.2170   41.9280 C   0  0  0  0  0  0  0  0  0  0  0  0
   48.7770   35.6110   40.7110 C   0  0  0  0  0  0  0  0  0  0  0  0
   48.3480   34.8580   39.6220 C   0  0  0  0  0  0  0  0  0  0  0  0
   47.4820   33.8050   39.7810 C   0  0  0  0  0  0  0  0  0  0  0  0
   47.0130   33.4640   41.0130 N   0  0  0  0  0  0  0  0  0  0  0  0
   48.5780   35.7800   42.8020 H   0  0  0  0  0  0  0  0  0  0  0  0
   49.4530   36.4330   40.5830 H   0  0  0  0  0  0  0  0  0  0  0  0
   48.7380   35.1530   38.6590 H   0  0  0  0  0  0  0  0  0  0  0  0
   49.2860   31.5680   38.9760 Cl  0  0  0  0  0  0  0  0  0  0  0  0
   47.7620   31.9440   38.1700 C   0  0  0  0  0  0  0  0  0  0  0  0
   47.0270   33.0090   38.6490 C   0  0  0  0  0  0  0  0  0  0  0  0
   45.8540   33.2230   37.9560 C   0  0  0  0  0  0  0  0  0  0  0  0
   45.2120   34.0370   38.2590 H   0  0  0  0  0  0  0  0  0  0  0  0
   45.4510   32.4500   36.8860 C   0  0  0  0  0  0  0  0  0  0  0  0
   44.5150   32.6890   36.3980 H   0  0  0  0  0  0  0  0  0  0  0  0
   46.2350   31.3990   36.4590 C   0  0  0  0  0  3  0  0  0  0  0  0
   47.4190   31.1330   37.1110 C   0  0  0  0  0  3  0  0  0  0  0  0
  1  2  1  0  0  0  0
  1  9  1  0  0  0  0
  2  7  1  0  0  0  0
  3  8  1  0  0  0  0
  3  2  2  0  0  0  0
  4  3  1  0  0  0  0
  5  4  2  0  0  0  0
  5  6  1  0  0  0  0
  6  1  2  0  0  0  0
  9 15  1  6  0  0  0
  9 14  1  0  0  0  0
 10 17  1  0  0  0  0
 10  9  1  0  0  0  0
 10 11  1  0  0  0  0
 11 12  1  0  0  0  0
 12 21  1  0  0  0  0
 12 13  1  0  0  0  0
 12 20  1  0  0  0  0
 13 23  1  0  0  0  0
 14 25  1  0  0  0  0
 14 24  1  1  0  0  0
 14 13  1  0  0  0  0
 16 10  1  0  0  0  0
 18 11  1  0  0  0  0
 19 11  1  0  0  0  0
 22 13  1  0  0  0  0
 25 26  1  0  0  0  0
 26 28  1  0  0  0  0
 26 27  2  0  0  0  0
 28 31  1  0  0  0  0
 29 25  1  0  0  0  0
 30 28  1  0  0  0  0
 32  5  1  0  0  0  0
 33 32  1  0  0  0  0
 33 38  1  0  0  0  0
 34 33  2  0  0  0  0
 35 36  2  0  0  0  0
 35 34  1  0  0  0  0
 36 37  1  0  0  0  0
 37 32  2  0  0  0  0
 39 34  1  0  0  0  0
 40 35  1  0  0  0  0
 42 43  1  0  0  0  0
 42 41  1  0  0  0  0
 43 36  1  0  0  0  0
 44 45  1  0  0  0  0
 44 43  2  0  0  0  0
 46 44  1  0  0  0  0
 47 46  1  0  0  0  0
 48 46  2  0  0  0  0
 48 49  1  0  0  0  0
 49 42  2  0  0  0  0
M  END
>  <minimizedAffinity>
-6.3910532

>  <minimizedRMSD>
0.655220866

$$$$
