
 OpenBabel03252509233D

 27 29  0  0  1  0  0  0  0  0999 V2000
   46.2090   34.8920   42.2700 C   0  0  1  0  0  0  0  0  0  0  0  0
   47.6870   35.3560   42.1560 C   0  0  0  0  0  0  0  0  0  0  0  0
   47.1160   34.0090   41.6300 C   0  0  2  0  0  0  0  0  0  0  0  0
   45.5040   35.5860   41.7720 H   0  0  0  0  0  0  0  0  0  0  0  0
   47.8940   36.1260   41.4110 H   0  0  0  0  0  0  0  0  0  0  0  0
   48.3250   35.3490   43.0310 H   0  0  0  0  0  0  0  0  0  0  0  0
   47.5100   33.1440   42.2210 H   0  0  0  0  0  0  0  0  0  0  0  0
   49.0590   35.6760   39.9660 Cl  0  0  0  0  0  0  0  0  0  0  0  0
   48.0090   34.4320   39.3170 C   0  0  0  0  0  0  0  0  0  0  0  0
   47.1830   33.7570   40.1730 C   0  0  0  0  0  0  0  0  0  0  0  0
   46.3320   32.7600   39.6930 C   0  0  0  0  0  0  0  0  0  0  0  0
   45.6390   32.1600   40.2660 H   0  0  0  0  0  0  0  0  0  0  0  0
   46.3460   32.4760   38.3430 C   0  0  0  0  0  0  0  0  0  0  0  0
   45.7200   31.7210   37.8940 H   0  0  0  0  0  0  0  0  0  0  0  0
   47.1970   33.1790   37.4900 C   0  0  0  0  0  3  0  0  0  0  0  0
   48.0500   34.1760   37.9600 C   0  0  0  0  0  3  0  0  0  0  0  0
   44.6430   35.1580   45.6740 C   0  0  0  0  0  0  0  0  0  0  0  0
   44.9910   35.5080   44.3250 C   0  0  0  0  0  0  0  0  0  0  0  0
   45.8540   34.6340   43.7170 C   0  0  0  0  0  0  0  0  0  0  0  0
   46.3440   33.5140   44.3600 N   0  0  0  0  0  0  0  0  0  0  0  0
   45.9850   33.2320   45.6270 C   0  0  0  0  0  0  0  0  0  0  0  0
   45.1380   34.0490   46.2860 N   0  0  0  0  0  0  0  0  0  0  0  0
   43.9600   35.8490   46.1570 H   0  0  0  0  0  0  0  0  0  0  0  0
   46.3490   32.3650   46.1580 H   0  0  0  0  0  0  0  0  0  0  0  0
   44.4910   36.6720   43.6920 N   0  0  0  0  0  0  0  0  0  0  0  0
   43.9900   36.4690   42.8140 H   0  0  0  0  0  0  0  0  0  0  0  0
   44.5330   37.6850   43.9440 H   0  0  0  0  0  0  0  0  0  0  0  0
  1  4  1  6  0  0  0
  1 19  1  0  0  0  0
  2  1  1  0  0  0  0
  2  6  1  0  0  0  0
  3  2  1  0  0  0  0
  3  7  1  1  0  0  0
  3  1  1  0  0  0  0
  5  2  1  0  0  0  0
  9  8  1  0  0  0  0
  9 10  1  0  0  0  0
 10  3  1  0  0  0  0
 11 10  2  0  0  0  0
 11 12  1  0  0  0  0
 13 11  1  0  0  0  0
 14 13  1  0  0  0  0
 15 16  1  0  0  0  0
 15 13  2  0  0  0  0
 16  9  2  0  0  0  0
 17 23  1  0  0  0  0
 17 22  1  0  0  0  0
 18 17  2  0  0  0  0
 19 18  1  0  0  0  0
 19 20  2  0  0  0  0
 20 21  1  0  0  0  0
 21 24  1  0  0  0  0
 21 22  2  0  0  0  0
 25 27  1  0  0  0  0
 25 18  1  0  0  0  0
 26 25  1  0  0  0  0
M  END
>  <minimizedAffinity>
-5.07995462

>  <minimizedRMSD>
0.598234355

$$$$
