
 OpenBabel03252508143D

 37 40  0  0  1  0  0  0  0  0999 V2000
   46.0240   33.0980   45.9190 C   0  0  0  0  0  3  0  0  0  0  0  0
   46.9010   32.2170   45.6290 C   0  0  0  0  0  3  0  0  0  0  0  0
   44.6390   36.0870   44.2780 C   0  0  0  0  0  0  0  0  0  0  0  0
   45.1100   35.9640   42.9560 C   0  0  0  0  0  0  0  0  0  0  0  0
   45.8920   34.8820   42.6810 C   0  0  0  0  0  0  0  0  0  0  0  0
   46.1360   34.0330   43.7010 N   0  0  0  0  0  0  0  0  0  0  0  0
   45.7020   34.1320   44.9440 C   0  0  0  0  0  0  0  0  0  0  0  0
   44.9500   35.1770   45.2130 N   0  0  0  0  0  0  0  0  0  0  0  0
   44.0110   36.9440   44.5360 H   0  0  0  0  0  0  0  0  0  0  0  0
   44.8590   36.6670   42.2060 H   0  0  0  0  0  0  0  0  0  0  0  0
   48.7880   35.7730   41.8480 Cl  0  0  0  0  0  0  0  0  0  0  0  0
   47.7010   34.8110   40.8890 C   0  0  0  0  0  0  0  0  0  0  0  0
   46.4770   34.5170   41.4210 C   0  0  0  0  0  0  0  0  0  0  0  0
   45.7440   33.7110   40.5450 C   0  0  0  0  0  0  0  0  0  0  0  0
   44.7400   33.3690   40.7930 H   0  0  0  0  0  0  0  0  0  0  0  0
   46.1820   33.2700   39.3180 C   0  0  0  0  0  0  0  0  0  0  0  0
   45.5800   32.6550   38.6890 H   0  0  0  0  0  0  0  0  0  0  0  0
   47.4340   33.6220   38.8710 C   0  0  0  0  0  3  0  0  0  0  0  0
   48.2040   34.4150   39.6870 C   0  0  0  0  0  3  0  0  0  0  0  0
   47.1510   31.1720   46.7100 C   0  0  0  0  0  0  0  0  0  0  0  0
   46.5990   30.2500   46.4880 H   0  0  0  0  0  0  0  0  0  0  0  0
   48.2390   30.9400   46.6820 H   0  0  0  0  0  0  0  0  0  0  0  0
   46.8020   31.7470   48.0600 C   0  0  1  0  0  0  0  0  0  0  0  0
   46.1980   30.8080   49.0470 C   0  0  0  0  0  0  0  0  0  0  0  0
   47.5480   31.2940   49.2570 C   0  0  1  0  0  0  0  0  0  0  0  0
   46.4010   32.7800   48.0690 H   0  0  0  0  0  0  0  0  0  0  0  0
   46.0290   29.7480   48.7170 H   0  0  0  0  0  0  0  0  0  0  0  0
   45.3800   31.1620   49.7170 H   0  0  0  0  0  0  0  0  0  0  0  0
   47.6650   32.0840   50.0620 H   0  0  0  0  0  0  0  0  0  0  0  0
   48.7770   30.4980   49.0570 C   0  0  0  0  0  0  0  0  0  0  0  0
   49.5930   30.2660   50.3590 C   0  0  0  0  0  0  0  0  0  0  0  0
   50.1120   31.2320   49.3470 C   0  0  0  0  0  0  0  0  0  0  0  0
   48.8240   29.6750   48.3250 H   0  0  0  0  0  0  0  0  0  0  0  0
   50.0340   29.2720   50.4790 H   0  0  0  0  0  0  0  0  0  0  0  0
   49.1850   30.6780   51.2990 H   0  0  0  0  0  0  0  0  0  0  0  0
   50.0180   32.3040   49.6120 H   0  0  0  0  0  0  0  0  0  0  0  0
   51.0140   30.8960   48.8270 H   0  0  0  0  0  0  0  0  0  0  0  0
  2  1  2  0  0  0  0
  2 20  1  0  0  0  0
  3  9  1  0  0  0  0
  3  8  1  0  0  0  0
  4  3  2  0  0  0  0
  5  4  1  0  0  0  0
  5  6  2  0  0  0  0
  6  7  1  0  0  0  0
  7  8  2  0  0  0  0
  7  1  1  0  0  0  0
 10  4  1  0  0  0  0
 12 13  1  0  0  0  0
 12 11  1  0  0  0  0
 13  5  1  0  0  0  0
 14 15  1  0  0  0  0
 14 13  2  0  0  0  0
 16 14  1  0  0  0  0
 17 16  1  0  0  0  0
 18 16  2  0  0  0  0
 18 19  1  0  0  0  0
 19 12  2  0  0  0  0
 20 23  1  0  0  0  0
 21 20  1  0  0  0  0
 22 20  1  0  0  0  0
 23 26  1  1  0  0  0
 23 24  1  0  0  0  0
 23 25  1  0  0  0  0
 24 25  1  0  0  0  0
 24 28  1  0  0  0  0
 25 29  1  1  0  0  0
 27 24  1  0  0  0  0
 30 25  1  0  0  0  0
 30 32  1  0  0  0  0
 30 31  1  0  0  0  0
 31 34  1  0  0  0  0
 31 35  1  0  0  0  0
 32 36  1  0  0  0  0
 32 31  1  0  0  0  0
 33 30  1  0  0  0  0
 37 32  1  0  0  0  0
M  END
>  <minimizedAffinity>
-6.28018713

>  <minimizedRMSD>
0.466408223

$$$$
