
 OpenBabel03252508173D

 47 51  0  0  1  0  0  0  0  0999 V2000
   47.3000   31.0720   46.9360 C   0  0  0  0  0  0  0  0  0  0  0  0
   48.1560   30.5410   46.5490 H   0  0  0  0  0  0  0  0  0  0  0  0
   46.4330   30.3560   47.0060 H   0  0  0  0  0  0  0  0  0  0  0  0
   47.4200   31.6990   48.2860 C   0  0  1  0  0  0  0  0  0  0  0  0
   47.0730   30.8060   49.4280 C   0  0  0  0  0  0  0  0  0  0  0  0
   48.4560   31.2320   49.2270 C   0  0  1  0  0  0  0  0  0  0  0  0
   46.8720   32.6810   48.4030 H   0  0  0  0  0  0  0  0  0  0  0  0
   46.8670   29.7260   49.2140 H   0  0  0  0  0  0  0  0  0  0  0  0
   46.5030   31.1660   50.3090 H   0  0  0  0  0  0  0  0  0  0  0  0
   48.8480   31.9890   49.9390 H   0  0  0  0  0  0  0  0  0  0  0  0
   49.4980   30.2880   48.7160 C   0  0  2  0  0  0  0  0  0  0  0  0
   49.8870   29.2050   49.7540 C   0  0  0  0  0  0  0  0  0  0  0  0
   50.8480   30.2620   49.4240 C   0  0  2  0  0  0  0  0  0  0  0  0
   49.4000   29.8300   47.7110 H   0  0  0  0  0  0  0  0  0  0  0  0
   49.4370   29.2580   50.7610 H   0  0  0  0  0  0  0  0  0  0  0  0
   50.0810   28.1850   49.4310 H   0  0  0  0  0  0  0  0  0  0  0  0
   51.6770   29.9590   48.7210 H   0  0  0  0  0  0  0  0  0  0  0  0
   51.1470   29.6040   52.3310 Cl  0  0  0  0  0  0  0  0  0  0  0  0
   51.2970   31.2210   51.6470 C   0  0  0  0  0  0  0  0  0  0  0  0
   51.1400   31.4160   50.2850 C   0  0  0  0  0  0  0  0  0  0  0  0
   51.2690   32.7140   49.8040 C   0  0  0  0  0  0  0  0  0  0  0  0
   51.1460   32.8600   48.7480 H   0  0  0  0  0  0  0  0  0  0  0  0
   51.5440   33.8110   50.6130 C   0  0  0  0  0  0  0  0  0  0  0  0
   51.6340   34.7930   50.1890 H   0  0  0  0  0  0  0  0  0  0  0  0
   51.6880   33.5380   51.9680 C   0  0  0  0  0  3  0  0  0  0  0  0
   51.5710   32.2670   52.5060 C   0  0  0  0  0  3  0  0  0  0  0  0
   46.1550   33.0050   46.2250 C   0  0  0  0  0  3  0  0  0  0  0  0
   46.9960   32.1200   45.8900 C   0  0  0  0  0  3  0  0  0  0  0  0
   44.5360   35.8420   44.5130 C   0  0  0  0  0  0  0  0  0  0  0  0
   45.1810   35.8720   43.2830 C   0  0  0  0  0  0  0  0  0  0  0  0
   46.1410   34.9250   43.0780 C   0  0  0  0  0  0  0  0  0  0  0  0
   46.4230   34.0170   44.0540 N   0  0  0  0  0  0  0  0  0  0  0  0
   45.7760   34.0190   45.2380 C   0  0  0  0  0  0  0  0  0  0  0  0
   44.8470   34.9360   45.4350 N   0  0  0  0  0  0  0  0  0  0  0  0
   43.7750   36.5650   44.7240 H   0  0  0  0  0  0  0  0  0  0  0  0
   44.9630   36.5870   42.5050 H   0  0  0  0  0  0  0  0  0  0  0  0
   46.8980   34.8330   41.8410 C   0  0  0  0  0  0  0  0  0  0  0  0
   48.0950   35.4480   41.6110 C   0  0  0  0  0  0  0  0  0  0  0  0
   48.8020   35.3500   40.4290 C   0  0  0  0  0  0  0  0  0  0  0  0
   48.2940   34.5890   39.3900 C   0  0  0  0  0  0  0  0  0  0  0  0
   47.0910   33.9480   39.5660 C   0  0  0  0  0  0  0  0  0  0  0  0
   46.4380   34.0880   40.7720 C   0  0  0  0  0  0  0  0  0  0  0  0
   48.5320   36.0590   42.4080 H   0  0  0  0  0  0  0  0  0  0  0  0
   49.7530   35.8830   40.3480 H   0  0  0  0  0  0  0  0  0  0  0  0
   48.9080   34.5630   38.4980 H   0  0  0  0  0  0  0  0  0  0  0  0
   46.7090   33.3600   38.7500 H   0  0  0  0  0  0  0  0  0  0  0  0
   45.4990   33.5490   40.8230 H   0  0  0  0  0  0  0  0  0  0  0  0
  1  3  1  0  0  0  0
  1  4  1  0  0  0  0
  2  1  1  0  0  0  0
  4  7  1  1  0  0  0
  4  6  1  0  0  0  0
  4  5  1  0  0  0  0
  5  9  1  0  0  0  0
  6  5  1  0  0  0  0
  6 10  1  1  0  0  0
  8  5  1  0  0  0  0
 11 14  1  6  0  0  0
 11  6  1  0  0  0  0
 11 13  1  0  0  0  0
 11 12  1  0  0  0  0
 12 15  1  0  0  0  0
 13 17  1  6  0  0  0
 13 12  1  0  0  0  0
 13 20  1  0  0  0  0
 16 12  1  0  0  0  0
 19 18  1  0  0  0  0
 19 26  1  0  0  0  0
 20 19  2  0  0  0  0
 21 20  1  0  0  0  0
 21 23  2  0  0  0  0
 22 21  1  0  0  0  0
 23 25  1  0  0  0  0
 24 23  1  0  0  0  0
 25 26  2  0  0  0  0
 28 27  2  0  0  0  0
 28  1  1  0  0  0  0
 29 35  1  0  0  0  0
 29 34  1  0  0  0  0
 30 29  2  0  0  0  0
 31 30  1  0  0  0  0
 31 32  2  0  0  0  0
 32 33  1  0  0  0  0
 33 34  2  0  0  0  0
 33 27  1  0  0  0  0
 36 30  1  0  0  0  0
 37 31  1  0  0  0  0
 38 37  1  0  0  0  0
 38 43  1  0  0  0  0
 39 38  2  0  0  0  0
 40 41  2  0  0  0  0
 40 39  1  0  0  0  0
 41 42  1  0  0  0  0
 42 47  1  0  0  0  0
 42 37  2  0  0  0  0
 44 39  1  0  0  0  0
 45 40  1  0  0  0  0
 46 41  1  0  0  0  0
M  END
>  <minimizedAffinity>
-7.32631302

>  <minimizedRMSD>
1.84253049

$$$$
