
 OpenBabel03242520413D

 39 42  0  0  1  0  0  0  0  0999 V2000
   45.9000   33.2770   45.7030 C   0  0  0  0  0  0  0  0  0  0  0  0
   46.7890   33.4420   44.6180 C   0  0  0  0  0  0  0  0  0  0  0  0
   47.5240   32.2990   44.1820 C   0  0  0  0  0  0  0  0  0  0  0  0
   47.3340   31.1090   44.8330 N   0  0  0  0  0  0  0  0  0  0  0  0
   46.4710   31.0150   45.8630 C   0  0  0  0  0  0  0  0  0  0  0  0
   45.7680   32.0940   46.2840 N   0  0  0  0  0  0  0  0  0  0  0  0
   46.3410   29.7610   46.4670 N   0  0  0  0  0  0  0  0  0  0  0  0
   47.4700   29.1170   47.0550 C   0  0  2  0  0  0  0  0  0  0  0  0
   47.2620   27.6870   47.4150 C   0  0  0  0  0  0  0  0  0  0  0  0
   45.9480   27.3060   47.7790 N   0  0  0  0  0  0  0  0  0  0  0  0
   45.0040   28.3610   47.8040 C   0  0  0  0  0  0  0  0  0  0  0  0
   45.0550   29.1040   46.5020 C   0  0  0  0  0  0  0  0  0  0  0  0
   45.3140   34.1040   46.0790 H   0  0  0  0  0  0  0  0  0  0  0  0
   46.8930   34.3950   44.1510 H   0  0  0  0  0  0  0  0  0  0  0  0
   48.2050   32.4080   43.3570 H   0  0  0  0  0  0  0  0  0  0  0  0
   48.2530   29.0860   46.2350 H   0  0  0  0  0  0  0  0  0  0  0  0
   47.5890   27.0000   46.6090 H   0  0  0  0  0  0  0  0  0  0  0  0
   47.9670   27.4630   48.2680 H   0  0  0  0  0  0  0  0  0  0  0  0
   45.6100   26.4090   47.3970 H   0  0  0  0  0  0  0  0  0  0  0  0
   45.0460   29.0230   48.6620 H   0  0  0  0  0  0  0  0  0  0  0  0
   43.9770   27.8860   47.8300 H   0  0  0  0  0  0  0  0  0  0  0  0
   44.2870   29.9260   46.5700 H   0  0  0  0  0  0  0  0  0  0  0  0
   44.8680   28.4560   45.6470 H   0  0  0  0  0  0  0  0  0  0  0  0
   48.0510   29.9170   48.1650 C   0  0  0  0  0  0  0  0  0  0  0  0
   47.7030   31.1240   48.7260 C   0  0  0  0  0  0  0  0  0  0  0  0
   48.5130   31.4670   49.7260 N   0  0  0  0  0  0  0  0  0  0  0  0
   49.4000   30.4650   49.8130 C   0  0  0  0  0  0  0  0  0  0  0  0
   49.1250   29.5430   48.8840 N   0  0  0  0  0  0  0  0  0  0  0  0
   46.8710   31.7270   48.3940 H   0  0  0  0  0  0  0  0  0  0  0  0
   48.4710   32.3280   50.3170 H   0  0  0  0  0  0  0  0  0  0  0  0
   51.4200   32.6500   49.7730 Cl  0  0  0  0  0  0  0  0  0  0  0  0
   51.5370   31.2640   50.8620 C   0  0  0  0  0  0  0  0  0  0  0  0
   50.5160   30.3390   50.7540 C   0  0  0  0  0  0  0  0  0  0  0  0
   50.5550   29.2230   51.5910 C   0  0  0  0  0  0  0  0  0  0  0  0
   49.7600   28.4920   51.5140 H   0  0  0  0  0  0  0  0  0  0  0  0
   51.5710   29.0250   52.5060 C   0  0  0  0  0  0  0  0  0  0  0  0
   51.5920   28.1530   53.1520 H   0  0  0  0  0  0  0  0  0  0  0  0
   52.5630   29.9890   52.5640 C   0  0  0  0  0  0  0  0  0  0  0  0
   52.5730   31.1110   51.7610 C   0  0  0  0  0  0  0  0  0  0  0  0
  1 13  1  0  0  0  0
  1  6  1  0  0  0  0
  2  1  2  0  0  0  0
  3  2  1  0  0  0  0
  3  4  2  0  0  0  0
  4  5  1  0  0  0  0
  5  6  2  0  0  0  0
  5  7  1  0  0  0  0
  7 12  1  0  0  0  0
  7  8  1  0  0  0  0
  8 16  1  6  0  0  0
  8  9  1  0  0  0  0
  8 24  1  0  0  0  0
  9 10  1  0  0  0  0
  9 18  1  0  0  0  0
 10 11  1  0  0  0  0
 11 21  1  0  0  0  0
 11 20  1  0  0  0  0
 12 22  1  0  0  0  0
 12 11  1  0  0  0  0
 14  2  1  0  0  0  0
 15  3  1  0  0  0  0
 17  9  1  0  0  0  0
 19 10  1  0  0  0  0
 23 12  1  0  0  0  0
 24 25  2  0  0  0  0
 24 28  1  0  0  0  0
 25 26  1  0  0  0  0
 26 27  1  0  0  0  0
 26 30  1  0  0  0  0
 27 33  1  0  0  0  0
 28 27  2  0  0  0  0
 29 25  1  0  0  0  0
 31 32  1  0  0  0  0
 32 39  1  0  0  0  0
 33 32  2  0  0  0  0
 33 34  1  0  0  0  0
 34 36  2  0  0  0  0
 35 34  1  0  0  0  0
 36 38  1  0  0  0  0
 36 37  1  0  0  0  0
 39 38  2  0  0  0  0
M  END
>  <minimizedAffinity>
-5.60681486

>  <minimizedRMSD>
1.3233403

$$$$
