
 OpenBabel03252501183D

 21 22  0  0  0  0  0  0  0  0999 V2000
   40.1400   30.2380   41.9430 C   0  0  0  0  0  0  0  0  0  0  0  0
   38.8100   30.1500   41.4800 C   0  0  0  0  0  0  0  0  0  0  0  0
   38.2930   31.2470   40.7830 C   0  0  0  0  0  0  0  0  0  0  0  0
   39.0970   32.3180   40.5970 N   0  0  0  0  0  0  0  0  0  0  0  0
   40.3670   32.3760   41.0500 C   0  0  0  0  0  0  0  0  0  0  0  0
   40.8790   31.3420   41.7170 N   0  0  0  0  0  0  0  0  0  0  0  0
   40.6250   29.4480   42.4870 H   0  0  0  0  0  0  0  0  0  0  0  0
   40.8860   33.2990   40.8230 H   0  0  0  0  0  0  0  0  0  0  0  0
   38.7770   27.7650   39.5440 Cl  0  0  0  0  0  0  0  0  0  0  0  0
   38.0320   27.7200   41.1260 C   0  0  0  0  0  0  0  0  0  0  0  0
   38.1570   28.8920   41.8200 C   0  0  0  0  0  0  0  0  0  0  0  0
   37.5960   28.9910   43.0980 C   0  0  0  0  0  0  0  0  0  0  0  0
   37.6090   29.8550   43.7770 H   0  0  0  0  0  0  0  0  0  0  0  0
   36.9140   27.9180   43.6800 C   0  0  0  0  0  0  0  0  0  0  0  0
   36.4660   27.9310   44.6450 H   0  0  0  0  0  0  0  0  0  0  0  0
   36.8090   26.7510   42.9500 C   0  0  0  0  0  3  0  0  0  0  0  0
   37.3620   26.6570   41.6920 C   0  0  0  0  0  3  0  0  0  0  0  0
   36.9150   31.0870   40.3370 C   0  0  0  0  0  0  0  0  0  0  0  0
   36.5650   32.2180   39.5880 F   0  0  0  0  0  0  0  0  0  0  0  0
   36.1110   31.1490   41.4500 F   0  0  0  0  0  0  0  0  0  0  0  0
   36.6870   30.0020   39.5660 F   0  0  0  0  0  0  0  0  0  0  0  0
  1  7  1  0  0  0  0
  2 11  1  0  0  0  0
  2  1  2  0  0  0  0
  3  2  1  0  0  0  0
  4  3  2  0  0  0  0
  4  5  1  0  0  0  0
  5  6  2  0  0  0  0
  6  1  1  0  0  0  0
  8  5  1  0  0  0  0
  9 10  1  0  0  0  0
 10 17  2  0  0  0  0
 10 11  1  0  0  0  0
 11 12  2  0  0  0  0
 12 14  1  0  0  0  0
 12 13  1  0  0  0  0
 14 15  1  0  0  0  0
 16 14  2  0  0  0  0
 17 16  1  0  0  0  0
 18  3  1  0  0  0  0
 18 20  1  0  0  0  0
 19 18  1  0  0  0  0
 21 18  1  0  0  0  0
M  END
>  <minimizedAffinity>
-4.74433088

$$$$

 OpenBabel03252501183D

 21 22  0  0  0  0  0  0  0  0999 V2000
   37.5460   28.1630   38.7720 C   0  0  0  0  0  0  0  0  0  0  0  0
   37.4340   29.1470   39.7770 C   0  0  0  0  0  0  0  0  0  0  0  0
   37.0910   30.4430   39.3800 C   0  0  0  0  0  0  0  0  0  0  0  0
   36.8900   30.6700   38.0610 N   0  0  0  0  0  0  0  0  0  0  0  0
   37.0040   29.7110   37.1200 C   0  0  0  0  0  0  0  0  0  0  0  0
   37.3300   28.4690   37.4780 N   0  0  0  0  0  0  0  0  0  0  0  0
   37.8040   27.1400   38.9800 H   0  0  0  0  0  0  0  0  0  0  0  0
   36.8120   30.0450   36.1080 H   0  0  0  0  0  0  0  0  0  0  0  0
   40.2510   29.2440   40.9990 Cl  0  0  0  0  0  0  0  0  0  0  0  0
   38.8640   28.6000   41.8490 C   0  0  0  0  0  0  0  0  0  0  0  0
   37.7090   28.6450   41.1180 C   0  0  0  0  0  0  0  0  0  0  0  0
   36.5270   28.1520   41.6800 C   0  0  0  0  0  0  0  0  0  0  0  0
   35.5260   28.1170   41.2270 H   0  0  0  0  0  0  0  0  0  0  0  0
   36.5020   27.6160   42.9710 C   0  0  0  0  0  0  0  0  0  0  0  0
   35.6370   27.2260   43.4530 H   0  0  0  0  0  0  0  0  0  0  0  0
   37.6870   27.5870   43.6790 C   0  0  0  0  0  3  0  0  0  0  0  0
   38.8490   28.0730   43.1220 C   0  0  0  0  0  3  0  0  0  0  0  0
   36.9930   31.4070   40.4680 C   0  0  0  0  0  0  0  0  0  0  0  0
   36.7080   32.6620   39.9160 F   0  0  0  0  0  0  0  0  0  0  0  0
   38.2500   31.5460   41.0080 F   0  0  0  0  0  0  0  0  0  0  0  0
   36.0390   31.1380   41.3840 F   0  0  0  0  0  0  0  0  0  0  0  0
  1  7  1  0  0  0  0
  1  2  1  0  0  0  0
  2 11  1  0  0  0  0
  3  2  2  0  0  0  0
  3 18  1  0  0  0  0
  4  3  1  0  0  0  0
  5  6  1  0  0  0  0
  5  4  2  0  0  0  0
  6  1  2  0  0  0  0
  8  5  1  0  0  0  0
  9 10  1  0  0  0  0
 10 17  1  0  0  0  0
 11 12  1  0  0  0  0
 11 10  2  0  0  0  0
 12 14  2  0  0  0  0
 13 12  1  0  0  0  0
 14 15  1  0  0  0  0
 14 16  1  0  0  0  0
 17 16  2  0  0  0  0
 18 20  1  0  0  0  0
 18 21  1  0  0  0  0
 19 18  1  0  0  0  0
M  END
>  <minimizedAffinity>
-4.7312851

$$$$

 OpenBabel03252501183D

 21 22  0  0  0  0  0  0  0  0999 V2000
   39.4710   27.6550   40.2730 C   0  0  0  0  0  0  0  0  0  0  0  0
   38.4140   28.1680   41.0570 C   0  0  0  0  0  0  0  0  0  0  0  0
   37.8710   27.3330   42.0380 C   0  0  0  0  0  0  0  0  0  0  0  0
   38.3900   26.0910   42.1730 N   0  0  0  0  0  0  0  0  0  0  0  0
   39.4000   25.6250   41.4120 C   0  0  0  0  0  0  0  0  0  0  0  0
   39.9320   26.4050   40.4710 N   0  0  0  0  0  0  0  0  0  0  0  0
   39.9520   28.2200   39.4970 H   0  0  0  0  0  0  0  0  0  0  0  0
   39.7080   24.6120   41.6380 H   0  0  0  0  0  0  0  0  0  0  0  0
   39.4930   30.6000   42.5930 Cl  0  0  0  0  0  0  0  0  0  0  0  0
   38.3970   30.7380   41.2350 C   0  0  0  0  0  0  0  0  0  0  0  0
   38.0360   29.5300   40.7040 C   0  0  0  0  0  0  0  0  0  0  0  0
   37.1550   29.5000   39.6170 C   0  0  0  0  0  0  0  0  0  0  0  0
   36.7710   28.6200   39.0820 H   0  0  0  0  0  0  0  0  0  0  0  0
   36.6400   30.6770   39.0640 C   0  0  0  0  0  0  0  0  0  0  0  0
   35.9680   30.7190   38.2400 H   0  0  0  0  0  0  0  0  0  0  0  0
   37.0280   31.8760   39.6260 C   0  0  0  0  0  3  0  0  0  0  0  0
   37.8940   31.9020   40.6960 C   0  0  0  0  0  3  0  0  0  0  0  0
   36.7850   27.9270   42.8070 C   0  0  0  0  0  0  0  0  0  0  0  0
   36.2210   26.9280   43.6090 F   0  0  0  0  0  0  0  0  0  0  0  0
   35.7880   28.2610   41.9210 F   0  0  0  0  0  0  0  0  0  0  0  0
   37.1490   28.9430   43.6180 F   0  0  0  0  0  0  0  0  0  0  0  0
  1  6  2  0  0  0  0
  1  2  1  0  0  0  0
  2  3  2  0  0  0  0
  3  4  1  0  0  0  0
  3 18  1  0  0  0  0
  5  8  1  0  0  0  0
  5  4  2  0  0  0  0
  6  5  1  0  0  0  0
  7  1  1  0  0  0  0
 10  9  1  0  0  0  0
 11  2  1  0  0  0  0
 11 10  1  0  0  0  0
 12 11  2  0  0  0  0
 13 12  1  0  0  0  0
 14 12  1  0  0  0  0
 14 16  2  0  0  0  0
 15 14  1  0  0  0  0
 16 17  1  0  0  0  0
 17 10  2  0  0  0  0
 18 19  1  0  0  0  0
 18 21  1  0  0  0  0
 20 18  1  0  0  0  0
M  END
>  <minimizedAffinity>
-4.72669125

$$$$

 OpenBabel03252501183D

 21 22  0  0  0  0  0  0  0  0999 V2000
   36.0970   28.1250   40.1430 C   0  0  0  0  0  0  0  0  0  0  0  0
   37.1380   27.9620   41.0820 C   0  0  0  0  0  0  0  0  0  0  0  0
   37.5060   29.0770   41.8410 C   0  0  0  0  0  0  0  0  0  0  0  0
   36.8420   30.2360   41.6290 N   0  0  0  0  0  0  0  0  0  0  0  0
   35.8490   30.3650   40.7260 C   0  0  0  0  0  0  0  0  0  0  0  0
   35.4840   29.3150   39.9920 N   0  0  0  0  0  0  0  0  0  0  0  0
   35.7440   27.3270   39.5150 H   0  0  0  0  0  0  0  0  0  0  0  0
   35.4130   31.3550   40.6710 H   0  0  0  0  0  0  0  0  0  0  0  0
   39.5800   27.1800   39.3890 Cl  0  0  0  0  0  0  0  0  0  0  0  0
   38.7610   26.0610   40.4560 C   0  0  0  0  0  0  0  0  0  0  0  0
   37.6940   26.6150   41.1080 C   0  0  0  0  0  0  0  0  0  0  0  0
   36.9460   25.8220   41.9860 C   0  0  0  0  0  0  0  0  0  0  0  0
   36.0680   26.1150   42.5800 H   0  0  0  0  0  0  0  0  0  0  0  0
   37.2680   24.4800   42.2110 C   0  0  0  0  0  0  0  0  0  0  0  0
   36.7390   23.8280   42.8650 H   0  0  0  0  0  0  0  0  0  0  0  0
   38.3520   23.9570   41.5360 C   0  0  0  0  0  3  0  0  0  0  0  0
   39.0850   24.7390   40.6720 C   0  0  0  0  0  3  0  0  0  0  0  0
   38.5870   28.8370   42.7880 C   0  0  0  0  0  0  0  0  0  0  0  0
   38.8040   30.0160   43.5110 F   0  0  0  0  0  0  0  0  0  0  0  0
   39.7400   28.6620   42.0600 F   0  0  0  0  0  0  0  0  0  0  0  0
   38.3560   27.8500   43.6800 F   0  0  0  0  0  0  0  0  0  0  0  0
  1  2  1  0  0  0  0
  2 11  1  0  0  0  0
  2  3  2  0  0  0  0
  3 18  1  0  0  0  0
  4  3  1  0  0  0  0
  5  4  2  0  0  0  0
  6  1  2  0  0  0  0
  6  5  1  0  0  0  0
  7  1  1  0  0  0  0
  8  5  1  0  0  0  0
  9 10  1  0  0  0  0
 10 17  2  0  0  0  0
 10 11  1  0  0  0  0
 11 12  2  0  0  0  0
 12 14  1  0  0  0  0
 12 13  1  0  0  0  0
 14 15  1  0  0  0  0
 16 14  2  0  0  0  0
 17 16  1  0  0  0  0
 18 19  1  0  0  0  0
 18 21  1  0  0  0  0
 20 18  1  0  0  0  0
M  END
>  <minimizedAffinity>
-4.6901927

$$$$

 OpenBabel03252501183D

 21 22  0  0  0  0  0  0  0  0999 V2000
   39.9590   29.4040   39.4180 C   0  0  0  0  0  0  0  0  0  0  0  0
   38.8200   30.0560   39.9390 C   0  0  0  0  0  0  0  0  0  0  0  0
   38.3670   31.1990   39.2730 C   0  0  0  0  0  0  0  0  0  0  0  0
   39.0470   31.6070   38.1770 N   0  0  0  0  0  0  0  0  0  0  0  0
   40.1330   30.9650   37.7000 C   0  0  0  0  0  0  0  0  0  0  0  0
   40.5810   29.8740   38.3190 N   0  0  0  0  0  0  0  0  0  0  0  0
   40.3800   28.5190   39.8590 H   0  0  0  0  0  0  0  0  0  0  0  0
   40.5700   31.4110   36.8150 H   0  0  0  0  0  0  0  0  0  0  0  0
   39.6970   30.8940   42.7620 Cl  0  0  0  0  0  0  0  0  0  0  0  0
   38.5160   29.6370   42.4630 C   0  0  0  0  0  0  0  0  0  0  0  0
   38.2800   29.4190   41.1330 C   0  0  0  0  0  0  0  0  0  0  0  0
   37.3620   28.4330   40.7580 C   0  0  0  0  0  0  0  0  0  0  0  0
   37.0640   28.1380   39.7410 H   0  0  0  0  0  0  0  0  0  0  0  0
   36.6820   27.6680   41.7110 C   0  0  0  0  0  0  0  0  0  0  0  0
   35.9740   26.9050   41.4890 H   0  0  0  0  0  0  0  0  0  0  0  0
   36.9460   27.9170   43.0420 C   0  0  0  0  0  3  0  0  0  0  0  0
   37.8510   28.8880   43.4090 C   0  0  0  0  0  3  0  0  0  0  0  0
   37.1890   31.8200   39.8660 C   0  0  0  0  0  0  0  0  0  0  0  0
   36.8030   32.8900   39.0490 F   0  0  0  0  0  0  0  0  0  0  0  0
   37.5830   32.4100   41.0430 F   0  0  0  0  0  0  0  0  0  0  0  0
   36.1220   31.0040   40.0010 F   0  0  0  0  0  0  0  0  0  0  0  0
  1  7  1  0  0  0  0
  1  2  1  0  0  0  0
  2 11  1  0  0  0  0
  3 18  1  0  0  0  0
  3  2  2  0  0  0  0
  4  3  1  0  0  0  0
  5  4  2  0  0  0  0
  5  6  1  0  0  0  0
  6  1  2  0  0  0  0
  8  5  1  0  0  0  0
 10  9  1  0  0  0  0
 10 17  1  0  0  0  0
 11 10  2  0  0  0  0
 12 11  1  0  0  0  0
 12 14  2  0  0  0  0
 13 12  1  0  0  0  0
 14 16  1  0  0  0  0
 15 14  1  0  0  0  0
 16 17  2  0  0  0  0
 18 21  1  0  0  0  0
 18 20  1  0  0  0  0
 19 18  1  0  0  0  0
M  END
>  <minimizedAffinity>
-4.65342331

$$$$

 OpenBabel03252501183D

 21 22  0  0  0  0  0  0  0  0999 V2000
   36.0610   29.0890   40.4730 C   0  0  0  0  0  0  0  0  0  0  0  0
   37.2260   28.6120   41.1140 C   0  0  0  0  0  0  0  0  0  0  0  0
   38.1760   29.5550   41.5160 C   0  0  0  0  0  0  0  0  0  0  0  0
   37.9210   30.8600   41.2660 N   0  0  0  0  0  0  0  0  0  0  0  0
   36.8000   31.2890   40.6520 C   0  0  0  0  0  0  0  0  0  0  0  0
   35.8810   30.4070   40.2610 N   0  0  0  0  0  0  0  0  0  0  0  0
   35.2750   28.4420   40.1290 H   0  0  0  0  0  0  0  0  0  0  0  0
   36.7370   32.3630   40.5230 H   0  0  0  0  0  0  0  0  0  0  0  0
   36.2830   27.2050   43.6780 Cl  0  0  0  0  0  0  0  0  0  0  0  0
   36.8880   26.3400   42.2820 C   0  0  0  0  0  0  0  0  0  0  0  0
   37.2610   27.1610   41.2540 C   0  0  0  0  0  0  0  0  0  0  0  0
   37.7710   26.5950   40.0800 C   0  0  0  0  0  0  0  0  0  0  0  0
   38.1120   27.1120   39.1720 H   0  0  0  0  0  0  0  0  0  0  0  0
   37.9050   25.2100   39.9380 C   0  0  0  0  0  0  0  0  0  0  0  0
   38.2850   24.7200   39.0730 H   0  0  0  0  0  0  0  0  0  0  0  0
   37.5170   24.4140   40.9970 C   0  0  0  0  0  3  0  0  0  0  0  0
   37.0170   24.9750   42.1500 C   0  0  0  0  0  3  0  0  0  0  0  0
   39.3510   28.9920   42.1690 C   0  0  0  0  0  0  0  0  0  0  0  0
   38.9740   28.5570   43.4460 F   0  0  0  0  0  0  0  0  0  0  0  0
   40.2270   30.0250   42.4020 F   0  0  0  0  0  0  0  0  0  0  0  0
   39.9110   27.9420   41.5300 F   0  0  0  0  0  0  0  0  0  0  0  0
  1  2  1  0  0  0  0
  2 11  1  0  0  0  0
  2  3  2  0  0  0  0
  3 18  1  0  0  0  0
  4  3  1  0  0  0  0
  5  4  2  0  0  0  0
  6  1  2  0  0  0  0
  6  5  1  0  0  0  0
  7  1  1  0  0  0  0
  8  5  1  0  0  0  0
 10  9  1  0  0  0  0
 11 10  2  0  0  0  0
 12 11  1  0  0  0  0
 13 12  1  0  0  0  0
 14 12  2  0  0  0  0
 14 16  1  0  0  0  0
 15 14  1  0  0  0  0
 16 17  2  0  0  0  0
 17 10  1  0  0  0  0
 18 20  1  0  0  0  0
 18 19  1  0  0  0  0
 21 18  1  0  0  0  0
M  END
>  <minimizedAffinity>
-4.65112638

$$$$

 OpenBabel03252501183D

 21 22  0  0  0  0  0  0  0  0999 V2000
   36.5890   27.5650   38.9570 C   0  0  0  0  0  0  0  0  0  0  0  0
   36.8360   28.6630   39.8090 C   0  0  0  0  0  0  0  0  0  0  0  0
   36.4940   29.9360   39.3410 C   0  0  0  0  0  0  0  0  0  0  0  0
   35.9490   30.0330   38.1070 N   0  0  0  0  0  0  0  0  0  0  0  0
   35.7230   28.9670   37.3120 C   0  0  0  0  0  0  0  0  0  0  0  0
   36.0420   27.7460   37.7390 N   0  0  0  0  0  0  0  0  0  0  0  0
   36.8170   26.5500   39.2280 H   0  0  0  0  0  0  0  0  0  0  0  0
   35.2810   29.2040   36.3530 H   0  0  0  0  0  0  0  0  0  0  0  0
   39.8820   28.5400   40.1910 Cl  0  0  0  0  0  0  0  0  0  0  0  0
   38.7450   28.1800   41.4710 C   0  0  0  0  0  0  0  0  0  0  0  0
   37.4370   28.2880   41.0820 C   0  0  0  0  0  0  0  0  0  0  0  0
   36.4260   28.0180   42.0110 C   0  0  0  0  0  0  0  0  0  0  0  0
   35.3390   28.0580   41.8570 H   0  0  0  0  0  0  0  0  0  0  0  0
   36.7240   27.6420   43.3250 C   0  0  0  0  0  0  0  0  0  0  0  0
   36.0020   27.4240   44.0750 H   0  0  0  0  0  0  0  0  0  0  0  0
   38.0540   27.5450   43.6800 C   0  0  0  0  0  3  0  0  0  0  0  0
   39.0470   27.8110   42.7630 C   0  0  0  0  0  3  0  0  0  0  0  0
   36.7770   31.0200   40.2720 C   0  0  0  0  0  0  0  0  0  0  0  0
   38.1010   30.8860   40.7090 F   0  0  0  0  0  0  0  0  0  0  0  0
   36.0190   30.8050   41.3990 F   0  0  0  0  0  0  0  0  0  0  0  0
   36.6420   32.2620   39.7590 F   0  0  0  0  0  0  0  0  0  0  0  0
  1  7  1  0  0  0  0
  1  2  1  0  0  0  0
  2 11  1  0  0  0  0
  3  2  2  0  0  0  0
  3 18  1  0  0  0  0
  4  3  1  0  0  0  0
  5  6  1  0  0  0  0
  5  4  2  0  0  0  0
  6  1  2  0  0  0  0
  8  5  1  0  0  0  0
  9 10  1  0  0  0  0
 10 17  1  0  0  0  0
 11 10  2  0  0  0  0
 11 12  1  0  0  0  0
 12 14  2  0  0  0  0
 13 12  1  0  0  0  0
 14 16  1  0  0  0  0
 14 15  1  0  0  0  0
 17 16  2  0  0  0  0
 18 19  1  0  0  0  0
 18 20  1  0  0  0  0
 21 18  1  0  0  0  0
M  END
>  <minimizedAffinity>
-4.63441706

$$$$

 OpenBabel03252501183D

 21 22  0  0  0  0  0  0  0  0999 V2000
   40.0640   28.9190   42.1430 C   0  0  0  0  0  0  0  0  0  0  0  0
   38.7710   28.4510   41.8200 C   0  0  0  0  0  0  0  0  0  0  0  0
   38.3140   27.3050   42.4770 C   0  0  0  0  0  0  0  0  0  0  0  0
   39.1360   26.7190   43.3780 N   0  0  0  0  0  0  0  0  0  0  0  0
   40.3670   27.1860   43.6690 C   0  0  0  0  0  0  0  0  0  0  0  0
   40.8220   28.2780   43.0540 N   0  0  0  0  0  0  0  0  0  0  0  0
   40.5010   29.7910   41.6920 H   0  0  0  0  0  0  0  0  0  0  0  0
   40.9060   26.6110   44.4110 H   0  0  0  0  0  0  0  0  0  0  0  0
   39.0230   27.8440   38.8190 Cl  0  0  0  0  0  0  0  0  0  0  0  0
   38.0610   29.1630   39.4480 C   0  0  0  0  0  0  0  0  0  0  0  0
   38.0950   29.2580   40.8120 C   0  0  0  0  0  0  0  0  0  0  0  0
   37.3740   30.2780   41.4420 C   0  0  0  0  0  0  0  0  0  0  0  0
   37.2990   30.4880   42.5190 H   0  0  0  0  0  0  0  0  0  0  0  0
   36.6190   31.1990   40.7080 C   0  0  0  0  0  0  0  0  0  0  0  0
   36.0510   31.9940   41.1280 H   0  0  0  0  0  0  0  0  0  0  0  0
   36.6090   31.0700   39.3340 C   0  0  0  0  0  3  0  0  0  0  0  0
   37.3200   30.0660   38.7170 C   0  0  0  0  0  3  0  0  0  0  0  0
   36.9740   26.8800   42.0940 C   0  0  0  0  0  0  0  0  0  0  0  0
   36.0610   27.8220   42.5840 F   0  0  0  0  0  0  0  0  0  0  0  0
   36.6910   25.7310   42.7940 F   0  0  0  0  0  0  0  0  0  0  0  0
   36.7690   26.7670   40.7650 F   0  0  0  0  0  0  0  0  0  0  0  0
  1  6  1  0  0  0  0
  2  1  2  0  0  0  0
  2  3  1  0  0  0  0
  3  4  2  0  0  0  0
  4  5  1  0  0  0  0
  5  8  1  0  0  0  0
  6  5  2  0  0  0  0
  7  1  1  0  0  0  0
  9 10  1  0  0  0  0
 10 11  1  0  0  0  0
 11 12  2  0  0  0  0
 11  2  1  0  0  0  0
 12 13  1  0  0  0  0
 14 15  1  0  0  0  0
 14 12  1  0  0  0  0
 16 14  2  0  0  0  0
 17 16  1  0  0  0  0
 17 10  2  0  0  0  0
 18  3  1  0  0  0  0
 18 19  1  0  0  0  0
 18 20  1  0  0  0  0
 21 18  1  0  0  0  0
M  END
>  <minimizedAffinity>
-4.55793619

$$$$

 OpenBabel03252501183D

 21 22  0  0  0  0  0  0  0  0999 V2000
   39.9050   29.2850   39.3950 C   0  0  0  0  0  0  0  0  0  0  0  0
   38.7180   29.9080   39.8370 C   0  0  0  0  0  0  0  0  0  0  0  0
   38.3370   31.0960   39.2060 C   0  0  0  0  0  0  0  0  0  0  0  0
   39.1270   31.5710   38.2160 N   0  0  0  0  0  0  0  0  0  0  0  0
   40.2570   30.9550   37.8120 C   0  0  0  0  0  0  0  0  0  0  0  0
   40.6380   29.8220   38.4000 N   0  0  0  0  0  0  0  0  0  0  0  0
   40.2790   28.3700   39.8170 H   0  0  0  0  0  0  0  0  0  0  0  0
   40.7820   31.4560   37.0080 H   0  0  0  0  0  0  0  0  0  0  0  0
   36.5110   27.8350   39.3140 Cl  0  0  0  0  0  0  0  0  0  0  0  0
   37.0750   28.2440   40.9190 C   0  0  0  0  0  0  0  0  0  0  0  0
   38.0570   29.1970   40.9240 C   0  0  0  0  0  0  0  0  0  0  0  0
   38.5890   29.6210   42.1460 C   0  0  0  0  0  0  0  0  0  0  0  0
   39.3740   30.3710   42.3180 H   0  0  0  0  0  0  0  0  0  0  0  0
   38.1400   29.0910   43.3600 C   0  0  0  0  0  0  0  0  0  0  0  0
   38.5040   29.3720   44.3200 H   0  0  0  0  0  0  0  0  0  0  0  0
   37.1490   28.1310   43.3150 C   0  0  0  0  0  3  0  0  0  0  0  0
   36.6270   27.7170   42.1100 C   0  0  0  0  0  3  0  0  0  0  0  0
   37.1040   31.6840   39.7130 C   0  0  0  0  0  0  0  0  0  0  0  0
   36.8220   32.8280   38.9560 F   0  0  0  0  0  0  0  0  0  0  0  0
   37.3640   32.1620   40.9750 F   0  0  0  0  0  0  0  0  0  0  0  0
   36.0210   30.8790   39.6530 F   0  0  0  0  0  0  0  0  0  0  0  0
  1  7  1  0  0  0  0
  1  2  1  0  0  0  0
  2 11  1  0  0  0  0
  3 18  1  0  0  0  0
  3  2  2  0  0  0  0
  4  3  1  0  0  0  0
  5  4  2  0  0  0  0
  5  6  1  0  0  0  0
  6  1  2  0  0  0  0
  8  5  1  0  0  0  0
  9 10  1  0  0  0  0
 10 11  2  0  0  0  0
 10 17  1  0  0  0  0
 11 12  1  0  0  0  0
 12 13  1  0  0  0  0
 12 14  2  0  0  0  0
 14 15  1  0  0  0  0
 16 14  1  0  0  0  0
 17 16  2  0  0  0  0
 18 20  1  0  0  0  0
 19 18  1  0  0  0  0
 21 18  1  0  0  0  0
M  END
>  <minimizedAffinity>
-4.54643154

$$$$
