
 OpenBabel03252506033D

 28 30  0  0  0  0  0  0  0  0999 V2000
   38.4710   33.2600   40.8610 Cl  0  0  0  0  0  0  0  0  0  0  0  0
   38.1130   31.5660   40.8980 C   0  0  0  0  0  0  0  0  0  0  0  0
   39.0950   30.6620   41.1580 C   0  0  0  0  0  0  0  0  0  0  0  0
   38.7190   29.3240   41.1670 C   0  0  0  0  0  0  0  0  0  0  0  0
   37.4330   28.8690   40.9330 C   0  0  0  0  0  0  0  0  0  0  0  0
   36.4660   29.8090   40.6750 C   0  0  0  0  0  0  0  0  0  0  0  0
   34.8550   29.2030   40.3850 Cl  0  0  0  0  0  0  0  0  0  0  0  0
   36.8010   31.1430   40.6560 C   0  0  0  0  0  0  0  0  0  0  0  0
   39.5310   28.6150   41.3790 H   0  0  0  0  0  0  0  0  0  0  0  0
   36.0200   31.8420   40.4520 H   0  0  0  0  0  0  0  0  0  0  0  0
   42.5400   31.7190   40.5380 C   0  0  0  0  0  0  0  0  0  0  0  0
   43.0920   31.8020   41.8150 C   0  0  0  0  0  0  0  0  0  0  0  0
   42.2620   31.4880   42.9030 C   0  0  0  0  0  0  0  0  0  0  0  0
   40.9750   31.1240   42.6490 N   0  0  0  0  0  0  0  0  0  0  0  0
   40.4730   31.0530   41.4140 C   0  0  0  0  0  0  0  0  0  0  0  0
   41.2600   31.3530   40.3410 N   0  0  0  0  0  0  0  0  0  0  0  0
   43.1290   31.9490   39.6440 H   0  0  0  0  0  0  0  0  0  0  0  0
   44.1220   32.0980   41.9500 H   0  0  0  0  0  0  0  0  0  0  0  0
   42.6580   31.5430   43.9080 H   0  0  0  0  0  0  0  0  0  0  0  0
   37.0270   27.8640   43.6790 Cl  0  0  0  0  0  0  0  0  0  0  0  0
   37.0500   26.8610   42.2420 C   0  0  0  0  0  0  0  0  0  0  0  0
   37.2470   27.4150   40.9900 C   0  0  0  0  0  0  0  0  0  0  0  0
   37.2740   26.6660   39.8220 C   0  0  0  0  0  0  0  0  0  0  0  0
   37.4300   27.1300   38.8610 H   0  0  0  0  0  0  0  0  0  0  0  0
   37.0960   25.2960   39.9020 C   0  0  0  0  0  0  0  0  0  0  0  0
   37.1150   24.6960   39.0030 H   0  0  0  0  0  0  0  0  0  0  0  0
   36.9010   24.7570   41.1530 C   0  0  0  0  0  3  0  0  0  0  0  0
   36.8740   25.4870   42.2980 C   0  0  0  0  0  3  0  0  0  0  0  0
  1  2  1  0  0  0  0
  2  3  1  0  0  0  0
  3  4  2  0  0  0  0
  3 15  1  0  0  0  0
  4  9  1  0  0  0  0
  5 22  1  0  0  0  0
  5  4  1  0  0  0  0
  6  5  2  0  0  0  0
  7  6  1  0  0  0  0
  8  6  1  0  0  0  0
  8  2  2  0  0  0  0
 10  8  1  0  0  0  0
 11 12  1  0  0  0  0
 12 18  1  0  0  0  0
 12 13  2  0  0  0  0
 13 19  1  0  0  0  0
 14 13  1  0  0  0  0
 15 14  2  0  0  0  0
 16 11  2  0  0  0  0
 16 15  1  0  0  0  0
 17 11  1  0  0  0  0
 21 28  1  0  0  0  0
 21 20  1  0  0  0  0
 22 21  2  0  0  0  0
 23 25  2  0  0  0  0
 23 22  1  0  0  0  0
 24 23  1  0  0  0  0
 25 27  1  0  0  0  0
 26 25  1  0  0  0  0
 27 28  2  0  0  0  0
M  END
>  <minimizedAffinity>
-5.40288544

$$$$

 OpenBabel03252506033D

 28 30  0  0  0  0  0  0  0  0999 V2000
   37.6910   32.0750   36.3740 Cl  0  0  0  0  0  0  0  0  0  0  0  0
   37.7490   31.1100   37.8110 C   0  0  0  0  0  0  0  0  0  0  0  0
   38.7750   31.2510   38.6920 C   0  0  0  0  0  0  0  0  0  0  0  0
   38.7430   30.4370   39.8180 C   0  0  0  0  0  0  0  0  0  0  0  0
   37.7490   29.5120   40.0880 C   0  0  0  0  0  0  0  0  0  0  0  0
   36.7270   29.3970   39.1780 C   0  0  0  0  0  0  0  0  0  0  0  0
   35.4900   28.2220   39.5470 Cl  0  0  0  0  0  0  0  0  0  0  0  0
   36.7260   30.1860   38.0510 C   0  0  0  0  0  0  0  0  0  0  0  0
   39.5830   30.5700   40.5130 H   0  0  0  0  0  0  0  0  0  0  0  0
   35.9140   30.0660   37.3680 H   0  0  0  0  0  0  0  0  0  0  0  0
   40.9400   34.1580   39.1770 C   0  0  0  0  0  0  0  0  0  0  0  0
   41.8880   34.0330   38.1620 C   0  0  0  0  0  0  0  0  0  0  0  0
   41.7760   32.9300   37.3010 C   0  0  0  0  0  0  0  0  0  0  0  0
   40.7560   32.0530   37.5060 N   0  0  0  0  0  0  0  0  0  0  0  0
   39.8610   32.1970   38.4860 C   0  0  0  0  0  0  0  0  0  0  0  0
   39.9490   33.2610   39.3350 N   0  0  0  0  0  0  0  0  0  0  0  0
   40.9660   34.9930   39.8850 H   0  0  0  0  0  0  0  0  0  0  0  0
   42.6760   34.7650   38.0530 H   0  0  0  0  0  0  0  0  0  0  0  0
   42.4960   32.8020   36.5030 H   0  0  0  0  0  0  0  0  0  0  0  0
   39.2120   26.9740   39.7190 Cl  0  0  0  0  0  0  0  0  0  0  0  0
   38.5760   27.5470   41.2490 C   0  0  0  0  0  0  0  0  0  0  0  0
   37.9010   28.7520   41.3330 C   0  0  0  0  0  0  0  0  0  0  0  0
   37.3790   29.2500   42.5180 C   0  0  0  0  0  0  0  0  0  0  0  0
   36.8570   30.1930   42.5490 H   0  0  0  0  0  0  0  0  0  0  0  0
   37.5360   28.5150   43.6800 C   0  0  0  0  0  0  0  0  0  0  0  0
   37.1350   28.8860   44.6120 H   0  0  0  0  0  0  0  0  0  0  0  0
   38.2090   27.3190   43.5830 C   0  0  0  0  0  3  0  0  0  0  0  0
   38.7210   26.8270   42.4250 C   0  0  0  0  0  3  0  0  0  0  0  0
  1  2  1  0  0  0  0
  2  8  2  0  0  0  0
  2  3  1  0  0  0  0
  3  4  2  0  0  0  0
  4  5  1  0  0  0  0
  4  9  1  0  0  0  0
  5 22  1  0  0  0  0
  6  7  1  0  0  0  0
  6  5  2  0  0  0  0
  8  6  1  0  0  0  0
 10  8  1  0  0  0  0
 11 16  1  0  0  0  0
 11 17  1  0  0  0  0
 12 11  2  0  0  0  0
 13 14  2  0  0  0  0
 13 12  1  0  0  0  0
 14 15  1  0  0  0  0
 15  3  1  0  0  0  0
 15 16  2  0  0  0  0
 18 12  1  0  0  0  0
 19 13  1  0  0  0  0
 20 21  1  0  0  0  0
 21 22  2  0  0  0  0
 21 28  1  0  0  0  0
 22 23  1  0  0  0  0
 23 24  1  0  0  0  0
 23 25  2  0  0  0  0
 25 26  1  0  0  0  0
 27 25  1  0  0  0  0
 28 27  2  0  0  0  0
M  END
>  <minimizedAffinity>
-5.3167963

$$$$

 OpenBabel03252506033D

 28 30  0  0  0  0  0  0  0  0999 V2000
   37.2450   33.8020   39.5300 Cl  0  0  0  0  0  0  0  0  0  0  0  0
   37.5750   32.1510   39.9330 C   0  0  0  0  0  0  0  0  0  0  0  0
   38.8560   31.7000   39.9900 C   0  0  0  0  0  0  0  0  0  0  0  0
   39.0290   30.3620   40.3200 C   0  0  0  0  0  0  0  0  0  0  0  0
   37.9950   29.4800   40.5870 C   0  0  0  0  0  0  0  0  0  0  0  0
   36.7140   29.9690   40.5210 C   0  0  0  0  0  0  0  0  0  0  0  0
   35.4340   28.8330   40.8630 Cl  0  0  0  0  0  0  0  0  0  0  0  0
   36.5040   31.2890   40.1960 C   0  0  0  0  0  0  0  0  0  0  0  0
   40.0730   30.0230   40.3600 H   0  0  0  0  0  0  0  0  0  0  0  0
   35.4930   31.6300   40.1550 H   0  0  0  0  0  0  0  0  0  0  0  0
   41.4830   33.4530   38.1470 C   0  0  0  0  0  0  0  0  0  0  0  0
   42.1620   34.1610   39.1370 C   0  0  0  0  0  0  0  0  0  0  0  0
   41.7050   34.0300   40.4580 C   0  0  0  0  0  0  0  0  0  0  0  0
   40.6330   33.2250   40.6930 N   0  0  0  0  0  0  0  0  0  0  0  0
   40.0010   32.5570   39.7240 C   0  0  0  0  0  0  0  0  0  0  0  0
   40.4270   32.6690   38.4330 N   0  0  0  0  0  0  0  0  0  0  0  0
   41.7850   33.5080   37.0950 H   0  0  0  0  0  0  0  0  0  0  0  0
   43.0080   34.7850   38.8850 H   0  0  0  0  0  0  0  0  0  0  0  0
   42.2090   34.5660   41.2510 H   0  0  0  0  0  0  0  0  0  0  0  0
   38.1180   28.9810   43.4940 Cl  0  0  0  0  0  0  0  0  0  0  0  0
   38.4750   27.7880   42.2600 C   0  0  0  0  0  0  0  0  0  0  0  0
   38.3920   28.1070   40.9170 C   0  0  0  0  0  0  0  0  0  0  0  0
   38.6640   27.2010   39.9020 C   0  0  0  0  0  0  0  0  0  0  0  0
   38.5900   27.4830   38.8630 H   0  0  0  0  0  0  0  0  0  0  0  0
   39.0370   25.9120   40.2380 C   0  0  0  0  0  0  0  0  0  0  0  0
   39.2530   25.1920   39.4610 H   0  0  0  0  0  0  0  0  0  0  0  0
   39.1150   25.6070   41.5770 C   0  0  0  0  0  3  0  0  0  0  0  0
   38.8500   26.4910   42.5740 C   0  0  0  0  0  3  0  0  0  0  0  0
  1  2  1  0  0  0  0
  2  3  2  0  0  0  0
  2  8  1  0  0  0  0
  3  4  1  0  0  0  0
  4  9  1  0  0  0  0
  4  5  2  0  0  0  0
  5 22  1  0  0  0  0
  6  5  1  0  0  0  0
  6  7  1  0  0  0  0
  8  6  2  0  0  0  0
 10  8  1  0  0  0  0
 11 16  2  0  0  0  0
 11 12  1  0  0  0  0
 12 13  2  0  0  0  0
 13 14  1  0  0  0  0
 13 19  1  0  0  0  0
 15  3  1  0  0  0  0
 15 14  2  0  0  0  0
 16 15  1  0  0  0  0
 17 11  1  0  0  0  0
 18 12  1  0  0  0  0
 21 28  1  0  0  0  0
 21 20  1  0  0  0  0
 22 21  2  0  0  0  0
 23 25  2  0  0  0  0
 23 22  1  0  0  0  0
 24 23  1  0  0  0  0
 25 27  1  0  0  0  0
 26 25  1  0  0  0  0
 27 28  2  0  0  0  0
M  END
>  <minimizedAffinity>
-5.28039885

$$$$

 OpenBabel03252506033D

 28 30  0  0  0  0  0  0  0  0999 V2000
   40.8230   31.1090   42.6870 Cl  0  0  0  0  0  0  0  0  0  0  0  0
   40.1680   29.5500   42.3130 C   0  0  0  0  0  0  0  0  0  0  0  0
   39.2580   29.4090   41.3130 C   0  0  0  0  0  0  0  0  0  0  0  0
   38.7850   28.1230   41.0820 C   0  0  0  0  0  0  0  0  0  0  0  0
   39.1760   27.0040   41.7960 C   0  0  0  0  0  0  0  0  0  0  0  0
   40.0960   27.1820   42.7990 C   0  0  0  0  0  0  0  0  0  0  0  0
   40.5690   25.7520   43.6790 Cl  0  0  0  0  0  0  0  0  0  0  0  0
   40.5870   28.4420   43.0570 C   0  0  0  0  0  0  0  0  0  0  0  0
   38.0520   28.0370   40.2680 H   0  0  0  0  0  0  0  0  0  0  0  0
   41.3010   28.5380   43.8440 H   0  0  0  0  0  0  0  0  0  0  0  0
   37.2480   32.2740   40.2520 C   0  0  0  0  0  0  0  0  0  0  0  0
   37.8470   32.6710   39.0580 C   0  0  0  0  0  0  0  0  0  0  0  0
   38.9600   31.9380   38.6150 C   0  0  0  0  0  0  0  0  0  0  0  0
   39.3860   30.8910   39.3730 N   0  0  0  0  0  0  0  0  0  0  0  0
   38.7920   30.5320   40.5130 C   0  0  0  0  0  0  0  0  0  0  0  0
   37.7090   31.2280   40.9640 N   0  0  0  0  0  0  0  0  0  0  0  0
   36.3760   32.7990   40.6580 H   0  0  0  0  0  0  0  0  0  0  0  0
   37.4610   33.5130   38.5030 H   0  0  0  0  0  0  0  0  0  0  0  0
   39.4500   32.2190   37.6920 H   0  0  0  0  0  0  0  0  0  0  0  0
   36.5730   26.5250   43.1040 Cl  0  0  0  0  0  0  0  0  0  0  0  0
   37.3310   25.4350   41.9600 C   0  0  0  0  0  0  0  0  0  0  0  0
   38.5560   25.7370   41.3930 C   0  0  0  0  0  0  0  0  0  0  0  0
   39.1980   24.9090   40.4830 C   0  0  0  0  0  0  0  0  0  0  0  0
   40.1530   25.1750   40.0600 H   0  0  0  0  0  0  0  0  0  0  0  0
   38.5930   23.7190   40.1190 C   0  0  0  0  0  0  0  0  0  0  0  0
   39.0780   23.0610   39.4120 H   0  0  0  0  0  0  0  0  0  0  0  0
   37.3750   23.4300   40.6900 C   0  0  0  0  0  3  0  0  0  0  0  0
   36.7430   24.2380   41.5810 C   0  0  0  0  0  3  0  0  0  0  0  0
  2  1  1  0  0  0  0
  2  8  1  0  0  0  0
  3  2  2  0  0  0  0
  4  3  1  0  0  0  0
  4  5  2  0  0  0  0
  5  6  1  0  0  0  0
  6  8  2  0  0  0  0
  6  7  1  0  0  0  0
  8 10  1  0  0  0  0
  9  4  1  0  0  0  0
 11 17  1  0  0  0  0
 11 16  1  0  0  0  0
 12 11  2  0  0  0  0
 13 12  1  0  0  0  0
 13 14  2  0  0  0  0
 14 15  1  0  0  0  0
 15 16  2  0  0  0  0
 15  3  1  0  0  0  0
 18 12  1  0  0  0  0
 19 13  1  0  0  0  0
 21 20  1  0  0  0  0
 22  5  1  0  0  0  0
 22 21  2  0  0  0  0
 23 22  1  0  0  0  0
 24 23  1  0  0  0  0
 25 23  2  0  0  0  0
 25 27  1  0  0  0  0
 26 25  1  0  0  0  0
 27 28  2  0  0  0  0
 28 21  1  0  0  0  0
M  END
>  <minimizedAffinity>
-5.23947191

$$$$

 OpenBabel03252506033D

 28 30  0  0  0  0  0  0  0  0999 V2000
   38.0000   31.8810   36.8880 Cl  0  0  0  0  0  0  0  0  0  0  0  0
   37.7350   30.5570   37.9720 C   0  0  0  0  0  0  0  0  0  0  0  0
   38.7670   29.7470   38.3330 C   0  0  0  0  0  0  0  0  0  0  0  0
   38.4650   28.7090   39.2050 C   0  0  0  0  0  0  0  0  0  0  0  0
   37.2030   28.4570   39.7170 C   0  0  0  0  0  0  0  0  0  0  0  0
   36.1850   29.2940   39.3330 C   0  0  0  0  0  0  0  0  0  0  0  0
   34.6080   28.9500   39.9950 Cl  0  0  0  0  0  0  0  0  0  0  0  0
   36.4460   30.3330   38.4690 C   0  0  0  0  0  0  0  0  0  0  0  0
   39.3150   28.0710   39.4800 H   0  0  0  0  0  0  0  0  0  0  0  0
   35.6280   30.9610   38.1950 H   0  0  0  0  0  0  0  0  0  0  0  0
   42.0760   31.2330   37.8660 C   0  0  0  0  0  0  0  0  0  0  0  0
   42.6950   30.3740   36.9600 C   0  0  0  0  0  0  0  0  0  0  0  0
   41.9590   29.2680   36.5050 C   0  0  0  0  0  0  0  0  0  0  0  0
   40.6920   29.1000   36.9730 N   0  0  0  0  0  0  0  0  0  0  0  0
   40.1230   29.9400   37.8420 C   0  0  0  0  0  0  0  0  0  0  0  0
   40.8180   31.0210   38.2970 N   0  0  0  0  0  0  0  0  0  0  0  0
   42.5900   32.1150   38.2630 H   0  0  0  0  0  0  0  0  0  0  0  0
   43.7060   30.5630   36.6270 H   0  0  0  0  0  0  0  0  0  0  0  0
   42.4100   28.5810   35.8020 H   0  0  0  0  0  0  0  0  0  0  0  0
   37.2640   29.2300   42.5660 Cl  0  0  0  0  0  0  0  0  0  0  0  0
   37.1180   27.5840   41.9800 C   0  0  0  0  0  0  0  0  0  0  0  0
   37.0970   27.3100   40.6250 C   0  0  0  0  0  0  0  0  0  0  0  0
   36.9830   26.0260   40.1100 C   0  0  0  0  0  0  0  0  0  0  0  0
   36.9710   25.8470   39.0470 H   0  0  0  0  0  0  0  0  0  0  0  0
   36.8850   24.9600   40.9870 C   0  0  0  0  0  0  0  0  0  0  0  0
   36.7960   23.9530   40.6050 H   0  0  0  0  0  0  0  0  0  0  0  0
   36.9070   25.2460   42.3320 C   0  0  0  0  0  3  0  0  0  0  0  0
   37.0180   26.5010   42.8400 C   0  0  0  0  0  3  0  0  0  0  0  0
  1  2  1  0  0  0  0
  2  3  2  0  0  0  0
  2  8  1  0  0  0  0
  3  4  1  0  0  0  0
  4  9  1  0  0  0  0
  4  5  2  0  0  0  0
  5 22  1  0  0  0  0
  6  5  1  0  0  0  0
  6  7  1  0  0  0  0
  8  6  2  0  0  0  0
 10  8  1  0  0  0  0
 11 17  1  0  0  0  0
 11 16  1  0  0  0  0
 12 11  2  0  0  0  0
 13 12  1  0  0  0  0
 13 14  2  0  0  0  0
 14 15  1  0  0  0  0
 15 16  2  0  0  0  0
 15  3  1  0  0  0  0
 18 12  1  0  0  0  0
 19 13  1  0  0  0  0
 21 20  1  0  0  0  0
 21 28  1  0  0  0  0
 22 21  2  0  0  0  0
 23 22  1  0  0  0  0
 23 25  2  0  0  0  0
 24 23  1  0  0  0  0
 25 27  1  0  0  0  0
 26 25  1  0  0  0  0
 27 28  2  0  0  0  0
M  END
>  <minimizedAffinity>
-5.05699158

$$$$

 OpenBabel03252506033D

 28 30  0  0  0  0  0  0  0  0999 V2000
   39.7070   25.8160   43.6790 Cl  0  0  0  0  0  0  0  0  0  0  0  0
   39.3690   27.1030   42.5700 C   0  0  0  0  0  0  0  0  0  0  0  0
   38.7240   26.8500   41.4000 C   0  0  0  0  0  0  0  0  0  0  0  0
   38.4950   27.9400   40.5700 C   0  0  0  0  0  0  0  0  0  0  0  0
   38.8770   29.2390   40.8580 C   0  0  0  0  0  0  0  0  0  0  0  0
   39.5250   29.4590   42.0480 C   0  0  0  0  0  0  0  0  0  0  0  0
   39.9920   31.1070   42.3820 Cl  0  0  0  0  0  0  0  0  0  0  0  0
   39.7710   28.4030   42.8960 C   0  0  0  0  0  0  0  0  0  0  0  0
   37.9730   27.7080   39.6320 H   0  0  0  0  0  0  0  0  0  0  0  0
   40.2770   28.6160   43.8110 H   0  0  0  0  0  0  0  0  0  0  0  0
   38.8440   23.4400   40.0840 C   0  0  0  0  0  0  0  0  0  0  0  0
   37.5440   22.9720   40.2670 C   0  0  0  0  0  0  0  0  0  0  0  0
   36.6150   23.8480   40.8520 C   0  0  0  0  0  0  0  0  0  0  0  0
   37.0360   25.0930   41.2050 N   0  0  0  0  0  0  0  0  0  0  0  0
   38.2890   25.5150   41.0180 C   0  0  0  0  0  0  0  0  0  0  0  0
   39.2090   24.6830   40.4510 N   0  0  0  0  0  0  0  0  0  0  0  0
   39.6210   22.8120   39.6340 H   0  0  0  0  0  0  0  0  0  0  0  0
   37.2730   21.9710   39.9650 H   0  0  0  0  0  0  0  0  0  0  0  0
   35.5970   23.5170   41.0080 H   0  0  0  0  0  0  0  0  0  0  0  0
   36.2530   30.5090   41.3270 Cl  0  0  0  0  0  0  0  0  0  0  0  0
   37.3230   30.8910   39.9920 C   0  0  0  0  0  0  0  0  0  0  0  0
   38.5390   30.2460   39.8470 C   0  0  0  0  0  0  0  0  0  0  0  0
   39.4210   30.5110   38.8100 C   0  0  0  0  0  0  0  0  0  0  0  0
   40.3610   29.9900   38.7260 H   0  0  0  0  0  0  0  0  0  0  0  0
   39.0800   31.4650   37.8680 C   0  0  0  0  0  0  0  0  0  0  0  0
   39.7540   31.6850   37.0520 H   0  0  0  0  0  0  0  0  0  0  0  0
   37.8690   32.0990   38.0230 C   0  0  0  0  0  3  0  0  0  0  0  0
   37.0010   31.8430   39.0370 C   0  0  0  0  0  3  0  0  0  0  0  0
  2  8  1  0  0  0  0
  2  1  1  0  0  0  0
  3  2  2  0  0  0  0
  4  5  2  0  0  0  0
  4  3  1  0  0  0  0
  5  6  1  0  0  0  0
  6  7  1  0  0  0  0
  6  8  2  0  0  0  0
  8 10  1  0  0  0  0
  9  4  1  0  0  0  0
 11 12  2  0  0  0  0
 11 16  1  0  0  0  0
 12 13  1  0  0  0  0
 13 19  1  0  0  0  0
 13 14  2  0  0  0  0
 15 14  1  0  0  0  0
 15  3  1  0  0  0  0
 16 15  2  0  0  0  0
 17 11  1  0  0  0  0
 18 12  1  0  0  0  0
 21 20  1  0  0  0  0
 22 21  1  0  0  0  0
 22  5  1  0  0  0  0
 23 22  2  0  0  0  0
 24 23  1  0  0  0  0
 25 27  2  0  0  0  0
 25 23  1  0  0  0  0
 26 25  1  0  0  0  0
 27 28  1  0  0  0  0
 28 21  2  0  0  0  0
M  END
>  <minimizedAffinity>
-5.04888487

$$$$

 OpenBabel03252506033D

 28 30  0  0  0  0  0  0  0  0999 V2000
   34.3840   29.2330   39.0970 Cl  0  0  0  0  0  0  0  0  0  0  0  0
   35.6750   28.4080   39.9040 C   0  0  0  0  0  0  0  0  0  0  0  0
   36.5070   27.5870   39.2090 C   0  0  0  0  0  0  0  0  0  0  0  0
   37.5140   26.9650   39.9360 C   0  0  0  0  0  0  0  0  0  0  0  0
   37.7140   27.1280   41.2970 C   0  0  0  0  0  0  0  0  0  0  0  0
   36.8560   27.9640   41.9670 C   0  0  0  0  0  0  0  0  0  0  0  0
   37.1360   28.1490   43.6800 Cl  0  0  0  0  0  0  0  0  0  0  0  0
   35.8460   28.5970   41.2800 C   0  0  0  0  0  0  0  0  0  0  0  0
   38.1720   26.3080   39.3510 H   0  0  0  0  0  0  0  0  0  0  0  0
   35.2010   29.2400   41.8380 H   0  0  0  0  0  0  0  0  0  0  0  0
   36.9220   28.0190   35.6020 C   0  0  0  0  0  0  0  0  0  0  0  0
   36.1540   26.9910   35.0580 C   0  0  0  0  0  0  0  0  0  0  0  0
   35.4850   26.1380   35.9510 C   0  0  0  0  0  0  0  0  0  0  0  0
   35.6250   26.3640   37.2850 N   0  0  0  0  0  0  0  0  0  0  0  0
   36.3670   27.3580   37.7790 C   0  0  0  0  0  0  0  0  0  0  0  0
   37.0260   28.1990   36.9320 N   0  0  0  0  0  0  0  0  0  0  0  0
   37.4710   28.7220   34.9650 H   0  0  0  0  0  0  0  0  0  0  0  0
   36.0840   26.8640   33.9870 H   0  0  0  0  0  0  0  0  0  0  0  0
   34.8810   25.3290   35.5630 H   0  0  0  0  0  0  0  0  0  0  0  0
   36.9550   24.4220   42.2010 Cl  0  0  0  0  0  0  0  0  0  0  0  0
   38.5670   25.1010   42.3230 C   0  0  0  0  0  0  0  0  0  0  0  0
   38.8370   26.3810   41.8730 C   0  0  0  0  0  0  0  0  0  0  0  0
   40.0940   26.9640   41.9470 C   0  0  0  0  0  0  0  0  0  0  0  0
   40.2700   27.9650   41.5870 H   0  0  0  0  0  0  0  0  0  0  0  0
   41.1370   26.2390   42.4960 C   0  0  0  0  0  0  0  0  0  0  0  0
   42.1220   26.6760   42.5620 H   0  0  0  0  0  0  0  0  0  0  0  0
   40.8560   24.9670   42.9390 C   0  0  0  0  0  3  0  0  0  0  0  0
   39.6260   24.3920   42.8690 C   0  0  0  0  0  3  0  0  0  0  0  0
  1  2  1  0  0  0  0
  2  8  1  0  0  0  0
  3  2  2  0  0  0  0
  3  4  1  0  0  0  0
  4  5  2  0  0  0  0
  5 22  1  0  0  0  0
  5  6  1  0  0  0  0
  6  7  1  0  0  0  0
  8 10  1  0  0  0  0
  8  6  2  0  0  0  0
  9  4  1  0  0  0  0
 11 16  1  0  0  0  0
 12 11  2  0  0  0  0
 12 13  1  0  0  0  0
 13 14  2  0  0  0  0
 14 15  1  0  0  0  0
 15  3  1  0  0  0  0
 16 15  2  0  0  0  0
 17 11  1  0  0  0  0
 18 12  1  0  0  0  0
 19 13  1  0  0  0  0
 20 21  1  0  0  0  0
 21 28  1  0  0  0  0
 22 23  1  0  0  0  0
 22 21  2  0  0  0  0
 23 25  2  0  0  0  0
 24 23  1  0  0  0  0
 25 26  1  0  0  0  0
 25 27  1  0  0  0  0
 28 27  2  0  0  0  0
M  END
>  <minimizedAffinity>
-5.03928614

$$$$

 OpenBabel03252506033D

 28 30  0  0  0  0  0  0  0  0999 V2000
   37.5920   31.5570   37.0960 Cl  0  0  0  0  0  0  0  0  0  0  0  0
   38.0550   30.4460   38.3410 C   0  0  0  0  0  0  0  0  0  0  0  0
   39.2060   30.6360   39.0390 C   0  0  0  0  0  0  0  0  0  0  0  0
   39.5010   29.6960   40.0190 C   0  0  0  0  0  0  0  0  0  0  0  0
   38.7070   28.6020   40.3190 C   0  0  0  0  0  0  0  0  0  0  0  0
   37.5510   28.4410   39.5960 C   0  0  0  0  0  0  0  0  0  0  0  0
   36.5730   27.0520   39.9990 Cl  0  0  0  0  0  0  0  0  0  0  0  0
   37.2270   29.3510   38.6160 C   0  0  0  0  0  0  0  0  0  0  0  0
   40.4360   29.8730   40.5670 H   0  0  0  0  0  0  0  0  0  0  0  0
   36.3200   29.1910   38.0780 H   0  0  0  0  0  0  0  0  0  0  0  0
   40.7800   33.9200   39.3760 C   0  0  0  0  0  0  0  0  0  0  0  0
   41.7510   33.9220   38.3760 C   0  0  0  0  0  0  0  0  0  0  0  0
   41.8620   32.7740   37.5760 C   0  0  0  0  0  0  0  0  0  0  0  0
   41.0210   31.7320   37.8220 N   0  0  0  0  0  0  0  0  0  0  0  0
   40.0990   31.7580   38.7880 C   0  0  0  0  0  0  0  0  0  0  0  0
   39.9720   32.8620   39.5780 N   0  0  0  0  0  0  0  0  0  0  0  0
   40.6370   34.7810   40.0380 H   0  0  0  0  0  0  0  0  0  0  0  0
   42.3890   34.7820   38.2320 H   0  0  0  0  0  0  0  0  0  0  0  0
   42.6050   32.7420   36.7910 H   0  0  0  0  0  0  0  0  0  0  0  0
   37.5850   29.2810   42.9640 Cl  0  0  0  0  0  0  0  0  0  0  0  0
   38.7210   27.9790   42.6650 C   0  0  0  0  0  0  0  0  0  0  0  0
   39.1970   27.7290   41.3910 C   0  0  0  0  0  0  0  0  0  0  0  0
   40.0960   26.7120   41.1010 C   0  0  0  0  0  0  0  0  0  0  0  0
   40.4480   26.5440   40.0960 H   0  0  0  0  0  0  0  0  0  0  0  0
   40.5440   25.9020   42.1290 C   0  0  0  0  0  0  0  0  0  0  0  0
   41.2450   25.1060   41.9230 H   0  0  0  0  0  0  0  0  0  0  0  0
   40.0630   26.1610   43.3920 C   0  0  0  0  0  3  0  0  0  0  0  0
   39.1830   27.1560   43.6800 C   0  0  0  0  0  3  0  0  0  0  0  0
  1  2  1  0  0  0  0
  2  8  2  0  0  0  0
  2  3  1  0  0  0  0
  3  4  2  0  0  0  0
  4  5  1  0  0  0  0
  4  9  1  0  0  0  0
  5 22  1  0  0  0  0
  6  7  1  0  0  0  0
  6  5  2  0  0  0  0
  8  6  1  0  0  0  0
 10  8  1  0  0  0  0
 11 16  1  0  0  0  0
 11 17  1  0  0  0  0
 12 11  2  0  0  0  0
 13 14  2  0  0  0  0
 13 12  1  0  0  0  0
 14 15  1  0  0  0  0
 15  3  1  0  0  0  0
 15 16  2  0  0  0  0
 18 12  1  0  0  0  0
 19 13  1  0  0  0  0
 21 20  1  0  0  0  0
 21 28  1  0  0  0  0
 22 21  2  0  0  0  0
 23 22  1  0  0  0  0
 23 25  2  0  0  0  0
 24 23  1  0  0  0  0
 25 27  1  0  0  0  0
 26 25  1  0  0  0  0
 27 28  2  0  0  0  0
M  END
>  <minimizedAffinity>
-4.95794535

$$$$

 OpenBabel03252506033D

 28 30  0  0  0  0  0  0  0  0999 V2000
   34.9650   24.4760   36.6380 Cl  0  0  0  0  0  0  0  0  0  0  0  0
   35.6690   25.1780   38.0550 C   0  0  0  0  0  0  0  0  0  0  0  0
   35.7160   26.5290   38.2030 C   0  0  0  0  0  0  0  0  0  0  0  0
   36.2990   27.0060   39.3710 C   0  0  0  0  0  0  0  0  0  0  0  0
   36.8240   26.2030   40.3690 C   0  0  0  0  0  0  0  0  0  0  0  0
   36.7600   24.8440   40.1880 C   0  0  0  0  0  0  0  0  0  0  0  0
   37.4300   23.8600   41.4650 Cl  0  0  0  0  0  0  0  0  0  0  0  0
   36.1900   24.3350   39.0430 C   0  0  0  0  0  0  0  0  0  0  0  0
   36.3230   28.1000   39.4650 H   0  0  0  0  0  0  0  0  0  0  0  0
   36.1600   23.2730   38.9410 H   0  0  0  0  0  0  0  0  0  0  0  0
   33.3720   28.7060   36.4300 C   0  0  0  0  0  0  0  0  0  0  0  0
   34.1170   29.1790   35.3510 C   0  0  0  0  0  0  0  0  0  0  0  0
   35.4460   28.7400   35.2370 C   0  0  0  0  0  0  0  0  0  0  0  0
   35.9260   27.8840   36.1790 N   0  0  0  0  0  0  0  0  0  0  0  0
   35.1890   27.4450   37.2030 C   0  0  0  0  0  0  0  0  0  0  0  0
   33.8960   27.8580   37.3350 N   0  0  0  0  0  0  0  0  0  0  0  0
   32.3300   29.0060   36.5820 H   0  0  0  0  0  0  0  0  0  0  0  0
   33.6780   29.8590   34.6360 H   0  0  0  0  0  0  0  0  0  0  0  0
   36.0530   29.0880   34.4120 H   0  0  0  0  0  0  0  0  0  0  0  0
   39.7090   26.7560   40.0740 Cl  0  0  0  0  0  0  0  0  0  0  0  0
   38.7440   27.2040   41.4660 C   0  0  0  0  0  0  0  0  0  0  0  0
   37.3940   26.9060   41.5230 C   0  0  0  0  0  0  0  0  0  0  0  0
   36.5860   27.2390   42.6010 C   0  0  0  0  0  0  0  0  0  0  0  0
   35.5370   26.9910   42.6140 H   0  0  0  0  0  0  0  0  0  0  0  0
   37.1480   27.9020   43.6780 C   0  0  0  0  0  0  0  0  0  0  0  0
   36.5350   28.1690   44.5270 H   0  0  0  0  0  0  0  0  0  0  0  0
   38.4910   28.1930   43.6100 C   0  0  0  0  0  3  0  0  0  0  0  0
   39.2850   27.8690   42.5560 C   0  0  0  0  0  3  0  0  0  0  0  0
  1  2  1  0  0  0  0
  2  3  2  0  0  0  0
  2  8  1  0  0  0  0
  3  4  1  0  0  0  0
  4  9  1  0  0  0  0
  4  5  2  0  0  0  0
  5 22  1  0  0  0  0
  6  5  1  0  0  0  0
  6  7  1  0  0  0  0
  8  6  2  0  0  0  0
 10  8  1  0  0  0  0
 11 17  1  0  0  0  0
 11 16  1  0  0  0  0
 12 11  2  0  0  0  0
 13 12  1  0  0  0  0
 13 14  2  0  0  0  0
 14 15  1  0  0  0  0
 15 16  2  0  0  0  0
 15  3  1  0  0  0  0
 18 12  1  0  0  0  0
 19 13  1  0  0  0  0
 20 21  1  0  0  0  0
 21 22  2  0  0  0  0
 21 28  1  0  0  0  0
 22 23  1  0  0  0  0
 23 24  1  0  0  0  0
 23 25  2  0  0  0  0
 25 26  1  0  0  0  0
 27 25  1  0  0  0  0
 28 27  2  0  0  0  0
M  END
>  <minimizedAffinity>
-4.95429087

$$$$
