
 OpenBabel03252505213D

 28 30  0  0  0  0  0  0  0  0999 V2000
   47.6740   32.7340   44.1360 F   0  0  0  0  0  0  0  0  0  0  0  0
   46.6820   33.6260   44.3660 C   0  0  0  0  0  0  0  0  0  0  0  0
   45.9970   33.5530   45.5570 C   0  0  0  0  0  0  0  0  0  0  0  0
   45.0050   34.4620   45.7620 C   0  0  0  0  0  0  0  0  0  0  0  0
   44.6990   35.4180   44.8150 C   0  0  0  0  0  0  0  0  0  0  0  0
   45.3760   35.5010   43.6260 C   0  0  0  0  0  0  0  0  0  0  0  0
   46.4040   34.5630   43.4030 C   0  0  0  0  0  0  0  0  0  0  0  0
   44.4420   34.4410   46.6810 H   0  0  0  0  0  0  0  0  0  0  0  0
   43.8940   36.1490   44.9900 H   0  0  0  0  0  0  0  0  0  0  0  0
   45.1440   36.2470   42.8750 H   0  0  0  0  0  0  0  0  0  0  0  0
   46.0670   30.3880   47.3760 C   0  0  0  0  0  0  0  0  0  0  0  0
   47.0040   30.6430   48.4000 C   0  0  0  0  0  0  0  0  0  0  0  0
   47.5930   31.9040   48.4410 C   0  0  0  0  0  0  0  0  0  0  0  0
   47.2390   32.8230   47.4990 N   0  0  0  0  0  0  0  0  0  0  0  0
   46.3380   32.5380   46.5360 C   0  0  0  0  0  0  0  0  0  0  0  0
   45.7520   31.3270   46.4710 N   0  0  0  0  0  0  0  0  0  0  0  0
   45.6490   29.3900   47.4040 H   0  0  0  0  0  0  0  0  0  0  0  0
   47.2900   29.9230   49.1490 H   0  0  0  0  0  0  0  0  0  0  0  0
   48.3280   32.2200   49.1800 H   0  0  0  0  0  0  0  0  0  0  0  0
   45.1290   32.9080   41.3450 Cl  0  0  0  0  0  0  0  0  0  0  0  0
   46.5670   33.9190   41.1130 C   0  0  0  0  0  0  0  0  0  0  0  0
   47.1070   34.6720   42.1360 C   0  0  0  0  0  0  0  0  0  0  0  0
   48.2340   35.4400   41.8800 C   0  0  0  0  0  0  0  0  0  0  0  0
   48.6100   36.0000   42.7040 H   0  0  0  0  0  0  0  0  0  0  0  0
   48.7620   35.4120   40.6020 C   0  0  0  0  0  0  0  0  0  0  0  0
   49.6470   36.0180   40.4090 H   0  0  0  0  0  0  0  0  0  0  0  0
   48.2050   34.6560   39.6050 C   0  0  0  0  0  0  0  0  0  0  0  0
   47.0740   33.8740   39.8320 C   0  0  0  0  0  0  0  0  0  0  0  0
  1  2  1  0  0  0  0
  2  3  1  0  0  0  0
  3  4  2  0  0  0  0
  3 15  1  0  0  0  0
  4  8  1  0  0  0  0
  5  9  1  0  0  0  0
  5  4  1  0  0  0  0
  6  5  2  0  0  0  0
  7  6  1  0  0  0  0
  7  2  2  0  0  0  0
 10  6  1  0  0  0  0
 11 17  1  0  0  0  0
 11 12  1  0  0  0  0
 12 13  2  0  0  0  0
 12 18  1  0  0  0  0
 13 19  1  0  0  0  0
 14 13  1  0  0  0  0
 15 14  2  0  0  0  0
 16 15  1  0  0  0  0
 16 11  2  0  0  0  0
 21 20  1  0  0  0  0
 21 22  1  0  0  0  0
 22  7  1  0  0  0  0
 23 22  2  0  0  0  0
 23 24  1  0  0  0  0
 25 23  1  0  0  0  0
 26 25  1  0  0  0  0
 27 28  1  0  0  0  0
 27 25  2  0  0  0  0
 28 21  2  0  0  0  0
M  END
>  <minimizedAffinity>
-6.52028656

>  <minimizedRMSD>
7.49839878

$$$$
