
 OpenBabel03252508173D

 47 51  0  0  1  0  0  0  0  0999 V2000
   47.2890   31.0420   47.0460 C   0  0  0  0  0  0  0  0  0  0  0  0
   47.8960   30.3190   46.5220 H   0  0  0  0  0  0  0  0  0  0  0  0
   46.3180   30.5520   47.3410 H   0  0  0  0  0  0  0  0  0  0  0  0
   47.8410   31.6400   48.2970 C   0  0  1  0  0  0  0  0  0  0  0  0
   47.7200   30.7840   49.5120 C   0  0  0  0  0  0  0  0  0  0  0  0
   49.0340   31.0510   48.9330 C   0  0  1  0  0  0  0  0  0  0  0  0
   47.4600   32.6780   48.5360 H   0  0  0  0  0  0  0  0  0  0  0  0
   47.3440   29.7360   49.3860 H   0  0  0  0  0  0  0  0  0  0  0  0
   47.4550   31.1980   50.5050 H   0  0  0  0  0  0  0  0  0  0  0  0
   49.6880   31.7510   49.4950 H   0  0  0  0  0  0  0  0  0  0  0  0
   49.7860   29.9980   48.1810 C   0  0  2  0  0  0  0  0  0  0  0  0
   49.6380   28.5890   48.8110 C   0  0  0  0  0  0  0  0  0  0  0  0
   50.9270   29.2840   48.8970 C   0  0  2  0  0  0  0  0  0  0  0  0
   49.7060   29.9280   47.0770 H   0  0  0  0  0  0  0  0  0  0  0  0
   49.0770   28.4940   49.7570 H   0  0  0  0  0  0  0  0  0  0  0  0
   49.5450   27.7150   48.1730 H   0  0  0  0  0  0  0  0  0  0  0  0
   51.7150   28.9330   48.1700 H   0  0  0  0  0  0  0  0  0  0  0  0
   52.9570   31.4280   48.3890 Cl  0  0  0  0  0  0  0  0  0  0  0  0
   52.3770   30.9530   49.9840 C   0  0  0  0  0  0  0  0  0  0  0  0
   51.4340   29.9460   50.1080 C   0  0  0  0  0  0  0  0  0  0  0  0
   51.0140   29.6140   51.3900 C   0  0  0  0  0  0  0  0  0  0  0  0
   50.2840   28.8330   51.4800 H   0  0  0  0  0  0  0  0  0  0  0  0
   51.4880   30.2360   52.5400 C   0  0  0  0  0  0  0  0  0  0  0  0
   51.1300   29.9400   53.5070 H   0  0  0  0  0  0  0  0  0  0  0  0
   52.4310   31.2360   52.3370 C   0  0  0  0  0  3  0  0  0  0  0  0
   52.8890   31.6100   51.0850 C   0  0  0  0  0  3  0  0  0  0  0  0
   46.0920   32.9390   46.3200 C   0  0  0  0  0  3  0  0  0  0  0  0
   47.0110   32.1190   46.0220 C   0  0  0  0  0  3  0  0  0  0  0  0
   44.5450   35.8410   44.6520 C   0  0  0  0  0  0  0  0  0  0  0  0
   45.1830   35.8670   43.4180 C   0  0  0  0  0  0  0  0  0  0  0  0
   46.1140   34.8950   43.1950 C   0  0  0  0  0  0  0  0  0  0  0  0
   46.3750   33.9680   44.1590 N   0  0  0  0  0  0  0  0  0  0  0  0
   45.7360   33.9750   45.3480 C   0  0  0  0  0  0  0  0  0  0  0  0
   44.8350   34.9150   45.5610 N   0  0  0  0  0  0  0  0  0  0  0  0
   43.8060   36.5830   44.8770 H   0  0  0  0  0  0  0  0  0  0  0  0
   44.9800   36.5970   42.6500 H   0  0  0  0  0  0  0  0  0  0  0  0
   46.8590   34.7950   41.9530 C   0  0  0  0  0  0  0  0  0  0  0  0
   48.0550   35.4090   41.7080 C   0  0  0  0  0  0  0  0  0  0  0  0
   48.7510   35.3040   40.5210 C   0  0  0  0  0  0  0  0  0  0  0  0
   48.2340   34.5380   39.4910 C   0  0  0  0  0  0  0  0  0  0  0  0
   47.0320   33.8970   39.6810 C   0  0  0  0  0  0  0  0  0  0  0  0
   46.3900   34.0450   40.8920 C   0  0  0  0  0  0  0  0  0  0  0  0
   48.4980   36.0240   42.4980 H   0  0  0  0  0  0  0  0  0  0  0  0
   49.7010   35.8370   40.4280 H   0  0  0  0  0  0  0  0  0  0  0  0
   48.8390   34.5060   38.5930 H   0  0  0  0  0  0  0  0  0  0  0  0
   46.6430   33.3050   38.8720 H   0  0  0  0  0  0  0  0  0  0  0  0
   45.4510   33.5060   40.9540 H   0  0  0  0  0  0  0  0  0  0  0  0
  1  3  1  0  0  0  0
  1  4  1  0  0  0  0
  2  1  1  0  0  0  0
  4  7  1  1  0  0  0
  4  6  1  0  0  0  0
  4  5  1  0  0  0  0
  5  9  1  0  0  0  0
  6 10  1  1  0  0  0
  6  5  1  0  0  0  0
  8  5  1  0  0  0  0
 11 14  1  6  0  0  0
 11 12  1  0  0  0  0
 11 13  1  0  0  0  0
 11  6  1  0  0  0  0
 12 13  1  0  0  0  0
 12 15  1  0  0  0  0
 13 17  1  6  0  0  0
 13 20  1  0  0  0  0
 16 12  1  0  0  0  0
 18 19  1  0  0  0  0
 19 20  2  0  0  0  0
 19 26  1  0  0  0  0
 20 21  1  0  0  0  0
 21 22  1  0  0  0  0
 21 23  2  0  0  0  0
 23 24  1  0  0  0  0
 25 23  1  0  0  0  0
 26 25  2  0  0  0  0
 28 27  2  0  0  0  0
 28  1  1  0  0  0  0
 29 35  1  0  0  0  0
 29 34  1  0  0  0  0
 30 29  2  0  0  0  0
 31 30  1  0  0  0  0
 31 32  2  0  0  0  0
 32 33  1  0  0  0  0
 33 34  2  0  0  0  0
 33 27  1  0  0  0  0
 36 30  1  0  0  0  0
 37 31  1  0  0  0  0
 38 37  1  0  0  0  0
 38 43  1  0  0  0  0
 39 38  2  0  0  0  0
 40 41  2  0  0  0  0
 40 39  1  0  0  0  0
 41 42  1  0  0  0  0
 42 47  1  0  0  0  0
 42 37  2  0  0  0  0
 44 39  1  0  0  0  0
 45 40  1  0  0  0  0
 46 41  1  0  0  0  0
M  END
>  <minimizedAffinity>
-6.68703079

>  <minimizedRMSD>
2.81164813

$$$$
