
 OpenBabel03252501393D

 35 37  0  0  0  0  0  0  0  0999 V2000
   39.9020   28.5770   42.0230 Cl  0  0  0  0  0  0  0  0  0  0  0  0
   38.5680   29.5550   41.4340 C   0  0  0  0  0  0  0  0  0  0  0  0
   38.6380   30.9440   41.3310 C   0  0  0  0  0  0  0  0  0  0  0  0
   37.5610   31.6450   40.8630 C   0  0  0  0  0  0  0  0  0  0  0  0
   36.3780   31.0650   40.4740 C   0  0  0  0  0  0  0  0  0  0  0  0
   36.2810   29.6810   40.5660 C   0  0  0  0  0  0  0  0  0  0  0  0
   34.8120   28.8250   40.0970 Cl  0  0  0  0  0  0  0  0  0  0  0  0
   37.3660   28.9880   41.0370 C   0  0  0  0  0  0  0  0  0  0  0  0
   37.6550   32.7340   40.7970 H   0  0  0  0  0  0  0  0  0  0  0  0
   35.5380   31.6420   40.1060 H   0  0  0  0  0  0  0  0  0  0  0  0
   36.5730   27.6890   43.6790 Cl  0  0  0  0  0  0  0  0  0  0  0  0
   36.9710   26.7600   42.2560 C   0  0  0  0  0  0  0  0  0  0  0  0
   37.3060   27.5190   41.1520 C   0  0  0  0  0  0  0  0  0  0  0  0
   37.6440   26.9230   39.9550 C   0  0  0  0  0  0  0  0  0  0  0  0
   37.9230   27.4200   39.0280 H   0  0  0  0  0  0  0  0  0  0  0  0
   37.6580   25.5360   39.8220 C   0  0  0  0  0  0  0  0  0  0  0  0
   37.9210   25.0200   38.8880 H   0  0  0  0  0  0  0  0  0  0  0  0
   37.3200   24.7860   40.9380 C   0  0  0  0  0  3  0  0  0  0  0  0
   36.9820   25.3860   42.1320 C   0  0  0  0  0  3  0  0  0  0  0  0
   39.8440   31.5220   41.7280 O   0  0  0  0  0  0  0  0  0  0  0  0
   40.7470   31.9350   40.7330 C   0  0  0  0  0  0  0  0  0  0  0  0
   41.5500   31.1780   40.0960 O   0  0  0  0  0  0  0  0  0  0  0  0
   40.8290   33.3110   40.3490 N   0  0  0  0  0  0  0  0  0  0  0  0
   40.2330   34.0140   40.7810 H   0  0  0  0  0  0  0  0  0  0  0  0
   41.8450   33.4270   39.3200 C   0  0  0  0  0  0  0  0  0  0  0  0
   41.6210   33.2140   37.9880 C   0  0  0  0  0  0  0  0  0  0  0  0
   42.7150   33.3710   37.1470 C   0  0  0  0  0  0  0  0  0  0  0  0
   43.8960   33.7140   37.6860 N   0  0  0  0  0  0  0  0  0  0  0  0
   44.0680   33.9150   39.0170 C   0  0  0  0  0  0  0  0  0  0  0  0
   43.0290   33.7710   39.8650 N   0  0  0  0  0  0  0  0  0  0  0  0
   42.5480   33.2050   36.0940 H   0  0  0  0  0  0  0  0  0  0  0  0
   45.0590   34.1950   39.4040 H   0  0  0  0  0  0  0  0  0  0  0  0
   40.3190   32.8590   37.5910 N   0  0  0  0  0  0  0  0  0  0  0  0
   39.8410   32.1100   38.1550 H   0  0  0  0  0  0  0  0  0  0  0  0
   39.7130   33.2040   36.8240 H   0  0  0  0  0  0  0  0  0  0  0  0
  2  1  1  0  0  0  0
  3  2  1  0  0  0  0
  3 20  1  0  0  0  0
  4  3  2  0  0  0  0
  5  6  2  0  0  0  0
  5  4  1  0  0  0  0
  6  8  1  0  0  0  0
  7  6  1  0  0  0  0
  8 13  1  0  0  0  0
  8  2  2  0  0  0  0
  9  4  1  0  0  0  0
 10  5  1  0  0  0  0
 12 11  1  0  0  0  0
 13 12  2  0  0  0  0
 14 13  1  0  0  0  0
 15 14  1  0  0  0  0
 16 14  2  0  0  0  0
 16 18  1  0  0  0  0
 17 16  1  0  0  0  0
 18 19  2  0  0  0  0
 19 12  1  0  0  0  0
 21 20  1  0  0  0  0
 22 21  2  0  0  0  0
 23 21  1  0  0  0  0
 23 24  1  0  0  0  0
 25 30  1  0  0  0  0
 25 23  1  0  0  0  0
 26 25  2  0  0  0  0
 27 28  2  0  0  0  0
 27 26  1  0  0  0  0
 28 29  1  0  0  0  0
 29 32  1  0  0  0  0
 29 30  2  0  0  0  0
 31 27  1  0  0  0  0
 33 26  1  0  0  0  0
 33 34  1  0  0  0  0
 35 33  1  0  0  0  0
M  END
>  <minimizedAffinity>
-6.14411449

$$$$

 OpenBabel03252501393D

 35 37  0  0  0  0  0  0  0  0999 V2000
   39.6160   28.5210   42.6470 Cl  0  0  0  0  0  0  0  0  0  0  0  0
   38.4260   29.3070   41.6220 C   0  0  0  0  0  0  0  0  0  0  0  0
   38.3920   30.6880   41.4260 C   0  0  0  0  0  0  0  0  0  0  0  0
   37.4370   31.2350   40.6130 C   0  0  0  0  0  0  0  0  0  0  0  0
   36.4800   30.5030   39.9550 C   0  0  0  0  0  0  0  0  0  0  0  0
   36.4900   29.1240   40.1320 C   0  0  0  0  0  0  0  0  0  0  0  0
   35.3100   28.0820   39.3390 Cl  0  0  0  0  0  0  0  0  0  0  0  0
   37.4510   28.5860   40.9490 C   0  0  0  0  0  0  0  0  0  0  0  0
   37.4440   32.3220   40.4850 H   0  0  0  0  0  0  0  0  0  0  0  0
   35.7330   30.9600   39.3150 H   0  0  0  0  0  0  0  0  0  0  0  0
   36.1960   27.3670   43.4460 Cl  0  0  0  0  0  0  0  0  0  0  0  0
   36.9900   26.4040   42.2260 C   0  0  0  0  0  0  0  0  0  0  0  0
   37.4980   27.1280   41.1660 C   0  0  0  0  0  0  0  0  0  0  0  0
   38.1530   26.5030   40.1250 C   0  0  0  0  0  0  0  0  0  0  0  0
   38.5900   26.9710   39.2460 H   0  0  0  0  0  0  0  0  0  0  0  0
   38.3210   25.1190   40.1110 C   0  0  0  0  0  0  0  0  0  0  0  0
   38.8350   24.5800   39.3030 H   0  0  0  0  0  0  0  0  0  0  0  0
   37.8060   24.4040   41.1810 C   0  0  0  0  0  3  0  0  0  0  0  0
   37.1520   25.0330   42.2190 C   0  0  0  0  0  3  0  0  0  0  0  0
   39.3700   31.4200   42.1000 O   0  0  0  0  0  0  0  0  0  0  0  0
   40.4170   31.9850   41.3500 C   0  0  0  0  0  0  0  0  0  0  0  0
   41.3970   31.3480   40.8440 O   0  0  0  0  0  0  0  0  0  0  0  0
   40.4510   33.3920   41.0920 N   0  0  0  0  0  0  0  0  0  0  0  0
   39.7190   34.0080   41.4390 H   0  0  0  0  0  0  0  0  0  0  0  0
   41.6420   33.6730   40.3120 C   0  0  0  0  0  0  0  0  0  0  0  0
   42.8790   33.9010   40.8490 C   0  0  0  0  0  0  0  0  0  0  0  0
   43.9040   34.1530   39.9470 C   0  0  0  0  0  0  0  0  0  0  0  0
   43.6200   34.1590   38.6350 N   0  0  0  0  0  0  0  0  0  0  0  0
   42.3730   33.9280   38.1510 C   0  0  0  0  0  0  0  0  0  0  0  0
   41.3520   33.6780   38.9960 N   0  0  0  0  0  0  0  0  0  0  0  0
   44.8840   34.3350   40.3620 H   0  0  0  0  0  0  0  0  0  0  0  0
   42.1970   33.9440   37.0650 H   0  0  0  0  0  0  0  0  0  0  0  0
   43.0030   33.8580   42.2500 N   0  0  0  0  0  0  0  0  0  0  0  0
   42.2750   34.3780   42.8040 H   0  0  0  0  0  0  0  0  0  0  0  0
   43.6960   33.3970   42.8670 H   0  0  0  0  0  0  0  0  0  0  0  0
  2  1  1  0  0  0  0
  3  2  1  0  0  0  0
  3 20  1  0  0  0  0
  4  3  2  0  0  0  0
  5  6  2  0  0  0  0
  5  4  1  0  0  0  0
  6  8  1  0  0  0  0
  7  6  1  0  0  0  0
  8 13  1  0  0  0  0
  8  2  2  0  0  0  0
  9  4  1  0  0  0  0
 10  5  1  0  0  0  0
 12 11  1  0  0  0  0
 13 12  2  0  0  0  0
 14 13  1  0  0  0  0
 15 14  1  0  0  0  0
 16 14  2  0  0  0  0
 16 18  1  0  0  0  0
 17 16  1  0  0  0  0
 18 19  2  0  0  0  0
 19 12  1  0  0  0  0
 21 20  1  0  0  0  0
 22 21  2  0  0  0  0
 23 21  1  0  0  0  0
 23 24  1  0  0  0  0
 25 26  1  0  0  0  0
 25 23  1  0  0  0  0
 26 33  1  0  0  0  0
 27 31  1  0  0  0  0
 27 26  2  0  0  0  0
 28 27  1  0  0  0  0
 29 28  2  0  0  0  0
 29 30  1  0  0  0  0
 30 25  2  0  0  0  0
 32 29  1  0  0  0  0
 33 34  1  0  0  0  0
 33 35  1  0  0  0  0
M  END
>  <minimizedAffinity>
-6.09583521

$$$$

 OpenBabel03252501393D

 35 37  0  0  0  0  0  0  0  0999 V2000
   36.9500   32.0710   39.1820 Cl  0  0  0  0  0  0  0  0  0  0  0  0
   37.5700   30.8590   40.2910 C   0  0  0  0  0  0  0  0  0  0  0  0
   38.4770   31.1590   41.3070 C   0  0  0  0  0  0  0  0  0  0  0  0
   38.9200   30.1650   42.1370 C   0  0  0  0  0  0  0  0  0  0  0  0
   38.5250   28.8530   42.0410 C   0  0  0  0  0  0  0  0  0  0  0  0
   37.6220   28.5260   41.0350 C   0  0  0  0  0  0  0  0  0  0  0  0
   37.0440   26.8750   40.8140 Cl  0  0  0  0  0  0  0  0  0  0  0  0
   37.1850   29.5290   40.2090 C   0  0  0  0  0  0  0  0  0  0  0  0
   39.6310   30.4400   42.9220 H   0  0  0  0  0  0  0  0  0  0  0  0
   38.8900   28.0820   42.7100 H   0  0  0  0  0  0  0  0  0  0  0  0
   38.1900   28.9090   37.3990 Cl  0  0  0  0  0  0  0  0  0  0  0  0
   36.4930   28.9250   37.8090 C   0  0  0  0  0  0  0  0  0  0  0  0
   36.2270   29.2270   39.1300 C   0  0  0  0  0  0  0  0  0  0  0  0
   34.9310   29.2770   39.6010 C   0  0  0  0  0  0  0  0  0  0  0  0
   34.6070   29.5020   40.6150 H   0  0  0  0  0  0  0  0  0  0  0  0
   33.8510   29.0250   38.7580 C   0  0  0  0  0  0  0  0  0  0  0  0
   32.8030   29.0540   39.0910 H   0  0  0  0  0  0  0  0  0  0  0  0
   34.1320   28.7240   37.4340 C   0  0  0  0  0  3  0  0  0  0  0  0
   35.4290   28.6740   36.9680 C   0  0  0  0  0  3  0  0  0  0  0  0
   38.8690   32.4940   41.3950 O   0  0  0  0  0  0  0  0  0  0  0  0
   39.8990   32.9450   40.5520 C   0  0  0  0  0  0  0  0  0  0  0  0
   40.1150   34.1580   40.2250 O   0  0  0  0  0  0  0  0  0  0  0  0
   40.8260   32.0210   39.9740 N   0  0  0  0  0  0  0  0  0  0  0  0
   40.7620   31.0240   40.1660 H   0  0  0  0  0  0  0  0  0  0  0  0
   41.7550   32.7750   39.1540 C   0  0  0  0  0  0  0  0  0  0  0  0
   41.5380   33.1000   37.8430 C   0  0  0  0  0  0  0  0  0  0  0  0
   42.5400   33.8280   37.2160 C   0  0  0  0  0  0  0  0  0  0  0  0
   43.6340   34.1570   37.9210 N   0  0  0  0  0  0  0  0  0  0  0  0
   43.8030   33.8100   39.2220 C   0  0  0  0  0  0  0  0  0  0  0  0
   42.8510   33.1030   39.8650 N   0  0  0  0  0  0  0  0  0  0  0  0
   42.3780   34.0880   36.1810 H   0  0  0  0  0  0  0  0  0  0  0  0
   44.7200   34.1070   39.7520 H   0  0  0  0  0  0  0  0  0  0  0  0
   40.3330   32.6750   37.2540 N   0  0  0  0  0  0  0  0  0  0  0  0
   40.0530   31.6740   37.4220 H   0  0  0  0  0  0  0  0  0  0  0  0
   39.6410   33.1720   36.6640 H   0  0  0  0  0  0  0  0  0  0  0  0
  1  2  1  0  0  0  0
  2  3  1  0  0  0  0
  3 20  1  0  0  0  0
  3  4  2  0  0  0  0
  4  9  1  0  0  0  0
  5  4  1  0  0  0  0
  5 10  1  0  0  0  0
  6  5  2  0  0  0  0
  7  6  1  0  0  0  0
  8  2  2  0  0  0  0
  8  6  1  0  0  0  0
 11 12  1  0  0  0  0
 12 13  1  0  0  0  0
 13 14  2  0  0  0  0
 13  8  1  0  0  0  0
 14 15  1  0  0  0  0
 16 17  1  0  0  0  0
 16 14  1  0  0  0  0
 18 16  2  0  0  0  0
 19 18  1  0  0  0  0
 19 12  2  0  0  0  0
 21 20  1  0  0  0  0
 22 21  2  0  0  0  0
 23 24  1  0  0  0  0
 23 21  1  0  0  0  0
 25 30  1  0  0  0  0
 25 23  1  0  0  0  0
 26 25  2  0  0  0  0
 27 26  1  0  0  0  0
 27 28  2  0  0  0  0
 28 29  1  0  0  0  0
 29 32  1  0  0  0  0
 29 30  2  0  0  0  0
 31 27  1  0  0  0  0
 33 34  1  0  0  0  0
 33 26  1  0  0  0  0
 35 33  1  0  0  0  0
M  END
>  <minimizedAffinity>
-6.06732368

$$$$

 OpenBabel03252501393D

 35 37  0  0  0  0  0  0  0  0999 V2000
   39.8180   29.0850   42.2680 Cl  0  0  0  0  0  0  0  0  0  0  0  0
   38.5320   29.9820   41.4790 C   0  0  0  0  0  0  0  0  0  0  0  0
   38.6120   31.3510   41.2250 C   0  0  0  0  0  0  0  0  0  0  0  0
   37.5720   31.9890   40.6050 C   0  0  0  0  0  0  0  0  0  0  0  0
   36.4190   31.3620   40.2010 C   0  0  0  0  0  0  0  0  0  0  0  0
   36.3120   29.9970   40.4420 C   0  0  0  0  0  0  0  0  0  0  0  0
   34.8790   29.0850   39.9700 Cl  0  0  0  0  0  0  0  0  0  0  0  0
   37.3590   29.3670   41.0640 C   0  0  0  0  0  0  0  0  0  0  0  0
   37.6740   33.0640   40.4240 H   0  0  0  0  0  0  0  0  0  0  0  0
   35.6080   31.8890   39.7110 H   0  0  0  0  0  0  0  0  0  0  0  0
   38.2990   27.3630   38.9690 Cl  0  0  0  0  0  0  0  0  0  0  0  0
   37.6630   26.8750   40.5200 C   0  0  0  0  0  0  0  0  0  0  0  0
   37.2880   27.9210   41.3390 C   0  0  0  0  0  0  0  0  0  0  0  0
   36.7680   27.6890   42.5960 C   0  0  0  0  0  0  0  0  0  0  0  0
   36.4410   28.4310   43.3210 H   0  0  0  0  0  0  0  0  0  0  0  0
   36.6050   26.3910   43.0770 C   0  0  0  0  0  0  0  0  0  0  0  0
   36.1950   26.1610   44.0710 H   0  0  0  0  0  0  0  0  0  0  0  0
   36.9860   25.3510   42.2440 C   0  0  0  0  0  3  0  0  0  0  0  0
   37.5050   25.5870   40.9890 C   0  0  0  0  0  3  0  0  0  0  0  0
   39.7880   31.9770   41.6390 O   0  0  0  0  0  0  0  0  0  0  0  0
   40.7660   32.2690   40.6730 C   0  0  0  0  0  0  0  0  0  0  0  0
   41.6180   31.4450   40.2040 O   0  0  0  0  0  0  0  0  0  0  0  0
   40.8760   33.5840   40.1200 N   0  0  0  0  0  0  0  0  0  0  0  0
   40.2460   34.3300   40.4090 H   0  0  0  0  0  0  0  0  0  0  0  0
   41.9700   33.5780   39.1680 C   0  0  0  0  0  0  0  0  0  0  0  0
   41.8440   33.2320   37.8510 C   0  0  0  0  0  0  0  0  0  0  0  0
   43.0020   33.2850   37.0870 C   0  0  0  0  0  0  0  0  0  0  0  0
   44.1460   33.6630   37.6790 N   0  0  0  0  0  0  0  0  0  0  0  0
   44.2210   33.9970   38.9930 C   0  0  0  0  0  0  0  0  0  0  0  0
   43.1160   33.9580   39.7660 N   0  0  0  0  0  0  0  0  0  0  0  0
   42.9120   33.0130   36.0470 H   0  0  0  0  0  0  0  0  0  0  0  0
   45.1850   34.3010   39.4250 H   0  0  0  0  0  0  0  0  0  0  0  0
   40.5680   32.8580   37.3910 N   0  0  0  0  0  0  0  0  0  0  0  0
   40.0310   32.1790   37.9890 H   0  0  0  0  0  0  0  0  0  0  0  0
   40.0310   33.1320   36.5480 H   0  0  0  0  0  0  0  0  0  0  0  0
  2  1  1  0  0  0  0
  3  2  1  0  0  0  0
  3 20  1  0  0  0  0
  4  3  2  0  0  0  0
  5  6  2  0  0  0  0
  5  4  1  0  0  0  0
  6  8  1  0  0  0  0
  7  6  1  0  0  0  0
  8 13  1  0  0  0  0
  8  2  2  0  0  0  0
  9  4  1  0  0  0  0
 10  5  1  0  0  0  0
 11 12  1  0  0  0  0
 12 19  2  0  0  0  0
 12 13  1  0  0  0  0
 13 14  2  0  0  0  0
 14 16  1  0  0  0  0
 14 15  1  0  0  0  0
 16 17  1  0  0  0  0
 18 16  2  0  0  0  0
 19 18  1  0  0  0  0
 21 20  1  0  0  0  0
 22 21  2  0  0  0  0
 23 24  1  0  0  0  0
 23 21  1  0  0  0  0
 25 30  1  0  0  0  0
 25 23  1  0  0  0  0
 26 25  2  0  0  0  0
 27 28  2  0  0  0  0
 27 26  1  0  0  0  0
 28 29  1  0  0  0  0
 29 32  1  0  0  0  0
 29 30  2  0  0  0  0
 31 27  1  0  0  0  0
 33 26  1  0  0  0  0
 33 34  1  0  0  0  0
 35 33  1  0  0  0  0
M  END
>  <minimizedAffinity>
-6.06502199

$$$$

 OpenBabel03252501393D

 35 37  0  0  0  0  0  0  0  0999 V2000
   36.6620   27.4170   39.8460 Cl  0  0  0  0  0  0  0  0  0  0  0  0
   37.6020   27.2310   41.3170 C   0  0  0  0  0  0  0  0  0  0  0  0
   37.8250   28.2800   42.2090 C   0  0  0  0  0  0  0  0  0  0  0  0
   38.5670   28.0670   43.3380 C   0  0  0  0  0  0  0  0  0  0  0  0
   39.1270   26.8570   43.6690 C   0  0  0  0  0  0  0  0  0  0  0  0
   38.9220   25.7930   42.7980 C   0  0  0  0  0  0  0  0  0  0  0  0
   39.5930   24.1940   43.1180 Cl  0  0  0  0  0  0  0  0  0  0  0  0
   38.1770   26.0180   41.6690 C   0  0  0  0  0  0  0  0  0  0  0  0
   38.7190   28.9150   44.0120 H   0  0  0  0  0  0  0  0  0  0  0  0
   39.7120   26.7120   44.5710 H   0  0  0  0  0  0  0  0  0  0  0  0
   40.2240   25.3920   39.4990 Cl  0  0  0  0  0  0  0  0  0  0  0  0
   38.7390   24.4920   39.6790 C   0  0  0  0  0  0  0  0  0  0  0  0
   37.9340   24.9190   40.7180 C   0  0  0  0  0  0  0  0  0  0  0  0
   36.7280   24.3030   40.9830 C   0  0  0  0  0  0  0  0  0  0  0  0
   36.0200   24.5540   41.7690 H   0  0  0  0  0  0  0  0  0  0  0  0
   36.2850   23.2320   40.2100 C   0  0  0  0  0  0  0  0  0  0  0  0
   35.3320   22.7120   40.3860 H   0  0  0  0  0  0  0  0  0  0  0  0
   37.1020   22.8140   39.1710 C   0  0  0  0  0  3  0  0  0  0  0  0
   38.3060   23.4320   38.9100 C   0  0  0  0  0  3  0  0  0  0  0  0
   37.2500   29.5030   41.8610 O   0  0  0  0  0  0  0  0  0  0  0  0
   38.0870   30.5170   41.3630 C   0  0  0  0  0  0  0  0  0  0  0  0
   38.9100   31.2070   42.0490 O   0  0  0  0  0  0  0  0  0  0  0  0
   38.0680   30.8600   39.9740 N   0  0  0  0  0  0  0  0  0  0  0  0
   37.4570   30.3750   39.3210 H   0  0  0  0  0  0  0  0  0  0  0  0
   39.0210   31.9350   39.7670 C   0  0  0  0  0  0  0  0  0  0  0  0
   38.7360   33.2610   39.9390 C   0  0  0  0  0  0  0  0  0  0  0  0
   39.7740   34.1500   39.6950 C   0  0  0  0  0  0  0  0  0  0  0  0
   40.9640   33.6600   39.3150 N   0  0  0  0  0  0  0  0  0  0  0  0
   41.1980   32.3320   39.1580 C   0  0  0  0  0  0  0  0  0  0  0  0
   40.2140   31.4390   39.3860 N   0  0  0  0  0  0  0  0  0  0  0  0
   39.5580   35.1990   39.8270 H   0  0  0  0  0  0  0  0  0  0  0  0
   42.1950   31.9860   38.8450 H   0  0  0  0  0  0  0  0  0  0  0  0
   37.4320   33.6040   40.3420 N   0  0  0  0  0  0  0  0  0  0  0  0
   36.6410   33.1340   39.8310 H   0  0  0  0  0  0  0  0  0  0  0  0
   37.0840   34.2520   41.0720 H   0  0  0  0  0  0  0  0  0  0  0  0
  1  2  1  0  0  0  0
  2  8  2  0  0  0  0
  2  3  1  0  0  0  0
  3  4  2  0  0  0  0
  4  5  1  0  0  0  0
  4  9  1  0  0  0  0
  5 10  1  0  0  0  0
  6  7  1  0  0  0  0
  6  5  2  0  0  0  0
  8  6  1  0  0  0  0
 11 12  1  0  0  0  0
 12 13  1  0  0  0  0
 13 14  2  0  0  0  0
 13  8  1  0  0  0  0
 14 15  1  0  0  0  0
 16 17  1  0  0  0  0
 16 14  1  0  0  0  0
 18 16  2  0  0  0  0
 19 18  1  0  0  0  0
 19 12  2  0  0  0  0
 20  3  1  0  0  0  0
 21 20  1  0  0  0  0
 21 22  2  0  0  0  0
 23 21  1  0  0  0  0
 24 23  1  0  0  0  0
 25 26  1  0  0  0  0
 25 23  1  0  0  0  0
 26 33  1  0  0  0  0
 27 31  1  0  0  0  0
 27 26  2  0  0  0  0
 28 27  1  0  0  0  0
 29 28  2  0  0  0  0
 29 30  1  0  0  0  0
 30 25  2  0  0  0  0
 32 29  1  0  0  0  0
 33 35  1  0  0  0  0
 34 33  1  0  0  0  0
M  END
>  <minimizedAffinity>
-6.01731062

$$$$

 OpenBabel03252501393D

 35 37  0  0  0  0  0  0  0  0999 V2000
   39.0000   27.4020   38.8570 Cl  0  0  0  0  0  0  0  0  0  0  0  0
   38.1300   28.3350   40.0640 C   0  0  0  0  0  0  0  0  0  0  0  0
   37.8750   29.6990   39.9230 C   0  0  0  0  0  0  0  0  0  0  0  0
   37.1910   30.3670   40.9020 C   0  0  0  0  0  0  0  0  0  0  0  0
   36.7220   29.7740   42.0490 C   0  0  0  0  0  0  0  0  0  0  0  0
   36.9630   28.4150   42.2150 C   0  0  0  0  0  0  0  0  0  0  0  0
   36.4100   27.5470   43.6470 Cl  0  0  0  0  0  0  0  0  0  0  0  0
   37.6500   27.7560   41.2290 C   0  0  0  0  0  0  0  0  0  0  0  0
   37.0110   31.4360   40.7550 H   0  0  0  0  0  0  0  0  0  0  0  0
   36.1820   30.3240   42.8120 H   0  0  0  0  0  0  0  0  0  0  0  0
   40.1790   26.8100   42.6430 Cl  0  0  0  0  0  0  0  0  0  0  0  0
   39.0100   25.7050   41.9660 C   0  0  0  0  0  0  0  0  0  0  0  0
   37.9270   26.3150   41.3640 C   0  0  0  0  0  0  0  0  0  0  0  0
   36.9220   25.5690   40.7850 C   0  0  0  0  0  0  0  0  0  0  0  0
   36.0290   25.9410   40.2870 H   0  0  0  0  0  0  0  0  0  0  0  0
   36.9670   24.1760   40.7900 C   0  0  0  0  0  0  0  0  0  0  0  0
   36.1880   23.5430   40.3410 H   0  0  0  0  0  0  0  0  0  0  0  0
   38.0600   23.5770   41.3980 C   0  0  0  0  0  3  0  0  0  0  0  0
   39.0620   24.3260   41.9760 C   0  0  0  0  0  3  0  0  0  0  0  0
   38.3560   30.2890   38.7540 O   0  0  0  0  0  0  0  0  0  0  0  0
   39.4820   31.1250   38.8410 C   0  0  0  0  0  0  0  0  0  0  0  0
   40.6300   30.7840   39.2780 O   0  0  0  0  0  0  0  0  0  0  0  0
   39.4110   32.4910   38.4220 N   0  0  0  0  0  0  0  0  0  0  0  0
   38.5480   32.8810   38.0470 H   0  0  0  0  0  0  0  0  0  0  0  0
   40.7120   33.0930   38.6390 C   0  0  0  0  0  0  0  0  0  0  0  0
   41.1260   33.6240   39.8300 C   0  0  0  0  0  0  0  0  0  0  0  0
   42.4080   34.1580   39.8520 C   0  0  0  0  0  0  0  0  0  0  0  0
   43.1400   34.1210   38.7280 N   0  0  0  0  0  0  0  0  0  0  0  0
   42.6840   33.5830   37.5690 C   0  0  0  0  0  0  0  0  0  0  0  0
   41.4440   33.0540   37.5090 N   0  0  0  0  0  0  0  0  0  0  0  0
   42.7430   34.5800   40.7870 H   0  0  0  0  0  0  0  0  0  0  0  0
   43.3280   33.5780   36.6770 H   0  0  0  0  0  0  0  0  0  0  0  0
   40.2300   33.5820   40.9130 N   0  0  0  0  0  0  0  0  0  0  0  0
   39.2390   33.8790   40.7180 H   0  0  0  0  0  0  0  0  0  0  0  0
   40.3570   33.3040   41.9030 H   0  0  0  0  0  0  0  0  0  0  0  0
  1  2  1  0  0  0  0
  2  8  1  0  0  0  0
  3  2  2  0  0  0  0
  3  4  1  0  0  0  0
  4  5  2  0  0  0  0
  5  6  1  0  0  0  0
  5 10  1  0  0  0  0
  6  7  1  0  0  0  0
  8 13  1  0  0  0  0
  8  6  2  0  0  0  0
  9  4  1  0  0  0  0
 12 19  1  0  0  0  0
 12 11  1  0  0  0  0
 13 12  2  0  0  0  0
 14 16  2  0  0  0  0
 14 13  1  0  0  0  0
 15 14  1  0  0  0  0
 16 18  1  0  0  0  0
 17 16  1  0  0  0  0
 18 19  2  0  0  0  0
 20 21  1  0  0  0  0
 20  3  1  0  0  0  0
 21 22  2  0  0  0  0
 23 25  1  0  0  0  0
 23 21  1  0  0  0  0
 24 23  1  0  0  0  0
 25 26  1  0  0  0  0
 26 27  2  0  0  0  0
 26 33  1  0  0  0  0
 27 31  1  0  0  0  0
 28 27  1  0  0  0  0
 29 28  2  0  0  0  0
 30 29  1  0  0  0  0
 30 25  2  0  0  0  0
 32 29  1  0  0  0  0
 33 35  1  0  0  0  0
 34 33  1  0  0  0  0
M  END
>  <minimizedAffinity>
-5.94151211

$$$$

 OpenBabel03252501393D

 35 37  0  0  0  0  0  0  0  0999 V2000
   40.4020   28.1460   40.3940 Cl  0  0  0  0  0  0  0  0  0  0  0  0
   39.1270   28.7240   39.3350 C   0  0  0  0  0  0  0  0  0  0  0  0
   39.3460   29.0460   37.9960 C   0  0  0  0  0  0  0  0  0  0  0  0
   38.3060   29.4910   37.2250 C   0  0  0  0  0  0  0  0  0  0  0  0
   37.0230   29.6480   37.6870 C   0  0  0  0  0  0  0  0  0  0  0  0
   36.7750   29.3340   39.0190 C   0  0  0  0  0  0  0  0  0  0  0  0
   35.1670   29.4970   39.7230 Cl  0  0  0  0  0  0  0  0  0  0  0  0
   37.8240   28.8900   39.7820 C   0  0  0  0  0  0  0  0  0  0  0  0
   38.5190   29.7340   36.1790 H   0  0  0  0  0  0  0  0  0  0  0  0
   36.2140   30.0020   37.0570 H   0  0  0  0  0  0  0  0  0  0  0  0
   38.4630   30.9190   41.9660 Cl  0  0  0  0  0  0  0  0  0  0  0  0
   37.8370   29.3270   42.3140 C   0  0  0  0  0  0  0  0  0  0  0  0
   37.6070   28.5460   41.1990 C   0  0  0  0  0  0  0  0  0  0  0  0
   37.1120   27.2640   41.3180 C   0  0  0  0  0  0  0  0  0  0  0  0
   36.8950   26.5640   40.5140 H   0  0  0  0  0  0  0  0  0  0  0  0
   36.8290   26.7170   42.5680 C   0  0  0  0  0  0  0  0  0  0  0  0
   36.4330   25.7010   42.7100 H   0  0  0  0  0  0  0  0  0  0  0  0
   37.0640   27.5120   43.6790 C   0  0  0  0  0  3  0  0  0  0  0  0
   37.5580   28.7930   43.5560 C   0  0  0  0  0  3  0  0  0  0  0  0
   40.6540   28.8820   37.5390 O   0  0  0  0  0  0  0  0  0  0  0  0
   41.5350   29.9730   37.6280 C   0  0  0  0  0  0  0  0  0  0  0  0
   42.0700   30.4110   38.7000 O   0  0  0  0  0  0  0  0  0  0  0  0
   41.9120   30.7050   36.4580 N   0  0  0  0  0  0  0  0  0  0  0  0
   41.5560   30.4470   35.5400 H   0  0  0  0  0  0  0  0  0  0  0  0
   42.8120   31.7660   36.8660 C   0  0  0  0  0  0  0  0  0  0  0  0
   42.4070   33.0100   37.2660 C   0  0  0  0  0  0  0  0  0  0  0  0
   43.4120   33.8990   37.6220 C   0  0  0  0  0  0  0  0  0  0  0  0
   44.6880   33.4900   37.5510 N   0  0  0  0  0  0  0  0  0  0  0  0
   45.0410   32.2430   37.1460 C   0  0  0  0  0  0  0  0  0  0  0  0
   44.0920   31.3510   36.7930 N   0  0  0  0  0  0  0  0  0  0  0  0
   43.1020   34.8830   37.9380 H   0  0  0  0  0  0  0  0  0  0  0  0
   46.1030   31.9610   37.1070 H   0  0  0  0  0  0  0  0  0  0  0  0
   41.0250   33.2740   37.2820 N   0  0  0  0  0  0  0  0  0  0  0  0
   40.4780   32.9790   36.4330 H   0  0  0  0  0  0  0  0  0  0  0  0
   40.4170   33.7190   37.9940 H   0  0  0  0  0  0  0  0  0  0  0  0
  2  8  1  0  0  0  0
  2  1  1  0  0  0  0
  3  2  2  0  0  0  0
  4  5  2  0  0  0  0
  4  3  1  0  0  0  0
  5  6  1  0  0  0  0
  6  7  1  0  0  0  0
  6  8  2  0  0  0  0
  8 13  1  0  0  0  0
  9  4  1  0  0  0  0
 10  5  1  0  0  0  0
 11 12  1  0  0  0  0
 12 19  1  0  0  0  0
 13 14  1  0  0  0  0
 13 12  2  0  0  0  0
 14 16  2  0  0  0  0
 15 14  1  0  0  0  0
 16 17  1  0  0  0  0
 16 18  1  0  0  0  0
 19 18  2  0  0  0  0
 20 21  1  0  0  0  0
 20  3  1  0  0  0  0
 21 22  2  0  0  0  0
 23 25  1  0  0  0  0
 23 21  1  0  0  0  0
 24 23  1  0  0  0  0
 25 26  1  0  0  0  0
 26 33  1  0  0  0  0
 26 27  2  0  0  0  0
 27 31  1  0  0  0  0
 28 27  1  0  0  0  0
 29 28  2  0  0  0  0
 30 25  2  0  0  0  0
 30 29  1  0  0  0  0
 32 29  1  0  0  0  0
 33 35  1  0  0  0  0
 34 33  1  0  0  0  0
M  END
>  <minimizedAffinity>
-5.93490458

$$$$

 OpenBabel03252501393D

 35 37  0  0  0  0  0  0  0  0999 V2000
   37.4330   28.1930   39.9470 Cl  0  0  0  0  0  0  0  0  0  0  0  0
   38.7140   28.3730   41.1330 C   0  0  0  0  0  0  0  0  0  0  0  0
   39.3300   29.5960   41.4000 C   0  0  0  0  0  0  0  0  0  0  0  0
   40.3230   29.6660   42.3380 C   0  0  0  0  0  0  0  0  0  0  0  0
   40.7730   28.5880   43.0610 C   0  0  0  0  0  0  0  0  0  0  0  0
   40.1760   27.3560   42.8150 C   0  0  0  0  0  0  0  0  0  0  0  0
   40.6710   25.9010   43.6800 Cl  0  0  0  0  0  0  0  0  0  0  0  0
   39.1830   27.2970   41.8720 C   0  0  0  0  0  0  0  0  0  0  0  0
   40.7820   30.6430   42.5190 H   0  0  0  0  0  0  0  0  0  0  0  0
   41.5620   28.6680   43.8000 H   0  0  0  0  0  0  0  0  0  0  0  0
   36.5690   26.5660   43.2600 Cl  0  0  0  0  0  0  0  0  0  0  0  0
   37.3470   25.5140   42.1060 C   0  0  0  0  0  0  0  0  0  0  0  0
   38.5230   26.0110   41.5800 C   0  0  0  0  0  0  0  0  0  0  0  0
   39.2500   25.2900   40.6550 C   0  0  0  0  0  0  0  0  0  0  0  0
   40.1830   25.5820   40.1780 H   0  0  0  0  0  0  0  0  0  0  0  0
   38.8190   24.0370   40.2230 C   0  0  0  0  0  0  0  0  0  0  0  0
   39.3660   23.4290   39.4880 H   0  0  0  0  0  0  0  0  0  0  0  0
   37.6380   23.5500   40.7590 C   0  0  0  0  0  3  0  0  0  0  0  0
   36.9140   24.2740   41.6830 C   0  0  0  0  0  3  0  0  0  0  0  0
   38.8640   30.6840   40.6600 O   0  0  0  0  0  0  0  0  0  0  0  0
   39.8070   31.5300   40.0510 C   0  0  0  0  0  0  0  0  0  0  0  0
   39.8060   32.8030   40.1020 O   0  0  0  0  0  0  0  0  0  0  0  0
   40.8900   30.9870   39.2900 N   0  0  0  0  0  0  0  0  0  0  0  0
   41.0030   29.9810   39.1800 H   0  0  0  0  0  0  0  0  0  0  0  0
   41.6780   32.0940   38.7830 C   0  0  0  0  0  0  0  0  0  0  0  0
   41.3910   32.7840   37.6380 C   0  0  0  0  0  0  0  0  0  0  0  0
   42.2590   33.8170   37.3080 C   0  0  0  0  0  0  0  0  0  0  0  0
   43.3010   34.0640   38.1170 N   0  0  0  0  0  0  0  0  0  0  0  0
   43.5450   33.3490   39.2450 C   0  0  0  0  0  0  0  0  0  0  0  0
   42.7230   32.3390   39.5980 N   0  0  0  0  0  0  0  0  0  0  0  0
   42.0410   34.3670   36.4050 H   0  0  0  0  0  0  0  0  0  0  0  0
   44.4140   33.5960   39.8710 H   0  0  0  0  0  0  0  0  0  0  0  0
   40.2560   32.3930   36.9050 N   0  0  0  0  0  0  0  0  0  0  0  0
   40.1350   31.3620   36.7360 H   0  0  0  0  0  0  0  0  0  0  0  0
   39.4850   32.9420   36.4820 H   0  0  0  0  0  0  0  0  0  0  0  0
  1  2  1  0  0  0  0
  2  3  2  0  0  0  0
  2  8  1  0  0  0  0
  3  4  1  0  0  0  0
  4  9  1  0  0  0  0
  4  5  2  0  0  0  0
  5 10  1  0  0  0  0
  6  5  1  0  0  0  0
  6  7  1  0  0  0  0
  8  6  2  0  0  0  0
 12 11  1  0  0  0  0
 13  8  1  0  0  0  0
 13 12  2  0  0  0  0
 14 13  1  0  0  0  0
 15 14  1  0  0  0  0
 16 14  2  0  0  0  0
 16 18  1  0  0  0  0
 17 16  1  0  0  0  0
 18 19  2  0  0  0  0
 19 12  1  0  0  0  0
 20  3  1  0  0  0  0
 21 22  2  0  0  0  0
 21 20  1  0  0  0  0
 23 21  1  0  0  0  0
 24 23  1  0  0  0  0
 25 23  1  0  0  0  0
 25 30  1  0  0  0  0
 26 25  2  0  0  0  0
 27 26  1  0  0  0  0
 27 28  2  0  0  0  0
 28 29  1  0  0  0  0
 29 30  2  0  0  0  0
 29 32  1  0  0  0  0
 31 27  1  0  0  0  0
 33 26  1  0  0  0  0
 34 33  1  0  0  0  0
 35 33  1  0  0  0  0
M  END
>  <minimizedAffinity>
-5.93060637

$$$$

 OpenBabel03252501393D

 35 37  0  0  0  0  0  0  0  0999 V2000
   39.7900   27.3400   39.5570 Cl  0  0  0  0  0  0  0  0  0  0  0  0
   38.4320   28.1260   40.3450 C   0  0  0  0  0  0  0  0  0  0  0  0
   37.8610   29.3060   39.8680 C   0  0  0  0  0  0  0  0  0  0  0  0
   36.8040   29.8660   40.5310 C   0  0  0  0  0  0  0  0  0  0  0  0
   36.2440   29.3360   41.6680 C   0  0  0  0  0  0  0  0  0  0  0  0
   36.7930   28.1600   42.1660 C   0  0  0  0  0  0  0  0  0  0  0  0
   36.1600   27.3870   43.6190 Cl  0  0  0  0  0  0  0  0  0  0  0  0
   37.8530   27.6070   41.4940 C   0  0  0  0  0  0  0  0  0  0  0  0
   36.3850   30.7920   40.1250 H   0  0  0  0  0  0  0  0  0  0  0  0
   35.4060   29.7980   42.1760 H   0  0  0  0  0  0  0  0  0  0  0  0
   36.8360   24.9070   40.5090 Cl  0  0  0  0  0  0  0  0  0  0  0  0
   38.1420   25.0590   41.6580 C   0  0  0  0  0  0  0  0  0  0  0  0
   38.4660   26.3600   41.9870 C   0  0  0  0  0  0  0  0  0  0  0  0
   39.4780   26.6370   42.8830 C   0  0  0  0  0  0  0  0  0  0  0  0
   39.8160   27.6160   43.2130 H   0  0  0  0  0  0  0  0  0  0  0  0
   40.2040   25.6100   43.4840 C   0  0  0  0  0  0  0  0  0  0  0  0
   41.0180   25.7850   44.2030 H   0  0  0  0  0  0  0  0  0  0  0  0
   39.8690   24.3090   43.1450 C   0  0  0  0  0  3  0  0  0  0  0  0
   38.8570   24.0370   42.2490 C   0  0  0  0  0  3  0  0  0  0  0  0
   38.4380   29.8350   38.7130 O   0  0  0  0  0  0  0  0  0  0  0  0
   39.3550   30.8920   38.8470 C   0  0  0  0  0  0  0  0  0  0  0  0
   39.0540   32.1200   39.0130 O   0  0  0  0  0  0  0  0  0  0  0  0
   40.7630   30.6470   38.8040 N   0  0  0  0  0  0  0  0  0  0  0  0
   41.1290   29.7050   38.6820 H   0  0  0  0  0  0  0  0  0  0  0  0
   41.4430   31.9190   38.9580 C   0  0  0  0  0  0  0  0  0  0  0  0
   41.6860   32.7920   37.9340 C   0  0  0  0  0  0  0  0  0  0  0  0
   42.3500   33.9650   38.2700 C   0  0  0  0  0  0  0  0  0  0  0  0
   42.7030   34.1600   39.5500 N   0  0  0  0  0  0  0  0  0  0  0  0
   42.4390   33.2600   40.5330 C   0  0  0  0  0  0  0  0  0  0  0  0
   41.7960   32.1110   40.2440 N   0  0  0  0  0  0  0  0  0  0  0  0
   42.5470   34.6590   37.4680 H   0  0  0  0  0  0  0  0  0  0  0  0
   42.7520   33.4730   41.5660 H   0  0  0  0  0  0  0  0  0  0  0  0
   41.2470   32.4310   36.6470 N   0  0  0  0  0  0  0  0  0  0  0  0
   41.4600   31.4490   36.3340 H   0  0  0  0  0  0  0  0  0  0  0  0
   40.7350   32.9620   35.9190 H   0  0  0  0  0  0  0  0  0  0  0  0
  1  2  1  0  0  0  0
  2  8  1  0  0  0  0
  3  2  2  0  0  0  0
  3  4  1  0  0  0  0
  4  5  2  0  0  0  0
  5  6  1  0  0  0  0
  5 10  1  0  0  0  0
  6  7  1  0  0  0  0
  8 13  1  0  0  0  0
  8  6  2  0  0  0  0
  9  4  1  0  0  0  0
 11 12  1  0  0  0  0
 12 13  2  0  0  0  0
 12 19  1  0  0  0  0
 13 14  1  0  0  0  0
 14 15  1  0  0  0  0
 14 16  2  0  0  0  0
 16 17  1  0  0  0  0
 18 16  1  0  0  0  0
 19 18  2  0  0  0  0
 20 21  1  0  0  0  0
 20  3  1  0  0  0  0
 21 22  2  0  0  0  0
 23 21  1  0  0  0  0
 23 25  1  0  0  0  0
 24 23  1  0  0  0  0
 25 30  1  0  0  0  0
 26 27  1  0  0  0  0
 26 25  2  0  0  0  0
 27 28  2  0  0  0  0
 28 29  1  0  0  0  0
 29 32  1  0  0  0  0
 30 29  2  0  0  0  0
 31 27  1  0  0  0  0
 33 26  1  0  0  0  0
 34 33  1  0  0  0  0
 35 33  1  0  0  0  0
M  END
>  <minimizedAffinity>
-5.60950327

$$$$
