
 OpenBabel03252506413D

 40 43  0  0  1  0  0  0  0  0999 V2000
   49.1910   33.1270   41.5160 N   0  0  1  0  0  0  0  0  0  0  0  0
   50.5740   33.1640   41.9180 C   0  0  0  0  0  0  0  0  0  0  0  0
   51.3250   31.8930   41.7740 C   0  0  0  0  0  0  0  0  0  0  0  0
   50.7270   30.8460   42.6980 C   0  0  0  0  0  0  0  0  0  0  0  0
   49.2510   31.0130   42.7740 C   0  0  0  0  0  0  0  0  0  0  0  0
   48.6960   31.7660   41.6070 C   0  0  2  0  0  0  0  0  0  0  0  0
   50.6450   33.4640   42.9950 H   0  0  0  0  0  0  0  0  0  0  0  0
   51.1360   33.9880   41.3890 H   0  0  0  0  0  0  0  0  0  0  0  0
   52.3830   32.1270   42.0850 H   0  0  0  0  0  0  0  0  0  0  0  0
   51.4060   31.4470   40.7920 H   0  0  0  0  0  0  0  0  0  0  0  0
   51.0710   29.8250   42.4400 H   0  0  0  0  0  0  0  0  0  0  0  0
   51.1450   31.0480   43.7090 H   0  0  0  0  0  0  0  0  0  0  0  0
   48.6950   30.0700   42.8940 H   0  0  0  0  0  0  0  0  0  0  0  0
   48.9550   31.6160   43.6850 H   0  0  0  0  0  0  0  0  0  0  0  0
   47.6000   31.9200   41.8810 H   0  0  0  0  0  0  0  0  0  0  0  0
   48.5970   33.1900   38.8010 Cl  0  0  0  0  0  0  0  0  0  0  0  0
   48.6460   31.4820   39.0290 C   0  0  0  0  0  0  0  0  0  0  0  0
   48.6500   31.0520   40.3310 C   0  0  0  0  0  0  0  0  0  0  0  0
   48.6480   29.6650   40.5320 C   0  0  0  0  0  0  0  0  0  0  0  0
   48.6480   29.0610   41.4340 H   0  0  0  0  0  0  0  0  0  0  0  0
   48.6420   28.8020   39.4280 C   0  0  0  0  0  0  0  0  0  0  0  0
   48.6400   27.7210   39.4530 H   0  0  0  0  0  0  0  0  0  0  0  0
   48.6390   29.2930   38.1330 C   0  0  0  0  0  3  0  0  0  0  0  0
   48.6410   30.6570   37.9420 C   0  0  0  0  0  3  0  0  0  0  0  0
   47.0720   34.5010   42.0520 C   0  0  1  0  0  0  0  0  0  0  0  0
   48.2030   35.3870   41.7280 C   0  0  0  0  0  0  0  0  0  0  0  0
   48.4730   34.0550   42.3200 C   0  0  2  0  0  0  0  0  0  0  0  0
   46.5130   34.0450   41.2170 H   0  0  0  0  0  0  0  0  0  0  0  0
   48.3490   36.2900   42.3800 H   0  0  0  0  0  0  0  0  0  0  0  0
   48.3790   35.6050   40.6630 H   0  0  0  0  0  0  0  0  0  0  0  0
   48.7510   34.0580   43.4030 H   0  0  0  0  0  0  0  0  0  0  0  0
   45.4430   36.0250   43.2130 C   0  0  0  0  0  0  0  0  0  0  0  0
   46.1940   34.8330   43.2030 C   0  0  0  0  0  0  0  0  0  0  0  0
   46.0770   33.9770   44.3080 C   0  0  0  0  0  0  0  0  0  0  0  0
   45.2490   34.3460   45.3150 N   0  0  0  0  0  0  0  0  0  0  0  0
   44.5390   35.4940   45.3010 C   0  0  0  0  0  0  0  0  0  0  0  0
   44.6320   36.3500   44.2400 N   0  0  0  0  0  0  0  0  0  0  0  0
   45.5760   36.6520   42.3270 H   0  0  0  0  0  0  0  0  0  0  0  0
   46.6360   33.0530   44.3410 H   0  0  0  0  0  0  0  0  0  0  0  0
   43.8800   35.7730   46.1190 H   0  0  0  0  0  0  0  0  0  0  0  0
  1  6  1  0  0  0  0
  1  2  1  1  0  0  0
  1 27  1  0  0  0  0
  2  7  1  0  0  0  0
  3  2  1  0  0  0  0
  3  9  1  0  0  0  0
  3  4  1  0  0  0  0
  4  5  1  0  0  0  0
  4 12  1  0  0  0  0
  5 13  1  0  0  0  0
  5 14  1  0  0  0  0
  6 15  1  1  0  0  0
  6  5  1  0  0  0  0
  8  2  1  0  0  0  0
 10  3  1  0  0  0  0
 11  4  1  0  0  0  0
 16 17  1  0  0  0  0
 17 18  1  0  0  0  0
 18 19  2  0  0  0  0
 18  6  1  0  0  0  0
 19 20  1  0  0  0  0
 21 22  1  0  0  0  0
 21 19  1  0  0  0  0
 23 21  2  0  0  0  0
 24 23  1  0  0  0  0
 24 17  2  0  0  0  0
 25 28  1  6  0  0  0
 25 27  1  0  0  0  0
 25 33  1  0  0  0  0
 26 25  1  0  0  0  0
 26 27  1  0  0  0  0
 26 29  1  0  0  0  0
 27 31  1  1  0  0  0
 30 26  1  0  0  0  0
 32 37  1  0  0  0  0
 33 32  2  0  0  0  0
 33 34  1  0  0  0  0
 34 39  1  0  0  0  0
 34 35  2  0  0  0  0
 36 35  1  0  0  0  0
 36 40  1  0  0  0  0
 37 36  2  0  0  0  0
 38 32  1  0  0  0  0
M  END
>  <minimizedAffinity>
-4.73391247

>  <minimizedRMSD>
0.669171512

$$$$
