
 OpenBabel03252508153D

 37 40  0  0  1  0  0  0  0  0999 V2000
   45.7500   33.0930   46.1850 C   0  0  0  0  0  3  0  0  0  0  0  0
   46.0700   31.9420   45.7340 C   0  0  0  0  0  3  0  0  0  0  0  0
   44.5010   36.1710   44.5990 C   0  0  0  0  0  0  0  0  0  0  0  0
   45.1120   36.1390   43.3300 C   0  0  0  0  0  0  0  0  0  0  0  0
   45.9360   35.0840   43.0720 C   0  0  0  0  0  0  0  0  0  0  0  0
   46.0830   34.1730   44.0560 N   0  0  0  0  0  0  0  0  0  0  0  0
   45.5180   34.1860   45.2490 C   0  0  0  0  0  0  0  0  0  0  0  0
   44.7250   35.2040   45.5020 N   0  0  0  0  0  0  0  0  0  0  0  0
   43.8350   37.0030   44.8430 H   0  0  0  0  0  0  0  0  0  0  0  0
   44.9310   36.8870   42.6050 H   0  0  0  0  0  0  0  0  0  0  0  0
   44.7500   33.3050   40.7690 Cl  0  0  0  0  0  0  0  0  0  0  0  0
   46.3140   34.0630   40.7690 C   0  0  0  0  0  0  0  0  0  0  0  0
   46.6580   34.8080   41.8620 C   0  0  0  0  0  0  0  0  0  0  0  0
   47.9240   35.3770   41.6870 C   0  0  0  0  0  0  0  0  0  0  0  0
   48.3740   36.0070   42.4530 H   0  0  0  0  0  0  0  0  0  0  0  0
   48.7190   35.2150   40.5770 C   0  0  0  0  0  0  0  0  0  0  0  0
   49.6780   35.6730   40.4960 H   0  0  0  0  0  0  0  0  0  0  0  0
   48.2810   34.4430   39.5270 C   0  0  0  0  0  3  0  0  0  0  0  0
   47.0440   33.8570   39.6370 C   0  0  0  0  0  3  0  0  0  0  0  0
   46.2740   30.8660   46.7940 C   0  0  0  0  0  0  0  0  0  0  0  0
   45.6530   29.9880   46.5750 H   0  0  0  0  0  0  0  0  0  0  0  0
   47.3420   30.5590   46.7330 H   0  0  0  0  0  0  0  0  0  0  0  0
   46.0030   31.4430   48.1600 C   0  0  1  0  0  0  0  0  0  0  0  0
   45.7480   30.4670   49.2560 C   0  0  0  0  0  0  0  0  0  0  0  0
   46.9840   31.2250   49.2490 C   0  0  1  0  0  0  0  0  0  0  0  0
   45.4020   32.3740   48.1940 H   0  0  0  0  0  0  0  0  0  0  0  0
   45.7580   29.3760   48.9910 H   0  0  0  0  0  0  0  0  0  0  0  0
   44.9730   30.6920   50.0270 H   0  0  0  0  0  0  0  0  0  0  0  0
   47.0440   32.0720   50.0000 H   0  0  0  0  0  0  0  0  0  0  0  0
   48.3110   30.6800   48.8960 C   0  0  0  0  0  0  0  0  0  0  0  0
   49.2360   30.4390   50.1230 C   0  0  0  0  0  0  0  0  0  0  0  0
   49.5230   31.5920   49.2200 C   0  0  0  0  0  0  0  0  0  0  0  0
   48.4450   29.9690   48.0650 H   0  0  0  0  0  0  0  0  0  0  0  0
   49.8410   29.5280   50.0970 H   0  0  0  0  0  0  0  0  0  0  0  0
   48.8260   30.6620   51.1240 H   0  0  0  0  0  0  0  0  0  0  0  0
   49.2720   32.5940   49.6210 H   0  0  0  0  0  0  0  0  0  0  0  0
   50.4330   31.4780   48.6220 H   0  0  0  0  0  0  0  0  0  0  0  0
  2  1  2  0  0  0  0
  2 20  1  0  0  0  0
  3  9  1  0  0  0  0
  3  8  1  0  0  0  0
  4  3  2  0  0  0  0
  5  4  1  0  0  0  0
  5  6  2  0  0  0  0
  6  7  1  0  0  0  0
  7  8  2  0  0  0  0
  7  1  1  0  0  0  0
 10  4  1  0  0  0  0
 11 12  1  0  0  0  0
 12 13  1  0  0  0  0
 13  5  1  0  0  0  0
 14 13  2  0  0  0  0
 14 15  1  0  0  0  0
 16 14  1  0  0  0  0
 17 16  1  0  0  0  0
 18 19  1  0  0  0  0
 18 16  2  0  0  0  0
 19 12  2  0  0  0  0
 20 23  1  0  0  0  0
 21 20  1  0  0  0  0
 22 20  1  0  0  0  0
 23 26  1  1  0  0  0
 23 25  1  0  0  0  0
 23 24  1  0  0  0  0
 24 28  1  0  0  0  0
 25 24  1  0  0  0  0
 25 29  1  1  0  0  0
 27 24  1  0  0  0  0
 30 32  1  0  0  0  0
 30 25  1  0  0  0  0
 30 31  1  0  0  0  0
 31 35  1  0  0  0  0
 32 36  1  0  0  0  0
 32 31  1  0  0  0  0
 33 30  1  0  0  0  0
 34 31  1  0  0  0  0
 37 32  1  0  0  0  0
M  END
>  <minimizedAffinity>
-6.33660698

>  <minimizedRMSD>
0.542851508

$$$$
