
 OpenBabel03242513393D

 34 37  0  0  0  0  0  0  0  0999 V2000
   33.2270   29.1730   37.2020 C   0  0  0  0  0  0  0  0  0  0  0  0
   33.9380   28.0860   37.6450 C   0  0  0  0  0  0  0  0  0  0  0  0
   33.7740   26.8810   36.9900 C   0  0  0  0  0  0  0  0  0  0  0  0
   32.9310   26.7170   35.9100 C   0  0  0  0  0  0  0  0  0  0  0  0
   32.5530   25.7330   35.0790 N   0  0  0  0  0  0  0  0  0  0  0  0
   31.6540   26.2040   34.1730 C   0  0  0  0  0  0  0  0  0  0  0  0
   31.4750   27.5120   34.4560 N   0  0  0  0  0  0  0  0  0  0  0  0
   32.2430   27.8480   35.5100 C   0  0  0  0  0  0  0  0  0  0  0  0
   32.3660   29.0580   36.1190 C   0  0  0  0  0  0  0  0  0  0  0  0
   33.3640   30.1040   37.7220 H   0  0  0  0  0  0  0  0  0  0  0  0
   34.3300   26.0080   37.3280 H   0  0  0  0  0  0  0  0  0  0  0  0
   32.9190   24.7560   35.1490 H   0  0  0  0  0  0  0  0  0  0  0  0
   31.1680   25.6570   33.3780 H   0  0  0  0  0  0  0  0  0  0  0  0
   30.5210   29.9550   38.2410 Cl  0  0  0  0  0  0  0  0  0  0  0  0
   30.7870   30.7310   36.6940 C   0  0  0  0  0  0  0  0  0  0  0  0
   31.6610   30.2750   35.7310 C   0  0  0  0  0  0  0  0  0  0  0  0
   31.7960   30.9640   34.5410 C   0  0  0  0  0  0  0  0  0  0  0  0
   32.4970   30.5500   33.8370 H   0  0  0  0  0  0  0  0  0  0  0  0
   31.0530   32.1020   34.3320 C   0  0  0  0  0  0  0  0  0  0  0  0
   31.1670   32.6340   33.3950 H   0  0  0  0  0  0  0  0  0  0  0  0
   30.1570   32.6050   35.2710 C   0  0  0  0  0  3  0  0  0  0  0  0
   30.0570   31.8830   36.4420 C   0  0  0  0  0  3  0  0  0  0  0  0
   35.5300   29.2150   40.7440 C   0  0  0  0  0  0  0  0  0  0  0  0
   36.5960   28.3390   40.8940 C   0  0  0  0  0  0  0  0  0  0  0  0
   36.7400   27.3640   39.9060 C   0  0  0  0  0  0  0  0  0  0  0  0
   35.8570   27.3230   38.8770 N   0  0  0  0  0  0  0  0  0  0  0  0
   34.8450   28.1950   38.7810 C   0  0  0  0  0  0  0  0  0  0  0  0
   34.6660   29.1480   39.7050 N   0  0  0  0  0  0  0  0  0  0  0  0
   35.3750   29.9900   41.4850 H   0  0  0  0  0  0  0  0  0  0  0  0
   37.5690   26.6760   40.0170 H   0  0  0  0  0  0  0  0  0  0  0  0
   37.4850   28.4980   42.0690 C   0  0  0  0  0  0  0  0  0  0  0  0
   37.0540   27.5390   42.9810 F   0  0  0  0  0  0  0  0  0  0  0  0
   37.3030   29.7500   42.5810 F   0  0  0  0  0  0  0  0  0  0  0  0
   38.7870   28.2980   41.6580 F   0  0  0  0  0  0  0  0  0  0  0  0
  1  2  1  0  0  0  0
  1 10  1  0  0  0  0
  2 27  1  0  0  0  0
  3 11  1  0  0  0  0
  3  2  2  0  0  0  0
  4  3  1  0  0  0  0
  5 12  1  0  0  0  0
  5  4  1  0  0  0  0
  6  7  2  0  0  0  0
  6  5  1  0  0  0  0
  7  8  1  0  0  0  0
  8  4  2  0  0  0  0
  8  9  1  0  0  0  0
  9  1  2  0  0  0  0
 13  6  1  0  0  0  0
 15 14  1  0  0  0  0
 16  9  1  0  0  0  0
 16 15  2  0  0  0  0
 17 16  1  0  0  0  0
 18 17  1  0  0  0  0
 19 17  2  0  0  0  0
 19 21  1  0  0  0  0
 20 19  1  0  0  0  0
 21 22  2  0  0  0  0
 22 15  1  0  0  0  0
 23 24  1  0  0  0  0
 23 29  1  0  0  0  0
 24 31  1  0  0  0  0
 25 30  1  0  0  0  0
 25 24  2  0  0  0  0
 26 25  1  0  0  0  0
 27 26  2  0  0  0  0
 27 28  1  0  0  0  0
 28 23  2  0  0  0  0
 31 33  1  0  0  0  0
 31 32  1  0  0  0  0
 34 31  1  0  0  0  0
M  END
>  <minimizedAffinity>
-5.91193676

$$$$

 OpenBabel03242513393D

 34 37  0  0  0  0  0  0  0  0999 V2000
   35.9360   27.2160   39.2920 C   0  0  0  0  0  0  0  0  0  0  0  0
   35.3310   28.4440   39.1970 C   0  0  0  0  0  0  0  0  0  0  0  0
   35.5570   29.3690   40.1980 C   0  0  0  0  0  0  0  0  0  0  0  0
   36.3640   29.1170   41.2900 C   0  0  0  0  0  0  0  0  0  0  0  0
   36.7810   29.7590   42.3920 N   0  0  0  0  0  0  0  0  0  0  0  0
   37.6020   28.9560   43.1210 C   0  0  0  0  0  0  0  0  0  0  0  0
   37.6910   27.7890   42.4470 N   0  0  0  0  0  0  0  0  0  0  0  0
   36.9450   27.8630   41.3280 C   0  0  0  0  0  0  0  0  0  0  0  0
   36.7570   26.9160   40.3710 C   0  0  0  0  0  0  0  0  0  0  0  0
   35.7500   26.5060   38.5050 H   0  0  0  0  0  0  0  0  0  0  0  0
   35.0860   30.3480   40.1400 H   0  0  0  0  0  0  0  0  0  0  0  0
   36.4940   30.7380   42.6240 H   0  0  0  0  0  0  0  0  0  0  0  0
   38.0940   29.1860   44.0550 H   0  0  0  0  0  0  0  0  0  0  0  0
   39.3720   26.8990   39.0020 Cl  0  0  0  0  0  0  0  0  0  0  0  0
   38.5740   25.5270   39.7420 C   0  0  0  0  0  0  0  0  0  0  0  0
   37.3490   25.5830   40.3720 C   0  0  0  0  0  0  0  0  0  0  0  0
   36.8060   24.4390   40.9240 C   0  0  0  0  0  0  0  0  0  0  0  0
   35.8480   24.5580   41.4000 H   0  0  0  0  0  0  0  0  0  0  0  0
   37.4990   23.2540   40.8380 C   0  0  0  0  0  0  0  0  0  0  0  0
   37.0640   22.3630   41.2760 H   0  0  0  0  0  0  0  0  0  0  0  0
   38.7380   23.1440   40.2140 C   0  0  0  0  0  3  0  0  0  0  0  0
   39.2380   24.3120   39.6770 C   0  0  0  0  0  3  0  0  0  0  0  0
   32.4030   29.3360   37.1860 C   0  0  0  0  0  0  0  0  0  0  0  0
   32.9030   29.3760   35.8920 C   0  0  0  0  0  0  0  0  0  0  0  0
   34.2610   29.0900   35.7440 C   0  0  0  0  0  0  0  0  0  0  0  0
   35.0020   28.7940   36.8400 N   0  0  0  0  0  0  0  0  0  0  0  0
   34.4680   28.7700   38.0690 C   0  0  0  0  0  0  0  0  0  0  0  0
   33.1700   29.0370   38.2600 N   0  0  0  0  0  0  0  0  0  0  0  0
   31.3550   29.5510   37.3540 H   0  0  0  0  0  0  0  0  0  0  0  0
   34.6580   29.1200   34.7370 H   0  0  0  0  0  0  0  0  0  0  0  0
   31.9780   29.7130   34.7840 C   0  0  0  0  0  0  0  0  0  0  0  0
   30.7600   29.9820   35.3990 F   0  0  0  0  0  0  0  0  0  0  0  0
   31.8660   28.6240   33.9690 F   0  0  0  0  0  0  0  0  0  0  0  0
   32.4890   30.8050   34.1110 F   0  0  0  0  0  0  0  0  0  0  0  0
  1  9  1  0  0  0  0
  2  1  2  0  0  0  0
  2  3  1  0  0  0  0
  3  4  2  0  0  0  0
  4  8  1  0  0  0  0
  4  5  1  0  0  0  0
  5 12  1  0  0  0  0
  5  6  1  0  0  0  0
  6 13  1  0  0  0  0
  7  6  2  0  0  0  0
  8  7  1  0  0  0  0
  9 16  1  0  0  0  0
  9  8  2  0  0  0  0
 10  1  1  0  0  0  0
 11  3  1  0  0  0  0
 14 15  1  0  0  0  0
 15 16  1  0  0  0  0
 16 17  2  0  0  0  0
 17 18  1  0  0  0  0
 19 17  1  0  0  0  0
 19 20  1  0  0  0  0
 21 19  2  0  0  0  0
 22 15  2  0  0  0  0
 22 21  1  0  0  0  0
 23 29  1  0  0  0  0
 23 28  1  0  0  0  0
 24 23  2  0  0  0  0
 25 24  1  0  0  0  0
 25 26  2  0  0  0  0
 26 27  1  0  0  0  0
 27 28  2  0  0  0  0
 27  2  1  0  0  0  0
 30 25  1  0  0  0  0
 31 32  1  0  0  0  0
 31 24  1  0  0  0  0
 33 31  1  0  0  0  0
 34 31  1  0  0  0  0
M  END
>  <minimizedAffinity>
-5.85675526

$$$$

 OpenBabel03242513393D

 34 37  0  0  0  0  0  0  0  0999 V2000
   36.7810   27.3940   38.9890 C   0  0  0  0  0  0  0  0  0  0  0  0
   36.3070   27.1280   37.7300 C   0  0  0  0  0  0  0  0  0  0  0  0
   35.8380   25.8580   37.4580 C   0  0  0  0  0  0  0  0  0  0  0  0
   35.8210   24.8420   38.3930 C   0  0  0  0  0  0  0  0  0  0  0  0
   35.4520   23.5540   38.4610 N   0  0  0  0  0  0  0  0  0  0  0  0
   35.6910   23.0630   39.7060 C   0  0  0  0  0  0  0  0  0  0  0  0
   36.2230   24.0770   40.4220 N   0  0  0  0  0  0  0  0  0  0  0  0
   36.3110   25.1720   39.6420 C   0  0  0  0  0  0  0  0  0  0  0  0
   36.7850   26.4050   39.9640 C   0  0  0  0  0  0  0  0  0  0  0  0
   37.1440   28.3870   39.1870 H   0  0  0  0  0  0  0  0  0  0  0  0
   35.4580   25.6280   36.4640 H   0  0  0  0  0  0  0  0  0  0  0  0
   35.0420   23.0350   37.6500 H   0  0  0  0  0  0  0  0  0  0  0  0
   35.5020   22.0630   40.0700 H   0  0  0  0  0  0  0  0  0  0  0  0
   39.6570   25.7680   40.2030 Cl  0  0  0  0  0  0  0  0  0  0  0  0
   38.6510   26.5170   41.4240 C   0  0  0  0  0  0  0  0  0  0  0  0
   37.3100   26.7960   41.2680 C   0  0  0  0  0  0  0  0  0  0  0  0
   36.6060   27.3900   42.2980 C   0  0  0  0  0  0  0  0  0  0  0  0
   35.5640   27.5790   42.1050 H   0  0  0  0  0  0  0  0  0  0  0  0
   37.2550   27.6960   43.4710 C   0  0  0  0  0  0  0  0  0  0  0  0
   36.6930   28.1620   44.2720 H   0  0  0  0  0  0  0  0  0  0  0  0
   38.6060   27.4360   43.6790 C   0  0  0  0  0  3  0  0  0  0  0  0
   39.2670   26.8420   42.6230 C   0  0  0  0  0  3  0  0  0  0  0  0
   36.9960   30.2010   35.8600 C   0  0  0  0  0  0  0  0  0  0  0  0
   36.2280   30.0570   34.7130 C   0  0  0  0  0  0  0  0  0  0  0  0
   35.4800   28.8830   34.6120 C   0  0  0  0  0  0  0  0  0  0  0  0
   35.5390   27.9690   35.6110 N   0  0  0  0  0  0  0  0  0  0  0  0
   36.2980   28.1580   36.6990 C   0  0  0  0  0  0  0  0  0  0  0  0
   37.0320   29.2690   36.8400 N   0  0  0  0  0  0  0  0  0  0  0  0
   37.5950   31.0950   35.9860 H   0  0  0  0  0  0  0  0  0  0  0  0
   34.8800   28.7630   33.7190 H   0  0  0  0  0  0  0  0  0  0  0  0
   36.2590   31.1370   33.6990 C   0  0  0  0  0  0  0  0  0  0  0  0
   36.9900   32.1640   34.2860 F   0  0  0  0  0  0  0  0  0  0  0  0
   34.9770   31.5450   33.4640 F   0  0  0  0  0  0  0  0  0  0  0  0
   36.8550   30.6420   32.5560 F   0  0  0  0  0  0  0  0  0  0  0  0
  1 10  1  0  0  0  0
  1  9  1  0  0  0  0
  2  1  2  0  0  0  0
  3  2  1  0  0  0  0
  3  4  2  0  0  0  0
  4  5  1  0  0  0  0
  4  8  1  0  0  0  0
  5  6  1  0  0  0  0
  6 13  1  0  0  0  0
  6  7  2  0  0  0  0
  8  9  2  0  0  0  0
  8  7  1  0  0  0  0
  9 16  1  0  0  0  0
 11  3  1  0  0  0  0
 12  5  1  0  0  0  0
 14 15  1  0  0  0  0
 15 22  1  0  0  0  0
 16 15  2  0  0  0  0
 16 17  1  0  0  0  0
 17 19  2  0  0  0  0
 18 17  1  0  0  0  0
 19 21  1  0  0  0  0
 19 20  1  0  0  0  0
 22 21  2  0  0  0  0
 23 29  1  0  0  0  0
 23 28  1  0  0  0  0
 24 23  2  0  0  0  0
 25 24  1  0  0  0  0
 25 26  2  0  0  0  0
 26 27  1  0  0  0  0
 27 28  2  0  0  0  0
 27  2  1  0  0  0  0
 30 25  1  0  0  0  0
 31 32  1  0  0  0  0
 31 24  1  0  0  0  0
 33 31  1  0  0  0  0
 34 31  1  0  0  0  0
M  END
>  <minimizedAffinity>
-5.80089951

$$$$

 OpenBabel03242513393D

 34 37  0  0  0  0  0  0  0  0999 V2000
   40.1050   30.4260   40.7820 C   0  0  0  0  0  0  0  0  0  0  0  0
   38.8610   29.8660   40.9240 C   0  0  0  0  0  0  0  0  0  0  0  0
   37.7520   30.6700   40.7400 C   0  0  0  0  0  0  0  0  0  0  0  0
   37.8360   32.0090   40.4170 C   0  0  0  0  0  0  0  0  0  0  0  0
   37.0010   33.0320   40.1780 N   0  0  0  0  0  0  0  0  0  0  0  0
   37.7090   34.1600   39.9010 C   0  0  0  0  0  0  0  0  0  0  0  0
   39.0140   33.8200   39.9740 N   0  0  0  0  0  0  0  0  0  0  0  0
   39.1160   32.5150   40.2860 C   0  0  0  0  0  0  0  0  0  0  0  0
   40.2410   31.7690   40.4570 C   0  0  0  0  0  0  0  0  0  0  0  0
   40.9590   29.7890   40.9280 H   0  0  0  0  0  0  0  0  0  0  0  0
   36.7570   30.2430   40.8490 H   0  0  0  0  0  0  0  0  0  0  0  0
   35.9600   32.9370   40.2080 H   0  0  0  0  0  0  0  0  0  0  0  0
   37.3230   35.1420   39.6680 H   0  0  0  0  0  0  0  0  0  0  0  0
   41.1810   31.6230   37.6630 Cl  0  0  0  0  0  0  0  0  0  0  0  0
   42.0900   32.2110   39.0380 C   0  0  0  0  0  0  0  0  0  0  0  0
   41.6080   32.2610   40.3290 C   0  0  0  0  0  0  0  0  0  0  0  0
   42.4100   32.7450   41.3450 C   0  0  0  0  0  0  0  0  0  0  0  0
   41.9680   32.7550   42.3260 H   0  0  0  0  0  0  0  0  0  0  0  0
   43.6840   33.1720   41.0540 C   0  0  0  0  0  0  0  0  0  0  0  0
   44.3040   33.5500   41.8580 H   0  0  0  0  0  0  0  0  0  0  0  0
   44.2180   33.1430   39.7680 C   0  0  0  0  0  3  0  0  0  0  0  0
   43.3800   32.6520   38.7880 C   0  0  0  0  0  3  0  0  0  0  0  0
   37.4040   26.5600   41.5260 C   0  0  0  0  0  0  0  0  0  0  0  0
   38.4940   25.7980   41.9200 C   0  0  0  0  0  0  0  0  0  0  0  0
   39.7250   26.4530   41.9680 C   0  0  0  0  0  0  0  0  0  0  0  0
   39.7920   27.7670   41.6380 N   0  0  0  0  0  0  0  0  0  0  0  0
   38.7070   28.4570   41.2640 C   0  0  0  0  0  0  0  0  0  0  0  0
   37.5050   27.8700   41.2030 N   0  0  0  0  0  0  0  0  0  0  0  0
   36.4270   26.0970   41.4720 H   0  0  0  0  0  0  0  0  0  0  0  0
   40.5800   25.8640   42.2740 H   0  0  0  0  0  0  0  0  0  0  0  0
   38.2770   24.3690   42.2530 C   0  0  0  0  0  0  0  0  0  0  0  0
   39.1240   24.1150   43.3270 F   0  0  0  0  0  0  0  0  0  0  0  0
   38.6420   23.6150   41.1760 F   0  0  0  0  0  0  0  0  0  0  0  0
   36.9450   24.1960   42.5700 F   0  0  0  0  0  0  0  0  0  0  0  0
  1  2  1  0  0  0  0
  1 10  1  0  0  0  0
  2 27  1  0  0  0  0
  3 11  1  0  0  0  0
  3  2  2  0  0  0  0
  4  3  1  0  0  0  0
  5 12  1  0  0  0  0
  5  4  1  0  0  0  0
  6  7  2  0  0  0  0
  6  5  1  0  0  0  0
  7  8  1  0  0  0  0
  8  4  2  0  0  0  0
  8  9  1  0  0  0  0
  9  1  2  0  0  0  0
 13  6  1  0  0  0  0
 14 15  1  0  0  0  0
 15 16  1  0  0  0  0
 16  9  1  0  0  0  0
 16 17  2  0  0  0  0
 17 18  1  0  0  0  0
 19 17  1  0  0  0  0
 19 20  1  0  0  0  0
 21 19  2  0  0  0  0
 22 15  2  0  0  0  0
 22 21  1  0  0  0  0
 23 24  1  0  0  0  0
 24 25  2  0  0  0  0
 24 31  1  0  0  0  0
 25 30  1  0  0  0  0
 26 25  1  0  0  0  0
 27 26  2  0  0  0  0
 28 27  1  0  0  0  0
 28 23  2  0  0  0  0
 29 23  1  0  0  0  0
 31 34  1  0  0  0  0
 31 32  1  0  0  0  0
 33 31  1  0  0  0  0
M  END
>  <minimizedAffinity>
-5.79618406

$$$$

 OpenBabel03242513393D

 34 37  0  0  0  0  0  0  0  0999 V2000
   39.6970   29.9790   39.7140 C   0  0  0  0  0  0  0  0  0  0  0  0
   38.5060   29.6110   40.2870 C   0  0  0  0  0  0  0  0  0  0  0  0
   37.5740   30.5940   40.5590 C   0  0  0  0  0  0  0  0  0  0  0  0
   37.7830   31.9300   40.2810 C   0  0  0  0  0  0  0  0  0  0  0  0
   37.1230   33.0910   40.4080 N   0  0  0  0  0  0  0  0  0  0  0  0
   37.8800   34.1160   39.9330 C   0  0  0  0  0  0  0  0  0  0  0  0
   39.0370   33.5690   39.5020 N   0  0  0  0  0  0  0  0  0  0  0  0
   39.0010   32.2380   39.7030 C   0  0  0  0  0  0  0  0  0  0  0  0
   39.9530   31.3110   39.4150 C   0  0  0  0  0  0  0  0  0  0  0  0
   40.4130   29.2040   39.5080 H   0  0  0  0  0  0  0  0  0  0  0  0
   36.6240   30.3210   41.0140 H   0  0  0  0  0  0  0  0  0  0  0  0
   36.1630   33.1590   40.8200 H   0  0  0  0  0  0  0  0  0  0  0  0
   37.6250   35.1660   39.8980 H   0  0  0  0  0  0  0  0  0  0  0  0
   41.9780   31.9760   41.4570 Cl  0  0  0  0  0  0  0  0  0  0  0  0
   42.2280   31.9070   39.7250 C   0  0  0  0  0  0  0  0  0  0  0  0
   41.2500   31.5910   38.8070 C   0  0  0  0  0  0  0  0  0  0  0  0
   41.5530   31.5650   37.4590 C   0  0  0  0  0  0  0  0  0  0  0  0
   40.7400   31.3100   36.8010 H   0  0  0  0  0  0  0  0  0  0  0  0
   42.8320   31.8560   37.0490 C   0  0  0  0  0  0  0  0  0  0  0  0
   43.0590   31.8320   35.9900 H   0  0  0  0  0  0  0  0  0  0  0  0
   43.8560   32.1810   37.9350 C   0  0  0  0  0  3  0  0  0  0  0  0
   43.5050   32.1940   39.2690 C   0  0  0  0  0  3  0  0  0  0  0  0
   38.3270   25.9570   40.1020 C   0  0  0  0  0  0  0  0  0  0  0  0
   37.6620   25.6110   41.2700 C   0  0  0  0  0  0  0  0  0  0  0  0
   37.2870   26.6630   42.1060 C   0  0  0  0  0  0  0  0  0  0  0  0
   37.5820   27.9370   41.7450 N   0  0  0  0  0  0  0  0  0  0  0  0
   38.2260   28.2160   40.6040 C   0  0  0  0  0  0  0  0  0  0  0  0
   38.6050   27.2390   39.7700 N   0  0  0  0  0  0  0  0  0  0  0  0
   38.6390   25.1770   39.4200 H   0  0  0  0  0  0  0  0  0  0  0  0
   36.7700   26.3990   43.0200 H   0  0  0  0  0  0  0  0  0  0  0  0
   37.4050   24.1760   41.5400 C   0  0  0  0  0  0  0  0  0  0  0  0
   36.0200   24.0580   41.5790 F   0  0  0  0  0  0  0  0  0  0  0  0
   37.9400   23.8640   42.7570 F   0  0  0  0  0  0  0  0  0  0  0  0
   37.9770   23.4350   40.5260 F   0  0  0  0  0  0  0  0  0  0  0  0
  1  2  1  0  0  0  0
  2  3  2  0  0  0  0
  2 27  1  0  0  0  0
  3 11  1  0  0  0  0
  4  5  1  0  0  0  0
  4  3  1  0  0  0  0
  5 12  1  0  0  0  0
  6  5  1  0  0  0  0
  7  8  1  0  0  0  0
  7  6  2  0  0  0  0
  8  4  2  0  0  0  0
  9  8  1  0  0  0  0
  9  1  2  0  0  0  0
 10  1  1  0  0  0  0
 13  6  1  0  0  0  0
 15 14  1  0  0  0  0
 16  9  1  0  0  0  0
 16 15  2  0  0  0  0
 17 16  1  0  0  0  0
 18 17  1  0  0  0  0
 19 17  2  0  0  0  0
 19 21  1  0  0  0  0
 20 19  1  0  0  0  0
 21 22  2  0  0  0  0
 22 15  1  0  0  0  0
 23 24  1  0  0  0  0
 24 31  1  0  0  0  0
 24 25  2  0  0  0  0
 25 30  1  0  0  0  0
 26 25  1  0  0  0  0
 27 26  2  0  0  0  0
 28 23  2  0  0  0  0
 28 27  1  0  0  0  0
 29 23  1  0  0  0  0
 31 32  1  0  0  0  0
 31 33  1  0  0  0  0
 34 31  1  0  0  0  0
M  END
>  <minimizedAffinity>
-5.79155254

$$$$

 OpenBabel03242513393D

 34 37  0  0  0  0  0  0  0  0999 V2000
   36.5280   30.4480   39.0950 C   0  0  0  0  0  0  0  0  0  0  0  0
   35.6100   29.4280   39.1200 C   0  0  0  0  0  0  0  0  0  0  0  0
   35.5460   28.6270   40.2440 C   0  0  0  0  0  0  0  0  0  0  0  0
   36.3610   28.8040   41.3440 C   0  0  0  0  0  0  0  0  0  0  0  0
   36.5540   28.2360   42.5450 N   0  0  0  0  0  0  0  0  0  0  0  0
   37.5430   28.8840   43.2160 C   0  0  0  0  0  0  0  0  0  0  0  0
   37.9690   29.8760   42.4060 N   0  0  0  0  0  0  0  0  0  0  0  0
   37.2630   29.8480   41.2600 C   0  0  0  0  0  0  0  0  0  0  0  0
   37.3680   30.6660   40.1780 C   0  0  0  0  0  0  0  0  0  0  0  0
   36.5670   31.0630   38.2140 H   0  0  0  0  0  0  0  0  0  0  0  0
   34.8250   27.8130   40.2810 H   0  0  0  0  0  0  0  0  0  0  0  0
   36.0020   27.4130   42.8810 H   0  0  0  0  0  0  0  0  0  0  0  0
   37.9270   28.6640   44.2020 H   0  0  0  0  0  0  0  0  0  0  0  0
   39.9500   29.7710   39.0620 Cl  0  0  0  0  0  0  0  0  0  0  0  0
   39.5270   31.4050   39.5280 C   0  0  0  0  0  0  0  0  0  0  0  0
   38.3050   31.7770   40.0470 C   0  0  0  0  0  0  0  0  0  0  0  0
   38.0730   33.0970   40.3830 C   0  0  0  0  0  0  0  0  0  0  0  0
   37.0970   33.3140   40.7810 H   0  0  0  0  0  0  0  0  0  0  0  0
   39.0680   34.0260   40.1950 C   0  0  0  0  0  0  0  0  0  0  0  0
   38.8750   35.0590   40.4610 H   0  0  0  0  0  0  0  0  0  0  0  0
   40.3180   33.7030   39.6750 C   0  0  0  0  0  3  0  0  0  0  0  0
   40.5030   32.3740   39.3540 C   0  0  0  0  0  3  0  0  0  0  0  0
   32.6190   28.7930   37.1040 C   0  0  0  0  0  0  0  0  0  0  0  0
   33.1110   28.7460   35.8080 C   0  0  0  0  0  0  0  0  0  0  0  0
   34.4850   28.9380   35.6590 C   0  0  0  0  0  0  0  0  0  0  0  0
   35.2500   29.1540   36.7580 N   0  0  0  0  0  0  0  0  0  0  0  0
   34.7220   29.1900   37.9890 C   0  0  0  0  0  0  0  0  0  0  0  0
   33.4090   29.0100   38.1810 N   0  0  0  0  0  0  0  0  0  0  0  0
   31.5590   28.6490   37.2730 H   0  0  0  0  0  0  0  0  0  0  0  0
   34.8760   28.9040   34.6500 H   0  0  0  0  0  0  0  0  0  0  0  0
   32.1600   28.5010   34.6970 C   0  0  0  0  0  0  0  0  0  0  0  0
   31.9280   29.7520   34.1370 F   0  0  0  0  0  0  0  0  0  0  0  0
   31.0050   27.9960   35.2210 F   0  0  0  0  0  0  0  0  0  0  0  0
   32.7470   27.6190   33.8110 F   0  0  0  0  0  0  0  0  0  0  0  0
  1  2  2  0  0  0  0
  1  9  1  0  0  0  0
  2  3  1  0  0  0  0
  3 11  1  0  0  0  0
  3  4  2  0  0  0  0
  4  5  1  0  0  0  0
  5 12  1  0  0  0  0
  5  6  1  0  0  0  0
  6 13  1  0  0  0  0
  7  6  2  0  0  0  0
  8  4  1  0  0  0  0
  8  7  1  0  0  0  0
  9  8  2  0  0  0  0
 10  1  1  0  0  0  0
 14 15  1  0  0  0  0
 15 16  1  0  0  0  0
 16  9  1  0  0  0  0
 16 17  2  0  0  0  0
 17 18  1  0  0  0  0
 19 17  1  0  0  0  0
 19 20  1  0  0  0  0
 21 19  2  0  0  0  0
 22 15  2  0  0  0  0
 22 21  1  0  0  0  0
 23 29  1  0  0  0  0
 23 28  1  0  0  0  0
 24 23  2  0  0  0  0
 25 24  1  0  0  0  0
 25 26  2  0  0  0  0
 26 27  1  0  0  0  0
 27 28  2  0  0  0  0
 27  2  1  0  0  0  0
 30 25  1  0  0  0  0
 31 33  1  0  0  0  0
 31 24  1  0  0  0  0
 32 31  1  0  0  0  0
 34 31  1  0  0  0  0
M  END
>  <minimizedAffinity>
-5.68823004

$$$$

 OpenBabel03242513393D

 34 37  0  0  0  0  0  0  0  0999 V2000
   36.8240   26.8440   38.8280 C   0  0  0  0  0  0  0  0  0  0  0  0
   36.6520   28.2040   38.7830 C   0  0  0  0  0  0  0  0  0  0  0  0
   36.5610   28.8960   39.9750 C   0  0  0  0  0  0  0  0  0  0  0  0
   36.6360   28.2840   41.2110 C   0  0  0  0  0  0  0  0  0  0  0  0
   36.5880   28.6380   42.5040 N   0  0  0  0  0  0  0  0  0  0  0  0
   36.7260   27.5410   43.2960 C   0  0  0  0  0  0  0  0  0  0  0  0
   36.8620   26.4850   42.4660 N   0  0  0  0  0  0  0  0  0  0  0  0
   36.8100   26.9130   41.1900 C   0  0  0  0  0  0  0  0  0  0  0  0
   36.9060   26.1830   40.0460 C   0  0  0  0  0  0  0  0  0  0  0  0
   36.8930   26.3180   37.8920 H   0  0  0  0  0  0  0  0  0  0  0  0
   36.4240   29.9750   39.9590 H   0  0  0  0  0  0  0  0  0  0  0  0
   36.4620   29.6280   42.8200 H   0  0  0  0  0  0  0  0  0  0  0  0
   36.7280   27.5010   44.3760 H   0  0  0  0  0  0  0  0  0  0  0  0
   39.7530   25.4470   40.2990 Cl  0  0  0  0  0  0  0  0  0  0  0  0
   38.4070   24.3470   40.0930 C   0  0  0  0  0  0  0  0  0  0  0  0
   37.0900   24.7380   39.9790 C   0  0  0  0  0  0  0  0  0  0  0  0
   36.1010   23.7860   39.8190 C   0  0  0  0  0  0  0  0  0  0  0  0
   35.0960   24.1640   39.7380 H   0  0  0  0  0  0  0  0  0  0  0  0
   36.4440   22.4560   39.7750 C   0  0  0  0  0  0  0  0  0  0  0  0
   35.6600   21.7180   39.6500 H   0  0  0  0  0  0  0  0  0  0  0  0
   37.7580   22.0090   39.8860 C   0  0  0  0  0  3  0  0  0  0  0  0
   38.7100   22.9950   40.0430 C   0  0  0  0  0  3  0  0  0  0  0  0
   37.0650   30.7120   36.1460 C   0  0  0  0  0  0  0  0  0  0  0  0
   36.3580   30.1750   35.0800 C   0  0  0  0  0  0  0  0  0  0  0  0
   35.7470   28.9400   35.3010 C   0  0  0  0  0  0  0  0  0  0  0  0
   35.8700   28.3440   36.5130 N   0  0  0  0  0  0  0  0  0  0  0  0
   36.5660   28.9080   37.5090 C   0  0  0  0  0  0  0  0  0  0  0  0
   37.1690   30.0920   37.3440 N   0  0  0  0  0  0  0  0  0  0  0  0
   37.5580   31.6690   36.0250 H   0  0  0  0  0  0  0  0  0  0  0  0
   35.1940   28.5140   34.4730 H   0  0  0  0  0  0  0  0  0  0  0  0
   36.3050   30.9360   33.8090 C   0  0  0  0  0  0  0  0  0  0  0  0
   37.0610   32.0800   34.0400 F   0  0  0  0  0  0  0  0  0  0  0  0
   35.0050   31.2710   33.5610 F   0  0  0  0  0  0  0  0  0  0  0  0
   36.8280   30.1430   32.8070 F   0  0  0  0  0  0  0  0  0  0  0  0
  1  9  1  0  0  0  0
  2  1  2  0  0  0  0
  2  3  1  0  0  0  0
  3  4  2  0  0  0  0
  4  5  1  0  0  0  0
  5 12  1  0  0  0  0
  5  6  1  0  0  0  0
  6 13  1  0  0  0  0
  7  6  2  0  0  0  0
  8  4  1  0  0  0  0
  8  7  1  0  0  0  0
  9  8  2  0  0  0  0
 10  1  1  0  0  0  0
 11  3  1  0  0  0  0
 15 14  1  0  0  0  0
 16  9  1  0  0  0  0
 16 15  2  0  0  0  0
 17 16  1  0  0  0  0
 18 17  1  0  0  0  0
 19 17  2  0  0  0  0
 19 21  1  0  0  0  0
 20 19  1  0  0  0  0
 21 22  2  0  0  0  0
 22 15  1  0  0  0  0
 23 28  1  0  0  0  0
 24 25  1  0  0  0  0
 24 23  2  0  0  0  0
 25 26  2  0  0  0  0
 26 27  1  0  0  0  0
 27  2  1  0  0  0  0
 28 27  2  0  0  0  0
 29 23  1  0  0  0  0
 30 25  1  0  0  0  0
 31 32  1  0  0  0  0
 31 24  1  0  0  0  0
 33 31  1  0  0  0  0
 34 31  1  0  0  0  0
M  END
>  <minimizedAffinity>
-5.68546629

$$$$

 OpenBabel03242513393D

 34 37  0  0  0  0  0  0  0  0999 V2000
   35.7110   27.9110   39.1940 C   0  0  0  0  0  0  0  0  0  0  0  0
   35.2580   27.4920   37.9690 C   0  0  0  0  0  0  0  0  0  0  0  0
   35.7680   26.3200   37.4440 C   0  0  0  0  0  0  0  0  0  0  0  0
   36.7100   25.5490   38.0950 C   0  0  0  0  0  0  0  0  0  0  0  0
   37.3860   24.4090   37.8820 N   0  0  0  0  0  0  0  0  0  0  0  0
   38.2100   24.1500   38.9330 C   0  0  0  0  0  0  0  0  0  0  0  0
   38.0350   25.1580   39.8140 N   0  0  0  0  0  0  0  0  0  0  0  0
   37.1250   26.0220   39.3250 C   0  0  0  0  0  0  0  0  0  0  0  0
   36.6570   27.1690   39.8870 C   0  0  0  0  0  0  0  0  0  0  0  0
   35.3050   28.8250   39.5900 H   0  0  0  0  0  0  0  0  0  0  0  0
   35.4210   25.9720   36.4730 H   0  0  0  0  0  0  0  0  0  0  0  0
   37.2690   23.8300   37.0190 H   0  0  0  0  0  0  0  0  0  0  0  0
   38.8790   23.3110   39.0570 H   0  0  0  0  0  0  0  0  0  0  0  0
   38.7700   29.2080   39.5870 Cl  0  0  0  0  0  0  0  0  0  0  0  0
   38.0540   28.6630   41.0890 C   0  0  0  0  0  0  0  0  0  0  0  0
   37.0670   27.7050   41.1810 C   0  0  0  0  0  0  0  0  0  0  0  0
   36.5700   27.3460   42.4190 C   0  0  0  0  0  0  0  0  0  0  0  0
   35.8010   26.5920   42.4140 H   0  0  0  0  0  0  0  0  0  0  0  0
   37.0680   27.9510   43.5480 C   0  0  0  0  0  0  0  0  0  0  0  0
   36.6700   27.6620   44.5140 H   0  0  0  0  0  0  0  0  0  0  0  0
   38.0630   28.9230   43.5100 C   0  0  0  0  0  3  0  0  0  0  0  0
   38.5290   29.2480   42.2530 C   0  0  0  0  0  3  0  0  0  0  0  0
   33.4320   29.1510   35.2620 C   0  0  0  0  0  0  0  0  0  0  0  0
   32.3510   29.7300   35.9130 C   0  0  0  0  0  0  0  0  0  0  0  0
   32.2780   29.5290   37.2920 C   0  0  0  0  0  0  0  0  0  0  0  0
   33.2410   28.8000   37.9100 N   0  0  0  0  0  0  0  0  0  0  0  0
   34.2640   28.2630   37.2320 C   0  0  0  0  0  0  0  0  0  0  0  0
   34.3760   28.4290   35.9080 N   0  0  0  0  0  0  0  0  0  0  0  0
   33.5330   29.2780   34.1910 H   0  0  0  0  0  0  0  0  0  0  0  0
   31.4370   29.9770   37.8060 H   0  0  0  0  0  0  0  0  0  0  0  0
   31.3720   30.5020   35.1120 C   0  0  0  0  0  0  0  0  0  0  0  0
   30.2860   29.6490   34.9470 F   0  0  0  0  0  0  0  0  0  0  0  0
   31.9350   30.7890   33.9020 F   0  0  0  0  0  0  0  0  0  0  0  0
   31.0500   31.6490   35.8100 F   0  0  0  0  0  0  0  0  0  0  0  0
  1 10  1  0  0  0  0
  1  9  1  0  0  0  0
  2  1  2  0  0  0  0
  3  2  1  0  0  0  0
  3  4  2  0  0  0  0
  4  8  1  0  0  0  0
  5  4  1  0  0  0  0
  5  6  1  0  0  0  0
  6 13  1  0  0  0  0
  6  7  2  0  0  0  0
  8  7  1  0  0  0  0
  8  9  2  0  0  0  0
  9 16  1  0  0  0  0
 11  3  1  0  0  0  0
 12  5  1  0  0  0  0
 14 15  1  0  0  0  0
 15 16  2  0  0  0  0
 15 22  1  0  0  0  0
 16 17  1  0  0  0  0
 17 19  2  0  0  0  0
 18 17  1  0  0  0  0
 19 20  1  0  0  0  0
 21 19  1  0  0  0  0
 22 21  2  0  0  0  0
 23 28  2  0  0  0  0
 23 24  1  0  0  0  0
 24 25  2  0  0  0  0
 25 30  1  0  0  0  0
 25 26  1  0  0  0  0
 27 26  2  0  0  0  0
 27  2  1  0  0  0  0
 28 27  1  0  0  0  0
 29 23  1  0  0  0  0
 31 34  1  0  0  0  0
 31 24  1  0  0  0  0
 32 31  1  0  0  0  0
 33 31  1  0  0  0  0
M  END
>  <minimizedAffinity>
-5.44958925

$$$$

 OpenBabel03242513393D

 34 37  0  0  0  0  0  0  0  0999 V2000
   35.9060   28.5490   38.7880 C   0  0  0  0  0  0  0  0  0  0  0  0
   35.7770   28.8680   37.4600 C   0  0  0  0  0  0  0  0  0  0  0  0
   36.9240   29.0030   36.7010 C   0  0  0  0  0  0  0  0  0  0  0  0
   38.1930   28.8310   37.2140 C   0  0  0  0  0  0  0  0  0  0  0  0
   39.4620   28.8840   36.7780 N   0  0  0  0  0  0  0  0  0  0  0  0
   40.3190   28.6090   37.7980 C   0  0  0  0  0  0  0  0  0  0  0  0
   39.5570   28.3810   38.8880 N   0  0  0  0  0  0  0  0  0  0  0  0
   38.2580   28.5100   38.5570 C   0  0  0  0  0  0  0  0  0  0  0  0
   37.1620   28.3650   39.3500 C   0  0  0  0  0  0  0  0  0  0  0  0
   35.0050   28.4470   39.3660 H   0  0  0  0  0  0  0  0  0  0  0  0
   36.8410   29.2560   35.6450 H   0  0  0  0  0  0  0  0  0  0  0  0
   39.7150   29.1090   35.7890 H   0  0  0  0  0  0  0  0  0  0  0  0
   41.3990   28.5750   37.7620 H   0  0  0  0  0  0  0  0  0  0  0  0
   37.5250   30.7710   41.0220 Cl  0  0  0  0  0  0  0  0  0  0  0  0
   37.3520   29.1230   41.5890 C   0  0  0  0  0  0  0  0  0  0  0  0
   37.1840   28.0280   40.7690 C   0  0  0  0  0  0  0  0  0  0  0  0
   37.0560   26.7680   41.3200 C   0  0  0  0  0  0  0  0  0  0  0  0
   36.9280   25.9610   40.6200 H   0  0  0  0  0  0  0  0  0  0  0  0
   37.0990   26.6210   42.6870 C   0  0  0  0  0  0  0  0  0  0  0  0
   36.9970   25.6280   43.1090 H   0  0  0  0  0  0  0  0  0  0  0  0
   37.2660   27.6940   43.5590 C   0  0  0  0  0  3  0  0  0  0  0  0
   37.3890   28.9310   42.9620 C   0  0  0  0  0  3  0  0  0  0  0  0
   33.0950   29.3490   35.0120 C   0  0  0  0  0  0  0  0  0  0  0  0
   31.9550   29.4270   35.7990 C   0  0  0  0  0  0  0  0  0  0  0  0
   32.1420   29.3090   37.1770 C   0  0  0  0  0  0  0  0  0  0  0  0
   33.3950   29.1300   37.6640 N   0  0  0  0  0  0  0  0  0  0  0  0
   34.4630   29.0620   36.8590 C   0  0  0  0  0  0  0  0  0  0  0  0
   34.3320   29.1710   35.5300 N   0  0  0  0  0  0  0  0  0  0  0  0
   33.0020   29.4360   33.9370 H   0  0  0  0  0  0  0  0  0  0  0  0
   31.2570   29.3680   37.7960 H   0  0  0  0  0  0  0  0  0  0  0  0
   30.6450   29.6250   35.1320 C   0  0  0  0  0  0  0  0  0  0  0  0
   30.9560   30.0210   33.8350 F   0  0  0  0  0  0  0  0  0  0  0  0
   29.9770   30.6220   35.7820 F   0  0  0  0  0  0  0  0  0  0  0  0
   29.9520   28.4320   35.1760 F   0  0  0  0  0  0  0  0  0  0  0  0
  1  9  1  0  0  0  0
  1 10  1  0  0  0  0
  2  1  2  0  0  0  0
  3  4  2  0  0  0  0
  3  2  1  0  0  0  0
  4  8  1  0  0  0  0
  5  4  1  0  0  0  0
  5  6  1  0  0  0  0
  6  7  2  0  0  0  0
  8  7  1  0  0  0  0
  8  9  2  0  0  0  0
  9 16  1  0  0  0  0
 11  3  1  0  0  0  0
 12  5  1  0  0  0  0
 13  6  1  0  0  0  0
 14 15  1  0  0  0  0
 15 22  1  0  0  0  0
 16 17  1  0  0  0  0
 16 15  2  0  0  0  0
 17 19  2  0  0  0  0
 18 17  1  0  0  0  0
 19 20  1  0  0  0  0
 19 21  1  0  0  0  0
 22 21  2  0  0  0  0
 23 28  2  0  0  0  0
 23 24  1  0  0  0  0
 24 25  2  0  0  0  0
 25 26  1  0  0  0  0
 25 30  1  0  0  0  0
 27  2  1  0  0  0  0
 27 26  2  0  0  0  0
 28 27  1  0  0  0  0
 29 23  1  0  0  0  0
 31 34  1  0  0  0  0
 31 33  1  0  0  0  0
 31 24  1  0  0  0  0
 32 31  1  0  0  0  0
M  END
>  <minimizedAffinity>
-5.44231081

$$$$
