
 OpenBabel03252507383D

 38 42  0  0  0  0  0  0  0  0999 V2000
   45.3240   34.7280   43.5360 C   0  0  0  0  0  0  0  0  0  0  0  0
   46.0350   33.6440   44.1100 C   0  0  0  0  0  0  0  0  0  0  0  0
   45.9400   33.4890   45.4920 C   0  0  0  0  0  0  0  0  0  0  0  0
   45.2030   34.3470   46.1960 N   0  0  0  0  0  0  0  0  0  0  0  0
   44.5290   35.3770   45.6270 C   0  0  0  0  0  0  0  0  0  0  0  0
   44.5970   35.5550   44.3170 N   0  0  0  0  0  0  0  0  0  0  0  0
   46.6200   32.9670   43.5390 H   0  0  0  0  0  0  0  0  0  0  0  0
   43.9470   36.0420   46.2380 H   0  0  0  0  0  0  0  0  0  0  0  0
   46.9870   32.6880   47.5350 C   0  0  0  0  0  0  0  0  0  0  0  0
   46.6330   32.4070   46.2050 C   0  0  0  0  0  0  0  0  0  0  0  0
   46.9480   31.1930   45.6780 C   0  0  0  0  0  0  0  0  0  0  0  0
   47.6020   30.2220   46.4000 C   0  0  0  0  0  0  0  0  0  0  0  0
   48.0090   28.9700   46.0890 N   0  0  0  0  0  0  0  0  0  0  0  0
   48.6200   28.4570   47.2190 C   0  0  0  0  0  0  0  0  0  0  0  0
   48.5750   29.3950   48.1900 N   0  0  0  0  0  0  0  0  0  0  0  0
   47.9580   30.4710   47.7020 C   0  0  0  0  0  0  0  0  0  0  0  0
   47.6500   31.7070   48.2710 C   0  0  0  0  0  0  0  0  0  0  0  0
   46.7750   33.6270   48.0310 H   0  0  0  0  0  0  0  0  0  0  0  0
   46.6630   31.0040   44.6510 H   0  0  0  0  0  0  0  0  0  0  0  0
   47.8780   28.4900   45.1530 H   0  0  0  0  0  0  0  0  0  0  0  0
   49.0400   27.4490   47.2280 H   0  0  0  0  0  0  0  0  0  0  0  0
   47.9500   31.8580   49.3010 H   0  0  0  0  0  0  0  0  0  0  0  0
   45.4170   34.8850   42.1480 O   0  0  0  0  0  0  0  0  0  0  0  0
   44.3660   34.4760   41.3390 C   0  0  0  0  0  0  0  0  0  0  0  0
   45.0360   33.8350   40.3570 C   0  0  0  0  0  0  0  0  0  0  0  0
   43.6040   33.2690   39.2440 S   0  0  0  0  0  0  0  0  0  0  0  0
   42.3810   34.0650   40.4160 C   0  0  0  0  0  0  0  0  0  0  0  0
   43.0650   34.4740   41.1760 N   0  0  0  0  0  0  0  0  0  0  0  0
   45.9740   33.4110   39.7670 H   0  0  0  0  0  0  0  0  0  0  0  0
   41.3390   35.7110   38.0560 Cl  0  0  0  0  0  0  0  0  0  0  0  0
   40.3630   34.6650   39.0660 C   0  0  0  0  0  0  0  0  0  0  0  0
   40.9280   33.9770   40.0930 C   0  0  0  0  0  0  0  0  0  0  0  0
   40.2570   33.1460   40.9280 C   0  0  0  0  0  0  0  0  0  0  0  0
   40.7030   32.5970   41.7450 H   0  0  0  0  0  0  0  0  0  0  0  0
   38.8840   33.0080   40.6900 C   0  0  0  0  0  0  0  0  0  0  0  0
   38.2970   32.3550   41.3270 H   0  0  0  0  0  0  0  0  0  0  0  0
   38.3040   33.7030   39.6510 C   0  0  0  0  0  3  0  0  0  0  0  0
   39.0120   34.5430   38.8170 C   0  0  0  0  0  3  0  0  0  0  0  0
  1  2  2  0  0  0  0
  1  6  1  0  0  0  0
  2  3  1  0  0  0  0
  3  4  2  0  0  0  0
  3 10  1  0  0  0  0
  5  4  1  0  0  0  0
  5  8  1  0  0  0  0
  6  5  2  0  0  0  0
  7  2  1  0  0  0  0
  9 18  1  0  0  0  0
  9 17  1  0  0  0  0
 10  9  2  0  0  0  0
 11 10  1  0  0  0  0
 11 12  2  0  0  0  0
 12 16  1  0  0  0  0
 13 12  1  0  0  0  0
 13 14  1  0  0  0  0
 14 21  1  0  0  0  0
 14 15  2  0  0  0  0
 16 15  1  0  0  0  0
 16 17  2  0  0  0  0
 17 22  1  0  0  0  0
 19 11  1  0  0  0  0
 20 13  1  0  0  0  0
 23  1  1  0  0  0  0
 24 23  1  0  0  0  0
 25 24  2  0  0  0  0
 26 25  1  0  0  0  0
 26 27  1  0  0  0  0
 27 28  2  0  0  0  0
 28 24  1  0  0  0  0
 29 25  1  0  0  0  0
 30 31  1  0  0  0  0
 31 32  1  0  0  0  0
 32 27  1  0  0  0  0
 32 33  2  0  0  0  0
 33 34  1  0  0  0  0
 35 33  1  0  0  0  0
 35 36  1  0  0  0  0
 37 35  2  0  0  0  0
 38 31  2  0  0  0  0
 38 37  1  0  0  0  0
M  END
>  <minimizedAffinity>
-7.07798672

>  <minimizedRMSD>
1.25578368

$$$$
