
 OpenBabel03252507383D

 38 42  0  0  0  0  0  0  0  0999 V2000
   46.0490   32.7970   43.6500 C   0  0  0  0  0  0  0  0  0  0  0  0
   45.7050   31.4930   44.0860 C   0  0  0  0  0  0  0  0  0  0  0  0
   45.6520   31.2830   45.4620 C   0  0  0  0  0  0  0  0  0  0  0  0
   45.9220   32.2930   46.2880 N   0  0  0  0  0  0  0  0  0  0  0  0
   46.2480   33.5340   45.8500 C   0  0  0  0  0  0  0  0  0  0  0  0
   46.3080   33.7700   44.5490 N   0  0  0  0  0  0  0  0  0  0  0  0
   45.4930   30.6960   43.4180 H   0  0  0  0  0  0  0  0  0  0  0  0
   46.4570   34.3160   46.5560 H   0  0  0  0  0  0  0  0  0  0  0  0
   45.4410   29.8750   47.4340 C   0  0  0  0  0  0  0  0  0  0  0  0
   45.3110   29.9740   46.0390 C   0  0  0  0  0  0  0  0  0  0  0  0
   44.8950   28.8880   45.3330 C   0  0  0  0  0  0  0  0  0  0  0  0
   44.5940   27.6880   45.9350 C   0  0  0  0  0  0  0  0  0  0  0  0
   44.1730   26.5010   45.4440 N   0  0  0  0  0  0  0  0  0  0  0  0
   44.0350   25.6490   46.5260 C   0  0  0  0  0  0  0  0  0  0  0  0
   44.3700   26.3250   47.6460 N   0  0  0  0  0  0  0  0  0  0  0  0
   44.7120   27.5660   47.2970 C   0  0  0  0  0  0  0  0  0  0  0  0
   45.1350   28.6620   48.0490 C   0  0  0  0  0  0  0  0  0  0  0  0
   45.7640   30.6900   48.0700 H   0  0  0  0  0  0  0  0  0  0  0  0
   44.8050   28.9930   44.2600 H   0  0  0  0  0  0  0  0  0  0  0  0
   43.9890   26.2810   44.4240 H   0  0  0  0  0  0  0  0  0  0  0  0
   43.7030   24.6160   46.3950 H   0  0  0  0  0  0  0  0  0  0  0  0
   45.2140   28.5170   49.1190 H   0  0  0  0  0  0  0  0  0  0  0  0
   46.1030   33.0110   42.2670 O   0  0  0  0  0  0  0  0  0  0  0  0
   44.9320   32.9700   41.5210 C   0  0  0  0  0  0  0  0  0  0  0  0
   45.3090   32.1650   40.5030 C   0  0  0  0  0  0  0  0  0  0  0  0
   43.7120   32.1000   39.4760 S   0  0  0  0  0  0  0  0  0  0  0  0
   42.8720   33.2240   40.7150 C   0  0  0  0  0  0  0  0  0  0  0  0
   43.6910   33.3830   41.4330 N   0  0  0  0  0  0  0  0  0  0  0  0
   46.0300   31.4760   39.8610 H   0  0  0  0  0  0  0  0  0  0  0  0
   42.3030   35.3810   38.6190 Cl  0  0  0  0  0  0  0  0  0  0  0  0
   41.0880   34.5510   39.5690 C   0  0  0  0  0  0  0  0  0  0  0  0
   41.4500   33.6060   40.4770 C   0  0  0  0  0  0  0  0  0  0  0  0
   40.5860   32.9120   41.2570 C   0  0  0  0  0  0  0  0  0  0  0  0
   40.8700   32.1600   41.9790 H   0  0  0  0  0  0  0  0  0  0  0  0
   39.2270   33.2130   41.0920 C   0  0  0  0  0  0  0  0  0  0  0  0
   38.4900   32.6870   41.6910 H   0  0  0  0  0  0  0  0  0  0  0  0
   38.8520   34.1700   40.1750 C   0  0  0  0  0  3  0  0  0  0  0  0
   39.7550   34.8610   39.3930 C   0  0  0  0  0  3  0  0  0  0  0  0
  1  2  2  0  0  0  0
  1  6  1  0  0  0  0
  2  3  1  0  0  0  0
  3 10  1  0  0  0  0
  3  4  2  0  0  0  0
  5  4  1  0  0  0  0
  5  8  1  0  0  0  0
  6  5  2  0  0  0  0
  7  2  1  0  0  0  0
  9 17  1  0  0  0  0
  9 18  1  0  0  0  0
 10  9  2  0  0  0  0
 11 12  2  0  0  0  0
 11 10  1  0  0  0  0
 12 16  1  0  0  0  0
 13 12  1  0  0  0  0
 13 14  1  0  0  0  0
 14 15  2  0  0  0  0
 16 15  1  0  0  0  0
 16 17  2  0  0  0  0
 17 22  1  0  0  0  0
 19 11  1  0  0  0  0
 20 13  1  0  0  0  0
 21 14  1  0  0  0  0
 23  1  1  0  0  0  0
 24 23  1  0  0  0  0
 25 24  2  0  0  0  0
 26 25  1  0  0  0  0
 26 27  1  0  0  0  0
 27 28  2  0  0  0  0
 28 24  1  0  0  0  0
 29 25  1  0  0  0  0
 30 31  1  0  0  0  0
 31 32  1  0  0  0  0
 32 27  1  0  0  0  0
 32 33  2  0  0  0  0
 33 34  1  0  0  0  0
 35 33  1  0  0  0  0
 35 36  1  0  0  0  0
 37 35  2  0  0  0  0
 38 31  2  0  0  0  0
 38 37  1  0  0  0  0
M  END
>  <minimizedAffinity>
-5.32817984

>  <minimizedRMSD>
2.99488354

$$$$
