
 OpenBabel03252505353D

 30 32  0  0  0  0  0  0  0  0999 V2000
   37.5780   29.4580   41.4170 C   0  0  0  0  0  0  0  0  0  0  0  0
   38.3010   29.5370   42.5940 C   0  0  0  0  0  0  0  0  0  0  0  0
   38.0640   28.6940   43.6800 C   0  0  0  0  0  0  0  0  0  0  0  0
   37.0670   27.7420   43.5780 C   0  0  0  0  0  0  0  0  0  0  0  0
   36.3650   27.6820   42.4040 C   0  0  0  0  0  0  0  0  0  0  0  0
   36.5920   28.5120   41.3240 C   0  0  0  0  0  0  0  0  0  0  0  0
   39.0920   30.2810   42.6950 H   0  0  0  0  0  0  0  0  0  0  0  0
   38.6770   28.8260   44.5580 H   0  0  0  0  0  0  0  0  0  0  0  0
   36.9550   27.1450   44.4480 H   0  0  0  0  0  0  0  0  0  0  0  0
   35.5880   26.9250   42.3530 H   0  0  0  0  0  0  0  0  0  0  0  0
   39.0270   31.0990   38.3520 C   0  0  0  0  0  0  0  0  0  0  0  0
   38.7720   30.1130   39.3200 C   0  0  0  0  0  0  0  0  0  0  0  0
   37.9150   30.3880   40.3670 C   0  0  0  0  0  0  0  0  0  0  0  0
   37.3440   31.6290   40.4150 N   0  0  0  0  0  0  0  0  0  0  0  0
   37.6090   32.5640   39.4660 C   0  0  0  0  0  0  0  0  0  0  0  0
   38.4530   32.2870   38.4390 N   0  0  0  0  0  0  0  0  0  0  0  0
   37.0000   33.8550   39.5370 N   0  0  0  0  0  0  0  0  0  0  0  0
   39.7090   30.8090   37.5650 H   0  0  0  0  0  0  0  0  0  0  0  0
   39.2140   29.1270   39.2980 H   0  0  0  0  0  0  0  0  0  0  0  0
   37.2890   34.7490   39.9850 H   0  0  0  0  0  0  0  0  0  0  0  0
   36.1440   33.6300   38.9880 H   0  0  0  0  0  0  0  0  0  0  0  0
   37.5710   26.4620   39.4810 Cl  0  0  0  0  0  0  0  0  0  0  0  0
   36.1640   27.4700   39.1450 C   0  0  0  0  0  0  0  0  0  0  0  0
   35.8060   28.3980   40.0990 C   0  0  0  0  0  0  0  0  0  0  0  0
   34.6820   29.1550   39.7600 C   0  0  0  0  0  0  0  0  0  0  0  0
   34.3810   29.9020   40.5030 H   0  0  0  0  0  0  0  0  0  0  0  0
   34.0180   28.9620   38.5710 C   0  0  0  0  0  0  0  0  0  0  0  0
   33.1490   29.5770   38.3570 H   0  0  0  0  0  0  0  0  0  0  0  0
   34.4440   28.0010   37.6570 C   0  0  0  0  0  3  0  0  0  0  0  0
   35.5640   27.2160   37.9490 C   0  0  0  0  0  3  0  0  0  0  0  0
  1  2  1  0  0  0  0
  2  7  1  0  0  0  0
  2  3  2  0  0  0  0
  3  8  1  0  0  0  0
  4  3  1  0  0  0  0
  4  9  1  0  0  0  0
  5  4  2  0  0  0  0
  6  1  2  0  0  0  0
  6  5  1  0  0  0  0
 10  5  1  0  0  0  0
 11 16  2  0  0  0  0
 11 12  1  0  0  0  0
 12 13  2  0  0  0  0
 13 14  1  0  0  0  0
 13  1  1  0  0  0  0
 15 17  1  0  0  0  0
 15 14  2  0  0  0  0
 16 15  1  0  0  0  0
 17 20  1  0  0  0  0
 18 11  1  0  0  0  0
 19 12  1  0  0  0  0
 21 17  1  0  0  0  0
 23 22  1  0  0  0  0
 23 24  1  0  0  0  0
 24  6  1  0  0  0  0
 25 24  2  0  0  0  0
 25 26  1  0  0  0  0
 27 25  1  0  0  0  0
 28 27  1  0  0  0  0
 29 30  1  0  0  0  0
 29 27  2  0  0  0  0
 30 23  2  0  0  0  0
M  END
>  <minimizedAffinity>
-6.11746311

$$$$

 OpenBabel03252505353D

 30 32  0  0  0  0  0  0  0  0999 V2000
   37.9010   29.4370   41.6540 C   0  0  0  0  0  0  0  0  0  0  0  0
   37.9680   29.2840   43.0280 C   0  0  0  0  0  0  0  0  0  0  0  0
   37.4960   28.1440   43.6800 C   0  0  0  0  0  0  0  0  0  0  0  0
   36.9390   27.1290   42.9260 C   0  0  0  0  0  0  0  0  0  0  0  0
   36.8840   27.3020   41.5700 C   0  0  0  0  0  0  0  0  0  0  0  0
   37.3490   28.4260   40.9140 C   0  0  0  0  0  0  0  0  0  0  0  0
   38.4030   30.0740   43.6400 H   0  0  0  0  0  0  0  0  0  0  0  0
   37.5890   28.1100   44.7540 H   0  0  0  0  0  0  0  0  0  0  0  0
   36.6070   26.3020   43.5020 H   0  0  0  0  0  0  0  0  0  0  0  0
   36.4420   26.4880   41.0040 H   0  0  0  0  0  0  0  0  0  0  0  0
   40.1510   32.1710   40.3680 C   0  0  0  0  0  0  0  0  0  0  0  0
   39.7610   30.9400   40.9210 C   0  0  0  0  0  0  0  0  0  0  0  0
   38.4200   30.6620   41.0970 C   0  0  0  0  0  0  0  0  0  0  0  0
   37.5170   31.6160   40.7170 N   0  0  0  0  0  0  0  0  0  0  0  0
   37.9220   32.7980   40.1850 C   0  0  0  0  0  0  0  0  0  0  0  0
   39.2430   33.0640   40.0160 N   0  0  0  0  0  0  0  0  0  0  0  0
   36.9590   33.7790   39.7960 N   0  0  0  0  0  0  0  0  0  0  0  0
   41.2170   32.3140   40.2640 H   0  0  0  0  0  0  0  0  0  0  0  0
   40.4610   30.1750   41.2270 H   0  0  0  0  0  0  0  0  0  0  0  0
   36.5130   34.5720   40.3010 H   0  0  0  0  0  0  0  0  0  0  0  0
   36.8250   33.4550   38.8150 H   0  0  0  0  0  0  0  0  0  0  0  0
   34.7180   29.2830   39.9640 Cl  0  0  0  0  0  0  0  0  0  0  0  0
   36.0720   28.9460   38.8860 C   0  0  0  0  0  0  0  0  0  0  0  0
   37.2600   28.5510   39.4630 C   0  0  0  0  0  0  0  0  0  0  0  0
   38.2820   28.3050   38.5440 C   0  0  0  0  0  0  0  0  0  0  0  0
   39.2360   27.9870   38.9800 H   0  0  0  0  0  0  0  0  0  0  0  0
   38.0830   28.4540   37.1900 C   0  0  0  0  0  0  0  0  0  0  0  0
   38.9120   28.2510   36.5190 H   0  0  0  0  0  0  0  0  0  0  0  0
   36.8490   28.8570   36.6850 C   0  0  0  0  0  3  0  0  0  0  0  0
   35.7930   29.1170   37.5630 C   0  0  0  0  0  3  0  0  0  0  0  0
  1  2  1  0  0  0  0
  2  7  1  0  0  0  0
  2  3  2  0  0  0  0
  3  8  1  0  0  0  0
  4  9  1  0  0  0  0
  4  3  1  0  0  0  0
  5  4  2  0  0  0  0
  6  5  1  0  0  0  0
  6  1  2  0  0  0  0
 10  5  1  0  0  0  0
 11 12  1  0  0  0  0
 12 13  2  0  0  0  0
 12 19  1  0  0  0  0
 13  1  1  0  0  0  0
 14 13  1  0  0  0  0
 15 14  2  0  0  0  0
 16 15  1  0  0  0  0
 16 11  2  0  0  0  0
 17 15  1  0  0  0  0
 17 20  1  0  0  0  0
 18 11  1  0  0  0  0
 21 17  1  0  0  0  0
 23 24  1  0  0  0  0
 23 22  1  0  0  0  0
 24  6  1  0  0  0  0
 25 26  1  0  0  0  0
 25 24  2  0  0  0  0
 27 25  1  0  0  0  0
 28 27  1  0  0  0  0
 29 27  2  0  0  0  0
 29 30  1  0  0  0  0
 30 23  2  0  0  0  0
M  END
>  <minimizedAffinity>
-5.9250145

$$$$

 OpenBabel03252505353D

 30 32  0  0  0  0  0  0  0  0999 V2000
   37.2790   29.9720   39.2690 C   0  0  0  0  0  0  0  0  0  0  0  0
   36.6600   30.3000   38.0750 C   0  0  0  0  0  0  0  0  0  0  0  0
   35.5860   29.5730   37.5620 C   0  0  0  0  0  0  0  0  0  0  0  0
   35.1220   28.4820   38.2700 C   0  0  0  0  0  0  0  0  0  0  0  0
   35.7490   28.1760   39.4480 C   0  0  0  0  0  0  0  0  0  0  0  0
   36.8130   28.8900   39.9650 C   0  0  0  0  0  0  0  0  0  0  0  0
   37.0110   31.1580   37.5010 H   0  0  0  0  0  0  0  0  0  0  0  0
   35.1640   29.9020   36.6240 H   0  0  0  0  0  0  0  0  0  0  0  0
   34.3040   27.9880   37.8080 H   0  0  0  0  0  0  0  0  0  0  0  0
   35.3620   27.3140   39.9830 H   0  0  0  0  0  0  0  0  0  0  0  0
   40.7070   31.3600   39.9860 C   0  0  0  0  0  0  0  0  0  0  0  0
   39.7150   30.4760   39.5300 C   0  0  0  0  0  0  0  0  0  0  0  0
   38.3820   30.7990   39.6930 C   0  0  0  0  0  0  0  0  0  0  0  0
   38.0840   31.9860   40.3020 N   0  0  0  0  0  0  0  0  0  0  0  0
   39.0640   32.8230   40.7330 C   0  0  0  0  0  0  0  0  0  0  0  0
   40.3730   32.4980   40.5690 N   0  0  0  0  0  0  0  0  0  0  0  0
   38.7280   34.0590   41.3660 N   0  0  0  0  0  0  0  0  0  0  0  0
   41.7250   31.0360   39.8230 H   0  0  0  0  0  0  0  0  0  0  0  0
   39.9320   29.5330   39.0480 H   0  0  0  0  0  0  0  0  0  0  0  0
   38.5630   34.3240   42.3590 H   0  0  0  0  0  0  0  0  0  0  0  0
   38.6920   34.6450   40.5050 H   0  0  0  0  0  0  0  0  0  0  0  0
   38.8370   26.7940   39.6930 Cl  0  0  0  0  0  0  0  0  0  0  0  0
   38.4110   27.5320   41.2380 C   0  0  0  0  0  0  0  0  0  0  0  0
   37.4410   28.5110   41.2270 C   0  0  0  0  0  0  0  0  0  0  0  0
   37.1620   29.0460   42.4870 C   0  0  0  0  0  0  0  0  0  0  0  0
   36.3910   29.8250   42.5030 H   0  0  0  0  0  0  0  0  0  0  0  0
   37.8180   28.6080   43.6150 C   0  0  0  0  0  0  0  0  0  0  0  0
   37.5640   29.0580   44.5690 H   0  0  0  0  0  0  0  0  0  0  0  0
   38.7870   27.6110   43.5410 C   0  0  0  0  0  3  0  0  0  0  0  0
   39.1050   27.0430   42.3030 C   0  0  0  0  0  3  0  0  0  0  0  0
  1 13  1  0  0  0  0
  1  6  1  0  0  0  0
  2  1  2  0  0  0  0
  3  2  1  0  0  0  0
  3  4  2  0  0  0  0
  4  5  1  0  0  0  0
  5  6  2  0  0  0  0
  5 10  1  0  0  0  0
  6 24  1  0  0  0  0
  7  2  1  0  0  0  0
  8  3  1  0  0  0  0
  9  4  1  0  0  0  0
 11 16  1  0  0  0  0
 12 13  1  0  0  0  0
 12 11  2  0  0  0  0
 13 14  2  0  0  0  0
 14 15  1  0  0  0  0
 15 17  1  0  0  0  0
 16 15  2  0  0  0  0
 17 20  1  0  0  0  0
 18 11  1  0  0  0  0
 19 12  1  0  0  0  0
 21 17  1  0  0  0  0
 22 23  1  0  0  0  0
 23 30  1  0  0  0  0
 24 23  2  0  0  0  0
 24 25  1  0  0  0  0
 25 26  1  0  0  0  0
 25 27  2  0  0  0  0
 27 28  1  0  0  0  0
 29 27  1  0  0  0  0
 30 29  2  0  0  0  0
M  END
>  <minimizedAffinity>
-5.59224367

$$$$

 OpenBabel03252505353D

 30 32  0  0  0  0  0  0  0  0999 V2000
   38.5830   31.5220   40.7370 C   0  0  0  0  0  0  0  0  0  0  0  0
   39.4380   32.5590   41.0630 C   0  0  0  0  0  0  0  0  0  0  0  0
   39.2000   33.8780   40.6760 C   0  0  0  0  0  0  0  0  0  0  0  0
   38.0670   34.1610   39.9380 C   0  0  0  0  0  0  0  0  0  0  0  0
   37.2360   33.1190   39.6280 C   0  0  0  0  0  0  0  0  0  0  0  0
   37.4620   31.8100   40.0050 C   0  0  0  0  0  0  0  0  0  0  0  0
   40.3380   32.3570   41.6450 H   0  0  0  0  0  0  0  0  0  0  0  0
   39.9210   34.6240   40.9760 H   0  0  0  0  0  0  0  0  0  0  0  0
   37.9650   35.1870   39.6870 H   0  0  0  0  0  0  0  0  0  0  0  0
   36.3540   33.3710   39.0460 H   0  0  0  0  0  0  0  0  0  0  0  0
   39.0960   28.4090   42.7960 C   0  0  0  0  0  0  0  0  0  0  0  0
   38.7040   29.7160   42.4640 C   0  0  0  0  0  0  0  0  0  0  0  0
   38.9390   30.2000   41.1920 C   0  0  0  0  0  0  0  0  0  0  0  0
   39.5560   29.3690   40.2980 N   0  0  0  0  0  0  0  0  0  0  0  0
   39.9250   28.1090   40.6460 C   0  0  0  0  0  0  0  0  0  0  0  0
   39.6900   27.6400   41.8990 N   0  0  0  0  0  0  0  0  0  0  0  0
   40.5670   27.2580   39.6940 N   0  0  0  0  0  0  0  0  0  0  0  0
   38.8790   28.1040   43.8100 H   0  0  0  0  0  0  0  0  0  0  0  0
   38.2160   30.3870   43.1570 H   0  0  0  0  0  0  0  0  0  0  0  0
   41.5660   27.0960   39.4510 H   0  0  0  0  0  0  0  0  0  0  0  0
   39.7070   26.8280   39.2950 H   0  0  0  0  0  0  0  0  0  0  0  0
   37.7100   30.9330   37.2250 Cl  0  0  0  0  0  0  0  0  0  0  0  0
   36.5490   30.2390   38.3570 C   0  0  0  0  0  0  0  0  0  0  0  0
   36.5370   30.7420   39.6410 C   0  0  0  0  0  0  0  0  0  0  0  0
   35.5920   30.1400   40.4750 C   0  0  0  0  0  0  0  0  0  0  0  0
   35.5620   30.5260   41.5010 H   0  0  0  0  0  0  0  0  0  0  0  0
   34.7660   29.1380   40.0210 C   0  0  0  0  0  0  0  0  0  0  0  0
   34.0500   28.7040   40.7120 H   0  0  0  0  0  0  0  0  0  0  0  0
   34.8410   28.6860   38.7060 C   0  0  0  0  0  3  0  0  0  0  0  0
   35.7700   29.2550   37.8290 C   0  0  0  0  0  3  0  0  0  0  0  0
  1  2  1  0  0  0  0
  1 13  1  0  0  0  0
  2  7  1  0  0  0  0
  3  8  1  0  0  0  0
  3  2  2  0  0  0  0
  4  3  1  0  0  0  0
  5  4  2  0  0  0  0
  5  6  1  0  0  0  0
  6  1  2  0  0  0  0
  9  4  1  0  0  0  0
 10  5  1  0  0  0  0
 11 18  1  0  0  0  0
 12 11  1  0  0  0  0
 12 19  1  0  0  0  0
 13 12  2  0  0  0  0
 14 15  2  0  0  0  0
 14 13  1  0  0  0  0
 15 16  1  0  0  0  0
 16 11  2  0  0  0  0
 17 15  1  0  0  0  0
 20 17  1  0  0  0  0
 21 17  1  0  0  0  0
 22 23  1  0  0  0  0
 23 24  1  0  0  0  0
 24  6  1  0  0  0  0
 24 25  2  0  0  0  0
 25 26  1  0  0  0  0
 27 25  1  0  0  0  0
 27 28  1  0  0  0  0
 29 27  2  0  0  0  0
 30 23  2  0  0  0  0
 30 29  1  0  0  0  0
M  END
>  <minimizedAffinity>
-5.58823395

$$$$

 OpenBabel03252505353D

 30 32  0  0  0  0  0  0  0  0999 V2000
   36.5880   26.4610   39.4380 C   0  0  0  0  0  0  0  0  0  0  0  0
   35.8310   25.9290   38.4100 C   0  0  0  0  0  0  0  0  0  0  0  0
   35.4970   24.5760   38.3460 C   0  0  0  0  0  0  0  0  0  0  0  0
   35.9400   23.7330   39.3470 C   0  0  0  0  0  0  0  0  0  0  0  0
   36.6870   24.2820   40.3540 C   0  0  0  0  0  0  0  0  0  0  0  0
   37.0230   25.6200   40.4270 C   0  0  0  0  0  0  0  0  0  0  0  0
   35.4720   26.5770   37.6100 H   0  0  0  0  0  0  0  0  0  0  0  0
   34.9020   24.2480   37.5070 H   0  0  0  0  0  0  0  0  0  0  0  0
   35.6410   22.7230   39.2200 H   0  0  0  0  0  0  0  0  0  0  0  0
   37.0210   23.5960   41.1270 H   0  0  0  0  0  0  0  0  0  0  0  0
   37.9980   29.8540   38.6050 C   0  0  0  0  0  0  0  0  0  0  0  0
   37.8070   28.4630   38.5650 C   0  0  0  0  0  0  0  0  0  0  0  0
   36.8700   27.8750   39.3910 C   0  0  0  0  0  0  0  0  0  0  0  0
   36.1580   28.6900   40.2270 N   0  0  0  0  0  0  0  0  0  0  0  0
   36.3630   30.0320   40.2470 C   0  0  0  0  0  0  0  0  0  0  0  0
   37.2860   30.6040   39.4300 N   0  0  0  0  0  0  0  0  0  0  0  0
   35.6060   30.8630   41.1280 N   0  0  0  0  0  0  0  0  0  0  0  0
   38.7490   30.2380   37.9300 H   0  0  0  0  0  0  0  0  0  0  0  0
   38.3610   27.8040   37.9110 H   0  0  0  0  0  0  0  0  0  0  0  0
   35.7640   31.1890   42.1040 H   0  0  0  0  0  0  0  0  0  0  0  0
   34.8110   31.0570   40.4830 H   0  0  0  0  0  0  0  0  0  0  0  0
   39.9070   25.3690   40.0080 Cl  0  0  0  0  0  0  0  0  0  0  0  0
   39.2000   26.0840   41.4570 C   0  0  0  0  0  0  0  0  0  0  0  0
   37.8250   26.1440   41.5280 C   0  0  0  0  0  0  0  0  0  0  0  0
   37.3430   26.7260   42.7030 C   0  0  0  0  0  0  0  0  0  0  0  0
   36.2520   26.7820   42.7830 H   0  0  0  0  0  0  0  0  0  0  0  0
   38.1970   27.1860   43.6800 C   0  0  0  0  0  0  0  0  0  0  0  0
   37.7700   27.6300   44.5740 H   0  0  0  0  0  0  0  0  0  0  0  0
   39.5780   27.0870   43.5320 C   0  0  0  0  0  3  0  0  0  0  0  0
   40.1120   26.5140   42.3730 C   0  0  0  0  0  3  0  0  0  0  0  0
  1  6  1  0  0  0  0
  2  1  2  0  0  0  0
  3  2  1  0  0  0  0
  3  4  2  0  0  0  0
  4  5  1  0  0  0  0
  5  6  2  0  0  0  0
  5 10  1  0  0  0  0
  6 24  1  0  0  0  0
  7  2  1  0  0  0  0
  8  3  1  0  0  0  0
  9  4  1  0  0  0  0
 11 16  1  0  0  0  0
 12 11  2  0  0  0  0
 12 13  1  0  0  0  0
 13  1  1  0  0  0  0
 13 14  2  0  0  0  0
 14 15  1  0  0  0  0
 15 17  1  0  0  0  0
 16 15  2  0  0  0  0
 17 20  1  0  0  0  0
 18 11  1  0  0  0  0
 19 12  1  0  0  0  0
 21 17  1  0  0  0  0
 22 23  1  0  0  0  0
 23 24  2  0  0  0  0
 23 30  1  0  0  0  0
 24 25  1  0  0  0  0
 25 26  1  0  0  0  0
 25 27  2  0  0  0  0
 27 28  1  0  0  0  0
 29 27  1  0  0  0  0
 30 29  2  0  0  0  0
M  END
>  <minimizedAffinity>
-5.58480835

$$$$

 OpenBabel03252505353D

 30 32  0  0  0  0  0  0  0  0999 V2000
   37.5690   29.4610   41.6530 C   0  0  0  0  0  0  0  0  0  0  0  0
   37.6510   29.2140   43.0120 C   0  0  0  0  0  0  0  0  0  0  0  0
   37.3280   27.9770   43.5710 C   0  0  0  0  0  0  0  0  0  0  0  0
   36.9090   26.9590   42.7360 C   0  0  0  0  0  0  0  0  0  0  0  0
   36.8360   27.2270   41.3960 C   0  0  0  0  0  0  0  0  0  0  0  0
   37.1530   28.4480   40.8330 C   0  0  0  0  0  0  0  0  0  0  0  0
   37.9800   30.0040   43.6880 H   0  0  0  0  0  0  0  0  0  0  0  0
   37.4220   27.8730   44.6410 H   0  0  0  0  0  0  0  0  0  0  0  0
   36.6840   26.0540   43.2430 H   0  0  0  0  0  0  0  0  0  0  0  0
   36.5030   26.4080   40.7640 H   0  0  0  0  0  0  0  0  0  0  0  0
   37.5240   32.9230   40.1690 C   0  0  0  0  0  0  0  0  0  0  0  0
   37.0630   31.6590   40.5720 C   0  0  0  0  0  0  0  0  0  0  0  0
   37.9270   30.7820   41.1970 C   0  0  0  0  0  0  0  0  0  0  0  0
   39.2160   31.1920   41.3980 N   0  0  0  0  0  0  0  0  0  0  0  0
   39.6350   32.4200   40.9970 C   0  0  0  0  0  0  0  0  0  0  0  0
   38.7790   33.2780   40.3830 N   0  0  0  0  0  0  0  0  0  0  0  0
   40.9870   32.8270   41.2180 N   0  0  0  0  0  0  0  0  0  0  0  0
   36.7880   33.5510   39.6860 H   0  0  0  0  0  0  0  0  0  0  0  0
   36.0480   31.3180   40.4210 H   0  0  0  0  0  0  0  0  0  0  0  0
   41.8540   32.7430   40.6470 H   0  0  0  0  0  0  0  0  0  0  0  0
   40.8480   33.2510   42.1590 H   0  0  0  0  0  0  0  0  0  0  0  0
   39.6810   28.0890   39.4040 Cl  0  0  0  0  0  0  0  0  0  0  0  0
   38.1740   28.5360   38.6040 C   0  0  0  0  0  0  0  0  0  0  0  0
   37.0530   28.6710   39.3940 C   0  0  0  0  0  0  0  0  0  0  0  0
   35.9010   29.0240   38.6860 C   0  0  0  0  0  0  0  0  0  0  0  0
   34.9970   29.1400   39.2950 H   0  0  0  0  0  0  0  0  0  0  0  0
   35.9240   29.2120   37.3240 C   0  0  0  0  0  0  0  0  0  0  0  0
   35.0010   29.4850   36.8230 H   0  0  0  0  0  0  0  0  0  0  0  0
   37.1020   29.0560   36.5960 C   0  0  0  0  0  3  0  0  0  0  0  0
   38.2820   28.7030   37.2570 C   0  0  0  0  0  3  0  0  0  0  0  0
  1  2  1  0  0  0  0
  2  3  2  0  0  0  0
  2  7  1  0  0  0  0
  3  8  1  0  0  0  0
  4  9  1  0  0  0  0
  4  3  1  0  0  0  0
  5  4  2  0  0  0  0
  6  5  1  0  0  0  0
  6  1  2  0  0  0  0
 10  5  1  0  0  0  0
 11 16  2  0  0  0  0
 11 12  1  0  0  0  0
 12 13  2  0  0  0  0
 13 14  1  0  0  0  0
 13  1  1  0  0  0  0
 15 17  1  0  0  0  0
 15 14  2  0  0  0  0
 16 15  1  0  0  0  0
 17 21  1  0  0  0  0
 18 11  1  0  0  0  0
 19 12  1  0  0  0  0
 20 17  1  0  0  0  0
 23 24  1  0  0  0  0
 23 22  1  0  0  0  0
 24  6  1  0  0  0  0
 25 26  1  0  0  0  0
 25 24  2  0  0  0  0
 27 25  1  0  0  0  0
 28 27  1  0  0  0  0
 29 30  1  0  0  0  0
 29 27  2  0  0  0  0
 30 23  2  0  0  0  0
M  END
>  <minimizedAffinity>
-5.56309557

$$$$

 OpenBabel03252505353D

 30 32  0  0  0  0  0  0  0  0999 V2000
   39.1850   28.9620   41.6880 C   0  0  0  0  0  0  0  0  0  0  0  0
   40.2230   28.7130   42.5680 C   0  0  0  0  0  0  0  0  0  0  0  0
   40.2260   27.6200   43.4350 C   0  0  0  0  0  0  0  0  0  0  0  0
   39.1510   26.7530   43.4180 C   0  0  0  0  0  0  0  0  0  0  0  0
   38.1360   27.0190   42.5390 C   0  0  0  0  0  0  0  0  0  0  0  0
   38.1230   28.0980   41.6760 C   0  0  0  0  0  0  0  0  0  0  0  0
   41.0810   29.3850   42.5980 H   0  0  0  0  0  0  0  0  0  0  0  0
   41.0790   27.5040   44.0870 H   0  0  0  0  0  0  0  0  0  0  0  0
   39.2360   25.9520   44.1080 H   0  0  0  0  0  0  0  0  0  0  0  0
   37.3040   26.3210   42.5470 H   0  0  0  0  0  0  0  0  0  0  0  0
   39.7710   31.3030   38.7950 C   0  0  0  0  0  0  0  0  0  0  0  0
   39.7000   30.1030   39.5230 C   0  0  0  0  0  0  0  0  0  0  0  0
   39.2950   30.1260   40.8430 C   0  0  0  0  0  0  0  0  0  0  0  0
   38.9780   31.3370   41.3910 N   0  0  0  0  0  0  0  0  0  0  0  0
   39.0570   32.4820   40.6650 C   0  0  0  0  0  0  0  0  0  0  0  0
   39.4550   32.4520   39.3660 N   0  0  0  0  0  0  0  0  0  0  0  0
   38.7190   33.7370   41.2600 N   0  0  0  0  0  0  0  0  0  0  0  0
   40.0970   31.2030   37.7690 H   0  0  0  0  0  0  0  0  0  0  0  0
   39.9470   29.1370   39.1060 H   0  0  0  0  0  0  0  0  0  0  0  0
   39.2780   34.4500   41.7720 H   0  0  0  0  0  0  0  0  0  0  0  0
   37.7050   33.7300   41.0230 H   0  0  0  0  0  0  0  0  0  0  0  0
   38.4190   26.7560   39.0920 Cl  0  0  0  0  0  0  0  0  0  0  0  0
   37.0250   27.7530   39.5100 C   0  0  0  0  0  0  0  0  0  0  0  0
   37.0080   28.3280   40.7620 C   0  0  0  0  0  0  0  0  0  0  0  0
   35.8710   29.0990   41.0170 C   0  0  0  0  0  0  0  0  0  0  0  0
   35.8380   29.5680   42.0060 H   0  0  0  0  0  0  0  0  0  0  0  0
   34.8790   29.2480   40.0760 C   0  0  0  0  0  0  0  0  0  0  0  0
   34.0160   29.8580   40.3250 H   0  0  0  0  0  0  0  0  0  0  0  0
   34.9720   28.6330   38.8290 C   0  0  0  0  0  3  0  0  0  0  0  0
   36.0890   27.8500   38.5250 C   0  0  0  0  0  3  0  0  0  0  0  0
  1  2  1  0  0  0  0
  2  7  1  0  0  0  0
  2  3  2  0  0  0  0
  3  8  1  0  0  0  0
  4  3  1  0  0  0  0
  4  9  1  0  0  0  0
  5 10  1  0  0  0  0
  5  4  2  0  0  0  0
  6  1  2  0  0  0  0
  6  5  1  0  0  0  0
 11 16  2  0  0  0  0
 11 12  1  0  0  0  0
 12 13  2  0  0  0  0
 13 14  1  0  0  0  0
 13  1  1  0  0  0  0
 15 17  1  0  0  0  0
 15 14  2  0  0  0  0
 16 15  1  0  0  0  0
 17 20  1  0  0  0  0
 18 11  1  0  0  0  0
 19 12  1  0  0  0  0
 21 17  1  0  0  0  0
 22 23  1  0  0  0  0
 23 24  1  0  0  0  0
 24 25  2  0  0  0  0
 24  6  1  0  0  0  0
 25 26  1  0  0  0  0
 27 28  1  0  0  0  0
 27 25  1  0  0  0  0
 29 27  2  0  0  0  0
 30 29  1  0  0  0  0
 30 23  2  0  0  0  0
M  END
>  <minimizedAffinity>
-5.5093708

$$$$

 OpenBabel03252505353D

 30 32  0  0  0  0  0  0  0  0999 V2000
   37.6970   29.1700   41.4980 C   0  0  0  0  0  0  0  0  0  0  0  0
   36.5570   28.4570   41.8280 C   0  0  0  0  0  0  0  0  0  0  0  0
   36.5100   27.5760   42.9090 C   0  0  0  0  0  0  0  0  0  0  0  0
   37.6440   27.4060   43.6790 C   0  0  0  0  0  0  0  0  0  0  0  0
   38.7590   28.1220   43.3340 C   0  0  0  0  0  0  0  0  0  0  0  0
   38.8160   28.9960   42.2660 C   0  0  0  0  0  0  0  0  0  0  0  0
   35.6520   28.5770   41.2330 H   0  0  0  0  0  0  0  0  0  0  0  0
   35.5790   27.0620   43.0930 H   0  0  0  0  0  0  0  0  0  0  0  0
   37.5200   26.7190   44.4780 H   0  0  0  0  0  0  0  0  0  0  0  0
   39.6350   27.9680   43.9570 H   0  0  0  0  0  0  0  0  0  0  0  0
   37.7390   30.6030   38.0140 C   0  0  0  0  0  0  0  0  0  0  0  0
   37.8380   29.6580   39.0490 C   0  0  0  0  0  0  0  0  0  0  0  0
   37.6220   30.0480   40.3560 C   0  0  0  0  0  0  0  0  0  0  0  0
   37.3170   31.3610   40.5870 N   0  0  0  0  0  0  0  0  0  0  0  0
   37.2280   32.2540   39.5670 C   0  0  0  0  0  0  0  0  0  0  0  0
   37.4420   31.8630   38.2840 N   0  0  0  0  0  0  0  0  0  0  0  0
   36.9070   33.6200   39.8330 N   0  0  0  0  0  0  0  0  0  0  0  0
   37.9230   30.2210   37.0200 H   0  0  0  0  0  0  0  0  0  0  0  0
   38.0790   28.6170   38.8850 H   0  0  0  0  0  0  0  0  0  0  0  0
   37.4910   34.4570   40.0370 H   0  0  0  0  0  0  0  0  0  0  0  0
   35.8710   33.5320   39.7630 H   0  0  0  0  0  0  0  0  0  0  0  0
   40.5790   27.5970   40.3980 Cl  0  0  0  0  0  0  0  0  0  0  0  0
   40.9550   29.1790   41.0810 C   0  0  0  0  0  0  0  0  0  0  0  0
   40.0380   29.7300   41.9490 C   0  0  0  0  0  0  0  0  0  0  0  0
   40.4070   30.9820   42.4440 C   0  0  0  0  0  0  0  0  0  0  0  0
   39.6930   31.4390   43.1390 H   0  0  0  0  0  0  0  0  0  0  0  0
   41.5900   31.5810   42.0750 C   0  0  0  0  0  0  0  0  0  0  0  0
   41.8290   32.5550   42.4890 H   0  0  0  0  0  0  0  0  0  0  0  0
   42.4660   30.9560   41.1910 C   0  0  0  0  0  3  0  0  0  0  0  0
   42.1430   29.7010   40.6660 C   0  0  0  0  0  3  0  0  0  0  0  0
  1  2  2  0  0  0  0
  1  6  1  0  0  0  0
  2  3  1  0  0  0  0
  3  8  1  0  0  0  0
  3  4  2  0  0  0  0
  4  9  1  0  0  0  0
  5  4  1  0  0  0  0
  5 10  1  0  0  0  0
  6  5  2  0  0  0  0
  7  2  1  0  0  0  0
 11 16  2  0  0  0  0
 11 12  1  0  0  0  0
 12 13  2  0  0  0  0
 13 14  1  0  0  0  0
 13  1  1  0  0  0  0
 15 17  1  0  0  0  0
 15 14  2  0  0  0  0
 16 15  1  0  0  0  0
 17 20  1  0  0  0  0
 18 11  1  0  0  0  0
 19 12  1  0  0  0  0
 21 17  1  0  0  0  0
 22 23  1  0  0  0  0
 23 24  1  0  0  0  0
 24  6  1  0  0  0  0
 24 25  2  0  0  0  0
 25 26  1  0  0  0  0
 27 25  1  0  0  0  0
 27 28  1  0  0  0  0
 29 27  2  0  0  0  0
 30 23  2  0  0  0  0
 30 29  1  0  0  0  0
M  END
>  <minimizedAffinity>
-5.37593126

$$$$

 OpenBabel03252505353D

 30 32  0  0  0  0  0  0  0  0999 V2000
   36.3460   27.1490   39.1890 C   0  0  0  0  0  0  0  0  0  0  0  0
   35.6300   26.9630   38.0190 C   0  0  0  0  0  0  0  0  0  0  0  0
   34.5500   27.7710   37.6640 C   0  0  0  0  0  0  0  0  0  0  0  0
   34.1790   28.7970   38.5120 C   0  0  0  0  0  0  0  0  0  0  0  0
   34.9020   28.9620   39.6620 C   0  0  0  0  0  0  0  0  0  0  0  0
   35.9730   28.1680   40.0230 C   0  0  0  0  0  0  0  0  0  0  0  0
   35.9070   26.1590   37.3370 H   0  0  0  0  0  0  0  0  0  0  0  0
   34.0500   27.5530   36.7330 H   0  0  0  0  0  0  0  0  0  0  0  0
   33.3490   29.3600   38.1640 H   0  0  0  0  0  0  0  0  0  0  0  0
   34.5870   29.7760   40.3090 H   0  0  0  0  0  0  0  0  0  0  0  0
   39.7300   25.5000   39.3430 C   0  0  0  0  0  0  0  0  0  0  0  0
   38.7430   26.4510   39.0340 C   0  0  0  0  0  0  0  0  0  0  0  0
   37.4410   26.2460   39.4470 C   0  0  0  0  0  0  0  0  0  0  0  0
   37.1680   25.1060   40.1510 N   0  0  0  0  0  0  0  0  0  0  0  0
   38.1410   24.2030   40.4350 C   0  0  0  0  0  0  0  0  0  0  0  0
   39.4200   24.4110   40.0260 N   0  0  0  0  0  0  0  0  0  0  0  0
   37.8310   23.0190   41.1730 N   0  0  0  0  0  0  0  0  0  0  0  0
   40.7230   25.7300   38.9840 H   0  0  0  0  0  0  0  0  0  0  0  0
   38.9410   27.3570   38.4780 H   0  0  0  0  0  0  0  0  0  0  0  0
   37.5320   22.0650   40.8860 H   0  0  0  0  0  0  0  0  0  0  0  0
   37.9990   23.4060   42.1260 H   0  0  0  0  0  0  0  0  0  0  0  0
   38.1290   30.1310   39.7820 Cl  0  0  0  0  0  0  0  0  0  0  0  0
   37.7460   29.2960   41.2880 C   0  0  0  0  0  0  0  0  0  0  0  0
   36.7030   28.3950   41.2660 C   0  0  0  0  0  0  0  0  0  0  0  0
   36.4620   27.7780   42.4960 C   0  0  0  0  0  0  0  0  0  0  0  0
   35.6380   27.0560   42.5020 H   0  0  0  0  0  0  0  0  0  0  0  0
   37.2190   28.0700   43.6070 C   0  0  0  0  0  0  0  0  0  0  0  0
   36.9890   27.5620   44.5390 H   0  0  0  0  0  0  0  0  0  0  0  0
   38.2590   28.9940   43.5460 C   0  0  0  0  0  3  0  0  0  0  0  0
   38.5410   29.6400   42.3390 C   0  0  0  0  0  3  0  0  0  0  0  0
  1 13  1  0  0  0  0
  1  6  1  0  0  0  0
  2  1  2  0  0  0  0
  3  2  1  0  0  0  0
  3  4  2  0  0  0  0
  4  5  1  0  0  0  0
  5  6  2  0  0  0  0
  5 10  1  0  0  0  0
  6 24  1  0  0  0  0
  7  2  1  0  0  0  0
  8  3  1  0  0  0  0
  9  4  1  0  0  0  0
 11 16  1  0  0  0  0
 12 11  2  0  0  0  0
 12 13  1  0  0  0  0
 13 14  2  0  0  0  0
 14 15  1  0  0  0  0
 15 17  1  0  0  0  0
 16 15  2  0  0  0  0
 17 21  1  0  0  0  0
 18 11  1  0  0  0  0
 19 12  1  0  0  0  0
 20 17  1  0  0  0  0
 22 23  1  0  0  0  0
 23 30  1  0  0  0  0
 24 23  2  0  0  0  0
 24 25  1  0  0  0  0
 25 26  1  0  0  0  0
 25 27  2  0  0  0  0
 27 28  1  0  0  0  0
 29 27  1  0  0  0  0
 30 29  2  0  0  0  0
M  END
>  <minimizedAffinity>
-5.3722024

$$$$
