
 OpenBabel03242520563D

 41 43  0  0  0  0  0  0  0  0999 V2000
   51.1740   31.8720   51.2750 C   0  0  0  0  0  0  0  0  0  0  0  0
   51.3260   30.6240   51.9430 C   0  0  0  0  0  0  0  0  0  0  0  0
   50.5540   29.5430   51.5460 C   0  0  0  0  0  0  0  0  0  0  0  0
   49.7050   29.7540   50.5450 N   0  0  0  0  0  0  0  0  0  0  0  0
   49.5550   30.9230   49.9140 C   0  0  0  0  0  0  0  0  0  0  0  0
   50.2870   31.9900   50.2720 N   0  0  0  0  0  0  0  0  0  0  0  0
   51.7110   32.7760   51.4890 H   0  0  0  0  0  0  0  0  0  0  0  0
   54.3030   30.1310   51.3860 Cl  0  0  0  0  0  0  0  0  0  0  0  0
   53.7060   30.5580   52.9780 C   0  0  0  0  0  0  0  0  0  0  0  0
   52.3370   30.7320   52.9780 C   0  0  0  0  0  0  0  0  0  0  0  0
   51.7230   31.0800   54.1890 C   0  0  0  0  0  0  0  0  0  0  0  0
   50.6520   31.2580   54.3780 H   0  0  0  0  0  0  0  0  0  0  0  0
   52.4670   31.2460   55.3560 C   0  0  0  0  0  0  0  0  0  0  0  0
   52.0440   31.5140   56.3130 H   0  0  0  0  0  0  0  0  0  0  0  0
   53.8280   31.0660   55.3190 C   0  0  0  0  0  0  0  0  0  0  0  0
   54.4380   30.7230   54.1320 C   0  0  0  0  0  0  0  0  0  0  0  0
   48.5870   31.0650   48.8230 C   0  0  0  0  0  0  0  0  0  0  0  0
   47.6830   32.0170   48.8080 C   0  0  0  0  0  0  0  0  0  0  0  0
   46.7170   32.1250   47.6830 C   0  0  0  0  0  0  0  0  0  0  0  0
   46.5090   31.1020   47.3790 H   0  0  0  0  0  0  0  0  0  0  0  0
   45.7530   32.5050   48.1310 H   0  0  0  0  0  0  0  0  0  0  0  0
   46.6400   32.7360   45.4260 C   0  0  0  0  0  0  0  0  0  0  0  0
   45.8910   31.8370   44.9630 O   0  0  0  0  0  0  0  0  0  0  0  0
   47.1220   33.0340   46.6990 N   0  0  0  0  0  0  0  0  0  0  0  0
   47.7160   33.8660   46.8190 H   0  0  0  0  0  0  0  0  0  0  0  0
   44.9260   35.0990   44.5490 Cl  0  0  0  0  0  0  0  0  0  0  0  0
   46.2970   34.5490   43.6240 C   0  0  0  0  0  0  0  0  0  0  0  0
   46.9260   33.4820   44.1940 C   0  0  0  0  0  0  0  0  0  0  0  0
   48.0510   32.9110   43.5790 C   0  0  0  0  0  0  0  0  0  0  0  0
   48.5270   33.4420   42.3780 C   0  0  0  0  0  0  0  0  0  0  0  0
   47.8760   34.5160   41.8230 C   0  0  0  0  0  0  0  0  0  0  0  0
   48.4140   35.2280   40.3220 Cl  0  0  0  0  0  0  0  0  0  0  0  0
   46.7660   35.0650   42.4460 C   0  0  0  0  0  0  0  0  0  0  0  0
   48.6380   32.0710   43.9230 H   0  0  0  0  0  0  0  0  0  0  0  0
   49.3870   33.0460   41.8590 H   0  0  0  0  0  0  0  0  0  0  0  0
   46.2060   35.9150   42.0610 H   0  0  0  0  0  0  0  0  0  0  0  0
   50.6650   28.3420   52.1520 O   0  0  0  0  0  0  0  0  0  0  0  0
   51.6220   27.4150   51.6080 C   0  0  0  0  0  0  0  0  0  0  0  0
   52.0900   27.9050   50.3980 F   0  0  0  0  0  0  0  0  0  0  0  0
   52.6820   27.3930   52.5180 F   0  0  0  0  0  0  0  0  0  0  0  0
   51.1160   26.1220   51.4900 F   0  0  0  0  0  0  0  0  0  0  0  0
  1  7  1  0  0  0  0
  1  2  1  0  0  0  0
  2 10  1  0  0  0  0
  3  2  2  0  0  0  0
  3 37  1  0  0  0  0
  4  3  1  0  0  0  0
  5  6  1  0  0  0  0
  5  4  2  0  0  0  0
  6  1  2  0  0  0  0
  8  9  1  0  0  0  0
  9 16  1  0  0  0  0
 10  9  2  0  0  0  0
 10 11  1  0  0  0  0
 11 12  1  0  0  0  0
 11 13  2  0  0  0  0
 13 14  1  0  0  0  0
 15 13  1  0  0  0  0
 16 15  2  0  0  0  0
 17  5  1  0  0  0  0
 18 17  2  0  0  0  0
 19 21  1  0  0  0  0
 19 18  1  0  0  0  0
 20 19  1  0  0  0  0
 22 24  1  0  0  0  0
 23 22  2  0  0  0  0
 24 25  1  0  0  0  0
 24 19  1  0  0  0  0
 27 28  1  0  0  0  0
 27 26  1  0  0  0  0
 28 22  1  0  0  0  0
 29 34  1  0  0  0  0
 29 28  2  0  0  0  0
 30 29  1  0  0  0  0
 31 30  2  0  0  0  0
 31 33  1  0  0  0  0
 32 31  1  0  0  0  0
 33 27  2  0  0  0  0
 35 30  1  0  0  0  0
 36 33  1  0  0  0  0
 38 37  1  0  0  0  0
 38 40  1  0  0  0  0
 39 38  1  0  0  0  0
 41 38  1  0  0  0  0
M  END
>  <minimizedAffinity>
-7.47006321

>  <minimizedRMSD>
0.390442491

$$$$
