
 OpenBabel03252509113D

 31 34  0  0  0  0  0  0  0  0999 V2000
   41.7860   28.4270   40.6450 C   0  0  0  0  0  0  0  0  0  0  0  0
   42.6300   29.5260   40.6960 C   0  0  0  0  0  0  0  0  0  0  0  0
   43.1820   29.9860   41.8750 C   0  0  0  0  0  0  0  0  0  0  0  0
   42.8890   29.3360   43.0710 C   0  0  0  0  0  0  0  0  0  0  0  0
   43.2360   29.4980   44.3780 N   0  0  0  0  0  0  0  0  0  0  0  0
   42.6220   28.5300   45.1080 C   0  0  0  0  0  0  0  0  0  0  0  0
   41.9020   27.7790   44.2400 N   0  0  0  0  0  0  0  0  0  0  0  0
   42.0400   28.2390   42.9840 C   0  0  0  0  0  0  0  0  0  0  0  0
   41.4790   27.7600   41.8310 C   0  0  0  0  0  0  0  0  0  0  0  0
   41.3590   28.0700   39.7350 H   0  0  0  0  0  0  0  0  0  0  0  0
   43.8660   30.2560   44.6880 H   0  0  0  0  0  0  0  0  0  0  0  0
   42.7720   28.4900   46.1700 H   0  0  0  0  0  0  0  0  0  0  0  0
   40.8250   26.8980   41.8470 H   0  0  0  0  0  0  0  0  0  0  0  0
   42.4520   31.8630   37.8660 C   0  0  0  0  0  0  0  0  0  0  0  0
   43.5870   31.5350   37.1280 C   0  0  0  0  0  0  0  0  0  0  0  0
   44.4240   30.5030   37.6020 C   0  0  0  0  0  0  0  0  0  0  0  0
   44.0470   29.9020   38.7680 N   0  0  0  0  0  0  0  0  0  0  0  0
   42.9530   30.2270   39.4650 C   0  0  0  0  0  0  0  0  0  0  0  0
   42.1690   31.2040   39.0060 N   0  0  0  0  0  0  0  0  0  0  0  0
   41.8590   32.6630   37.4400 H   0  0  0  0  0  0  0  0  0  0  0  0
   43.9410   31.9700   36.2040 H   0  0  0  0  0  0  0  0  0  0  0  0
   45.3210   30.2010   37.0750 H   0  0  0  0  0  0  0  0  0  0  0  0
   46.1800   29.4350   41.6760 Cl  0  0  0  0  0  0  0  0  0  0  0  0
   45.4630   31.0310   41.9240 C   0  0  0  0  0  0  0  0  0  0  0  0
   44.0680   31.1230   41.9930 C   0  0  0  0  0  0  0  0  0  0  0  0
   43.5240   32.3800   42.1880 C   0  0  0  0  0  0  0  0  0  0  0  0
   42.4400   32.5540   42.2570 H   0  0  0  0  0  0  0  0  0  0  0  0
   44.3180   33.5040   42.3110 C   0  0  0  0  0  0  0  0  0  0  0  0
   43.8780   34.4990   42.4660 H   0  0  0  0  0  0  0  0  0  0  0  0
   45.7070   33.4100   42.2410 C   0  0  0  0  0  3  0  0  0  0  0  0
   46.2600   32.1430   42.0450 C   0  0  0  0  0  3  0  0  0  0  0  0
  1  2  2  0  0  0  0
  1  9  1  0  0  0  0
  2  3  1  0  0  0  0
  3 25  1  0  0  0  0
  3  4  2  0  0  0  0
  4  5  1  0  0  0  0
  5 11  1  0  0  0  0
  5  6  1  0  0  0  0
  6 12  1  0  0  0  0
  7  6  2  0  0  0  0
  8  4  1  0  0  0  0
  8  7  1  0  0  0  0
  9 13  1  0  0  0  0
  9  8  2  0  0  0  0
 10  1  1  0  0  0  0
 14 19  1  0  0  0  0
 15 16  1  0  0  0  0
 15 14  2  0  0  0  0
 16 17  2  0  0  0  0
 17 18  1  0  0  0  0
 18  2  1  0  0  0  0
 19 18  2  0  0  0  0
 20 14  1  0  0  0  0
 21 15  1  0  0  0  0
 22 16  1  0  0  0  0
 23 24  1  0  0  0  0
 24 25  2  0  0  0  0
 24 31  1  0  0  0  0
 25 26  1  0  0  0  0
 26 27  1  0  0  0  0
 26 28  2  0  0  0  0
 28 29  1  0  0  0  0
 30 28  1  0  0  0  0
 31 30  2  0  0  0  0
M  END
>  <minimizedAffinity>
-2.37497735

>  <minimizedRMSD>
6.56496429

$$$$
