
 OpenBabel03252501253D

 35 38  0  0  0  0  0  0  0  0999 V2000
   45.5670   32.1060   40.1430 F   0  0  0  0  0  0  0  0  0  0  0  0
   44.6970   33.1400   40.1540 C   0  0  0  0  0  0  0  0  0  0  0  0
   44.7090   34.0180   41.2070 C   0  0  0  0  0  0  0  0  0  0  0  0
   43.8210   35.0810   41.2280 C   0  0  0  0  0  0  0  0  0  0  0  0
   42.9110   35.2920   40.2120 C   0  0  0  0  0  0  0  0  0  0  0  0
   42.9280   34.3970   39.1770 C   0  0  0  0  0  0  0  0  0  0  0  0
   43.7980   33.3290   39.1280 C   0  0  0  0  0  0  0  0  0  0  0  0
   43.8050   35.7930   42.0460 H   0  0  0  0  0  0  0  0  0  0  0  0
   42.2220   36.1120   40.2220 H   0  0  0  0  0  0  0  0  0  0  0  0
   42.2280   34.5200   38.3510 H   0  0  0  0  0  0  0  0  0  0  0  0
   46.1360   33.4120   37.1910 Cl  0  0  0  0  0  0  0  0  0  0  0  0
   44.7500   32.3640   37.0180 C   0  0  0  0  0  0  0  0  0  0  0  0
   43.7420   32.4250   37.9820 C   0  0  0  0  0  0  0  0  0  0  0  0
   42.7010   31.5640   37.7560 C   0  0  0  0  0  0  0  0  0  0  0  0
   41.8800   31.5640   38.4740 H   0  0  0  0  0  0  0  0  0  0  0  0
   42.5640   30.6870   36.7160 C   0  0  0  0  0  0  0  0  0  0  0  0
   41.7010   30.0420   36.6200 H   0  0  0  0  0  0  0  0  0  0  0  0
   43.6080   30.6730   35.7860 C   0  0  0  0  0  0  0  0  0  0  0  0
   44.6980   31.5090   35.9350 C   0  0  0  0  0  0  0  0  0  0  0  0
   46.2040   33.3250   44.3230 C   0  0  0  0  0  0  0  0  0  0  0  0
   47.2110   34.0400   43.7090 C   0  0  0  0  0  0  0  0  0  0  0  0
   46.8100   34.4050   42.4590 C   0  0  0  0  0  0  0  0  0  0  0  0
   45.5770   33.9260   42.3060 N   0  0  0  0  0  0  0  0  0  0  0  0
   45.2130   33.2760   43.4260 N   0  0  0  0  0  0  0  0  0  0  0  0
   48.1970   34.3130   44.0830 H   0  0  0  0  0  0  0  0  0  0  0  0
   47.3060   34.9690   41.6690 H   0  0  0  0  0  0  0  0  0  0  0  0
   47.1890   31.2810   47.1880 C   0  0  0  0  0  0  0  0  0  0  0  0
   46.3360   31.7300   48.2070 C   0  0  0  0  0  0  0  0  0  0  0  0
   45.4210   32.7440   47.8880 C   0  0  0  0  0  0  0  0  0  0  0  0
   45.4330   33.2080   46.6260 N   0  0  0  0  0  0  0  0  0  0  0  0
   46.2580   32.7680   45.6590 C   0  0  0  0  0  0  0  0  0  0  0  0
   47.1620   31.7850   45.9250 N   0  0  0  0  0  0  0  0  0  0  0  0
   47.9320   30.4950   47.3510 H   0  0  0  0  0  0  0  0  0  0  0  0
   46.3960   31.3050   49.1780 H   0  0  0  0  0  0  0  0  0  0  0  0
   44.7420   33.1260   48.6310 H   0  0  0  0  0  0  0  0  0  0  0  0
  1  2  1  0  0  0  0
  2  3  1  0  0  0  0
  3  4  2  0  0  0  0
  3 23  1  0  0  0  0
  4  8  1  0  0  0  0
  5  9  1  0  0  0  0
  5  4  1  0  0  0  0
  6  5  2  0  0  0  0
  7  6  1  0  0  0  0
  7  2  2  0  0  0  0
 10  6  1  0  0  0  0
 12 11  1  0  0  0  0
 12 13  1  0  0  0  0
 13  7  1  0  0  0  0
 14 13  2  0  0  0  0
 14 15  1  0  0  0  0
 16 14  1  0  0  0  0
 17 16  1  0  0  0  0
 18 19  1  0  0  0  0
 18 16  2  0  0  0  0
 19 12  2  0  0  0  0
 20 31  1  0  0  0  0
 21 25  1  0  0  0  0
 21 20  1  0  0  0  0
 22 21  2  0  0  0  0
 23 22  1  0  0  0  0
 23 24  1  0  0  0  0
 24 20  2  0  0  0  0
 26 22  1  0  0  0  0
 27 33  1  0  0  0  0
 27 28  1  0  0  0  0
 28 34  1  0  0  0  0
 29 28  2  0  0  0  0
 29 35  1  0  0  0  0
 30 29  1  0  0  0  0
 31 32  1  0  0  0  0
 31 30  2  0  0  0  0
 32 27  2  0  0  0  0
M  END
>  <minimizedAffinity>
-5.22601318

>  <minimizedRMSD>
0.896201849

$$$$
