
 OpenBabel03252509163D

 25 27  0  0  0  0  0  0  0  0999 V2000
   46.0480   32.9390   46.0090 C   0  0  0  0  0  0  0  0  0  0  0  0
   45.6450   32.6950   47.3500 C   0  0  0  0  0  0  0  0  0  0  0  0
   46.1200   31.5950   47.9730 C   0  0  0  0  0  0  0  0  0  0  0  0
   46.9940   30.7130   47.3050 C   0  0  0  0  0  0  0  0  0  0  0  0
   47.1240   31.5360   45.6890 S   0  0  0  0  0  0  0  0  0  0  0  0
   44.9620   33.4210   47.8160 H   0  0  0  0  0  0  0  0  0  0  0  0
   45.8210   31.4020   48.9880 H   0  0  0  0  0  0  0  0  0  0  0  0
   44.4550   36.0390   44.7230 C   0  0  0  0  0  0  0  0  0  0  0  0
   45.0390   36.0860   43.4310 C   0  0  0  0  0  0  0  0  0  0  0  0
   45.9380   35.0610   43.0770 C   0  0  0  0  0  0  0  0  0  0  0  0
   46.1990   34.0800   43.9960 N   0  0  0  0  0  0  0  0  0  0  0  0
   45.6140   34.0840   45.2150 C   0  0  0  0  0  0  0  0  0  0  0  0
   44.7440   35.0610   45.5770 N   0  0  0  0  0  0  0  0  0  0  0  0
   43.7620   36.8120   45.0190 H   0  0  0  0  0  0  0  0  0  0  0  0
   44.7960   36.8920   42.7340 H   0  0  0  0  0  0  0  0  0  0  0  0
   46.4030   35.0580   42.1060 H   0  0  0  0  0  0  0  0  0  0  0  0
   45.7640   28.0170   46.5010 Cl  0  0  0  0  0  0  0  0  0  0  0  0
   47.2830   28.2440   47.3280 C   0  0  0  0  0  0  0  0  0  0  0  0
   47.6540   29.5420   47.5970 C   0  0  0  0  0  0  0  0  0  0  0  0
   48.8870   29.5880   48.2600 C   0  0  0  0  0  0  0  0  0  0  0  0
   49.3520   30.5350   48.5610 H   0  0  0  0  0  0  0  0  0  0  0  0
   49.6340   28.4860   48.6030 C   0  0  0  0  0  0  0  0  0  0  0  0
   50.5800   28.5660   49.1140 H   0  0  0  0  0  0  0  0  0  0  0  0
   49.1520   27.2400   48.2770 C   0  0  0  0  0  3  0  0  0  0  0  0
   47.9500   27.0770   47.6240 C   0  0  0  0  0  3  0  0  0  0  0  0
  1  2  2  0  0  0  0
  2  6  1  0  0  0  0
  2  3  1  0  0  0  0
  3  7  1  0  0  0  0
  4 19  1  0  0  0  0
  4  3  2  0  0  0  0
  5  1  1  0  0  0  0
  5  4  1  0  0  0  0
  8 14  1  0  0  0  0
  8 13  1  0  0  0  0
  9  8  2  0  0  0  0
 10  9  1  0  0  0  0
 10 11  2  0  0  0  0
 11 12  1  0  0  0  0
 12 13  2  0  0  0  0
 12  1  1  0  0  0  0
 15  9  1  0  0  0  0
 16 10  1  0  0  0  0
 17 18  1  0  0  0  0
 18 19  2  0  0  0  0
 18 25  1  0  0  0  0
 19 20  1  0  0  0  0
 20 21  1  0  0  0  0
 20 22  2  0  0  0  0
 22 23  1  0  0  0  0
 24 22  1  0  0  0  0
 25 24  2  0  0  0  0
M  END
>  <minimizedAffinity>
-4.76702404

>  <minimizedRMSD>
1.34648383

$$$$
