
 OpenBabel03242512243D

 20 21  0  0  0  0  0  0  0  0999 V2000
   44.9860   35.0760   45.2180 C   0  0  0  0  0  0  0  0  0  0  0  0
   44.4360   35.9260   44.2290 C   0  0  0  0  0  0  0  0  0  0  0  0
   44.9700   35.8300   42.9160 C   0  0  0  0  0  0  0  0  0  0  0  0
   45.9660   34.9360   42.6990 N   0  0  0  0  0  0  0  0  0  0  0  0
   46.4570   34.1470   43.6780 C   0  0  0  0  0  0  0  0  0  0  0  0
   45.9730   34.2170   44.9170 N   0  0  0  0  0  0  0  0  0  0  0  0
   44.4670   35.1520   46.5510 N   0  0  0  0  0  0  0  0  0  0  0  0
   43.6560   36.6170   44.4300 H   0  0  0  0  0  0  0  0  0  0  0  0
   44.6010   36.4440   42.1210 H   0  0  0  0  0  0  0  0  0  0  0  0
   43.4480   34.8660   46.4950 H   0  0  0  0  0  0  0  0  0  0  0  0
   44.9520   35.4280   47.4540 H   0  0  0  0  0  0  0  0  0  0  0  0
   48.8270   35.3880   42.2430 Cl  0  0  0  0  0  0  0  0  0  0  0  0
   48.6500   33.7120   42.6730 C   0  0  0  0  0  0  0  0  0  0  0  0
   47.5230   33.2240   43.3340 C   0  0  0  0  0  0  0  0  0  0  0  0
   47.4010   31.8790   43.6690 C   0  0  0  0  0  0  0  0  0  0  0  0
   46.5290   31.5360   44.1740 H   0  0  0  0  0  0  0  0  0  0  0  0
   48.4530   31.0620   43.3110 C   0  0  0  0  0  0  0  0  0  0  0  0
   48.3070   30.0120   43.5980 H   0  0  0  0  0  0  0  0  0  0  0  0
   49.5920   31.5040   42.6530 C   0  0  0  0  0  0  0  0  0  0  0  0
   49.6770   32.8530   42.3360 C   0  0  0  0  0  0  0  0  0  0  0  0
  1  7  1  0  0  0  0
  2  8  1  0  0  0  0
  2  1  2  0  0  0  0
  3  2  1  0  0  0  0
  4  3  2  0  0  0  0
  4  5  1  0  0  0  0
  5  6  2  0  0  0  0
  6  1  1  0  0  0  0
  7 11  1  0  0  0  0
  9  3  1  0  0  0  0
 10  7  1  0  0  0  0
 12 13  1  0  0  0  0
 13 14  1  0  0  0  0
 14 15  2  0  0  0  0
 14  5  1  0  0  0  0
 15 16  1  0  0  0  0
 17 18  1  0  0  0  0
 17 15  1  0  0  0  0
 19 17  2  0  0  0  0
 20 19  1  0  0  0  0
 20 13  2  0  0  0  0
M  END
>  <minimizedAffinity>
-4.90506983

>  <minimizedRMSD>
4.99388885

$$$$
