
 OpenBabel03252507193D

 44 47  0  0  1  0  0  0  0  0999 V2000
   46.8680   33.3190   43.3960 C   0  0  0  0  0  0  0  0  0  0  0  0
   47.9970   33.0240   43.8920 O   0  0  0  0  0  0  0  0  0  0  0  0
   46.4210   32.9010   42.0990 N   0  0  0  0  0  0  0  0  0  0  0  0
   45.1300   32.3710   41.6700 C   0  0  0  0  0  0  0  0  0  0  0  0
   44.6260   33.1820   40.4670 C   0  0  0  0  0  0  0  0  0  0  0  0
   45.5660   33.0030   39.3070 C   0  0  0  0  0  0  0  0  0  0  0  0
   46.8590   32.3980   39.7810 C   0  0  0  0  0  0  0  0  0  0  0  0
   47.3830   33.0160   41.0350 C   0  0  2  0  0  0  0  0  0  0  0  0
   45.1140   31.2990   41.5030 H   0  0  0  0  0  0  0  0  0  0  0  0
   44.4280   32.6330   42.5050 H   0  0  0  0  0  0  0  0  0  0  0  0
   43.5800   32.9770   40.2640 H   0  0  0  0  0  0  0  0  0  0  0  0
   44.6990   34.2390   40.8120 H   0  0  0  0  0  0  0  0  0  0  0  0
   45.1150   32.2450   38.6060 H   0  0  0  0  0  0  0  0  0  0  0  0
   45.6960   33.9290   38.7140 H   0  0  0  0  0  0  0  0  0  0  0  0
   47.6090   32.5100   38.9740 H   0  0  0  0  0  0  0  0  0  0  0  0
   46.6440   31.3080   39.9850 H   0  0  0  0  0  0  0  0  0  0  0  0
   47.5300   34.0990   40.8340 H   0  0  0  0  0  0  0  0  0  0  0  0
   49.4630   35.0080   41.6550 Cl  0  0  0  0  0  0  0  0  0  0  0  0
   49.7740   33.2630   41.6400 C   0  0  0  0  0  0  0  0  0  0  0  0
   48.7040   32.4140   41.3350 C   0  0  0  0  0  0  0  0  0  0  0  0
   49.0280   31.0820   41.3460 C   0  0  0  0  0  0  0  0  0  0  0  0
   48.2160   30.3960   41.1100 H   0  0  0  0  0  0  0  0  0  0  0  0
   50.2990   30.6310   41.6330 C   0  0  0  0  0  0  0  0  0  0  0  0
   50.5220   29.5740   41.6340 H   0  0  0  0  0  0  0  0  0  0  0  0
   51.3240   31.5040   41.9290 C   0  0  0  0  0  0  0  0  0  0  0  0
   51.0600   32.8580   41.9340 C   0  0  0  0  0  0  0  0  0  0  0  0
   45.4920   35.3310   43.6370 C   0  0  0  0  0  0  0  0  0  0  0  0
   45.9850   34.1320   44.2000 C   0  0  0  0  0  0  0  0  0  0  0  0
   45.6130   33.7840   45.4810 C   0  0  0  0  0  0  0  0  0  0  0  0
   44.7840   34.6050   46.1580 N   0  0  0  0  0  0  0  0  0  0  0  0
   44.3020   35.7600   45.6300 C   0  0  0  0  0  0  0  0  0  0  0  0
   44.6680   36.1000   44.3770 N   0  0  0  0  0  0  0  0  0  0  0  0
   45.7760   35.6120   42.6400 H   0  0  0  0  0  0  0  0  0  0  0  0
   43.6430   36.3980   46.1920 H   0  0  0  0  0  0  0  0  0  0  0  0
   46.1320   32.5550   46.0440 C   0  0  0  0  0  0  0  0  0  0  0  0
   45.6970   31.3500   45.5800 C   0  0  0  0  0  0  0  0  0  0  0  0
   46.2030   30.1860   46.1270 C   0  0  0  0  0  0  0  0  0  0  0  0
   47.1420   30.1870   47.1360 C   0  0  0  0  0  0  0  0  0  0  0  0
   47.5550   31.4420   47.5760 C   0  0  0  0  0  0  0  0  0  0  0  0
   47.0400   32.5450   47.0190 N   0  0  0  0  0  0  0  0  0  0  0  0
   44.9760   31.1760   44.8130 H   0  0  0  0  0  0  0  0  0  0  0  0
   45.8980   29.1920   45.8030 H   0  0  0  0  0  0  0  0  0  0  0  0
   47.5460   29.2840   47.5750 H   0  0  0  0  0  0  0  0  0  0  0  0
   48.2890   31.5560   48.3650 H   0  0  0  0  0  0  0  0  0  0  0  0
  1  2  2  0  0  0  0
  1 28  1  0  0  0  0
  3  1  1  0  0  0  0
  4  3  1  0  0  0  0
  4 10  1  0  0  0  0
  5 12  1  0  0  0  0
  5  4  1  0  0  0  0
  6  7  1  0  0  0  0
  6  5  1  0  0  0  0
  7 16  1  0  0  0  0
  7  8  1  0  0  0  0
  8 17  1  6  0  0  0
  8 20  1  0  0  0  0
  8  3  1  0  0  0  0
  9  4  1  0  0  0  0
 11  5  1  0  0  0  0
 13  6  1  0  0  0  0
 14  6  1  0  0  0  0
 15  7  1  0  0  0  0
 19 18  1  0  0  0  0
 19 26  1  0  0  0  0
 20 21  1  0  0  0  0
 20 19  2  0  0  0  0
 21 23  2  0  0  0  0
 22 21  1  0  0  0  0
 23 24  1  0  0  0  0
 23 25  1  0  0  0  0
 25 26  2  0  0  0  0
 27 28  2  0  0  0  0
 27 32  1  0  0  0  0
 28 29  1  0  0  0  0
 29 35  1  0  0  0  0
 29 30  2  0  0  0  0
 31 30  1  0  0  0  0
 31 34  1  0  0  0  0
 32 31  2  0  0  0  0
 33 27  1  0  0  0  0
 35 40  1  0  0  0  0
 36 35  2  0  0  0  0
 36 37  1  0  0  0  0
 37 38  2  0  0  0  0
 38 43  1  0  0  0  0
 38 39  1  0  0  0  0
 39 44  1  0  0  0  0
 40 39  2  0  0  0  0
 41 36  1  0  0  0  0
 42 37  1  0  0  0  0
M  END
>  <minimizedAffinity>
-5.55187416

>  <minimizedRMSD>
1.03822982

$$$$
