
 OpenBabel03252501413D

 45 48  0  0  0  0  0  0  0  0999 V2000
   44.2010   34.4700   40.7990 C   0  0  0  0  0  0  0  0  0  0  0  0
   44.4250   33.2960   41.2790 O   0  0  0  0  0  0  0  0  0  0  0  0
   44.7830   35.5080   41.5990 N   0  0  0  0  0  0  0  0  0  0  0  0
   44.7390   36.5000   41.3690 H   0  0  0  0  0  0  0  0  0  0  0  0
   45.4230   34.9010   42.7520 C   0  0  0  0  0  0  0  0  0  0  0  0
   44.9650   34.9190   44.0320 C   0  0  0  0  0  0  0  0  0  0  0  0
   45.7150   34.2850   44.9890 C   0  0  0  0  0  0  0  0  0  0  0  0
   46.8560   33.6850   44.6010 N   0  0  0  0  0  0  0  0  0  0  0  0
   47.2940   33.6790   43.3210 C   0  0  0  0  0  0  0  0  0  0  0  0
   46.5630   34.3010   42.3680 N   0  0  0  0  0  0  0  0  0  0  0  0
   45.3590   34.2950   46.0100 H   0  0  0  0  0  0  0  0  0  0  0  0
   49.5910   35.4850   42.4550 Cl  0  0  0  0  0  0  0  0  0  0  0  0
   49.6270   33.7540   42.5760 C   0  0  0  0  0  0  0  0  0  0  0  0
   48.5570   32.9980   42.9720 C   0  0  0  0  0  0  0  0  0  0  0  0
   48.6170   31.6230   43.0580 C   0  0  0  0  0  0  0  0  0  0  0  0
   47.7300   31.0790   43.3810 H   0  0  0  0  0  0  0  0  0  0  0  0
   49.7580   30.9370   42.7490 C   0  0  0  0  0  0  0  0  0  0  0  0
   49.7410   29.8600   42.8360 H   0  0  0  0  0  0  0  0  0  0  0  0
   50.8570   31.6630   42.3460 C   0  0  0  0  0  0  0  0  0  0  0  0
   50.7930   33.0530   42.2600 C   0  0  0  0  0  0  0  0  0  0  0  0
   43.7460   35.5950   44.2720 N   0  0  0  0  0  0  0  0  0  0  0  0
   42.9580   35.1080   44.7590 H   0  0  0  0  0  0  0  0  0  0  0  0
   43.4500   36.5710   44.0370 H   0  0  0  0  0  0  0  0  0  0  0  0
   43.4890   34.7940   39.6460 O   0  0  0  0  0  0  0  0  0  0  0  0
   42.5760   32.1510   38.6340 Cl  0  0  0  0  0  0  0  0  0  0  0  0
   41.5700   33.4530   39.2300 C   0  0  0  0  0  0  0  0  0  0  0  0
   42.0890   34.6620   39.6850 C   0  0  0  0  0  0  0  0  0  0  0  0
   41.2620   35.6490   40.1390 C   0  0  0  0  0  0  0  0  0  0  0  0
   39.8870   35.5120   40.1750 C   0  0  0  0  0  0  0  0  0  0  0  0
   39.3340   34.3000   39.7200 C   0  0  0  0  0  0  0  0  0  0  0  0
   37.5960   34.0410   39.7280 Cl  0  0  0  0  0  0  0  0  0  0  0  0
   40.2050   33.3270   39.2680 C   0  0  0  0  0  0  0  0  0  0  0  0
   41.7460   36.5560   40.4760 H   0  0  0  0  0  0  0  0  0  0  0  0
   39.2400   36.3000   40.5370 H   0  0  0  0  0  0  0  0  0  0  0  0
   39.8430   31.2630   41.0070 F   0  0  0  0  0  0  0  0  0  0  0  0
   39.4720   31.0350   39.7000 C   0  0  0  0  0  0  0  0  0  0  0  0
   39.6430   32.0650   38.7940 C   0  0  0  0  0  0  0  0  0  0  0  0
   39.2570   31.7980   37.4760 C   0  0  0  0  0  0  0  0  0  0  0  0
   38.7360   30.5550   37.1580 C   0  0  0  0  0  0  0  0  0  0  0  0
   38.5900   29.5600   38.1240 C   0  0  0  0  0  0  0  0  0  0  0  0
   38.9640   29.7890   39.4450 C   0  0  0  0  0  0  0  0  0  0  0  0
   39.3910   32.6040   36.7660 H   0  0  0  0  0  0  0  0  0  0  0  0
   38.4510   30.3930   36.1280 H   0  0  0  0  0  0  0  0  0  0  0  0
   38.1820   28.5970   37.8570 H   0  0  0  0  0  0  0  0  0  0  0  0
   38.8670   29.0450   40.2230 H   0  0  0  0  0  0  0  0  0  0  0  0
  1  2  2  0  0  0  0
  1  3  1  0  0  0  0
  3  5  1  0  0  0  0
  4  3  1  0  0  0  0
  5  6  1  0  0  0  0
  6 21  1  0  0  0  0
  6  7  2  0  0  0  0
  7 11  1  0  0  0  0
  8  7  1  0  0  0  0
  9  8  2  0  0  0  0
 10  5  2  0  0  0  0
 10  9  1  0  0  0  0
 12 13  1  0  0  0  0
 13 14  1  0  0  0  0
 14 15  2  0  0  0  0
 14  9  1  0  0  0  0
 15 16  1  0  0  0  0
 17 18  1  0  0  0  0
 17 15  1  0  0  0  0
 19 17  2  0  0  0  0
 20 19  1  0  0  0  0
 20 13  2  0  0  0  0
 21 22  1  0  0  0  0
 23 21  1  0  0  0  0
 24 27  1  0  0  0  0
 24  1  1  0  0  0  0
 25 26  1  0  0  0  0
 26 32  2  0  0  0  0
 26 27  1  0  0  0  0
 27 28  2  0  0  0  0
 28 29  1  0  0  0  0
 28 33  1  0  0  0  0
 29 34  1  0  0  0  0
 30 31  1  0  0  0  0
 30 29  2  0  0  0  0
 32 30  1  0  0  0  0
 36 35  1  0  0  0  0
 37 32  1  0  0  0  0
 37 36  2  0  0  0  0
 38 37  1  0  0  0  0
 39 38  2  0  0  0  0
 39 40  1  0  0  0  0
 40 41  2  0  0  0  0
 41 36  1  0  0  0  0
 41 45  1  0  0  0  0
 42 38  1  0  0  0  0
 43 39  1  0  0  0  0
 44 40  1  0  0  0  0
M  END
>  <minimizedAffinity>
-7.0884223

>  <minimizedRMSD>
1.41816318

$$$$
