
 OpenBabel03242513243D

 45 48  0  0  1  0  0  0  0  0999 V2000
   46.3220   30.2060   47.5370 C   0  0  2  0  0  0  0  0  0  0  0  0
   44.9820   30.6730   48.0810 C   0  0  0  0  0  0  0  0  0  0  0  0
   45.4880   31.1600   49.4430 C   0  0  0  0  0  0  0  0  0  0  0  0
   46.6760   31.7870   49.1770 O   0  0  0  0  0  0  0  0  0  0  0  0
   47.1920   31.3180   47.9970 C   0  0  1  0  0  0  0  0  0  0  0  0
   46.5100   29.2370   48.0110 H   0  0  0  0  0  0  0  0  0  0  0  0
   44.5270   31.4770   47.4920 H   0  0  0  0  0  0  0  0  0  0  0  0
   44.3060   29.8090   48.2250 H   0  0  0  0  0  0  0  0  0  0  0  0
   44.7060   31.8280   49.8560 H   0  0  0  0  0  0  0  0  0  0  0  0
   45.6000   30.2410   50.0630 H   0  0  0  0  0  0  0  0  0  0  0  0
   47.2360   32.1300   47.2640 H   0  0  0  0  0  0  0  0  0  0  0  0
   48.5980   30.8530   48.2330 C   0  0  1  0  0  0  0  0  0  0  0  0
   49.1640   31.4160   49.5260 C   0  0  0  0  0  0  0  0  0  0  0  0
   49.8790   30.2120   50.1020 C   0  0  0  0  0  0  0  0  0  0  0  0
   49.9380   29.2640   49.0790 O   0  0  0  0  0  0  0  0  0  0  0  0
   48.6490   29.3590   48.5480 C   0  0  0  0  0  0  0  0  0  0  0  0
   49.3000   31.0410   47.4190 H   0  0  0  0  0  0  0  0  0  0  0  0
   48.3820   31.7900   50.2150 H   0  0  0  0  0  0  0  0  0  0  0  0
   49.8930   32.2120   49.2730 H   0  0  0  0  0  0  0  0  0  0  0  0
   49.2070   29.7880   50.8850 H   0  0  0  0  0  0  0  0  0  0  0  0
   50.8710   30.4570   50.5080 H   0  0  0  0  0  0  0  0  0  0  0  0
   48.5100   28.7420   47.6650 H   0  0  0  0  0  0  0  0  0  0  0  0
   47.9900   29.1150   49.4150 H   0  0  0  0  0  0  0  0  0  0  0  0
   46.2960   30.0060   46.0660 C   0  0  0  0  0  0  0  0  0  0  0  0
   45.4320   29.3390   45.8190 H   0  0  0  0  0  0  0  0  0  0  0  0
   47.2000   29.4840   45.6820 H   0  0  0  0  0  0  0  0  0  0  0  0
   46.1060   31.3040   43.9880 C   0  0  0  0  0  0  0  0  0  0  0  0
   46.0750   31.2490   45.2960 C   0  0  0  0  0  0  0  0  0  0  0  0
   44.9960   34.6750   43.1480 C   0  0  0  0  0  0  0  0  0  0  0  0
   45.5260   34.8410   41.8240 C   0  0  0  0  0  0  0  0  0  0  0  0
   46.2410   33.7760   41.2920 C   0  0  0  0  0  0  0  0  0  0  0  0
   46.3960   32.6540   42.0460 N   0  0  0  0  0  0  0  0  0  0  0  0
   45.8850   32.5290   43.2840 C   0  0  0  0  0  0  0  0  0  0  0  0
   45.1940   33.5180   43.8400 N   0  0  0  0  0  0  0  0  0  0  0  0
   44.4390   35.4520   43.6130 H   0  0  0  0  0  0  0  0  0  0  0  0
   45.3680   35.7450   41.2920 H   0  0  0  0  0  0  0  0  0  0  0  0
   48.7210   35.3470   41.1420 Cl  0  0  0  0  0  0  0  0  0  0  0  0
   47.9830   34.5470   39.7580 C   0  0  0  0  0  0  0  0  0  0  0  0
   46.8200   33.8410   39.9620 C   0  0  0  0  0  0  0  0  0  0  0  0
   46.2870   33.2400   38.8560 C   0  0  0  0  0  0  0  0  0  0  0  0
   45.3880   32.6760   38.9320 H   0  0  0  0  0  0  0  0  0  0  0  0
   46.9070   33.3540   37.6140 C   0  0  0  0  0  0  0  0  0  0  0  0
   46.4240   32.8450   36.7710 H   0  0  0  0  0  0  0  0  0  0  0  0
   48.0620   34.0580   37.4260 C   0  0  0  0  0  0  0  0  0  0  0  0
   48.5910   34.6560   38.5290 C   0  0  0  0  0  0  0  0  0  0  0  0
  1  5  1  0  0  0  0
  1  6  1  1  0  0  0
  1  2  1  0  0  0  0
  2  8  1  0  0  0  0
  2  3  1  0  0  0  0
  3  9  1  0  0  0  0
  3 10  1  0  0  0  0
  4  3  1  0  0  0  0
  5 11  1  6  0  0  0
  5 12  1  0  0  0  0
  5  4  1  0  0  0  0
  7  2  1  0  0  0  0
 12 17  1  6  0  0  0
 12 16  1  0  0  0  0
 12 13  1  0  0  0  0
 13 14  1  0  0  0  0
 13 18  1  0  0  0  0
 14 21  1  0  0  0  0
 14 20  1  0  0  0  0
 15 14  1  0  0  0  0
 16 15  1  0  0  0  0
 16 23  1  0  0  0  0
 19 13  1  0  0  0  0
 22 16  1  0  0  0  0
 24  1  1  0  0  0  0
 25 24  1  0  0  0  0
 26 24  1  0  0  0  0
 27 28  2  0  0  0  0
 28 24  1  0  0  0  0
 29 35  1  0  0  0  0
 29 34  1  0  0  0  0
 30 29  2  0  0  0  0
 31 30  1  0  0  0  0
 31 32  2  0  0  0  0
 32 33  1  0  0  0  0
 33 34  2  0  0  0  0
 33 27  1  0  0  0  0
 36 30  1  0  0  0  0
 38 39  1  0  0  0  0
 38 37  1  0  0  0  0
 39 31  1  0  0  0  0
 40 41  1  0  0  0  0
 40 39  2  0  0  0  0
 42 40  1  0  0  0  0
 43 42  1  0  0  0  0
 44 42  2  0  0  0  0
 44 45  1  0  0  0  0
 45 38  2  0  0  0  0
M  END
>  <minimizedAffinity>
-5.72528028

>  <minimizedRMSD>
2.95425844

$$$$
