
 OpenBabel03252508213D

 34 36  0  0  0  0  0  0  0  0999 V2000
   46.2620   33.9110   41.2940 C   0  0  0  0  0  0  0  0  0  0  0  0
   46.9040   34.0230   40.0870 C   0  0  0  0  0  0  0  0  0  0  0  0
   48.1110   34.6750   39.8820 C   0  0  0  0  0  0  0  0  0  0  0  0
   48.6760   35.2440   41.0200 C   0  0  0  0  0  0  0  0  0  0  0  0
   48.0530   35.1470   42.2500 C   0  0  0  0  0  0  0  0  0  0  0  0
   46.8640   34.4960   42.4150 C   0  0  0  0  0  0  0  0  0  0  0  0
   46.3960   33.5530   39.2530 H   0  0  0  0  0  0  0  0  0  0  0  0
   48.5700   34.7320   38.9050 H   0  0  0  0  0  0  0  0  0  0  0  0
   49.6030   35.7540   40.9050 H   0  0  0  0  0  0  0  0  0  0  0  0
   48.5370   35.6100   43.1170 H   0  0  0  0  0  0  0  0  0  0  0  0
   44.9910   36.7420   42.7350 Cl  0  0  0  0  0  0  0  0  0  0  0  0
   45.3270   35.4560   43.9020 C   0  0  0  0  0  0  0  0  0  0  0  0
   46.2210   34.4030   43.7220 C   0  0  0  0  0  0  0  0  0  0  0  0
   46.3780   33.4780   44.7150 C   0  0  0  0  0  0  0  0  0  0  0  0
   47.1010   32.7080   44.4590 H   0  0  0  0  0  0  0  0  0  0  0  0
   45.6630   33.5810   45.8830 C   0  0  0  0  0  0  0  0  0  0  0  0
   45.8280   32.8240   46.6310 H   0  0  0  0  0  0  0  0  0  0  0  0
   44.7740   34.6160   46.0790 C   0  0  0  0  0  3  0  0  0  0  0  0
   44.5930   35.5740   45.0830 C   0  0  0  0  0  3  0  0  0  0  0  0
   44.9780   33.2130   41.5020 C   0  0  0  0  0  0  0  0  0  0  0  0
   44.4620   33.7800   42.3310 H   0  0  0  0  0  0  0  0  0  0  0  0
   45.0540   32.1750   41.8240 H   0  0  0  0  0  0  0  0  0  0  0  0
   44.0680   33.3600   40.2970 C   0  0  0  0  0  0  0  0  0  0  0  0
   43.9310   32.3720   39.7780 H   0  0  0  0  0  0  0  0  0  0  0  0
   44.4520   34.1360   39.6220 H   0  0  0  0  0  0  0  0  0  0  0  0
   41.1640   35.4560   41.5140 C   0  0  0  0  0  0  0  0  0  0  0  0
   42.4670   35.1310   41.0540 C   0  0  0  0  0  0  0  0  0  0  0  0
   42.7310   33.7890   40.7820 C   0  0  0  0  0  0  0  0  0  0  0  0
   41.7220   32.8650   40.9730 N   0  0  0  0  0  0  0  0  0  0  0  0
   40.5110   33.2370   41.4100 C   0  0  0  0  0  0  0  0  0  0  0  0
   40.2240   34.5290   41.6830 N   0  0  0  0  0  0  0  0  0  0  0  0
   41.1040   36.5280   41.6830 H   0  0  0  0  0  0  0  0  0  0  0  0
   43.2620   35.8280   40.8980 H   0  0  0  0  0  0  0  0  0  0  0  0
   39.7200   32.5090   41.5600 H   0  0  0  0  0  0  0  0  0  0  0  0
  1 20  1  0  0  0  0
  1  6  1  0  0  0  0
  2  1  2  0  0  0  0
  3  2  1  0  0  0  0
  3  4  2  0  0  0  0
  4  5  1  0  0  0  0
  5  6  2  0  0  0  0
  5 10  1  0  0  0  0
  6 13  1  0  0  0  0
  7  2  1  0  0  0  0
  8  3  1  0  0  0  0
  9  4  1  0  0  0  0
 11 12  1  0  0  0  0
 12 19  1  0  0  0  0
 13 12  2  0  0  0  0
 13 14  1  0  0  0  0
 14 16  2  0  0  0  0
 15 14  1  0  0  0  0
 16 18  1  0  0  0  0
 16 17  1  0  0  0  0
 19 18  2  0  0  0  0
 20 22  1  0  0  0  0
 20 21  1  0  0  0  0
 23 28  1  0  0  0  0
 23 20  1  0  0  0  0
 24 23  1  0  0  0  0
 25 23  1  0  0  0  0
 26 31  1  0  0  0  0
 26 32  1  0  0  0  0
 27 26  2  0  0  0  0
 28 29  2  0  0  0  0
 28 27  1  0  0  0  0
 29 30  1  0  0  0  0
 30 34  1  0  0  0  0
 30 31  2  0  0  0  0
 33 27  1  0  0  0  0
M  END
>  <minimizedAffinity>
-6.02484941

>  <minimizedRMSD>
1.02947605

$$$$
