
 OpenBabel03252507213D

 44 47  0  0  1  0  0  0  0  0999 V2000
   39.0990   29.2300   40.4350 C   0  0  0  0  0  0  0  0  0  0  0  0
   39.7080   28.7550   39.4290 O   0  0  0  0  0  0  0  0  0  0  0  0
   38.5920   28.4420   41.5190 N   0  0  0  0  0  0  0  0  0  0  0  0
   38.6590   28.6620   42.9610 C   0  0  0  0  0  0  0  0  0  0  0  0
   37.2470   28.5540   43.5550 C   0  0  0  0  0  0  0  0  0  0  0  0
   36.7230   27.1580   43.3630 C   0  0  0  0  0  0  0  0  0  0  0  0
   37.5700   26.4240   42.3600 C   0  0  0  0  0  0  0  0  0  0  0  0
   37.8990   27.2360   41.1500 C   0  0  2  0  0  0  0  0  0  0  0  0
   39.3910   28.0510   43.4780 H   0  0  0  0  0  0  0  0  0  0  0  0
   38.9310   29.7460   43.0670 H   0  0  0  0  0  0  0  0  0  0  0  0
   37.2160   28.9350   44.5700 H   0  0  0  0  0  0  0  0  0  0  0  0
   36.6400   29.2420   42.9220 H   0  0  0  0  0  0  0  0  0  0  0  0
   36.8520   26.6010   44.3340 H   0  0  0  0  0  0  0  0  0  0  0  0
   35.6400   27.1340   43.1370 H   0  0  0  0  0  0  0  0  0  0  0  0
   37.0270   25.5100   42.0520 H   0  0  0  0  0  0  0  0  0  0  0  0
   38.5340   26.1640   42.8860 H   0  0  0  0  0  0  0  0  0  0  0  0
   36.9380   27.5330   40.6790 H   0  0  0  0  0  0  0  0  0  0  0  0
   36.1860   26.0760   39.0520 Cl  0  0  0  0  0  0  0  0  0  0  0  0
   37.9270   25.7620   39.1560 C   0  0  0  0  0  0  0  0  0  0  0  0
   38.6380   26.3730   40.1960 C   0  0  0  0  0  0  0  0  0  0  0  0
   39.9770   26.0780   40.2060 C   0  0  0  0  0  0  0  0  0  0  0  0
   40.5560   26.5380   41.0050 H   0  0  0  0  0  0  0  0  0  0  0  0
   40.5600   25.2530   39.2680 C   0  0  0  0  0  0  0  0  0  0  0  0
   41.6190   25.0410   39.3030 H   0  0  0  0  0  0  0  0  0  0  0  0
   39.8210   24.6710   38.2600 C   0  0  0  0  0  3  0  0  0  0  0  0
   38.4680   24.9300   38.1980 C   0  0  0  0  0  3  0  0  0  0  0  0
   39.9750   31.4570   40.9610 C   0  0  0  0  0  0  0  0  0  0  0  0
   38.9110   30.6620   40.4770 C   0  0  0  0  0  0  0  0  0  0  0  0
   37.7440   31.2720   40.0700 C   0  0  0  0  0  0  0  0  0  0  0  0
   37.6570   32.6160   40.1460 N   0  0  0  0  0  0  0  0  0  0  0  0
   38.6720   33.3920   40.6080 C   0  0  0  0  0  0  0  0  0  0  0  0
   39.8120   32.7950   41.0070 N   0  0  0  0  0  0  0  0  0  0  0  0
   40.8880   30.9920   41.2810 H   0  0  0  0  0  0  0  0  0  0  0  0
   38.5750   34.4630   40.6600 H   0  0  0  0  0  0  0  0  0  0  0  0
   36.6610   30.4420   39.5830 C   0  0  0  0  0  0  0  0  0  0  0  0
   35.6970   29.9990   40.4370 C   0  0  0  0  0  0  0  0  0  0  0  0
   34.6700   29.2090   39.9560 C   0  0  0  0  0  0  0  0  0  0  0  0
   34.5750   28.8410   38.6320 C   0  0  0  0  0  0  0  0  0  0  0  0
   35.5840   29.3170   37.7980 C   0  0  0  0  0  0  0  0  0  0  0  0
   36.5600   30.0810   38.3040 N   0  0  0  0  0  0  0  0  0  0  0  0
   35.6280   30.1880   41.4850 H   0  0  0  0  0  0  0  0  0  0  0  0
   33.8700   28.8220   40.5850 H   0  0  0  0  0  0  0  0  0  0  0  0
   33.7780   28.2230   38.2410 H   0  0  0  0  0  0  0  0  0  0  0  0
   35.6030   29.0880   36.7390 H   0  0  0  0  0  0  0  0  0  0  0  0
  1 28  1  0  0  0  0
  1  3  1  0  0  0  0
  2  1  2  0  0  0  0
  3  4  1  0  0  0  0
  4 10  1  0  0  0  0
  4  9  1  0  0  0  0
  4  5  1  0  0  0  0
  5 11  1  0  0  0  0
  6  5  1  0  0  0  0
  6 13  1  0  0  0  0
  7 16  1  0  0  0  0
  7  6  1  0  0  0  0
  8 17  1  6  0  0  0
  8  3  1  0  0  0  0
  8  7  1  0  0  0  0
 12  5  1  0  0  0  0
 14  6  1  0  0  0  0
 15  7  1  0  0  0  0
 18 19  1  0  0  0  0
 19 20  1  0  0  0  0
 20 21  2  0  0  0  0
 20  8  1  0  0  0  0
 21 22  1  0  0  0  0
 23 24  1  0  0  0  0
 23 21  1  0  0  0  0
 25 23  2  0  0  0  0
 26 25  1  0  0  0  0
 26 19  2  0  0  0  0
 27 32  1  0  0  0  0
 27 33  1  0  0  0  0
 28 27  2  0  0  0  0
 29 30  2  0  0  0  0
 29 28  1  0  0  0  0
 30 31  1  0  0  0  0
 31 34  1  0  0  0  0
 31 32  2  0  0  0  0
 35 29  1  0  0  0  0
 35 36  1  0  0  0  0
 36 41  1  0  0  0  0
 37 36  2  0  0  0  0
 37 42  1  0  0  0  0
 38 37  1  0  0  0  0
 39 40  1  0  0  0  0
 39 38  2  0  0  0  0
 40 35  2  0  0  0  0
 43 38  1  0  0  0  0
 44 39  1  0  0  0  0
M  END
>  <minimizedAffinity>
-6.2508049

$$$$

 OpenBabel03252507213D

 44 47  0  0  1  0  0  0  0  0999 V2000
   39.3460   27.8350   40.2060 C   0  0  0  0  0  0  0  0  0  0  0  0
   40.6070   27.7020   40.2390 O   0  0  0  0  0  0  0  0  0  0  0  0
   38.5230   28.0150   41.3660 N   0  0  0  0  0  0  0  0  0  0  0  0
   37.4120   28.9330   41.6050 C   0  0  0  0  0  0  0  0  0  0  0  0
   36.2010   28.1400   42.1140 C   0  0  0  0  0  0  0  0  0  0  0  0
   36.5270   27.5140   43.4420 C   0  0  0  0  0  0  0  0  0  0  0  0
   38.0120   27.5570   43.6790 C   0  0  0  0  0  0  0  0  0  0  0  0
   38.8190   27.1610   42.4860 C   0  0  2  0  0  0  0  0  0  0  0  0
   37.6580   29.7880   42.2260 H   0  0  0  0  0  0  0  0  0  0  0  0
   37.1150   29.2850   40.5820 H   0  0  0  0  0  0  0  0  0  0  0  0
   35.2960   28.7380   42.0830 H   0  0  0  0  0  0  0  0  0  0  0  0
   36.0860   27.3220   41.3650 H   0  0  0  0  0  0  0  0  0  0  0  0
   36.0720   28.1540   44.2500 H   0  0  0  0  0  0  0  0  0  0  0  0
   36.0830   26.5070   43.5610 H   0  0  0  0  0  0  0  0  0  0  0  0
   38.2460   26.8790   44.5230 H   0  0  0  0  0  0  0  0  0  0  0  0
   38.2620   28.6270   43.9380 H   0  0  0  0  0  0  0  0  0  0  0  0
   38.5150   26.1300   42.2090 H   0  0  0  0  0  0  0  0  0  0  0  0
   39.7820   24.4820   43.2400 Cl  0  0  0  0  0  0  0  0  0  0  0  0
   40.8190   25.9180   43.2610 C   0  0  0  0  0  0  0  0  0  0  0  0
   40.2490   27.1380   42.8770 C   0  0  0  0  0  0  0  0  0  0  0  0
   41.1170   28.1980   42.9210 C   0  0  0  0  0  0  0  0  0  0  0  0
   40.7010   29.1620   42.6290 H   0  0  0  0  0  0  0  0  0  0  0  0
   42.4330   28.0620   43.3090 C   0  0  0  0  0  0  0  0  0  0  0  0
   43.0920   28.9180   43.3320 H   0  0  0  0  0  0  0  0  0  0  0  0
   42.9530   26.8400   43.6800 C   0  0  0  0  0  3  0  0  0  0  0  0
   42.1280   25.7350   43.6560 C   0  0  0  0  0  3  0  0  0  0  0  0
   38.8120   28.9500   38.0920 C   0  0  0  0  0  0  0  0  0  0  0  0
   38.7110   27.8010   38.9100 C   0  0  0  0  0  0  0  0  0  0  0  0
   38.0170   26.7030   38.4480 C   0  0  0  0  0  0  0  0  0  0  0  0
   37.4550   26.7620   37.2230 N   0  0  0  0  0  0  0  0  0  0  0  0
   37.5440   27.8590   36.4260 C   0  0  0  0  0  0  0  0  0  0  0  0
   38.2220   28.9320   36.8790 N   0  0  0  0  0  0  0  0  0  0  0  0
   39.3490   29.8110   38.4410 H   0  0  0  0  0  0  0  0  0  0  0  0
   37.0850   27.8800   35.4530 H   0  0  0  0  0  0  0  0  0  0  0  0
   37.9190   25.5370   39.3020 C   0  0  0  0  0  0  0  0  0  0  0  0
   36.8070   25.3340   40.0610 C   0  0  0  0  0  0  0  0  0  0  0  0
   36.7280   24.2150   40.8700 C   0  0  0  0  0  0  0  0  0  0  0  0
   37.7380   23.2820   40.9450 C   0  0  0  0  0  0  0  0  0  0  0  0
   38.8550   23.5330   40.1510 C   0  0  0  0  0  0  0  0  0  0  0  0
   38.8900   24.6280   39.3810 N   0  0  0  0  0  0  0  0  0  0  0  0
   35.9430   25.9580   40.1220 H   0  0  0  0  0  0  0  0  0  0  0  0
   35.8690   23.9940   41.5010 H   0  0  0  0  0  0  0  0  0  0  0  0
   37.6910   22.4020   41.5730 H   0  0  0  0  0  0  0  0  0  0  0  0
   39.7050   22.8620   40.1350 H   0  0  0  0  0  0  0  0  0  0  0  0
  1  2  2  0  0  0  0
  1  3  1  0  0  0  0
  3  4  1  0  0  0  0
  3  8  1  0  0  0  0
  4  5  1  0  0  0  0
  4  9  1  0  0  0  0
  5  6  1  0  0  0  0
  6 14  1  0  0  0  0
  6  7  1  0  0  0  0
  6 13  1  0  0  0  0
  7 16  1  0  0  0  0
  7 15  1  0  0  0  0
  8 17  1  6  0  0  0
  8 20  1  0  0  0  0
  8  7  1  0  0  0  0
 10  4  1  0  0  0  0
 11  5  1  0  0  0  0
 12  5  1  0  0  0  0
 18 19  1  0  0  0  0
 19 26  1  0  0  0  0
 20 21  1  0  0  0  0
 20 19  2  0  0  0  0
 21 23  2  0  0  0  0
 22 21  1  0  0  0  0
 23 24  1  0  0  0  0
 23 25  1  0  0  0  0
 26 25  2  0  0  0  0
 27 33  1  0  0  0  0
 27 28  1  0  0  0  0
 28  1  1  0  0  0  0
 29 28  2  0  0  0  0
 29 35  1  0  0  0  0
 30 29  1  0  0  0  0
 31 32  1  0  0  0  0
 31 30  2  0  0  0  0
 32 27  2  0  0  0  0
 34 31  1  0  0  0  0
 35 40  2  0  0  0  0
 35 36  1  0  0  0  0
 36 41  1  0  0  0  0
 36 37  2  0  0  0  0
 37 38  1  0  0  0  0
 37 42  1  0  0  0  0
 38 43  1  0  0  0  0
 39 38  2  0  0  0  0
 40 39  1  0  0  0  0
 44 39  1  0  0  0  0
M  END
>  <minimizedAffinity>
-5.84838295

$$$$

 OpenBabel03252507213D

 44 47  0  0  1  0  0  0  0  0999 V2000
   39.4310   29.9550   41.0340 C   0  0  0  0  0  0  0  0  0  0  0  0
   40.3460   29.2430   41.5470 O   0  0  0  0  0  0  0  0  0  0  0  0
   38.0300   29.6700   41.1430 N   0  0  0  0  0  0  0  0  0  0  0  0
   36.9040   30.5560   41.4280 C   0  0  0  0  0  0  0  0  0  0  0  0
   35.8270   30.3680   40.3510 C   0  0  0  0  0  0  0  0  0  0  0  0
   35.2900   28.9650   40.4110 C   0  0  0  0  0  0  0  0  0  0  0  0
   36.2000   28.1010   41.2410 C   0  0  0  0  0  0  0  0  0  0  0  0
   37.6490   28.2980   40.9380 C   0  0  2  0  0  0  0  0  0  0  0  0
   36.5180   30.4830   42.4400 H   0  0  0  0  0  0  0  0  0  0  0  0
   37.3080   31.5880   41.2530 H   0  0  0  0  0  0  0  0  0  0  0  0
   35.0870   31.1600   40.3910 H   0  0  0  0  0  0  0  0  0  0  0  0
   36.3870   30.4830   39.3940 H   0  0  0  0  0  0  0  0  0  0  0  0
   34.3090   28.9910   40.9650 H   0  0  0  0  0  0  0  0  0  0  0  0
   35.0660   28.5480   39.4100 H   0  0  0  0  0  0  0  0  0  0  0  0
   35.9270   27.0430   41.0640 H   0  0  0  0  0  0  0  0  0  0  0  0
   36.0200   28.3900   42.3170 H   0  0  0  0  0  0  0  0  0  0  0  0
   37.7960   28.0670   39.8610 H   0  0  0  0  0  0  0  0  0  0  0  0
   38.2820   25.8270   39.4650 Cl  0  0  0  0  0  0  0  0  0  0  0  0
   38.7850   26.1040   41.1410 C   0  0  0  0  0  0  0  0  0  0  0  0
   38.4290   27.3200   41.7350 C   0  0  0  0  0  0  0  0  0  0  0  0
   38.8560   27.4550   43.0300 C   0  0  0  0  0  0  0  0  0  0  0  0
   38.5920   28.3910   43.5200 H   0  0  0  0  0  0  0  0  0  0  0  0
   39.5730   26.4730   43.6800 C   0  0  0  0  0  0  0  0  0  0  0  0
   39.8960   26.6100   44.7010 H   0  0  0  0  0  0  0  0  0  0  0  0
   39.9030   25.2880   43.0550 C   0  0  0  0  0  3  0  0  0  0  0  0
   39.5000   25.0940   41.7510 C   0  0  0  0  0  3  0  0  0  0  0  0
   40.1830   32.2860   41.0260 C   0  0  0  0  0  0  0  0  0  0  0  0
   39.8400   31.1260   40.2950 C   0  0  0  0  0  0  0  0  0  0  0  0
   39.9060   31.1520   38.9180 C   0  0  0  0  0  0  0  0  0  0  0  0
   40.2990   32.2910   38.3120 N   0  0  0  0  0  0  0  0  0  0  0  0
   40.6320   33.4130   39.0020 C   0  0  0  0  0  0  0  0  0  0  0  0
   40.5660   33.3870   40.3480 N   0  0  0  0  0  0  0  0  0  0  0  0
   40.1350   32.2770   42.0990 H   0  0  0  0  0  0  0  0  0  0  0  0
   40.9410   34.3100   38.4930 H   0  0  0  0  0  0  0  0  0  0  0  0
   39.5460   29.9560   38.1840 C   0  0  0  0  0  0  0  0  0  0  0  0
   38.2880   29.8110   37.6830 C   0  0  0  0  0  0  0  0  0  0  0  0
   37.9600   28.6640   36.9840 C   0  0  0  0  0  0  0  0  0  0  0  0
   38.8610   27.6450   36.7680 C   0  0  0  0  0  0  0  0  0  0  0  0
   40.1330   27.8390   37.2990 C   0  0  0  0  0  0  0  0  0  0  0  0
   40.4100   28.9650   37.9690 N   0  0  0  0  0  0  0  0  0  0  0  0
   37.4760   30.4990   37.7660 H   0  0  0  0  0  0  0  0  0  0  0  0
   36.9740   28.4860   36.5590 H   0  0  0  0  0  0  0  0  0  0  0  0
   38.6190   26.7410   36.2230 H   0  0  0  0  0  0  0  0  0  0  0  0
   40.9170   27.0990   37.1860 H   0  0  0  0  0  0  0  0  0  0  0  0
  1  3  1  0  0  0  0
  1  2  2  0  0  0  0
  3  4  1  0  0  0  0
  4  9  1  0  0  0  0
  5 11  1  0  0  0  0
  5  6  1  0  0  0  0
  5  4  1  0  0  0  0
  6 13  1  0  0  0  0
  6  7  1  0  0  0  0
  7 16  1  0  0  0  0
  8 17  1  6  0  0  0
  8  3  1  0  0  0  0
  8  7  1  0  0  0  0
  8 20  1  0  0  0  0
 10  4  1  0  0  0  0
 12  5  1  0  0  0  0
 14  6  1  0  0  0  0
 15  7  1  0  0  0  0
 18 19  1  0  0  0  0
 19 20  2  0  0  0  0
 19 26  1  0  0  0  0
 20 21  1  0  0  0  0
 21 22  1  0  0  0  0
 21 23  2  0  0  0  0
 23 24  1  0  0  0  0
 25 23  1  0  0  0  0
 26 25  2  0  0  0  0
 27 33  1  0  0  0  0
 28 27  2  0  0  0  0
 28  1  1  0  0  0  0
 29 28  1  0  0  0  0
 30 29  2  0  0  0  0
 30 31  1  0  0  0  0
 31 32  2  0  0  0  0
 32 27  1  0  0  0  0
 34 31  1  0  0  0  0
 35 29  1  0  0  0  0
 36 41  1  0  0  0  0
 36 35  2  0  0  0  0
 37 36  1  0  0  0  0
 38 37  2  0  0  0  0
 38 39  1  0  0  0  0
 39 40  2  0  0  0  0
 40 35  1  0  0  0  0
 42 37  1  0  0  0  0
 43 38  1  0  0  0  0
 44 39  1  0  0  0  0
M  END
>  <minimizedAffinity>
-5.84587717

$$$$

 OpenBabel03252507213D

 44 47  0  0  1  0  0  0  0  0999 V2000
   39.6900   29.3980   41.4280 C   0  0  0  0  0  0  0  0  0  0  0  0
   39.2520   30.4330   42.0160 O   0  0  0  0  0  0  0  0  0  0  0  0
   40.2370   29.3930   40.1020 N   0  0  0  0  0  0  0  0  0  0  0  0
   41.4290   28.7350   39.5740 C   0  0  0  0  0  0  0  0  0  0  0  0
   41.0470   27.9220   38.3290 C   0  0  0  0  0  0  0  0  0  0  0  0
   40.5600   28.8500   37.2490 C   0  0  0  0  0  0  0  0  0  0  0  0
   40.2640   30.2050   37.8310 C   0  0  0  0  0  0  0  0  0  0  0  0
   39.5100   30.1500   39.1190 C   0  0  2  0  0  0  0  0  0  0  0  0
   42.2760   29.3940   39.4140 H   0  0  0  0  0  0  0  0  0  0  0  0
   41.6910   27.9660   40.3480 H   0  0  0  0  0  0  0  0  0  0  0  0
   41.8410   27.2410   38.0430 H   0  0  0  0  0  0  0  0  0  0  0  0
   40.1840   27.3050   38.6690 H   0  0  0  0  0  0  0  0  0  0  0  0
   41.4040   29.0100   36.5200 H   0  0  0  0  0  0  0  0  0  0  0  0
   39.7240   28.4220   36.6620 H   0  0  0  0  0  0  0  0  0  0  0  0
   39.6800   30.7800   37.0860 H   0  0  0  0  0  0  0  0  0  0  0  0
   41.2630   30.6930   38.0250 H   0  0  0  0  0  0  0  0  0  0  0  0
   38.5570   29.6130   38.9220 H   0  0  0  0  0  0  0  0  0  0  0  0
   36.7770   30.9790   38.3930 Cl  0  0  0  0  0  0  0  0  0  0  0  0
   37.9160   32.0460   39.2340 C   0  0  0  0  0  0  0  0  0  0  0  0
   39.1860   31.5380   39.5290 C   0  0  0  0  0  0  0  0  0  0  0  0
   40.0050   32.4250   40.1790 C   0  0  0  0  0  0  0  0  0  0  0  0
   41.0020   32.0590   40.4210 H   0  0  0  0  0  0  0  0  0  0  0  0
   39.6000   33.7020   40.5080 C   0  0  0  0  0  0  0  0  0  0  0  0
   40.2700   34.3770   41.0210 H   0  0  0  0  0  0  0  0  0  0  0  0
   38.3380   34.1610   40.1970 C   0  0  0  0  0  3  0  0  0  0  0  0
   37.4690   33.3130   39.5420 C   0  0  0  0  0  3  0  0  0  0  0  0
   40.7100   27.8200   42.9990 C   0  0  0  0  0  0  0  0  0  0  0  0
   39.6280   28.1500   42.1510 C   0  0  0  0  0  0  0  0  0  0  0  0
   38.5640   27.2800   42.0450 C   0  0  0  0  0  0  0  0  0  0  0  0
   38.5920   26.1350   42.7590 N   0  0  0  0  0  0  0  0  0  0  0  0
   39.6250   25.8050   43.5770 C   0  0  0  0  0  0  0  0  0  0  0  0
   40.6650   26.6560   43.6790 N   0  0  0  0  0  0  0  0  0  0  0  0
   41.5440   28.4900   43.0880 H   0  0  0  0  0  0  0  0  0  0  0  0
   39.6230   24.8840   44.1340 H   0  0  0  0  0  0  0  0  0  0  0  0
   37.4660   27.6310   41.1680 C   0  0  0  0  0  0  0  0  0  0  0  0
   37.4100   27.1300   39.9030 C   0  0  0  0  0  0  0  0  0  0  0  0
   36.3550   27.4740   39.0790 C   0  0  0  0  0  0  0  0  0  0  0  0
   35.3410   28.3150   39.4840 C   0  0  0  0  0  0  0  0  0  0  0  0
   35.4430   28.8030   40.7840 C   0  0  0  0  0  0  0  0  0  0  0  0
   36.4810   28.4430   41.5500 N   0  0  0  0  0  0  0  0  0  0  0  0
   38.1110   26.4740   39.4370 H   0  0  0  0  0  0  0  0  0  0  0  0
   36.2510   27.1090   38.0590 H   0  0  0  0  0  0  0  0  0  0  0  0
   34.5100   28.5940   38.8500 H   0  0  0  0  0  0  0  0  0  0  0  0
   34.6990   29.4700   41.2020 H   0  0  0  0  0  0  0  0  0  0  0  0
  1  2  2  0  0  0  0
  1 28  1  0  0  0  0
  3  1  1  0  0  0  0
  4  3  1  0  0  0  0
  4 10  1  0  0  0  0
  5 12  1  0  0  0  0
  5  4  1  0  0  0  0
  6  7  1  0  0  0  0
  6  5  1  0  0  0  0
  7 16  1  0  0  0  0
  7  8  1  0  0  0  0
  8 17  1  6  0  0  0
  8 20  1  0  0  0  0
  8  3  1  0  0  0  0
  9  4  1  0  0  0  0
 11  5  1  0  0  0  0
 13  6  1  0  0  0  0
 14  6  1  0  0  0  0
 15  7  1  0  0  0  0
 18 19  1  0  0  0  0
 19 20  2  0  0  0  0
 19 26  1  0  0  0  0
 20 21  1  0  0  0  0
 21 22  1  0  0  0  0
 21 23  2  0  0  0  0
 23 24  1  0  0  0  0
 25 23  1  0  0  0  0
 26 25  2  0  0  0  0
 27 33  1  0  0  0  0
 27 32  1  0  0  0  0
 28 27  2  0  0  0  0
 29 28  1  0  0  0  0
 29 30  2  0  0  0  0
 30 31  1  0  0  0  0
 31 32  2  0  0  0  0
 31 34  1  0  0  0  0
 35 40  1  0  0  0  0
 35 29  1  0  0  0  0
 36 35  2  0  0  0  0
 37 38  2  0  0  0  0
 37 36  1  0  0  0  0
 38 39  1  0  0  0  0
 39 44  1  0  0  0  0
 39 40  2  0  0  0  0
 41 36  1  0  0  0  0
 42 37  1  0  0  0  0
 43 38  1  0  0  0  0
M  END
>  <minimizedAffinity>
-5.84388876

$$$$

 OpenBabel03252507213D

 44 47  0  0  1  0  0  0  0  0999 V2000
   38.1720   29.0390   40.3590 C   0  0  0  0  0  0  0  0  0  0  0  0
   37.3000   28.1410   40.1590 O   0  0  0  0  0  0  0  0  0  0  0  0
   39.4430   28.8080   40.9810 N   0  0  0  0  0  0  0  0  0  0  0  0
   40.7750   29.2810   40.6150 C   0  0  0  0  0  0  0  0  0  0  0  0
   41.4330   29.9340   41.8380 C   0  0  0  0  0  0  0  0  0  0  0  0
   41.6300   28.9050   42.9170 C   0  0  0  0  0  0  0  0  0  0  0  0
   40.8170   27.6770   42.6100 C   0  0  0  0  0  0  0  0  0  0  0  0
   39.4260   27.9800   42.1570 C   0  0  2  0  0  0  0  0  0  0  0  0
   41.4030   28.5380   40.1340 H   0  0  0  0  0  0  0  0  0  0  0  0
   40.5860   30.1300   39.9050 H   0  0  0  0  0  0  0  0  0  0  0  0
   42.3160   30.4990   41.5580 H   0  0  0  0  0  0  0  0  0  0  0  0
   40.6690   30.6640   42.1920 H   0  0  0  0  0  0  0  0  0  0  0  0
   42.7060   28.5710   42.8880 H   0  0  0  0  0  0  0  0  0  0  0  0
   41.4610   29.3110   43.9330 H   0  0  0  0  0  0  0  0  0  0  0  0
   40.7790   27.0510   43.5220 H   0  0  0  0  0  0  0  0  0  0  0  0
   41.3530   27.1400   41.7740 H   0  0  0  0  0  0  0  0  0  0  0  0
   38.9340   28.5600   42.9670 H   0  0  0  0  0  0  0  0  0  0  0  0
   36.9060   27.8620   43.6780 Cl  0  0  0  0  0  0  0  0  0  0  0  0
   37.4880   26.5220   42.6740 C   0  0  0  0  0  0  0  0  0  0  0  0
   38.6990   26.6980   41.9940 C   0  0  0  0  0  0  0  0  0  0  0  0
   39.0780   25.6170   41.2410 C   0  0  0  0  0  0  0  0  0  0  0  0
   40.0180   25.7220   40.7010 H   0  0  0  0  0  0  0  0  0  0  0  0
   38.3240   24.4650   41.1670 C   0  0  0  0  0  0  0  0  0  0  0  0
   38.6500   23.6300   40.5630 H   0  0  0  0  0  0  0  0  0  0  0  0
   37.1350   24.3350   41.8540 C   0  0  0  0  0  3  0  0  0  0  0  0
   36.7020   25.3900   42.6290 C   0  0  0  0  0  3  0  0  0  0  0  0
   37.8570   31.4080   40.8990 C   0  0  0  0  0  0  0  0  0  0  0  0
   37.8510   30.3800   39.9280 C   0  0  0  0  0  0  0  0  0  0  0  0
   37.5400   30.6880   38.6210 C   0  0  0  0  0  0  0  0  0  0  0  0
   37.2520   31.9690   38.3110 N   0  0  0  0  0  0  0  0  0  0  0  0
   37.2540   32.9670   39.2330 C   0  0  0  0  0  0  0  0  0  0  0  0
   37.5570   32.6640   40.5110 N   0  0  0  0  0  0  0  0  0  0  0  0
   38.0960   31.1790   41.9210 H   0  0  0  0  0  0  0  0  0  0  0  0
   37.0190   33.9810   38.9590 H   0  0  0  0  0  0  0  0  0  0  0  0
   37.5340   29.6230   37.6410 C   0  0  0  0  0  0  0  0  0  0  0  0
   36.3580   29.1850   37.1110 C   0  0  0  0  0  0  0  0  0  0  0  0
   36.3680   28.1670   36.1750 C   0  0  0  0  0  0  0  0  0  0  0  0
   37.5310   27.5650   35.7470 C   0  0  0  0  0  0  0  0  0  0  0  0
   38.7070   28.0460   36.3180 C   0  0  0  0  0  0  0  0  0  0  0  0
   38.6520   29.0340   37.2200 N   0  0  0  0  0  0  0  0  0  0  0  0
   35.3760   29.5390   37.3370 H   0  0  0  0  0  0  0  0  0  0  0  0
   35.4650   27.7710   35.7140 H   0  0  0  0  0  0  0  0  0  0  0  0
   37.5550   26.7670   35.0160 H   0  0  0  0  0  0  0  0  0  0  0  0
   39.6760   27.6430   36.0500 H   0  0  0  0  0  0  0  0  0  0  0  0
  1  3  1  0  0  0  0
  2  1  2  0  0  0  0
  3  8  1  0  0  0  0
  4  3  1  0  0  0  0
  4  5  1  0  0  0  0
  5 12  1  0  0  0  0
  5  6  1  0  0  0  0
  6 14  1  0  0  0  0
  7  6  1  0  0  0  0
  7 15  1  0  0  0  0
  8  7  1  0  0  0  0
  8 17  1  1  0  0  0
  9  4  1  0  0  0  0
 10  4  1  0  0  0  0
 11  5  1  0  0  0  0
 13  6  1  0  0  0  0
 16  7  1  0  0  0  0
 19 18  1  0  0  0  0
 20  8  1  0  0  0  0
 20 19  2  0  0  0  0
 21 20  1  0  0  0  0
 22 21  1  0  0  0  0
 23 21  2  0  0  0  0
 23 25  1  0  0  0  0
 24 23  1  0  0  0  0
 25 26  2  0  0  0  0
 26 19  1  0  0  0  0
 27 33  1  0  0  0  0
 28  1  1  0  0  0  0
 28 27  2  0  0  0  0
 29 28  1  0  0  0  0
 30 29  2  0  0  0  0
 30 31  1  0  0  0  0
 31 32  2  0  0  0  0
 32 27  1  0  0  0  0
 34 31  1  0  0  0  0
 35 29  1  0  0  0  0
 36 41  1  0  0  0  0
 36 35  2  0  0  0  0
 37 36  1  0  0  0  0
 38 37  2  0  0  0  0
 38 39  1  0  0  0  0
 39 40  2  0  0  0  0
 40 35  1  0  0  0  0
 42 37  1  0  0  0  0
 43 38  1  0  0  0  0
 44 39  1  0  0  0  0
M  END
>  <minimizedAffinity>
-5.83598232

$$$$

 OpenBabel03252507213D

 44 47  0  0  1  0  0  0  0  0999 V2000
   39.1030   29.0750   39.9560 C   0  0  0  0  0  0  0  0  0  0  0  0
   40.3580   29.2410   39.8850 O   0  0  0  0  0  0  0  0  0  0  0  0
   38.3950   28.7770   41.1670 N   0  0  0  0  0  0  0  0  0  0  0  0
   37.1460   29.3230   41.6910 C   0  0  0  0  0  0  0  0  0  0  0  0
   36.1990   28.1690   42.0470 C   0  0  0  0  0  0  0  0  0  0  0  0
   36.8000   27.3450   43.1520 C   0  0  0  0  0  0  0  0  0  0  0  0
   38.2570   27.6810   43.3120 C   0  0  0  0  0  0  0  0  0  0  0  0
   38.9920   27.7800   42.0150 C   0  0  2  0  0  0  0  0  0  0  0  0
   37.2690   30.0420   42.4950 H   0  0  0  0  0  0  0  0  0  0  0  0
   36.6670   29.8250   40.8090 H   0  0  0  0  0  0  0  0  0  0  0  0
   35.1890   28.5250   42.2190 H   0  0  0  0  0  0  0  0  0  0  0  0
   36.1810   27.5470   41.1220 H   0  0  0  0  0  0  0  0  0  0  0  0
   36.3100   27.6500   44.1200 H   0  0  0  0  0  0  0  0  0  0  0  0
   36.6000   26.2620   43.0360 H   0  0  0  0  0  0  0  0  0  0  0  0
   38.7250   26.9000   43.9410 H   0  0  0  0  0  0  0  0  0  0  0  0
   38.2970   28.6880   43.8200 H   0  0  0  0  0  0  0  0  0  0  0  0
   38.8900   26.8000   41.5020 H   0  0  0  0  0  0  0  0  0  0  0  0
   40.7290   25.5740   41.1240 Cl  0  0  0  0  0  0  0  0  0  0  0  0
   41.3510   27.0210   41.9350 C   0  0  0  0  0  0  0  0  0  0  0  0
   40.4280   28.0050   42.3090 C   0  0  0  0  0  0  0  0  0  0  0  0
   40.9890   29.0910   42.9300 C   0  0  0  0  0  0  0  0  0  0  0  0
   40.2950   29.8730   43.2340 H   0  0  0  0  0  0  0  0  0  0  0  0
   42.3450   29.1930   43.1600 C   0  0  0  0  0  0  0  0  0  0  0  0
   42.7570   30.0630   43.6510 H   0  0  0  0  0  0  0  0  0  0  0  0
   43.2190   28.1990   42.7740 C   0  0  0  0  0  3  0  0  0  0  0  0
   42.7130   27.0810   42.1450 C   0  0  0  0  0  3  0  0  0  0  0  0
   37.9290   28.0090   38.0900 C   0  0  0  0  0  0  0  0  0  0  0  0
   38.3490   29.1970   38.7300 C   0  0  0  0  0  0  0  0  0  0  0  0
   38.0310   30.4150   38.1690 C   0  0  0  0  0  0  0  0  0  0  0  0
   37.3240   30.4320   37.0200 N   0  0  0  0  0  0  0  0  0  0  0  0
   36.9130   29.2980   36.3940 C   0  0  0  0  0  0  0  0  0  0  0  0
   37.2260   28.1080   36.9430 N   0  0  0  0  0  0  0  0  0  0  0  0
   38.1720   27.0540   38.5180 H   0  0  0  0  0  0  0  0  0  0  0  0
   36.3510   29.3400   35.4770 H   0  0  0  0  0  0  0  0  0  0  0  0
   38.4750   31.6220   38.8350 C   0  0  0  0  0  0  0  0  0  0  0  0
   37.6360   32.2900   39.6750 C   0  0  0  0  0  0  0  0  0  0  0  0
   38.0740   33.4400   40.3050 C   0  0  0  0  0  0  0  0  0  0  0  0
   39.3400   33.9510   40.1180 C   0  0  0  0  0  0  0  0  0  0  0  0
   40.1600   33.2340   39.2500 C   0  0  0  0  0  0  0  0  0  0  0  0
   39.6960   32.1240   38.6610 N   0  0  0  0  0  0  0  0  0  0  0  0
   36.6300   32.0320   39.9230 H   0  0  0  0  0  0  0  0  0  0  0  0
   37.4550   34.0200   40.9860 H   0  0  0  0  0  0  0  0  0  0  0  0
   39.6970   34.8500   40.6030 H   0  0  0  0  0  0  0  0  0  0  0  0
   41.1740   33.5490   39.0340 H   0  0  0  0  0  0  0  0  0  0  0  0
  1  3  1  0  0  0  0
  2  1  2  0  0  0  0
  3  4  1  0  0  0  0
  3  8  1  0  0  0  0
  4  5  1  0  0  0  0
  4  9  1  0  0  0  0
  5 11  1  0  0  0  0
  5  6  1  0  0  0  0
  6  7  1  0  0  0  0
  6 13  1  0  0  0  0
  7 16  1  0  0  0  0
  7 15  1  0  0  0  0
  8 17  1  6  0  0  0
  8 20  1  0  0  0  0
  8  7  1  0  0  0  0
 10  4  1  0  0  0  0
 12  5  1  0  0  0  0
 14  6  1  0  0  0  0
 18 19  1  0  0  0  0
 19 26  2  0  0  0  0
 19 20  1  0  0  0  0
 20 21  2  0  0  0  0
 21 23  1  0  0  0  0
 21 22  1  0  0  0  0
 23 24  1  0  0  0  0
 25 23  2  0  0  0  0
 26 25  1  0  0  0  0
 27 33  1  0  0  0  0
 27 28  1  0  0  0  0
 28  1  1  0  0  0  0
 29 28  2  0  0  0  0
 29 35  1  0  0  0  0
 30 29  1  0  0  0  0
 31 32  1  0  0  0  0
 31 30  2  0  0  0  0
 32 27  2  0  0  0  0
 34 31  1  0  0  0  0
 35 36  1  0  0  0  0
 36 41  1  0  0  0  0
 36 37  2  0  0  0  0
 37 42  1  0  0  0  0
 38 37  1  0  0  0  0
 38 43  1  0  0  0  0
 39 38  2  0  0  0  0
 40 35  2  0  0  0  0
 40 39  1  0  0  0  0
 44 39  1  0  0  0  0
M  END
>  <minimizedAffinity>
-5.72578859

$$$$

 OpenBabel03252507213D

 44 47  0  0  1  0  0  0  0  0999 V2000
   39.4660   27.1080   39.9250 C   0  0  0  0  0  0  0  0  0  0  0  0
   39.1370   26.3980   38.9270 O   0  0  0  0  0  0  0  0  0  0  0  0
   38.8310   27.0430   41.2090 N   0  0  0  0  0  0  0  0  0  0  0  0
   39.4080   27.0230   42.5500 C   0  0  0  0  0  0  0  0  0  0  0  0
   38.7430   28.1140   43.4020 C   0  0  0  0  0  0  0  0  0  0  0  0
   37.2800   27.8070   43.5650 C   0  0  0  0  0  0  0  0  0  0  0  0
   36.8610   26.7570   42.5720 C   0  0  0  0  0  0  0  0  0  0  0  0
   37.3930   26.9910   41.1960 C   0  0  2  0  0  0  0  0  0  0  0  0
   39.4120   26.0480   43.0260 H   0  0  0  0  0  0  0  0  0  0  0  0
   40.4630   27.3760   42.4060 H   0  0  0  0  0  0  0  0  0  0  0  0
   39.2940   28.2880   44.3200 H   0  0  0  0  0  0  0  0  0  0  0  0
   38.8370   29.0320   42.7770 H   0  0  0  0  0  0  0  0  0  0  0  0
   37.1320   27.3410   44.5800 H   0  0  0  0  0  0  0  0  0  0  0  0
   36.6470   28.7150   43.5490 H   0  0  0  0  0  0  0  0  0  0  0  0
   35.7550   26.7340   42.5400 H   0  0  0  0  0  0  0  0  0  0  0  0
   37.2750   25.7770   42.9510 H   0  0  0  0  0  0  0  0  0  0  0  0
   37.0250   27.9850   40.8640 H   0  0  0  0  0  0  0  0  0  0  0  0
   37.7280   24.2430   42.2040 Cl  0  0  0  0  0  0  0  0  0  0  0  0
   36.9280   24.6140   40.6670 C   0  0  0  0  0  0  0  0  0  0  0  0
   36.8250   25.9590   40.2950 C   0  0  0  0  0  0  0  0  0  0  0  0
   36.1940   26.1600   39.0950 C   0  0  0  0  0  0  0  0  0  0  0  0
   36.1000   27.1980   38.7770 H   0  0  0  0  0  0  0  0  0  0  0  0
   35.7080   25.1200   38.3310 C   0  0  0  0  0  0  0  0  0  0  0  0
   35.2140   25.3110   37.3890 H   0  0  0  0  0  0  0  0  0  0  0  0
   35.8320   23.8080   38.7360 C   0  0  0  0  0  3  0  0  0  0  0  0
   36.4580   23.5430   39.9360 C   0  0  0  0  0  3  0  0  0  0  0  0
   41.8690   27.5210   39.6830 C   0  0  0  0  0  0  0  0  0  0  0  0
   40.5550   28.0400   39.7420 C   0  0  0  0  0  0  0  0  0  0  0  0
   40.3600   29.3990   39.6270 C   0  0  0  0  0  0  0  0  0  0  0  0
   41.4370   30.1940   39.4590 N   0  0  0  0  0  0  0  0  0  0  0  0
   42.7050   29.7100   39.4000 C   0  0  0  0  0  0  0  0  0  0  0  0
   42.8950   28.3800   39.5150 N   0  0  0  0  0  0  0  0  0  0  0  0
   42.0320   26.4640   39.7730 H   0  0  0  0  0  0  0  0  0  0  0  0
   43.5470   30.3670   39.2670 H   0  0  0  0  0  0  0  0  0  0  0  0
   39.0080   29.9140   39.6950 C   0  0  0  0  0  0  0  0  0  0  0  0
   38.1870   29.8330   38.6110 C   0  0  0  0  0  0  0  0  0  0  0  0
   36.8990   30.3270   38.6920 C   0  0  0  0  0  0  0  0  0  0  0  0
   36.3990   30.9090   39.8360 C   0  0  0  0  0  0  0  0  0  0  0  0
   37.2750   30.9700   40.9170 C   0  0  0  0  0  0  0  0  0  0  0  0
   38.5150   30.4780   40.7960 N   0  0  0  0  0  0  0  0  0  0  0  0
   38.4190   29.4190   37.6550 H   0  0  0  0  0  0  0  0  0  0  0  0
   36.1940   30.2940   37.8630 H   0  0  0  0  0  0  0  0  0  0  0  0
   35.3930   31.3020   39.9150 H   0  0  0  0  0  0  0  0  0  0  0  0
   36.9820   31.4070   41.8640 H   0  0  0  0  0  0  0  0  0  0  0  0
  1  3  1  0  0  0  0
  2  1  2  0  0  0  0
  3  4  1  0  0  0  0
  4  9  1  0  0  0  0
  4  5  1  0  0  0  0
  5  6  1  0  0  0  0
  5 11  1  0  0  0  0
  6 13  1  0  0  0  0
  7 16  1  0  0  0  0
  7  6  1  0  0  0  0
  8 17  1  6  0  0  0
  8  3  1  0  0  0  0
  8  7  1  0  0  0  0
 10  4  1  0  0  0  0
 12  5  1  0  0  0  0
 14  6  1  0  0  0  0
 15  7  1  0  0  0  0
 19 18  1  0  0  0  0
 20 19  1  0  0  0  0
 20  8  1  0  0  0  0
 21 20  2  0  0  0  0
 22 21  1  0  0  0  0
 23 25  2  0  0  0  0
 23 21  1  0  0  0  0
 24 23  1  0  0  0  0
 25 26  1  0  0  0  0
 26 19  2  0  0  0  0
 27 28  1  0  0  0  0
 27 33  1  0  0  0  0
 28  1  1  0  0  0  0
 29 35  1  0  0  0  0
 29 28  2  0  0  0  0
 30 29  1  0  0  0  0
 31 30  2  0  0  0  0
 31 32  1  0  0  0  0
 32 27  2  0  0  0  0
 34 31  1  0  0  0  0
 35 40  1  0  0  0  0
 36 37  1  0  0  0  0
 36 35  2  0  0  0  0
 37 38  2  0  0  0  0
 38 43  1  0  0  0  0
 38 39  1  0  0  0  0
 39 44  1  0  0  0  0
 40 39  2  0  0  0  0
 41 36  1  0  0  0  0
 42 37  1  0  0  0  0
M  END
>  <minimizedAffinity>
-5.67881727

$$$$

 OpenBabel03252507213D

 44 47  0  0  1  0  0  0  0  0999 V2000
   38.1690   29.9810   39.6890 C   0  0  0  0  0  0  0  0  0  0  0  0
   37.8860   29.5780   38.5200 O   0  0  0  0  0  0  0  0  0  0  0  0
   38.0720   29.1710   40.8680 N   0  0  0  0  0  0  0  0  0  0  0  0
   38.9930   29.0230   41.9920 C   0  0  0  0  0  0  0  0  0  0  0  0
   38.2270   29.2410   43.3050 C   0  0  0  0  0  0  0  0  0  0  0  0
   37.1840   28.1700   43.4660 C   0  0  0  0  0  0  0  0  0  0  0  0
   36.9770   27.4530   42.1600 C   0  0  0  0  0  0  0  0  0  0  0  0
   36.8830   28.3700   40.9850 C   0  0  2  0  0  0  0  0  0  0  0  0
   39.5750   28.1080   41.9810 H   0  0  0  0  0  0  0  0  0  0  0  0
   39.6790   29.9070   41.9110 H   0  0  0  0  0  0  0  0  0  0  0  0
   38.9060   29.3690   44.1410 H   0  0  0  0  0  0  0  0  0  0  0  0
   37.7040   30.2130   43.1480 H   0  0  0  0  0  0  0  0  0  0  0  0
   37.5870   27.3950   44.1770 H   0  0  0  0  0  0  0  0  0  0  0  0
   36.2490   28.5480   43.9230 H   0  0  0  0  0  0  0  0  0  0  0  0
   36.0470   26.8570   42.2370 H   0  0  0  0  0  0  0  0  0  0  0  0
   37.8750   26.7840   42.0180 H   0  0  0  0  0  0  0  0  0  0  0  0
   36.0320   29.0590   41.1700 H   0  0  0  0  0  0  0  0  0  0  0  0
   34.4830   29.2860   39.5420 Cl  0  0  0  0  0  0  0  0  0  0  0  0
   35.4490   27.8950   39.0190 C   0  0  0  0  0  0  0  0  0  0  0  0
   36.5710   27.5580   39.7840 C   0  0  0  0  0  0  0  0  0  0  0  0
   37.2620   26.4720   39.3120 C   0  0  0  0  0  0  0  0  0  0  0  0
   38.1400   26.1830   39.8880 H   0  0  0  0  0  0  0  0  0  0  0  0
   36.8760   25.7820   38.1820 C   0  0  0  0  0  0  0  0  0  0  0  0
   37.4430   24.9300   37.8350 H   0  0  0  0  0  0  0  0  0  0  0  0
   35.7620   26.1500   37.4580 C   0  0  0  0  0  3  0  0  0  0  0  0
   35.0260   27.2360   37.8830 C   0  0  0  0  0  3  0  0  0  0  0  0
   37.6910   32.3030   40.3050 C   0  0  0  0  0  0  0  0  0  0  0  0
   38.6160   31.3470   39.8270 C   0  0  0  0  0  0  0  0  0  0  0  0
   39.8970   31.7470   39.5120 C   0  0  0  0  0  0  0  0  0  0  0  0
   40.2260   33.0460   39.6720 N   0  0  0  0  0  0  0  0  0  0  0  0
   39.3470   33.9750   40.1300 C   0  0  0  0  0  0  0  0  0  0  0  0
   38.0950   33.5830   40.4370 N   0  0  0  0  0  0  0  0  0  0  0  0
   36.6900   32.0030   40.5530 H   0  0  0  0  0  0  0  0  0  0  0  0
   39.6360   35.0050   40.2470 H   0  0  0  0  0  0  0  0  0  0  0  0
   40.8310   30.7560   39.0190 C   0  0  0  0  0  0  0  0  0  0  0  0
   41.0310   30.6080   37.6800 C   0  0  0  0  0  0  0  0  0  0  0  0
   41.9270   29.6580   37.2250 C   0  0  0  0  0  0  0  0  0  0  0  0
   42.6370   28.8410   38.0770 C   0  0  0  0  0  0  0  0  0  0  0  0
   42.3990   29.0290   39.4360 C   0  0  0  0  0  0  0  0  0  0  0  0
   41.5230   29.9610   39.8340 N   0  0  0  0  0  0  0  0  0  0  0  0
   40.5610   31.1530   36.8920 H   0  0  0  0  0  0  0  0  0  0  0  0
   42.1320   29.4880   36.1690 H   0  0  0  0  0  0  0  0  0  0  0  0
   43.3410   28.0920   37.7360 H   0  0  0  0  0  0  0  0  0  0  0  0
   42.9050   28.4400   40.1900 H   0  0  0  0  0  0  0  0  0  0  0  0
  1 28  1  0  0  0  0
  1  3  1  0  0  0  0
  2  1  2  0  0  0  0
  3  8  1  0  0  0  0
  3  4  1  0  0  0  0
  4  5  1  0  0  0  0
  5  6  1  0  0  0  0
  5 11  1  0  0  0  0
  6 14  1  0  0  0  0
  6 13  1  0  0  0  0
  7 15  1  0  0  0  0
  7  6  1  0  0  0  0
  8 17  1  1  0  0  0
  8  7  1  0  0  0  0
  9  4  1  0  0  0  0
 10  4  1  0  0  0  0
 12  5  1  0  0  0  0
 16  7  1  0  0  0  0
 19 18  1  0  0  0  0
 19 20  1  0  0  0  0
 20  8  1  0  0  0  0
 21 20  2  0  0  0  0
 21 22  1  0  0  0  0
 23 21  1  0  0  0  0
 24 23  1  0  0  0  0
 25 26  1  0  0  0  0
 25 23  2  0  0  0  0
 26 19  2  0  0  0  0
 27 32  1  0  0  0  0
 27 33  1  0  0  0  0
 28 27  2  0  0  0  0
 29 30  2  0  0  0  0
 29 28  1  0  0  0  0
 30 31  1  0  0  0  0
 31 34  1  0  0  0  0
 31 32  2  0  0  0  0
 35 29  1  0  0  0  0
 35 40  1  0  0  0  0
 36 35  2  0  0  0  0
 37 36  1  0  0  0  0
 37 38  2  0  0  0  0
 38 39  1  0  0  0  0
 39 40  2  0  0  0  0
 39 44  1  0  0  0  0
 41 36  1  0  0  0  0
 42 37  1  0  0  0  0
 43 38  1  0  0  0  0
M  END
>  <minimizedAffinity>
-5.65825796

$$$$

 OpenBabel03252507213D

 44 47  0  0  1  0  0  0  0  0999 V2000
   38.5220   27.6460   38.8980 C   0  0  0  0  0  0  0  0  0  0  0  0
   39.4310   28.4910   39.1600 O   0  0  0  0  0  0  0  0  0  0  0  0
   37.2560   27.9760   38.3120 N   0  0  0  0  0  0  0  0  0  0  0  0
   36.5080   27.3190   37.2440 C   0  0  0  0  0  0  0  0  0  0  0  0
   35.0750   27.0500   37.7220 C   0  0  0  0  0  0  0  0  0  0  0  0
   34.3770   28.3550   37.9890 C   0  0  0  0  0  0  0  0  0  0  0  0
   35.3810   29.4720   38.0520 C   0  0  0  0  0  0  0  0  0  0  0  0
   36.5980   29.1370   38.8500 C   0  0  2  0  0  0  0  0  0  0  0  0
   36.5530   27.8240   36.2840 H   0  0  0  0  0  0  0  0  0  0  0  0
   36.9770   26.3030   37.1570 H   0  0  0  0  0  0  0  0  0  0  0  0
   34.5590   26.3650   37.0570 H   0  0  0  0  0  0  0  0  0  0  0  0
   35.2150   26.5270   38.6960 H   0  0  0  0  0  0  0  0  0  0  0  0
   33.7200   28.5860   37.1040 H   0  0  0  0  0  0  0  0  0  0  0  0
   33.7030   28.3080   38.8670 H   0  0  0  0  0  0  0  0  0  0  0  0
   34.8850   30.3590   38.4920 H   0  0  0  0  0  0  0  0  0  0  0  0
   35.7000   29.6740   36.9870 H   0  0  0  0  0  0  0  0  0  0  0  0
   36.2600   28.8830   39.8770 H   0  0  0  0  0  0  0  0  0  0  0  0
   36.2130   30.6870   41.3250 Cl  0  0  0  0  0  0  0  0  0  0  0  0
   37.3550   31.1660   40.0580 C   0  0  0  0  0  0  0  0  0  0  0  0
   37.4530   30.3460   38.9280 C   0  0  0  0  0  0  0  0  0  0  0  0
   38.3570   30.7860   37.9960 C   0  0  0  0  0  0  0  0  0  0  0  0
   38.4550   30.1690   37.1030 H   0  0  0  0  0  0  0  0  0  0  0  0
   39.0990   31.9360   38.1680 C   0  0  0  0  0  0  0  0  0  0  0  0
   39.8040   32.2550   37.4150 H   0  0  0  0  0  0  0  0  0  0  0  0
   38.9690   32.7140   39.2990 C   0  0  0  0  0  3  0  0  0  0  0  0
   38.0740   32.3230   40.2730 C   0  0  0  0  0  3  0  0  0  0  0  0
   39.1880   25.4050   38.1640 C   0  0  0  0  0  0  0  0  0  0  0  0
   38.7940   26.2630   39.2170 C   0  0  0  0  0  0  0  0  0  0  0  0
   38.6810   25.7570   40.4940 C   0  0  0  0  0  0  0  0  0  0  0  0
   38.9540   24.4520   40.6980 N   0  0  0  0  0  0  0  0  0  0  0  0
   39.3340   23.6160   39.6970 C   0  0  0  0  0  0  0  0  0  0  0  0
   39.4430   24.1120   38.4480 N   0  0  0  0  0  0  0  0  0  0  0  0
   39.2780   25.7890   37.1660 H   0  0  0  0  0  0  0  0  0  0  0  0
   39.5450   22.5780   39.8870 H   0  0  0  0  0  0  0  0  0  0  0  0
   38.2700   26.6490   41.5590 C   0  0  0  0  0  0  0  0  0  0  0  0
   39.2000   27.3640   42.2520 C   0  0  0  0  0  0  0  0  0  0  0  0
   38.7920   28.2120   43.2650 C   0  0  0  0  0  0  0  0  0  0  0  0
   37.4680   28.3690   43.6120 C   0  0  0  0  0  0  0  0  0  0  0  0
   36.5560   27.6170   42.8750 C   0  0  0  0  0  0  0  0  0  0  0  0
   36.9930   26.8090   41.9020 N   0  0  0  0  0  0  0  0  0  0  0  0
   40.2580   27.3540   42.1130 H   0  0  0  0  0  0  0  0  0  0  0  0
   39.4820   28.8100   43.8570 H   0  0  0  0  0  0  0  0  0  0  0  0
   37.1330   29.0280   44.4030 H   0  0  0  0  0  0  0  0  0  0  0  0
   35.4900   27.6670   43.0660 H   0  0  0  0  0  0  0  0  0  0  0  0
  1  2  2  0  0  0  0
  1 28  1  0  0  0  0
  3  8  1  0  0  0  0
  3  1  1  0  0  0  0
  4  5  1  0  0  0  0
  4  3  1  0  0  0  0
  5  6  1  0  0  0  0
  5 12  1  0  0  0  0
  6  7  1  0  0  0  0
  6 14  1  0  0  0  0
  7 15  1  0  0  0  0
  7  8  1  0  0  0  0
  8 20  1  0  0  0  0
  8 17  1  1  0  0  0
  9  4  1  0  0  0  0
 10  4  1  0  0  0  0
 11  5  1  0  0  0  0
 13  6  1  0  0  0  0
 16  7  1  0  0  0  0
 19 26  1  0  0  0  0
 19 18  1  0  0  0  0
 20 19  2  0  0  0  0
 21 23  2  0  0  0  0
 21 20  1  0  0  0  0
 22 21  1  0  0  0  0
 23 25  1  0  0  0  0
 24 23  1  0  0  0  0
 25 26  2  0  0  0  0
 27 32  2  0  0  0  0
 27 28  1  0  0  0  0
 28 29  2  0  0  0  0
 29 30  1  0  0  0  0
 29 35  1  0  0  0  0
 31 34  1  0  0  0  0
 31 30  2  0  0  0  0
 32 31  1  0  0  0  0
 33 27  1  0  0  0  0
 35 40  2  0  0  0  0
 35 36  1  0  0  0  0
 36 37  2  0  0  0  0
 37 38  1  0  0  0  0
 37 42  1  0  0  0  0
 38 43  1  0  0  0  0
 39 44  1  0  0  0  0
 39 38  2  0  0  0  0
 40 39  1  0  0  0  0
 41 36  1  0  0  0  0
M  END
>  <minimizedAffinity>
-5.64045668

$$$$
