
 OpenBabel03252501433D

 45 48  0  0  0  0  0  0  0  0999 V2000
   38.6520   31.1490   38.8290 C   0  0  0  0  0  0  0  0  0  0  0  0
   38.8210   32.0710   37.9450 O   0  0  0  0  0  0  0  0  0  0  0  0
   39.0030   31.5870   40.1480 N   0  0  0  0  0  0  0  0  0  0  0  0
   38.9110   31.0110   40.9850 H   0  0  0  0  0  0  0  0  0  0  0  0
   39.4920   32.9520   40.0700 C   0  0  0  0  0  0  0  0  0  0  0  0
   38.7340   34.0810   40.0560 C   0  0  0  0  0  0  0  0  0  0  0  0
   39.3830   35.2860   39.9780 C   0  0  0  0  0  0  0  0  0  0  0  0
   40.7270   35.2750   39.9200 N   0  0  0  0  0  0  0  0  0  0  0  0
   41.4630   34.1400   39.9350 C   0  0  0  0  0  0  0  0  0  0  0  0
   40.8350   32.9450   40.0120 N   0  0  0  0  0  0  0  0  0  0  0  0
   38.7880   36.1890   39.9660 H   0  0  0  0  0  0  0  0  0  0  0  0
   42.6920   33.8450   37.1620 Cl  0  0  0  0  0  0  0  0  0  0  0  0
   43.5500   34.0850   38.6520 C   0  0  0  0  0  0  0  0  0  0  0  0
   42.9370   34.2090   39.8690 C   0  0  0  0  0  0  0  0  0  0  0  0
   43.6470   34.3980   41.0360 C   0  0  0  0  0  0  0  0  0  0  0  0
   43.0990   34.4910   41.9740 H   0  0  0  0  0  0  0  0  0  0  0  0
   45.0110   34.4710   41.0390 C   0  0  0  0  0  0  0  0  0  0  0  0
   45.5090   34.6200   41.9860 H   0  0  0  0  0  0  0  0  0  0  0  0
   45.6650   34.3500   39.8330 C   0  0  0  0  0  3  0  0  0  0  0  0
   44.9440   34.1590   38.6540 C   0  0  0  0  0  3  0  0  0  0  0  0
   37.3310   33.9170   40.1240 N   0  0  0  0  0  0  0  0  0  0  0  0
   36.7740   34.4170   40.8550 H   0  0  0  0  0  0  0  0  0  0  0  0
   36.6820   33.3440   39.5340 H   0  0  0  0  0  0  0  0  0  0  0  0
   38.1880   29.8520   38.6240 O   0  0  0  0  0  0  0  0  0  0  0  0
   40.2180   28.0870   39.8920 Cl  0  0  0  0  0  0  0  0  0  0  0  0
   38.5550   28.3070   40.3940 C   0  0  0  0  0  0  0  0  0  0  0  0
   37.6740   29.1600   39.7340 C   0  0  0  0  0  0  0  0  0  0  0  0
   36.3850   29.2970   40.1650 C   0  0  0  0  0  0  0  0  0  0  0  0
   35.8860   28.6140   41.2580 C   0  0  0  0  0  0  0  0  0  0  0  0
   36.7560   27.7440   41.9430 C   0  0  0  0  0  0  0  0  0  0  0  0
   36.2050   26.8350   43.3430 Cl  0  0  0  0  0  0  0  0  0  0  0  0
   38.0520   27.6330   41.4760 C   0  0  0  0  0  0  0  0  0  0  0  0
   35.7660   29.9790   39.5980 H   0  0  0  0  0  0  0  0  0  0  0  0
   34.8630   28.7300   41.5910 H   0  0  0  0  0  0  0  0  0  0  0  0
   39.5960   28.5830   43.5080 F   0  0  0  0  0  0  0  0  0  0  0  0
   39.7360   27.2460   43.2070 C   0  0  0  0  0  0  0  0  0  0  0  0
   38.9640   26.7350   42.1800 C   0  0  0  0  0  0  0  0  0  0  0  0
   39.1320   25.3750   41.9000 C   0  0  0  0  0  0  0  0  0  0  0  0
   40.0330   24.6330   42.6450 C   0  0  0  0  0  0  0  0  0  0  0  0
   40.7810   25.2130   43.6690 C   0  0  0  0  0  0  0  0  0  0  0  0
   40.6410   26.5640   43.9760 C   0  0  0  0  0  0  0  0  0  0  0  0
   38.5280   24.9740   41.0960 H   0  0  0  0  0  0  0  0  0  0  0  0
   40.1300   23.5850   42.3940 H   0  0  0  0  0  0  0  0  0  0  0  0
   41.4780   24.6190   44.2390 H   0  0  0  0  0  0  0  0  0  0  0  0
   41.2000   27.0520   44.7620 H   0  0  0  0  0  0  0  0  0  0  0  0
  1  3  1  0  0  0  0
  2  1  2  0  0  0  0
  3  4  1  0  0  0  0
  5  3  1  0  0  0  0
  6  5  1  0  0  0  0
  6 21  1  0  0  0  0
  7  6  2  0  0  0  0
  8  9  2  0  0  0  0
  8  7  1  0  0  0  0
  9 10  1  0  0  0  0
 10  5  2  0  0  0  0
 11  7  1  0  0  0  0
 12 13  1  0  0  0  0
 13 20  2  0  0  0  0
 13 14  1  0  0  0  0
 14  9  1  0  0  0  0
 14 15  2  0  0  0  0
 15 17  1  0  0  0  0
 15 16  1  0  0  0  0
 17 18  1  0  0  0  0
 19 17  2  0  0  0  0
 20 19  1  0  0  0  0
 21 22  1  0  0  0  0
 23 21  1  0  0  0  0
 24  1  1  0  0  0  0
 24 27  1  0  0  0  0
 25 26  1  0  0  0  0
 26 32  1  0  0  0  0
 27 28  1  0  0  0  0
 27 26  2  0  0  0  0
 28 29  2  0  0  0  0
 29 34  1  0  0  0  0
 29 30  1  0  0  0  0
 30 31  1  0  0  0  0
 32 30  2  0  0  0  0
 32 37  1  0  0  0  0
 33 28  1  0  0  0  0
 36 35  1  0  0  0  0
 36 41  1  0  0  0  0
 37 36  2  0  0  0  0
 38 37  1  0  0  0  0
 38 39  2  0  0  0  0
 39 40  1  0  0  0  0
 40 41  2  0  0  0  0
 40 44  1  0  0  0  0
 41 45  1  0  0  0  0
 42 38  1  0  0  0  0
 43 39  1  0  0  0  0
M  END
>  <minimizedAffinity>
-7.43921185

$$$$

 OpenBabel03252501433D

 45 48  0  0  0  0  0  0  0  0999 V2000
   40.3090   32.8210   38.8480 C   0  0  0  0  0  0  0  0  0  0  0  0
   41.2730   31.9700   38.7650 O   0  0  0  0  0  0  0  0  0  0  0  0
   40.7800   34.1640   39.0200 N   0  0  0  0  0  0  0  0  0  0  0  0
   40.1710   34.9800   39.0770 H   0  0  0  0  0  0  0  0  0  0  0  0
   42.2300   34.1430   39.0900 C   0  0  0  0  0  0  0  0  0  0  0  0
   43.0890   34.1500   38.0360 C   0  0  0  0  0  0  0  0  0  0  0  0
   44.4330   34.1270   38.3050 C   0  0  0  0  0  0  0  0  0  0  0  0
   44.8160   34.0980   39.5950 N   0  0  0  0  0  0  0  0  0  0  0  0
   43.9450   34.0910   40.6300 C   0  0  0  0  0  0  0  0  0  0  0  0
   42.6170   34.1140   40.3770 N   0  0  0  0  0  0  0  0  0  0  0  0
   45.1230   34.1330   37.4730 H   0  0  0  0  0  0  0  0  0  0  0  0
   44.2820   31.3250   41.8660 Cl  0  0  0  0  0  0  0  0  0  0  0  0
   44.6170   32.8470   42.6310 C   0  0  0  0  0  0  0  0  0  0  0  0
   44.4430   34.0590   42.0200 C   0  0  0  0  0  0  0  0  0  0  0  0
   44.7180   35.2510   42.6550 C   0  0  0  0  0  0  0  0  0  0  0  0
   44.5590   36.1840   42.1120 H   0  0  0  0  0  0  0  0  0  0  0  0
   45.1810   35.2860   43.9400 C   0  0  0  0  0  0  0  0  0  0  0  0
   45.3770   36.2520   44.3820 H   0  0  0  0  0  0  0  0  0  0  0  0
   45.3690   34.0860   44.5900 C   0  0  0  0  0  3  0  0  0  0  0  0
   45.0900   32.8820   43.9450 C   0  0  0  0  0  3  0  0  0  0  0  0
   42.5210   34.1820   36.7400 N   0  0  0  0  0  0  0  0  0  0  0  0
   42.8080   34.9180   36.0540 H   0  0  0  0  0  0  0  0  0  0  0  0
   41.8070   33.5600   36.2940 H   0  0  0  0  0  0  0  0  0  0  0  0
   38.9420   32.5620   38.7900 O   0  0  0  0  0  0  0  0  0  0  0  0
   38.9530   31.4350   41.5420 Cl  0  0  0  0  0  0  0  0  0  0  0  0
   38.5030   30.6050   40.0680 C   0  0  0  0  0  0  0  0  0  0  0  0
   38.5300   31.2180   38.8180 C   0  0  0  0  0  0  0  0  0  0  0  0
   38.1700   30.5270   37.6960 C   0  0  0  0  0  0  0  0  0  0  0  0
   37.7650   29.2060   37.7310 C   0  0  0  0  0  0  0  0  0  0  0  0
   37.7290   28.5610   38.9820 C   0  0  0  0  0  0  0  0  0  0  0  0
   37.2280   26.8820   39.1180 Cl  0  0  0  0  0  0  0  0  0  0  0  0
   38.1010   29.2950   40.0930 C   0  0  0  0  0  0  0  0  0  0  0  0
   38.2180   31.0760   36.7660 H   0  0  0  0  0  0  0  0  0  0  0  0
   37.4810   28.6680   36.8360 H   0  0  0  0  0  0  0  0  0  0  0  0
   40.3310   28.0610   41.0500 F   0  0  0  0  0  0  0  0  0  0  0  0
   39.2150   28.0180   41.8550 C   0  0  0  0  0  0  0  0  0  0  0  0
   38.0660   28.6370   41.3960 C   0  0  0  0  0  0  0  0  0  0  0  0
   36.9520   28.5730   42.2390 C   0  0  0  0  0  0  0  0  0  0  0  0
   37.0540   27.9160   43.4530 C   0  0  0  0  0  0  0  0  0  0  0  0
   38.2450   27.3130   43.8550 C   0  0  0  0  0  0  0  0  0  0  0  0
   39.3750   27.3550   43.0430 C   0  0  0  0  0  0  0  0  0  0  0  0
   36.0530   29.0570   41.8790 H   0  0  0  0  0  0  0  0  0  0  0  0
   36.1670   27.8920   44.0720 H   0  0  0  0  0  0  0  0  0  0  0  0
   38.3040   26.8050   44.8060 H   0  0  0  0  0  0  0  0  0  0  0  0
   40.3160   26.9010   43.3180 H   0  0  0  0  0  0  0  0  0  0  0  0
  1  3  1  0  0  0  0
  2  1  2  0  0  0  0
  3  4  1  0  0  0  0
  3  5  1  0  0  0  0
  5 10  1  0  0  0  0
  6  7  1  0  0  0  0
  6  5  2  0  0  0  0
  7  8  2  0  0  0  0
  8  9  1  0  0  0  0
  9 14  1  0  0  0  0
 10  9  2  0  0  0  0
 11  7  1  0  0  0  0
 12 13  1  0  0  0  0
 13 20  1  0  0  0  0
 14 13  2  0  0  0  0
 14 15  1  0  0  0  0
 15 17  2  0  0  0  0
 16 15  1  0  0  0  0
 17 18  1  0  0  0  0
 17 19  1  0  0  0  0
 20 19  2  0  0  0  0
 21  6  1  0  0  0  0
 22 21  1  0  0  0  0
 23 21  1  0  0  0  0
 24 27  1  0  0  0  0
 24  1  1  0  0  0  0
 26 32  1  0  0  0  0
 26 25  1  0  0  0  0
 27 26  2  0  0  0  0
 28 29  2  0  0  0  0
 28 27  1  0  0  0  0
 29 30  1  0  0  0  0
 30 31  1  0  0  0  0
 30 32  2  0  0  0  0
 32 37  1  0  0  0  0
 33 28  1  0  0  0  0
 34 29  1  0  0  0  0
 35 36  1  0  0  0  0
 36 41  1  0  0  0  0
 37 36  2  0  0  0  0
 37 38  1  0  0  0  0
 38 39  2  0  0  0  0
 39 40  1  0  0  0  0
 39 43  1  0  0  0  0
 40 44  1  0  0  0  0
 41 45  1  0  0  0  0
 41 40  2  0  0  0  0
 42 38  1  0  0  0  0
M  END
>  <minimizedAffinity>
-7.26216698

$$$$

 OpenBabel03252501433D

 45 48  0  0  0  0  0  0  0  0999 V2000
   37.6940   31.8090   40.5590 C   0  0  0  0  0  0  0  0  0  0  0  0
   37.6480   32.4990   39.4720 O   0  0  0  0  0  0  0  0  0  0  0  0
   38.9380   31.9680   41.2550 N   0  0  0  0  0  0  0  0  0  0  0  0
   39.1540   31.5250   42.1480 H   0  0  0  0  0  0  0  0  0  0  0  0
   39.7950   32.8450   40.4780 C   0  0  0  0  0  0  0  0  0  0  0  0
   39.7730   34.2040   40.4820 C   0  0  0  0  0  0  0  0  0  0  0  0
   40.6670   34.8610   39.6750 C   0  0  0  0  0  0  0  0  0  0  0  0
   41.5090   34.1190   38.9330 N   0  0  0  0  0  0  0  0  0  0  0  0
   41.5140   32.7650   38.9440 C   0  0  0  0  0  0  0  0  0  0  0  0
   40.6370   32.1070   39.7350 N   0  0  0  0  0  0  0  0  0  0  0  0
   40.6560   35.9420   39.6720 H   0  0  0  0  0  0  0  0  0  0  0  0
   44.4280   32.8430   39.8340 Cl  0  0  0  0  0  0  0  0  0  0  0  0
   43.7930   32.0160   38.4470 C   0  0  0  0  0  0  0  0  0  0  0  0
   42.4690   32.0200   38.1000 C   0  0  0  0  0  0  0  0  0  0  0  0
   41.9950   31.3520   36.9900 C   0  0  0  0  0  0  0  0  0  0  0  0
   40.9280   31.3940   36.7690 H   0  0  0  0  0  0  0  0  0  0  0  0
   42.8300   30.6450   36.1710 C   0  0  0  0  0  0  0  0  0  0  0  0
   42.3970   30.1440   35.3170 H   0  0  0  0  0  0  0  0  0  0  0  0
   44.1700   30.6170   36.4860 C   0  0  0  0  0  3  0  0  0  0  0  0
   44.6460   31.2930   37.6090 C   0  0  0  0  0  3  0  0  0  0  0  0
   38.8240   34.8320   41.3220 N   0  0  0  0  0  0  0  0  0  0  0  0
   39.1280   35.5530   42.0170 H   0  0  0  0  0  0  0  0  0  0  0  0
   37.7870   34.7070   41.3920 H   0  0  0  0  0  0  0  0  0  0  0  0
   36.7040   30.9780   41.0790 O   0  0  0  0  0  0  0  0  0  0  0  0
   38.1650   28.7260   42.3600 Cl  0  0  0  0  0  0  0  0  0  0  0  0
   37.1160   28.6390   40.9610 C   0  0  0  0  0  0  0  0  0  0  0  0
   36.4730   29.7530   40.4290 C   0  0  0  0  0  0  0  0  0  0  0  0
   35.6640   29.6330   39.3350 C   0  0  0  0  0  0  0  0  0  0  0  0
   35.4400   28.4250   38.7010 C   0  0  0  0  0  0  0  0  0  0  0  0
   36.0790   27.2820   39.2170 C   0  0  0  0  0  0  0  0  0  0  0  0
   35.8520   25.7060   38.4730 Cl  0  0  0  0  0  0  0  0  0  0  0  0
   36.8890   27.4450   40.3250 C   0  0  0  0  0  0  0  0  0  0  0  0
   35.2010   30.5460   38.9850 H   0  0  0  0  0  0  0  0  0  0  0  0
   34.7970   28.3410   37.8340 H   0  0  0  0  0  0  0  0  0  0  0  0
   39.3700   26.7580   39.4380 F   0  0  0  0  0  0  0  0  0  0  0  0
   38.8160   25.9420   40.4000 C   0  0  0  0  0  0  0  0  0  0  0  0
   37.5570   26.2660   40.8710 C   0  0  0  0  0  0  0  0  0  0  0  0
   37.0250   25.4170   41.8460 C   0  0  0  0  0  0  0  0  0  0  0  0
   37.7650   24.3290   42.2780 C   0  0  0  0  0  0  0  0  0  0  0  0
   39.0310   24.0600   41.7600 C   0  0  0  0  0  0  0  0  0  0  0  0
   39.5930   24.8840   40.7880 C   0  0  0  0  0  0  0  0  0  0  0  0
   36.0390   25.6700   42.2140 H   0  0  0  0  0  0  0  0  0  0  0  0
   37.3150   23.7000   43.0340 H   0  0  0  0  0  0  0  0  0  0  0  0
   39.5930   23.2080   42.1100 H   0  0  0  0  0  0  0  0  0  0  0  0
   40.5710   24.7100   40.3620 H   0  0  0  0  0  0  0  0  0  0  0  0
  1 24  1  0  0  0  0
  1  3  1  0  0  0  0
  2  1  2  0  0  0  0
  3  4  1  0  0  0  0
  5  6  1  0  0  0  0
  5  3  1  0  0  0  0
  6 21  1  0  0  0  0
  7  6  2  0  0  0  0
  8  9  2  0  0  0  0
  8  7  1  0  0  0  0
  9 10  1  0  0  0  0
 10  5  2  0  0  0  0
 11  7  1  0  0  0  0
 13 12  1  0  0  0  0
 14 13  1  0  0  0  0
 14  9  1  0  0  0  0
 15 14  2  0  0  0  0
 16 15  1  0  0  0  0
 17 19  2  0  0  0  0
 17 15  1  0  0  0  0
 18 17  1  0  0  0  0
 19 20  1  0  0  0  0
 20 13  2  0  0  0  0
 21 23  1  0  0  0  0
 21 22  1  0  0  0  0
 26 25  1  0  0  0  0
 27 26  1  0  0  0  0
 27 24  1  0  0  0  0
 28 27  2  0  0  0  0
 29 30  2  0  0  0  0
 29 28  1  0  0  0  0
 30 32  1  0  0  0  0
 31 30  1  0  0  0  0
 32 37  1  0  0  0  0
 32 26  2  0  0  0  0
 33 28  1  0  0  0  0
 34 29  1  0  0  0  0
 35 36  1  0  0  0  0
 36 41  2  0  0  0  0
 36 37  1  0  0  0  0
 37 38  2  0  0  0  0
 38 42  1  0  0  0  0
 38 39  1  0  0  0  0
 39 43  1  0  0  0  0
 40 44  1  0  0  0  0
 40 39  2  0  0  0  0
 41 40  1  0  0  0  0
 45 41  1  0  0  0  0
M  END
>  <minimizedAffinity>
-7.06294632

$$$$

 OpenBabel03252501433D

 45 48  0  0  0  0  0  0  0  0999 V2000
   38.5130   31.1000   41.3320 C   0  0  0  0  0  0  0  0  0  0  0  0
   38.1880   31.4580   40.1380 O   0  0  0  0  0  0  0  0  0  0  0  0
   39.6730   31.7910   41.8140 N   0  0  0  0  0  0  0  0  0  0  0  0
   40.0670   31.6660   42.7460 H   0  0  0  0  0  0  0  0  0  0  0  0
   40.1570   32.6710   40.7660 C   0  0  0  0  0  0  0  0  0  0  0  0
   39.7940   33.9660   40.5670 C   0  0  0  0  0  0  0  0  0  0  0  0
   40.3660   34.6370   39.5160 C   0  0  0  0  0  0  0  0  0  0  0  0
   41.2480   33.9710   38.7490 N   0  0  0  0  0  0  0  0  0  0  0  0
   41.5960   32.6810   38.9640 C   0  0  0  0  0  0  0  0  0  0  0  0
   41.0390   32.0090   39.9970 N   0  0  0  0  0  0  0  0  0  0  0  0
   40.0830   35.6680   39.3510 H   0  0  0  0  0  0  0  0  0  0  0  0
   44.5340   33.1510   39.6240 Cl  0  0  0  0  0  0  0  0  0  0  0  0
   43.9090   32.1890   38.3220 C   0  0  0  0  0  0  0  0  0  0  0  0
   42.5730   32.0180   38.0770 C   0  0  0  0  0  0  0  0  0  0  0  0
   42.1070   31.2480   37.0330 C   0  0  0  0  0  0  0  0  0  0  0  0
   41.0300   31.1500   36.8920 H   0  0  0  0  0  0  0  0  0  0  0  0
   42.9620   30.6100   36.1790 C   0  0  0  0  0  0  0  0  0  0  0  0
   42.5350   30.0210   35.3800 H   0  0  0  0  0  0  0  0  0  0  0  0
   44.3150   30.7580   36.3910 C   0  0  0  0  0  3  0  0  0  0  0  0
   44.7830   31.5380   37.4490 C   0  0  0  0  0  3  0  0  0  0  0  0
   38.8520   34.5170   41.4670 N   0  0  0  0  0  0  0  0  0  0  0  0
   39.0640   35.4080   41.9750 H   0  0  0  0  0  0  0  0  0  0  0  0
   37.9020   34.1810   41.7500 H   0  0  0  0  0  0  0  0  0  0  0  0
   37.8750   30.1610   42.1390 O   0  0  0  0  0  0  0  0  0  0  0  0
   36.5310   28.1810   40.3730 Cl  0  0  0  0  0  0  0  0  0  0  0  0
   37.8870   27.8880   41.4400 C   0  0  0  0  0  0  0  0  0  0  0  0
   38.4520   28.8820   42.2350 C   0  0  0  0  0  0  0  0  0  0  0  0
   39.5100   28.6030   43.0520 C   0  0  0  0  0  0  0  0  0  0  0  0
   40.0730   27.3440   43.1400 C   0  0  0  0  0  0  0  0  0  0  0  0
   39.5210   26.3190   42.3480 C   0  0  0  0  0  0  0  0  0  0  0  0
   40.1730   24.6880   42.3990 Cl  0  0  0  0  0  0  0  0  0  0  0  0
   38.4510   26.6420   41.5350 C   0  0  0  0  0  0  0  0  0  0  0  0
   39.8900   29.4310   43.6350 H   0  0  0  0  0  0  0  0  0  0  0  0
   40.9110   27.1330   43.7910 H   0  0  0  0  0  0  0  0  0  0  0  0
   36.5040   25.0340   42.5550 F   0  0  0  0  0  0  0  0  0  0  0  0
   36.8840   24.7870   41.2540 C   0  0  0  0  0  0  0  0  0  0  0  0
   37.8700   25.5870   40.7080 C   0  0  0  0  0  0  0  0  0  0  0  0
   38.2320   25.3070   39.3860 C   0  0  0  0  0  0  0  0  0  0  0  0
   37.6000   24.2750   38.7130 C   0  0  0  0  0  0  0  0  0  0  0  0
   36.6110   23.5060   39.3240 C   0  0  0  0  0  0  0  0  0  0  0  0
   36.2250   23.7550   40.6380 C   0  0  0  0  0  0  0  0  0  0  0  0
   39.0050   25.9330   38.9590 H   0  0  0  0  0  0  0  0  0  0  0  0
   37.9120   24.0940   37.6930 H   0  0  0  0  0  0  0  0  0  0  0  0
   36.1310   22.7060   38.7830 H   0  0  0  0  0  0  0  0  0  0  0  0
   35.4630   23.1830   41.1480 H   0  0  0  0  0  0  0  0  0  0  0  0
  1  3  1  0  0  0  0
  1 24  1  0  0  0  0
  2  1  2  0  0  0  0
  3  4  1  0  0  0  0
  5  3  1  0  0  0  0
  6  5  1  0  0  0  0
  6 21  1  0  0  0  0
  7  6  2  0  0  0  0
  8  9  2  0  0  0  0
  8  7  1  0  0  0  0
  9 10  1  0  0  0  0
 10  5  2  0  0  0  0
 11  7  1  0  0  0  0
 13 12  1  0  0  0  0
 14 13  1  0  0  0  0
 14  9  1  0  0  0  0
 15 14  2  0  0  0  0
 16 15  1  0  0  0  0
 17 19  2  0  0  0  0
 17 15  1  0  0  0  0
 18 17  1  0  0  0  0
 19 20  1  0  0  0  0
 20 13  2  0  0  0  0
 21 23  1  0  0  0  0
 21 22  1  0  0  0  0
 24 27  1  0  0  0  0
 25 26  1  0  0  0  0
 26 32  2  0  0  0  0
 26 27  1  0  0  0  0
 27 28  2  0  0  0  0
 28 29  1  0  0  0  0
 28 33  1  0  0  0  0
 29 34  1  0  0  0  0
 30 31  1  0  0  0  0
 30 29  2  0  0  0  0
 32 30  1  0  0  0  0
 36 35  1  0  0  0  0
 37 36  1  0  0  0  0
 37 32  1  0  0  0  0
 38 37  2  0  0  0  0
 39 40  2  0  0  0  0
 39 38  1  0  0  0  0
 40 41  1  0  0  0  0
 41 45  1  0  0  0  0
 41 36  2  0  0  0  0
 42 38  1  0  0  0  0
 43 39  1  0  0  0  0
 44 40  1  0  0  0  0
M  END
>  <minimizedAffinity>
-7.05316877

$$$$

 OpenBabel03252501433D

 45 48  0  0  0  0  0  0  0  0999 V2000
   38.0720   30.7020   40.6580 C   0  0  0  0  0  0  0  0  0  0  0  0
   38.2940   31.4530   41.6810 O   0  0  0  0  0  0  0  0  0  0  0  0
   38.4910   31.3130   39.4300 N   0  0  0  0  0  0  0  0  0  0  0  0
   38.4250   30.8640   38.5170 H   0  0  0  0  0  0  0  0  0  0  0  0
   39.0090   32.6360   39.7240 C   0  0  0  0  0  0  0  0  0  0  0  0
   38.2760   33.7630   39.9300 C   0  0  0  0  0  0  0  0  0  0  0  0
   38.9510   34.9260   40.1970 C   0  0  0  0  0  0  0  0  0  0  0  0
   40.2950   34.8790   40.2380 N   0  0  0  0  0  0  0  0  0  0  0  0
   41.0070   33.7470   40.0290 C   0  0  0  0  0  0  0  0  0  0  0  0
   40.3520   32.5930   39.7660 N   0  0  0  0  0  0  0  0  0  0  0  0
   38.3750   35.8270   40.3620 H   0  0  0  0  0  0  0  0  0  0  0  0
   42.4500   34.0490   37.3630 Cl  0  0  0  0  0  0  0  0  0  0  0  0
   43.1890   33.9100   38.9270 C   0  0  0  0  0  0  0  0  0  0  0  0
   42.4820   33.7750   40.0910 C   0  0  0  0  0  0  0  0  0  0  0  0
   43.0980   33.6660   41.3200 C   0  0  0  0  0  0  0  0  0  0  0  0
   42.4780   33.5630   42.2110 H   0  0  0  0  0  0  0  0  0  0  0  0
   44.4590   33.6870   41.4410 C   0  0  0  0  0  0  0  0  0  0  0  0
   44.8810   33.5960   42.4310 H   0  0  0  0  0  0  0  0  0  0  0  0
   45.2060   33.8200   40.2920 C   0  0  0  0  0  3  0  0  0  0  0  0
   44.5800   33.9300   39.0510 C   0  0  0  0  0  3  0  0  0  0  0  0
   36.8690   33.6400   39.8520 N   0  0  0  0  0  0  0  0  0  0  0  0
   36.2650   33.9680   40.6410 H   0  0  0  0  0  0  0  0  0  0  0  0
   36.2600   33.2510   39.0950 H   0  0  0  0  0  0  0  0  0  0  0  0
   37.4980   29.4330   40.6460 O   0  0  0  0  0  0  0  0  0  0  0  0
   37.2660   26.8630   39.1670 Cl  0  0  0  0  0  0  0  0  0  0  0  0
   38.1530   27.1470   40.6500 C   0  0  0  0  0  0  0  0  0  0  0  0
   38.2040   28.3910   41.2730 C   0  0  0  0  0  0  0  0  0  0  0  0
   38.9090   28.5620   42.4290 C   0  0  0  0  0  0  0  0  0  0  0  0
   39.6020   27.5330   43.0410 C   0  0  0  0  0  0  0  0  0  0  0  0
   39.5670   26.2640   42.4320 C   0  0  0  0  0  0  0  0  0  0  0  0
   40.4170   24.8990   43.1420 Cl  0  0  0  0  0  0  0  0  0  0  0  0
   38.8410   26.1320   41.2630 C   0  0  0  0  0  0  0  0  0  0  0  0
   38.8990   29.5590   42.8490 H   0  0  0  0  0  0  0  0  0  0  0  0
   40.1580   27.6790   43.9570 H   0  0  0  0  0  0  0  0  0  0  0  0
   36.9590   24.3140   42.0160 F   0  0  0  0  0  0  0  0  0  0  0  0
   37.8310   23.9180   41.0260 C   0  0  0  0  0  0  0  0  0  0  0  0
   38.7980   24.8200   40.6220 C   0  0  0  0  0  0  0  0  0  0  0  0
   39.6680   24.3850   39.6170 C   0  0  0  0  0  0  0  0  0  0  0  0
   39.5170   23.1120   39.0930 C   0  0  0  0  0  0  0  0  0  0  0  0
   38.5180   22.2520   39.5470 C   0  0  0  0  0  0  0  0  0  0  0  0
   37.6350   22.6510   40.5460 C   0  0  0  0  0  0  0  0  0  0  0  0
   40.4250   25.0910   39.3010 H   0  0  0  0  0  0  0  0  0  0  0  0
   40.2120   22.8180   38.3170 H   0  0  0  0  0  0  0  0  0  0  0  0
   38.4170   21.2640   39.1250 H   0  0  0  0  0  0  0  0  0  0  0  0
   36.8470   22.0150   40.9250 H   0  0  0  0  0  0  0  0  0  0  0  0
  1  2  2  0  0  0  0
  3  5  1  0  0  0  0
  3  1  1  0  0  0  0
  4  3  1  0  0  0  0
  5 10  2  0  0  0  0
  5  6  1  0  0  0  0
  6  7  2  0  0  0  0
  7  8  1  0  0  0  0
  7 11  1  0  0  0  0
  9 14  1  0  0  0  0
  9  8  2  0  0  0  0
 10  9  1  0  0  0  0
 12 13  1  0  0  0  0
 13 20  2  0  0  0  0
 13 14  1  0  0  0  0
 14 15  2  0  0  0  0
 15 17  1  0  0  0  0
 15 16  1  0  0  0  0
 17 18  1  0  0  0  0
 19 17  2  0  0  0  0
 20 19  1  0  0  0  0
 21  6  1  0  0  0  0
 21 22  1  0  0  0  0
 23 21  1  0  0  0  0
 24  1  1  0  0  0  0
 24 27  1  0  0  0  0
 25 26  1  0  0  0  0
 26 32  2  0  0  0  0
 26 27  1  0  0  0  0
 27 28  2  0  0  0  0
 28 33  1  0  0  0  0
 28 29  1  0  0  0  0
 29 34  1  0  0  0  0
 30 29  2  0  0  0  0
 30 31  1  0  0  0  0
 32 30  1  0  0  0  0
 36 35  1  0  0  0  0
 37 36  1  0  0  0  0
 37 32  1  0  0  0  0
 38 37  2  0  0  0  0
 39 40  2  0  0  0  0
 39 38  1  0  0  0  0
 40 41  1  0  0  0  0
 41 45  1  0  0  0  0
 41 36  2  0  0  0  0
 42 38  1  0  0  0  0
 43 39  1  0  0  0  0
 44 40  1  0  0  0  0
M  END
>  <minimizedAffinity>
-7.04007196

$$$$

 OpenBabel03252501433D

 45 48  0  0  0  0  0  0  0  0999 V2000
   36.1040   28.9300   37.4050 C   0  0  0  0  0  0  0  0  0  0  0  0
   35.8020   29.0300   36.1560 O   0  0  0  0  0  0  0  0  0  0  0  0
   35.0380   28.3670   38.1810 N   0  0  0  0  0  0  0  0  0  0  0  0
   35.0960   28.1820   39.1820 H   0  0  0  0  0  0  0  0  0  0  0  0
   33.9080   28.1180   37.3050 C   0  0  0  0  0  0  0  0  0  0  0  0
   33.5810   26.9310   36.7270 C   0  0  0  0  0  0  0  0  0  0  0  0
   32.4680   26.8950   35.9260 C   0  0  0  0  0  0  0  0  0  0  0  0
   31.7720   28.0340   35.7620 N   0  0  0  0  0  0  0  0  0  0  0  0
   32.1150   29.2060   36.3460 C   0  0  0  0  0  0  0  0  0  0  0  0
   33.2090   29.2550   37.1390 N   0  0  0  0  0  0  0  0  0  0  0  0
   32.2010   25.9540   35.4630 H   0  0  0  0  0  0  0  0  0  0  0  0
   30.2850   30.0360   38.6380 Cl  0  0  0  0  0  0  0  0  0  0  0  0
   30.4570   30.8410   37.1100 C   0  0  0  0  0  0  0  0  0  0  0  0
   31.2990   30.4150   36.1190 C   0  0  0  0  0  0  0  0  0  0  0  0
   31.4130   31.0770   34.9140 C   0  0  0  0  0  0  0  0  0  0  0  0
   32.1020   30.6870   34.1640 H   0  0  0  0  0  0  0  0  0  0  0  0
   30.6850   32.2010   34.6440 C   0  0  0  0  0  0  0  0  0  0  0  0
   30.8180   32.6730   33.6820 H   0  0  0  0  0  0  0  0  0  0  0  0
   29.8260   32.6610   35.6180 C   0  0  0  0  0  3  0  0  0  0  0  0
   29.7130   31.9900   36.8350 C   0  0  0  0  0  3  0  0  0  0  0  0
   34.4200   25.8270   37.0030 N   0  0  0  0  0  0  0  0  0  0  0  0
   34.0160   24.9350   37.3740 H   0  0  0  0  0  0  0  0  0  0  0  0
   35.4560   25.7150   36.9000 H   0  0  0  0  0  0  0  0  0  0  0  0
   37.2980   29.2980   38.0210 O   0  0  0  0  0  0  0  0  0  0  0  0
   38.6310   26.7880   38.8970 Cl  0  0  0  0  0  0  0  0  0  0  0  0
   37.9800   28.0460   39.9250 C   0  0  0  0  0  0  0  0  0  0  0  0
   37.3690   29.1920   39.4220 C   0  0  0  0  0  0  0  0  0  0  0  0
   36.8760   30.1460   40.2650 C   0  0  0  0  0  0  0  0  0  0  0  0
   36.9500   30.0360   41.6410 C   0  0  0  0  0  0  0  0  0  0  0  0
   37.5620   28.8870   42.1770 C   0  0  0  0  0  0  0  0  0  0  0  0
   37.6980   28.6640   43.9150 Cl  0  0  0  0  0  0  0  0  0  0  0  0
   38.0480   27.9450   41.2900 C   0  0  0  0  0  0  0  0  0  0  0  0
   36.4180   31.0050   39.7940 H   0  0  0  0  0  0  0  0  0  0  0  0
   36.5560   30.7980   42.3010 H   0  0  0  0  0  0  0  0  0  0  0  0
   36.5740   25.6960   41.7170 F   0  0  0  0  0  0  0  0  0  0  0  0
   37.9110   25.6230   42.0410 C   0  0  0  0  0  0  0  0  0  0  0  0
   38.6860   26.7490   41.8350 C   0  0  0  0  0  0  0  0  0  0  0  0
   40.0380   26.6400   42.1750 C   0  0  0  0  0  0  0  0  0  0  0  0
   40.5160   25.4450   42.6840 C   0  0  0  0  0  0  0  0  0  0  0  0
   39.6790   24.3450   42.8670 C   0  0  0  0  0  0  0  0  0  0  0  0
   38.3280   24.4170   42.5390 C   0  0  0  0  0  0  0  0  0  0  0  0
   40.6440   27.5230   42.0140 H   0  0  0  0  0  0  0  0  0  0  0  0
   41.5680   25.4050   42.9330 H   0  0  0  0  0  0  0  0  0  0  0  0
   40.0710   23.4220   43.2650 H   0  0  0  0  0  0  0  0  0  0  0  0
   37.6450   23.5880   42.6650 H   0  0  0  0  0  0  0  0  0  0  0  0
  1 24  1  0  0  0  0
  1  3  1  0  0  0  0
  2  1  2  0  0  0  0
  3  4  1  0  0  0  0
  5  3  1  0  0  0  0
  6 21  1  0  0  0  0
  6  5  2  0  0  0  0
  7  6  1  0  0  0  0
  8  7  2  0  0  0  0
  8  9  1  0  0  0  0
  9 10  2  0  0  0  0
 10  5  1  0  0  0  0
 11  7  1  0  0  0  0
 13 12  1  0  0  0  0
 14  9  1  0  0  0  0
 14 13  2  0  0  0  0
 15 14  1  0  0  0  0
 16 15  1  0  0  0  0
 17 15  2  0  0  0  0
 17 19  1  0  0  0  0
 18 17  1  0  0  0  0
 19 20  2  0  0  0  0
 20 13  1  0  0  0  0
 21 22  1  0  0  0  0
 23 21  1  0  0  0  0
 24 27  1  0  0  0  0
 25 26  1  0  0  0  0
 26 32  1  0  0  0  0
 27 26  2  0  0  0  0
 27 28  1  0  0  0  0
 28 29  2  0  0  0  0
 29 30  1  0  0  0  0
 29 34  1  0  0  0  0
 30 31  1  0  0  0  0
 32 37  1  0  0  0  0
 32 30  2  0  0  0  0
 33 28  1  0  0  0  0
 35 36  1  0  0  0  0
 36 41  1  0  0  0  0
 37 36  2  0  0  0  0
 37 38  1  0  0  0  0
 38 39  2  0  0  0  0
 39 40  1  0  0  0  0
 39 43  1  0  0  0  0
 40 44  1  0  0  0  0
 41 45  1  0  0  0  0
 41 40  2  0  0  0  0
 42 38  1  0  0  0  0
M  END
>  <minimizedAffinity>
-6.93329859

$$$$

 OpenBabel03252501433D

 45 48  0  0  0  0  0  0  0  0999 V2000
   38.7130   28.4250   43.0670 C   0  0  0  0  0  0  0  0  0  0  0  0
   37.9590   27.5850   43.6880 O   0  0  0  0  0  0  0  0  0  0  0  0
   39.6450   27.7770   42.1890 N   0  0  0  0  0  0  0  0  0  0  0  0
   40.3050   28.2720   41.5910 H   0  0  0  0  0  0  0  0  0  0  0  0
   39.4720   26.3410   42.3080 C   0  0  0  0  0  0  0  0  0  0  0  0
   40.0100   25.5400   43.2660 C   0  0  0  0  0  0  0  0  0  0  0  0
   39.7300   24.1980   43.2090 C   0  0  0  0  0  0  0  0  0  0  0  0
   38.9410   23.7610   42.2110 N   0  0  0  0  0  0  0  0  0  0  0  0
   38.4160   24.5750   41.2670 C   0  0  0  0  0  0  0  0  0  0  0  0
   38.6850   25.9000   41.3110 N   0  0  0  0  0  0  0  0  0  0  0  0
   40.1540   23.5540   43.9680 H   0  0  0  0  0  0  0  0  0  0  0  0
   39.8390   23.7460   38.7020 Cl  0  0  0  0  0  0  0  0  0  0  0  0
   38.1370   23.6280   39.0240 C   0  0  0  0  0  0  0  0  0  0  0  0
   37.5580   24.0200   40.2010 C   0  0  0  0  0  0  0  0  0  0  0  0
   36.2020   23.9130   40.4270 C   0  0  0  0  0  0  0  0  0  0  0  0
   35.8030   24.2430   41.3860 H   0  0  0  0  0  0  0  0  0  0  0  0
   35.3570   23.4070   39.4790 C   0  0  0  0  0  0  0  0  0  0  0  0
   34.3050   23.3500   39.7170 H   0  0  0  0  0  0  0  0  0  0  0  0
   35.9020   23.0010   38.2810 C   0  0  0  0  0  3  0  0  0  0  0  0
   37.2740   23.1110   38.0560 C   0  0  0  0  0  3  0  0  0  0  0  0
   40.8180   26.1600   44.2470 N   0  0  0  0  0  0  0  0  0  0  0  0
   40.6160   26.0220   45.2640 H   0  0  0  0  0  0  0  0  0  0  0  0
   41.6530   26.7850   44.1470 H   0  0  0  0  0  0  0  0  0  0  0  0
   38.7010   29.8130   43.1700 O   0  0  0  0  0  0  0  0  0  0  0  0
   40.8650   31.5510   42.1000 Cl  0  0  0  0  0  0  0  0  0  0  0  0
   39.2380   31.3910   41.4730 C   0  0  0  0  0  0  0  0  0  0  0  0
   38.2880   30.5480   42.0440 C   0  0  0  0  0  0  0  0  0  0  0  0
   37.0310   30.4580   41.5180 C   0  0  0  0  0  0  0  0  0  0  0  0
   36.6320   31.1830   40.4110 C   0  0  0  0  0  0  0  0  0  0  0  0
   37.5720   32.0440   39.8130 C   0  0  0  0  0  0  0  0  0  0  0  0
   37.1500   33.0030   38.4030 Cl  0  0  0  0  0  0  0  0  0  0  0  0
   38.8330   32.1060   40.3760 C   0  0  0  0  0  0  0  0  0  0  0  0
   36.3540   29.7810   42.0200 H   0  0  0  0  0  0  0  0  0  0  0  0
   35.6330   31.1050   40.0020 H   0  0  0  0  0  0  0  0  0  0  0  0
   39.0040   34.7020   41.1810 F   0  0  0  0  0  0  0  0  0  0  0  0
   39.8800   34.3080   40.1940 C   0  0  0  0  0  0  0  0  0  0  0  0
   39.8180   32.9950   39.7640 C   0  0  0  0  0  0  0  0  0  0  0  0
   40.7210   32.6300   38.7600 C   0  0  0  0  0  0  0  0  0  0  0  0
   41.6050   33.5730   38.2660 C   0  0  0  0  0  0  0  0  0  0  0  0
   41.6150   34.8820   38.7450 C   0  0  0  0  0  0  0  0  0  0  0  0
   40.7310   35.2820   39.7430 C   0  0  0  0  0  0  0  0  0  0  0  0
   40.6710   31.6020   38.4240 H   0  0  0  0  0  0  0  0  0  0  0  0
   42.2850   33.2470   37.4900 H   0  0  0  0  0  0  0  0  0  0  0  0
   42.3120   35.6030   38.3460 H   0  0  0  0  0  0  0  0  0  0  0  0
   40.7060   36.2870   40.1420 H   0  0  0  0  0  0  0  0  0  0  0  0
  1 24  1  0  0  0  0
  1  2  2  0  0  0  0
  3  5  1  0  0  0  0
  3  1  1  0  0  0  0
  4  3  1  0  0  0  0
  5  6  1  0  0  0  0
  6 21  1  0  0  0  0
  7  6  2  0  0  0  0
  7 11  1  0  0  0  0
  8  7  1  0  0  0  0
  9 10  1  0  0  0  0
  9  8  2  0  0  0  0
 10  5  2  0  0  0  0
 12 13  1  0  0  0  0
 13 14  1  0  0  0  0
 14 15  2  0  0  0  0
 14  9  1  0  0  0  0
 15 16  1  0  0  0  0
 17 18  1  0  0  0  0
 17 15  1  0  0  0  0
 19 17  2  0  0  0  0
 20 19  1  0  0  0  0
 20 13  2  0  0  0  0
 21 22  1  0  0  0  0
 23 21  1  0  0  0  0
 26 27  1  0  0  0  0
 26 25  1  0  0  0  0
 27 24  1  0  0  0  0
 28 33  1  0  0  0  0
 28 27  2  0  0  0  0
 29 28  1  0  0  0  0
 30 32  1  0  0  0  0
 30 29  2  0  0  0  0
 31 30  1  0  0  0  0
 32 26  2  0  0  0  0
 34 29  1  0  0  0  0
 36 35  1  0  0  0  0
 37 36  1  0  0  0  0
 37 32  1  0  0  0  0
 38 37  2  0  0  0  0
 39 40  2  0  0  0  0
 39 38  1  0  0  0  0
 40 41  1  0  0  0  0
 41 45  1  0  0  0  0
 41 36  2  0  0  0  0
 42 38  1  0  0  0  0
 43 39  1  0  0  0  0
 44 40  1  0  0  0  0
M  END
>  <minimizedAffinity>
-6.92092609

$$$$

 OpenBabel03252501433D

 45 48  0  0  0  0  0  0  0  0999 V2000
   41.6830   30.6470   37.5160 C   0  0  0  0  0  0  0  0  0  0  0  0
   41.6410   31.8710   37.1150 O   0  0  0  0  0  0  0  0  0  0  0  0
   42.9170   30.3290   38.1720 N   0  0  0  0  0  0  0  0  0  0  0  0
   43.1280   29.4200   38.5840 H   0  0  0  0  0  0  0  0  0  0  0  0
   43.7730   31.5010   38.1440 C   0  0  0  0  0  0  0  0  0  0  0  0
   44.5130   31.9340   37.0890 C   0  0  0  0  0  0  0  0  0  0  0  0
   45.2630   33.0700   37.2560 C   0  0  0  0  0  0  0  0  0  0  0  0
   45.2190   33.6830   38.4530 N   0  0  0  0  0  0  0  0  0  0  0  0
   44.4750   33.2350   39.4910 C   0  0  0  0  0  0  0  0  0  0  0  0
   43.7320   32.1160   39.3380 N   0  0  0  0  0  0  0  0  0  0  0  0
   45.8550   33.4210   36.4220 H   0  0  0  0  0  0  0  0  0  0  0  0
   41.8770   34.6420   40.2370 Cl  0  0  0  0  0  0  0  0  0  0  0  0
   43.3410   34.6150   41.1680 C   0  0  0  0  0  0  0  0  0  0  0  0
   44.4790   33.9630   40.7760 C   0  0  0  0  0  0  0  0  0  0  0  0
   45.6280   33.9620   41.5380 C   0  0  0  0  0  0  0  0  0  0  0  0
   46.5010   33.4220   41.1700 H   0  0  0  0  0  0  0  0  0  0  0  0
   45.6930   34.6170   42.7350 C   0  0  0  0  0  0  0  0  0  0  0  0
   46.6220   34.5790   43.2850 H   0  0  0  0  0  0  0  0  0  0  0  0
   44.5680   35.2860   43.1650 C   0  0  0  0  0  3  0  0  0  0  0  0
   43.4070   35.2860   42.3920 C   0  0  0  0  0  3  0  0  0  0  0  0
   44.4470   31.1720   35.8980 N   0  0  0  0  0  0  0  0  0  0  0  0
   44.2020   31.6310   34.9900 H   0  0  0  0  0  0  0  0  0  0  0  0
   44.6100   30.1520   35.7320 H   0  0  0  0  0  0  0  0  0  0  0  0
   40.6960   29.6730   37.3740 O   0  0  0  0  0  0  0  0  0  0  0  0
   40.4630   28.0700   39.8680 Cl  0  0  0  0  0  0  0  0  0  0  0  0
   39.2730   29.1740   39.2130 C   0  0  0  0  0  0  0  0  0  0  0  0
   39.4710   29.8840   38.0320 C   0  0  0  0  0  0  0  0  0  0  0  0
   38.5120   30.7340   37.5610 C   0  0  0  0  0  0  0  0  0  0  0  0
   37.3100   30.9370   38.2130 C   0  0  0  0  0  0  0  0  0  0  0  0
   37.0820   30.2310   39.4090 C   0  0  0  0  0  0  0  0  0  0  0  0
   35.5820   30.4280   40.3020 Cl  0  0  0  0  0  0  0  0  0  0  0  0
   38.0780   29.3810   39.8520 C   0  0  0  0  0  0  0  0  0  0  0  0
   38.7450   31.2480   36.6380 H   0  0  0  0  0  0  0  0  0  0  0  0
   36.5560   31.6130   37.8310 H   0  0  0  0  0  0  0  0  0  0  0  0
   38.6970   30.5270   42.2440 F   0  0  0  0  0  0  0  0  0  0  0  0
   38.1780   29.2510   42.2920 C   0  0  0  0  0  0  0  0  0  0  0  0
   37.8540   28.6440   41.0930 C   0  0  0  0  0  0  0  0  0  0  0  0
   37.3320   27.3490   41.1780 C   0  0  0  0  0  0  0  0  0  0  0  0
   37.1690   26.7620   42.4220 C   0  0  0  0  0  0  0  0  0  0  0  0
   37.5180   27.4330   43.5930 C   0  0  0  0  0  0  0  0  0  0  0  0
   38.0410   28.7220   43.5470 C   0  0  0  0  0  0  0  0  0  0  0  0
   37.0780   26.8730   40.2400 H   0  0  0  0  0  0  0  0  0  0  0  0
   36.7620   25.7600   42.4400 H   0  0  0  0  0  0  0  0  0  0  0  0
   37.3830   26.9590   44.5530 H   0  0  0  0  0  0  0  0  0  0  0  0
   38.3220   29.2770   44.4320 H   0  0  0  0  0  0  0  0  0  0  0  0
  1  3  1  0  0  0  0
  2  1  2  0  0  0  0
  3  4  1  0  0  0  0
  5  3  1  0  0  0  0
  5 10  1  0  0  0  0
  6  7  1  0  0  0  0
  6  5  2  0  0  0  0
  7  8  2  0  0  0  0
  8  9  1  0  0  0  0
  9 14  1  0  0  0  0
 10  9  2  0  0  0  0
 11  7  1  0  0  0  0
 12 13  1  0  0  0  0
 13 20  1  0  0  0  0
 14 13  2  0  0  0  0
 14 15  1  0  0  0  0
 15 17  2  0  0  0  0
 16 15  1  0  0  0  0
 17 19  1  0  0  0  0
 17 18  1  0  0  0  0
 20 19  2  0  0  0  0
 21  6  1  0  0  0  0
 22 21  1  0  0  0  0
 23 21  1  0  0  0  0
 24  1  1  0  0  0  0
 24 27  1  0  0  0  0
 26 32  1  0  0  0  0
 26 25  1  0  0  0  0
 27 26  2  0  0  0  0
 28 27  1  0  0  0  0
 28 29  2  0  0  0  0
 29 30  1  0  0  0  0
 30 32  2  0  0  0  0
 30 31  1  0  0  0  0
 32 37  1  0  0  0  0
 33 28  1  0  0  0  0
 34 29  1  0  0  0  0
 35 36  1  0  0  0  0
 36 41  1  0  0  0  0
 37 38  1  0  0  0  0
 37 36  2  0  0  0  0
 38 39  2  0  0  0  0
 39 43  1  0  0  0  0
 39 40  1  0  0  0  0
 40 44  1  0  0  0  0
 41 40  2  0  0  0  0
 41 45  1  0  0  0  0
 42 38  1  0  0  0  0
M  END
>  <minimizedAffinity>
-6.64681864

$$$$

 OpenBabel03252501433D

 45 48  0  0  0  0  0  0  0  0999 V2000
   37.7420   28.9340   39.2700 C   0  0  0  0  0  0  0  0  0  0  0  0
   38.6980   28.1600   39.6540 O   0  0  0  0  0  0  0  0  0  0  0  0
   36.4930   28.6110   39.8960 N   0  0  0  0  0  0  0  0  0  0  0  0
   35.6270   29.1270   39.7430 H   0  0  0  0  0  0  0  0  0  0  0  0
   36.6890   27.4590   40.7570 C   0  0  0  0  0  0  0  0  0  0  0  0
   36.8990   27.4820   42.1010 C   0  0  0  0  0  0  0  0  0  0  0  0
   37.0630   26.2820   42.7430 C   0  0  0  0  0  0  0  0  0  0  0  0
   37.0060   25.1590   42.0040 N   0  0  0  0  0  0  0  0  0  0  0  0
   36.7960   25.1580   40.6680 C   0  0  0  0  0  0  0  0  0  0  0  0
   36.6320   26.3350   40.0230 N   0  0  0  0  0  0  0  0  0  0  0  0
   37.2310   26.2910   43.8120 H   0  0  0  0  0  0  0  0  0  0  0  0
   39.4780   24.0360   39.7560 Cl  0  0  0  0  0  0  0  0  0  0  0  0
   37.9170   23.3260   39.4890 C   0  0  0  0  0  0  0  0  0  0  0  0
   36.7460   23.8820   39.9250 C   0  0  0  0  0  0  0  0  0  0  0  0
   35.5190   23.2940   39.6970 C   0  0  0  0  0  0  0  0  0  0  0  0
   34.6230   23.7880   40.0710 H   0  0  0  0  0  0  0  0  0  0  0  0
   35.4090   22.1140   39.0160 C   0  0  0  0  0  0  0  0  0  0  0  0
   34.4200   21.7040   38.8690 H   0  0  0  0  0  0  0  0  0  0  0  0
   36.5660   21.5220   38.5600 C   0  0  0  0  0  3  0  0  0  0  0  0
   37.8050   22.1200   38.7930 C   0  0  0  0  0  3  0  0  0  0  0  0
   36.9310   28.7500   42.7270 N   0  0  0  0  0  0  0  0  0  0  0  0
   36.3120   28.9510   43.5470 H   0  0  0  0  0  0  0  0  0  0  0  0
   37.5010   29.6020   42.5140 H   0  0  0  0  0  0  0  0  0  0  0  0
   37.8150   29.9850   38.3600 O   0  0  0  0  0  0  0  0  0  0  0  0
   40.7010   30.5530   37.9210 Cl  0  0  0  0  0  0  0  0  0  0  0  0
   39.5280   31.6020   38.6870 C   0  0  0  0  0  0  0  0  0  0  0  0
   38.1910   31.2490   38.8500 C   0  0  0  0  0  0  0  0  0  0  0  0
   37.3140   32.1020   39.4540 C   0  0  0  0  0  0  0  0  0  0  0  0
   37.6900   33.3430   39.9330 C   0  0  0  0  0  0  0  0  0  0  0  0
   39.0360   33.7260   39.7830 C   0  0  0  0  0  0  0  0  0  0  0  0
   39.6020   35.2860   40.3640 Cl  0  0  0  0  0  0  0  0  0  0  0  0
   39.8920   32.8340   39.1650 C   0  0  0  0  0  0  0  0  0  0  0  0
   36.2940   31.7520   39.5400 H   0  0  0  0  0  0  0  0  0  0  0  0
   36.9870   34.0130   40.4110 H   0  0  0  0  0  0  0  0  0  0  0  0
   41.6810   32.3300   41.1560 F   0  0  0  0  0  0  0  0  0  0  0  0
   42.1760   32.9520   40.0310 C   0  0  0  0  0  0  0  0  0  0  0  0
   41.2910   33.2210   39.0030 C   0  0  0  0  0  0  0  0  0  0  0  0
   41.8280   33.8540   37.8770 C   0  0  0  0  0  0  0  0  0  0  0  0
   43.1760   34.1670   37.8510 C   0  0  0  0  0  0  0  0  0  0  0  0
   44.0130   33.8670   38.9250 C   0  0  0  0  0  0  0  0  0  0  0  0
   43.5150   33.2370   40.0620 C   0  0  0  0  0  0  0  0  0  0  0  0
   41.1360   34.0650   37.0720 H   0  0  0  0  0  0  0  0  0  0  0  0
   43.5480   34.6550   36.9600 H   0  0  0  0  0  0  0  0  0  0  0  0
   45.0620   34.1180   38.8860 H   0  0  0  0  0  0  0  0  0  0  0  0
   44.1300   32.9860   40.9150 H   0  0  0  0  0  0  0  0  0  0  0  0
  1  2  2  0  0  0  0
  1  3  1  0  0  0  0
  3  5  1  0  0  0  0
  4  3  1  0  0  0  0
  5  6  1  0  0  0  0
  6 21  1  0  0  0  0
  6  7  2  0  0  0  0
  7 11  1  0  0  0  0
  8  7  1  0  0  0  0
  9  8  2  0  0  0  0
 10  9  1  0  0  0  0
 10  5  2  0  0  0  0
 13 12  1  0  0  0  0
 13 14  1  0  0  0  0
 14  9  1  0  0  0  0
 15 14  2  0  0  0  0
 15 16  1  0  0  0  0
 17 15  1  0  0  0  0
 18 17  1  0  0  0  0
 19 20  1  0  0  0  0
 19 17  2  0  0  0  0
 20 13  2  0  0  0  0
 21 22  1  0  0  0  0
 23 21  1  0  0  0  0
 24 27  1  0  0  0  0
 24  1  1  0  0  0  0
 25 26  1  0  0  0  0
 26 27  2  0  0  0  0
 26 32  1  0  0  0  0
 27 28  1  0  0  0  0
 28 33  1  0  0  0  0
 28 29  2  0  0  0  0
 29 34  1  0  0  0  0
 30 29  1  0  0  0  0
 30 31  1  0  0  0  0
 32 30  2  0  0  0  0
 36 41  1  0  0  0  0
 36 35  1  0  0  0  0
 37 32  1  0  0  0  0
 37 36  2  0  0  0  0
 38 37  1  0  0  0  0
 39 38  2  0  0  0  0
 39 40  1  0  0  0  0
 40 41  2  0  0  0  0
 41 45  1  0  0  0  0
 42 38  1  0  0  0  0
 43 39  1  0  0  0  0
 44 40  1  0  0  0  0
M  END
>  <minimizedAffinity>
-6.58685064

$$$$
