
 OpenBabel03252508213D

 34 36  0  0  0  0  0  0  0  0999 V2000
   40.2020   33.3010   39.1980 C   0  0  0  0  0  0  0  0  0  0  0  0
   39.7060   34.3890   38.5260 C   0  0  0  0  0  0  0  0  0  0  0  0
   38.7080   34.3450   37.5620 C   0  0  0  0  0  0  0  0  0  0  0  0
   38.2040   33.0760   37.2910 C   0  0  0  0  0  0  0  0  0  0  0  0
   38.6850   31.9620   37.9530 C   0  0  0  0  0  0  0  0  0  0  0  0
   39.6680   32.0430   38.8970 C   0  0  0  0  0  0  0  0  0  0  0  0
   40.1530   35.3380   38.7960 H   0  0  0  0  0  0  0  0  0  0  0  0
   38.3570   35.2380   37.0640 H   0  0  0  0  0  0  0  0  0  0  0  0
   37.4370   32.9990   36.5570 H   0  0  0  0  0  0  0  0  0  0  0  0
   38.2560   30.9840   37.7050 H   0  0  0  0  0  0  0  0  0  0  0  0
   37.9280   31.4600   41.1960 Cl  0  0  0  0  0  0  0  0  0  0  0  0
   39.3570   30.5540   40.6830 C   0  0  0  0  0  0  0  0  0  0  0  0
   40.1630   30.8550   39.5860 C   0  0  0  0  0  0  0  0  0  0  0  0
   41.2400   30.0620   39.3070 C   0  0  0  0  0  0  0  0  0  0  0  0
   41.7900   30.3950   38.4320 H   0  0  0  0  0  0  0  0  0  0  0  0
   41.5310   28.9770   40.0970 C   0  0  0  0  0  0  0  0  0  0  0  0
   42.3910   28.3880   39.8300 H   0  0  0  0  0  0  0  0  0  0  0  0
   40.7440   28.6650   41.1850 C   0  0  0  0  0  3  0  0  0  0  0  0
   39.6390   29.4550   41.4940 C   0  0  0  0  0  3  0  0  0  0  0  0
   41.2630   33.3590   40.2220 C   0  0  0  0  0  0  0  0  0  0  0  0
   42.1720   32.8960   39.7360 H   0  0  0  0  0  0  0  0  0  0  0  0
   41.0670   32.7960   41.1350 H   0  0  0  0  0  0  0  0  0  0  0  0
   41.6630   34.7910   40.5240 C   0  0  0  0  0  0  0  0  0  0  0  0
   41.0220   35.2200   41.3430 H   0  0  0  0  0  0  0  0  0  0  0  0
   41.6310   35.3960   39.6100 H   0  0  0  0  0  0  0  0  0  0  0  0
   45.3760   34.1570   40.8670 C   0  0  0  0  0  0  0  0  0  0  0  0
   44.0670   34.1180   40.3210 C   0  0  0  0  0  0  0  0  0  0  0  0
   43.0620   34.7810   41.0240 C   0  0  0  0  0  0  0  0  0  0  0  0
   43.3940   35.4280   42.1990 N   0  0  0  0  0  0  0  0  0  0  0  0
   44.6520   35.4280   42.6620 C   0  0  0  0  0  0  0  0  0  0  0  0
   45.6480   34.7950   42.0040 N   0  0  0  0  0  0  0  0  0  0  0  0
   46.0500   33.6040   40.2170 H   0  0  0  0  0  0  0  0  0  0  0  0
   43.7870   33.6250   39.4150 H   0  0  0  0  0  0  0  0  0  0  0  0
   44.9100   35.9360   43.5850 H   0  0  0  0  0  0  0  0  0  0  0  0
  1 20  1  0  0  0  0
  2  7  1  0  0  0  0
  2  1  2  0  0  0  0
  3  2  1  0  0  0  0
  4  3  2  0  0  0  0
  4  5  1  0  0  0  0
  5  6  2  0  0  0  0
  6  1  1  0  0  0  0
  6 13  1  0  0  0  0
  8  3  1  0  0  0  0
  9  4  1  0  0  0  0
 10  5  1  0  0  0  0
 12 11  1  0  0  0  0
 12 19  1  0  0  0  0
 13 12  2  0  0  0  0
 14 13  1  0  0  0  0
 14 16  2  0  0  0  0
 15 14  1  0  0  0  0
 16 18  1  0  0  0  0
 17 16  1  0  0  0  0
 18 19  2  0  0  0  0
 20 23  1  0  0  0  0
 20 22  1  0  0  0  0
 21 20  1  0  0  0  0
 23 28  1  0  0  0  0
 23 24  1  0  0  0  0
 25 23  1  0  0  0  0
 26 31  1  0  0  0  0
 27 26  2  0  0  0  0
 27 28  1  0  0  0  0
 28 29  2  0  0  0  0
 29 30  1  0  0  0  0
 30 34  1  0  0  0  0
 31 30  2  0  0  0  0
 32 26  1  0  0  0  0
 33 27  1  0  0  0  0
M  END
>  <minimizedAffinity>
-4.7838974

>  <minimizedRMSD>
7.81966019

$$$$
