
 OpenBabel03252508213D

 34 36  0  0  0  0  0  0  0  0999 V2000
   44.1840   33.8430   40.5460 C   0  0  0  0  0  0  0  0  0  0  0  0
   44.4370   34.9270   41.3480 C   0  0  0  0  0  0  0  0  0  0  0  0
   43.4780   35.8100   41.8220 C   0  0  0  0  0  0  0  0  0  0  0  0
   42.1720   35.5330   41.4260 C   0  0  0  0  0  0  0  0  0  0  0  0
   41.8880   34.4480   40.6190 C   0  0  0  0  0  0  0  0  0  0  0  0
   42.8580   33.5980   40.1710 C   0  0  0  0  0  0  0  0  0  0  0  0
   45.4780   35.0710   41.6080 H   0  0  0  0  0  0  0  0  0  0  0  0
   43.7370   36.6500   42.4520 H   0  0  0  0  0  0  0  0  0  0  0  0
   41.4060   36.1870   41.7690 H   0  0  0  0  0  0  0  0  0  0  0  0
   40.8440   34.2700   40.3350 H   0  0  0  0  0  0  0  0  0  0  0  0
   42.0910   31.3140   41.8580 Cl  0  0  0  0  0  0  0  0  0  0  0  0
   42.1700   31.3580   40.0930 C   0  0  0  0  0  0  0  0  0  0  0  0
   42.5380   32.4570   39.3190 C   0  0  0  0  0  0  0  0  0  0  0  0
   42.5540   32.3450   37.9580 C   0  0  0  0  0  0  0  0  0  0  0  0
   42.8560   33.2650   37.4650 H   0  0  0  0  0  0  0  0  0  0  0  0
   42.2110   31.1610   37.3500 C   0  0  0  0  0  0  0  0  0  0  0  0
   42.2410   31.1310   36.2750 H   0  0  0  0  0  0  0  0  0  0  0  0
   41.8450   30.0640   38.1010 C   0  0  0  0  0  3  0  0  0  0  0  0
   41.8200   30.1490   39.4910 C   0  0  0  0  0  3  0  0  0  0  0  0
   45.2120   32.9090   40.0470 C   0  0  0  0  0  0  0  0  0  0  0  0
   44.9150   32.6800   38.9820 H   0  0  0  0  0  0  0  0  0  0  0  0
   45.2770   31.9560   40.5730 H   0  0  0  0  0  0  0  0  0  0  0  0
   46.5680   33.5830   39.9430 C   0  0  0  0  0  0  0  0  0  0  0  0
   47.3050   33.1070   40.6460 H   0  0  0  0  0  0  0  0  0  0  0  0
   46.4700   34.6620   40.1100 H   0  0  0  0  0  0  0  0  0  0  0  0
   46.9400   32.4240   36.3610 C   0  0  0  0  0  0  0  0  0  0  0  0
   46.3830   32.5740   37.6580 C   0  0  0  0  0  0  0  0  0  0  0  0
   47.0800   33.3720   38.5640 C   0  0  0  0  0  0  0  0  0  0  0  0
   48.2600   33.9620   38.1530 N   0  0  0  0  0  0  0  0  0  0  0  0
   48.7340   33.7810   36.9130 C   0  0  0  0  0  0  0  0  0  0  0  0
   48.0820   33.0140   36.0120 N   0  0  0  0  0  0  0  0  0  0  0  0
   46.2940   31.7820   35.7680 H   0  0  0  0  0  0  0  0  0  0  0  0
   45.4720   32.1280   37.9970 H   0  0  0  0  0  0  0  0  0  0  0  0
   49.6600   34.2450   36.5930 H   0  0  0  0  0  0  0  0  0  0  0  0
  1  2  1  0  0  0  0
  2  7  1  0  0  0  0
  2  3  2  0  0  0  0
  3  8  1  0  0  0  0
  4  9  1  0  0  0  0
  4  3  1  0  0  0  0
  5  4  2  0  0  0  0
  6  1  2  0  0  0  0
  6  5  1  0  0  0  0
 10  5  1  0  0  0  0
 12 11  1  0  0  0  0
 13 12  2  0  0  0  0
 13  6  1  0  0  0  0
 14 13  1  0  0  0  0
 15 14  1  0  0  0  0
 16 14  2  0  0  0  0
 16 18  1  0  0  0  0
 17 16  1  0  0  0  0
 18 19  2  0  0  0  0
 19 12  1  0  0  0  0
 20  1  1  0  0  0  0
 20 22  1  0  0  0  0
 21 20  1  0  0  0  0
 23 20  1  0  0  0  0
 23 25  1  0  0  0  0
 23 24  1  0  0  0  0
 26 27  1  0  0  0  0
 27 33  1  0  0  0  0
 27 28  2  0  0  0  0
 28 23  1  0  0  0  0
 29 28  1  0  0  0  0
 30 29  2  0  0  0  0
 31 26  2  0  0  0  0
 31 30  1  0  0  0  0
 32 26  1  0  0  0  0
 34 30  1  0  0  0  0
M  END
>  <minimizedAffinity>
-3.78540754

>  <minimizedRMSD>
6.97044897

$$$$
