
 OpenBabel03242520593D

 41 43  0  0  0  0  0  0  0  0999 V2000
   39.0800   29.3560   40.0180 C   0  0  0  0  0  0  0  0  0  0  0  0
   38.9140   29.3260   41.4310 C   0  0  0  0  0  0  0  0  0  0  0  0
   37.6420   29.1800   41.9630 C   0  0  0  0  0  0  0  0  0  0  0  0
   36.6420   29.0760   41.0920 N   0  0  0  0  0  0  0  0  0  0  0  0
   36.7890   29.1050   39.7650 C   0  0  0  0  0  0  0  0  0  0  0  0
   38.0060   29.2450   39.2160 N   0  0  0  0  0  0  0  0  0  0  0  0
   40.0080   29.4640   39.4900 H   0  0  0  0  0  0  0  0  0  0  0  0
   40.6710   26.8980   42.0900 Cl  0  0  0  0  0  0  0  0  0  0  0  0
   41.1520   28.5370   42.4850 C   0  0  0  0  0  0  0  0  0  0  0  0
   40.2020   29.4560   42.0880 C   0  0  0  0  0  0  0  0  0  0  0  0
   40.4580   30.8110   42.3390 C   0  0  0  0  0  0  0  0  0  0  0  0
   39.8210   31.6760   42.0960 H   0  0  0  0  0  0  0  0  0  0  0  0
   41.6320   31.2210   42.9690 C   0  0  0  0  0  0  0  0  0  0  0  0
   41.8770   32.2500   43.1860 H   0  0  0  0  0  0  0  0  0  0  0  0
   42.5560   30.2790   43.3510 C   0  0  0  0  0  3  0  0  0  0  0  0
   42.3100   28.9450   43.1070 C   0  0  0  0  0  3  0  0  0  0  0  0
   35.6260   28.9910   38.8810 C   0  0  0  0  0  3  0  0  0  0  0  0
   35.2360   27.8410   38.3800 C   0  0  0  0  0  3  0  0  0  0  0  0
   34.0520   27.7680   37.4850 C   0  0  0  0  0  0  0  0  0  0  0  0
   34.4170   27.3440   36.5530 H   0  0  0  0  0  0  0  0  0  0  0  0
   33.3720   26.9820   37.9260 H   0  0  0  0  0  0  0  0  0  0  0  0
   32.1810   28.8980   36.6490 C   0  0  0  0  0  0  0  0  0  0  0  0
   31.6170   27.9750   36.0040 O   0  0  0  0  0  0  0  0  0  0  0  0
   33.3370   28.9700   37.4250 N   0  0  0  0  0  0  0  0  0  0  0  0
   33.5710   29.8640   37.8770 H   0  0  0  0  0  0  0  0  0  0  0  0
   30.3510   30.0360   38.8040 Cl  0  0  0  0  0  0  0  0  0  0  0  0
   30.3600   30.6470   37.1720 C   0  0  0  0  0  0  0  0  0  0  0  0
   31.2540   30.0010   36.3700 C   0  0  0  0  0  0  0  0  0  0  0  0
   31.3900   30.3680   35.0220 C   0  0  0  0  0  0  0  0  0  0  0  0
   30.6060   31.4010   34.5030 C   0  0  0  0  0  0  0  0  0  0  0  0
   29.7140   32.0360   35.3300 C   0  0  0  0  0  0  0  0  0  0  0  0
   28.7000   33.3330   34.7480 Cl  0  0  0  0  0  0  0  0  0  0  0  0
   29.5940   31.6580   36.6580 C   0  0  0  0  0  0  0  0  0  0  0  0
   32.0560   29.9410   34.2850 H   0  0  0  0  0  0  0  0  0  0  0  0
   30.6680   31.7270   33.4750 H   0  0  0  0  0  0  0  0  0  0  0  0
   28.9070   32.1200   37.3660 H   0  0  0  0  0  0  0  0  0  0  0  0
   37.4390   29.1470   43.2970 O   0  0  0  0  0  0  0  0  0  0  0  0
   37.2460   27.8560   43.9030 C   0  0  0  0  0  0  0  0  0  0  0  0
   38.4850   27.2970   44.1820 F   0  0  0  0  0  0  0  0  0  0  0  0
   36.5890   28.1040   45.1110 F   0  0  0  0  0  0  0  0  0  0  0  0
   36.4490   27.0110   43.1340 F   0  0  0  0  0  0  0  0  0  0  0  0
  1  2  1  0  0  0  0
  2  3  2  0  0  0  0
  2 10  1  0  0  0  0
  3 37  1  0  0  0  0
  4  3  1  0  0  0  0
  5  4  2  0  0  0  0
  6  5  1  0  0  0  0
  6  1  2  0  0  0  0
  7  1  1  0  0  0  0
  8  9  1  0  0  0  0
  9 16  1  0  0  0  0
 10 11  1  0  0  0  0
 10  9  2  0  0  0  0
 11 13  2  0  0  0  0
 12 11  1  0  0  0  0
 13 14  1  0  0  0  0
 13 15  1  0  0  0  0
 16 15  2  0  0  0  0
 17  5  1  0  0  0  0
 18 17  2  0  0  0  0
 19 21  1  0  0  0  0
 19 18  1  0  0  0  0
 20 19  1  0  0  0  0
 22 24  1  0  0  0  0
 23 22  2  0  0  0  0
 24 19  1  0  0  0  0
 24 25  1  0  0  0  0
 27 26  1  0  0  0  0
 28 22  1  0  0  0  0
 28 27  2  0  0  0  0
 29 28  1  0  0  0  0
 30 29  2  0  0  0  0
 30 31  1  0  0  0  0
 31 33  2  0  0  0  0
 32 31  1  0  0  0  0
 33 27  1  0  0  0  0
 33 36  1  0  0  0  0
 34 29  1  0  0  0  0
 35 30  1  0  0  0  0
 37 38  1  0  0  0  0
 38 39  1  0  0  0  0
 38 40  1  0  0  0  0
 41 38  1  0  0  0  0
M  END
>  <minimizedAffinity>
-6.62003088

$$$$

 OpenBabel03242520593D

 41 43  0  0  0  0  0  0  0  0999 V2000
   37.9930   29.5000   39.7000 C   0  0  0  0  0  0  0  0  0  0  0  0
   38.1300   29.4210   41.1150 C   0  0  0  0  0  0  0  0  0  0  0  0
   37.0110   29.1690   41.8920 C   0  0  0  0  0  0  0  0  0  0  0  0
   35.8590   29.0150   41.2450 N   0  0  0  0  0  0  0  0  0  0  0  0
   35.7220   29.0890   39.9180 C   0  0  0  0  0  0  0  0  0  0  0  0
   36.7850   29.3310   39.1340 N   0  0  0  0  0  0  0  0  0  0  0  0
   38.7800   29.6890   38.9960 H   0  0  0  0  0  0  0  0  0  0  0  0
   40.1360   27.1080   41.3220 Cl  0  0  0  0  0  0  0  0  0  0  0  0
   40.5830   28.7690   41.6590 C   0  0  0  0  0  0  0  0  0  0  0  0
   39.5160   29.6270   41.4940 C   0  0  0  0  0  0  0  0  0  0  0  0
   39.7320   30.9920   41.7280 C   0  0  0  0  0  0  0  0  0  0  0  0
   39.0050   31.8160   41.6470 H   0  0  0  0  0  0  0  0  0  0  0  0
   40.9830   31.4710   42.1130 C   0  0  0  0  0  0  0  0  0  0  0  0
   41.2030   32.5110   42.3050 H   0  0  0  0  0  0  0  0  0  0  0  0
   42.0240   30.5880   42.2670 C   0  0  0  0  0  3  0  0  0  0  0  0
   41.8180   29.2450   42.0390 C   0  0  0  0  0  3  0  0  0  0  0  0
   34.4090   28.9130   39.2910 C   0  0  0  0  0  3  0  0  0  0  0  0
   34.2550   28.8680   37.9870 C   0  0  0  0  0  3  0  0  0  0  0  0
   32.9050   28.6910   37.3910 C   0  0  0  0  0  0  0  0  0  0  0  0
   32.8170   27.6260   37.1840 H   0  0  0  0  0  0  0  0  0  0  0  0
   32.1650   28.8970   38.2180 H   0  0  0  0  0  0  0  0  0  0  0  0
   31.3060   29.6330   35.9670 C   0  0  0  0  0  0  0  0  0  0  0  0
   30.2610   29.0610   36.3750 O   0  0  0  0  0  0  0  0  0  0  0  0
   32.6460   29.5870   36.3480 N   0  0  0  0  0  0  0  0  0  0  0  0
   33.3190   30.1890   35.8540 H   0  0  0  0  0  0  0  0  0  0  0  0
   30.4090   32.5100   36.4210 Cl  0  0  0  0  0  0  0  0  0  0  0  0
   30.2800   31.7290   34.8690 C   0  0  0  0  0  0  0  0  0  0  0  0
   30.7400   30.4450   34.8830 C   0  0  0  0  0  0  0  0  0  0  0  0
   30.7090   29.6690   33.7140 C   0  0  0  0  0  0  0  0  0  0  0  0
   30.2050   30.2170   32.5320 C   0  0  0  0  0  0  0  0  0  0  0  0
   29.7480   31.5110   32.5430 C   0  0  0  0  0  0  0  0  0  0  0  0
   29.1020   32.2590   31.1040 Cl  0  0  0  0  0  0  0  0  0  0  0  0
   29.7860   32.2610   33.7080 C   0  0  0  0  0  0  0  0  0  0  0  0
   31.0400   28.6480   33.5900 H   0  0  0  0  0  0  0  0  0  0  0  0
   30.1570   29.6690   31.6030 H   0  0  0  0  0  0  0  0  0  0  0  0
   29.4400   33.2910   33.7850 H   0  0  0  0  0  0  0  0  0  0  0  0
   37.0950   29.0860   43.2370 O   0  0  0  0  0  0  0  0  0  0  0  0
   37.1370   27.7700   43.8160 C   0  0  0  0  0  0  0  0  0  0  0  0
   36.6270   26.8570   42.9030 F   0  0  0  0  0  0  0  0  0  0  0  0
   38.4920   27.4890   44.0130 F   0  0  0  0  0  0  0  0  0  0  0  0
   36.4890   27.6990   45.0470 F   0  0  0  0  0  0  0  0  0  0  0  0
  1  2  1  0  0  0  0
  2 10  1  0  0  0  0
  2  3  2  0  0  0  0
  3 37  1  0  0  0  0
  4  3  1  0  0  0  0
  5  4  2  0  0  0  0
  6  1  2  0  0  0  0
  6  5  1  0  0  0  0
  7  1  1  0  0  0  0
  8  9  1  0  0  0  0
  9 16  1  0  0  0  0
 10  9  2  0  0  0  0
 10 11  1  0  0  0  0
 11 13  2  0  0  0  0
 12 11  1  0  0  0  0
 13 15  1  0  0  0  0
 13 14  1  0  0  0  0
 16 15  2  0  0  0  0
 17  5  1  0  0  0  0
 18 17  2  0  0  0  0
 19 18  1  0  0  0  0
 19 21  1  0  0  0  0
 20 19  1  0  0  0  0
 22 24  1  0  0  0  0
 22 23  2  0  0  0  0
 24 19  1  0  0  0  0
 25 24  1  0  0  0  0
 27 28  1  0  0  0  0
 27 26  1  0  0  0  0
 28 22  1  0  0  0  0
 29 28  2  0  0  0  0
 30 31  2  0  0  0  0
 30 29  1  0  0  0  0
 31 33  1  0  0  0  0
 32 31  1  0  0  0  0
 33 36  1  0  0  0  0
 33 27  2  0  0  0  0
 34 29  1  0  0  0  0
 35 30  1  0  0  0  0
 37 38  1  0  0  0  0
 38 40  1  0  0  0  0
 38 41  1  0  0  0  0
 39 38  1  0  0  0  0
M  END
>  <minimizedAffinity>
-6.3789649

$$$$

 OpenBabel03242520593D

 41 43  0  0  0  0  0  0  0  0999 V2000
   37.4400   27.4990   39.4850 C   0  0  0  0  0  0  0  0  0  0  0  0
   37.9270   27.7770   40.7930 C   0  0  0  0  0  0  0  0  0  0  0  0
   37.1530   28.5350   41.6580 C   0  0  0  0  0  0  0  0  0  0  0  0
   35.9830   28.9600   41.1920 N   0  0  0  0  0  0  0  0  0  0  0  0
   35.5190   28.7050   39.9650 C   0  0  0  0  0  0  0  0  0  0  0  0
   36.2420   27.9730   39.1020 N   0  0  0  0  0  0  0  0  0  0  0  0
   37.9430   26.9270   38.7290 H   0  0  0  0  0  0  0  0  0  0  0  0
   38.2480   24.8910   41.7840 Cl  0  0  0  0  0  0  0  0  0  0  0  0
   39.6230   25.9130   41.4120 C   0  0  0  0  0  0  0  0  0  0  0  0
   39.2280   27.1620   40.9830 C   0  0  0  0  0  0  0  0  0  0  0  0
   40.2280   28.0850   40.6470 C   0  0  0  0  0  0  0  0  0  0  0  0
   40.1020   29.1190   40.2890 H   0  0  0  0  0  0  0  0  0  0  0  0
   41.5790   27.7550   40.7420 C   0  0  0  0  0  0  0  0  0  0  0  0
   42.3880   28.4270   40.4960 H   0  0  0  0  0  0  0  0  0  0  0  0
   41.9370   26.5010   41.1740 C   0  0  0  0  0  3  0  0  0  0  0  0
   40.9580   25.5890   41.5060 C   0  0  0  0  0  3  0  0  0  0  0  0
   34.2170   29.2210   39.5350 C   0  0  0  0  0  3  0  0  0  0  0  0
   33.7000   28.9300   38.3640 C   0  0  0  0  0  3  0  0  0  0  0  0
   32.3760   29.4770   37.9640 C   0  0  0  0  0  0  0  0  0  0  0  0
   31.6400   28.8560   38.4710 H   0  0  0  0  0  0  0  0  0  0  0  0
   32.2950   30.4930   38.4500 H   0  0  0  0  0  0  0  0  0  0  0  0
   31.0500   30.2440   36.1960 C   0  0  0  0  0  0  0  0  0  0  0  0
   30.0540   30.6900   36.8240 O   0  0  0  0  0  0  0  0  0  0  0  0
   32.2500   29.6500   36.5810 N   0  0  0  0  0  0  0  0  0  0  0  0
   32.9280   29.3920   35.8520 H   0  0  0  0  0  0  0  0  0  0  0  0
   30.5970   28.0010   34.1830 Cl  0  0  0  0  0  0  0  0  0  0  0  0
   30.3670   29.6790   33.7740 C   0  0  0  0  0  0  0  0  0  0  0  0
   30.6210   30.5180   34.8200 C   0  0  0  0  0  0  0  0  0  0  0  0
   30.4840   31.9060   34.6630 C   0  0  0  0  0  0  0  0  0  0  0  0
   30.0860   32.4280   33.4300 C   0  0  0  0  0  0  0  0  0  0  0  0
   29.8370   31.5630   32.3930 C   0  0  0  0  0  0  0  0  0  0  0  0
   29.3390   32.1460   30.8240 Cl  0  0  0  0  0  0  0  0  0  0  0  0
   29.9780   30.1960   32.5680 C   0  0  0  0  0  0  0  0  0  0  0  0
   30.6520   32.6740   35.4040 H   0  0  0  0  0  0  0  0  0  0  0  0
   29.9640   33.4860   33.2500 H   0  0  0  0  0  0  0  0  0  0  0  0
   29.7970   29.4570   31.7880 H   0  0  0  0  0  0  0  0  0  0  0  0
   37.5770   28.8230   42.9070 O   0  0  0  0  0  0  0  0  0  0  0  0
   37.3180   27.8480   43.9330 C   0  0  0  0  0  0  0  0  0  0  0  0
   36.7580   28.4840   45.0320 F   0  0  0  0  0  0  0  0  0  0  0  0
   36.3690   26.9770   43.3920 F   0  0  0  0  0  0  0  0  0  0  0  0
   38.4490   27.1090   44.2740 F   0  0  0  0  0  0  0  0  0  0  0  0
  1  2  1  0  0  0  0
  2 10  1  0  0  0  0
  2  3  2  0  0  0  0
  3 37  1  0  0  0  0
  4  3  1  0  0  0  0
  5  4  2  0  0  0  0
  6  1  2  0  0  0  0
  6  5  1  0  0  0  0
  7  1  1  0  0  0  0
  9 16  1  0  0  0  0
  9  8  1  0  0  0  0
 10  9  2  0  0  0  0
 11 13  2  0  0  0  0
 11 10  1  0  0  0  0
 12 11  1  0  0  0  0
 13 15  1  0  0  0  0
 14 13  1  0  0  0  0
 15 16  2  0  0  0  0
 17  5  1  0  0  0  0
 18 17  2  0  0  0  0
 19 18  1  0  0  0  0
 19 21  1  0  0  0  0
 19 20  1  0  0  0  0
 22 24  1  0  0  0  0
 22 23  2  0  0  0  0
 24 19  1  0  0  0  0
 25 24  1  0  0  0  0
 27 26  1  0  0  0  0
 27 28  1  0  0  0  0
 28 22  1  0  0  0  0
 29 28  2  0  0  0  0
 29 34  1  0  0  0  0
 30 29  1  0  0  0  0
 31 33  1  0  0  0  0
 31 30  2  0  0  0  0
 32 31  1  0  0  0  0
 33 27  2  0  0  0  0
 35 30  1  0  0  0  0
 36 33  1  0  0  0  0
 37 38  1  0  0  0  0
 38 41  1  0  0  0  0
 38 39  1  0  0  0  0
 40 38  1  0  0  0  0
M  END
>  <minimizedAffinity>
-6.33809519

$$$$

 OpenBabel03242520593D

 41 43  0  0  0  0  0  0  0  0999 V2000
   40.0570   31.3860   42.0460 C   0  0  0  0  0  0  0  0  0  0  0  0
   39.5710   31.6710   40.7390 C   0  0  0  0  0  0  0  0  0  0  0  0
   38.8790   30.6920   40.0430 C   0  0  0  0  0  0  0  0  0  0  0  0
   38.7150   29.5260   40.6610 N   0  0  0  0  0  0  0  0  0  0  0  0
   39.1690   29.2500   41.8870 C   0  0  0  0  0  0  0  0  0  0  0  0
   39.8430   30.1740   42.5900 N   0  0  0  0  0  0  0  0  0  0  0  0
   40.6030   32.0560   42.6810 H   0  0  0  0  0  0  0  0  0  0  0  0
   42.1660   32.3650   39.2540 Cl  0  0  0  0  0  0  0  0  0  0  0  0
   40.9950   33.5850   39.7150 C   0  0  0  0  0  0  0  0  0  0  0  0
   39.9120   33.0310   40.3660 C   0  0  0  0  0  0  0  0  0  0  0  0
   38.8930   33.8950   40.7900 C   0  0  0  0  0  0  0  0  0  0  0  0
   37.9630   33.6350   41.3210 H   0  0  0  0  0  0  0  0  0  0  0  0
   38.9670   35.2690   40.5640 C   0  0  0  0  0  0  0  0  0  0  0  0
   38.2110   35.9770   40.8690 H   0  0  0  0  0  0  0  0  0  0  0  0
   40.0600   35.7860   39.9120 C   0  0  0  0  0  3  0  0  0  0  0  0
   41.0660   34.9420   39.4920 C   0  0  0  0  0  3  0  0  0  0  0  0
   38.9470   27.9320   42.4870 C   0  0  0  0  0  3  0  0  0  0  0  0
   39.8890   27.0190   42.5440 C   0  0  0  0  0  3  0  0  0  0  0  0
   39.6220   25.6930   43.1600 C   0  0  0  0  0  0  0  0  0  0  0  0
   40.5820   25.1810   43.1760 H   0  0  0  0  0  0  0  0  0  0  0  0
   39.3710   25.8920   44.2430 H   0  0  0  0  0  0  0  0  0  0  0  0
   38.8120   24.4730   41.3350 C   0  0  0  0  0  0  0  0  0  0  0  0
   39.8450   24.4080   40.6180 O   0  0  0  0  0  0  0  0  0  0  0  0
   38.5330   25.0300   42.5820 N   0  0  0  0  0  0  0  0  0  0  0  0
   37.5860   24.9200   42.9700 H   0  0  0  0  0  0  0  0  0  0  0  0
   36.5240   25.9080   39.9230 Cl  0  0  0  0  0  0  0  0  0  0  0  0
   36.7860   24.1920   39.7640 C   0  0  0  0  0  0  0  0  0  0  0  0
   37.8640   23.7540   40.4750 C   0  0  0  0  0  0  0  0  0  0  0  0
   38.2180   22.3960   40.4590 C   0  0  0  0  0  0  0  0  0  0  0  0
   37.4620   21.4920   39.7090 C   0  0  0  0  0  0  0  0  0  0  0  0
   36.3820   21.9580   39.0020 C   0  0  0  0  0  0  0  0  0  0  0  0
   35.3900   20.8840   38.0470 Cl  0  0  0  0  0  0  0  0  0  0  0  0
   36.0480   23.3030   39.0320 C   0  0  0  0  0  0  0  0  0  0  0  0
   39.0430   21.9220   40.9730 H   0  0  0  0  0  0  0  0  0  0  0  0
   37.6860   20.4370   39.6580 H   0  0  0  0  0  0  0  0  0  0  0  0
   35.2050   23.7370   38.4950 H   0  0  0  0  0  0  0  0  0  0  0  0
   38.4010   30.9200   38.8010 O   0  0  0  0  0  0  0  0  0  0  0  0
   37.0650   31.4410   38.6940 C   0  0  0  0  0  0  0  0  0  0  0  0
   37.1160   32.7070   38.1280 F   0  0  0  0  0  0  0  0  0  0  0  0
   36.3990   30.5880   37.8110 F   0  0  0  0  0  0  0  0  0  0  0  0
   36.3830   31.4370   39.9090 F   0  0  0  0  0  0  0  0  0  0  0  0
  1  6  1  0  0  0  0
  1  7  1  0  0  0  0
  2  1  2  0  0  0  0
  3  4  2  0  0  0  0
  3  2  1  0  0  0  0
  4  5  1  0  0  0  0
  5 17  1  0  0  0  0
  5  6  2  0  0  0  0
  8  9  1  0  0  0  0
  9 10  1  0  0  0  0
 10  2  1  0  0  0  0
 10 11  2  0  0  0  0
 11 12  1  0  0  0  0
 13 11  1  0  0  0  0
 13 14  1  0  0  0  0
 15 13  2  0  0  0  0
 16  9  2  0  0  0  0
 16 15  1  0  0  0  0
 17 18  2  0  0  0  0
 18 19  1  0  0  0  0
 19 20  1  0  0  0  0
 19 21  1  0  0  0  0
 22 24  1  0  0  0  0
 23 22  2  0  0  0  0
 24 25  1  0  0  0  0
 24 19  1  0  0  0  0
 27 26  1  0  0  0  0
 27 28  1  0  0  0  0
 28 22  1  0  0  0  0
 29 28  2  0  0  0  0
 29 34  1  0  0  0  0
 30 29  1  0  0  0  0
 31 33  1  0  0  0  0
 31 30  2  0  0  0  0
 32 31  1  0  0  0  0
 33 27  2  0  0  0  0
 35 30  1  0  0  0  0
 36 33  1  0  0  0  0
 37  3  1  0  0  0  0
 38 37  1  0  0  0  0
 38 41  1  0  0  0  0
 39 38  1  0  0  0  0
 40 38  1  0  0  0  0
M  END
>  <minimizedAffinity>
-6.25299597

$$$$

 OpenBabel03242520593D

 41 43  0  0  0  0  0  0  0  0999 V2000
   36.9840   26.4820   38.5950 C   0  0  0  0  0  0  0  0  0  0  0  0
   37.1720   25.8530   39.8580 C   0  0  0  0  0  0  0  0  0  0  0  0
   37.2560   26.6340   41.0000 C   0  0  0  0  0  0  0  0  0  0  0  0
   37.1540   27.9490   40.8300 N   0  0  0  0  0  0  0  0  0  0  0  0
   36.9790   28.5480   39.6490 C   0  0  0  0  0  0  0  0  0  0  0  0
   36.8930   27.8220   38.5220 N   0  0  0  0  0  0  0  0  0  0  0  0
   36.9040   25.9890   37.6460 H   0  0  0  0  0  0  0  0  0  0  0  0
   39.8180   24.3020   39.9650 Cl  0  0  0  0  0  0  0  0  0  0  0  0
   38.2770   23.5090   39.6950 C   0  0  0  0  0  0  0  0  0  0  0  0
   37.2340   24.4120   39.6930 C   0  0  0  0  0  0  0  0  0  0  0  0
   35.9400   23.9140   39.4900 C   0  0  0  0  0  0  0  0  0  0  0  0
   34.9950   24.4800   39.4570 H   0  0  0  0  0  0  0  0  0  0  0  0
   35.7090   22.5530   39.2980 C   0  0  0  0  0  0  0  0  0  0  0  0
   34.7340   22.1180   39.1380 H   0  0  0  0  0  0  0  0  0  0  0  0
   36.7720   21.6820   39.3070 C   0  0  0  0  0  3  0  0  0  0  0  0
   38.0470   22.1660   39.5050 C   0  0  0  0  0  3  0  0  0  0  0  0
   36.8840   30.0070   39.5560 C   0  0  0  0  0  3  0  0  0  0  0  0
   37.4380   30.6850   38.5780 C   0  0  0  0  0  3  0  0  0  0  0  0
   37.3200   32.1660   38.5220 C   0  0  0  0  0  0  0  0  0  0  0  0
   36.7080   32.3760   37.6480 H   0  0  0  0  0  0  0  0  0  0  0  0
   36.6890   32.4650   39.4090 H   0  0  0  0  0  0  0  0  0  0  0  0
   38.9810   32.9930   39.9480 C   0  0  0  0  0  0  0  0  0  0  0  0
   38.5120   32.6680   41.0700 O   0  0  0  0  0  0  0  0  0  0  0  0
   38.5540   32.8170   38.6330 N   0  0  0  0  0  0  0  0  0  0  0  0
   39.1510   33.1660   37.8710 H   0  0  0  0  0  0  0  0  0  0  0  0
   39.1890   36.0330   40.0230 Cl  0  0  0  0  0  0  0  0  0  0  0  0
   40.5140   34.9970   40.4810 C   0  0  0  0  0  0  0  0  0  0  0  0
   40.2090   33.6720   40.3770 C   0  0  0  0  0  0  0  0  0  0  0  0
   41.1650   32.6980   40.7080 C   0  0  0  0  0  0  0  0  0  0  0  0
   42.4320   33.0910   41.1450 C   0  0  0  0  0  0  0  0  0  0  0  0
   42.7140   34.4310   41.2410 C   0  0  0  0  0  0  0  0  0  0  0  0
   44.2770   34.9940   41.7770 Cl  0  0  0  0  0  0  0  0  0  0  0  0
   41.7570   35.3770   40.9100 C   0  0  0  0  0  0  0  0  0  0  0  0
   41.0530   31.6240   40.6710 H   0  0  0  0  0  0  0  0  0  0  0  0
   43.2070   32.3880   41.4130 H   0  0  0  0  0  0  0  0  0  0  0  0
   41.9160   36.4540   40.9630 H   0  0  0  0  0  0  0  0  0  0  0  0
   37.4340   26.0780   42.2180 O   0  0  0  0  0  0  0  0  0  0  0  0
   38.7280   26.2270   42.8270 C   0  0  0  0  0  0  0  0  0  0  0  0
   38.6000   26.9800   43.9850 F   0  0  0  0  0  0  0  0  0  0  0  0
   39.1270   24.9350   43.1810 F   0  0  0  0  0  0  0  0  0  0  0  0
   39.6790   26.7590   41.9580 F   0  0  0  0  0  0  0  0  0  0  0  0
  1  2  1  0  0  0  0
  2  3  2  0  0  0  0
  3 37  1  0  0  0  0
  4  3  1  0  0  0  0
  5  4  2  0  0  0  0
  6  1  2  0  0  0  0
  6  5  1  0  0  0  0
  7  1  1  0  0  0  0
  9  8  1  0  0  0  0
 10  9  1  0  0  0  0
 10  2  1  0  0  0  0
 11 10  2  0  0  0  0
 12 11  1  0  0  0  0
 13 15  2  0  0  0  0
 13 11  1  0  0  0  0
 14 13  1  0  0  0  0
 15 16  1  0  0  0  0
 16  9  2  0  0  0  0
 17  5  1  0  0  0  0
 18 17  2  0  0  0  0
 19 18  1  0  0  0  0
 19 24  1  0  0  0  0
 19 21  1  0  0  0  0
 20 19  1  0  0  0  0
 22 28  1  0  0  0  0
 22 23  2  0  0  0  0
 24 22  1  0  0  0  0
 25 24  1  0  0  0  0
 26 27  1  0  0  0  0
 27 33  1  0  0  0  0
 28 27  2  0  0  0  0
 28 29  1  0  0  0  0
 29 30  2  0  0  0  0
 30 31  1  0  0  0  0
 30 35  1  0  0  0  0
 31 32  1  0  0  0  0
 33 36  1  0  0  0  0
 33 31  2  0  0  0  0
 34 29  1  0  0  0  0
 37 38  1  0  0  0  0
 38 40  1  0  0  0  0
 38 39  1  0  0  0  0
 41 38  1  0  0  0  0
M  END
>  <minimizedAffinity>
-6.24046469

$$$$

 OpenBabel03242520593D

 41 43  0  0  0  0  0  0  0  0999 V2000
   32.9690   29.7520   34.7840 C   0  0  0  0  0  0  0  0  0  0  0  0
   31.6210   29.9500   35.1930 C   0  0  0  0  0  0  0  0  0  0  0  0
   31.2630   29.6860   36.5050 C   0  0  0  0  0  0  0  0  0  0  0  0
   32.2290   29.2530   37.3100 N   0  0  0  0  0  0  0  0  0  0  0  0
   33.4970   29.0620   36.9340 C   0  0  0  0  0  0  0  0  0  0  0  0
   33.8790   29.3100   35.6710 N   0  0  0  0  0  0  0  0  0  0  0  0
   33.3670   29.9210   33.8020 H   0  0  0  0  0  0  0  0  0  0  0  0
   30.1790   28.0530   33.2590 Cl  0  0  0  0  0  0  0  0  0  0  0  0
   30.1060   29.7960   33.0900 C   0  0  0  0  0  0  0  0  0  0  0  0
   30.8280   30.4340   34.0770 C   0  0  0  0  0  0  0  0  0  0  0  0
   30.8540   31.8350   34.0660 C   0  0  0  0  0  0  0  0  0  0  0  0
   31.3730   32.5080   34.7680 H   0  0  0  0  0  0  0  0  0  0  0  0
   30.1750   32.5640   33.0920 C   0  0  0  0  0  0  0  0  0  0  0  0
   30.1620   33.6430   33.0380 H   0  0  0  0  0  0  0  0  0  0  0  0
   29.4650   31.8960   32.1230 C   0  0  0  0  0  3  0  0  0  0  0  0
   29.4360   30.5190   32.1280 C   0  0  0  0  0  3  0  0  0  0  0  0
   34.4950   28.5750   37.8900 C   0  0  0  0  0  3  0  0  0  0  0  0
   34.5800   29.0430   39.1140 C   0  0  0  0  0  3  0  0  0  0  0  0
   35.6090   28.5230   40.0530 C   0  0  0  0  0  0  0  0  0  0  0  0
   35.1210   28.4800   41.0240 H   0  0  0  0  0  0  0  0  0  0  0  0
   35.7880   27.4470   39.7600 H   0  0  0  0  0  0  0  0  0  0  0  0
   36.8440   30.4240   40.6310 C   0  0  0  0  0  0  0  0  0  0  0  0
   36.0050   31.0460   41.3330 O   0  0  0  0  0  0  0  0  0  0  0  0
   36.8280   29.2030   39.9590 N   0  0  0  0  0  0  0  0  0  0  0  0
   37.6790   28.9030   39.4640 H   0  0  0  0  0  0  0  0  0  0  0  0
   39.5210   29.6810   41.8840 Cl  0  0  0  0  0  0  0  0  0  0  0  0
   39.2230   31.2510   41.1870 C   0  0  0  0  0  0  0  0  0  0  0  0
   37.9630   31.3730   40.6790 C   0  0  0  0  0  0  0  0  0  0  0  0
   37.5550   32.5750   40.0800 C   0  0  0  0  0  0  0  0  0  0  0  0
   38.4450   33.6480   40.0040 C   0  0  0  0  0  0  0  0  0  0  0  0
   39.7080   33.5010   40.5220 C   0  0  0  0  0  0  0  0  0  0  0  0
   40.8710   34.8010   40.4650 Cl  0  0  0  0  0  0  0  0  0  0  0  0
   40.0910   32.3060   41.1110 C   0  0  0  0  0  0  0  0  0  0  0  0
   36.5930   32.8010   39.6420 H   0  0  0  0  0  0  0  0  0  0  0  0
   38.1880   34.5960   39.5550 H   0  0  0  0  0  0  0  0  0  0  0  0
   41.0760   32.1230   41.5400 H   0  0  0  0  0  0  0  0  0  0  0  0
   29.9940   29.8600   36.9350 O   0  0  0  0  0  0  0  0  0  0  0  0
   29.6450   31.1560   37.4510 C   0  0  0  0  0  0  0  0  0  0  0  0
   29.2300   31.0220   38.7680 F   0  0  0  0  0  0  0  0  0  0  0  0
   30.8280   31.8990   37.4330 F   0  0  0  0  0  0  0  0  0  0  0  0
   28.6990   31.8140   36.6670 F   0  0  0  0  0  0  0  0  0  0  0  0
  1  2  2  0  0  0  0
  1  6  1  0  0  0  0
  2  3  1  0  0  0  0
  3 37  1  0  0  0  0
  3  4  2  0  0  0  0
  5  4  1  0  0  0  0
  5 17  1  0  0  0  0
  6  5  2  0  0  0  0
  7  1  1  0  0  0  0
  9  8  1  0  0  0  0
  9 10  1  0  0  0  0
 10  2  1  0  0  0  0
 11 10  2  0  0  0  0
 11 12  1  0  0  0  0
 13 11  1  0  0  0  0
 14 13  1  0  0  0  0
 15 16  1  0  0  0  0
 15 13  2  0  0  0  0
 16  9  2  0  0  0  0
 17 18  2  0  0  0  0
 18 19  1  0  0  0  0
 19 20  1  0  0  0  0
 21 19  1  0  0  0  0
 22 28  1  0  0  0  0
 22 23  2  0  0  0  0
 24 19  1  0  0  0  0
 24 22  1  0  0  0  0
 25 24  1  0  0  0  0
 27 26  1  0  0  0  0
 28 27  2  0  0  0  0
 29 28  1  0  0  0  0
 30 29  2  0  0  0  0
 30 31  1  0  0  0  0
 31 33  2  0  0  0  0
 32 31  1  0  0  0  0
 33 27  1  0  0  0  0
 33 36  1  0  0  0  0
 34 29  1  0  0  0  0
 35 30  1  0  0  0  0
 37 38  1  0  0  0  0
 38 39  1  0  0  0  0
 40 38  1  0  0  0  0
 41 38  1  0  0  0  0
M  END
>  <minimizedAffinity>
-6.1847949

$$$$

 OpenBabel03242520593D

 41 43  0  0  0  0  0  0  0  0999 V2000
   42.1950   31.7440   42.3190 C   0  0  0  0  0  0  0  0  0  0  0  0
   42.0510   32.8310   41.4120 C   0  0  0  0  0  0  0  0  0  0  0  0
   40.8250   33.0510   40.8050 C   0  0  0  0  0  0  0  0  0  0  0  0
   39.8450   32.2090   41.1190 N   0  0  0  0  0  0  0  0  0  0  0  0
   39.9720   31.1840   41.9680 C   0  0  0  0  0  0  0  0  0  0  0  0
   41.1450   30.9430   42.5750 N   0  0  0  0  0  0  0  0  0  0  0  0
   43.0870   31.4730   42.8490 H   0  0  0  0  0  0  0  0  0  0  0  0
   43.7460   32.7880   38.8540 Cl  0  0  0  0  0  0  0  0  0  0  0  0
   44.2270   33.6850   40.2820 C   0  0  0  0  0  0  0  0  0  0  0  0
   43.3040   33.5550   41.2990 C   0  0  0  0  0  0  0  0  0  0  0  0
   43.5600   34.2250   42.5030 C   0  0  0  0  0  0  0  0  0  0  0  0
   42.9430   34.2360   43.4160 H   0  0  0  0  0  0  0  0  0  0  0  0
   44.7080   34.9980   42.6720 C   0  0  0  0  0  0  0  0  0  0  0  0
   44.9520   35.5340   43.5770 H   0  0  0  0  0  0  0  0  0  0  0  0
   45.6050   35.1050   41.6370 C   0  0  0  0  0  3  0  0  0  0  0  0
   45.3590   34.4490   40.4510 C   0  0  0  0  0  3  0  0  0  0  0  0
   38.8370   30.3020   42.2500 C   0  0  0  0  0  3  0  0  0  0  0  0
   38.8920   29.3580   43.1610 C   0  0  0  0  0  3  0  0  0  0  0  0
   37.7190   28.4810   43.4140 C   0  0  0  0  0  0  0  0  0  0  0  0
   37.3560   28.7600   44.4020 H   0  0  0  0  0  0  0  0  0  0  0  0
   36.9150   28.8150   42.6950 H   0  0  0  0  0  0  0  0  0  0  0  0
   37.7190   26.7360   41.8570 C   0  0  0  0  0  0  0  0  0  0  0  0
   37.3190   27.3390   40.8260 O   0  0  0  0  0  0  0  0  0  0  0  0
   37.9820   27.1290   43.1680 N   0  0  0  0  0  0  0  0  0  0  0  0
   38.3340   26.4260   43.8310 H   0  0  0  0  0  0  0  0  0  0  0  0
   40.4530   25.4430   41.4710 Cl  0  0  0  0  0  0  0  0  0  0  0  0
   38.9690   24.6250   41.0590 C   0  0  0  0  0  0  0  0  0  0  0  0
   37.8620   25.3800   41.3130 C   0  0  0  0  0  0  0  0  0  0  0  0
   36.5820   24.8720   41.0400 C   0  0  0  0  0  0  0  0  0  0  0  0
   36.4460   23.5890   40.5060 C   0  0  0  0  0  0  0  0  0  0  0  0
   37.5760   22.8490   40.2590 C   0  0  0  0  0  0  0  0  0  0  0  0
   37.4800   21.2400   39.5900 Cl  0  0  0  0  0  0  0  0  0  0  0  0
   38.8300   23.3690   40.5360 C   0  0  0  0  0  0  0  0  0  0  0  0
   35.6310   25.3620   41.1930 H   0  0  0  0  0  0  0  0  0  0  0  0
   35.4880   23.1460   40.2750 H   0  0  0  0  0  0  0  0  0  0  0  0
   39.7650   22.8360   40.3640 H   0  0  0  0  0  0  0  0  0  0  0  0
   40.6450   34.0710   39.9380 O   0  0  0  0  0  0  0  0  0  0  0  0
   40.1400   35.3080   40.4710 C   0  0  0  0  0  0  0  0  0  0  0  0
   41.1880   36.0170   41.0410 F   0  0  0  0  0  0  0  0  0  0  0  0
   39.6660   36.0260   39.3690 F   0  0  0  0  0  0  0  0  0  0  0  0
   39.0850   35.1230   41.3620 F   0  0  0  0  0  0  0  0  0  0  0  0
  1  6  1  0  0  0  0
  1  7  1  0  0  0  0
  2  1  2  0  0  0  0
  3  4  2  0  0  0  0
  3  2  1  0  0  0  0
  4  5  1  0  0  0  0
  5 17  1  0  0  0  0
  5  6  2  0  0  0  0
  8  9  1  0  0  0  0
  9 16  2  0  0  0  0
  9 10  1  0  0  0  0
 10  2  1  0  0  0  0
 10 11  2  0  0  0  0
 11 13  1  0  0  0  0
 11 12  1  0  0  0  0
 13 14  1  0  0  0  0
 15 13  2  0  0  0  0
 16 15  1  0  0  0  0
 17 18  2  0  0  0  0
 18 19  1  0  0  0  0
 19 20  1  0  0  0  0
 21 19  1  0  0  0  0
 22 24  1  0  0  0  0
 23 22  2  0  0  0  0
 24 19  1  0  0  0  0
 24 25  1  0  0  0  0
 27 28  1  0  0  0  0
 27 26  1  0  0  0  0
 28 22  1  0  0  0  0
 29 34  1  0  0  0  0
 29 28  2  0  0  0  0
 30 29  1  0  0  0  0
 31 30  2  0  0  0  0
 31 33  1  0  0  0  0
 32 31  1  0  0  0  0
 33 27  2  0  0  0  0
 35 30  1  0  0  0  0
 36 33  1  0  0  0  0
 37 38  1  0  0  0  0
 37  3  1  0  0  0  0
 38 39  1  0  0  0  0
 38 41  1  0  0  0  0
 40 38  1  0  0  0  0
M  END
>  <minimizedAffinity>
-6.15598583

$$$$

 OpenBabel03242520593D

 41 43  0  0  0  0  0  0  0  0999 V2000
   38.1100   31.9160   37.9070 C   0  0  0  0  0  0  0  0  0  0  0  0
   38.1870   31.9250   39.3280 C   0  0  0  0  0  0  0  0  0  0  0  0
   37.4140   31.0340   40.0550 C   0  0  0  0  0  0  0  0  0  0  0  0
   36.6340   30.2140   39.3560 N   0  0  0  0  0  0  0  0  0  0  0  0
   36.5550   30.2010   38.0220 C   0  0  0  0  0  0  0  0  0  0  0  0
   37.2910   31.0500   37.2860 N   0  0  0  0  0  0  0  0  0  0  0  0
   38.6560   32.5530   37.2370 H   0  0  0  0  0  0  0  0  0  0  0  0
   41.1680   31.3120   39.7210 Cl  0  0  0  0  0  0  0  0  0  0  0  0
   40.4910   32.9010   40.0200 C   0  0  0  0  0  0  0  0  0  0  0  0
   39.1350   32.9310   39.7700 C   0  0  0  0  0  0  0  0  0  0  0  0
   38.4610   34.1450   39.9650 C   0  0  0  0  0  0  0  0  0  0  0  0
   37.3900   34.3560   39.8180 H   0  0  0  0  0  0  0  0  0  0  0  0
   39.1360   35.2860   40.3970 C   0  0  0  0  0  0  0  0  0  0  0  0
   38.6660   36.2440   40.5620 H   0  0  0  0  0  0  0  0  0  0  0  0
   40.4870   35.2200   40.6350 C   0  0  0  0  0  3  0  0  0  0  0  0
   41.1550   34.0290   40.4460 C   0  0  0  0  0  3  0  0  0  0  0  0
   35.6610   29.2650   37.3350 C   0  0  0  0  0  3  0  0  0  0  0  0
   34.5440   28.8370   37.8770 C   0  0  0  0  0  3  0  0  0  0  0  0
   33.6650   27.8850   37.1480 C   0  0  0  0  0  0  0  0  0  0  0  0
   34.1850   26.9300   37.1760 H   0  0  0  0  0  0  0  0  0  0  0  0
   32.7480   27.7460   37.7910 H   0  0  0  0  0  0  0  0  0  0  0  0
   32.0360   29.0580   35.9460 C   0  0  0  0  0  0  0  0  0  0  0  0
   31.2380   29.3670   36.8700 O   0  0  0  0  0  0  0  0  0  0  0  0
   33.2470   28.3700   35.9030 N   0  0  0  0  0  0  0  0  0  0  0  0
   33.7260   28.2720   34.9980 H   0  0  0  0  0  0  0  0  0  0  0  0
   30.8050   27.3230   33.7620 Cl  0  0  0  0  0  0  0  0  0  0  0  0
   30.7190   29.0640   33.7280 C   0  0  0  0  0  0  0  0  0  0  0  0
   31.3300   29.6440   34.8000 C   0  0  0  0  0  0  0  0  0  0  0  0
   31.3540   31.0420   34.9300 C   0  0  0  0  0  0  0  0  0  0  0  0
   30.7480   31.8380   33.9550 C   0  0  0  0  0  0  0  0  0  0  0  0
   30.1400   31.2300   32.8850 C   0  0  0  0  0  0  0  0  0  0  0  0
   29.3670   32.1630   31.6290 Cl  0  0  0  0  0  0  0  0  0  0  0  0
   30.1280   29.8480   32.7750 C   0  0  0  0  0  0  0  0  0  0  0  0
   31.8000   31.6240   35.7240 H   0  0  0  0  0  0  0  0  0  0  0  0
   30.7350   32.9170   34.0010 H   0  0  0  0  0  0  0  0  0  0  0  0
   29.6640   29.3040   31.9540 H   0  0  0  0  0  0  0  0  0  0  0  0
   37.4550   31.0080   41.4040 O   0  0  0  0  0  0  0  0  0  0  0  0
   38.4770   30.2020   42.0170 C   0  0  0  0  0  0  0  0  0  0  0  0
   39.4280   31.0340   42.5900 F   0  0  0  0  0  0  0  0  0  0  0  0
   37.8350   29.4940   43.0370 F   0  0  0  0  0  0  0  0  0  0  0  0
   39.0450   29.2840   41.1350 F   0  0  0  0  0  0  0  0  0  0  0  0
  1  2  1  0  0  0  0
  2 10  1  0  0  0  0
  2  3  2  0  0  0  0
  3 37  1  0  0  0  0
  4  3  1  0  0  0  0
  5  4  2  0  0  0  0
  6  1  2  0  0  0  0
  6  5  1  0  0  0  0
  7  1  1  0  0  0  0
  8  9  1  0  0  0  0
  9 16  1  0  0  0  0
 10 11  1  0  0  0  0
 10  9  2  0  0  0  0
 11 13  2  0  0  0  0
 12 11  1  0  0  0  0
 13 14  1  0  0  0  0
 13 15  1  0  0  0  0
 16 15  2  0  0  0  0
 17 18  2  0  0  0  0
 17  5  1  0  0  0  0
 19 20  1  0  0  0  0
 19 21  1  0  0  0  0
 19 18  1  0  0  0  0
 22 23  2  0  0  0  0
 24 22  1  0  0  0  0
 24 19  1  0  0  0  0
 25 24  1  0  0  0  0
 27 26  1  0  0  0  0
 27 28  1  0  0  0  0
 28 29  2  0  0  0  0
 28 22  1  0  0  0  0
 29 34  1  0  0  0  0
 30 35  1  0  0  0  0
 30 29  1  0  0  0  0
 31 30  2  0  0  0  0
 32 31  1  0  0  0  0
 33 31  1  0  0  0  0
 33 27  2  0  0  0  0
 36 33  1  0  0  0  0
 37 38  1  0  0  0  0
 38 39  1  0  0  0  0
 38 40  1  0  0  0  0
 41 38  1  0  0  0  0
M  END
>  <minimizedAffinity>
-6.06613207

$$$$

 OpenBabel03242520593D

 41 43  0  0  0  0  0  0  0  0999 V2000
   41.6520   31.3730   41.1350 C   0  0  0  0  0  0  0  0  0  0  0  0
   41.3290   32.5290   40.3710 C   0  0  0  0  0  0  0  0  0  0  0  0
   40.0020   32.9060   40.2370 C   0  0  0  0  0  0  0  0  0  0  0  0
   39.1020   32.1400   40.8460 N   0  0  0  0  0  0  0  0  0  0  0  0
   39.3960   31.0520   41.5630 C   0  0  0  0  0  0  0  0  0  0  0  0
   40.6710   30.6590   41.7150 N   0  0  0  0  0  0  0  0  0  0  0  0
   42.6360   30.9820   41.3110 H   0  0  0  0  0  0  0  0  0  0  0  0
   42.9610   34.5720   41.9790 Cl  0  0  0  0  0  0  0  0  0  0  0  0
   43.4240   34.0630   40.3670 C   0  0  0  0  0  0  0  0  0  0  0  0
   42.5400   33.1380   39.8510 C   0  0  0  0  0  0  0  0  0  0  0  0
   42.7910   32.6400   38.5650 C   0  0  0  0  0  0  0  0  0  0  0  0
   42.2000   31.9040   37.9970 H   0  0  0  0  0  0  0  0  0  0  0  0
   43.8970   33.0620   37.8280 C   0  0  0  0  0  0  0  0  0  0  0  0
   44.1360   32.7100   36.8350 H   0  0  0  0  0  0  0  0  0  0  0  0
   44.7570   33.9840   38.3730 C   0  0  0  0  0  3  0  0  0  0  0  0
   44.5150   34.4780   39.6370 C   0  0  0  0  0  3  0  0  0  0  0  0
   38.3350   30.2630   42.1940 C   0  0  0  0  0  3  0  0  0  0  0  0
   38.5610   29.0850   42.7300 C   0  0  0  0  0  3  0  0  0  0  0  0
   37.4550   28.3160   43.3590 C   0  0  0  0  0  0  0  0  0  0  0  0
   37.3900   28.6830   44.3800 H   0  0  0  0  0  0  0  0  0  0  0  0
   36.5050   28.6600   42.8550 H   0  0  0  0  0  0  0  0  0  0  0  0
   37.5610   26.5540   41.8220 C   0  0  0  0  0  0  0  0  0  0  0  0
   37.4990   27.1860   40.7350 O   0  0  0  0  0  0  0  0  0  0  0  0
   37.5700   26.9350   43.1630 N   0  0  0  0  0  0  0  0  0  0  0  0
   37.6560   26.2030   43.8820 H   0  0  0  0  0  0  0  0  0  0  0  0
   39.8780   24.6970   42.5100 Cl  0  0  0  0  0  0  0  0  0  0  0  0
   38.5570   24.1990   41.4870 C   0  0  0  0  0  0  0  0  0  0  0  0
   37.6270   25.1800   41.3100 C   0  0  0  0  0  0  0  0  0  0  0  0
   36.4950   24.9470   40.5130 C   0  0  0  0  0  0  0  0  0  0  0  0
   36.3240   23.7030   39.9000 C   0  0  0  0  0  0  0  0  0  0  0  0
   37.2750   22.7320   40.0940 C   0  0  0  0  0  0  0  0  0  0  0  0
   37.1270   21.1570   39.3560 Cl  0  0  0  0  0  0  0  0  0  0  0  0
   38.3850   22.9830   40.8840 C   0  0  0  0  0  0  0  0  0  0  0  0
   35.6890   25.6320   40.2930 H   0  0  0  0  0  0  0  0  0  0  0  0
   35.4750   23.4660   39.2770 H   0  0  0  0  0  0  0  0  0  0  0  0
   39.1750   22.2580   41.0780 H   0  0  0  0  0  0  0  0  0  0  0  0
   39.6510   33.9960   39.5210 O   0  0  0  0  0  0  0  0  0  0  0  0
   39.4620   35.2260   40.2430 C   0  0  0  0  0  0  0  0  0  0  0  0
   39.2070   34.9350   41.5750 F   0  0  0  0  0  0  0  0  0  0  0  0
   40.6820   35.9010   40.1620 F   0  0  0  0  0  0  0  0  0  0  0  0
   38.4740   36.0350   39.6840 F   0  0  0  0  0  0  0  0  0  0  0  0
  1  7  1  0  0  0  0
  1  6  1  0  0  0  0
  2  1  2  0  0  0  0
  3  2  1  0  0  0  0
  3  4  2  0  0  0  0
  4  5  1  0  0  0  0
  5  6  2  0  0  0  0
  5 17  1  0  0  0  0
  9  8  1  0  0  0  0
 10  9  1  0  0  0  0
 10  2  1  0  0  0  0
 11 10  2  0  0  0  0
 12 11  1  0  0  0  0
 13 15  2  0  0  0  0
 13 11  1  0  0  0  0
 14 13  1  0  0  0  0
 15 16  1  0  0  0  0
 16  9  2  0  0  0  0
 17 18  2  0  0  0  0
 18 19  1  0  0  0  0
 19 20  1  0  0  0  0
 21 19  1  0  0  0  0
 22 24  1  0  0  0  0
 23 22  2  0  0  0  0
 24 19  1  0  0  0  0
 24 25  1  0  0  0  0
 27 26  1  0  0  0  0
 28 27  1  0  0  0  0
 28 22  1  0  0  0  0
 29 28  2  0  0  0  0
 30 31  2  0  0  0  0
 30 29  1  0  0  0  0
 31 33  1  0  0  0  0
 32 31  1  0  0  0  0
 33 36  1  0  0  0  0
 33 27  2  0  0  0  0
 34 29  1  0  0  0  0
 35 30  1  0  0  0  0
 37  3  1  0  0  0  0
 37 38  1  0  0  0  0
 38 39  1  0  0  0  0
 40 38  1  0  0  0  0
 41 38  1  0  0  0  0
M  END
>  <minimizedAffinity>
-5.99641848

$$$$
