
 OpenBabel03252505573D

 36 38  0  0  0  0  0  0  0  0999 V2000
   44.8910   34.9810   44.9690 C   0  0  0  0  0  0  0  0  0  0  0  0
   45.8190   34.6780   43.9770 C   0  0  0  0  0  0  0  0  0  0  0  0
   46.7690   33.6890   44.2450 C   0  0  0  0  0  0  0  0  0  0  0  0
   46.7370   33.0810   45.4480 N   0  0  0  0  0  0  0  0  0  0  0  0
   45.8280   33.3970   46.3820 C   0  0  0  0  0  0  0  0  0  0  0  0
   44.9040   34.3480   46.1430 N   0  0  0  0  0  0  0  0  0  0  0  0
   44.1470   35.7620   44.7380 H   0  0  0  0  0  0  0  0  0  0  0  0
   45.8670   31.3950   42.6640 Cl  0  0  0  0  0  0  0  0  0  0  0  0
   47.3520   32.3350   42.4780 C   0  0  0  0  0  0  0  0  0  0  0  0
   47.7900   33.4150   43.2340 C   0  0  0  0  0  0  0  0  0  0  0  0
   48.9950   33.9990   42.9250 C   0  0  0  0  0  0  0  0  0  0  0  0
   49.2090   34.8200   43.5850 H   0  0  0  0  0  0  0  0  0  0  0  0
   49.7310   33.4980   41.8780 C   0  0  0  0  0  0  0  0  0  0  0  0
   50.6610   33.9970   41.6790 H   0  0  0  0  0  0  0  0  0  0  0  0
   49.3360   32.4220   41.0920 C   0  0  0  0  0  3  0  0  0  0  0  0
   48.1220   31.8430   41.4150 C   0  0  0  0  0  3  0  0  0  0  0  0
   45.7660   35.4310   42.6810 C   0  0  0  0  0  0  0  0  0  0  0  0
   44.8630   36.4540   42.9000 F   0  0  0  0  0  0  0  0  0  0  0  0
   45.2590   34.5480   41.7280 F   0  0  0  0  0  0  0  0  0  0  0  0
   47.0100   35.8970   42.3690 F   0  0  0  0  0  0  0  0  0  0  0  0
   45.7670   32.7930   47.6270 O   0  0  0  0  0  0  0  0  0  0  0  0
   45.2930   31.4850   47.7800 C   0  0  0  0  0  0  0  0  0  0  0  0
   44.5680   31.2610   47.0030 H   0  0  0  0  0  0  0  0  0  0  0  0
   44.7310   31.4040   48.7500 H   0  0  0  0  0  0  0  0  0  0  0  0
   46.4440   30.5750   47.8220 C   0  0  0  0  0  0  0  0  0  0  0  0
   46.6300   29.3260   47.2790 C   0  0  0  0  0  0  0  0  0  0  0  0
   47.8260   28.6930   47.4870 C   0  0  0  0  0  0  0  0  0  0  0  0
   48.7980   29.2520   48.1940 N   0  0  0  0  0  0  0  0  0  0  0  0
   48.6180   30.4820   48.7320 C   0  0  0  0  0  0  0  0  0  0  0  0
   47.4400   31.1610   48.5550 N   0  0  0  0  0  0  0  0  0  0  0  0
   45.7300   29.0430   46.7420 H   0  0  0  0  0  0  0  0  0  0  0  0
   47.8660   27.7210   47.0180 H   0  0  0  0  0  0  0  0  0  0  0  0
   49.7630   31.0290   49.5010 C   0  0  0  0  0  0  0  0  0  0  0  0
   49.7980   32.3920   49.4550 F   0  0  0  0  0  0  0  0  0  0  0  0
   50.9670   30.5010   49.0110 F   0  0  0  0  0  0  0  0  0  0  0  0
   49.6950   30.6660   50.8360 F   0  0  0  0  0  0  0  0  0  0  0  0
  1  6  1  0  0  0  0
  2  3  1  0  0  0  0
  2  1  2  0  0  0  0
  3  4  2  0  0  0  0
  4  5  1  0  0  0  0
  5 21  1  0  0  0  0
  6  5  2  0  0  0  0
  7  1  1  0  0  0  0
  9  8  1  0  0  0  0
  9 10  1  0  0  0  0
 10  3  1  0  0  0  0
 11 10  2  0  0  0  0
 11 12  1  0  0  0  0
 13 11  1  0  0  0  0
 14 13  1  0  0  0  0
 15 16  1  0  0  0  0
 15 13  2  0  0  0  0
 16  9  2  0  0  0  0
 17 18  1  0  0  0  0
 17  2  1  0  0  0  0
 19 17  1  0  0  0  0
 20 17  1  0  0  0  0
 21 22  1  0  0  0  0
 22 25  1  0  0  0  0
 22 24  1  0  0  0  0
 23 22  1  0  0  0  0
 25 30  1  0  0  0  0
 26 27  1  0  0  0  0
 26 25  2  0  0  0  0
 27 28  2  0  0  0  0
 28 29  1  0  0  0  0
 29 33  1  0  0  0  0
 30 29  2  0  0  0  0
 31 26  1  0  0  0  0
 32 27  1  0  0  0  0
 33 36  1  0  0  0  0
 34 33  1  0  0  0  0
 35 33  1  0  0  0  0
M  END
>  <minimizedAffinity>
-6.25987482

>  <minimizedRMSD>
0.300103933

$$$$
