
 OpenBabel03242513583D

 34 37  0  0  0  0  0  0  0  0999 V2000
   33.2480   28.5410   36.9330 O   0  0  0  0  0  0  0  0  0  0  0  0
   32.1950   29.4180   36.7300 C   0  0  0  0  0  0  0  0  0  0  0  0
   31.2040   29.7380   37.6250 C   0  0  0  0  0  0  0  0  0  0  0  0
   30.2180   30.6350   37.2710 C   0  0  0  0  0  0  0  0  0  0  0  0
   30.1890   31.2360   36.0270 C   0  0  0  0  0  0  0  0  0  0  0  0
   29.1990   32.0990   35.7540 N   0  0  0  0  0  0  0  0  0  0  0  0
   29.1350   32.7070   34.5520 C   0  0  0  0  0  0  0  0  0  0  0  0
   30.1130   32.4110   33.6270 C   0  0  0  0  0  0  0  0  0  0  0  0
   31.1560   31.5090   33.9000 C   0  0  0  0  0  0  0  0  0  0  0  0
   31.1920   30.9020   35.1470 C   0  0  0  0  0  0  0  0  0  0  0  0
   32.2020   30.0010   35.4670 C   0  0  0  0  0  0  0  0  0  0  0  0
   31.2550   29.2490   38.5910 H   0  0  0  0  0  0  0  0  0  0  0  0
   29.4580   30.8570   38.0080 H   0  0  0  0  0  0  0  0  0  0  0  0
   28.3670   33.4090   34.2710 H   0  0  0  0  0  0  0  0  0  0  0  0
   30.1680   32.8300   32.6390 H   0  0  0  0  0  0  0  0  0  0  0  0
   31.9260   31.2670   33.1910 H   0  0  0  0  0  0  0  0  0  0  0  0
   32.9290   29.8110   34.7160 H   0  0  0  0  0  0  0  0  0  0  0  0
   33.8640   29.2800   39.2090 C   0  0  0  0  0  0  0  0  0  0  0  0
   34.0730   28.5370   38.0380 C   0  0  0  0  0  0  0  0  0  0  0  0
   35.2110   27.7320   38.0040 C   0  0  0  0  0  0  0  0  0  0  0  0
   36.0380   27.7050   39.0680 N   0  0  0  0  0  0  0  0  0  0  0  0
   35.8090   28.4360   40.1860 C   0  0  0  0  0  0  0  0  0  0  0  0
   34.7070   29.2170   40.2240 N   0  0  0  0  0  0  0  0  0  0  0  0
   32.9700   29.8880   39.1900 H   0  0  0  0  0  0  0  0  0  0  0  0
   35.4900   27.1090   37.1660 H   0  0  0  0  0  0  0  0  0  0  0  0
   37.9430   30.5300   40.1220 Cl  0  0  0  0  0  0  0  0  0  0  0  0
   37.7090   29.3500   41.4150 C   0  0  0  0  0  0  0  0  0  0  0  0
   36.6900   28.4210   41.3500 C   0  0  0  0  0  0  0  0  0  0  0  0
   36.5250   27.4970   42.3870 C   0  0  0  0  0  0  0  0  0  0  0  0
   35.6980   26.8160   42.2340 H   0  0  0  0  0  0  0  0  0  0  0  0
   37.4030   27.5540   43.4490 C   0  0  0  0  0  0  0  0  0  0  0  0
   37.2070   26.8070   44.2060 H   0  0  0  0  0  0  0  0  0  0  0  0
   38.4120   28.4940   43.4880 C   0  0  0  0  0  3  0  0  0  0  0  0
   38.6030   29.4220   42.4810 C   0  0  0  0  0  3  0  0  0  0  0  0
  1 19  1  0  0  0  0
  2  1  1  0  0  0  0
  2  3  1  0  0  0  0
  3 12  1  0  0  0  0
  4  3  2  0  0  0  0
  4 13  1  0  0  0  0
  5  4  1  0  0  0  0
  6  5  1  0  0  0  0
  7  6  2  0  0  0  0
  8  9  2  0  0  0  0
  8  7  1  0  0  0  0
  9 10  1  0  0  0  0
 10 11  1  0  0  0  0
 10  5  2  0  0  0  0
 11  2  2  0  0  0  0
 14  7  1  0  0  0  0
 15  8  1  0  0  0  0
 16  9  1  0  0  0  0
 17 11  1  0  0  0  0
 18 23  1  0  0  0  0
 19 18  2  0  0  0  0
 20 19  1  0  0  0  0
 20 21  2  0  0  0  0
 21 22  1  0  0  0  0
 22 23  2  0  0  0  0
 22 28  1  0  0  0  0
 24 18  1  0  0  0  0
 25 20  1  0  0  0  0
 26 27  1  0  0  0  0
 27 34  1  0  0  0  0
 28 27  2  0  0  0  0
 28 29  1  0  0  0  0
 29 31  2  0  0  0  0
 30 29  1  0  0  0  0
 31 33  1  0  0  0  0
 31 32  1  0  0  0  0
 34 33  2  0  0  0  0
M  END
>  <minimizedAffinity>
-6.03678417

$$$$

 OpenBabel03242513583D

 34 37  0  0  0  0  0  0  0  0999 V2000
   37.8770   26.0540   42.4700 O   0  0  0  0  0  0  0  0  0  0  0  0
   37.8080   24.9380   41.6520 C   0  0  0  0  0  0  0  0  0  0  0  0
   38.8340   24.0790   41.3400 C   0  0  0  0  0  0  0  0  0  0  0  0
   38.6050   23.0070   40.5050 C   0  0  0  0  0  0  0  0  0  0  0  0
   37.3600   22.7580   39.9580 C   0  0  0  0  0  0  0  0  0  0  0  0
   37.2130   21.6950   39.1540 N   0  0  0  0  0  0  0  0  0  0  0  0
   36.0140   21.4180   38.6010 C   0  0  0  0  0  0  0  0  0  0  0  0
   34.9600   22.2580   38.8900 C   0  0  0  0  0  0  0  0  0  0  0  0
   35.1010   23.3750   39.7320 C   0  0  0  0  0  0  0  0  0  0  0  0
   36.3470   23.6310   40.2840 C   0  0  0  0  0  0  0  0  0  0  0  0
   36.5400   24.7240   41.1220 C   0  0  0  0  0  0  0  0  0  0  0  0
   39.7960   24.3030   41.7840 H   0  0  0  0  0  0  0  0  0  0  0  0
   39.4410   22.3560   40.2870 H   0  0  0  0  0  0  0  0  0  0  0  0
   35.8300   20.5810   37.9470 H   0  0  0  0  0  0  0  0  0  0  0  0
   33.9620   22.1410   38.5110 H   0  0  0  0  0  0  0  0  0  0  0  0
   34.2910   24.0400   39.9690 H   0  0  0  0  0  0  0  0  0  0  0  0
   35.6930   25.3360   41.3110 H   0  0  0  0  0  0  0  0  0  0  0  0
   38.6100   27.7810   40.8620 C   0  0  0  0  0  0  0  0  0  0  0  0
   37.9540   27.3580   42.0260 C   0  0  0  0  0  0  0  0  0  0  0  0
   37.3320   28.3470   42.7870 C   0  0  0  0  0  0  0  0  0  0  0  0
   37.3890   29.6310   42.3810 N   0  0  0  0  0  0  0  0  0  0  0  0
   38.0320   30.0090   41.2500 C   0  0  0  0  0  0  0  0  0  0  0  0
   38.6350   29.0530   40.5090 N   0  0  0  0  0  0  0  0  0  0  0  0
   39.0770   26.9800   40.3040 H   0  0  0  0  0  0  0  0  0  0  0  0
   36.7920   28.1590   43.7050 H   0  0  0  0  0  0  0  0  0  0  0  0
   40.4540   31.4820   42.2050 Cl  0  0  0  0  0  0  0  0  0  0  0  0
   39.1860   32.1580   41.1780 C   0  0  0  0  0  0  0  0  0  0  0  0
   38.1050   31.3930   40.7910 C   0  0  0  0  0  0  0  0  0  0  0  0
   37.1130   31.9520   39.9780 C   0  0  0  0  0  0  0  0  0  0  0  0
   36.3130   31.2660   39.7360 H   0  0  0  0  0  0  0  0  0  0  0  0
   37.2610   33.2680   39.5910 C   0  0  0  0  0  0  0  0  0  0  0  0
   36.4540   33.6220   38.9650 H   0  0  0  0  0  0  0  0  0  0  0  0
   38.3530   34.0080   39.9920 C   0  0  0  0  0  3  0  0  0  0  0  0
   39.3510   33.4880   40.7950 C   0  0  0  0  0  3  0  0  0  0  0  0
  2  1  1  0  0  0  0
  3  2  1  0  0  0  0
  3 12  1  0  0  0  0
  4  3  2  0  0  0  0
  5 10  1  0  0  0  0
  5  4  1  0  0  0  0
  6  5  2  0  0  0  0
  7  8  2  0  0  0  0
  7  6  1  0  0  0  0
  8  9  1  0  0  0  0
  9 16  1  0  0  0  0
  9 10  2  0  0  0  0
 10 11  1  0  0  0  0
 11 17  1  0  0  0  0
 11  2  2  0  0  0  0
 13  4  1  0  0  0  0
 14  7  1  0  0  0  0
 15  8  1  0  0  0  0
 18 19  1  0  0  0  0
 19  1  1  0  0  0  0
 19 20  2  0  0  0  0
 20 25  1  0  0  0  0
 21 20  1  0  0  0  0
 22 21  2  0  0  0  0
 23 18  2  0  0  0  0
 23 22  1  0  0  0  0
 24 18  1  0  0  0  0
 27 26  1  0  0  0  0
 28 27  2  0  0  0  0
 28 22  1  0  0  0  0
 29 28  1  0  0  0  0
 30 29  1  0  0  0  0
 31 29  2  0  0  0  0
 31 33  1  0  0  0  0
 32 31  1  0  0  0  0
 33 34  2  0  0  0  0
 34 27  1  0  0  0  0
M  END
>  <minimizedAffinity>
-5.88064575

$$$$

 OpenBabel03242513583D

 34 37  0  0  0  0  0  0  0  0999 V2000
   37.3560   28.9990   42.8050 O   0  0  0  0  0  0  0  0  0  0  0  0
   38.5210   28.3050   43.0900 C   0  0  0  0  0  0  0  0  0  0  0  0
   38.6200   27.0510   43.6420 C   0  0  0  0  0  0  0  0  0  0  0  0
   39.8600   26.4930   43.8670 C   0  0  0  0  0  0  0  0  0  0  0  0
   41.0300   27.1580   43.5540 C   0  0  0  0  0  0  0  0  0  0  0  0
   42.2000   26.5520   43.8010 N   0  0  0  0  0  0  0  0  0  0  0  0
   43.3640   27.1680   43.5100 C   0  0  0  0  0  0  0  0  0  0  0  0
   43.3050   28.4290   42.9550 C   0  0  0  0  0  0  0  0  0  0  0  0
   42.0850   29.0750   42.6900 C   0  0  0  0  0  0  0  0  0  0  0  0
   40.9080   28.4130   43.0020 C   0  0  0  0  0  0  0  0  0  0  0  0
   39.6740   29.0090   42.7600 C   0  0  0  0  0  0  0  0  0  0  0  0
   37.6850   26.5560   43.8760 H   0  0  0  0  0  0  0  0  0  0  0  0
   39.8900   25.5020   44.3020 H   0  0  0  0  0  0  0  0  0  0  0  0
   44.3360   26.7350   43.6830 H   0  0  0  0  0  0  0  0  0  0  0  0
   44.1610   29.0170   42.6800 H   0  0  0  0  0  0  0  0  0  0  0  0
   42.0210   30.0570   42.2580 H   0  0  0  0  0  0  0  0  0  0  0  0
   39.6890   29.9800   42.3310 H   0  0  0  0  0  0  0  0  0  0  0  0
   36.2810   30.2140   40.9400 C   0  0  0  0  0  0  0  0  0  0  0  0
   36.7490   29.0500   41.5670 C   0  0  0  0  0  0  0  0  0  0  0  0
   36.5800   27.8540   40.8700 C   0  0  0  0  0  0  0  0  0  0  0  0
   35.9900   27.8700   39.6580 N   0  0  0  0  0  0  0  0  0  0  0  0
   35.5480   29.0120   39.0780 C   0  0  0  0  0  0  0  0  0  0  0  0
   35.7100   30.1730   39.7500 N   0  0  0  0  0  0  0  0  0  0  0  0
   36.4340   31.1160   41.5180 H   0  0  0  0  0  0  0  0  0  0  0  0
   36.8940   26.8870   41.2360 H   0  0  0  0  0  0  0  0  0  0  0  0
   37.4510   29.4090   36.8040 Cl  0  0  0  0  0  0  0  0  0  0  0  0
   35.7010   29.2310   36.6520 C   0  0  0  0  0  0  0  0  0  0  0  0
   34.9070   29.0520   37.7670 C   0  0  0  0  0  0  0  0  0  0  0  0
   33.5230   28.9140   37.6210 C   0  0  0  0  0  0  0  0  0  0  0  0
   32.9990   28.7800   38.5570 H   0  0  0  0  0  0  0  0  0  0  0  0
   33.0000   28.9640   36.3450 C   0  0  0  0  0  0  0  0  0  0  0  0
   31.9250   28.8490   36.3190 H   0  0  0  0  0  0  0  0  0  0  0  0
   33.8180   29.1440   35.2490 C   0  0  0  0  0  3  0  0  0  0  0  0
   35.1880   29.2830   35.3570 C   0  0  0  0  0  3  0  0  0  0  0  0
  1  2  1  0  0  0  0
  2  3  1  0  0  0  0
  3  4  2  0  0  0  0
  3 12  1  0  0  0  0
  4 13  1  0  0  0  0
  5  6  1  0  0  0  0
  5  4  1  0  0  0  0
  7 14  1  0  0  0  0
  7  6  2  0  0  0  0
  8  7  1  0  0  0  0
  9  8  2  0  0  0  0
  9 10  1  0  0  0  0
 10  5  2  0  0  0  0
 11 10  1  0  0  0  0
 11  2  2  0  0  0  0
 15  8  1  0  0  0  0
 16  9  1  0  0  0  0
 17 11  1  0  0  0  0
 18 24  1  0  0  0  0
 18 19  1  0  0  0  0
 19  1  1  0  0  0  0
 20 25  1  0  0  0  0
 20 19  2  0  0  0  0
 21 20  1  0  0  0  0
 22 21  2  0  0  0  0
 22 23  1  0  0  0  0
 23 18  2  0  0  0  0
 27 26  1  0  0  0  0
 27 28  1  0  0  0  0
 28 22  1  0  0  0  0
 29 28  2  0  0  0  0
 29 30  1  0  0  0  0
 31 29  1  0  0  0  0
 32 31  1  0  0  0  0
 33 34  1  0  0  0  0
 33 31  2  0  0  0  0
 34 27  2  0  0  0  0
M  END
>  <minimizedAffinity>
-5.74919462

$$$$

 OpenBabel03242513583D

 34 37  0  0  0  0  0  0  0  0999 V2000
   35.1940   28.0090   37.6160 O   0  0  0  0  0  0  0  0  0  0  0  0
   35.7320   28.5230   38.7850 C   0  0  0  0  0  0  0  0  0  0  0  0
   35.9310   29.8480   39.0890 C   0  0  0  0  0  0  0  0  0  0  0  0
   36.4810   30.2010   40.3020 C   0  0  0  0  0  0  0  0  0  0  0  0
   36.8470   29.2570   41.2430 C   0  0  0  0  0  0  0  0  0  0  0  0
   37.3760   29.6770   42.4020 N   0  0  0  0  0  0  0  0  0  0  0  0
   37.7450   28.7870   43.3460 C   0  0  0  0  0  0  0  0  0  0  0  0
   37.5600   27.4470   43.0770 C   0  0  0  0  0  0  0  0  0  0  0  0
   37.0070   26.9950   41.8670 C   0  0  0  0  0  0  0  0  0  0  0  0
   36.6380   27.9370   40.9180 C   0  0  0  0  0  0  0  0  0  0  0  0
   36.0860   27.5410   39.7040 C   0  0  0  0  0  0  0  0  0  0  0  0
   35.6350   30.5620   38.3300 H   0  0  0  0  0  0  0  0  0  0  0  0
   36.6200   31.2570   40.4990 H   0  0  0  0  0  0  0  0  0  0  0  0
   38.1750   29.0590   44.2960 H   0  0  0  0  0  0  0  0  0  0  0  0
   37.8150   26.6480   43.7480 H   0  0  0  0  0  0  0  0  0  0  0  0
   36.8550   25.9550   41.6410 H   0  0  0  0  0  0  0  0  0  0  0  0
   35.9660   26.4970   39.5510 H   0  0  0  0  0  0  0  0  0  0  0  0
   32.9550   28.9780   37.2220 C   0  0  0  0  0  0  0  0  0  0  0  0
   34.2590   28.6480   36.8280 C   0  0  0  0  0  0  0  0  0  0  0  0
   34.6270   29.0010   35.5300 C   0  0  0  0  0  0  0  0  0  0  0  0
   33.7370   29.6260   34.7340 N   0  0  0  0  0  0  0  0  0  0  0  0
   32.4830   29.9310   35.1450 C   0  0  0  0  0  0  0  0  0  0  0  0
   32.1220   29.5920   36.4020 N   0  0  0  0  0  0  0  0  0  0  0  0
   32.7150   28.6850   38.2360 H   0  0  0  0  0  0  0  0  0  0  0  0
   35.6000   28.8060   35.1000 H   0  0  0  0  0  0  0  0  0  0  0  0
   30.9020   28.0880   33.3970 Cl  0  0  0  0  0  0  0  0  0  0  0  0
   30.7220   29.8440   33.4560 C   0  0  0  0  0  0  0  0  0  0  0  0
   31.5030   30.6080   34.2990 C   0  0  0  0  0  0  0  0  0  0  0  0
   31.3420   31.9970   34.3280 C   0  0  0  0  0  0  0  0  0  0  0  0
   32.0040   32.4970   35.0230 H   0  0  0  0  0  0  0  0  0  0  0  0
   30.3930   32.5550   33.4960 C   0  0  0  0  0  0  0  0  0  0  0  0
   30.3320   33.6310   33.5780 H   0  0  0  0  0  0  0  0  0  0  0  0
   29.6270   31.7660   32.6630 C   0  0  0  0  0  3  0  0  0  0  0  0
   29.7600   30.3910   32.6100 C   0  0  0  0  0  3  0  0  0  0  0  0
  1  2  1  0  0  0  0
  2  3  2  0  0  0  0
  2 11  1  0  0  0  0
  3  4  1  0  0  0  0
  4 13  1  0  0  0  0
  4  5  2  0  0  0  0
  5  6  1  0  0  0  0
  6  7  2  0  0  0  0
  7 14  1  0  0  0  0
  8  7  1  0  0  0  0
  8 15  1  0  0  0  0
  9  8  2  0  0  0  0
 10  5  1  0  0  0  0
 10  9  1  0  0  0  0
 11 10  2  0  0  0  0
 12  3  1  0  0  0  0
 16  9  1  0  0  0  0
 17 11  1  0  0  0  0
 18 24  1  0  0  0  0
 19 18  1  0  0  0  0
 19  1  1  0  0  0  0
 20 19  2  0  0  0  0
 21 22  2  0  0  0  0
 21 20  1  0  0  0  0
 22 23  1  0  0  0  0
 23 18  2  0  0  0  0
 25 20  1  0  0  0  0
 26 27  1  0  0  0  0
 27 28  1  0  0  0  0
 28 29  2  0  0  0  0
 28 22  1  0  0  0  0
 29 30  1  0  0  0  0
 31 32  1  0  0  0  0
 31 29  1  0  0  0  0
 33 31  2  0  0  0  0
 34 33  1  0  0  0  0
 34 27  2  0  0  0  0
M  END
>  <minimizedAffinity>
-5.7480464

$$$$

 OpenBabel03242513583D

 34 37  0  0  0  0  0  0  0  0999 V2000
   37.9650   32.5970   40.9770 O   0  0  0  0  0  0  0  0  0  0  0  0
   37.2220   31.5810   40.3960 C   0  0  0  0  0  0  0  0  0  0  0  0
   36.3580   30.7240   41.0320 C   0  0  0  0  0  0  0  0  0  0  0  0
   35.6890   29.7590   40.3110 C   0  0  0  0  0  0  0  0  0  0  0  0
   35.8560   29.6180   38.9460 C   0  0  0  0  0  0  0  0  0  0  0  0
   35.1710   28.6560   38.3110 N   0  0  0  0  0  0  0  0  0  0  0  0
   35.3060   28.4860   36.9800 C   0  0  0  0  0  0  0  0  0  0  0  0
   36.1650   29.3280   36.3060 C   0  0  0  0  0  0  0  0  0  0  0  0
   36.8890   30.3400   36.9600 C   0  0  0  0  0  0  0  0  0  0  0  0
   36.7260   30.4870   38.3290 C   0  0  0  0  0  0  0  0  0  0  0  0
   37.4200   31.4730   39.0230 C   0  0  0  0  0  0  0  0  0  0  0  0
   36.2500   30.8600   42.1020 H   0  0  0  0  0  0  0  0  0  0  0  0
   35.0180   29.1050   40.8530 H   0  0  0  0  0  0  0  0  0  0  0  0
   34.7850   27.7330   36.4120 H   0  0  0  0  0  0  0  0  0  0  0  0
   36.3560   29.2900   35.2490 H   0  0  0  0  0  0  0  0  0  0  0  0
   37.5620   31.0050   36.4500 H   0  0  0  0  0  0  0  0  0  0  0  0
   38.0660   32.0930   38.4540 H   0  0  0  0  0  0  0  0  0  0  0  0
   39.7090   34.0970   40.0750 C   0  0  0  0  0  0  0  0  0  0  0  0
   39.2730   32.9010   40.6610 C   0  0  0  0  0  0  0  0  0  0  0  0
   40.2530   31.9500   40.9420 C   0  0  0  0  0  0  0  0  0  0  0  0
   41.5410   32.2160   40.6450 N   0  0  0  0  0  0  0  0  0  0  0  0
   41.9310   33.3830   40.0790 C   0  0  0  0  0  0  0  0  0  0  0  0
   40.9840   34.3070   39.8050 N   0  0  0  0  0  0  0  0  0  0  0  0
   38.9140   34.8040   39.8750 H   0  0  0  0  0  0  0  0  0  0  0  0
   40.0550   30.9870   41.3930 H   0  0  0  0  0  0  0  0  0  0  0  0
   43.5070   34.4910   42.3680 Cl  0  0  0  0  0  0  0  0  0  0  0  0
   44.1310   34.2090   40.7390 C   0  0  0  0  0  0  0  0  0  0  0  0
   43.3200   33.6920   39.7500 C   0  0  0  0  0  0  0  0  0  0  0  0
   43.8370   33.4770   38.4680 C   0  0  0  0  0  0  0  0  0  0  0  0
   43.1160   33.0700   37.7710 H   0  0  0  0  0  0  0  0  0  0  0  0
   45.1600   33.7970   38.2440 C   0  0  0  0  0  0  0  0  0  0  0  0
   45.4800   33.6010   37.2300 H   0  0  0  0  0  0  0  0  0  0  0  0
   45.9470   34.3120   39.2520 C   0  0  0  0  0  3  0  0  0  0  0  0
   45.4680   34.5360   40.5290 C   0  0  0  0  0  3  0  0  0  0  0  0
  2  1  1  0  0  0  0
  2  3  1  0  0  0  0
  3 12  1  0  0  0  0
  4 13  1  0  0  0  0
  4  3  2  0  0  0  0
  5  4  1  0  0  0  0
  6  5  2  0  0  0  0
  7  6  1  0  0  0  0
  8  9  1  0  0  0  0
  8  7  2  0  0  0  0
  9 10  2  0  0  0  0
 10  5  1  0  0  0  0
 10 11  1  0  0  0  0
 11  2  2  0  0  0  0
 14  7  1  0  0  0  0
 15  8  1  0  0  0  0
 16  9  1  0  0  0  0
 17 11  1  0  0  0  0
 18 19  1  0  0  0  0
 19 20  2  0  0  0  0
 19  1  1  0  0  0  0
 20 25  1  0  0  0  0
 21 20  1  0  0  0  0
 22 21  2  0  0  0  0
 23 18  2  0  0  0  0
 23 22  1  0  0  0  0
 24 18  1  0  0  0  0
 27 26  1  0  0  0  0
 28 22  1  0  0  0  0
 28 27  2  0  0  0  0
 29 28  1  0  0  0  0
 30 29  1  0  0  0  0
 31 29  2  0  0  0  0
 31 33  1  0  0  0  0
 32 31  1  0  0  0  0
 33 34  2  0  0  0  0
 34 27  1  0  0  0  0
M  END
>  <minimizedAffinity>
-5.71699905

$$$$

 OpenBabel03242513583D

 34 37  0  0  0  0  0  0  0  0999 V2000
   34.4820   28.3110   36.3270 O   0  0  0  0  0  0  0  0  0  0  0  0
   33.3390   29.0670   36.1200 C   0  0  0  0  0  0  0  0  0  0  0  0
   32.9430   29.6560   34.9440 C   0  0  0  0  0  0  0  0  0  0  0  0
   31.7720   30.3830   34.8980 C   0  0  0  0  0  0  0  0  0  0  0  0
   30.9680   30.5450   36.0100 C   0  0  0  0  0  0  0  0  0  0  0  0
   29.8430   31.2660   35.8900 N   0  0  0  0  0  0  0  0  0  0  0  0
   29.0310   31.4480   36.9510 C   0  0  0  0  0  0  0  0  0  0  0  0
   29.3960   30.8710   38.1490 C   0  0  0  0  0  0  0  0  0  0  0  0
   30.5730   30.1130   38.2890 C   0  0  0  0  0  0  0  0  0  0  0  0
   31.3840   29.9470   37.1770 C   0  0  0  0  0  0  0  0  0  0  0  0
   32.5590   29.2060   37.2620 C   0  0  0  0  0  0  0  0  0  0  0  0
   33.5950   29.5100   34.0910 H   0  0  0  0  0  0  0  0  0  0  0  0
   31.4980   30.8290   33.9510 H   0  0  0  0  0  0  0  0  0  0  0  0
   28.1150   32.0150   36.9200 H   0  0  0  0  0  0  0  0  0  0  0  0
   28.8340   30.9450   39.0610 H   0  0  0  0  0  0  0  0  0  0  0  0
   30.8720   29.6570   39.2140 H   0  0  0  0  0  0  0  0  0  0  0  0
   32.7900   28.7850   38.2090 H   0  0  0  0  0  0  0  0  0  0  0  0
   35.6340   29.2960   38.2780 C   0  0  0  0  0  0  0  0  0  0  0  0
   35.1600   28.2130   37.5240 C   0  0  0  0  0  0  0  0  0  0  0  0
   35.4020   26.9400   38.0380 C   0  0  0  0  0  0  0  0  0  0  0  0
   36.0630   26.8100   39.2060 N   0  0  0  0  0  0  0  0  0  0  0  0
   36.5080   27.8770   39.9130 C   0  0  0  0  0  0  0  0  0  0  0  0
   36.2760   29.1120   39.4180 N   0  0  0  0  0  0  0  0  0  0  0  0
   35.4230   30.2620   37.8400 H   0  0  0  0  0  0  0  0  0  0  0  0
   35.0910   26.0210   37.5600 H   0  0  0  0  0  0  0  0  0  0  0  0
   39.4700   27.5850   39.6120 Cl  0  0  0  0  0  0  0  0  0  0  0  0
   38.5980   27.6200   41.1480 C   0  0  0  0  0  0  0  0  0  0  0  0
   37.2250   27.7590   41.1790 C   0  0  0  0  0  0  0  0  0  0  0  0
   36.5560   27.7840   42.4070 C   0  0  0  0  0  0  0  0  0  0  0  0
   35.4840   27.8950   42.3160 H   0  0  0  0  0  0  0  0  0  0  0  0
   37.3120   27.6660   43.5560 C   0  0  0  0  0  0  0  0  0  0  0  0
   36.7200   27.6940   44.4610 H   0  0  0  0  0  0  0  0  0  0  0  0
   38.6830   27.5290   43.4940 C   0  0  0  0  0  3  0  0  0  0  0  0
   39.3740   27.5010   42.2980 C   0  0  0  0  0  3  0  0  0  0  0  0
  1 19  1  0  0  0  0
  2  1  1  0  0  0  0
  2 11  1  0  0  0  0
  3  2  2  0  0  0  0
  4  3  1  0  0  0  0
  4  5  2  0  0  0  0
  5 10  1  0  0  0  0
  6  5  1  0  0  0  0
  6  7  2  0  0  0  0
  7  8  1  0  0  0  0
  8  9  2  0  0  0  0
  8 15  1  0  0  0  0
  9 16  1  0  0  0  0
 10 11  2  0  0  0  0
 10  9  1  0  0  0  0
 11 17  1  0  0  0  0
 12  3  1  0  0  0  0
 13  4  1  0  0  0  0
 14  7  1  0  0  0  0
 18 23  1  0  0  0  0
 19 20  1  0  0  0  0
 19 18  2  0  0  0  0
 20 21  2  0  0  0  0
 21 22  1  0  0  0  0
 22 28  1  0  0  0  0
 23 22  2  0  0  0  0
 24 18  1  0  0  0  0
 25 20  1  0  0  0  0
 26 27  1  0  0  0  0
 27 28  2  0  0  0  0
 27 34  1  0  0  0  0
 28 29  1  0  0  0  0
 29 31  2  0  0  0  0
 30 29  1  0  0  0  0
 31 32  1  0  0  0  0
 33 31  1  0  0  0  0
 34 33  2  0  0  0  0
M  END
>  <minimizedAffinity>
-5.637784

$$$$

 OpenBabel03242513583D

 34 37  0  0  0  0  0  0  0  0999 V2000
   33.4640   28.4260   37.5650 O   0  0  0  0  0  0  0  0  0  0  0  0
   32.7740   29.2070   36.6510 C   0  0  0  0  0  0  0  0  0  0  0  0
   33.0280   29.3210   35.3060 C   0  0  0  0  0  0  0  0  0  0  0  0
   32.2470   30.1450   34.5250 C   0  0  0  0  0  0  0  0  0  0  0  0
   31.1980   30.8740   35.0520 C   0  0  0  0  0  0  0  0  0  0  0  0
   30.4810   31.6540   34.2300 N   0  0  0  0  0  0  0  0  0  0  0  0
   29.4490   32.3810   34.7050 C   0  0  0  0  0  0  0  0  0  0  0  0
   29.1630   32.2930   36.0510 C   0  0  0  0  0  0  0  0  0  0  0  0
   29.9070   31.4780   36.9230 C   0  0  0  0  0  0  0  0  0  0  0  0
   30.9600   30.7440   36.4010 C   0  0  0  0  0  0  0  0  0  0  0  0
   31.7270   29.9240   37.2220 C   0  0  0  0  0  0  0  0  0  0  0  0
   33.8570   28.7370   34.9250 H   0  0  0  0  0  0  0  0  0  0  0  0
   32.4820   30.2040   33.4700 H   0  0  0  0  0  0  0  0  0  0  0  0
   28.8350   33.0260   34.0980 H   0  0  0  0  0  0  0  0  0  0  0  0
   28.3690   32.8220   36.5440 H   0  0  0  0  0  0  0  0  0  0  0  0
   29.6970   31.3970   37.9740 H   0  0  0  0  0  0  0  0  0  0  0  0
   31.4620   29.8930   38.2490 H   0  0  0  0  0  0  0  0  0  0  0  0
   34.3960   29.1650   39.7310 C   0  0  0  0  0  0  0  0  0  0  0  0
   34.4970   28.8710   38.3640 C   0  0  0  0  0  0  0  0  0  0  0  0
   35.7500   29.0460   37.7790 C   0  0  0  0  0  0  0  0  0  0  0  0
   36.7810   29.4790   38.5320 N   0  0  0  0  0  0  0  0  0  0  0  0
   36.6510   29.7550   39.8520 C   0  0  0  0  0  0  0  0  0  0  0  0
   35.4380   29.5860   40.4240 N   0  0  0  0  0  0  0  0  0  0  0  0
   33.4060   29.0140   40.1420 H   0  0  0  0  0  0  0  0  0  0  0  0
   35.9670   28.8560   36.7370 H   0  0  0  0  0  0  0  0  0  0  0  0
   37.2650   32.6660   39.5350 Cl  0  0  0  0  0  0  0  0  0  0  0  0
   38.1140   31.5550   40.6130 C   0  0  0  0  0  0  0  0  0  0  0  0
   37.7530   30.2240   40.6870 C   0  0  0  0  0  0  0  0  0  0  0  0
   38.4410   29.3640   41.5490 C   0  0  0  0  0  0  0  0  0  0  0  0
   38.0770   28.3450   41.5270 H   0  0  0  0  0  0  0  0  0  0  0  0
   39.4700   29.8910   42.3020 C   0  0  0  0  0  0  0  0  0  0  0  0
   39.9490   29.1610   42.9400 H   0  0  0  0  0  0  0  0  0  0  0  0
   39.8090   31.2250   42.2080 C   0  0  0  0  0  3  0  0  0  0  0  0
   39.1500   32.1020   41.3670 C   0  0  0  0  0  3  0  0  0  0  0  0
  1 19  1  0  0  0  0
  2 11  1  0  0  0  0
  2  1  1  0  0  0  0
  3  2  2  0  0  0  0
  4  5  2  0  0  0  0
  4  3  1  0  0  0  0
  5 10  1  0  0  0  0
  6  7  2  0  0  0  0
  6  5  1  0  0  0  0
  7  8  1  0  0  0  0
  8 15  1  0  0  0  0
  8  9  2  0  0  0  0
  9 16  1  0  0  0  0
 10  9  1  0  0  0  0
 10 11  2  0  0  0  0
 11 17  1  0  0  0  0
 12  3  1  0  0  0  0
 13  4  1  0  0  0  0
 14  7  1  0  0  0  0
 18 24  1  0  0  0  0
 18 23  1  0  0  0  0
 19 18  2  0  0  0  0
 20 19  1  0  0  0  0
 20 21  2  0  0  0  0
 21 22  1  0  0  0  0
 22 23  2  0  0  0  0
 22 28  1  0  0  0  0
 25 20  1  0  0  0  0
 26 27  1  0  0  0  0
 27 28  2  0  0  0  0
 27 34  1  0  0  0  0
 28 29  1  0  0  0  0
 29 31  2  0  0  0  0
 30 29  1  0  0  0  0
 31 32  1  0  0  0  0
 33 31  1  0  0  0  0
 34 33  2  0  0  0  0
M  END
>  <minimizedAffinity>
-5.52274227

$$$$

 OpenBabel03242513583D

 34 37  0  0  0  0  0  0  0  0999 V2000
   34.7950   28.0850   37.6870 O   0  0  0  0  0  0  0  0  0  0  0  0
   35.5820   28.7190   38.6340 C   0  0  0  0  0  0  0  0  0  0  0  0
   35.8840   28.2620   39.8940 C   0  0  0  0  0  0  0  0  0  0  0  0
   36.6860   29.0140   40.7260 C   0  0  0  0  0  0  0  0  0  0  0  0
   37.2080   30.2310   40.3340 C   0  0  0  0  0  0  0  0  0  0  0  0
   37.9820   30.9070   41.1970 N   0  0  0  0  0  0  0  0  0  0  0  0
   38.5100   32.0990   40.8520 C   0  0  0  0  0  0  0  0  0  0  0  0
   38.2300   32.5900   39.5950 C   0  0  0  0  0  0  0  0  0  0  0  0
   37.4210   31.8920   38.6800 C   0  0  0  0  0  0  0  0  0  0  0  0
   36.8940   30.6690   39.0680 C   0  0  0  0  0  0  0  0  0  0  0  0
   36.0870   29.9400   38.2000 C   0  0  0  0  0  0  0  0  0  0  0  0
   35.4580   27.3050   40.1710 H   0  0  0  0  0  0  0  0  0  0  0  0
   36.8980   28.6150   41.7090 H   0  0  0  0  0  0  0  0  0  0  0  0
   39.1390   32.6900   41.4990 H   0  0  0  0  0  0  0  0  0  0  0  0
   38.5920   33.5240   39.2080 H   0  0  0  0  0  0  0  0  0  0  0  0
   37.1930   32.2600   37.6970 H   0  0  0  0  0  0  0  0  0  0  0  0
   35.9050   30.3650   37.2450 H   0  0  0  0  0  0  0  0  0  0  0  0
   32.6180   29.1530   37.2070 C   0  0  0  0  0  0  0  0  0  0  0  0
   33.9020   28.7190   36.8470 C   0  0  0  0  0  0  0  0  0  0  0  0
   34.2950   28.9550   35.5300 C   0  0  0  0  0  0  0  0  0  0  0  0
   33.4460   29.5720   34.6840 N   0  0  0  0  0  0  0  0  0  0  0  0
   32.2110   29.9800   35.0630 C   0  0  0  0  0  0  0  0  0  0  0  0
   31.8260   29.7540   36.3380 N   0  0  0  0  0  0  0  0  0  0  0  0
   32.3580   28.9490   38.2370 H   0  0  0  0  0  0  0  0  0  0  0  0
   35.2560   28.6730   35.1230 H   0  0  0  0  0  0  0  0  0  0  0  0
   30.7510   28.1280   33.2220 Cl  0  0  0  0  0  0  0  0  0  0  0  0
   30.5520   29.8820   33.2740 C   0  0  0  0  0  0  0  0  0  0  0  0
   31.2760   30.6510   34.1630 C   0  0  0  0  0  0  0  0  0  0  0  0
   31.1010   32.0380   34.1860 C   0  0  0  0  0  0  0  0  0  0  0  0
   31.7170   32.5420   34.9190 H   0  0  0  0  0  0  0  0  0  0  0  0
   30.1970   32.5900   33.3010 C   0  0  0  0  0  0  0  0  0  0  0  0
   30.1220   33.6650   33.3830 H   0  0  0  0  0  0  0  0  0  0  0  0
   29.4880   31.7970   32.4240 C   0  0  0  0  0  3  0  0  0  0  0  0
   29.6360   30.4240   32.3760 C   0  0  0  0  0  3  0  0  0  0  0  0
  1  2  1  0  0  0  0
  2  3  1  0  0  0  0
  3 12  1  0  0  0  0
  3  4  2  0  0  0  0
  4 13  1  0  0  0  0
  5  4  1  0  0  0  0
  5  6  1  0  0  0  0
  7  6  2  0  0  0  0
  7 14  1  0  0  0  0
  8  7  1  0  0  0  0
  9 10  1  0  0  0  0
  9  8  2  0  0  0  0
 10  5  2  0  0  0  0
 11  2  2  0  0  0  0
 11 10  1  0  0  0  0
 15  8  1  0  0  0  0
 16  9  1  0  0  0  0
 17 11  1  0  0  0  0
 18 24  1  0  0  0  0
 19 18  1  0  0  0  0
 19  1  1  0  0  0  0
 20 19  2  0  0  0  0
 21 22  2  0  0  0  0
 21 20  1  0  0  0  0
 22 23  1  0  0  0  0
 23 18  2  0  0  0  0
 25 20  1  0  0  0  0
 26 27  1  0  0  0  0
 27 28  1  0  0  0  0
 28 29  2  0  0  0  0
 28 22  1  0  0  0  0
 29 30  1  0  0  0  0
 31 32  1  0  0  0  0
 31 29  1  0  0  0  0
 33 31  2  0  0  0  0
 34 33  1  0  0  0  0
 34 27  2  0  0  0  0
M  END
>  <minimizedAffinity>
-5.51484442

$$$$

 OpenBabel03242513583D

 34 37  0  0  0  0  0  0  0  0999 V2000
   37.2070   30.0230   41.9820 O   0  0  0  0  0  0  0  0  0  0  0  0
   37.8400   31.0630   41.3190 C   0  0  0  0  0  0  0  0  0  0  0  0
   37.2580   31.9780   40.4750 C   0  0  0  0  0  0  0  0  0  0  0  0
   38.0270   32.9590   39.8870 C   0  0  0  0  0  0  0  0  0  0  0  0
   39.3850   33.0600   40.1180 C   0  0  0  0  0  0  0  0  0  0  0  0
   40.0690   34.0420   39.5100 N   0  0  0  0  0  0  0  0  0  0  0  0
   41.3960   34.1740   39.7090 C   0  0  0  0  0  0  0  0  0  0  0  0
   42.0160   33.2750   40.5500 C   0  0  0  0  0  0  0  0  0  0  0  0
   41.3110   32.2410   41.1930 C   0  0  0  0  0  0  0  0  0  0  0  0
   39.9470   32.1340   40.9660 C   0  0  0  0  0  0  0  0  0  0  0  0
   39.2050   31.1290   41.5770 C   0  0  0  0  0  0  0  0  0  0  0  0
   36.1920   31.8700   40.3150 H   0  0  0  0  0  0  0  0  0  0  0  0
   37.5270   33.6590   39.2300 H   0  0  0  0  0  0  0  0  0  0  0  0
   42.0010   34.9400   39.2520 H   0  0  0  0  0  0  0  0  0  0  0  0
   43.0640   33.2780   40.7860 H   0  0  0  0  0  0  0  0  0  0  0  0
   41.7780   31.5320   41.8510 H   0  0  0  0  0  0  0  0  0  0  0  0
   39.7330   30.4650   42.2150 H   0  0  0  0  0  0  0  0  0  0  0  0
   37.4000   28.2790   40.2420 C   0  0  0  0  0  0  0  0  0  0  0  0
   37.1880   28.7100   41.5590 C   0  0  0  0  0  0  0  0  0  0  0  0
   36.9380   27.7200   42.5080 C   0  0  0  0  0  0  0  0  0  0  0  0
   36.9120   26.4270   42.1280 N   0  0  0  0  0  0  0  0  0  0  0  0
   37.1210   26.0410   40.8460 C   0  0  0  0  0  0  0  0  0  0  0  0
   37.3640   26.9980   39.9230 N   0  0  0  0  0  0  0  0  0  0  0  0
   37.5900   29.0820   39.5420 H   0  0  0  0  0  0  0  0  0  0  0  0
   36.7580   27.9130   43.5570 H   0  0  0  0  0  0  0  0  0  0  0  0
   39.5570   24.4850   41.6170 Cl  0  0  0  0  0  0  0  0  0  0  0  0
   38.1770   23.8440   40.7190 C   0  0  0  0  0  0  0  0  0  0  0  0
   37.0980   24.6470   40.4120 C   0  0  0  0  0  0  0  0  0  0  0  0
   36.0170   24.1170   39.7000 C   0  0  0  0  0  0  0  0  0  0  0  0
   35.2270   24.8320   39.5130 H   0  0  0  0  0  0  0  0  0  0  0  0
   36.0770   22.7900   39.3280 C   0  0  0  0  0  0  0  0  0  0  0  0
   35.2040   22.4590   38.7830 H   0  0  0  0  0  0  0  0  0  0  0  0
   37.1690   22.0110   39.6500 C   0  0  0  0  0  3  0  0  0  0  0  0
   38.2530   22.5030   40.3530 C   0  0  0  0  0  3  0  0  0  0  0  0
  2 11  1  0  0  0  0
  2  1  1  0  0  0  0
  3  2  2  0  0  0  0
  4  5  2  0  0  0  0
  4  3  1  0  0  0  0
  5 10  1  0  0  0  0
  6  7  2  0  0  0  0
  6  5  1  0  0  0  0
  7  8  1  0  0  0  0
  8 15  1  0  0  0  0
  8  9  2  0  0  0  0
  9 16  1  0  0  0  0
 10  9  1  0  0  0  0
 10 11  2  0  0  0  0
 11 17  1  0  0  0  0
 12  3  1  0  0  0  0
 13  4  1  0  0  0  0
 14  7  1  0  0  0  0
 18 19  1  0  0  0  0
 19  1  1  0  0  0  0
 19 20  2  0  0  0  0
 20 25  1  0  0  0  0
 21 20  1  0  0  0  0
 22 21  2  0  0  0  0
 23 18  2  0  0  0  0
 23 22  1  0  0  0  0
 24 18  1  0  0  0  0
 27 26  1  0  0  0  0
 28 27  1  0  0  0  0
 28 22  1  0  0  0  0
 29 28  2  0  0  0  0
 30 29  1  0  0  0  0
 31 33  2  0  0  0  0
 31 29  1  0  0  0  0
 32 31  1  0  0  0  0
 33 34  1  0  0  0  0
 34 27  2  0  0  0  0
M  END
>  <minimizedAffinity>
-5.50772429

$$$$
