
 OpenBabel03242518333D

 28 30  0  0  0  0  0  0  0  0999 V2000
   38.2550   28.9080   42.8300 C   0  0  0  0  0  0  0  0  0  0  0  0
   37.2430   28.5680   43.6800 C   0  0  0  0  0  0  0  0  0  0  0  0
   36.7000   27.3620   43.2830 C   0  0  0  0  0  0  0  0  0  0  0  0
   37.4280   27.0100   42.1730 C   0  0  0  0  0  0  0  0  0  0  0  0
   38.3330   27.9330   41.9300 O   0  0  0  0  0  0  0  0  0  0  0  0
   36.9490   29.1830   44.5220 H   0  0  0  0  0  0  0  0  0  0  0  0
   35.8860   26.8200   43.7410 H   0  0  0  0  0  0  0  0  0  0  0  0
   36.1380   27.4670   39.4850 Cl  0  0  0  0  0  0  0  0  0  0  0  0
   36.6960   25.9260   40.1010 C   0  0  0  0  0  0  0  0  0  0  0  0
   37.2750   25.8150   41.3480 C   0  0  0  0  0  0  0  0  0  0  0  0
   37.7130   24.5770   41.8200 C   0  0  0  0  0  0  0  0  0  0  0  0
   38.1600   24.5110   42.7890 H   0  0  0  0  0  0  0  0  0  0  0  0
   37.5780   23.4200   41.0490 C   0  0  0  0  0  0  0  0  0  0  0  0
   37.9070   22.4680   41.3960 H   0  0  0  0  0  0  0  0  0  0  0  0
   36.9840   23.6020   39.8000 C   0  0  0  0  0  3  0  0  0  0  0  0
   36.5430   24.8140   39.3090 C   0  0  0  0  0  3  0  0  0  0  0  0
   39.1170   30.0220   42.7950 O   0  0  0  0  0  0  0  0  0  0  0  0
   39.6280   30.4950   41.5880 C   0  0  0  0  0  0  0  0  0  0  0  0
   40.7720   30.0790   41.2870 O   0  0  0  0  0  0  0  0  0  0  0  0
   38.7860   31.3880   40.8550 C   0  0  0  0  0  0  0  0  0  0  0  0
   39.1540   32.7070   40.9640 C   0  0  0  0  0  0  0  0  0  0  0  0
   38.3800   33.6500   40.2730 C   0  0  0  0  0  0  0  0  0  0  0  0
   37.3290   33.2110   39.5520 N   0  0  0  0  0  0  0  0  0  0  0  0
   37.0090   31.9080   39.4770 C   0  0  0  0  0  0  0  0  0  0  0  0
   37.7360   30.9670   40.1320 N   0  0  0  0  0  0  0  0  0  0  0  0
   39.9960   33.0770   41.5400 H   0  0  0  0  0  0  0  0  0  0  0  0
   38.6050   34.7090   40.3090 H   0  0  0  0  0  0  0  0  0  0  0  0
   36.1520   31.6100   38.8810 H   0  0  0  0  0  0  0  0  0  0  0  0
  1  2  2  0  0  0  0
  2  6  1  0  0  0  0
  3  2  1  0  0  0  0
  3  7  1  0  0  0  0
  4  3  2  0  0  0  0
  5  4  1  0  0  0  0
  5  1  1  0  0  0  0
  8  9  1  0  0  0  0
  9 10  1  0  0  0  0
 10 11  2  0  0  0  0
 10  4  1  0  0  0  0
 11 12  1  0  0  0  0
 13 14  1  0  0  0  0
 13 11  1  0  0  0  0
 15 13  2  0  0  0  0
 16 15  1  0  0  0  0
 16  9  2  0  0  0  0
 17  1  1  0  0  0  0
 18 17  1  0  0  0  0
 19 18  2  0  0  0  0
 20 21  1  0  0  0  0
 20 18  1  0  0  0  0
 21 26  1  0  0  0  0
 22 27  1  0  0  0  0
 22 21  2  0  0  0  0
 23 22  1  0  0  0  0
 24 23  2  0  0  0  0
 24 25  1  0  0  0  0
 25 20  2  0  0  0  0
 28 24  1  0  0  0  0
M  END
>  <minimizedAffinity>
-5.38916063

$$$$

 OpenBabel03242518333D

 28 30  0  0  0  0  0  0  0  0999 V2000
   36.9730   27.7800   41.5470 C   0  0  0  0  0  0  0  0  0  0  0  0
   36.5920   27.7920   42.8570 C   0  0  0  0  0  0  0  0  0  0  0  0
   37.6910   27.5440   43.6550 C   0  0  0  0  0  0  0  0  0  0  0  0
   38.7270   27.3860   42.7670 C   0  0  0  0  0  0  0  0  0  0  0  0
   38.2790   27.5290   41.5390 O   0  0  0  0  0  0  0  0  0  0  0  0
   35.5710   27.9740   43.1720 H   0  0  0  0  0  0  0  0  0  0  0  0
   37.7270   27.4860   44.7330 H   0  0  0  0  0  0  0  0  0  0  0  0
   39.4170   24.4600   43.0120 Cl  0  0  0  0  0  0  0  0  0  0  0  0
   40.5370   25.7930   43.2020 C   0  0  0  0  0  0  0  0  0  0  0  0
   40.1270   27.1030   43.0710 C   0  0  0  0  0  0  0  0  0  0  0  0
   41.0360   28.1510   43.2260 C   0  0  0  0  0  0  0  0  0  0  0  0
   40.6990   29.1600   43.1210 H   0  0  0  0  0  0  0  0  0  0  0  0
   42.3800   27.9050   43.5170 C   0  0  0  0  0  0  0  0  0  0  0  0
   43.0850   28.6950   43.6380 H   0  0  0  0  0  0  0  0  0  0  0  0
   42.7270   26.5600   43.6360 C   0  0  0  0  0  3  0  0  0  0  0  0
   41.8500   25.5060   43.4870 C   0  0  0  0  0  3  0  0  0  0  0  0
   36.2470   27.9760   40.3550 O   0  0  0  0  0  0  0  0  0  0  0  0
   35.5270   29.1480   40.1400 C   0  0  0  0  0  0  0  0  0  0  0  0
   34.2820   29.0440   40.2470 O   0  0  0  0  0  0  0  0  0  0  0  0
   36.2970   30.3120   39.8270 C   0  0  0  0  0  0  0  0  0  0  0  0
   36.6780   30.3820   38.5080 C   0  0  0  0  0  0  0  0  0  0  0  0
   37.4370   31.4940   38.1170 C   0  0  0  0  0  0  0  0  0  0  0  0
   37.7460   32.4190   39.0480 N   0  0  0  0  0  0  0  0  0  0  0  0
   37.3490   32.3040   40.3270 C   0  0  0  0  0  0  0  0  0  0  0  0
   36.6140   31.2420   40.7420 N   0  0  0  0  0  0  0  0  0  0  0  0
   36.4380   29.6480   37.7470 H   0  0  0  0  0  0  0  0  0  0  0  0
   37.7750   31.6230   37.0960 H   0  0  0  0  0  0  0  0  0  0  0  0
   37.6270   33.0780   41.0360 H   0  0  0  0  0  0  0  0  0  0  0  0
  1  2  2  0  0  0  0
  2  6  1  0  0  0  0
  2  3  1  0  0  0  0
  3  7  1  0  0  0  0
  4 10  1  0  0  0  0
  4  3  2  0  0  0  0
  5  1  1  0  0  0  0
  5  4  1  0  0  0  0
  8  9  1  0  0  0  0
  9 16  1  0  0  0  0
 10  9  2  0  0  0  0
 10 11  1  0  0  0  0
 11 13  2  0  0  0  0
 12 11  1  0  0  0  0
 13 15  1  0  0  0  0
 13 14  1  0  0  0  0
 16 15  2  0  0  0  0
 17  1  1  0  0  0  0
 18 19  2  0  0  0  0
 18 17  1  0  0  0  0
 20 18  1  0  0  0  0
 20 25  1  0  0  0  0
 21 20  2  0  0  0  0
 22 21  1  0  0  0  0
 22 23  2  0  0  0  0
 23 24  1  0  0  0  0
 24 25  2  0  0  0  0
 24 28  1  0  0  0  0
 26 21  1  0  0  0  0
 27 22  1  0  0  0  0
M  END
>  <minimizedAffinity>
-5.37110662

$$$$

 OpenBabel03242518333D

 28 30  0  0  0  0  0  0  0  0999 V2000
   38.3510   28.8850   42.8560 C   0  0  0  0  0  0  0  0  0  0  0  0
   37.3240   28.5280   43.6790 C   0  0  0  0  0  0  0  0  0  0  0  0
   36.8560   27.2810   43.3120 C   0  0  0  0  0  0  0  0  0  0  0  0
   37.6440   26.9230   42.2470 C   0  0  0  0  0  0  0  0  0  0  0  0
   38.5110   27.8800   42.0000 O   0  0  0  0  0  0  0  0  0  0  0  0
   36.9660   29.1600   44.4840 H   0  0  0  0  0  0  0  0  0  0  0  0
   36.0510   26.7180   43.7620 H   0  0  0  0  0  0  0  0  0  0  0  0
   39.4710   24.7170   43.1900 Cl  0  0  0  0  0  0  0  0  0  0  0  0
   38.3820   24.6250   41.8230 C   0  0  0  0  0  0  0  0  0  0  0  0
   37.5820   25.6910   41.4660 C   0  0  0  0  0  0  0  0  0  0  0  0
   36.7200   25.5970   40.3720 C   0  0  0  0  0  0  0  0  0  0  0  0
   36.1070   26.4330   40.1110 H   0  0  0  0  0  0  0  0  0  0  0  0
   36.6430   24.4280   39.6100 C   0  0  0  0  0  0  0  0  0  0  0  0
   35.9900   24.3430   38.7730 H   0  0  0  0  0  0  0  0  0  0  0  0
   37.4780   23.3910   40.0240 C   0  0  0  0  0  3  0  0  0  0  0  0
   38.3380   23.4570   41.1010 C   0  0  0  0  0  3  0  0  0  0  0  0
   39.1590   30.0380   42.8070 O   0  0  0  0  0  0  0  0  0  0  0  0
   39.6540   30.5150   41.5960 C   0  0  0  0  0  0  0  0  0  0  0  0
   40.7980   30.1070   41.2830 O   0  0  0  0  0  0  0  0  0  0  0  0
   38.7990   31.4020   40.8710 C   0  0  0  0  0  0  0  0  0  0  0  0
   39.1490   32.7260   40.9920 C   0  0  0  0  0  0  0  0  0  0  0  0
   38.3610   33.6640   40.3100 C   0  0  0  0  0  0  0  0  0  0  0  0
   37.3150   33.2160   39.5850 N   0  0  0  0  0  0  0  0  0  0  0  0
   37.0140   31.9090   39.4980 C   0  0  0  0  0  0  0  0  0  0  0  0
   37.7540   30.9730   40.1440 N   0  0  0  0  0  0  0  0  0  0  0  0
   39.9850   33.1020   41.5700 H   0  0  0  0  0  0  0  0  0  0  0  0
   38.5710   34.7260   40.3540 H   0  0  0  0  0  0  0  0  0  0  0  0
   36.1610   31.6050   38.9000 H   0  0  0  0  0  0  0  0  0  0  0  0
  1  2  2  0  0  0  0
  2  6  1  0  0  0  0
  3  2  1  0  0  0  0
  3  7  1  0  0  0  0
  4  3  2  0  0  0  0
  5  4  1  0  0  0  0
  5  1  1  0  0  0  0
  9  8  1  0  0  0  0
 10  9  1  0  0  0  0
 10  4  1  0  0  0  0
 11 10  2  0  0  0  0
 12 11  1  0  0  0  0
 13 15  2  0  0  0  0
 13 11  1  0  0  0  0
 14 13  1  0  0  0  0
 15 16  1  0  0  0  0
 16  9  2  0  0  0  0
 17  1  1  0  0  0  0
 18 17  1  0  0  0  0
 19 18  2  0  0  0  0
 20 21  1  0  0  0  0
 20 18  1  0  0  0  0
 21 26  1  0  0  0  0
 22 27  1  0  0  0  0
 22 21  2  0  0  0  0
 23 22  1  0  0  0  0
 24 23  2  0  0  0  0
 24 25  1  0  0  0  0
 25 20  2  0  0  0  0
 28 24  1  0  0  0  0
M  END
>  <minimizedAffinity>
-5.36074877

$$$$

 OpenBabel03242518333D

 28 30  0  0  0  0  0  0  0  0999 V2000
   36.7000   29.0010   39.9900 C   0  0  0  0  0  0  0  0  0  0  0  0
   35.8030   29.0080   41.0180 C   0  0  0  0  0  0  0  0  0  0  0  0
   36.2320   28.1440   42.0060 C   0  0  0  0  0  0  0  0  0  0  0  0
   37.4090   27.6310   41.5200 C   0  0  0  0  0  0  0  0  0  0  0  0
   37.6610   28.1490   40.3380 O   0  0  0  0  0  0  0  0  0  0  0  0
   34.9060   29.6170   41.0120 H   0  0  0  0  0  0  0  0  0  0  0  0
   35.7490   27.9220   42.9460 H   0  0  0  0  0  0  0  0  0  0  0  0
   36.9130   24.7530   40.7680 Cl  0  0  0  0  0  0  0  0  0  0  0  0
   38.1400   25.3200   41.8800 C   0  0  0  0  0  0  0  0  0  0  0  0
   38.2920   26.6610   42.1630 C   0  0  0  0  0  0  0  0  0  0  0  0
   39.2770   27.0930   43.0520 C   0  0  0  0  0  0  0  0  0  0  0  0
   39.3790   28.1370   43.2590 H   0  0  0  0  0  0  0  0  0  0  0  0
   40.1330   26.1840   43.6800 C   0  0  0  0  0  0  0  0  0  0  0  0
   40.8890   26.4990   44.3610 H   0  0  0  0  0  0  0  0  0  0  0  0
   39.9260   24.8450   43.3490 C   0  0  0  0  0  3  0  0  0  0  0  0
   38.9610   24.3920   42.4740 C   0  0  0  0  0  3  0  0  0  0  0  0
   36.7310   29.6940   38.7640 O   0  0  0  0  0  0  0  0  0  0  0  0
   37.8610   30.4080   38.3730 C   0  0  0  0  0  0  0  0  0  0  0  0
   38.4150   30.0070   37.3210 O   0  0  0  0  0  0  0  0  0  0  0  0
   38.2420   31.4970   39.2180 C   0  0  0  0  0  0  0  0  0  0  0  0
   37.4030   32.5820   39.1300 C   0  0  0  0  0  0  0  0  0  0  0  0
   37.7060   33.6940   39.9280 C   0  0  0  0  0  0  0  0  0  0  0  0
   38.7920   33.6360   40.7240 N   0  0  0  0  0  0  0  0  0  0  0  0
   39.5820   32.5490   40.7740 C   0  0  0  0  0  0  0  0  0  0  0  0
   39.3200   31.4540   40.0170 N   0  0  0  0  0  0  0  0  0  0  0  0
   36.5270   32.6460   38.4940 H   0  0  0  0  0  0  0  0  0  0  0  0
   37.0940   34.5890   39.9160 H   0  0  0  0  0  0  0  0  0  0  0  0
   40.4440   32.5560   41.4340 H   0  0  0  0  0  0  0  0  0  0  0  0
  1  5  1  0  0  0  0
  1  2  2  0  0  0  0
  2  3  1  0  0  0  0
  3  7  1  0  0  0  0
  4  3  2  0  0  0  0
  4 10  1  0  0  0  0
  5  4  1  0  0  0  0
  6  2  1  0  0  0  0
  8  9  1  0  0  0  0
  9 10  2  0  0  0  0
  9 16  1  0  0  0  0
 10 11  1  0  0  0  0
 11 12  1  0  0  0  0
 11 13  2  0  0  0  0
 13 14  1  0  0  0  0
 15 13  1  0  0  0  0
 16 15  2  0  0  0  0
 17  1  1  0  0  0  0
 18 17  1  0  0  0  0
 18 20  1  0  0  0  0
 19 18  2  0  0  0  0
 20 25  1  0  0  0  0
 21 20  2  0  0  0  0
 21 22  1  0  0  0  0
 22 23  2  0  0  0  0
 23 24  1  0  0  0  0
 24 28  1  0  0  0  0
 25 24  2  0  0  0  0
 26 21  1  0  0  0  0
 27 22  1  0  0  0  0
M  END
>  <minimizedAffinity>
-5.31243896

$$$$

 OpenBabel03242518333D

 28 30  0  0  0  0  0  0  0  0999 V2000
   37.4530   30.7590   40.9730 C   0  0  0  0  0  0  0  0  0  0  0  0
   36.1030   30.7620   40.7750 C   0  0  0  0  0  0  0  0  0  0  0  0
   35.6460   29.4610   40.7170 C   0  0  0  0  0  0  0  0  0  0  0  0
   36.7750   28.6970   40.8880 C   0  0  0  0  0  0  0  0  0  0  0  0
   37.8190   29.4830   41.0360 O   0  0  0  0  0  0  0  0  0  0  0  0
   35.5230   31.6740   40.6830 H   0  0  0  0  0  0  0  0  0  0  0  0
   34.6320   29.1210   40.5700 H   0  0  0  0  0  0  0  0  0  0  0  0
   36.9970   27.4740   43.6360 Cl  0  0  0  0  0  0  0  0  0  0  0  0
   36.9760   26.5910   42.1250 C   0  0  0  0  0  0  0  0  0  0  0  0
   36.8710   27.2400   40.9130 C   0  0  0  0  0  0  0  0  0  0  0  0
   36.8550   26.5170   39.7190 C   0  0  0  0  0  0  0  0  0  0  0  0
   36.7730   27.0380   38.7880 H   0  0  0  0  0  0  0  0  0  0  0  0
   36.9460   25.1230   39.7160 C   0  0  0  0  0  0  0  0  0  0  0  0
   36.9350   24.5590   38.8130 H   0  0  0  0  0  0  0  0  0  0  0  0
   37.0500   24.5310   40.9740 C   0  0  0  0  0  3  0  0  0  0  0  0
   37.0680   25.2210   42.1690 C   0  0  0  0  0  3  0  0  0  0  0  0
   38.3850   31.8070   41.1040 O   0  0  0  0  0  0  0  0  0  0  0  0
   38.6110   32.6990   40.0580 C   0  0  0  0  0  0  0  0  0  0  0  0
   37.7530   33.6040   39.9260 O   0  0  0  0  0  0  0  0  0  0  0  0
   39.7840   32.4660   39.2740 C   0  0  0  0  0  0  0  0  0  0  0  0
   40.9560   32.6490   39.9680 C   0  0  0  0  0  0  0  0  0  0  0  0
   42.1550   32.4400   39.2720 C   0  0  0  0  0  0  0  0  0  0  0  0
   42.0880   32.0780   37.9750 N   0  0  0  0  0  0  0  0  0  0  0  0
   40.9150   31.9120   37.3400 C   0  0  0  0  0  0  0  0  0  0  0  0
   39.7350   32.1050   37.9810 N   0  0  0  0  0  0  0  0  0  0  0  0
   41.0280   32.9400   41.0100 H   0  0  0  0  0  0  0  0  0  0  0  0
   43.1200   32.5630   39.7480 H   0  0  0  0  0  0  0  0  0  0  0  0
   40.9190   31.6190   36.2940 H   0  0  0  0  0  0  0  0  0  0  0  0
  1  5  1  0  0  0  0
  1 17  1  0  0  0  0
  2  1  2  0  0  0  0
  3  2  1  0  0  0  0
  3  4  2  0  0  0  0
  4 10  1  0  0  0  0
  4  5  1  0  0  0  0
  6  2  1  0  0  0  0
  7  3  1  0  0  0  0
  9 16  1  0  0  0  0
  9  8  1  0  0  0  0
 10  9  2  0  0  0  0
 11 10  1  0  0  0  0
 12 11  1  0  0  0  0
 13 11  2  0  0  0  0
 13 15  1  0  0  0  0
 14 13  1  0  0  0  0
 15 16  2  0  0  0  0
 18 17  1  0  0  0  0
 19 18  2  0  0  0  0
 20 21  1  0  0  0  0
 20 18  1  0  0  0  0
 21 26  1  0  0  0  0
 22 27  1  0  0  0  0
 22 21  2  0  0  0  0
 23 22  1  0  0  0  0
 24 23  2  0  0  0  0
 24 25  1  0  0  0  0
 25 20  2  0  0  0  0
 28 24  1  0  0  0  0
M  END
>  <minimizedAffinity>
-5.26772356

$$$$

 OpenBabel03242518333D

 28 30  0  0  0  0  0  0  0  0999 V2000
   37.5990   28.7200   42.2390 C   0  0  0  0  0  0  0  0  0  0  0  0
   37.0060   28.1910   43.3480 C   0  0  0  0  0  0  0  0  0  0  0  0
   36.8210   26.8350   43.1650 C   0  0  0  0  0  0  0  0  0  0  0  0
   37.3270   26.5890   41.9130 C   0  0  0  0  0  0  0  0  0  0  0  0
   37.7760   27.7100   41.3920 O   0  0  0  0  0  0  0  0  0  0  0  0
   36.7390   28.7860   44.2140 H   0  0  0  0  0  0  0  0  0  0  0  0
   36.3790   26.1290   43.8520 H   0  0  0  0  0  0  0  0  0  0  0  0
   39.4480   24.6850   42.8980 Cl  0  0  0  0  0  0  0  0  0  0  0  0
   38.3260   24.3750   41.5910 C   0  0  0  0  0  0  0  0  0  0  0  0
   37.3870   25.3100   41.2100 C   0  0  0  0  0  0  0  0  0  0  0  0
   36.5010   25.0430   40.1650 C   0  0  0  0  0  0  0  0  0  0  0  0
   35.7790   25.7810   39.8840 H   0  0  0  0  0  0  0  0  0  0  0  0
   36.5390   23.8270   39.4780 C   0  0  0  0  0  0  0  0  0  0  0  0
   35.8690   23.6090   38.6790 H   0  0  0  0  0  0  0  0  0  0  0  0
   37.5110   22.9270   39.9130 C   0  0  0  0  0  3  0  0  0  0  0  0
   38.3990   23.1660   40.9420 C   0  0  0  0  0  3  0  0  0  0  0  0
   37.9960   30.0340   41.9220 O   0  0  0  0  0  0  0  0  0  0  0  0
   37.3120   30.7770   40.9630 C   0  0  0  0  0  0  0  0  0  0  0  0
   36.1170   31.0410   41.2370 O   0  0  0  0  0  0  0  0  0  0  0  0
   38.0580   31.1390   39.7980 C   0  0  0  0  0  0  0  0  0  0  0  0
   37.2890   31.2450   38.6630 C   0  0  0  0  0  0  0  0  0  0  0  0
   37.9430   31.5980   37.4740 C   0  0  0  0  0  0  0  0  0  0  0  0
   39.2750   31.8070   37.5130 N   0  0  0  0  0  0  0  0  0  0  0  0
   39.9820   31.6900   38.6500 C   0  0  0  0  0  0  0  0  0  0  0  0
   39.3830   31.3510   39.8190 N   0  0  0  0  0  0  0  0  0  0  0  0
   36.2180   31.0800   38.6140 H   0  0  0  0  0  0  0  0  0  0  0  0
   37.4080   31.7020   36.5380 H   0  0  0  0  0  0  0  0  0  0  0  0
   41.0520   31.8700   38.6240 H   0  0  0  0  0  0  0  0  0  0  0  0
  1  2  2  0  0  0  0
  2  6  1  0  0  0  0
  3  2  1  0  0  0  0
  3  7  1  0  0  0  0
  4  3  2  0  0  0  0
  5  4  1  0  0  0  0
  5  1  1  0  0  0  0
  9  8  1  0  0  0  0
 10  9  1  0  0  0  0
 10  4  1  0  0  0  0
 11 10  2  0  0  0  0
 12 11  1  0  0  0  0
 13 15  2  0  0  0  0
 13 11  1  0  0  0  0
 14 13  1  0  0  0  0
 15 16  1  0  0  0  0
 16  9  2  0  0  0  0
 17  1  1  0  0  0  0
 18 19  2  0  0  0  0
 18 17  1  0  0  0  0
 20 25  1  0  0  0  0
 20 18  1  0  0  0  0
 21 20  2  0  0  0  0
 22 23  2  0  0  0  0
 22 21  1  0  0  0  0
 23 24  1  0  0  0  0
 24 25  2  0  0  0  0
 26 21  1  0  0  0  0
 27 22  1  0  0  0  0
 28 24  1  0  0  0  0
M  END
>  <minimizedAffinity>
-5.25861073

$$$$

 OpenBabel03242518333D

 28 30  0  0  0  0  0  0  0  0999 V2000
   36.7660   29.0410   39.8950 C   0  0  0  0  0  0  0  0  0  0  0  0
   35.8580   29.0820   40.9130 C   0  0  0  0  0  0  0  0  0  0  0  0
   36.2010   28.1470   41.8690 C   0  0  0  0  0  0  0  0  0  0  0  0
   37.3390   27.5580   41.3750 C   0  0  0  0  0  0  0  0  0  0  0  0
   37.6490   28.1000   40.2180 O   0  0  0  0  0  0  0  0  0  0  0  0
   35.0140   29.7630   40.9220 H   0  0  0  0  0  0  0  0  0  0  0  0
   35.6890   27.9280   42.7940 H   0  0  0  0  0  0  0  0  0  0  0  0
   39.6600   28.4940   43.0590 Cl  0  0  0  0  0  0  0  0  0  0  0  0
   39.2120   26.8260   42.7750 C   0  0  0  0  0  0  0  0  0  0  0  0
   38.1310   26.4940   41.9870 C   0  0  0  0  0  0  0  0  0  0  0  0
   37.7910   25.1580   41.7740 C   0  0  0  0  0  0  0  0  0  0  0  0
   36.9480   24.9200   41.1590 H   0  0  0  0  0  0  0  0  0  0  0  0
   38.5320   24.1220   42.3480 C   0  0  0  0  0  0  0  0  0  0  0  0
   38.2840   23.0980   42.1930 H   0  0  0  0  0  0  0  0  0  0  0  0
   39.6120   24.5270   43.1320 C   0  0  0  0  0  3  0  0  0  0  0  0
   39.9700   25.8390   43.3590 C   0  0  0  0  0  3  0  0  0  0  0  0
   36.8700   29.7780   38.6980 O   0  0  0  0  0  0  0  0  0  0  0  0
   38.0390   30.4640   38.3790 C   0  0  0  0  0  0  0  0  0  0  0  0
   38.7390   29.9450   37.4770 O   0  0  0  0  0  0  0  0  0  0  0  0
   38.2890   31.6620   39.1190 C   0  0  0  0  0  0  0  0  0  0  0  0
   37.3030   32.6100   38.9800 C   0  0  0  0  0  0  0  0  0  0  0  0
   37.4710   33.8160   39.6750 C   0  0  0  0  0  0  0  0  0  0  0  0
   38.5780   33.9750   40.4280 N   0  0  0  0  0  0  0  0  0  0  0  0
   39.5140   33.0150   40.5300 C   0  0  0  0  0  0  0  0  0  0  0  0
   39.3860   31.8350   39.8730 N   0  0  0  0  0  0  0  0  0  0  0  0
   36.4080   32.4990   38.3790 H   0  0  0  0  0  0  0  0  0  0  0  0
   36.7390   34.6140   39.6180 H   0  0  0  0  0  0  0  0  0  0  0  0
   40.3860   33.1960   41.1500 H   0  0  0  0  0  0  0  0  0  0  0  0
  1  5  1  0  0  0  0
  1  2  2  0  0  0  0
  2  6  1  0  0  0  0
  2  3  1  0  0  0  0
  3  7  1  0  0  0  0
  4  3  2  0  0  0  0
  4 10  1  0  0  0  0
  5  4  1  0  0  0  0
  9  8  1  0  0  0  0
  9 16  1  0  0  0  0
 10  9  2  0  0  0  0
 11 10  1  0  0  0  0
 11 13  2  0  0  0  0
 12 11  1  0  0  0  0
 13 15  1  0  0  0  0
 14 13  1  0  0  0  0
 15 16  2  0  0  0  0
 17  1  1  0  0  0  0
 18 17  1  0  0  0  0
 18 20  1  0  0  0  0
 19 18  2  0  0  0  0
 20 25  1  0  0  0  0
 21 20  2  0  0  0  0
 21 22  1  0  0  0  0
 22 23  2  0  0  0  0
 23 24  1  0  0  0  0
 24 28  1  0  0  0  0
 25 24  2  0  0  0  0
 26 21  1  0  0  0  0
 27 22  1  0  0  0  0
M  END
>  <minimizedAffinity>
-5.24951077

$$$$

 OpenBabel03242518333D

 28 30  0  0  0  0  0  0  0  0999 V2000
   39.1240   27.1720   42.3570 C   0  0  0  0  0  0  0  0  0  0  0  0
   38.4360   27.5320   43.4790 C   0  0  0  0  0  0  0  0  0  0  0  0
   37.9760   28.8260   43.3400 C   0  0  0  0  0  0  0  0  0  0  0  0
   38.4180   29.2110   42.0980 C   0  0  0  0  0  0  0  0  0  0  0  0
   39.0870   28.2240   41.5440 O   0  0  0  0  0  0  0  0  0  0  0  0
   38.3000   26.8660   44.3250 H   0  0  0  0  0  0  0  0  0  0  0  0
   37.4010   29.4040   44.0480 H   0  0  0  0  0  0  0  0  0  0  0  0
   35.7540   29.5320   40.7200 Cl  0  0  0  0  0  0  0  0  0  0  0  0
   37.0240   30.7360   40.7800 C   0  0  0  0  0  0  0  0  0  0  0  0
   38.2130   30.4970   41.4370 C   0  0  0  0  0  0  0  0  0  0  0  0
   39.2120   31.4700   41.4740 C   0  0  0  0  0  0  0  0  0  0  0  0
   40.1270   31.2670   41.9880 H   0  0  0  0  0  0  0  0  0  0  0  0
   39.0390   32.7080   40.8490 C   0  0  0  0  0  0  0  0  0  0  0  0
   39.7930   33.4600   40.8690 H   0  0  0  0  0  0  0  0  0  0  0  0
   37.8160   32.8840   40.2040 C   0  0  0  0  0  3  0  0  0  0  0  0
   36.8120   31.9390   40.1520 C   0  0  0  0  0  3  0  0  0  0  0  0
   39.7810   25.9790   41.9990 O   0  0  0  0  0  0  0  0  0  0  0  0
   39.2250   24.7380   42.2990 C   0  0  0  0  0  0  0  0  0  0  0  0
   39.6330   24.2050   43.3580 O   0  0  0  0  0  0  0  0  0  0  0  0
   38.2660   24.2350   41.3640 C   0  0  0  0  0  0  0  0  0  0  0  0
   38.8310   23.5920   40.2880 C   0  0  0  0  0  0  0  0  0  0  0  0
   37.9590   23.0690   39.3230 C   0  0  0  0  0  0  0  0  0  0  0  0
   36.6320   23.2260   39.5050 N   0  0  0  0  0  0  0  0  0  0  0  0
   36.1300   23.8640   40.5760 C   0  0  0  0  0  0  0  0  0  0  0  0
   36.9420   24.3840   41.5300 N   0  0  0  0  0  0  0  0  0  0  0  0
   39.8940   23.4570   40.1270 H   0  0  0  0  0  0  0  0  0  0  0  0
   38.3250   22.5480   38.4460 H   0  0  0  0  0  0  0  0  0  0  0  0
   35.0530   23.9620   40.6720 H   0  0  0  0  0  0  0  0  0  0  0  0
  1  2  2  0  0  0  0
  2  6  1  0  0  0  0
  3  2  1  0  0  0  0
  3  7  1  0  0  0  0
  4  3  2  0  0  0  0
  5  4  1  0  0  0  0
  5  1  1  0  0  0  0
  8  9  1  0  0  0  0
  9 10  1  0  0  0  0
 10 11  2  0  0  0  0
 10  4  1  0  0  0  0
 11 12  1  0  0  0  0
 13 14  1  0  0  0  0
 13 11  1  0  0  0  0
 15 13  2  0  0  0  0
 16 15  1  0  0  0  0
 16  9  2  0  0  0  0
 17 18  1  0  0  0  0
 17  1  1  0  0  0  0
 18 19  2  0  0  0  0
 20 25  1  0  0  0  0
 20 18  1  0  0  0  0
 21 20  2  0  0  0  0
 22 23  2  0  0  0  0
 22 21  1  0  0  0  0
 23 24  1  0  0  0  0
 24 28  1  0  0  0  0
 24 25  2  0  0  0  0
 26 21  1  0  0  0  0
 27 22  1  0  0  0  0
M  END
>  <minimizedAffinity>
-5.13736868

$$$$

 OpenBabel03242518333D

 28 30  0  0  0  0  0  0  0  0999 V2000
   38.1480   31.7490   39.4330 C   0  0  0  0  0  0  0  0  0  0  0  0
   36.9170   32.1270   39.8870 C   0  0  0  0  0  0  0  0  0  0  0  0
   36.4390   31.1700   40.7600 C   0  0  0  0  0  0  0  0  0  0  0  0
   37.4310   30.2210   40.8010 C   0  0  0  0  0  0  0  0  0  0  0  0
   38.4200   30.5850   40.0140 O   0  0  0  0  0  0  0  0  0  0  0  0
   36.4320   33.0460   39.5780 H   0  0  0  0  0  0  0  0  0  0  0  0
   35.4980   31.1690   41.2890 H   0  0  0  0  0  0  0  0  0  0  0  0
   36.5060   27.7690   39.3090 Cl  0  0  0  0  0  0  0  0  0  0  0  0
   37.0430   27.8080   40.9750 C   0  0  0  0  0  0  0  0  0  0  0  0
   37.4490   28.9820   41.5730 C   0  0  0  0  0  0  0  0  0  0  0  0
   37.8740   28.9920   42.9030 C   0  0  0  0  0  0  0  0  0  0  0  0
   38.1850   29.9120   43.3500 H   0  0  0  0  0  0  0  0  0  0  0  0
   37.9000   27.8200   43.6620 C   0  0  0  0  0  0  0  0  0  0  0  0
   38.2220   27.8120   44.6780 H   0  0  0  0  0  0  0  0  0  0  0  0
   37.4770   26.6690   42.9970 C   0  0  0  0  0  3  0  0  0  0  0  0
   37.0530   26.6320   41.6850 C   0  0  0  0  0  3  0  0  0  0  0  0
   39.0480   32.3630   38.5390 O   0  0  0  0  0  0  0  0  0  0  0  0
   40.2390   32.9230   38.9960 C   0  0  0  0  0  0  0  0  0  0  0  0
   40.1290   33.7030   39.9720 O   0  0  0  0  0  0  0  0  0  0  0  0
   41.4250   32.5380   38.2950 C   0  0  0  0  0  0  0  0  0  0  0  0
   41.2400   31.4770   37.4410 C   0  0  0  0  0  0  0  0  0  0  0  0
   42.3550   31.0370   36.7130 C   0  0  0  0  0  0  0  0  0  0  0  0
   43.5310   31.6720   36.8940 N   0  0  0  0  0  0  0  0  0  0  0  0
   43.6590   32.7070   37.7430 C   0  0  0  0  0  0  0  0  0  0  0  0
   42.6030   33.1600   38.4640 N   0  0  0  0  0  0  0  0  0  0  0  0
   40.3030   30.9550   37.2840 H   0  0  0  0  0  0  0  0  0  0  0  0
   42.2930   30.2070   36.0190 H   0  0  0  0  0  0  0  0  0  0  0  0
   44.6290   33.1820   37.8500 H   0  0  0  0  0  0  0  0  0  0  0  0
  1  2  2  0  0  0  0
  1  5  1  0  0  0  0
  2  3  1  0  0  0  0
  3  4  2  0  0  0  0
  3  7  1  0  0  0  0
  4 10  1  0  0  0  0
  5  4  1  0  0  0  0
  6  2  1  0  0  0  0
  8  9  1  0  0  0  0
  9 10  2  0  0  0  0
  9 16  1  0  0  0  0
 10 11  1  0  0  0  0
 11 12  1  0  0  0  0
 11 13  2  0  0  0  0
 13 14  1  0  0  0  0
 15 13  1  0  0  0  0
 16 15  2  0  0  0  0
 17 18  1  0  0  0  0
 17  1  1  0  0  0  0
 18 19  2  0  0  0  0
 20 25  1  0  0  0  0
 20 18  1  0  0  0  0
 21 20  2  0  0  0  0
 22 23  2  0  0  0  0
 22 21  1  0  0  0  0
 23 24  1  0  0  0  0
 24 28  1  0  0  0  0
 24 25  2  0  0  0  0
 26 21  1  0  0  0  0
 27 22  1  0  0  0  0
M  END
>  <minimizedAffinity>
-5.03074837

$$$$
