
 OpenBabel03242514373D

 33 35  0  0  0  0  0  0  0  0999 V2000
   47.4550   34.0020   39.4170 C   0  0  0  0  0  0  0  0  0  0  0  0
   46.3160   33.5410   39.7910 O   0  0  0  0  0  0  0  0  0  0  0  0
   47.6890   33.4760   38.0610 C   0  0  0  0  0  0  0  0  0  0  0  0
   48.7350   33.8340   37.1660 C   0  0  0  0  0  0  0  0  0  0  0  0
   48.6970   33.1770   35.9650 C   0  0  0  0  0  0  0  0  0  0  0  0
   47.7560   32.2720   35.6560 C   0  0  0  0  0  0  0  0  0  0  0  0
   46.7140   32.2770   37.2460 S   0  0  0  0  0  0  0  0  0  0  0  0
   49.4620   34.5580   37.4550 H   0  0  0  0  0  0  0  0  0  0  0  0
   49.4260   33.3440   35.1820 H   0  0  0  0  0  0  0  0  0  0  0  0
   49.5390   32.4410   33.1890 Cl  0  0  0  0  0  0  0  0  0  0  0  0
   48.1350   31.4190   33.4080 C   0  0  0  0  0  0  0  0  0  0  0  0
   47.4140   31.4400   34.5820 C   0  0  0  0  0  0  0  0  0  0  0  0
   46.3040   30.6580   34.8080 C   0  0  0  0  0  0  0  0  0  0  0  0
   45.7380   30.6670   35.7140 H   0  0  0  0  0  0  0  0  0  0  0  0
   45.8590   29.7820   33.8090 C   0  0  0  0  0  0  0  0  0  0  0  0
   44.9920   29.1520   33.9490 H   0  0  0  0  0  0  0  0  0  0  0  0
   46.5640   29.7350   32.6140 C   0  0  0  0  0  0  0  0  0  0  0  0
   47.6800   30.5400   32.4220 C   0  0  0  0  0  0  0  0  0  0  0  0
   48.0240   34.7860   40.3610 O   0  0  0  0  0  0  0  0  0  0  0  0
   49.3780   35.4750   42.4370 O   0  0  0  0  0  0  0  0  0  0  0  0
   48.7970   34.2770   41.7500 P   0  0  2  0  0  0  0  0  0  0  0  0
   50.0530   33.2630   41.3240 O   0  0  0  0  0  0  0  0  0  0  0  0
   50.7750   33.2610   42.0280 H   0  0  0  0  0  0  0  0  0  0  0  0
   47.6730   33.4750   42.7860 O   0  0  0  0  0  0  0  0  0  0  0  0
   46.1290   35.2910   42.7720 C   0  0  0  0  0  0  0  0  0  0  0  0
   46.6590   34.1920   43.4170 C   0  0  0  0  0  0  0  0  0  0  0  0
   46.1550   33.8480   44.6770 C   0  0  0  0  0  0  0  0  0  0  0  0
   45.1540   34.6380   45.1920 N   0  0  0  0  0  0  0  0  0  0  0  0
   44.6660   35.6930   44.5400 C   0  0  0  0  0  0  0  0  0  0  0  0
   45.1470   36.0220   43.3370 N   0  0  0  0  0  0  0  0  0  0  0  0
   46.4390   35.6510   41.8010 H   0  0  0  0  0  0  0  0  0  0  0  0
   46.5690   32.9910   45.1800 H   0  0  0  0  0  0  0  0  0  0  0  0
   43.8790   36.2400   45.0450 H   0  0  0  0  0  0  0  0  0  0  0  0
  1  2  2  0  0  0  0
  1 19  1  0  0  0  0
  3  1  1  0  0  0  0
  4  8  1  0  0  0  0
  4  3  2  0  0  0  0
  5  4  1  0  0  0  0
  6  5  2  0  0  0  0
  6  7  1  0  0  0  0
  7  3  1  0  0  0  0
  9  5  1  0  0  0  0
 10 11  1  0  0  0  0
 11 12  1  0  0  0  0
 12 13  2  0  0  0  0
 12  6  1  0  0  0  0
 13 14  1  0  0  0  0
 15 16  1  0  0  0  0
 15 13  1  0  0  0  0
 17 15  2  0  0  0  0
 18 17  1  0  0  0  0
 18 11  2  0  0  0  0
 19 21  1  0  0  0  0
 21 20  2  1  0  0  0
 21 24  1  0  0  0  0
 22 21  1  0  0  0  0
 22 23  1  0  0  0  0
 24 26  1  0  0  0  0
 25 30  2  0  0  0  0
 25 26  1  0  0  0  0
 26 27  2  0  0  0  0
 27 32  1  0  0  0  0
 27 28  1  0  0  0  0
 29 33  1  0  0  0  0
 29 28  2  0  0  0  0
 30 29  1  0  0  0  0
 31 25  1  0  0  0  0
M  END
>  <minimizedAffinity>
-5.42429161

>  <minimizedRMSD>
0.293543518

$$$$
