
 OpenBabel03252508403D

 41 44  0  0  0  0  0  0  0  0999 V2000
   38.8340   30.2840   38.5410 C   0  0  0  0  0  0  0  0  0  0  0  0
   40.2040   30.3060   38.4520 C   0  0  0  0  0  0  0  0  0  0  0  0
   40.8270   29.1090   38.1990 C   0  0  0  0  0  0  0  0  0  0  0  0
   40.1630   27.9210   38.0360 C   0  0  0  0  0  0  0  0  0  0  0  0
   38.7990   27.9450   38.1320 C   0  0  0  0  0  0  0  0  0  0  0  0
   38.1100   29.1120   38.3830 C   0  0  0  0  0  0  0  0  0  0  0  0
   41.9070   29.1140   38.1260 H   0  0  0  0  0  0  0  0  0  0  0  0
   40.6720   26.9860   37.8370 H   0  0  0  0  0  0  0  0  0  0  0  0
   38.2550   27.0130   38.0050 H   0  0  0  0  0  0  0  0  0  0  0  0
   42.0680   33.5070   37.7420 C   0  0  0  0  0  0  0  0  0  0  0  0
   41.4280   32.2720   37.5440 C   0  0  0  0  0  0  0  0  0  0  0  0
   40.8680   31.5780   38.6300 C   0  0  0  0  0  0  0  0  0  0  0  0
   41.0000   32.1880   39.8310 N   0  0  0  0  0  0  0  0  0  0  0  0
   41.6090   33.3600   40.0040 C   0  0  0  0  0  0  0  0  0  0  0  0
   42.1410   34.0160   38.9620 N   0  0  0  0  0  0  0  0  0  0  0  0
   42.6110   34.1610   36.6230 N   0  0  0  0  0  0  0  0  0  0  0  0
   41.3340   31.8050   36.5750 H   0  0  0  0  0  0  0  0  0  0  0  0
   41.6530   33.7520   41.0260 H   0  0  0  0  0  0  0  0  0  0  0  0
   43.6100   34.3780   36.4430 H   0  0  0  0  0  0  0  0  0  0  0  0
   41.8070   34.3940   35.9890 H   0  0  0  0  0  0  0  0  0  0  0  0
   36.6650   29.0360   38.4680 C   0  0  0  0  0  0  0  0  0  0  0  0
   35.9870   29.2530   37.2850 C   0  0  0  0  0  0  0  0  0  0  0  0
   34.6040   29.2190   37.1600 C   0  0  0  0  0  0  0  0  0  0  0  0
   33.8760   28.9550   38.2950 C   0  0  0  0  0  0  0  0  0  0  0  0
   34.5230   28.7360   39.4820 C   0  0  0  0  0  0  0  0  0  0  0  0
   35.9120   28.7750   39.5810 C   0  0  0  0  0  0  0  0  0  0  0  0
   36.5020   29.4700   36.3360 H   0  0  0  0  0  0  0  0  0  0  0  0
   34.0970   29.3920   36.2240 H   0  0  0  0  0  0  0  0  0  0  0  0
   32.7880   28.9250   38.2180 H   0  0  0  0  0  0  0  0  0  0  0  0
   33.9380   28.5270   40.3710 H   0  0  0  0  0  0  0  0  0  0  0  0
   36.5490   25.8660   40.1630 Cl  0  0  0  0  0  0  0  0  0  0  0  0
   36.9370   27.2490   41.1730 C   0  0  0  0  0  0  0  0  0  0  0  0
   36.6080   28.5490   40.8240 C   0  0  0  0  0  0  0  0  0  0  0  0
   36.9900   29.5100   41.7330 C   0  0  0  0  0  0  0  0  0  0  0  0
   36.7490   30.5380   41.4990 H   0  0  0  0  0  0  0  0  0  0  0  0
   37.6530   29.2550   42.9160 C   0  0  0  0  0  0  0  0  0  0  0  0
   37.9060   30.0690   43.5540 H   0  0  0  0  0  0  0  0  0  0  0  0
   37.9650   27.9480   43.2290 C   0  0  0  0  0  3  0  0  0  0  0  0
   37.6050   26.9450   42.3550 C   0  0  0  0  0  3  0  0  0  0  0  0
   37.5010   32.4870   39.0190 N   0  0  0  0  0  0  0  0  0  0  0  0
   38.1060   31.5030   38.8050 C   0  0  0  0  0  0  0  0  0  0  0  0
  1 41  1  0  0  0  0
  2  1  1  0  0  0  0
  2 12  1  0  0  0  0
  3  2  2  0  0  0  0
  4  5  2  0  0  0  0
  4  3  1  0  0  0  0
  5  6  1  0  0  0  0
  6 21  1  0  0  0  0
  6  1  2  0  0  0  0
  7  3  1  0  0  0  0
  8  4  1  0  0  0  0
  9  5  1  0  0  0  0
 10 15  1  0  0  0  0
 11 10  2  0  0  0  0
 11 12  1  0  0  0  0
 12 13  2  0  0  0  0
 13 14  1  0  0  0  0
 14 18  1  0  0  0  0
 15 14  2  0  0  0  0
 16 10  1  0  0  0  0
 17 11  1  0  0  0  0
 19 16  1  0  0  0  0
 20 16  1  0  0  0  0
 21 26  1  0  0  0  0
 22 21  2  0  0  0  0
 23 22  1  0  0  0  0
 23 24  2  0  0  0  0
 24 25  1  0  0  0  0
 25 26  2  0  0  0  0
 25 30  1  0  0  0  0
 26 33  1  0  0  0  0
 27 22  1  0  0  0  0
 28 23  1  0  0  0  0
 29 24  1  0  0  0  0
 31 32  1  0  0  0  0
 32 39  1  0  0  0  0
 33 32  2  0  0  0  0
 33 34  1  0  0  0  0
 34 36  2  0  0  0  0
 35 34  1  0  0  0  0
 36 38  1  0  0  0  0
 36 37  1  0  0  0  0
 39 38  2  0  0  0  0
 41 40  3  0  0  0  0
M  END
>  <minimizedAffinity>
-6.55621099

$$$$

 OpenBabel03252508403D

 41 44  0  0  0  0  0  0  0  0999 V2000
   38.7480   30.6170   38.9140 C   0  0  0  0  0  0  0  0  0  0  0  0
   39.2470   31.8190   39.3490 C   0  0  0  0  0  0  0  0  0  0  0  0
   38.3850   32.6350   40.0400 C   0  0  0  0  0  0  0  0  0  0  0  0
   37.0800   32.3140   40.3080 C   0  0  0  0  0  0  0  0  0  0  0  0
   36.6230   31.1070   39.8570 C   0  0  0  0  0  0  0  0  0  0  0  0
   37.4360   30.2390   39.1580 C   0  0  0  0  0  0  0  0  0  0  0  0
   38.7680   33.5850   40.3880 H   0  0  0  0  0  0  0  0  0  0  0  0
   36.4140   32.9710   40.8550 H   0  0  0  0  0  0  0  0  0  0  0  0
   35.5920   30.8350   40.0610 H   0  0  0  0  0  0  0  0  0  0  0  0
   42.3250   33.2780   37.7280 C   0  0  0  0  0  0  0  0  0  0  0  0
   40.9760   32.9990   38.0030 C   0  0  0  0  0  0  0  0  0  0  0  0
   40.6290   32.1220   39.0450 C   0  0  0  0  0  0  0  0  0  0  0  0
   41.6740   31.5980   39.7270 N   0  0  0  0  0  0  0  0  0  0  0  0
   42.9480   31.8720   39.4550 C   0  0  0  0  0  0  0  0  0  0  0  0
   43.2710   32.7090   38.4590 N   0  0  0  0  0  0  0  0  0  0  0  0
   42.6190   34.1610   36.6760 N   0  0  0  0  0  0  0  0  0  0  0  0
   40.1590   33.4300   37.4450 H   0  0  0  0  0  0  0  0  0  0  0  0
   43.7060   31.3850   40.0780 H   0  0  0  0  0  0  0  0  0  0  0  0
   43.1310   33.9480   35.7980 H   0  0  0  0  0  0  0  0  0  0  0  0
   42.2190   35.0950   36.9430 H   0  0  0  0  0  0  0  0  0  0  0  0
   36.8610   28.9840   38.7200 C   0  0  0  0  0  0  0  0  0  0  0  0
   36.3600   28.9740   37.4330 C   0  0  0  0  0  0  0  0  0  0  0  0
   35.7740   27.8670   36.8320 C   0  0  0  0  0  0  0  0  0  0  0  0
   35.6910   26.7160   37.5770 C   0  0  0  0  0  0  0  0  0  0  0  0
   36.1790   26.6980   38.8560 C   0  0  0  0  0  0  0  0  0  0  0  0
   36.7640   27.8210   39.4370 C   0  0  0  0  0  0  0  0  0  0  0  0
   36.3910   29.8580   36.7770 H   0  0  0  0  0  0  0  0  0  0  0  0
   35.3900   27.8840   35.8230 H   0  0  0  0  0  0  0  0  0  0  0  0
   35.2330   25.8360   37.1220 H   0  0  0  0  0  0  0  0  0  0  0  0
   36.1100   25.7830   39.4340 H   0  0  0  0  0  0  0  0  0  0  0  0
   39.4830   26.5120   39.7450 Cl  0  0  0  0  0  0  0  0  0  0  0  0
   38.5160   27.2380   41.0190 C   0  0  0  0  0  0  0  0  0  0  0  0
   37.2800   27.8190   40.7830 C   0  0  0  0  0  0  0  0  0  0  0  0
   36.6620   28.3410   41.8970 C   0  0  0  0  0  0  0  0  0  0  0  0
   35.6930   28.8010   41.7570 H   0  0  0  0  0  0  0  0  0  0  0  0
   37.1860   28.3160   43.1730 C   0  0  0  0  0  0  0  0  0  0  0  0
   36.6300   28.7480   43.9710 H   0  0  0  0  0  0  0  0  0  0  0  0
   38.4210   27.7300   43.3680 C   0  0  0  0  0  3  0  0  0  0  0  0
   39.0840   27.1910   42.2870 C   0  0  0  0  0  3  0  0  0  0  0  0
   40.2800   28.9710   37.5710 N   0  0  0  0  0  0  0  0  0  0  0  0
   39.5930   29.7040   38.1800 C   0  0  0  0  0  0  0  0  0  0  0  0
  1  6  2  0  0  0  0
  1  2  1  0  0  0  0
  2  3  2  0  0  0  0
  3  4  1  0  0  0  0
  3  7  1  0  0  0  0
  4  8  1  0  0  0  0
  5  9  1  0  0  0  0
  5  4  2  0  0  0  0
  6  5  1  0  0  0  0
 10 11  2  0  0  0  0
 10 15  1  0  0  0  0
 11 12  1  0  0  0  0
 12  2  1  0  0  0  0
 12 13  2  0  0  0  0
 14 13  1  0  0  0  0
 14 18  1  0  0  0  0
 15 14  2  0  0  0  0
 16 20  1  0  0  0  0
 16 10  1  0  0  0  0
 17 11  1  0  0  0  0
 19 16  1  0  0  0  0
 21  6  1  0  0  0  0
 21 26  1  0  0  0  0
 22 21  2  0  0  0  0
 23 22  1  0  0  0  0
 23 24  2  0  0  0  0
 24 25  1  0  0  0  0
 25 30  1  0  0  0  0
 25 26  2  0  0  0  0
 26 33  1  0  0  0  0
 27 22  1  0  0  0  0
 28 23  1  0  0  0  0
 29 24  1  0  0  0  0
 31 32  1  0  0  0  0
 32 39  1  0  0  0  0
 33 32  2  0  0  0  0
 33 34  1  0  0  0  0
 34 36  2  0  0  0  0
 35 34  1  0  0  0  0
 36 38  1  0  0  0  0
 36 37  1  0  0  0  0
 39 38  2  0  0  0  0
 40 41  3  0  0  0  0
 41  1  1  0  0  0  0
M  END
>  <minimizedAffinity>
-6.4630723

$$$$

 OpenBabel03252508403D

 41 44  0  0  0  0  0  0  0  0999 V2000
   38.8950   26.9160   41.4870 C   0  0  0  0  0  0  0  0  0  0  0  0
   39.4350   27.2650   42.7000 C   0  0  0  0  0  0  0  0  0  0  0  0
   38.5550   27.6560   43.6790 C   0  0  0  0  0  0  0  0  0  0  0  0
   37.1970   27.7140   43.5070 C   0  0  0  0  0  0  0  0  0  0  0  0
   36.7020   27.3580   42.2830 C   0  0  0  0  0  0  0  0  0  0  0  0
   37.5280   26.9550   41.2560 C   0  0  0  0  0  0  0  0  0  0  0  0
   38.9690   27.9330   44.6400 H   0  0  0  0  0  0  0  0  0  0  0  0
   36.5180   28.0260   44.2920 H   0  0  0  0  0  0  0  0  0  0  0  0
   35.6270   27.3960   42.1290 H   0  0  0  0  0  0  0  0  0  0  0  0
   42.9140   25.9390   43.3020 C   0  0  0  0  0  0  0  0  0  0  0  0
   41.5160   25.9860   43.1700 C   0  0  0  0  0  0  0  0  0  0  0  0
   40.8720   27.1910   42.8420 C   0  0  0  0  0  0  0  0  0  0  0  0
   41.6930   28.2540   42.6730 N   0  0  0  0  0  0  0  0  0  0  0  0
   43.0170   28.1950   42.8010 C   0  0  0  0  0  0  0  0  0  0  0  0
   43.6240   27.0410   43.1140 N   0  0  0  0  0  0  0  0  0  0  0  0
   43.5090   24.7100   43.6310 N   0  0  0  0  0  0  0  0  0  0  0  0
   40.8810   25.1240   43.3090 H   0  0  0  0  0  0  0  0  0  0  0  0
   43.5750   29.1240   42.6400 H   0  0  0  0  0  0  0  0  0  0  0  0
   44.0440   24.4780   44.4900 H   0  0  0  0  0  0  0  0  0  0  0  0
   43.3100   24.0540   42.8350 H   0  0  0  0  0  0  0  0  0  0  0  0
   36.9100   26.5970   39.9960 C   0  0  0  0  0  0  0  0  0  0  0  0
   36.5230   25.2760   39.8760 C   0  0  0  0  0  0  0  0  0  0  0  0
   35.9120   24.7420   38.7490 C   0  0  0  0  0  0  0  0  0  0  0  0
   35.6860   25.5900   37.6920 C   0  0  0  0  0  0  0  0  0  0  0  0
   36.0600   26.9040   37.7840 C   0  0  0  0  0  0  0  0  0  0  0  0
   36.6710   27.4170   38.9260 C   0  0  0  0  0  0  0  0  0  0  0  0
   36.6710   24.5380   40.6790 H   0  0  0  0  0  0  0  0  0  0  0  0
   35.6180   23.7050   38.6790 H   0  0  0  0  0  0  0  0  0  0  0  0
   35.2070   25.1880   36.7970 H   0  0  0  0  0  0  0  0  0  0  0  0
   35.8760   27.5650   36.9440 H   0  0  0  0  0  0  0  0  0  0  0  0
   34.5540   29.2610   40.0750 Cl  0  0  0  0  0  0  0  0  0  0  0  0
   36.1680   29.7130   39.5500 C   0  0  0  0  0  0  0  0  0  0  0  0
   37.0730   28.7980   39.0370 C   0  0  0  0  0  0  0  0  0  0  0  0
   38.2920   29.3260   38.6770 C   0  0  0  0  0  0  0  0  0  0  0  0
   39.0270   28.6450   38.2700 H   0  0  0  0  0  0  0  0  0  0  0  0
   38.6400   30.6560   38.7950 C   0  0  0  0  0  0  0  0  0  0  0  0
   39.6110   30.9670   38.4880 H   0  0  0  0  0  0  0  0  0  0  0  0
   37.7120   31.5380   39.3100 C   0  0  0  0  0  3  0  0  0  0  0  0
   36.4740   31.0630   39.6870 C   0  0  0  0  0  3  0  0  0  0  0  0
   40.4450   26.1550   39.5170 N   0  0  0  0  0  0  0  0  0  0  0  0
   39.7550   26.4940   40.4060 C   0  0  0  0  0  0  0  0  0  0  0  0
  1  2  1  0  0  0  0
  2 12  1  0  0  0  0
  2  3  2  0  0  0  0
  3  7  1  0  0  0  0
  4  3  1  0  0  0  0
  4  8  1  0  0  0  0
  5  4  2  0  0  0  0
  6  1  2  0  0  0  0
  6  5  1  0  0  0  0
  9  5  1  0  0  0  0
 10 16  1  0  0  0  0
 11 10  1  0  0  0  0
 11 17  1  0  0  0  0
 12 11  2  0  0  0  0
 13 14  2  0  0  0  0
 13 12  1  0  0  0  0
 14 15  1  0  0  0  0
 15 10  2  0  0  0  0
 16 19  1  0  0  0  0
 18 14  1  0  0  0  0
 20 16  1  0  0  0  0
 21  6  1  0  0  0  0
 22 21  1  0  0  0  0
 22 27  1  0  0  0  0
 23 22  2  0  0  0  0
 24 25  2  0  0  0  0
 24 23  1  0  0  0  0
 25 26  1  0  0  0  0
 26 33  1  0  0  0  0
 26 21  2  0  0  0  0
 28 23  1  0  0  0  0
 29 24  1  0  0  0  0
 30 25  1  0  0  0  0
 32 39  1  0  0  0  0
 32 31  1  0  0  0  0
 33 32  2  0  0  0  0
 34 36  2  0  0  0  0
 34 33  1  0  0  0  0
 35 34  1  0  0  0  0
 36 38  1  0  0  0  0
 37 36  1  0  0  0  0
 38 39  2  0  0  0  0
 40 41  3  0  0  0  0
 41  1  1  0  0  0  0
M  END
>  <minimizedAffinity>
-6.39294147

$$$$

 OpenBabel03252508403D

 41 44  0  0  0  0  0  0  0  0999 V2000
   39.6840   28.7380   40.8550 C   0  0  0  0  0  0  0  0  0  0  0  0
   40.1280   30.0340   40.9380 C   0  0  0  0  0  0  0  0  0  0  0  0
   39.8610   30.7060   42.1050 C   0  0  0  0  0  0  0  0  0  0  0  0
   39.1870   30.1580   43.1650 C   0  0  0  0  0  0  0  0  0  0  0  0
   38.7620   28.8650   43.0400 C   0  0  0  0  0  0  0  0  0  0  0  0
   38.9970   28.1320   41.8970 C   0  0  0  0  0  0  0  0  0  0  0  0
   40.2080   31.7290   42.1820 H   0  0  0  0  0  0  0  0  0  0  0  0
   38.9850   30.7050   44.0780 H   0  0  0  0  0  0  0  0  0  0  0  0
   38.2270   28.4140   43.8710 H   0  0  0  0  0  0  0  0  0  0  0  0
   40.8670   31.7730   37.6740 C   0  0  0  0  0  0  0  0  0  0  0  0
   40.1580   31.2550   38.7710 C   0  0  0  0  0  0  0  0  0  0  0  0
   40.8350   30.5760   39.7980 C   0  0  0  0  0  0  0  0  0  0  0  0
   42.1740   30.4760   39.6360 N   0  0  0  0  0  0  0  0  0  0  0  0
   42.8330   30.9730   38.5910 C   0  0  0  0  0  0  0  0  0  0  0  0
   42.1810   31.6200   37.6140 N   0  0  0  0  0  0  0  0  0  0  0  0
   40.1430   32.4440   36.6730 N   0  0  0  0  0  0  0  0  0  0  0  0
   39.0880   31.3480   38.8780 H   0  0  0  0  0  0  0  0  0  0  0  0
   43.9190   30.8280   38.5720 H   0  0  0  0  0  0  0  0  0  0  0  0
   40.0380   32.1660   35.6780 H   0  0  0  0  0  0  0  0  0  0  0  0
   39.7200   33.2930   37.1220 H   0  0  0  0  0  0  0  0  0  0  0  0
   38.5070   26.7690   41.8580 C   0  0  0  0  0  0  0  0  0  0  0  0
   39.2930   25.8350   42.5060 C   0  0  0  0  0  0  0  0  0  0  0  0
   38.9920   24.4810   42.5830 C   0  0  0  0  0  0  0  0  0  0  0  0
   37.8380   24.0560   41.9700 C   0  0  0  0  0  0  0  0  0  0  0  0
   37.0410   24.9610   41.3200 C   0  0  0  0  0  0  0  0  0  0  0  0
   37.3640   26.3150   41.2580 C   0  0  0  0  0  0  0  0  0  0  0  0
   40.2300   26.1010   43.0190 H   0  0  0  0  0  0  0  0  0  0  0  0
   39.6220   23.7710   43.0960 H   0  0  0  0  0  0  0  0  0  0  0  0
   37.5850   22.9960   42.0200 H   0  0  0  0  0  0  0  0  0  0  0  0
   36.1320   24.6140   40.8410 H   0  0  0  0  0  0  0  0  0  0  0  0
   37.0690   25.8410   38.2760 Cl  0  0  0  0  0  0  0  0  0  0  0  0
   36.3480   27.1420   39.2090 C   0  0  0  0  0  0  0  0  0  0  0  0
   36.5370   27.2780   40.5750 C   0  0  0  0  0  0  0  0  0  0  0  0
   35.8960   28.3560   41.1450 C   0  0  0  0  0  0  0  0  0  0  0  0
   36.0200   28.5000   42.2100 H   0  0  0  0  0  0  0  0  0  0  0  0
   35.1130   29.2610   40.4590 C   0  0  0  0  0  0  0  0  0  0  0  0
   34.6590   30.0620   40.9910 H   0  0  0  0  0  0  0  0  0  0  0  0
   34.9480   29.0910   39.0990 C   0  0  0  0  0  3  0  0  0  0  0  0
   35.5680   28.0300   38.4760 C   0  0  0  0  0  3  0  0  0  0  0  0
   40.1190   27.3470   38.6780 N   0  0  0  0  0  0  0  0  0  0  0  0
   39.9250   27.9640   39.6590 C   0  0  0  0  0  0  0  0  0  0  0  0
  1  2  2  0  0  0  0
  1  6  1  0  0  0  0
  2  3  1  0  0  0  0
  3  7  1  0  0  0  0
  3  4  2  0  0  0  0
  4  8  1  0  0  0  0
  5  4  1  0  0  0  0
  5  9  1  0  0  0  0
  6  5  2  0  0  0  0
 10 11  1  0  0  0  0
 11 17  1  0  0  0  0
 11 12  2  0  0  0  0
 12  2  1  0  0  0  0
 13 12  1  0  0  0  0
 14 13  2  0  0  0  0
 15 10  2  0  0  0  0
 15 14  1  0  0  0  0
 16 20  1  0  0  0  0
 16 10  1  0  0  0  0
 18 14  1  0  0  0  0
 19 16  1  0  0  0  0
 21  6  1  0  0  0  0
 21 22  1  0  0  0  0
 22 23  2  0  0  0  0
 22 27  1  0  0  0  0
 23 28  1  0  0  0  0
 24 29  1  0  0  0  0
 24 23  1  0  0  0  0
 25 24  2  0  0  0  0
 26 25  1  0  0  0  0
 26 21  2  0  0  0  0
 30 25  1  0  0  0  0
 31 32  1  0  0  0  0
 32 33  1  0  0  0  0
 33 34  2  0  0  0  0
 33 26  1  0  0  0  0
 34 35  1  0  0  0  0
 36 37  1  0  0  0  0
 36 34  1  0  0  0  0
 38 36  2  0  0  0  0
 39 38  1  0  0  0  0
 39 32  2  0  0  0  0
 40 41  3  0  0  0  0
 41  1  1  0  0  0  0
M  END
>  <minimizedAffinity>
-6.38617516

$$$$

 OpenBabel03252508403D

 41 44  0  0  0  0  0  0  0  0999 V2000
   38.2750   28.3850   41.0570 C   0  0  0  0  0  0  0  0  0  0  0  0
   38.2100   29.4800   41.8820 C   0  0  0  0  0  0  0  0  0  0  0  0
   37.8230   29.2550   43.1810 C   0  0  0  0  0  0  0  0  0  0  0  0
   37.5050   28.0190   43.6800 C   0  0  0  0  0  0  0  0  0  0  0  0
   37.5820   26.9560   42.8240 C   0  0  0  0  0  0  0  0  0  0  0  0
   37.9640   27.1100   41.5080 C   0  0  0  0  0  0  0  0  0  0  0  0
   37.7690   30.1110   43.8410 H   0  0  0  0  0  0  0  0  0  0  0  0
   37.2010   27.8610   44.7070 H   0  0  0  0  0  0  0  0  0  0  0  0
   37.3340   25.9680   43.2020 H   0  0  0  0  0  0  0  0  0  0  0  0
   37.9300   32.8620   40.2360 C   0  0  0  0  0  0  0  0  0  0  0  0
   37.5730   31.6160   40.7780 C   0  0  0  0  0  0  0  0  0  0  0  0
   38.5530   30.7670   41.3190 C   0  0  0  0  0  0  0  0  0  0  0  0
   39.8180   31.2460   41.2710 N   0  0  0  0  0  0  0  0  0  0  0  0
   40.1430   32.4300   40.7550 C   0  0  0  0  0  0  0  0  0  0  0  0
   39.2010   33.2340   40.2400 N   0  0  0  0  0  0  0  0  0  0  0  0
   36.9130   33.6730   39.7080 N   0  0  0  0  0  0  0  0  0  0  0  0
   36.5550   31.2550   40.8060 H   0  0  0  0  0  0  0  0  0  0  0  0
   41.2020   32.7070   40.7730 H   0  0  0  0  0  0  0  0  0  0  0  0
   36.7970   33.9780   38.7220 H   0  0  0  0  0  0  0  0  0  0  0  0
   36.2760   33.9200   40.5060 H   0  0  0  0  0  0  0  0  0  0  0  0
   38.0160   25.9240   40.6780 C   0  0  0  0  0  0  0  0  0  0  0  0
   36.8260   25.5660   40.0750 C   0  0  0  0  0  0  0  0  0  0  0  0
   36.6730   24.4650   39.2420 C   0  0  0  0  0  0  0  0  0  0  0  0
   37.7830   23.6900   39.0130 C   0  0  0  0  0  0  0  0  0  0  0  0
   38.9760   24.0220   39.5990 C   0  0  0  0  0  0  0  0  0  0  0  0
   39.1040   25.1320   40.4300 C   0  0  0  0  0  0  0  0  0  0  0  0
   35.8950   26.1390   40.2120 H   0  0  0  0  0  0  0  0  0  0  0  0
   35.7310   24.2070   38.7820 H   0  0  0  0  0  0  0  0  0  0  0  0
   37.6830   22.8200   38.3620 H   0  0  0  0  0  0  0  0  0  0  0  0
   39.8470   23.4030   39.4100 H   0  0  0  0  0  0  0  0  0  0  0  0
   39.4990   23.9910   43.2130 Cl  0  0  0  0  0  0  0  0  0  0  0  0
   40.6170   25.0180   42.3310 C   0  0  0  0  0  0  0  0  0  0  0  0
   40.3520   25.4920   41.0560 C   0  0  0  0  0  0  0  0  0  0  0  0
   41.3410   26.2830   40.5130 C   0  0  0  0  0  0  0  0  0  0  0  0
   41.1720   26.6760   39.5200 H   0  0  0  0  0  0  0  0  0  0  0  0
   42.5230   26.6100   41.1450 C   0  0  0  0  0  0  0  0  0  0  0  0
   43.2260   27.2300   40.6400 H   0  0  0  0  0  0  0  0  0  0  0  0
   42.7510   26.1180   42.4140 C   0  0  0  0  0  3  0  0  0  0  0  0
   41.7950   25.3210   43.0050 C   0  0  0  0  0  3  0  0  0  0  0  0
   38.9910   28.6790   38.5550 N   0  0  0  0  0  0  0  0  0  0  0  0
   38.6730   28.5400   39.6780 C   0  0  0  0  0  0  0  0  0  0  0  0
  1  6  2  0  0  0  0
  1  2  1  0  0  0  0
  2  3  2  0  0  0  0
  3  4  1  0  0  0  0
  3  7  1  0  0  0  0
  4  8  1  0  0  0  0
  5  9  1  0  0  0  0
  5  4  2  0  0  0  0
  6  5  1  0  0  0  0
 10 15  2  0  0  0  0
 10 11  1  0  0  0  0
 11 17  1  0  0  0  0
 11 12  2  0  0  0  0
 12  2  1  0  0  0  0
 13 12  1  0  0  0  0
 14 18  1  0  0  0  0
 14 13  2  0  0  0  0
 15 14  1  0  0  0  0
 16 10  1  0  0  0  0
 16 20  1  0  0  0  0
 19 16  1  0  0  0  0
 21  6  1  0  0  0  0
 22 27  1  0  0  0  0
 22 21  2  0  0  0  0
 23 22  1  0  0  0  0
 24 23  2  0  0  0  0
 24 25  1  0  0  0  0
 25 26  2  0  0  0  0
 26 21  1  0  0  0  0
 26 33  1  0  0  0  0
 28 23  1  0  0  0  0
 29 24  1  0  0  0  0
 30 25  1  0  0  0  0
 32 39  1  0  0  0  0
 32 31  1  0  0  0  0
 33 32  2  0  0  0  0
 34 33  1  0  0  0  0
 34 36  2  0  0  0  0
 35 34  1  0  0  0  0
 36 38  1  0  0  0  0
 37 36  1  0  0  0  0
 38 39  2  0  0  0  0
 40 41  3  0  0  0  0
 41  1  1  0  0  0  0
M  END
>  <minimizedAffinity>
-6.31755638

$$$$

 OpenBabel03252508403D

 41 44  0  0  0  0  0  0  0  0999 V2000
   38.6550   27.2860   41.5970 C   0  0  0  0  0  0  0  0  0  0  0  0
   37.5340   26.5360   41.8550 C   0  0  0  0  0  0  0  0  0  0  0  0
   36.7420   26.9460   42.8990 C   0  0  0  0  0  0  0  0  0  0  0  0
   37.0110   28.0400   43.6790 C   0  0  0  0  0  0  0  0  0  0  0  0
   38.1380   28.7580   43.3880 C   0  0  0  0  0  0  0  0  0  0  0  0
   38.9770   28.4030   42.3530 C   0  0  0  0  0  0  0  0  0  0  0  0
   35.8550   26.3630   43.1110 H   0  0  0  0  0  0  0  0  0  0  0  0
   36.3750   28.3470   44.5000 H   0  0  0  0  0  0  0  0  0  0  0  0
   38.3680   29.6290   43.9950 H   0  0  0  0  0  0  0  0  0  0  0  0
   37.5710   23.0280   40.4690 C   0  0  0  0  0  0  0  0  0  0  0  0
   37.8290   24.1290   41.3050 C   0  0  0  0  0  0  0  0  0  0  0  0
   37.2840   25.3890   41.0100 C   0  0  0  0  0  0  0  0  0  0  0  0
   36.5200   25.4380   39.8940 N   0  0  0  0  0  0  0  0  0  0  0  0
   36.2830   24.3880   39.1110 C   0  0  0  0  0  0  0  0  0  0  0  0
   36.8080   23.1870   39.3990 N   0  0  0  0  0  0  0  0  0  0  0  0
   38.1390   21.7890   40.8090 N   0  0  0  0  0  0  0  0  0  0  0  0
   38.4410   24.0640   42.1920 H   0  0  0  0  0  0  0  0  0  0  0  0
   35.6490   24.5530   38.2340 H   0  0  0  0  0  0  0  0  0  0  0  0
   38.8370   21.2460   40.2640 H   0  0  0  0  0  0  0  0  0  0  0  0
   37.7230   21.5070   41.7300 H   0  0  0  0  0  0  0  0  0  0  0  0
   40.1470   29.2260   42.1220 C   0  0  0  0  0  0  0  0  0  0  0  0
   41.2700   28.8810   42.8500 C   0  0  0  0  0  0  0  0  0  0  0  0
   42.4870   29.5450   42.7660 C   0  0  0  0  0  0  0  0  0  0  0  0
   42.5660   30.6110   41.9030 C   0  0  0  0  0  0  0  0  0  0  0  0
   41.4670   30.9740   41.1700 C   0  0  0  0  0  0  0  0  0  0  0  0
   40.2570   30.2920   41.2710 C   0  0  0  0  0  0  0  0  0  0  0  0
   41.2820   28.0400   43.5600 H   0  0  0  0  0  0  0  0  0  0  0  0
   43.3510   29.2560   43.3450 H   0  0  0  0  0  0  0  0  0  0  0  0
   43.5140   31.1460   41.8250 H   0  0  0  0  0  0  0  0  0  0  0  0
   41.5410   31.8170   40.4920 H   0  0  0  0  0  0  0  0  0  0  0  0
   40.4200   29.6330   38.3150 Cl  0  0  0  0  0  0  0  0  0  0  0  0
   39.0790   30.4030   39.1470 C   0  0  0  0  0  0  0  0  0  0  0  0
   39.0920   30.6640   40.5080 C   0  0  0  0  0  0  0  0  0  0  0  0
   37.9550   31.2710   40.9930 C   0  0  0  0  0  0  0  0  0  0  0  0
   37.9260   31.4950   42.0510 H   0  0  0  0  0  0  0  0  0  0  0  0
   36.8590   31.6160   40.2300 C   0  0  0  0  0  0  0  0  0  0  0  0
   36.0260   32.0830   40.7000 H   0  0  0  0  0  0  0  0  0  0  0  0
   36.8830   31.3390   38.8780 C   0  0  0  0  0  3  0  0  0  0  0  0
   37.9960   30.7320   38.3390 C   0  0  0  0  0  3  0  0  0  0  0  0
   40.2590   26.6080   39.6410 N   0  0  0  0  0  0  0  0  0  0  0  0
   39.5380   26.9190   40.5150 C   0  0  0  0  0  0  0  0  0  0  0  0
  1  2  2  0  0  0  0
  1  6  1  0  0  0  0
  2  3  1  0  0  0  0
  3  7  1  0  0  0  0
  3  4  2  0  0  0  0
  4  8  1  0  0  0  0
  5  4  1  0  0  0  0
  5  9  1  0  0  0  0
  6  5  2  0  0  0  0
 10 16  1  0  0  0  0
 10 11  1  0  0  0  0
 11 17  1  0  0  0  0
 12 11  2  0  0  0  0
 12  2  1  0  0  0  0
 13 12  1  0  0  0  0
 14 15  1  0  0  0  0
 14 13  2  0  0  0  0
 15 10  2  0  0  0  0
 16 20  1  0  0  0  0
 18 14  1  0  0  0  0
 19 16  1  0  0  0  0
 21  6  1  0  0  0  0
 21 22  1  0  0  0  0
 22 27  1  0  0  0  0
 23 22  2  0  0  0  0
 23 28  1  0  0  0  0
 24 23  1  0  0  0  0
 25 26  1  0  0  0  0
 25 24  2  0  0  0  0
 26 21  2  0  0  0  0
 29 24  1  0  0  0  0
 30 25  1  0  0  0  0
 31 32  1  0  0  0  0
 32 33  1  0  0  0  0
 33 34  2  0  0  0  0
 33 26  1  0  0  0  0
 34 35  1  0  0  0  0
 36 37  1  0  0  0  0
 36 34  1  0  0  0  0
 38 36  2  0  0  0  0
 39 38  1  0  0  0  0
 39 32  2  0  0  0  0
 40 41  3  0  0  0  0
 41  1  1  0  0  0  0
M  END
>  <minimizedAffinity>
-6.22726059

$$$$

 OpenBabel03252508403D

 41 44  0  0  0  0  0  0  0  0999 V2000
   39.3230   30.9670   40.4700 C   0  0  0  0  0  0  0  0  0  0  0  0
   39.6900   32.1280   39.8370 C   0  0  0  0  0  0  0  0  0  0  0  0
   38.6970   33.0480   39.6050 C   0  0  0  0  0  0  0  0  0  0  0  0
   37.3870   32.8650   39.9670 C   0  0  0  0  0  0  0  0  0  0  0  0
   37.0650   31.6940   40.5940 C   0  0  0  0  0  0  0  0  0  0  0  0
   38.0130   30.7290   40.8590 C   0  0  0  0  0  0  0  0  0  0  0  0
   38.9750   33.9680   39.1070 H   0  0  0  0  0  0  0  0  0  0  0  0
   36.6170   33.6020   39.7750 H   0  0  0  0  0  0  0  0  0  0  0  0
   36.0320   31.5330   40.8890 H   0  0  0  0  0  0  0  0  0  0  0  0
   42.8990   32.1110   37.8550 C   0  0  0  0  0  0  0  0  0  0  0  0
   41.5430   31.9510   38.1870 C   0  0  0  0  0  0  0  0  0  0  0  0
   41.0810   32.2830   39.4710 C   0  0  0  0  0  0  0  0  0  0  0  0
   42.0260   32.7520   40.3190 N   0  0  0  0  0  0  0  0  0  0  0  0
   43.3080   32.8990   39.9910 C   0  0  0  0  0  0  0  0  0  0  0  0
   43.7420   32.5800   38.7620 N   0  0  0  0  0  0  0  0  0  0  0  0
   43.3100   31.7650   36.5570 N   0  0  0  0  0  0  0  0  0  0  0  0
   40.8060   31.5760   37.4920 H   0  0  0  0  0  0  0  0  0  0  0  0
   43.9790   33.2880   40.7640 H   0  0  0  0  0  0  0  0  0  0  0  0
   43.9760   31.0150   36.2860 H   0  0  0  0  0  0  0  0  0  0  0  0
   42.8130   32.4130   35.8980 H   0  0  0  0  0  0  0  0  0  0  0  0
   37.5750   29.5210   41.5290 C   0  0  0  0  0  0  0  0  0  0  0  0
   37.9070   29.4280   42.8660 C   0  0  0  0  0  0  0  0  0  0  0  0
   37.5750   28.3520   43.6800 C   0  0  0  0  0  0  0  0  0  0  0  0
   36.8730   27.3200   43.1040 C   0  0  0  0  0  0  0  0  0  0  0  0
   36.5310   27.3870   41.7800 C   0  0  0  0  0  0  0  0  0  0  0  0
   36.8750   28.4780   40.9850 C   0  0  0  0  0  0  0  0  0  0  0  0
   38.4690   30.2140   43.3950 H   0  0  0  0  0  0  0  0  0  0  0  0
   37.8460   28.3020   44.7230 H   0  0  0  0  0  0  0  0  0  0  0  0
   36.6030   26.4660   43.7270 H   0  0  0  0  0  0  0  0  0  0  0  0
   35.9760   26.5680   41.3370 H   0  0  0  0  0  0  0  0  0  0  0  0
   38.8700   27.1850   39.1000 Cl  0  0  0  0  0  0  0  0  0  0  0  0
   37.3800   28.0000   38.6550 C   0  0  0  0  0  0  0  0  0  0  0  0
   36.5240   28.5620   39.5890 C   0  0  0  0  0  0  0  0  0  0  0  0
   35.4010   29.1590   39.0620 C   0  0  0  0  0  0  0  0  0  0  0  0
   34.7080   29.6120   39.7580 H   0  0  0  0  0  0  0  0  0  0  0  0
   35.1000   29.2230   37.7170 C   0  0  0  0  0  0  0  0  0  0  0  0
   34.2040   29.7080   37.4090 H   0  0  0  0  0  0  0  0  0  0  0  0
   35.9760   28.6510   36.8170 C   0  0  0  0  0  3  0  0  0  0  0  0
   37.1170   28.0400   37.2900 C   0  0  0  0  0  3  0  0  0  0  0  0
   41.1040   29.1130   40.9710 N   0  0  0  0  0  0  0  0  0  0  0  0
   40.3100   29.9500   40.7490 C   0  0  0  0  0  0  0  0  0  0  0  0
  1 41  1  0  0  0  0
  1  6  1  0  0  0  0
  2  1  2  0  0  0  0
  3  2  1  0  0  0  0
  3  4  2  0  0  0  0
  4  5  1  0  0  0  0
  5  6  2  0  0  0  0
  5  9  1  0  0  0  0
  6 21  1  0  0  0  0
  7  3  1  0  0  0  0
  8  4  1  0  0  0  0
 10 11  2  0  0  0  0
 10 15  1  0  0  0  0
 11 12  1  0  0  0  0
 12  2  1  0  0  0  0
 12 13  2  0  0  0  0
 14 13  1  0  0  0  0
 14 18  1  0  0  0  0
 15 14  2  0  0  0  0
 16 10  1  0  0  0  0
 17 11  1  0  0  0  0
 19 16  1  0  0  0  0
 20 16  1  0  0  0  0
 21 22  1  0  0  0  0
 22 27  1  0  0  0  0
 22 23  2  0  0  0  0
 23 28  1  0  0  0  0
 24 23  1  0  0  0  0
 24 29  1  0  0  0  0
 25 24  2  0  0  0  0
 26 21  2  0  0  0  0
 26 25  1  0  0  0  0
 30 25  1  0  0  0  0
 32 31  1  0  0  0  0
 32 33  1  0  0  0  0
 33 26  1  0  0  0  0
 34 33  2  0  0  0  0
 34 35  1  0  0  0  0
 36 34  1  0  0  0  0
 37 36  1  0  0  0  0
 38 39  1  0  0  0  0
 38 36  2  0  0  0  0
 39 32  2  0  0  0  0
 41 40  3  0  0  0  0
M  END
>  <minimizedAffinity>
-6.19116926

$$$$

 OpenBabel03252508403D

 41 44  0  0  0  0  0  0  0  0999 V2000
   39.6080   29.1330   40.6010 C   0  0  0  0  0  0  0  0  0  0  0  0
   40.2390   27.9230   40.4560 C   0  0  0  0  0  0  0  0  0  0  0  0
   40.9140   27.7140   39.2790 C   0  0  0  0  0  0  0  0  0  0  0  0
   40.9850   28.6330   38.2650 C   0  0  0  0  0  0  0  0  0  0  0  0
   40.3410   29.8250   38.4500 C   0  0  0  0  0  0  0  0  0  0  0  0
   39.6460   30.1010   39.6080 C   0  0  0  0  0  0  0  0  0  0  0  0
   41.4160   26.7630   39.1530 H   0  0  0  0  0  0  0  0  0  0  0  0
   41.5220   28.4500   37.3420 H   0  0  0  0  0  0  0  0  0  0  0  0
   40.3870   30.5670   37.6580 H   0  0  0  0  0  0  0  0  0  0  0  0
   39.1650   24.9960   42.5790 C   0  0  0  0  0  0  0  0  0  0  0  0
   39.2420   25.9010   41.5060 C   0  0  0  0  0  0  0  0  0  0  0  0
   40.1410   26.9790   41.5470 C   0  0  0  0  0  0  0  0  0  0  0  0
   40.8930   27.0580   42.6700 N   0  0  0  0  0  0  0  0  0  0  0  0
   40.8100   26.1930   43.6790 C   0  0  0  0  0  0  0  0  0  0  0  0
   39.9490   25.1660   43.6330 N   0  0  0  0  0  0  0  0  0  0  0  0
   38.2500   23.9350   42.4880 N   0  0  0  0  0  0  0  0  0  0  0  0
   38.6310   25.8170   40.6200 H   0  0  0  0  0  0  0  0  0  0  0  0
   41.4720   26.3630   44.5350 H   0  0  0  0  0  0  0  0  0  0  0  0
   37.4250   23.7590   43.0950 H   0  0  0  0  0  0  0  0  0  0  0  0
   38.5550   23.3390   41.6800 H   0  0  0  0  0  0  0  0  0  0  0  0
   38.9970   31.3920   39.7120 C   0  0  0  0  0  0  0  0  0  0  0  0
   39.6670   32.3370   40.4650 C   0  0  0  0  0  0  0  0  0  0  0  0
   39.2100   33.6310   40.6800 C   0  0  0  0  0  0  0  0  0  0  0  0
   38.0130   33.9800   40.1030 C   0  0  0  0  0  0  0  0  0  0  0  0
   37.3280   33.0620   39.3520 C   0  0  0  0  0  0  0  0  0  0  0  0
   37.8070   31.7710   39.1500 C   0  0  0  0  0  0  0  0  0  0  0  0
   40.6300   32.1300   40.9570 H   0  0  0  0  0  0  0  0  0  0  0  0
   39.7520   34.3520   41.2720 H   0  0  0  0  0  0  0  0  0  0  0  0
   37.6370   34.9930   40.2610 H   0  0  0  0  0  0  0  0  0  0  0  0
   36.3840   33.3500   38.9000 H   0  0  0  0  0  0  0  0  0  0  0  0
   35.7070   30.2050   40.6790 Cl  0  0  0  0  0  0  0  0  0  0  0  0
   36.1200   30.0280   38.9820 C   0  0  0  0  0  0  0  0  0  0  0  0
   37.0970   30.7930   38.3640 C   0  0  0  0  0  0  0  0  0  0  0  0
   37.2880   30.5220   37.0280 C   0  0  0  0  0  0  0  0  0  0  0  0
   38.0430   31.0950   36.5090 H   0  0  0  0  0  0  0  0  0  0  0  0
   36.5890   29.5750   36.3080 C   0  0  0  0  0  0  0  0  0  0  0  0
   36.8110   29.4400   35.2760 H   0  0  0  0  0  0  0  0  0  0  0  0
   35.6230   28.8330   36.9580 C   0  0  0  0  0  3  0  0  0  0  0  0
   35.3910   29.0620   38.2970 C   0  0  0  0  0  3  0  0  0  0  0  0
   38.2930   29.6640   42.8030 N   0  0  0  0  0  0  0  0  0  0  0  0
   38.8760   29.4290   41.8110 C   0  0  0  0  0  0  0  0  0  0  0  0
  1 41  1  0  0  0  0
  2  1  1  0  0  0  0
  2 12  1  0  0  0  0
  3  2  2  0  0  0  0
  4  5  2  0  0  0  0
  4  3  1  0  0  0  0
  5  6  1  0  0  0  0
  6 21  1  0  0  0  0
  6  1  2  0  0  0  0
  7  3  1  0  0  0  0
  8  4  1  0  0  0  0
  9  5  1  0  0  0  0
 10 15  1  0  0  0  0
 11 12  1  0  0  0  0
 11 10  2  0  0  0  0
 12 13  2  0  0  0  0
 13 14  1  0  0  0  0
 14 18  1  0  0  0  0
 15 14  2  0  0  0  0
 16 10  1  0  0  0  0
 16 19  1  0  0  0  0
 17 11  1  0  0  0  0
 20 16  1  0  0  0  0
 21 22  1  0  0  0  0
 22 23  2  0  0  0  0
 22 27  1  0  0  0  0
 23 28  1  0  0  0  0
 24 29  1  0  0  0  0
 24 23  1  0  0  0  0
 25 24  2  0  0  0  0
 26 25  1  0  0  0  0
 26 21  2  0  0  0  0
 30 25  1  0  0  0  0
 32 31  1  0  0  0  0
 33 32  1  0  0  0  0
 33 26  1  0  0  0  0
 34 33  2  0  0  0  0
 35 34  1  0  0  0  0
 36 38  2  0  0  0  0
 36 34  1  0  0  0  0
 37 36  1  0  0  0  0
 38 39  1  0  0  0  0
 39 32  2  0  0  0  0
 41 40  3  0  0  0  0
M  END
>  <minimizedAffinity>
-6.16871023

$$$$

 OpenBabel03252508403D

 41 44  0  0  0  0  0  0  0  0999 V2000
   39.1490   30.9730   39.9310 C   0  0  0  0  0  0  0  0  0  0  0  0
   39.3730   32.1790   39.3130 C   0  0  0  0  0  0  0  0  0  0  0  0
   38.3370   33.0800   39.3220 C   0  0  0  0  0  0  0  0  0  0  0  0
   37.1190   32.8390   39.9030 C   0  0  0  0  0  0  0  0  0  0  0  0
   36.9390   31.6260   40.5060 C   0  0  0  0  0  0  0  0  0  0  0  0
   37.9370   30.6750   40.5350 C   0  0  0  0  0  0  0  0  0  0  0  0
   38.5020   34.0340   38.8390 H   0  0  0  0  0  0  0  0  0  0  0  0
   36.3130   33.5630   39.8990 H   0  0  0  0  0  0  0  0  0  0  0  0
   35.9800   31.4170   40.9720 H   0  0  0  0  0  0  0  0  0  0  0  0
   42.9050   33.3720   38.7420 C   0  0  0  0  0  0  0  0  0  0  0  0
   41.6510   33.1760   39.3460 C   0  0  0  0  0  0  0  0  0  0  0  0
   40.6700   32.3950   38.7120 C   0  0  0  0  0  0  0  0  0  0  0  0
   41.0350   31.8720   37.5180 N   0  0  0  0  0  0  0  0  0  0  0  0
   42.2270   32.0650   36.9580 C   0  0  0  0  0  0  0  0  0  0  0  0
   43.1580   32.8130   37.5690 N   0  0  0  0  0  0  0  0  0  0  0  0
   43.8510   34.1610   39.4170 N   0  0  0  0  0  0  0  0  0  0  0  0
   41.3830   33.6040   40.3010 H   0  0  0  0  0  0  0  0  0  0  0  0
   42.4040   31.5900   35.9870 H   0  0  0  0  0  0  0  0  0  0  0  0
   44.2560   35.0650   39.1050 H   0  0  0  0  0  0  0  0  0  0  0  0
   44.0790   33.6620   40.3130 H   0  0  0  0  0  0  0  0  0  0  0  0
   37.6510   29.4190   41.1980 C   0  0  0  0  0  0  0  0  0  0  0  0
   37.9080   29.3900   42.5550 C   0  0  0  0  0  0  0  0  0  0  0  0
   37.6970   28.2820   43.3660 C   0  0  0  0  0  0  0  0  0  0  0  0
   37.2020   27.1480   42.7670 C   0  0  0  0  0  0  0  0  0  0  0  0
   36.9390   27.1500   41.4230 C   0  0  0  0  0  0  0  0  0  0  0  0
   37.1590   28.2740   40.6310 C   0  0  0  0  0  0  0  0  0  0  0  0
   38.3050   30.2590   43.1030 H   0  0  0  0  0  0  0  0  0  0  0  0
   37.9050   28.2840   44.4250 H   0  0  0  0  0  0  0  0  0  0  0  0
   37.0300   26.2670   43.3880 H   0  0  0  0  0  0  0  0  0  0  0  0
   36.5480   26.2500   40.9610 H   0  0  0  0  0  0  0  0  0  0  0  0
   34.3590   29.1750   39.8890 Cl  0  0  0  0  0  0  0  0  0  0  0  0
   35.6320   28.6860   38.7830 C   0  0  0  0  0  0  0  0  0  0  0  0
   36.8890   28.2900   39.2150 C   0  0  0  0  0  0  0  0  0  0  0  0
   37.7640   27.9420   38.2110 C   0  0  0  0  0  0  0  0  0  0  0  0
   38.7550   27.6240   38.5060 H   0  0  0  0  0  0  0  0  0  0  0  0
   37.4680   27.9670   36.8640 C   0  0  0  0  0  0  0  0  0  0  0  0
   38.2160   27.6780   36.1630 H   0  0  0  0  0  0  0  0  0  0  0  0
   36.2070   28.3680   36.4730 C   0  0  0  0  0  3  0  0  0  0  0  0
   35.2890   28.7270   37.4360 C   0  0  0  0  0  3  0  0  0  0  0  0
   41.0430   29.1650   39.9810 N   0  0  0  0  0  0  0  0  0  0  0  0
   40.1890   29.9720   39.9630 C   0  0  0  0  0  0  0  0  0  0  0  0
  1 41  1  0  0  0  0
  1  6  1  0  0  0  0
  2  3  1  0  0  0  0
  2  1  2  0  0  0  0
  3  4  2  0  0  0  0
  4  5  1  0  0  0  0
  5  6  2  0  0  0  0
  5  9  1  0  0  0  0
  6 21  1  0  0  0  0
  7  3  1  0  0  0  0
  8  4  1  0  0  0  0
 10 11  1  0  0  0  0
 10 16  1  0  0  0  0
 11 17  1  0  0  0  0
 12  2  1  0  0  0  0
 12 11  2  0  0  0  0
 13 12  1  0  0  0  0
 14 13  2  0  0  0  0
 14 15  1  0  0  0  0
 15 10  2  0  0  0  0
 16 20  1  0  0  0  0
 18 14  1  0  0  0  0
 19 16  1  0  0  0  0
 21 22  1  0  0  0  0
 22 27  1  0  0  0  0
 22 23  2  0  0  0  0
 23 28  1  0  0  0  0
 24 23  1  0  0  0  0
 24 29  1  0  0  0  0
 25 24  2  0  0  0  0
 26 21  2  0  0  0  0
 26 25  1  0  0  0  0
 30 25  1  0  0  0  0
 32 33  1  0  0  0  0
 32 31  1  0  0  0  0
 33 26  1  0  0  0  0
 34 35  1  0  0  0  0
 34 33  2  0  0  0  0
 36 34  1  0  0  0  0
 37 36  1  0  0  0  0
 38 36  2  0  0  0  0
 38 39  1  0  0  0  0
 39 32  2  0  0  0  0
 41 40  3  0  0  0  0
M  END
>  <minimizedAffinity>
-6.11558771

$$$$
