
 OpenBabel03252508393D

 41 44  0  0  0  0  0  0  0  0999 V2000
   45.2160   33.9680   40.6890 C   0  0  0  0  0  0  0  0  0  0  0  0
   44.1590   33.6440   39.8750 C   0  0  0  0  0  0  0  0  0  0  0  0
   44.4660   33.1540   38.6290 C   0  0  0  0  0  0  0  0  0  0  0  0
   45.7460   32.9780   38.1710 C   0  0  0  0  0  0  0  0  0  0  0  0
   46.7680   33.3150   39.0140 C   0  0  0  0  0  0  0  0  0  0  0  0
   46.5310   33.8110   40.2790 C   0  0  0  0  0  0  0  0  0  0  0  0
   43.6410   32.8940   37.9780 H   0  0  0  0  0  0  0  0  0  0  0  0
   45.9680   32.5910   37.1840 H   0  0  0  0  0  0  0  0  0  0  0  0
   47.7890   33.1810   38.6690 H   0  0  0  0  0  0  0  0  0  0  0  0
   40.8640   35.2450   40.7710 C   0  0  0  0  0  0  0  0  0  0  0  0
   42.1620   35.0750   40.2590 C   0  0  0  0  0  0  0  0  0  0  0  0
   42.8250   33.8430   40.3940 C   0  0  0  0  0  0  0  0  0  0  0  0
   42.1230   32.8800   41.0350 N   0  0  0  0  0  0  0  0  0  0  0  0
   40.8930   33.0540   41.5160 C   0  0  0  0  0  0  0  0  0  0  0  0
   40.2670   34.2330   41.3830 N   0  0  0  0  0  0  0  0  0  0  0  0
   40.2450   36.4950   40.6110 N   0  0  0  0  0  0  0  0  0  0  0  0
   42.7010   35.8590   39.7500 H   0  0  0  0  0  0  0  0  0  0  0  0
   40.4280   32.1990   42.0170 H   0  0  0  0  0  0  0  0  0  0  0  0
   39.9530   37.1550   41.3570 H   0  0  0  0  0  0  0  0  0  0  0  0
   40.1280   36.6450   39.5780 H   0  0  0  0  0  0  0  0  0  0  0  0
   47.6790   34.1390   41.0990 C   0  0  0  0  0  0  0  0  0  0  0  0
   48.1630   35.4250   40.9600 C   0  0  0  0  0  0  0  0  0  0  0  0
   49.2510   35.9300   41.6610 C   0  0  0  0  0  0  0  0  0  0  0  0
   49.8790   35.0840   42.5430 C   0  0  0  0  0  0  0  0  0  0  0  0
   49.4210   33.8030   42.6990 C   0  0  0  0  0  0  0  0  0  0  0  0
   48.3260   33.3210   41.9860 C   0  0  0  0  0  0  0  0  0  0  0  0
   47.7120   36.1580   40.2730 H   0  0  0  0  0  0  0  0  0  0  0  0
   49.6100   36.9400   41.5350 H   0  0  0  0  0  0  0  0  0  0  0  0
   50.7370   35.4620   43.1020 H   0  0  0  0  0  0  0  0  0  0  0  0
   49.9240   33.1450   43.4000 H   0  0  0  0  0  0  0  0  0  0  0  0
   49.6040   31.2910   40.1280 Cl  0  0  0  0  0  0  0  0  0  0  0  0
   48.3600   30.9800   41.3280 C   0  0  0  0  0  0  0  0  0  0  0  0
   47.8330   31.9740   42.1380 C   0  0  0  0  0  0  0  0  0  0  0  0
   46.8660   31.5510   43.0220 C   0  0  0  0  0  0  0  0  0  0  0  0
   46.4270   32.2970   43.6710 H   0  0  0  0  0  0  0  0  0  0  0  0
   46.4160   30.2530   43.1360 C   0  0  0  0  0  0  0  0  0  0  0  0
   45.6630   30.0250   43.8520 H   0  0  0  0  0  0  0  0  0  0  0  0
   46.9650   29.2900   42.3120 C   0  0  0  0  0  3  0  0  0  0  0  0
   47.9370   29.6570   41.4070 C   0  0  0  0  0  3  0  0  0  0  0  0
   44.7910   34.9090   43.0960 N   0  0  0  0  0  0  0  0  0  0  0  0
   44.9750   34.4900   42.0140 C   0  0  0  0  0  0  0  0  0  0  0  0
  1 41  1  0  0  0  0
  2 12  1  0  0  0  0
  2  1  2  0  0  0  0
  3  2  1  0  0  0  0
  4  3  2  0  0  0  0
  4  5  1  0  0  0  0
  5  6  2  0  0  0  0
  6  1  1  0  0  0  0
  6 21  1  0  0  0  0
  7  3  1  0  0  0  0
  8  4  1  0  0  0  0
  9  5  1  0  0  0  0
 10 15  1  0  0  0  0
 11 12  1  0  0  0  0
 11 10  2  0  0  0  0
 12 13  2  0  0  0  0
 13 14  1  0  0  0  0
 14 18  1  0  0  0  0
 15 14  2  0  0  0  0
 16 10  1  0  0  0  0
 16 19  1  0  0  0  0
 17 11  1  0  0  0  0
 20 16  1  0  0  0  0
 21 26  1  0  0  0  0
 22 21  2  0  0  0  0
 22 23  1  0  0  0  0
 23 24  2  0  0  0  0
 24 25  1  0  0  0  0
 24 29  1  0  0  0  0
 25 30  1  0  0  0  0
 26 33  1  0  0  0  0
 26 25  2  0  0  0  0
 27 22  1  0  0  0  0
 28 23  1  0  0  0  0
 31 32  1  0  0  0  0
 32 39  2  0  0  0  0
 32 33  1  0  0  0  0
 33 34  2  0  0  0  0
 34 36  1  0  0  0  0
 34 35  1  0  0  0  0
 36 37  1  0  0  0  0
 38 36  2  0  0  0  0
 39 38  1  0  0  0  0
 41 40  3  0  0  0  0
M  END
>  <minimizedAffinity>
-6.11146688

>  <minimizedRMSD>
0.611921787

$$$$
