
 OpenBabel03252508393D

 41 44  0  0  0  0  0  0  0  0999 V2000
   45.1180   33.9740   40.7420 C   0  0  0  0  0  0  0  0  0  0  0  0
   44.0600   33.6230   39.9410 C   0  0  0  0  0  0  0  0  0  0  0  0
   44.3630   33.0740   38.7190 C   0  0  0  0  0  0  0  0  0  0  0  0
   45.6420   32.8650   38.2720 C   0  0  0  0  0  0  0  0  0  0  0  0
   46.6660   33.2300   39.1010 C   0  0  0  0  0  0  0  0  0  0  0  0
   46.4330   33.7850   40.3410 C   0  0  0  0  0  0  0  0  0  0  0  0
   43.5370   32.7920   38.0790 H   0  0  0  0  0  0  0  0  0  0  0  0
   45.8620   32.4310   37.3040 H   0  0  0  0  0  0  0  0  0  0  0  0
   47.6860   33.0710   38.7640 H   0  0  0  0  0  0  0  0  0  0  0  0
   40.8000   35.3120   40.8040 C   0  0  0  0  0  0  0  0  0  0  0  0
   42.0970   35.1070   40.3040 C   0  0  0  0  0  0  0  0  0  0  0  0
   42.7260   33.8590   40.4480 C   0  0  0  0  0  0  0  0  0  0  0  0
   41.9940   32.9170   41.0860 N   0  0  0  0  0  0  0  0  0  0  0  0
   40.7650   33.1250   41.5550 C   0  0  0  0  0  0  0  0  0  0  0  0
   40.1710   34.3190   41.4140 N   0  0  0  0  0  0  0  0  0  0  0  0
   40.2150   36.5780   40.6340 N   0  0  0  0  0  0  0  0  0  0  0  0
   42.6610   35.8750   39.7970 H   0  0  0  0  0  0  0  0  0  0  0  0
   40.2740   32.2830   42.0540 H   0  0  0  0  0  0  0  0  0  0  0  0
   39.9350   37.2480   41.3770 H   0  0  0  0  0  0  0  0  0  0  0  0
   40.1110   36.7280   39.6000 H   0  0  0  0  0  0  0  0  0  0  0  0
   47.5830   34.1390   41.1480 C   0  0  0  0  0  0  0  0  0  0  0  0
   48.1370   35.3770   40.8840 C   0  0  0  0  0  0  0  0  0  0  0  0
   49.2390   35.8960   41.5520 C   0  0  0  0  0  0  0  0  0  0  0  0
   49.8060   35.1180   42.5330 C   0  0  0  0  0  0  0  0  0  0  0  0
   49.2760   33.8870   42.8130 C   0  0  0  0  0  0  0  0  0  0  0  0
   48.1700   33.3880   42.1300 C   0  0  0  0  0  0  0  0  0  0  0  0
   47.7380   36.0550   40.1140 H   0  0  0  0  0  0  0  0  0  0  0  0
   49.6540   36.8670   41.3280 H   0  0  0  0  0  0  0  0  0  0  0  0
   50.6730   35.5090   43.0680 H   0  0  0  0  0  0  0  0  0  0  0  0
   49.7310   33.2820   43.5900 H   0  0  0  0  0  0  0  0  0  0  0  0
   46.7990   33.1700   44.8280 Cl  0  0  0  0  0  0  0  0  0  0  0  0
   46.9580   31.9010   43.6250 C   0  0  0  0  0  0  0  0  0  0  0  0
   47.6020   32.0930   42.4130 C   0  0  0  0  0  0  0  0  0  0  0  0
   47.6320   30.9890   41.5900 C   0  0  0  0  0  0  0  0  0  0  0  0
   48.1280   31.0970   40.6350 H   0  0  0  0  0  0  0  0  0  0  0  0
   47.0810   29.7630   41.8960 C   0  0  0  0  0  0  0  0  0  0  0  0
   47.1570   28.9700   41.1910 H   0  0  0  0  0  0  0  0  0  0  0  0
   46.4460   29.6100   43.1120 C   0  0  0  0  0  3  0  0  0  0  0  0
   46.3870   30.6820   43.9770 C   0  0  0  0  0  3  0  0  0  0  0  0
   44.6990   35.0280   43.1020 N   0  0  0  0  0  0  0  0  0  0  0  0
   44.8810   34.5590   42.0410 C   0  0  0  0  0  0  0  0  0  0  0  0
  1 41  1  0  0  0  0
  2 12  1  0  0  0  0
  2  1  2  0  0  0  0
  3  2  1  0  0  0  0
  4  3  2  0  0  0  0
  4  5  1  0  0  0  0
  5  6  2  0  0  0  0
  6  1  1  0  0  0  0
  6 21  1  0  0  0  0
  7  3  1  0  0  0  0
  8  4  1  0  0  0  0
  9  5  1  0  0  0  0
 10 15  1  0  0  0  0
 11 12  1  0  0  0  0
 11 10  2  0  0  0  0
 12 13  2  0  0  0  0
 13 14  1  0  0  0  0
 14 18  1  0  0  0  0
 15 14  2  0  0  0  0
 16 10  1  0  0  0  0
 16 19  1  0  0  0  0
 17 11  1  0  0  0  0
 20 16  1  0  0  0  0
 21 26  1  0  0  0  0
 22 21  2  0  0  0  0
 22 23  1  0  0  0  0
 23 24  2  0  0  0  0
 24 25  1  0  0  0  0
 24 29  1  0  0  0  0
 25 30  1  0  0  0  0
 26 33  1  0  0  0  0
 26 25  2  0  0  0  0
 27 22  1  0  0  0  0
 28 23  1  0  0  0  0
 32 39  1  0  0  0  0
 32 31  1  0  0  0  0
 33 32  2  0  0  0  0
 34 36  2  0  0  0  0
 34 33  1  0  0  0  0
 35 34  1  0  0  0  0
 36 38  1  0  0  0  0
 37 36  1  0  0  0  0
 38 39  2  0  0  0  0
 41 40  3  0  0  0  0
M  END
>  <minimizedAffinity>
-6.31905699

>  <minimizedRMSD>
0.330673844

$$$$
