
 OpenBabel03252505583D

 36 38  0  0  0  0  0  0  0  0999 V2000
   44.8900   34.9800   44.9670 C   0  0  0  0  0  0  0  0  0  0  0  0
   45.8190   34.6780   43.9750 C   0  0  0  0  0  0  0  0  0  0  0  0
   46.7700   33.6910   44.2430 C   0  0  0  0  0  0  0  0  0  0  0  0
   46.7380   33.0820   45.4460 N   0  0  0  0  0  0  0  0  0  0  0  0
   45.8280   33.3970   46.3800 C   0  0  0  0  0  0  0  0  0  0  0  0
   44.9030   34.3470   46.1410 N   0  0  0  0  0  0  0  0  0  0  0  0
   44.1440   35.7600   44.7350 H   0  0  0  0  0  0  0  0  0  0  0  0
   45.8710   31.3970   42.6600 Cl  0  0  0  0  0  0  0  0  0  0  0  0
   47.3560   32.3380   42.4750 C   0  0  0  0  0  0  0  0  0  0  0  0
   47.7910   33.4180   43.2320 C   0  0  0  0  0  0  0  0  0  0  0  0
   48.9970   34.0040   42.9240 C   0  0  0  0  0  0  0  0  0  0  0  0
   49.2100   34.8240   43.5850 H   0  0  0  0  0  0  0  0  0  0  0  0
   49.7330   33.5040   41.8780 C   0  0  0  0  0  0  0  0  0  0  0  0
   50.6630   34.0040   41.6810 H   0  0  0  0  0  0  0  0  0  0  0  0
   49.3400   32.4280   41.0910 C   0  0  0  0  0  3  0  0  0  0  0  0
   48.1260   31.8480   41.4120 C   0  0  0  0  0  3  0  0  0  0  0  0
   45.7650   35.4310   42.6790 C   0  0  0  0  0  0  0  0  0  0  0  0
   44.8620   36.4540   42.8980 F   0  0  0  0  0  0  0  0  0  0  0  0
   45.2580   34.5480   41.7260 F   0  0  0  0  0  0  0  0  0  0  0  0
   47.0090   35.8970   42.3670 F   0  0  0  0  0  0  0  0  0  0  0  0
   45.7680   32.7920   47.6250 O   0  0  0  0  0  0  0  0  0  0  0  0
   45.2920   31.4850   47.7780 C   0  0  0  0  0  0  0  0  0  0  0  0
   44.5670   31.2620   47.0000 H   0  0  0  0  0  0  0  0  0  0  0  0
   44.7280   31.4060   48.7480 H   0  0  0  0  0  0  0  0  0  0  0  0
   46.4410   30.5740   47.8220 C   0  0  0  0  0  0  0  0  0  0  0  0
   46.6250   29.3220   47.2830 C   0  0  0  0  0  0  0  0  0  0  0  0
   47.8190   28.6880   47.4920 C   0  0  0  0  0  0  0  0  0  0  0  0
   48.7930   29.2480   48.1970 N   0  0  0  0  0  0  0  0  0  0  0  0
   48.6160   30.4790   48.7320 C   0  0  0  0  0  0  0  0  0  0  0  0
   47.4380   31.1600   48.5530 N   0  0  0  0  0  0  0  0  0  0  0  0
   45.7240   29.0400   46.7470 H   0  0  0  0  0  0  0  0  0  0  0  0
   47.8580   27.7140   47.0260 H   0  0  0  0  0  0  0  0  0  0  0  0
   49.7610   31.0250   49.4990 C   0  0  0  0  0  0  0  0  0  0  0  0
   49.7950   32.3890   49.4550 F   0  0  0  0  0  0  0  0  0  0  0  0
   50.9650   30.4990   49.0060 F   0  0  0  0  0  0  0  0  0  0  0  0
   49.6960   30.6620   50.8330 F   0  0  0  0  0  0  0  0  0  0  0  0
  1  6  1  0  0  0  0
  2  3  1  0  0  0  0
  2  1  2  0  0  0  0
  3  4  2  0  0  0  0
  4  5  1  0  0  0  0
  5 21  1  0  0  0  0
  6  5  2  0  0  0  0
  7  1  1  0  0  0  0
  9  8  1  0  0  0  0
  9 10  1  0  0  0  0
 10  3  1  0  0  0  0
 11 10  2  0  0  0  0
 11 12  1  0  0  0  0
 13 11  1  0  0  0  0
 14 13  1  0  0  0  0
 15 16  1  0  0  0  0
 15 13  2  0  0  0  0
 16  9  2  0  0  0  0
 17 18  1  0  0  0  0
 17  2  1  0  0  0  0
 19 17  1  0  0  0  0
 20 17  1  0  0  0  0
 21 22  1  0  0  0  0
 22 25  1  0  0  0  0
 22 24  1  0  0  0  0
 23 22  1  0  0  0  0
 25 30  1  0  0  0  0
 26 27  1  0  0  0  0
 26 25  2  0  0  0  0
 27 28  2  0  0  0  0
 28 29  1  0  0  0  0
 29 33  1  0  0  0  0
 30 29  2  0  0  0  0
 31 26  1  0  0  0  0
 32 27  1  0  0  0  0
 33 36  1  0  0  0  0
 34 33  1  0  0  0  0
 35 33  1  0  0  0  0
M  END
>  <minimizedAffinity>
-6.26050615

>  <minimizedRMSD>
0.265319198

$$$$
