
 OpenBabel03242510263D

 18 19  0  0  0  0  0  0  0  0999 V2000
   44.4690   35.9670   44.7890 C   0  0  0  0  0  0  0  0  0  0  0  0
   45.1630   35.8880   43.5730 C   0  0  0  0  0  0  0  0  0  0  0  0
   46.0640   34.8560   43.3170 C   0  0  0  0  0  0  0  0  0  0  0  0
   46.2240   33.9460   44.3100 N   0  0  0  0  0  0  0  0  0  0  0  0
   45.5540   34.0300   45.4720 C   0  0  0  0  0  0  0  0  0  0  0  0
   44.6840   35.0270   45.7160 N   0  0  0  0  0  0  0  0  0  0  0  0
   43.7760   36.7810   44.9530 H   0  0  0  0  0  0  0  0  0  0  0  0
   44.9840   36.6370   42.8480 H   0  0  0  0  0  0  0  0  0  0  0  0
   45.6960   33.2910   46.2520 H   0  0  0  0  0  0  0  0  0  0  0  0
   44.7350   33.1910   41.2260 Cl  0  0  0  0  0  0  0  0  0  0  0  0
   46.2690   34.0080   41.0550 C   0  0  0  0  0  0  0  0  0  0  0  0
   46.8000   34.7470   42.0650 C   0  0  0  0  0  0  0  0  0  0  0  0
   48.0150   35.3440   41.8130 C   0  0  0  0  0  0  0  0  0  0  0  0
   48.4700   35.9400   42.5900 H   0  0  0  0  0  0  0  0  0  0  0  0
   48.6710   35.2170   40.6280 C   0  0  0  0  0  0  0  0  0  0  0  0
   49.6380   35.7090   40.4660 H   0  0  0  0  0  0  0  0  0  0  0  0
   48.1310   34.4700   39.6130 C   0  0  0  0  0  0  0  0  0  0  0  0
   46.9160   33.8640   39.8440 C   0  0  0  0  0  0  0  0  0  0  0  0
  1  7  1  0  0  0  0
  1  6  1  0  0  0  0
  2  1  2  0  0  0  0
  3  2  1  0  0  0  0
  3  4  2  0  0  0  0
  4  5  1  0  0  0  0
  5  6  2  0  0  0  0
  5  9  1  0  0  0  0
  8  2  1  0  0  0  0
 11 10  1  0  0  0  0
 11 12  1  0  0  0  0
 12  3  1  0  0  0  0
 13 12  2  0  0  0  0
 13 14  1  0  0  0  0
 15 13  1  0  0  0  0
 16 15  1  0  0  0  0
 17 18  1  0  0  0  0
 17 15  2  0  0  0  0
 18 11  2  0  0  0  0
M  END
>  <minimizedAffinity>
-5.05249643

>  <minimizedRMSD>
0.831715107

$$$$
