
 OpenBabel03242521333D

 31 34  0  0  0  0  0  0  0  0999 V2000
   44.4540   35.9550   44.8970 C   0  0  0  0  0  0  0  0  0  0  0  0
   45.0570   35.9040   43.6220 C   0  0  0  0  0  0  0  0  0  0  0  0
   45.9170   34.8650   43.3240 C   0  0  0  0  0  0  0  0  0  0  0  0
   46.1570   33.9150   44.2740 N   0  0  0  0  0  0  0  0  0  0  0  0
   45.5630   33.9830   45.5010 C   0  0  0  0  0  0  0  0  0  0  0  0
   44.7240   35.0000   45.7880 N   0  0  0  0  0  0  0  0  0  0  0  0
   43.7950   36.7800   45.0810 H   0  0  0  0  0  0  0  0  0  0  0  0
   44.9000   36.6260   42.8400 H   0  0  0  0  0  0  0  0  0  0  0  0
   47.8690   35.2070   41.9340 C   0  0  0  0  0  0  0  0  0  0  0  0
   46.5970   34.7050   42.0470 C   0  0  0  0  0  0  0  0  0  0  0  0
   46.0220   34.0750   40.9530 C   0  0  0  0  0  0  0  0  0  0  0  0
   46.6940   33.9360   39.7480 C   0  0  0  0  0  0  0  0  0  0  0  0
   46.3510   33.3730   38.5650 N   0  0  0  0  0  0  0  0  0  0  0  0
   47.4230   33.5300   37.7200 C   0  0  0  0  0  0  0  0  0  0  0  0
   48.4100   34.1880   38.3920 N   0  0  0  0  0  0  0  0  0  0  0  0
   47.9860   34.4480   39.6410 C   0  0  0  0  0  0  0  0  0  0  0  0
   48.5560   35.0740   40.7290 C   0  0  0  0  0  0  0  0  0  0  0  0
   48.4230   35.7180   42.7150 H   0  0  0  0  0  0  0  0  0  0  0  0
   45.0210   33.6850   41.0550 H   0  0  0  0  0  0  0  0  0  0  0  0
   45.4390   32.8980   38.3180 H   0  0  0  0  0  0  0  0  0  0  0  0
   47.4280   33.1720   36.6960 H   0  0  0  0  0  0  0  0  0  0  0  0
   49.5610   35.4450   40.5720 H   0  0  0  0  0  0  0  0  0  0  0  0
   47.5150   31.9700   44.5340 Cl  0  0  0  0  0  0  0  0  0  0  0  0
   46.7600   31.9520   46.1170 C   0  0  0  0  0  0  0  0  0  0  0  0
   45.8610   32.9360   46.4760 C   0  0  0  0  0  0  0  0  0  0  0  0
   45.2220   32.9980   47.6970 C   0  0  0  0  0  0  0  0  0  0  0  0
   44.5220   33.7860   47.9460 H   0  0  0  0  0  0  0  0  0  0  0  0
   45.5510   31.9690   48.5830 C   0  0  0  0  0  0  0  0  0  0  0  0
   45.0570   31.9970   49.5570 H   0  0  0  0  0  0  0  0  0  0  0  0
   46.4400   30.9680   48.2690 C   0  0  0  0  0  0  0  0  0  0  0  0
   47.0440   30.9640   47.0320 C   0  0  0  0  0  0  0  0  0  0  0  0
  1  7  1  0  0  0  0
  1  6  1  0  0  0  0
  2  1  2  0  0  0  0
  3  2  1  0  0  0  0
  3  4  2  0  0  0  0
  4  5  1  0  0  0  0
  5  6  2  0  0  0  0
  5 25  1  0  0  0  0
  8  2  1  0  0  0  0
  9 10  1  0  0  0  0
  9 18  1  0  0  0  0
 10  3  1  0  0  0  0
 11 19  1  0  0  0  0
 11 10  2  0  0  0  0
 12 11  1  0  0  0  0
 13 12  1  0  0  0  0
 14 15  2  0  0  0  0
 14 13  1  0  0  0  0
 15 16  1  0  0  0  0
 16 12  2  0  0  0  0
 16 17  1  0  0  0  0
 17  9  2  0  0  0  0
 20 13  1  0  0  0  0
 21 14  1  0  0  0  0
 22 17  1  0  0  0  0
 23 24  1  0  0  0  0
 24 25  2  0  0  0  0
 24 31  1  0  0  0  0
 25 26  1  0  0  0  0
 26 27  1  0  0  0  0
 26 28  2  0  0  0  0
 28 29  1  0  0  0  0
 30 28  1  0  0  0  0
 31 30  2  0  0  0  0
M  END
>  <minimizedAffinity>
-7.19708014

>  <minimizedRMSD>
0.228879511

$$$$
