
 OpenBabel03252501553D

 21 22  0  0  0  0  0  0  0  0999 V2000
   44.8030   35.1600   45.0520 C   0  0  0  0  0  0  0  0  0  0  0  0
   45.4550   35.2870   43.8200 C   0  0  0  0  0  0  0  0  0  0  0  0
   46.4950   34.4130   43.5450 C   0  0  0  0  0  0  0  0  0  0  0  0
   46.7890   33.5050   44.4960 N   0  0  0  0  0  0  0  0  0  0  0  0
   46.1650   33.3830   45.6720 C   0  0  0  0  0  0  0  0  0  0  0  0
   45.1520   34.2230   45.9650 N   0  0  0  0  0  0  0  0  0  0  0  0
   43.9810   35.7730   45.4100 H   0  0  0  0  0  0  0  0  0  0  0  0
   46.6200   32.5690   46.2120 H   0  0  0  0  0  0  0  0  0  0  0  0
   45.2970   32.6840   41.5410 Cl  0  0  0  0  0  0  0  0  0  0  0  0
   46.6290   33.7950   41.3110 C   0  0  0  0  0  0  0  0  0  0  0  0
   47.2210   34.5980   42.2900 C   0  0  0  0  0  0  0  0  0  0  0  0
   48.2780   35.4170   41.9750 C   0  0  0  0  0  0  0  0  0  0  0  0
   48.6320   35.9830   42.8090 H   0  0  0  0  0  0  0  0  0  0  0  0
   48.7420   35.4310   40.6780 C   0  0  0  0  0  0  0  0  0  0  0  0
   49.5890   36.1100   40.4720 H   0  0  0  0  0  0  0  0  0  0  0  0
   48.1830   34.6460   39.6700 C   0  0  0  0  0  0  0  0  0  0  0  0
   47.1140   33.8180   39.9940 C   0  0  0  0  0  0  0  0  0  0  0  0
   44.9430   36.3850   42.9750 C   0  0  0  0  0  0  0  0  0  0  0  0
   45.0210   37.3850   43.4880 H   0  0  0  0  0  0  0  0  0  0  0  0
   45.4970   36.3970   42.0070 H   0  0  0  0  0  0  0  0  0  0  0  0
   43.8690   36.2810   42.7530 H   0  0  0  0  0  0  0  0  0  0  0  0
  1  7  1  0  0  0  0
  1  6  1  0  0  0  0
  2  1  2  0  0  0  0
  3  2  1  0  0  0  0
  3  4  2  0  0  0  0
  4  5  1  0  0  0  0
  5  6  2  0  0  0  0
  5  8  1  0  0  0  0
 10  9  1  0  0  0  0
 10 11  1  0  0  0  0
 11  3  1  0  0  0  0
 12 11  2  0  0  0  0
 12 13  1  0  0  0  0
 14 12  1  0  0  0  0
 15 14  1  0  0  0  0
 16 17  1  0  0  0  0
 16 14  2  0  0  0  0
 17 10  2  0  0  0  0
 18 19  1  0  0  0  0
 18  2  1  0  0  0  0
 20 18  1  0  0  0  0
 21 18  1  0  0  0  0
M  END
>  <minimizedAffinity>
-5.0933032

>  <minimizedRMSD>
2.37573647

$$$$
