
 OpenBabel03252508393D

 41 44  0  0  0  0  0  0  0  0999 V2000
   45.1190   33.9760   40.7420 C   0  0  0  0  0  0  0  0  0  0  0  0
   44.0610   33.6250   39.9410 C   0  0  0  0  0  0  0  0  0  0  0  0
   44.3640   33.0770   38.7190 C   0  0  0  0  0  0  0  0  0  0  0  0
   45.6420   32.8680   38.2720 C   0  0  0  0  0  0  0  0  0  0  0  0
   46.6670   33.2320   39.1010 C   0  0  0  0  0  0  0  0  0  0  0  0
   46.4330   33.7870   40.3410 C   0  0  0  0  0  0  0  0  0  0  0  0
   43.5380   32.7960   38.0790 H   0  0  0  0  0  0  0  0  0  0  0  0
   45.8620   32.4340   37.3040 H   0  0  0  0  0  0  0  0  0  0  0  0
   47.6870   33.0730   38.7630 H   0  0  0  0  0  0  0  0  0  0  0  0
   40.8000   35.3140   40.8040 C   0  0  0  0  0  0  0  0  0  0  0  0
   42.0970   35.1090   40.3030 C   0  0  0  0  0  0  0  0  0  0  0  0
   42.7270   33.8610   40.4480 C   0  0  0  0  0  0  0  0  0  0  0  0
   41.9960   32.9190   41.0880 N   0  0  0  0  0  0  0  0  0  0  0  0
   40.7670   33.1270   41.5570 C   0  0  0  0  0  0  0  0  0  0  0  0
   40.1720   34.3210   41.4150 N   0  0  0  0  0  0  0  0  0  0  0  0
   40.2150   36.5790   40.6330 N   0  0  0  0  0  0  0  0  0  0  0  0
   42.6610   35.8770   39.7950 H   0  0  0  0  0  0  0  0  0  0  0  0
   40.2760   32.2850   42.0570 H   0  0  0  0  0  0  0  0  0  0  0  0
   39.9340   37.2490   41.3750 H   0  0  0  0  0  0  0  0  0  0  0  0
   40.1100   36.7280   39.5990 H   0  0  0  0  0  0  0  0  0  0  0  0
   47.5840   34.1400   41.1480 C   0  0  0  0  0  0  0  0  0  0  0  0
   48.1380   35.3780   40.8860 C   0  0  0  0  0  0  0  0  0  0  0  0
   49.2400   35.8970   41.5530 C   0  0  0  0  0  0  0  0  0  0  0  0
   49.8070   35.1180   42.5330 C   0  0  0  0  0  0  0  0  0  0  0  0
   49.2770   33.8870   42.8130 C   0  0  0  0  0  0  0  0  0  0  0  0
   48.1710   33.3890   42.1300 C   0  0  0  0  0  0  0  0  0  0  0  0
   47.7390   36.0560   40.1150 H   0  0  0  0  0  0  0  0  0  0  0  0
   49.6550   36.8680   41.3300 H   0  0  0  0  0  0  0  0  0  0  0  0
   50.6740   35.5090   43.0690 H   0  0  0  0  0  0  0  0  0  0  0  0
   49.7320   33.2820   43.5900 H   0  0  0  0  0  0  0  0  0  0  0  0
   46.8000   33.1690   44.8270 Cl  0  0  0  0  0  0  0  0  0  0  0  0
   46.9580   31.9000   43.6240 C   0  0  0  0  0  0  0  0  0  0  0  0
   47.6030   32.0930   42.4120 C   0  0  0  0  0  0  0  0  0  0  0  0
   47.6340   30.9900   41.5890 C   0  0  0  0  0  0  0  0  0  0  0  0
   48.1300   31.0980   40.6340 H   0  0  0  0  0  0  0  0  0  0  0  0
   47.0820   29.7640   41.8940 C   0  0  0  0  0  0  0  0  0  0  0  0
   47.1580   28.9700   41.1890 H   0  0  0  0  0  0  0  0  0  0  0  0
   46.4470   29.6100   43.1100 C   0  0  0  0  0  3  0  0  0  0  0  0
   46.3880   30.6830   43.9740 C   0  0  0  0  0  3  0  0  0  0  0  0
   44.7010   35.0280   43.1040 N   0  0  0  0  0  0  0  0  0  0  0  0
   44.8820   34.5590   42.0420 C   0  0  0  0  0  0  0  0  0  0  0  0
  1 41  1  0  0  0  0
  2 12  1  0  0  0  0
  2  1  2  0  0  0  0
  3  2  1  0  0  0  0
  4  3  2  0  0  0  0
  4  5  1  0  0  0  0
  5  6  2  0  0  0  0
  6  1  1  0  0  0  0
  6 21  1  0  0  0  0
  7  3  1  0  0  0  0
  8  4  1  0  0  0  0
  9  5  1  0  0  0  0
 10 15  1  0  0  0  0
 11 12  1  0  0  0  0
 11 10  2  0  0  0  0
 12 13  2  0  0  0  0
 13 14  1  0  0  0  0
 14 18  1  0  0  0  0
 15 14  2  0  0  0  0
 16 10  1  0  0  0  0
 16 19  1  0  0  0  0
 17 11  1  0  0  0  0
 20 16  1  0  0  0  0
 21 26  1  0  0  0  0
 22 21  2  0  0  0  0
 22 23  1  0  0  0  0
 23 24  2  0  0  0  0
 24 25  1  0  0  0  0
 24 29  1  0  0  0  0
 25 30  1  0  0  0  0
 26 33  1  0  0  0  0
 26 25  2  0  0  0  0
 27 22  1  0  0  0  0
 28 23  1  0  0  0  0
 32 39  1  0  0  0  0
 32 31  1  0  0  0  0
 33 32  2  0  0  0  0
 34 36  2  0  0  0  0
 34 33  1  0  0  0  0
 35 34  1  0  0  0  0
 36 38  1  0  0  0  0
 37 36  1  0  0  0  0
 38 39  2  0  0  0  0
 41 40  3  0  0  0  0
M  END
>  <minimizedAffinity>
-6.31852436

>  <minimizedRMSD>
0.480160326

$$$$
