
 OpenBabel03242521053D

 34 37  0  0  1  0  0  0  0  0999 V2000
   46.7820   34.4720   42.1410 C   0  0  0  0  0  0  0  0  0  0  0  0
   47.7710   35.3150   41.6730 C   0  0  0  0  0  0  0  0  0  0  0  0
   48.5030   35.1280   40.5280 C   0  0  0  0  0  0  0  0  0  0  0  0
   48.2490   34.0110   39.7640 C   0  0  0  0  0  0  0  0  0  0  0  0
   47.2650   33.1740   40.2340 C   0  0  0  0  0  0  0  0  0  0  0  0
   46.5800   33.4000   41.3550 N   0  0  0  0  0  0  0  0  0  0  0  0
   48.0090   36.2120   42.2430 H   0  0  0  0  0  0  0  0  0  0  0  0
   49.2600   35.8350   40.2280 H   0  0  0  0  0  0  0  0  0  0  0  0
   48.8410   33.8890   38.8660 H   0  0  0  0  0  0  0  0  0  0  0  0
   44.4990   35.8940   44.7740 C   0  0  0  0  0  0  0  0  0  0  0  0
   45.1570   35.7860   43.5360 C   0  0  0  0  0  0  0  0  0  0  0  0
   46.0350   34.7130   43.3600 C   0  0  0  0  0  0  0  0  0  0  0  0
   46.2070   33.8470   44.3700 N   0  0  0  0  0  0  0  0  0  0  0  0
   45.5590   33.9760   45.5540 C   0  0  0  0  0  0  0  0  0  0  0  0
   44.7140   35.0010   45.7360 N   0  0  0  0  0  0  0  0  0  0  0  0
   43.8360   36.7470   44.8380 H   0  0  0  0  0  0  0  0  0  0  0  0
   45.0330   36.4790   42.6970 H   0  0  0  0  0  0  0  0  0  0  0  0
   45.7590   33.2300   46.3140 H   0  0  0  0  0  0  0  0  0  0  0  0
   46.9720   31.9610   39.4260 C   0  0  2  0  0  0  0  0  0  0  0  0
   48.1250   31.0440   39.1880 C   0  0  0  0  0  0  0  0  0  0  0  0
   47.5180   31.8540   38.0760 C   0  0  1  0  0  0  0  0  0  0  0  0
   46.0250   31.4120   39.6730 H   0  0  0  0  0  0  0  0  0  0  0  0
   49.1430   31.4010   39.4900 H   0  0  0  0  0  0  0  0  0  0  0  0
   47.9990   29.9580   39.0800 H   0  0  0  0  0  0  0  0  0  0  0  0
   48.0470   32.7480   37.6930 H   0  0  0  0  0  0  0  0  0  0  0  0
   45.4550   33.5870   36.8820 Cl  0  0  0  0  0  0  0  0  0  0  0  0
   45.7050   31.9020   36.4680 C   0  0  0  0  0  0  0  0  0  0  0  0
   46.6910   31.1460   37.0650 C   0  0  0  0  0  0  0  0  0  0  0  0
   46.8550   29.8110   36.7070 C   0  0  0  0  0  0  0  0  0  0  0  0
   47.6230   29.2590   37.1860 H   0  0  0  0  0  0  0  0  0  0  0  0
   46.0240   29.2610   35.7520 C   0  0  0  0  0  0  0  0  0  0  0  0
   46.1380   28.2290   35.4620 H   0  0  0  0  0  0  0  0  0  0  0  0
   45.0550   30.0520   35.1830 C   0  0  0  0  0  0  0  0  0  0  0  0
   44.8370   31.3950   35.4960 C   0  0  0  0  0  0  0  0  0  0  0  0
  1 12  1  0  0  0  0
  2  1  1  0  0  0  0
  2  7  1  0  0  0  0
  3  2  2  0  0  0  0
  4  5  2  0  0  0  0
  4  3  1  0  0  0  0
  5  6  1  0  0  0  0
  6  1  2  0  0  0  0
  8  3  1  0  0  0  0
  9  4  1  0  0  0  0
 10 16  1  0  0  0  0
 10 15  1  0  0  0  0
 11 10  2  0  0  0  0
 12 11  1  0  0  0  0
 12 13  2  0  0  0  0
 13 14  1  0  0  0  0
 14 15  2  0  0  0  0
 14 18  1  0  0  0  0
 17 11  1  0  0  0  0
 19 22  1  1  0  0  0
 19  5  1  0  0  0  0
 20 19  1  0  0  0  0
 20 23  1  0  0  0  0
 21 25  1  6  0  0  0
 21 20  1  0  0  0  0
 21 19  1  0  0  0  0
 24 20  1  0  0  0  0
 27 26  1  0  0  0  0
 27 28  1  0  0  0  0
 28 21  1  0  0  0  0
 29 28  2  0  0  0  0
 29 30  1  0  0  0  0
 31 29  1  0  0  0  0
 32 31  1  0  0  0  0
 33 34  1  0  0  0  0
 33 31  2  0  0  0  0
 34 27  2  0  0  0  0
M  END
>  <minimizedAffinity>
-5.03540993

>  <minimizedRMSD>
1.89155078

$$$$
