
 OpenBabel03252505573D

 36 38  0  0  0  0  0  0  0  0999 V2000
   44.9950   34.9160   44.8100 C   0  0  0  0  0  0  0  0  0  0  0  0
   45.9360   34.5780   43.8410 C   0  0  0  0  0  0  0  0  0  0  0  0
   46.8790   33.5950   44.1540 C   0  0  0  0  0  0  0  0  0  0  0  0
   46.8260   33.0250   45.3750 N   0  0  0  0  0  0  0  0  0  0  0  0
   45.9040   33.3740   46.2850 C   0  0  0  0  0  0  0  0  0  0  0  0
   44.9880   34.3200   46.0030 N   0  0  0  0  0  0  0  0  0  0  0  0
   44.2580   35.6920   44.5420 H   0  0  0  0  0  0  0  0  0  0  0  0
   46.0030   31.2400   42.6510 Cl  0  0  0  0  0  0  0  0  0  0  0  0
   47.4880   32.1760   42.4480 C   0  0  0  0  0  0  0  0  0  0  0  0
   47.9130   33.2860   43.1680 C   0  0  0  0  0  0  0  0  0  0  0  0
   49.1210   33.8610   42.8520 C   0  0  0  0  0  0  0  0  0  0  0  0
   49.3250   34.7070   43.4830 H   0  0  0  0  0  0  0  0  0  0  0  0
   49.8700   33.3220   41.8340 C   0  0  0  0  0  0  0  0  0  0  0  0
   50.8030   33.8150   41.6290 H   0  0  0  0  0  0  0  0  0  0  0  0
   49.4890   32.2150   41.0850 C   0  0  0  0  0  3  0  0  0  0  0  0
   48.2730   31.6460   41.4140 C   0  0  0  0  0  3  0  0  0  0  0  0
   45.9050   35.2900   42.5220 C   0  0  0  0  0  0  0  0  0  0  0  0
   44.9520   36.2790   42.6720 F   0  0  0  0  0  0  0  0  0  0  0  0
   45.4780   34.3590   41.5760 F   0  0  0  0  0  0  0  0  0  0  0  0
   47.1410   35.8020   42.2470 F   0  0  0  0  0  0  0  0  0  0  0  0
   45.8230   32.8090   47.5480 O   0  0  0  0  0  0  0  0  0  0  0  0
   45.3390   31.5100   47.7350 C   0  0  0  0  0  0  0  0  0  0  0  0
   44.6110   31.2710   46.9640 H   0  0  0  0  0  0  0  0  0  0  0  0
   44.7760   31.4590   48.7070 H   0  0  0  0  0  0  0  0  0  0  0  0
   46.4820   30.5920   47.8010 C   0  0  0  0  0  0  0  0  0  0  0  0
   46.6660   29.3360   47.2730 C   0  0  0  0  0  0  0  0  0  0  0  0
   47.8540   28.6970   47.5030 C   0  0  0  0  0  0  0  0  0  0  0  0
   48.8210   29.2560   48.2180 N   0  0  0  0  0  0  0  0  0  0  0  0
   48.6430   30.4920   48.7410 C   0  0  0  0  0  0  0  0  0  0  0  0
   47.4720   31.1780   48.5420 N   0  0  0  0  0  0  0  0  0  0  0  0
   45.7710   29.0550   46.7270 H   0  0  0  0  0  0  0  0  0  0  0  0
   47.8940   27.7200   47.0440 H   0  0  0  0  0  0  0  0  0  0  0  0
   49.7820   31.0380   49.5200 C   0  0  0  0  0  0  0  0  0  0  0  0
   49.8140   32.4020   49.4790 F   0  0  0  0  0  0  0  0  0  0  0  0
   50.9900   30.5150   49.0360 F   0  0  0  0  0  0  0  0  0  0  0  0
   49.7050   30.6710   50.8530 F   0  0  0  0  0  0  0  0  0  0  0  0
  1  6  1  0  0  0  0
  2  3  1  0  0  0  0
  2  1  2  0  0  0  0
  3  4  2  0  0  0  0
  4  5  1  0  0  0  0
  5 21  1  0  0  0  0
  6  5  2  0  0  0  0
  7  1  1  0  0  0  0
  9  8  1  0  0  0  0
  9 10  1  0  0  0  0
 10  3  1  0  0  0  0
 11 10  2  0  0  0  0
 11 12  1  0  0  0  0
 13 11  1  0  0  0  0
 14 13  1  0  0  0  0
 15 16  1  0  0  0  0
 15 13  2  0  0  0  0
 16  9  2  0  0  0  0
 17 18  1  0  0  0  0
 17  2  1  0  0  0  0
 19 17  1  0  0  0  0
 20 17  1  0  0  0  0
 21 22  1  0  0  0  0
 22 25  1  0  0  0  0
 22 24  1  0  0  0  0
 23 22  1  0  0  0  0
 25 30  1  0  0  0  0
 26 27  1  0  0  0  0
 26 25  2  0  0  0  0
 27 28  2  0  0  0  0
 28 29  1  0  0  0  0
 29 33  1  0  0  0  0
 30 29  2  0  0  0  0
 31 26  1  0  0  0  0
 32 27  1  0  0  0  0
 33 36  1  0  0  0  0
 34 33  1  0  0  0  0
 35 33  1  0  0  0  0
M  END
>  <minimizedAffinity>
-6.25039721

>  <minimizedRMSD>
0.573789656

$$$$
