
 OpenBabel03252501013D

 25 27  0  0  1  0  0  0  0  0999 V2000
   47.2440   34.6100   41.9550 C   0  0  1  0  0  0  0  0  0  0  0  0
   48.3870   35.6000   41.8750 C   0  0  0  0  0  0  0  0  0  0  0  0
   48.5970   34.1390   42.2490 C   0  0  2  0  0  0  0  0  0  0  0  0
   46.7460   34.3740   40.9930 H   0  0  0  0  0  0  0  0  0  0  0  0
   48.5670   35.9760   40.8750 H   0  0  0  0  0  0  0  0  0  0  0  0
   48.4760   36.3780   42.6680 H   0  0  0  0  0  0  0  0  0  0  0  0
   48.8830   34.0300   43.3400 H   0  0  0  0  0  0  0  0  0  0  0  0
   44.6220   36.0670   44.2350 C   0  0  0  0  0  0  0  0  0  0  0  0
   45.4480   35.9470   43.1040 C   0  0  0  0  0  0  0  0  0  0  0  0
   46.3260   34.8660   43.1180 C   0  0  0  0  0  0  0  0  0  0  0  0
   46.3380   34.0080   44.1920 N   0  0  0  0  0  0  0  0  0  0  0  0
   45.5190   34.1700   45.2570 C   0  0  0  0  0  0  0  0  0  0  0  0
   44.6660   35.2060   45.2620 N   0  0  0  0  0  0  0  0  0  0  0  0
   43.9190   36.8870   44.2840 H   0  0  0  0  0  0  0  0  0  0  0  0
   45.4210   36.6280   42.2810 H   0  0  0  0  0  0  0  0  0  0  0  0
   45.6910   33.3890   45.9850 H   0  0  0  0  0  0  0  0  0  0  0  0
   47.4120   33.0360   39.5640 Cl  0  0  0  0  0  0  0  0  0  0  0  0
   48.9780   32.5990   40.2040 C   0  0  0  0  0  0  0  0  0  0  0  0
   49.3070   33.2030   41.3850 C   0  0  0  0  0  0  0  0  0  0  0  0
   50.5650   32.8760   41.9090 C   0  0  0  0  0  0  0  0  0  0  0  0
   50.9970   33.2510   42.8280 H   0  0  0  0  0  0  0  0  0  0  0  0
   51.4170   31.9880   41.2580 C   0  0  0  0  0  0  0  0  0  0  0  0
   52.3920   31.7110   41.6320 H   0  0  0  0  0  0  0  0  0  0  0  0
   51.0510   31.3960   40.0670 C   0  0  0  0  0  0  0  0  0  0  0  0
   49.8140   31.7230   39.5590 C   0  0  0  0  0  0  0  0  0  0  0  0
  1  4  1  6  0  0  0
  1  3  1  0  0  0  0
  1 10  1  0  0  0  0
  2  1  1  0  0  0  0
  2  3  1  0  0  0  0
  2  6  1  0  0  0  0
  3  7  1  1  0  0  0
  5  2  1  0  0  0  0
  8 14  1  0  0  0  0
  8 13  1  0  0  0  0
  9 10  1  0  0  0  0
  9  8  2  0  0  0  0
 10 11  2  0  0  0  0
 11 12  1  0  0  0  0
 12 13  2  0  0  0  0
 12 16  1  0  0  0  0
 15  9  1  0  0  0  0
 17 18  1  0  0  0  0
 18 19  1  0  0  0  0
 19 20  2  0  0  0  0
 19  3  1  0  0  0  0
 20 21  1  0  0  0  0
 22 23  1  0  0  0  0
 22 20  1  0  0  0  0
 24 22  2  0  0  0  0
 25 24  1  0  0  0  0
 25 18  2  0  0  0  0
M  END
>  <minimizedAffinity>
-5.05268145

>  <minimizedRMSD>
1.10218501

$$$$
