
 OpenBabel03252505533D

 33 35  0  0  0  0  0  0  0  0999 V2000
   46.4860   30.3440   47.6290 C   0  0  0  0  0  0  0  0  0  0  0  0
   46.3240   29.0750   47.1220 C   0  0  0  0  0  0  0  0  0  0  0  0
   47.3090   28.1560   47.2630 C   0  0  0  0  0  0  0  0  0  0  0  0
   48.4520   28.4690   47.8950 N   0  0  0  0  0  0  0  0  0  0  0  0
   48.6230   29.6990   48.3930 C   0  0  0  0  0  0  0  0  0  0  0  0
   47.6460   30.6410   48.2640 N   0  0  0  0  0  0  0  0  0  0  0  0
   45.3710   28.9320   46.6360 H   0  0  0  0  0  0  0  0  0  0  0  0
   47.1100   27.1810   46.8400 H   0  0  0  0  0  0  0  0  0  0  0  0
   51.1890   29.2780   46.7910 Cl  0  0  0  0  0  0  0  0  0  0  0  0
   51.0820   29.8780   48.4290 C   0  0  0  0  0  0  0  0  0  0  0  0
   49.8820   30.0420   49.0890 C   0  0  0  0  0  0  0  0  0  0  0  0
   49.7390   30.5100   50.3750 C   0  0  0  0  0  0  0  0  0  0  0  0
   48.7810   30.6250   50.8600 H   0  0  0  0  0  0  0  0  0  0  0  0
   50.9290   30.8260   51.0090 C   0  0  0  0  0  0  0  0  0  0  0  0
   50.9350   31.2030   52.0240 H   0  0  0  0  0  0  0  0  0  0  0  0
   52.1620   30.6880   50.4140 C   0  0  0  0  0  3  0  0  0  0  0  0
   52.2290   30.2060   49.1050 C   0  0  0  0  0  3  0  0  0  0  0  0
   45.5720   31.4940   47.6000 C   0  0  0  0  0  0  0  0  0  0  0  0
   45.1640   31.6120   48.6400 H   0  0  0  0  0  0  0  0  0  0  0  0
   44.6770   31.3450   46.9530 H   0  0  0  0  0  0  0  0  0  0  0  0
   46.3270   32.6300   47.2660 O   0  0  0  0  0  0  0  0  0  0  0  0
   44.7890   35.0090   45.1120 C   0  0  0  0  0  0  0  0  0  0  0  0
   45.4620   34.8520   43.9110 C   0  0  0  0  0  0  0  0  0  0  0  0
   46.4750   33.8900   43.8630 C   0  0  0  0  0  0  0  0  0  0  0  0
   46.7580   33.1650   44.9570 N   0  0  0  0  0  0  0  0  0  0  0  0
   46.0670   33.3560   46.1140 C   0  0  0  0  0  0  0  0  0  0  0  0
   45.1000   34.2650   46.1850 N   0  0  0  0  0  0  0  0  0  0  0  0
   44.0020   35.7500   45.1620 H   0  0  0  0  0  0  0  0  0  0  0  0
   46.9960   33.7760   42.9150 H   0  0  0  0  0  0  0  0  0  0  0  0
   45.0620   35.7160   42.7580 C   0  0  0  0  0  0  0  0  0  0  0  0
   45.3820   36.9950   43.1270 F   0  0  0  0  0  0  0  0  0  0  0  0
   43.6720   35.5800   42.6420 F   0  0  0  0  0  0  0  0  0  0  0  0
   45.7030   35.2850   41.6320 F   0  0  0  0  0  0  0  0  0  0  0  0
  1  6  1  0  0  0  0
  2  3  1  0  0  0  0
  2  1  2  0  0  0  0
  3  4  2  0  0  0  0
  4  5  1  0  0  0  0
  5 11  1  0  0  0  0
  6  5  2  0  0  0  0
  7  2  1  0  0  0  0
  8  3  1  0  0  0  0
  9 10  1  0  0  0  0
 10 11  2  0  0  0  0
 10 17  1  0  0  0  0
 11 12  1  0  0  0  0
 12 13  1  0  0  0  0
 12 14  2  0  0  0  0
 14 15  1  0  0  0  0
 16 14  1  0  0  0  0
 17 16  2  0  0  0  0
 18  1  1  0  0  0  0
 18 19  1  0  0  0  0
 20 18  1  0  0  0  0
 21 18  1  0  0  0  0
 22 28  1  0  0  0  0
 22 27  1  0  0  0  0
 23 22  2  0  0  0  0
 24 23  1  0  0  0  0
 24 25  2  0  0  0  0
 25 26  1  0  0  0  0
 26 27  2  0  0  0  0
 26 21  1  0  0  0  0
 29 24  1  0  0  0  0
 30 31  1  0  0  0  0
 30 23  1  0  0  0  0
 32 30  1  0  0  0  0
 33 30  1  0  0  0  0
M  END
>  <minimizedAffinity>
-5.53144693

>  <minimizedRMSD>
1.76487613

$$$$
