
 OpenBabel03252508323D

 32 34  0  0  1  0  0  0  0  0999 V2000
   45.1630   33.6340   41.7340 N   0  0  0  0  0  0  0  0  0  0  0  0
   45.7590   32.3530   41.4950 C   0  0  1  0  0  0  0  0  0  0  0  0
   45.6710   31.8670   40.0920 C   0  0  0  0  0  0  0  0  0  0  0  0
   44.4460   32.1450   39.4400 N   0  0  0  0  0  0  0  0  0  0  0  0
   43.8680   33.4040   39.6760 C   0  0  0  0  0  0  0  0  0  0  0  0
   44.7400   34.2990   40.5430 C   0  0  0  0  0  0  0  0  0  0  0  0
   45.2950   31.6290   42.1980 H   0  0  0  0  0  0  0  0  0  0  0  0
   46.5220   32.3060   39.4940 H   0  0  0  0  0  0  0  0  0  0  0  0
   45.8430   30.7700   40.0790 H   0  0  0  0  0  0  0  0  0  0  0  0
   44.2640   31.6420   38.5860 H   0  0  0  0  0  0  0  0  0  0  0  0
   43.7610   33.9520   38.7040 H   0  0  0  0  0  0  0  0  0  0  0  0
   42.8560   33.4010   40.1290 H   0  0  0  0  0  0  0  0  0  0  0  0
   44.2790   35.2730   40.6440 H   0  0  0  0  0  0  0  0  0  0  0  0
   45.6550   34.4700   39.9010 H   0  0  0  0  0  0  0  0  0  0  0  0
   44.5830   35.3820   43.2420 C   0  0  0  0  0  0  0  0  0  0  0  0
   45.0620   34.0870   43.0720 C   0  0  0  0  0  0  0  0  0  0  0  0
   45.3930   33.3660   44.2050 C   0  0  0  0  0  0  0  0  0  0  0  0
   45.2470   33.9280   45.4350 N   0  0  0  0  0  0  0  0  0  0  0  0
   44.7750   35.2000   45.5730 C   0  0  0  0  0  0  0  0  0  0  0  0
   44.4470   35.9180   44.4860 N   0  0  0  0  0  0  0  0  0  0  0  0
   44.2750   36.0940   42.4890 H   0  0  0  0  0  0  0  0  0  0  0  0
   45.7550   32.3830   44.0670 H   0  0  0  0  0  0  0  0  0  0  0  0
   44.7010   35.5440   46.6000 H   0  0  0  0  0  0  0  0  0  0  0  0
   47.3970   34.3320   40.0160 Cl  0  0  0  0  0  0  0  0  0  0  0  0
   48.1270   33.2070   41.1620 C   0  0  0  0  0  0  0  0  0  0  0  0
   47.2370   32.3270   41.7900 C   0  0  0  0  0  0  0  0  0  0  0  0
   47.8040   31.4510   42.6830 C   0  0  0  0  0  0  0  0  0  0  0  0
   47.2010   30.7510   43.2020 H   0  0  0  0  0  0  0  0  0  0  0  0
   49.1540   31.4170   42.9610 C   0  0  0  0  0  0  0  0  0  0  0  0
   49.6020   30.7340   43.6580 H   0  0  0  0  0  0  0  0  0  0  0  0
   49.9950   32.3000   42.3210 C   0  0  0  0  0  3  0  0  0  0  0  0
   49.4770   33.1990   41.4150 C   0  0  0  0  0  3  0  0  0  0  0  0
  1 16  1  0  0  0  0
  2  1  1  0  0  0  0
  2 26  1  0  0  0  0
  2  7  1  1  0  0  0
  3  2  1  0  0  0  0
  4  5  1  0  0  0  0
  4  3  1  0  0  0  0
  5 12  1  0  0  0  0
  5  6  1  0  0  0  0
  6 13  1  0  0  0  0
  6  1  1  0  0  0  0
  8  3  1  0  0  0  0
  9  3  1  0  0  0  0
 10  4  1  0  0  0  0
 11  5  1  0  0  0  0
 14  6  1  0  0  0  0
 15 20  1  0  0  0  0
 16 15  2  0  0  0  0
 16 17  1  0  0  0  0
 17 18  2  0  0  0  0
 18 19  1  0  0  0  0
 19 23  1  0  0  0  0
 20 19  2  0  0  0  0
 21 15  1  0  0  0  0
 22 17  1  0  0  0  0
 24 25  1  0  0  0  0
 25 32  2  0  0  0  0
 25 26  1  0  0  0  0
 26 27  2  0  0  0  0
 27 29  1  0  0  0  0
 27 28  1  0  0  0  0
 29 30  1  0  0  0  0
 31 29  2  0  0  0  0
 32 31  1  0  0  0  0
M  END
>  <minimizedAffinity>
-4.15814638

>  <minimizedRMSD>
2.06124997

$$$$
