
 OpenBabel03252505543D

 33 35  0  0  0  0  0  0  0  0999 V2000
   47.7940   30.6510   47.7520 C   0  0  0  0  0  0  0  0  0  0  0  0
   48.4310   29.6160   47.1050 C   0  0  0  0  0  0  0  0  0  0  0  0
   49.7050   29.2940   47.4320 C   0  0  0  0  0  0  0  0  0  0  0  0
   50.3610   29.9740   48.3860 N   0  0  0  0  0  0  0  0  0  0  0  0
   49.7540   30.9820   49.0220 C   0  0  0  0  0  0  0  0  0  0  0  0
   48.4720   31.3270   48.7110 N   0  0  0  0  0  0  0  0  0  0  0  0
   47.8130   29.1400   46.3600 H   0  0  0  0  0  0  0  0  0  0  0  0
   50.1390   28.4690   46.8820 H   0  0  0  0  0  0  0  0  0  0  0  0
   50.3390   29.4440   51.5950 Cl  0  0  0  0  0  0  0  0  0  0  0  0
   50.7780   31.1010   51.2630 C   0  0  0  0  0  0  0  0  0  0  0  0
   50.4790   31.7310   50.0730 C   0  0  0  0  0  0  0  0  0  0  0  0
   50.8000   33.0310   49.7580 C   0  0  0  0  0  0  0  0  0  0  0  0
   50.5480   33.4910   48.8130 H   0  0  0  0  0  0  0  0  0  0  0  0
   51.4770   33.7160   50.7520 C   0  0  0  0  0  0  0  0  0  0  0  0
   51.7800   34.7450   50.6130 H   0  0  0  0  0  0  0  0  0  0  0  0
   51.8100   33.1530   51.9640 C   0  0  0  0  0  0  0  0  0  0  0  0
   51.4500   31.8260   52.2130 C   0  0  0  0  0  0  0  0  0  0  0  0
   46.4340   31.1790   47.5730 C   0  0  0  0  0  0  0  0  0  0  0  0
   45.8570   30.9110   48.4990 H   0  0  0  0  0  0  0  0  0  0  0  0
   45.8730   30.7080   46.7350 H   0  0  0  0  0  0  0  0  0  0  0  0
   46.5300   32.5770   47.4740 O   0  0  0  0  0  0  0  0  0  0  0  0
   44.9710   34.7850   45.1600 C   0  0  0  0  0  0  0  0  0  0  0  0
   45.6850   34.5940   43.9870 C   0  0  0  0  0  0  0  0  0  0  0  0
   46.7340   33.6700   44.0170 C   0  0  0  0  0  0  0  0  0  0  0  0
   47.0100   33.0120   45.1540 N   0  0  0  0  0  0  0  0  0  0  0  0
   46.2780   33.2350   46.2800 C   0  0  0  0  0  0  0  0  0  0  0  0
   45.2770   34.1080   46.2770 N   0  0  0  0  0  0  0  0  0  0  0  0
   44.1560   35.4970   45.1490 H   0  0  0  0  0  0  0  0  0  0  0  0
   47.2870   33.5290   43.0910 H   0  0  0  0  0  0  0  0  0  0  0  0
   45.2880   35.3830   42.7810 C   0  0  0  0  0  0  0  0  0  0  0  0
   45.3460   36.6970   43.1630 F   0  0  0  0  0  0  0  0  0  0  0  0
   43.9640   35.0200   42.5040 F   0  0  0  0  0  0  0  0  0  0  0  0
   46.1210   35.0680   41.7460 F   0  0  0  0  0  0  0  0  0  0  0  0
  1  6  1  0  0  0  0
  2  3  1  0  0  0  0
  2  1  2  0  0  0  0
  3  4  2  0  0  0  0
  4  5  1  0  0  0  0
  5 11  1  0  0  0  0
  6  5  2  0  0  0  0
  7  2  1  0  0  0  0
  8  3  1  0  0  0  0
 10  9  1  0  0  0  0
 10 17  1  0  0  0  0
 11 10  2  0  0  0  0
 12 11  1  0  0  0  0
 12 14  2  0  0  0  0
 13 12  1  0  0  0  0
 14 16  1  0  0  0  0
 15 14  1  0  0  0  0
 16 17  2  0  0  0  0
 18  1  1  0  0  0  0
 18 19  1  0  0  0  0
 20 18  1  0  0  0  0
 21 18  1  0  0  0  0
 22 27  1  0  0  0  0
 23 24  1  0  0  0  0
 23 22  2  0  0  0  0
 24 25  2  0  0  0  0
 25 26  1  0  0  0  0
 26 21  1  0  0  0  0
 27 26  2  0  0  0  0
 28 22  1  0  0  0  0
 29 24  1  0  0  0  0
 30 31  1  0  0  0  0
 30 23  1  0  0  0  0
 32 30  1  0  0  0  0
 33 30  1  0  0  0  0
M  END
>  <minimizedAffinity>
-5.92424011

>  <minimizedRMSD>
1.10163975

$$$$
