
 OpenBabel03252504053D

 19 20  0  0  0  0  0  0  0  0999 V2000
   37.1890   32.4230   39.9220 C   0  0  0  0  0  0  0  0  0  0  0  0
   36.8310   31.2880   40.6750 C   0  0  0  0  0  0  0  0  0  0  0  0
   37.7670   30.2640   40.7650 C   0  0  0  0  0  0  0  0  0  0  0  0
   38.9810   30.3850   40.1270 N   0  0  0  0  0  0  0  0  0  0  0  0
   39.2810   31.5010   39.4100 C   0  0  0  0  0  0  0  0  0  0  0  0
   38.3890   32.5010   39.3140 N   0  0  0  0  0  0  0  0  0  0  0  0
   36.4160   33.2080   39.8700 H   0  0  0  0  0  0  0  0  0  0  0  0
   40.2070   31.6580   38.8830 H   0  0  0  0  0  0  0  0  0  0  0  0
   36.4110   27.9190   39.4270 Cl  0  0  0  0  0  0  0  0  0  0  0  0
   37.0220   27.7930   41.0730 C   0  0  0  0  0  0  0  0  0  0  0  0
   37.5850   29.0100   41.4780 C   0  0  0  0  0  0  0  0  0  0  0  0
   38.1370   29.1340   42.7560 C   0  0  0  0  0  0  0  0  0  0  0  0
   38.6090   29.9400   43.2720 H   0  0  0  0  0  0  0  0  0  0  0  0
   38.1050   28.0060   43.5940 C   0  0  0  0  0  0  0  0  0  0  0  0
   38.4950   27.9350   44.6210 H   0  0  0  0  0  0  0  0  0  0  0  0
   37.5430   26.8230   43.1620 C   0  0  0  0  0  3  0  0  0  0  0  0
   36.9910   26.7010   41.8870 C   0  0  0  0  0  3  0  0  0  0  0  0
   35.6220   31.1190   41.3300 O   0  0  0  0  0  0  0  0  0  0  0  0
   35.1170   31.8310   41.8390 H   0  0  0  0  0  0  0  0  0  0  0  0
  1  2  1  0  0  0  0
  2  3  2  0  0  0  0
  2 18  1  0  0  0  0
  3 11  1  0  0  0  0
  4  3  1  0  0  0  0
  5  4  2  0  0  0  0
  6  5  1  0  0  0  0
  6  1  2  0  0  0  0
  7  1  1  0  0  0  0
  8  5  1  0  0  0  0
  9 10  1  0  0  0  0
 10 11  2  0  0  0  0
 10 17  1  0  0  0  0
 11 12  1  0  0  0  0
 12 13  1  0  0  0  0
 12 14  2  0  0  0  0
 14 15  1  0  0  0  0
 16 14  1  0  0  0  0
 17 16  2  0  0  0  0
 18 19  1  0  0  0  0
M  END
>  <minimizedAffinity>
-4.96041298

$$$$

 OpenBabel03252504053D

 19 20  0  0  0  0  0  0  0  0999 V2000
   36.9380   32.1550   39.4530 C   0  0  0  0  0  0  0  0  0  0  0  0
   36.7860   31.1320   40.4080 C   0  0  0  0  0  0  0  0  0  0  0  0
   37.7310   30.1130   40.4040 C   0  0  0  0  0  0  0  0  0  0  0  0
   38.7580   30.1320   39.4870 N   0  0  0  0  0  0  0  0  0  0  0  0
   38.8640   31.1420   38.5830 C   0  0  0  0  0  0  0  0  0  0  0  0
   37.9600   32.1360   38.5730 N   0  0  0  0  0  0  0  0  0  0  0  0
   36.1640   32.9390   39.4850 H   0  0  0  0  0  0  0  0  0  0  0  0
   39.6360   31.2150   37.8360 H   0  0  0  0  0  0  0  0  0  0  0  0
   39.1480   30.2490   43.0690 Cl  0  0  0  0  0  0  0  0  0  0  0  0
   38.2970   28.7900   42.5700 C   0  0  0  0  0  0  0  0  0  0  0  0
   37.7420   28.9630   41.2950 C   0  0  0  0  0  0  0  0  0  0  0  0
   37.0170   27.9260   40.7020 C   0  0  0  0  0  0  0  0  0  0  0  0
   36.5150   27.8290   39.7650 H   0  0  0  0  0  0  0  0  0  0  0  0
   36.8680   26.7330   41.4300 C   0  0  0  0  0  0  0  0  0  0  0  0
   36.3290   25.8280   41.1110 H   0  0  0  0  0  0  0  0  0  0  0  0
   37.4270   26.5990   42.6840 C   0  0  0  0  0  3  0  0  0  0  0  0
   38.1530   27.6330   43.2730 C   0  0  0  0  0  3  0  0  0  0  0  0
   35.7690   31.0680   41.3470 O   0  0  0  0  0  0  0  0  0  0  0  0
   35.3880   31.8460   41.8660 H   0  0  0  0  0  0  0  0  0  0  0  0
  1  7  1  0  0  0  0
  1  2  1  0  0  0  0
  2 18  1  0  0  0  0
  3  2  2  0  0  0  0
  3 11  1  0  0  0  0
  4  3  1  0  0  0  0
  5  4  2  0  0  0  0
  6  5  1  0  0  0  0
  6  1  2  0  0  0  0
  8  5  1  0  0  0  0
 10  9  1  0  0  0  0
 10 17  1  0  0  0  0
 11 10  2  0  0  0  0
 12 11  1  0  0  0  0
 12 14  2  0  0  0  0
 13 12  1  0  0  0  0
 14 16  1  0  0  0  0
 15 14  1  0  0  0  0
 16 17  2  0  0  0  0
 18 19  1  0  0  0  0
M  END
>  <minimizedAffinity>
-4.77682686

$$$$

 OpenBabel03252504053D

 19 20  0  0  0  0  0  0  0  0999 V2000
   39.0960   33.9860   40.3990 C   0  0  0  0  0  0  0  0  0  0  0  0
   37.9540   33.2560   40.0180 C   0  0  0  0  0  0  0  0  0  0  0  0
   38.0780   31.8730   39.9490 C   0  0  0  0  0  0  0  0  0  0  0  0
   39.2840   31.2760   40.2430 N   0  0  0  0  0  0  0  0  0  0  0  0
   40.3590   32.0240   40.6070 C   0  0  0  0  0  0  0  0  0  0  0  0
   40.2570   33.3610   40.6800 N   0  0  0  0  0  0  0  0  0  0  0  0
   38.9570   35.0800   40.4350 H   0  0  0  0  0  0  0  0  0  0  0  0
   41.3300   31.6230   40.8440 H   0  0  0  0  0  0  0  0  0  0  0  0
   37.5860   31.2380   37.0360 Cl  0  0  0  0  0  0  0  0  0  0  0  0
   36.6280   30.4770   38.3030 C   0  0  0  0  0  0  0  0  0  0  0  0
   37.0270   30.9460   39.5620 C   0  0  0  0  0  0  0  0  0  0  0  0
   36.3990   30.4690   40.7160 C   0  0  0  0  0  0  0  0  0  0  0  0
   36.5290   30.6740   41.7550 H   0  0  0  0  0  0  0  0  0  0  0  0
   35.3760   29.5170   40.5580 C   0  0  0  0  0  0  0  0  0  0  0  0
   34.7880   29.0430   41.3580 H   0  0  0  0  0  0  0  0  0  0  0  0
   35.0110   29.0780   39.3030 C   0  0  0  0  0  3  0  0  0  0  0  0
   35.6370   29.5560   38.1520 C   0  0  0  0  0  3  0  0  0  0  0  0
   36.7230   33.8110   39.7090 O   0  0  0  0  0  0  0  0  0  0  0  0
   36.2820   34.5830   40.1880 H   0  0  0  0  0  0  0  0  0  0  0  0
  1  7  1  0  0  0  0
  1  6  1  0  0  0  0
  2  1  2  0  0  0  0
  3  2  1  0  0  0  0
  3  4  2  0  0  0  0
  4  5  1  0  0  0  0
  5  6  2  0  0  0  0
  5  8  1  0  0  0  0
  9 10  1  0  0  0  0
 10 11  1  0  0  0  0
 11  3  1  0  0  0  0
 11 12  2  0  0  0  0
 12 13  1  0  0  0  0
 14 12  1  0  0  0  0
 14 15  1  0  0  0  0
 16 14  2  0  0  0  0
 17 10  2  0  0  0  0
 17 16  1  0  0  0  0
 18  2  1  0  0  0  0
 18 19  1  0  0  0  0
M  END
>  <minimizedAffinity>
-4.73211956

$$$$

 OpenBabel03252504053D

 19 20  0  0  0  0  0  0  0  0999 V2000
   37.3520   26.7520   42.9100 C   0  0  0  0  0  0  0  0  0  0  0  0
   37.3390   28.1480   42.7310 C   0  0  0  0  0  0  0  0  0  0  0  0
   37.7930   28.6370   41.5120 C   0  0  0  0  0  0  0  0  0  0  0  0
   38.2330   27.7630   40.5420 N   0  0  0  0  0  0  0  0  0  0  0  0
   38.2270   26.4210   40.7620 C   0  0  0  0  0  0  0  0  0  0  0  0
   37.7910   25.9320   41.9340 N   0  0  0  0  0  0  0  0  0  0  0  0
   36.9920   26.4060   43.8940 H   0  0  0  0  0  0  0  0  0  0  0  0
   38.5630   25.6850   40.0510 H   0  0  0  0  0  0  0  0  0  0  0  0
   35.4430   30.0140   40.2030 Cl  0  0  0  0  0  0  0  0  0  0  0  0
   36.9280   30.8940   40.5540 C   0  0  0  0  0  0  0  0  0  0  0  0
   37.8730   30.0390   41.1370 C   0  0  0  0  0  0  0  0  0  0  0  0
   39.1290   30.5320   41.5020 C   0  0  0  0  0  0  0  0  0  0  0  0
   39.9880   30.0830   41.9500 H   0  0  0  0  0  0  0  0  0  0  0  0
   39.3920   31.8930   41.2650 C   0  0  0  0  0  0  0  0  0  0  0  0
   40.3220   32.4350   41.4940 H   0  0  0  0  0  0  0  0  0  0  0  0
   38.4370   32.7040   40.6900 C   0  0  0  0  0  3  0  0  0  0  0  0
   37.1840   32.2110   40.3250 C   0  0  0  0  0  3  0  0  0  0  0  0
   36.9100   29.0650   43.6770 O   0  0  0  0  0  0  0  0  0  0  0  0
   36.1100   28.9620   44.2860 H   0  0  0  0  0  0  0  0  0  0  0  0
  1  7  1  0  0  0  0
  2  1  1  0  0  0  0
  2 18  1  0  0  0  0
  3  2  2  0  0  0  0
  4  5  2  0  0  0  0
  4  3  1  0  0  0  0
  5  6  1  0  0  0  0
  6  1  2  0  0  0  0
  8  5  1  0  0  0  0
  9 10  1  0  0  0  0
 10 11  1  0  0  0  0
 11 12  2  0  0  0  0
 11  3  1  0  0  0  0
 12 13  1  0  0  0  0
 14 15  1  0  0  0  0
 14 12  1  0  0  0  0
 16 14  2  0  0  0  0
 17 10  2  0  0  0  0
 17 16  1  0  0  0  0
 18 19  1  0  0  0  0
M  END
>  <minimizedAffinity>
-4.3457551

$$$$

 OpenBabel03252504053D

 19 20  0  0  0  0  0  0  0  0999 V2000
   35.0710   29.1700   37.9180 C   0  0  0  0  0  0  0  0  0  0  0  0
   35.3130   29.0910   39.3030 C   0  0  0  0  0  0  0  0  0  0  0  0
   36.5710   28.6560   39.7040 C   0  0  0  0  0  0  0  0  0  0  0  0
   37.5160   28.3210   38.7610 N   0  0  0  0  0  0  0  0  0  0  0  0
   37.2350   28.4130   37.4330 C   0  0  0  0  0  0  0  0  0  0  0  0
   36.0250   28.8320   37.0270 N   0  0  0  0  0  0  0  0  0  0  0  0
   34.0600   29.5120   37.6420 H   0  0  0  0  0  0  0  0  0  0  0  0
   37.9240   28.1600   36.6440 H   0  0  0  0  0  0  0  0  0  0  0  0
   37.7980   30.9710   41.2090 Cl  0  0  0  0  0  0  0  0  0  0  0  0
   37.5760   29.4040   41.9820 C   0  0  0  0  0  0  0  0  0  0  0  0
   37.0110   28.4920   41.0800 C   0  0  0  0  0  0  0  0  0  0  0  0
   36.7450   27.1820   41.4870 C   0  0  0  0  0  0  0  0  0  0  0  0
   36.3290   26.3340   40.9900 H   0  0  0  0  0  0  0  0  0  0  0  0
   37.0570   26.8320   42.8120 C   0  0  0  0  0  0  0  0  0  0  0  0
   36.9080   25.8510   43.2870 H   0  0  0  0  0  0  0  0  0  0  0  0
   37.6100   27.7560   43.6720 C   0  0  0  0  0  3  0  0  0  0  0  0
   37.8780   29.0630   43.2650 C   0  0  0  0  0  3  0  0  0  0  0  0
   34.3940   29.4140   40.2880 O   0  0  0  0  0  0  0  0  0  0  0  0
   33.7500   30.1920   40.2690 H   0  0  0  0  0  0  0  0  0  0  0  0
  1  2  1  0  0  0  0
  2  3  2  0  0  0  0
  2 18  1  0  0  0  0
  3 11  1  0  0  0  0
  4  3  1  0  0  0  0
  5  4  2  0  0  0  0
  6  5  1  0  0  0  0
  6  1  2  0  0  0  0
  7  1  1  0  0  0  0
  8  5  1  0  0  0  0
  9 10  1  0  0  0  0
 10 17  1  0  0  0  0
 11 12  1  0  0  0  0
 11 10  2  0  0  0  0
 12 14  2  0  0  0  0
 13 12  1  0  0  0  0
 14 15  1  0  0  0  0
 14 16  1  0  0  0  0
 17 16  2  0  0  0  0
 19 18  1  0  0  0  0
M  END
>  <minimizedAffinity>
-4.3134346

$$$$

 OpenBabel03252504053D

 19 20  0  0  0  0  0  0  0  0999 V2000
   37.0000   30.7110   41.1730 C   0  0  0  0  0  0  0  0  0  0  0  0
   37.2100   29.4890   41.8380 C   0  0  0  0  0  0  0  0  0  0  0  0
   37.7810   28.4560   41.1050 C   0  0  0  0  0  0  0  0  0  0  0  0
   38.1130   28.6530   39.7830 N   0  0  0  0  0  0  0  0  0  0  0  0
   37.8910   29.8530   39.1830 C   0  0  0  0  0  0  0  0  0  0  0  0
   37.3400   30.8630   39.8770 N   0  0  0  0  0  0  0  0  0  0  0  0
   36.5380   31.5020   41.7880 H   0  0  0  0  0  0  0  0  0  0  0  0
   38.1190   30.0730   38.1530 H   0  0  0  0  0  0  0  0  0  0  0  0
   40.2550   27.9220   42.7550 Cl  0  0  0  0  0  0  0  0  0  0  0  0
   39.1120   26.6320   42.3940 C   0  0  0  0  0  0  0  0  0  0  0  0
   38.0640   27.1190   41.6010 C   0  0  0  0  0  0  0  0  0  0  0  0
   37.0370   26.2610   41.1980 C   0  0  0  0  0  0  0  0  0  0  0  0
   36.1580   26.4010   40.6080 H   0  0  0  0  0  0  0  0  0  0  0  0
   37.1000   24.9210   41.6200 C   0  0  0  0  0  0  0  0  0  0  0  0
   36.3760   24.1240   41.3940 H   0  0  0  0  0  0  0  0  0  0  0  0
   38.1460   24.4780   42.4010 C   0  0  0  0  0  3  0  0  0  0  0  0
   39.1720   25.3340   42.8010 C   0  0  0  0  0  3  0  0  0  0  0  0
   36.8890   29.2410   43.1630 O   0  0  0  0  0  0  0  0  0  0  0  0
   37.0150   29.8810   43.9350 H   0  0  0  0  0  0  0  0  0  0  0  0
  1  7  1  0  0  0  0
  1  2  1  0  0  0  0
  2 18  1  0  0  0  0
  3 11  1  0  0  0  0
  3  2  2  0  0  0  0
  4  3  1  0  0  0  0
  5  4  2  0  0  0  0
  5  6  1  0  0  0  0
  6  1  2  0  0  0  0
  8  5  1  0  0  0  0
 10  9  1  0  0  0  0
 10 17  1  0  0  0  0
 11 10  2  0  0  0  0
 12 11  1  0  0  0  0
 12 14  2  0  0  0  0
 13 12  1  0  0  0  0
 14 16  1  0  0  0  0
 15 14  1  0  0  0  0
 16 17  2  0  0  0  0
 18 19  1  0  0  0  0
M  END
>  <minimizedAffinity>
-4.29236698

$$$$

 OpenBabel03252504053D

 19 20  0  0  0  0  0  0  0  0999 V2000
   37.9420   31.3810   38.0850 C   0  0  0  0  0  0  0  0  0  0  0  0
   37.9190   30.2850   38.9680 C   0  0  0  0  0  0  0  0  0  0  0  0
   37.5610   30.5390   40.2860 C   0  0  0  0  0  0  0  0  0  0  0  0
   37.2520   31.8220   40.6800 N   0  0  0  0  0  0  0  0  0  0  0  0
   37.2890   32.8490   39.7900 C   0  0  0  0  0  0  0  0  0  0  0  0
   37.6320   32.6210   38.5110 N   0  0  0  0  0  0  0  0  0  0  0  0
   38.2380   31.1380   37.0500 H   0  0  0  0  0  0  0  0  0  0  0  0
   37.0660   33.8750   40.0310 H   0  0  0  0  0  0  0  0  0  0  0  0
   35.1020   28.8180   40.6280 Cl  0  0  0  0  0  0  0  0  0  0  0  0
   36.4920   28.6320   41.6930 C   0  0  0  0  0  0  0  0  0  0  0  0
   37.4920   29.5520   41.3520 C   0  0  0  0  0  0  0  0  0  0  0  0
   38.6910   29.5770   42.0700 C   0  0  0  0  0  0  0  0  0  0  0  0
   39.5740   30.1720   41.9940 H   0  0  0  0  0  0  0  0  0  0  0  0
   38.8440   28.6570   43.1210 C   0  0  0  0  0  0  0  0  0  0  0  0
   39.7200   28.5450   43.7780 H   0  0  0  0  0  0  0  0  0  0  0  0
   37.8380   27.7660   43.4280 C   0  0  0  0  0  3  0  0  0  0  0  0
   36.6410   27.7420   42.7130 C   0  0  0  0  0  3  0  0  0  0  0  0
   38.2250   28.9790   38.6200 O   0  0  0  0  0  0  0  0  0  0  0  0
   37.9630   28.5150   37.7620 H   0  0  0  0  0  0  0  0  0  0  0  0
  1  6  2  0  0  0  0
  1  2  1  0  0  0  0
  2  3  2  0  0  0  0
  3  4  1  0  0  0  0
  3 11  1  0  0  0  0
  5  8  1  0  0  0  0
  5  4  2  0  0  0  0
  6  5  1  0  0  0  0
  7  1  1  0  0  0  0
  9 10  1  0  0  0  0
 10 17  1  0  0  0  0
 11 10  2  0  0  0  0
 11 12  1  0  0  0  0
 12 14  2  0  0  0  0
 13 12  1  0  0  0  0
 14 16  1  0  0  0  0
 14 15  1  0  0  0  0
 17 16  2  0  0  0  0
 18  2  1  0  0  0  0
 19 18  1  0  0  0  0
M  END
>  <minimizedAffinity>
-4.24361134

$$$$

 OpenBabel03252504053D

 19 20  0  0  0  0  0  0  0  0999 V2000
   38.4910   30.7490   40.5000 C   0  0  0  0  0  0  0  0  0  0  0  0
   38.5420   29.3480   40.6250 C   0  0  0  0  0  0  0  0  0  0  0  0
   37.3550   28.6940   40.9340 C   0  0  0  0  0  0  0  0  0  0  0  0
   36.1970   29.4180   41.1080 N   0  0  0  0  0  0  0  0  0  0  0  0
   36.1970   30.7720   40.9770 C   0  0  0  0  0  0  0  0  0  0  0  0
   37.3350   31.4200   40.6770 N   0  0  0  0  0  0  0  0  0  0  0  0
   39.4550   31.2300   40.2620 H   0  0  0  0  0  0  0  0  0  0  0  0
   35.3300   31.3980   41.1050 H   0  0  0  0  0  0  0  0  0  0  0  0
   37.8180   27.4410   43.6440 Cl  0  0  0  0  0  0  0  0  0  0  0  0
   37.3310   26.4610   42.2640 C   0  0  0  0  0  0  0  0  0  0  0  0
   37.2010   27.2610   41.1210 C   0  0  0  0  0  0  0  0  0  0  0  0
   36.8170   26.6860   39.9070 C   0  0  0  0  0  0  0  0  0  0  0  0
   36.6560   27.0830   38.9290 H   0  0  0  0  0  0  0  0  0  0  0  0
   36.5700   25.3020   39.8870 C   0  0  0  0  0  0  0  0  0  0  0  0
   36.2590   24.6990   39.0200 H   0  0  0  0  0  0  0  0  0  0  0  0
   36.7060   24.5460   41.0320 C   0  0  0  0  0  3  0  0  0  0  0  0
   37.0910   25.1200   42.2440 C   0  0  0  0  0  3  0  0  0  0  0  0
   39.6820   28.5780   40.4640 O   0  0  0  0  0  0  0  0  0  0  0  0
   40.3980   28.7150   39.7650 H   0  0  0  0  0  0  0  0  0  0  0  0
  1  2  2  0  0  0  0
  1  6  1  0  0  0  0
  2  3  1  0  0  0  0
  3  4  2  0  0  0  0
  3 11  1  0  0  0  0
  5  8  1  0  0  0  0
  5  4  1  0  0  0  0
  6  5  2  0  0  0  0
  7  1  1  0  0  0  0
 10  9  1  0  0  0  0
 11 10  2  0  0  0  0
 12 11  1  0  0  0  0
 13 12  1  0  0  0  0
 14 12  2  0  0  0  0
 14 16  1  0  0  0  0
 15 14  1  0  0  0  0
 16 17  2  0  0  0  0
 17 10  1  0  0  0  0
 18  2  1  0  0  0  0
 19 18  1  0  0  0  0
M  END
>  <minimizedAffinity>
-4.22975159

$$$$

 OpenBabel03252504053D

 19 20  0  0  0  0  0  0  0  0999 V2000
   38.1150   31.0830   38.2230 C   0  0  0  0  0  0  0  0  0  0  0  0
   38.1740   30.0640   39.1930 C   0  0  0  0  0  0  0  0  0  0  0  0
   37.5860   30.3250   40.4260 C   0  0  0  0  0  0  0  0  0  0  0  0
   36.9830   31.5410   40.6550 N   0  0  0  0  0  0  0  0  0  0  0  0
   36.9500   32.4950   39.6870 C   0  0  0  0  0  0  0  0  0  0  0  0
   37.5130   32.2600   38.4890 N   0  0  0  0  0  0  0  0  0  0  0  0
   38.5990   30.8390   37.2630 H   0  0  0  0  0  0  0  0  0  0  0  0
   36.5020   33.4680   39.8020 H   0  0  0  0  0  0  0  0  0  0  0  0
   39.6790   30.5050   42.5980 Cl  0  0  0  0  0  0  0  0  0  0  0  0
   38.3810   29.3180   42.6870 C   0  0  0  0  0  0  0  0  0  0  0  0
   37.5540   29.4150   41.5590 C   0  0  0  0  0  0  0  0  0  0  0  0
   36.4540   28.5650   41.4250 C   0  0  0  0  0  0  0  0  0  0  0  0
   35.7020   28.4570   40.6740 H   0  0  0  0  0  0  0  0  0  0  0  0
   36.2170   27.6330   42.4500 C   0  0  0  0  0  0  0  0  0  0  0  0
   35.3990   26.8990   42.5000 H   0  0  0  0  0  0  0  0  0  0  0  0
   37.0510   27.5670   43.5470 C   0  0  0  0  0  3  0  0  0  0  0  0
   38.1510   28.4140   43.6790 C   0  0  0  0  0  3  0  0  0  0  0  0
   38.7730   28.8280   39.0100 O   0  0  0  0  0  0  0  0  0  0  0  0
   38.7320   28.2660   38.1720 H   0  0  0  0  0  0  0  0  0  0  0  0
  1  6  2  0  0  0  0
  1  2  1  0  0  0  0
  2  3  2  0  0  0  0
  3  4  1  0  0  0  0
  3 11  1  0  0  0  0
  5  8  1  0  0  0  0
  5  4  2  0  0  0  0
  6  5  1  0  0  0  0
  7  1  1  0  0  0  0
  9 10  1  0  0  0  0
 10 17  1  0  0  0  0
 11 10  2  0  0  0  0
 12 11  1  0  0  0  0
 12 14  2  0  0  0  0
 13 12  1  0  0  0  0
 14 15  1  0  0  0  0
 14 16  1  0  0  0  0
 16 17  2  0  0  0  0
 18  2  1  0  0  0  0
 19 18  1  0  0  0  0
M  END
>  <minimizedAffinity>
-4.22837734

$$$$
