
 OpenBabel03252508323D

 32 34  0  0  1  0  0  0  0  0999 V2000
   45.9980   33.6630   43.2580 N   0  0  0  0  0  0  0  0  0  0  0  0
   46.6070   33.1480   42.0680 C   0  0  1  0  0  0  0  0  0  0  0  0
   46.4180   33.9820   40.8510 C   0  0  0  0  0  0  0  0  0  0  0  0
   45.1380   34.5690   40.7220 N   0  0  0  0  0  0  0  0  0  0  0  0
   44.5460   35.0750   41.8930 C   0  0  0  0  0  0  0  0  0  0  0  0
   45.4610   34.9780   43.1040 C   0  0  0  0  0  0  0  0  0  0  0  0
   46.2220   32.1190   41.9100 H   0  0  0  0  0  0  0  0  0  0  0  0
   47.2060   34.7910   40.8300 H   0  0  0  0  0  0  0  0  0  0  0  0
   46.6190   33.3590   39.9530 H   0  0  0  0  0  0  0  0  0  0  0  0
   44.9000   34.9440   39.8180 H   0  0  0  0  0  0  0  0  0  0  0  0
   44.3460   36.1700   41.7640 H   0  0  0  0  0  0  0  0  0  0  0  0
   43.5750   34.6260   42.1840 H   0  0  0  0  0  0  0  0  0  0  0  0
   44.9830   35.4330   43.9610 H   0  0  0  0  0  0  0  0  0  0  0  0
   46.3160   35.6690   42.8390 H   0  0  0  0  0  0  0  0  0  0  0  0
   46.2330   33.4990   45.6210 C   0  0  0  0  0  0  0  0  0  0  0  0
   45.9940   32.8460   44.4160 C   0  0  0  0  0  0  0  0  0  0  0  0
   45.7780   31.4810   44.4510 C   0  0  0  0  0  0  0  0  0  0  0  0
   45.8030   30.8190   45.6390 N   0  0  0  0  0  0  0  0  0  0  0  0
   46.0400   31.4820   46.8060 C   0  0  0  0  0  0  0  0  0  0  0  0
   46.2520   32.8090   46.7960 N   0  0  0  0  0  0  0  0  0  0  0  0
   46.4210   34.5480   45.7980 H   0  0  0  0  0  0  0  0  0  0  0  0
   45.5960   30.9950   43.5310 H   0  0  0  0  0  0  0  0  0  0  0  0
   46.0380   30.8540   47.6910 H   0  0  0  0  0  0  0  0  0  0  0  0
   48.1290   35.6910   41.9800 Cl  0  0  0  0  0  0  0  0  0  0  0  0
   48.9440   34.1380   42.1560 C   0  0  0  0  0  0  0  0  0  0  0  0
   48.1050   33.0180   42.1830 C   0  0  0  0  0  0  0  0  0  0  0  0
   48.7390   31.8060   42.3200 C   0  0  0  0  0  0  0  0  0  0  0  0
   48.1770   30.9080   42.3490 H   0  0  0  0  0  0  0  0  0  0  0  0
   50.1060   31.6730   42.4250 C   0  0  0  0  0  0  0  0  0  0  0  0
   50.6070   30.7300   42.5330 H   0  0  0  0  0  0  0  0  0  0  0  0
   50.8970   32.8020   42.3950 C   0  0  0  0  0  3  0  0  0  0  0  0
   50.3100   34.0400   42.2590 C   0  0  0  0  0  3  0  0  0  0  0  0
  1 16  1  0  0  0  0
  2  7  1  6  0  0  0
  2 26  1  0  0  0  0
  2  1  1  0  0  0  0
  3  2  1  0  0  0  0
  4  3  1  0  0  0  0
  4  5  1  0  0  0  0
  5 12  1  0  0  0  0
  5  6  1  0  0  0  0
  6  1  1  0  0  0  0
  6 13  1  0  0  0  0
  8  3  1  0  0  0  0
  9  3  1  0  0  0  0
 10  4  1  0  0  0  0
 11  5  1  0  0  0  0
 14  6  1  0  0  0  0
 15 21  1  0  0  0  0
 15 20  1  0  0  0  0
 16 17  1  0  0  0  0
 16 15  2  0  0  0  0
 17 18  2  0  0  0  0
 18 19  1  0  0  0  0
 19 23  1  0  0  0  0
 20 19  2  0  0  0  0
 22 17  1  0  0  0  0
 24 25  1  0  0  0  0
 25 26  2  0  0  0  0
 25 32  1  0  0  0  0
 26 27  1  0  0  0  0
 27 28  1  0  0  0  0
 27 29  2  0  0  0  0
 29 30  1  0  0  0  0
 31 29  1  0  0  0  0
 32 31  2  0  0  0  0
M  END
>  <minimizedAffinity>
-4.84170151

>  <minimizedRMSD>
2.6892314

$$$$
