
 OpenBabel03252500533D

 24 25  0  0  0  0  0  0  0  0999 V2000
   38.9220   31.6010   40.6390 C   0  0  0  0  0  0  0  0  0  0  0  0
   37.6640   31.8210   40.0970 C   0  0  0  0  0  0  0  0  0  0  0  0
   37.3130   33.1580   39.7900 C   0  0  0  0  0  0  0  0  0  0  0  0
   38.2320   34.1430   40.0450 N   0  0  0  0  0  0  0  0  0  0  0  0
   39.4350   33.8710   40.5690 C   0  0  0  0  0  0  0  0  0  0  0  0
   39.7750   32.6200   40.8610 N   0  0  0  0  0  0  0  0  0  0  0  0
   36.3560   33.4490   39.3640 H   0  0  0  0  0  0  0  0  0  0  0  0
   40.1660   34.6510   40.7730 H   0  0  0  0  0  0  0  0  0  0  0  0
   37.7380   31.2300   37.2300 Cl  0  0  0  0  0  0  0  0  0  0  0  0
   36.6900   30.5150   38.4400 C   0  0  0  0  0  0  0  0  0  0  0  0
   36.6580   30.8110   39.8120 C   0  0  0  0  0  0  0  0  0  0  0  0
   35.7490   30.1310   40.6030 C   0  0  0  0  0  0  0  0  0  0  0  0
   35.8470   30.4660   41.6290 H   0  0  0  0  0  0  0  0  0  0  0  0
   34.9080   29.1950   40.0490 C   0  0  0  0  0  0  0  0  0  0  0  0
   34.2630   28.7610   40.8170 H   0  0  0  0  0  0  0  0  0  0  0  0
   34.9260   28.8960   38.7140 C   0  0  0  0  0  3  0  0  0  0  0  0
   35.8200   29.5570   37.9020 C   0  0  0  0  0  3  0  0  0  0  0  0
   39.3180   30.2500   40.9960 C   0  0  0  0  0  0  0  0  0  0  0  0
   40.3900   30.1420   40.6490 H   0  0  0  0  0  0  0  0  0  0  0  0
   38.7740   29.4880   40.4060 H   0  0  0  0  0  0  0  0  0  0  0  0
   39.1810   30.0370   42.4680 C   0  0  0  0  0  0  0  0  0  0  0  0
   38.5230   30.7420   42.9910 H   0  0  0  0  0  0  0  0  0  0  0  0
   40.1630   29.8660   42.9300 H   0  0  0  0  0  0  0  0  0  0  0  0
   38.6540   29.0390   42.5940 H   0  0  0  0  0  0  0  0  0  0  0  0
  1  6  1  0  0  0  0
  1 18  1  0  0  0  0
  2  1  2  0  0  0  0
  3  4  2  0  0  0  0
  3  2  1  0  0  0  0
  4  5  1  0  0  0  0
  5  8  1  0  0  0  0
  5  6  2  0  0  0  0
  7  3  1  0  0  0  0
  9 10  1  0  0  0  0
 10 11  1  0  0  0  0
 11  2  1  0  0  0  0
 11 12  2  0  0  0  0
 12 13  1  0  0  0  0
 14 12  1  0  0  0  0
 14 15  1  0  0  0  0
 16 14  2  0  0  0  0
 17 10  2  0  0  0  0
 17 16  1  0  0  0  0
 18 21  1  0  0  0  0
 19 18  1  0  0  0  0
 20 18  1  0  0  0  0
 21 24  1  0  0  0  0
 21 23  1  0  0  0  0
 21 22  1  0  0  0  0
M  END
>  <minimizedAffinity>
-4.59138632

$$$$

 OpenBabel03252500533D

 24 25  0  0  0  0  0  0  0  0999 V2000
   36.0970   29.6100   40.5200 C   0  0  0  0  0  0  0  0  0  0  0  0
   37.1560   28.7460   40.7580 C   0  0  0  0  0  0  0  0  0  0  0  0
   38.4280   29.3240   40.9890 C   0  0  0  0  0  0  0  0  0  0  0  0
   38.5310   30.6900   40.9640 N   0  0  0  0  0  0  0  0  0  0  0  0
   37.4710   31.4770   40.7300 C   0  0  0  0  0  0  0  0  0  0  0  0
   36.2730   30.9450   40.5110 N   0  0  0  0  0  0  0  0  0  0  0  0
   39.3270   28.7460   41.1860 H   0  0  0  0  0  0  0  0  0  0  0  0
   37.5500   32.5620   40.7090 H   0  0  0  0  0  0  0  0  0  0  0  0
   36.9810   27.8960   43.5550 Cl  0  0  0  0  0  0  0  0  0  0  0  0
   37.0040   26.8760   42.1290 C   0  0  0  0  0  0  0  0  0  0  0  0
   37.0940   27.2940   40.7920 C   0  0  0  0  0  0  0  0  0  0  0  0
   37.0970   26.3230   39.8060 C   0  0  0  0  0  0  0  0  0  0  0  0
   37.1710   26.7990   38.8360 H   0  0  0  0  0  0  0  0  0  0  0  0
   37.0120   24.9920   40.1400 C   0  0  0  0  0  0  0  0  0  0  0  0
   37.0280   24.3720   39.2400 H   0  0  0  0  0  0  0  0  0  0  0  0
   36.9230   24.5690   41.4380 C   0  0  0  0  0  3  0  0  0  0  0  0
   36.9180   25.5120   42.4400 C   0  0  0  0  0  3  0  0  0  0  0  0
   34.7780   29.0640   40.2490 C   0  0  0  0  0  0  0  0  0  0  0  0
   34.0460   29.7630   40.7550 H   0  0  0  0  0  0  0  0  0  0  0  0
   34.6150   28.0980   40.7640 H   0  0  0  0  0  0  0  0  0  0  0  0
   34.5410   28.9730   38.7780 C   0  0  0  0  0  0  0  0  0  0  0  0
   35.4410   28.9910   38.1500 H   0  0  0  0  0  0  0  0  0  0  0  0
   33.7300   29.6470   38.4710 H   0  0  0  0  0  0  0  0  0  0  0  0
   34.1090   27.9400   38.5920 H   0  0  0  0  0  0  0  0  0  0  0  0
  1  2  1  0  0  0  0
  2 11  1  0  0  0  0
  2  3  2  0  0  0  0
  3  7  1  0  0  0  0
  4  3  1  0  0  0  0
  5  4  2  0  0  0  0
  6  1  2  0  0  0  0
  6  5  1  0  0  0  0
  8  5  1  0  0  0  0
 10 17  1  0  0  0  0
 10  9  1  0  0  0  0
 11 10  2  0  0  0  0
 12 14  2  0  0  0  0
 12 11  1  0  0  0  0
 13 12  1  0  0  0  0
 14 16  1  0  0  0  0
 15 14  1  0  0  0  0
 16 17  2  0  0  0  0
 18  1  1  0  0  0  0
 18 19  1  0  0  0  0
 18 20  1  0  0  0  0
 21 18  1  0  0  0  0
 22 21  1  0  0  0  0
 23 21  1  0  0  0  0
 24 21  1  0  0  0  0
M  END
>  <minimizedAffinity>
-4.54608297

$$$$

 OpenBabel03252500533D

 24 25  0  0  0  0  0  0  0  0999 V2000
   38.0610   29.1890   41.0290 C   0  0  0  0  0  0  0  0  0  0  0  0
   37.0030   28.3130   40.8360 C   0  0  0  0  0  0  0  0  0  0  0  0
   35.7180   28.8770   40.6420 C   0  0  0  0  0  0  0  0  0  0  0  0
   35.6030   30.2430   40.6560 N   0  0  0  0  0  0  0  0  0  0  0  0
   36.6630   31.0420   40.8460 C   0  0  0  0  0  0  0  0  0  0  0  0
   37.8730   30.5230   41.0300 N   0  0  0  0  0  0  0  0  0  0  0  0
   34.8190   28.2890   40.4820 H   0  0  0  0  0  0  0  0  0  0  0  0
   36.5740   32.1260   40.8590 H   0  0  0  0  0  0  0  0  0  0  0  0
   36.5280   27.3250   43.5520 Cl  0  0  0  0  0  0  0  0  0  0  0  0
   36.8450   26.3770   42.1120 C   0  0  0  0  0  0  0  0  0  0  0  0
   37.0770   26.8610   40.8150 C   0  0  0  0  0  0  0  0  0  0  0  0
   37.3100   25.9400   39.8080 C   0  0  0  0  0  0  0  0  0  0  0  0
   37.4700   26.4650   38.8740 H   0  0  0  0  0  0  0  0  0  0  0  0
   37.3090   24.5930   40.0840 C   0  0  0  0  0  0  0  0  0  0  0  0
   37.5080   24.0190   39.1760 H   0  0  0  0  0  0  0  0  0  0  0  0
   37.0840   24.1060   41.3420 C   0  0  0  0  0  3  0  0  0  0  0  0
   36.8500   24.9980   42.3640 C   0  0  0  0  0  3  0  0  0  0  0  0
   39.3940   28.6580   41.2600 C   0  0  0  0  0  0  0  0  0  0  0  0
   40.0840   29.2640   40.6010 H   0  0  0  0  0  0  0  0  0  0  0  0
   39.5020   27.6270   40.8750 H   0  0  0  0  0  0  0  0  0  0  0  0
   39.7570   28.7680   42.7050 C   0  0  0  0  0  0  0  0  0  0  0  0
   38.9160   28.8940   43.3980 H   0  0  0  0  0  0  0  0  0  0  0  0
   40.5980   29.4610   42.8430 H   0  0  0  0  0  0  0  0  0  0  0  0
   40.1940   27.7620   42.9970 H   0  0  0  0  0  0  0  0  0  0  0  0
  1  6  1  0  0  0  0
  1 18  1  0  0  0  0
  2  1  2  0  0  0  0
  3  4  2  0  0  0  0
  3  2  1  0  0  0  0
  4  5  1  0  0  0  0
  5  8  1  0  0  0  0
  5  6  2  0  0  0  0
  7  3  1  0  0  0  0
 10 17  1  0  0  0  0
 10  9  1  0  0  0  0
 11  2  1  0  0  0  0
 11 10  2  0  0  0  0
 12 14  2  0  0  0  0
 12 11  1  0  0  0  0
 13 12  1  0  0  0  0
 14 16  1  0  0  0  0
 15 14  1  0  0  0  0
 16 17  2  0  0  0  0
 18 21  1  0  0  0  0
 19 18  1  0  0  0  0
 20 18  1  0  0  0  0
 21 23  1  0  0  0  0
 21 24  1  0  0  0  0
 21 22  1  0  0  0  0
M  END
>  <minimizedAffinity>
-4.44545698

$$$$

 OpenBabel03252500533D

 24 25  0  0  0  0  0  0  0  0999 V2000
   38.0590   31.2670   41.0610 C   0  0  0  0  0  0  0  0  0  0  0  0
   38.6590   30.2540   41.7960 C   0  0  0  0  0  0  0  0  0  0  0  0
   40.0260   30.4150   42.1280 C   0  0  0  0  0  0  0  0  0  0  0  0
   40.6650   31.5520   41.7070 N   0  0  0  0  0  0  0  0  0  0  0  0
   40.0330   32.5000   41.0000 C   0  0  0  0  0  0  0  0  0  0  0  0
   38.7500   32.3600   40.6820 N   0  0  0  0  0  0  0  0  0  0  0  0
   40.5980   29.6870   42.6980 H   0  0  0  0  0  0  0  0  0  0  0  0
   40.5380   33.4030   40.6650 H   0  0  0  0  0  0  0  0  0  0  0  0
   39.0150   28.1920   39.7480 Cl  0  0  0  0  0  0  0  0  0  0  0  0
   38.1930   28.0350   41.2880 C   0  0  0  0  0  0  0  0  0  0  0  0
   38.0230   29.0330   42.2610 C   0  0  0  0  0  0  0  0  0  0  0  0
   37.3380   28.7040   43.4170 C   0  0  0  0  0  0  0  0  0  0  0  0
   37.2900   29.5720   44.0630 H   0  0  0  0  0  0  0  0  0  0  0  0
   36.8440   27.4330   43.5960 C   0  0  0  0  0  0  0  0  0  0  0  0
   36.3360   27.3540   44.5600 H   0  0  0  0  0  0  0  0  0  0  0  0
   37.0030   26.4500   42.6580 C   0  0  0  0  0  3  0  0  0  0  0  0
   37.6800   26.7480   41.4970 C   0  0  0  0  0  3  0  0  0  0  0  0
   36.6650   31.1370   40.6720 C   0  0  0  0  0  0  0  0  0  0  0  0
   36.1860   32.1330   40.9070 H   0  0  0  0  0  0  0  0  0  0  0  0
   36.1190   30.4240   41.3180 H   0  0  0  0  0  0  0  0  0  0  0  0
   36.5580   30.7900   39.2230 C   0  0  0  0  0  0  0  0  0  0  0  0
   37.4620   30.3680   38.7670 H   0  0  0  0  0  0  0  0  0  0  0  0
   36.0740   31.6030   38.6630 H   0  0  0  0  0  0  0  0  0  0  0  0
   35.8060   29.9420   39.1570 H   0  0  0  0  0  0  0  0  0  0  0  0
  1  2  1  0  0  0  0
  2  3  2  0  0  0  0
  2 11  1  0  0  0  0
  3  7  1  0  0  0  0
  4  3  1  0  0  0  0
  5  4  2  0  0  0  0
  6  5  1  0  0  0  0
  6  1  2  0  0  0  0
  8  5  1  0  0  0  0
  9 10  1  0  0  0  0
 10 17  2  0  0  0  0
 10 11  1  0  0  0  0
 11 12  2  0  0  0  0
 12 14  1  0  0  0  0
 12 13  1  0  0  0  0
 14 15  1  0  0  0  0
 16 14  2  0  0  0  0
 17 16  1  0  0  0  0
 18 19  1  0  0  0  0
 18  1  1  0  0  0  0
 18 20  1  0  0  0  0
 21 18  1  0  0  0  0
 22 21  1  0  0  0  0
 23 21  1  0  0  0  0
 24 21  1  0  0  0  0
M  END
>  <minimizedAffinity>
-4.35474443

$$$$

 OpenBabel03252500533D

 24 25  0  0  0  0  0  0  0  0999 V2000
   37.4780   31.1070   39.2660 C   0  0  0  0  0  0  0  0  0  0  0  0
   37.8040   29.7980   39.5900 C   0  0  0  0  0  0  0  0  0  0  0  0
   37.9150   28.8720   38.5240 C   0  0  0  0  0  0  0  0  0  0  0  0
   37.6960   29.3250   37.2500 N   0  0  0  0  0  0  0  0  0  0  0  0
   37.3860   30.6040   36.9950 C   0  0  0  0  0  0  0  0  0  0  0  0
   37.2780   31.4810   37.9870 N   0  0  0  0  0  0  0  0  0  0  0  0
   38.1640   27.8230   38.6600 H   0  0  0  0  0  0  0  0  0  0  0  0
   37.2110   30.9660   35.9840 H   0  0  0  0  0  0  0  0  0  0  0  0
   35.2590   28.8290   40.6680 Cl  0  0  0  0  0  0  0  0  0  0  0  0
   36.8280   28.8000   41.4490 C   0  0  0  0  0  0  0  0  0  0  0  0
   38.0420   29.2730   40.9250 C   0  0  0  0  0  0  0  0  0  0  0  0
   39.1770   29.1570   41.7080 C   0  0  0  0  0  0  0  0  0  0  0  0
   40.0250   29.5630   41.1690 H   0  0  0  0  0  0  0  0  0  0  0  0
   39.1050   28.5930   42.9590 C   0  0  0  0  0  0  0  0  0  0  0  0
   40.0910   28.5830   43.4300 H   0  0  0  0  0  0  0  0  0  0  0  0
   37.9300   28.1270   43.4840 C   0  0  0  0  0  3  0  0  0  0  0  0
   36.7840   28.2290   42.7280 C   0  0  0  0  0  3  0  0  0  0  0  0
   37.3260   32.0880   40.3270 C   0  0  0  0  0  0  0  0  0  0  0  0
   38.0610   31.7870   41.1320 H   0  0  0  0  0  0  0  0  0  0  0  0
   36.3420   32.0080   40.8280 H   0  0  0  0  0  0  0  0  0  0  0  0
   37.5920   33.4630   39.8100 C   0  0  0  0  0  0  0  0  0  0  0  0
   37.5240   33.5830   38.7210 H   0  0  0  0  0  0  0  0  0  0  0  0
   38.4860   33.8910   40.2830 H   0  0  0  0  0  0  0  0  0  0  0  0
   36.7490   34.1150   40.2020 H   0  0  0  0  0  0  0  0  0  0  0  0
  1  2  1  0  0  0  0
  1 18  1  0  0  0  0
  2 11  1  0  0  0  0
  3  7  1  0  0  0  0
  3  2  2  0  0  0  0
  4  3  1  0  0  0  0
  5  4  2  0  0  0  0
  5  6  1  0  0  0  0
  6  1  2  0  0  0  0
  8  5  1  0  0  0  0
  9 10  1  0  0  0  0
 10 17  1  0  0  0  0
 11 10  2  0  0  0  0
 11 12  1  0  0  0  0
 12 14  2  0  0  0  0
 13 12  1  0  0  0  0
 14 15  1  0  0  0  0
 14 16  1  0  0  0  0
 17 16  2  0  0  0  0
 18 20  1  0  0  0  0
 18 19  1  0  0  0  0
 21 24  1  0  0  0  0
 21 23  1  0  0  0  0
 21 18  1  0  0  0  0
 22 21  1  0  0  0  0
M  END
>  <minimizedAffinity>
-4.32699394

$$$$

 OpenBabel03252500533D

 24 25  0  0  0  0  0  0  0  0999 V2000
   37.4270   28.9830   42.0280 C   0  0  0  0  0  0  0  0  0  0  0  0
   36.9740   27.9060   41.2790 C   0  0  0  0  0  0  0  0  0  0  0  0
   36.0120   28.1730   40.2740 C   0  0  0  0  0  0  0  0  0  0  0  0
   35.5950   29.4670   40.1060 N   0  0  0  0  0  0  0  0  0  0  0  0
   36.0700   30.4690   40.8590 C   0  0  0  0  0  0  0  0  0  0  0  0
   36.9720   30.2310   41.8050 N   0  0  0  0  0  0  0  0  0  0  0  0
   35.5860   27.4090   39.6290 H   0  0  0  0  0  0  0  0  0  0  0  0
   35.7400   31.4980   40.7280 H   0  0  0  0  0  0  0  0  0  0  0  0
   39.2190   27.4180   39.4630 Cl  0  0  0  0  0  0  0  0  0  0  0  0
   38.4670   26.2770   40.5610 C   0  0  0  0  0  0  0  0  0  0  0  0
   37.3860   26.5200   41.4240 C   0  0  0  0  0  0  0  0  0  0  0  0
   36.9380   25.4770   42.2150 C   0  0  0  0  0  0  0  0  0  0  0  0
   36.1070   25.8190   42.8200 H   0  0  0  0  0  0  0  0  0  0  0  0
   37.5420   24.2440   42.1490 C   0  0  0  0  0  0  0  0  0  0  0  0
   37.0610   23.5470   42.8390 H   0  0  0  0  0  0  0  0  0  0  0  0
   38.5960   23.9910   41.3140 C   0  0  0  0  0  3  0  0  0  0  0  0
   39.0640   25.0100   40.5150 C   0  0  0  0  0  3  0  0  0  0  0  0
   38.3940   28.7570   43.0890 C   0  0  0  0  0  0  0  0  0  0  0  0
   38.3490   27.6490   43.3150 H   0  0  0  0  0  0  0  0  0  0  0  0
   38.0850   29.2310   44.0400 H   0  0  0  0  0  0  0  0  0  0  0  0
   39.7570   29.1850   42.6550 C   0  0  0  0  0  0  0  0  0  0  0  0
   39.7890   29.8790   41.8060 H   0  0  0  0  0  0  0  0  0  0  0  0
   40.4350   28.3230   42.5940 H   0  0  0  0  0  0  0  0  0  0  0  0
   40.1840   29.7940   43.5130 H   0  0  0  0  0  0  0  0  0  0  0  0
  1 18  1  0  0  0  0
  2 11  1  0  0  0  0
  2  1  2  0  0  0  0
  3  2  1  0  0  0  0
  4  3  2  0  0  0  0
  4  5  1  0  0  0  0
  5  6  2  0  0  0  0
  6  1  1  0  0  0  0
  7  3  1  0  0  0  0
  8  5  1  0  0  0  0
  9 10  1  0  0  0  0
 10 11  1  0  0  0  0
 11 12  2  0  0  0  0
 12 13  1  0  0  0  0
 14 12  1  0  0  0  0
 14 15  1  0  0  0  0
 16 14  2  0  0  0  0
 17 10  2  0  0  0  0
 17 16  1  0  0  0  0
 18 19  1  0  0  0  0
 18 20  1  0  0  0  0
 21 18  1  0  0  0  0
 21 24  1  0  0  0  0
 22 21  1  0  0  0  0
 23 21  1  0  0  0  0
M  END
>  <minimizedAffinity>
-4.30994654

$$$$

 OpenBabel03252500533D

 24 25  0  0  0  0  0  0  0  0999 V2000
   38.0040   30.0690   39.1060 C   0  0  0  0  0  0  0  0  0  0  0  0
   37.3850   30.2690   40.3310 C   0  0  0  0  0  0  0  0  0  0  0  0
   36.8430   31.5530   40.5840 C   0  0  0  0  0  0  0  0  0  0  0  0
   36.9640   32.5080   39.6090 N   0  0  0  0  0  0  0  0  0  0  0  0
   37.5720   32.2580   38.4410 C   0  0  0  0  0  0  0  0  0  0  0  0
   38.0840   31.0570   38.1930 N   0  0  0  0  0  0  0  0  0  0  0  0
   36.3380   31.8230   41.5070 H   0  0  0  0  0  0  0  0  0  0  0  0
   37.6700   33.0150   37.6660 H   0  0  0  0  0  0  0  0  0  0  0  0
   39.5390   30.6770   42.2730 Cl  0  0  0  0  0  0  0  0  0  0  0  0
   38.2610   29.4780   42.3330 C   0  0  0  0  0  0  0  0  0  0  0  0
   37.2360   29.2870   41.3930 C   0  0  0  0  0  0  0  0  0  0  0  0
   36.3190   28.2780   41.6270 C   0  0  0  0  0  0  0  0  0  0  0  0
   35.5960   28.2570   40.8190 H   0  0  0  0  0  0  0  0  0  0  0  0
   36.4190   27.4930   42.7510 C   0  0  0  0  0  0  0  0  0  0  0  0
   35.6150   26.7530   42.7710 H   0  0  0  0  0  0  0  0  0  0  0  0
   37.4120   27.6660   43.6760 C   0  0  0  0  0  3  0  0  0  0  0  0
   38.3390   28.6630   43.4700 C   0  0  0  0  0  3  0  0  0  0  0  0
   38.5990   28.7770   38.8100 C   0  0  0  0  0  0  0  0  0  0  0  0
   38.3200   28.5480   37.7380 H   0  0  0  0  0  0  0  0  0  0  0  0
   38.1240   27.9590   39.3840 H   0  0  0  0  0  0  0  0  0  0  0  0
   40.0790   28.8260   39.0050 C   0  0  0  0  0  0  0  0  0  0  0  0
   40.4490   29.6480   39.6310 H   0  0  0  0  0  0  0  0  0  0  0  0
   40.6030   28.6780   38.0510 H   0  0  0  0  0  0  0  0  0  0  0  0
   40.3490   27.8970   39.6000 H   0  0  0  0  0  0  0  0  0  0  0  0
  1  2  1  0  0  0  0
  2  3  2  0  0  0  0
  2 11  1  0  0  0  0
  3  7  1  0  0  0  0
  4  3  1  0  0  0  0
  5  4  2  0  0  0  0
  6  5  1  0  0  0  0
  6  1  2  0  0  0  0
  8  5  1  0  0  0  0
  9 10  1  0  0  0  0
 10 17  1  0  0  0  0
 11 12  1  0  0  0  0
 11 10  2  0  0  0  0
 12 14  2  0  0  0  0
 13 12  1  0  0  0  0
 14 15  1  0  0  0  0
 14 16  1  0  0  0  0
 17 16  2  0  0  0  0
 18 21  1  0  0  0  0
 18  1  1  0  0  0  0
 18 20  1  0  0  0  0
 19 18  1  0  0  0  0
 21 24  1  0  0  0  0
 21 22  1  0  0  0  0
 23 21  1  0  0  0  0
M  END
>  <minimizedAffinity>
-4.2748785

$$$$

 OpenBabel03252500533D

 24 25  0  0  0  0  0  0  0  0999 V2000
   38.0730   30.0500   39.0060 C   0  0  0  0  0  0  0  0  0  0  0  0
   37.7390   30.3300   40.3230 C   0  0  0  0  0  0  0  0  0  0  0  0
   37.2250   31.6190   40.6040 C   0  0  0  0  0  0  0  0  0  0  0  0
   37.0910   32.5020   39.5640 N   0  0  0  0  0  0  0  0  0  0  0  0
   37.4290   32.1760   38.3080 C   0  0  0  0  0  0  0  0  0  0  0  0
   37.9130   30.9680   38.0330 N   0  0  0  0  0  0  0  0  0  0  0  0
   36.9320   31.9490   41.5970 H   0  0  0  0  0  0  0  0  0  0  0  0
   37.3240   32.8750   37.4810 H   0  0  0  0  0  0  0  0  0  0  0  0
   35.2040   28.9000   40.6500 Cl  0  0  0  0  0  0  0  0  0  0  0  0
   36.6570   28.7320   41.6180 C   0  0  0  0  0  0  0  0  0  0  0  0
   37.8650   29.4270   41.4560 C   0  0  0  0  0  0  0  0  0  0  0  0
   38.8990   29.1470   42.3320 C   0  0  0  0  0  0  0  0  0  0  0  0
   39.7570   29.7590   42.0790 H   0  0  0  0  0  0  0  0  0  0  0  0
   38.7350   28.2120   43.3260 C   0  0  0  0  0  0  0  0  0  0  0  0
   39.6490   28.1210   43.9180 H   0  0  0  0  0  0  0  0  0  0  0  0
   37.5640   27.5260   43.4970 C   0  0  0  0  0  3  0  0  0  0  0  0
   36.5170   27.7840   42.6400 C   0  0  0  0  0  3  0  0  0  0  0  0
   38.6290   28.7500   38.6720 C   0  0  0  0  0  0  0  0  0  0  0  0
   38.9990   28.3140   39.6480 H   0  0  0  0  0  0  0  0  0  0  0  0
   39.5470   28.8360   38.0590 H   0  0  0  0  0  0  0  0  0  0  0  0
   37.5930   27.8870   38.0290 C   0  0  0  0  0  0  0  0  0  0  0  0
   36.7300   28.4160   37.6060 H   0  0  0  0  0  0  0  0  0  0  0  0
   37.3600   27.0200   38.6620 H   0  0  0  0  0  0  0  0  0  0  0  0
   38.0900   27.4220   37.1200 H   0  0  0  0  0  0  0  0  0  0  0  0
  1  2  1  0  0  0  0
  2  3  2  0  0  0  0
  2 11  1  0  0  0  0
  3  7  1  0  0  0  0
  4  3  1  0  0  0  0
  5  4  2  0  0  0  0
  6  5  1  0  0  0  0
  6  1  2  0  0  0  0
  8  5  1  0  0  0  0
  9 10  1  0  0  0  0
 10 17  1  0  0  0  0
 11 10  2  0  0  0  0
 11 12  1  0  0  0  0
 12 14  2  0  0  0  0
 13 12  1  0  0  0  0
 14 16  1  0  0  0  0
 14 15  1  0  0  0  0
 17 16  2  0  0  0  0
 18  1  1  0  0  0  0
 18 19  1  0  0  0  0
 20 18  1  0  0  0  0
 21 23  1  0  0  0  0
 21 18  1  0  0  0  0
 22 21  1  0  0  0  0
 24 21  1  0  0  0  0
M  END
>  <minimizedAffinity>
-4.24782419

$$$$

 OpenBabel03252500533D

 24 25  0  0  0  0  0  0  0  0999 V2000
   39.2730   31.0380   41.7250 C   0  0  0  0  0  0  0  0  0  0  0  0
   38.0410   30.4200   41.5640 C   0  0  0  0  0  0  0  0  0  0  0  0
   37.0460   31.1310   40.8500 C   0  0  0  0  0  0  0  0  0  0  0  0
   37.3610   32.3740   40.3670 N   0  0  0  0  0  0  0  0  0  0  0  0
   38.5710   32.9220   40.5520 C   0  0  0  0  0  0  0  0  0  0  0  0
   39.5120   32.2630   41.2210 N   0  0  0  0  0  0  0  0  0  0  0  0
   36.0470   30.7470   40.6640 H   0  0  0  0  0  0  0  0  0  0  0  0
   38.8230   33.9080   40.1690 H   0  0  0  0  0  0  0  0  0  0  0  0
   38.4320   28.4740   39.4110 Cl  0  0  0  0  0  0  0  0  0  0  0  0
   37.8520   28.1650   41.0370 C   0  0  0  0  0  0  0  0  0  0  0  0
   37.6620   29.1070   42.0600 C   0  0  0  0  0  0  0  0  0  0  0  0
   37.1920   28.6560   43.2810 C   0  0  0  0  0  0  0  0  0  0  0  0
   37.0990   29.4950   43.9600 H   0  0  0  0  0  0  0  0  0  0  0  0
   36.9230   27.3210   43.4730 C   0  0  0  0  0  0  0  0  0  0  0  0
   36.5640   27.1480   44.4900 H   0  0  0  0  0  0  0  0  0  0  0  0
   37.1030   26.3910   42.4860 C   0  0  0  0  0  3  0  0  0  0  0  0
   37.5700   26.8110   41.2610 C   0  0  0  0  0  3  0  0  0  0  0  0
   40.3180   30.3600   42.4740 C   0  0  0  0  0  0  0  0  0  0  0  0
   39.7880   29.5930   43.1150 H   0  0  0  0  0  0  0  0  0  0  0  0
   40.8000   31.0290   43.2120 H   0  0  0  0  0  0  0  0  0  0  0  0
   41.3030   29.7310   41.5450 C   0  0  0  0  0  0  0  0  0  0  0  0
   41.3100   30.1250   40.5210 H   0  0  0  0  0  0  0  0  0  0  0  0
   41.2800   28.6360   41.6360 H   0  0  0  0  0  0  0  0  0  0  0  0
   42.3300   30.0050   41.9420 H   0  0  0  0  0  0  0  0  0  0  0  0
  1 18  1  0  0  0  0
  2  1  1  0  0  0  0
  2 11  1  0  0  0  0
  3  2  2  0  0  0  0
  4  5  2  0  0  0  0
  4  3  1  0  0  0  0
  5  6  1  0  0  0  0
  6  1  2  0  0  0  0
  7  3  1  0  0  0  0
  8  5  1  0  0  0  0
  9 10  1  0  0  0  0
 10 17  2  0  0  0  0
 10 11  1  0  0  0  0
 11 12  2  0  0  0  0
 12 14  1  0  0  0  0
 12 13  1  0  0  0  0
 14 15  1  0  0  0  0
 16 14  2  0  0  0  0
 17 16  1  0  0  0  0
 18 19  1  0  0  0  0
 18 20  1  0  0  0  0
 21 23  1  0  0  0  0
 21 24  1  0  0  0  0
 21 18  1  0  0  0  0
 22 21  1  0  0  0  0
M  END
>  <minimizedAffinity>
-4.24422359

$$$$
