
 OpenBabel03242521013D

 27 29  0  0  0  0  0  0  0  0999 V2000
   46.8040   34.8320   42.1160 C   0  0  0  0  0  0  0  0  0  0  0  0
   48.0440   35.4220   41.9520 C   0  0  0  0  0  0  0  0  0  0  0  0
   48.8200   35.3210   40.8120 C   0  0  0  0  0  0  0  0  0  0  0  0
   48.3200   34.5740   39.7510 C   0  0  0  0  0  0  0  0  0  0  0  0
   47.0940   34.0020   39.9380 C   0  0  0  0  0  0  0  0  0  0  0  0
   46.3950   34.1340   41.0560 N   0  0  0  0  0  0  0  0  0  0  0  0
   48.4750   36.0150   42.7520 H   0  0  0  0  0  0  0  0  0  0  0  0
   49.7900   35.8110   40.7470 H   0  0  0  0  0  0  0  0  0  0  0  0
   48.9260   34.4950   38.8610 H   0  0  0  0  0  0  0  0  0  0  0  0
   44.4500   35.9430   44.8420 C   0  0  0  0  0  0  0  0  0  0  0  0
   45.1170   35.9670   43.6120 C   0  0  0  0  0  0  0  0  0  0  0  0
   46.0240   34.9610   43.3320 C   0  0  0  0  0  0  0  0  0  0  0  0
   46.2110   34.0030   44.2810 N   0  0  0  0  0  0  0  0  0  0  0  0
   45.5650   33.9890   45.4600 C   0  0  0  0  0  0  0  0  0  0  0  0
   44.6800   34.9760   45.7260 N   0  0  0  0  0  0  0  0  0  0  0  0
   43.7600   36.7810   44.9570 H   0  0  0  0  0  0  0  0  0  0  0  0
   45.0080   36.6950   42.8300 H   0  0  0  0  0  0  0  0  0  0  0  0
   45.7570   33.1980   46.1770 H   0  0  0  0  0  0  0  0  0  0  0  0
   48.1480   34.5610   37.2020 Cl  0  0  0  0  0  0  0  0  0  0  0  0
   46.8980   33.3530   37.5420 C   0  0  0  0  0  0  0  0  0  0  0  0
   46.5050   33.2030   38.8680 C   0  0  0  0  0  0  0  0  0  0  0  0
   45.5340   32.2430   39.0230 C   0  0  0  0  0  0  0  0  0  0  0  0
   45.1580   32.0480   40.0170 H   0  0  0  0  0  0  0  0  0  0  0  0
   45.0140   31.5160   37.9730 C   0  0  0  0  0  0  0  0  0  0  0  0
   44.2370   30.7650   38.1830 H   0  0  0  0  0  0  0  0  0  0  0  0
   45.4520   31.7230   36.6990 C   0  0  0  0  0  0  0  0  0  0  0  0
   46.4230   32.6650   36.4580 C   0  0  0  0  0  0  0  0  0  0  0  0
  1 12  1  0  0  0  0
  2  1  1  0  0  0  0
  2  7  1  0  0  0  0
  3  2  2  0  0  0  0
  4  5  2  0  0  0  0
  4  3  1  0  0  0  0
  5  6  1  0  0  0  0
  6  1  2  0  0  0  0
  8  3  1  0  0  0  0
  9  4  1  0  0  0  0
 10 16  1  0  0  0  0
 10 15  1  0  0  0  0
 11 10  2  0  0  0  0
 12 11  1  0  0  0  0
 12 13  2  0  0  0  0
 13 14  1  0  0  0  0
 14 15  2  0  0  0  0
 14 18  1  0  0  0  0
 17 11  1  0  0  0  0
 19 20  1  0  0  0  0
 20 21  1  0  0  0  0
 21 22  2  0  0  0  0
 21  5  1  0  0  0  0
 22 23  1  0  0  0  0
 24 25  1  0  0  0  0
 24 22  1  0  0  0  0
 26 24  2  0  0  0  0
 27 26  1  0  0  0  0
 27 20  2  0  0  0  0
M  END
>  <minimizedAffinity>
-5.87479162

>  <minimizedRMSD>
0.438480705

$$$$
