
 OpenBabel03252505183D

 34 37  0  0  0  0  0  0  0  0999 V2000
   46.1410   32.6900   47.0710 C   0  0  0  0  0  0  0  0  0  0  0  0
   45.0310   32.4210   47.8280 C   0  0  0  0  0  0  0  0  0  0  0  0
   45.1400   31.6310   48.9510 C   0  0  0  0  0  0  0  0  0  0  0  0
   46.3840   31.1360   49.2700 C   0  0  0  0  0  0  0  0  0  0  0  0
   47.4870   31.4230   48.4870 C   0  0  0  0  0  0  0  0  0  0  0  0
   47.3460   32.2090   47.3830 N   0  0  0  0  0  0  0  0  0  0  0  0
   44.0570   32.8120   47.5740 H   0  0  0  0  0  0  0  0  0  0  0  0
   44.2860   31.3920   49.5830 H   0  0  0  0  0  0  0  0  0  0  0  0
   46.4640   30.5480   50.1390 H   0  0  0  0  0  0  0  0  0  0  0  0
   48.6400   28.7270   47.3200 Cl  0  0  0  0  0  0  0  0  0  0  0  0
   49.5020   29.8660   48.3160 C   0  0  0  0  0  0  0  0  0  0  0  0
   48.8510   30.9820   48.7280 C   0  0  0  0  0  0  0  0  0  0  0  0
   49.6980   31.8010   49.4780 C   0  0  0  0  0  0  0  0  0  0  0  0
   49.3570   32.7570   49.9040 H   0  0  0  0  0  0  0  0  0  0  0  0
   51.0060   31.5260   49.7670 C   0  0  0  0  0  0  0  0  0  0  0  0
   51.6170   32.1920   50.3530 H   0  0  0  0  0  0  0  0  0  0  0  0
   51.5780   30.3800   49.3130 C   0  0  0  0  0  0  0  0  0  0  0  0
   50.8040   29.5370   48.5720 C   0  0  0  0  0  0  0  0  0  0  0  0
   44.9110   35.1450   44.6200 C   0  0  0  0  0  0  0  0  0  0  0  0
   45.7970   35.0240   43.5510 C   0  0  0  0  0  0  0  0  0  0  0  0
   46.8070   34.1030   43.7000 C   0  0  0  0  0  0  0  0  0  0  0  0
   46.9140   33.3540   44.8520 N   0  0  0  0  0  0  0  0  0  0  0  0
   46.0120   33.5140   45.8740 C   0  0  0  0  0  0  0  0  0  0  0  0
   45.0200   34.4090   45.7490 N   0  0  0  0  0  0  0  0  0  0  0  0
   44.0860   35.8600   44.5700 H   0  0  0  0  0  0  0  0  0  0  0  0
   45.7010   35.6110   42.6640 H   0  0  0  0  0  0  0  0  0  0  0  0
   47.8050   33.8590   42.6010 C   0  0  0  0  0  0  0  0  0  0  0  0
   48.0290   35.0980   41.7320 C   0  0  0  0  0  0  0  0  0  0  0  0
   49.1040   34.4770   42.6820 C   0  0  0  0  0  0  0  0  0  0  0  0
   47.6310   32.9450   41.9660 H   0  0  0  0  0  0  0  0  0  0  0  0
   47.5910   36.0520   42.0450 H   0  0  0  0  0  0  0  0  0  0  0  0
   48.2720   34.9580   40.6610 H   0  0  0  0  0  0  0  0  0  0  0  0
   49.3980   35.1470   43.4940 H   0  0  0  0  0  0  0  0  0  0  0  0
   49.9470   33.9470   42.1950 H   0  0  0  0  0  0  0  0  0  0  0  0
  1  6  2  0  0  0  0
  1  2  1  0  0  0  0
  2  3  2  0  0  0  0
  3  4  1  0  0  0  0
  3  8  1  0  0  0  0
  4  9  1  0  0  0  0
  5 12  1  0  0  0  0
  5  4  2  0  0  0  0
  6  5  1  0  0  0  0
  7  2  1  0  0  0  0
 10 11  1  0  0  0  0
 11 18  2  0  0  0  0
 11 12  1  0  0  0  0
 12 13  2  0  0  0  0
 13 15  1  0  0  0  0
 13 14  1  0  0  0  0
 15 16  1  0  0  0  0
 17 15  2  0  0  0  0
 18 17  1  0  0  0  0
 19 24  1  0  0  0  0
 20 21  1  0  0  0  0
 20 19  2  0  0  0  0
 21 22  2  0  0  0  0
 22 23  1  0  0  0  0
 23  1  1  0  0  0  0
 24 23  2  0  0  0  0
 25 19  1  0  0  0  0
 26 20  1  0  0  0  0
 27 29  1  0  0  0  0
 27 21  1  0  0  0  0
 28 31  1  0  0  0  0
 28 27  1  0  0  0  0
 28 29  1  0  0  0  0
 29 33  1  0  0  0  0
 30 27  1  0  0  0  0
 32 28  1  0  0  0  0
 34 29  1  0  0  0  0
M  END
>  <minimizedAffinity>
-6.49369335

>  <minimizedRMSD>
1.63479853

$$$$
