
 OpenBabel03252508293D

 39 42  0  0  1  0  0  0  0  0999 V2000
   42.0160   31.5990   40.1340 N   0  0  0  0  0  0  0  0  0  0  0  0
   42.6290   30.9700   41.3080 C   0  0  2  0  0  0  0  0  0  0  0  0
   41.7010   30.8710   42.4580 C   0  0  0  0  0  0  0  0  0  0  0  0
   40.3310   31.2170   42.1160 N   0  0  0  0  0  0  0  0  0  0  0  0
   40.1660   32.4090   41.3690 C   0  0  0  0  0  0  0  0  0  0  0  0
   41.4250   32.8460   40.6690 C   0  0  2  0  0  0  0  0  0  0  0  0
   42.8150   31.9300   39.5460 H   0  0  0  0  0  0  0  0  0  0  0  0
   43.0430   29.9800   40.9740 H   0  0  0  0  0  0  0  0  0  0  0  0
   41.8720   31.5220   43.3220 H   0  0  0  0  0  0  0  0  0  0  0  0
   41.6500   29.7870   42.7500 H   0  0  0  0  0  0  0  0  0  0  0  0
   39.7680   31.1510   42.9830 H   0  0  0  0  0  0  0  0  0  0  0  0
   39.4320   32.1810   40.5480 H   0  0  0  0  0  0  0  0  0  0  0  0
   39.7210   33.2620   41.9250 H   0  0  0  0  0  0  0  0  0  0  0  0
   42.1070   33.2350   41.4520 H   0  0  0  0  0  0  0  0  0  0  0  0
   43.0770   35.4140   40.8830 Cl  0  0  0  0  0  0  0  0  0  0  0  0
   41.8950   35.0500   39.6410 C   0  0  0  0  0  0  0  0  0  0  0  0
   41.2020   33.8560   39.6360 C   0  0  0  0  0  0  0  0  0  0  0  0
   40.2730   33.5950   38.6420 C   0  0  0  0  0  0  0  0  0  0  0  0
   39.7160   32.6640   38.6160 H   0  0  0  0  0  0  0  0  0  0  0  0
   40.0140   34.4990   37.6430 C   0  0  0  0  0  0  0  0  0  0  0  0
   39.2920   34.3240   36.8490 H   0  0  0  0  0  0  0  0  0  0  0  0
   40.6930   35.7170   37.6120 C   0  0  0  0  0  3  0  0  0  0  0  0
   41.6170   35.9350   38.6320 C   0  0  0  0  0  3  0  0  0  0  0  0
   45.5570   33.0470   41.6390 C   0  0  0  0  0  0  0  0  0  0  0  0
   45.2390   32.6980   42.9570 C   0  0  0  0  0  0  0  0  0  0  0  0
   44.1220   31.8830   42.9720 C   0  0  0  0  0  0  0  0  0  0  0  0
   43.7890   31.7580   41.6900 N   0  0  0  0  0  0  0  0  0  0  0  0
   44.6240   32.4350   40.9120 N   0  0  0  0  0  0  0  0  0  0  0  0
   45.8720   33.0860   43.7630 H   0  0  0  0  0  0  0  0  0  0  0  0
   43.8730   31.6020   43.9890 H   0  0  0  0  0  0  0  0  0  0  0  0
   48.4340   35.4710   41.5840 C   0  0  0  0  0  0  0  0  0  0  0  0
   47.3400   34.7200   42.1210 C   0  0  0  0  0  0  0  0  0  0  0  0
   46.6880   33.8880   41.2460 C   0  0  0  0  0  0  0  0  0  0  0  0
   47.0960   33.8140   39.9500 N   0  0  0  0  0  0  0  0  0  0  0  0
   48.1310   34.5340   39.4710 C   0  0  0  0  0  0  0  0  0  0  0  0
   48.7820   35.3520   40.3090 N   0  0  0  0  0  0  0  0  0  0  0  0
   48.9380   36.1230   42.2870 H   0  0  0  0  0  0  0  0  0  0  0  0
   47.0060   34.7680   43.1430 H   0  0  0  0  0  0  0  0  0  0  0  0
   48.3570   34.3860   38.4210 H   0  0  0  0  0  0  0  0  0  0  0  0
  1  6  1  0  0  0  0
  1  2  1  0  0  0  0
  2  8  1  6  0  0  0
  2 27  1  0  0  0  0
  2  3  1  0  0  0  0
  3 10  1  0  0  0  0
  3  9  1  0  0  0  0
  4  3  1  0  0  0  0
  4 11  1  0  0  0  0
  5 13  1  0  0  0  0
  5  4  1  0  0  0  0
  6  5  1  0  0  0  0
  6 14  1  1  0  0  0
  7  1  1  0  0  0  0
 12  5  1  0  0  0  0
 16 15  1  0  0  0  0
 17 16  1  0  0  0  0
 17  6  1  0  0  0  0
 18 17  2  0  0  0  0
 19 18  1  0  0  0  0
 20 18  1  0  0  0  0
 21 20  1  0  0  0  0
 22 20  2  0  0  0  0
 22 23  1  0  0  0  0
 23 16  2  0  0  0  0
 24 25  1  0  0  0  0
 25 26  2  0  0  0  0
 25 29  1  0  0  0  0
 26 30  1  0  0  0  0
 27 26  1  0  0  0  0
 28 24  2  0  0  0  0
 28 27  1  0  0  0  0
 31 32  1  0  0  0  0
 31 37  1  0  0  0  0
 32 38  1  0  0  0  0
 33 24  1  0  0  0  0
 33 32  2  0  0  0  0
 34 33  1  0  0  0  0
 35 34  2  0  0  0  0
 35 36  1  0  0  0  0
 36 31  2  0  0  0  0
 39 35  1  0  0  0  0
M  END
>  <minimizedAffinity>
-5.35498571

>  <minimizedRMSD>
3.09763646

$$$$
