
 OpenBabel03252500533D

 24 25  0  0  0  0  0  0  0  0999 V2000
   47.4870   32.1830   43.5670 C   0  0  0  0  0  0  0  0  0  0  0  0
   47.0800   33.3220   42.8870 C   0  0  0  0  0  0  0  0  0  0  0  0
   46.3410   34.2860   43.6150 C   0  0  0  0  0  0  0  0  0  0  0  0
   46.0780   34.0350   44.9370 N   0  0  0  0  0  0  0  0  0  0  0  0
   46.4990   32.9160   45.5440 C   0  0  0  0  0  0  0  0  0  0  0  0
   47.1920   32.0040   44.8700 N   0  0  0  0  0  0  0  0  0  0  0  0
   45.9710   35.2130   43.1860 H   0  0  0  0  0  0  0  0  0  0  0  0
   46.2910   32.7150   46.5930 H   0  0  0  0  0  0  0  0  0  0  0  0
   45.0210   32.0120   41.2670 Cl  0  0  0  0  0  0  0  0  0  0  0  0
   46.3480   33.0090   40.7030 C   0  0  0  0  0  0  0  0  0  0  0  0
   47.3330   33.6280   41.4880 C   0  0  0  0  0  0  0  0  0  0  0  0
   48.3020   34.3790   40.8450 C   0  0  0  0  0  0  0  0  0  0  0  0
   48.9840   34.7880   41.5800 H   0  0  0  0  0  0  0  0  0  0  0  0
   48.2860   34.5070   39.4760 C   0  0  0  0  0  0  0  0  0  0  0  0
   49.1190   35.1320   39.1430 H   0  0  0  0  0  0  0  0  0  0  0  0
   47.3330   33.9110   38.6970 C   0  0  0  0  0  0  0  0  0  0  0  0
   46.3570   33.1580   39.3100 C   0  0  0  0  0  0  0  0  0  0  0  0
   48.2230   31.1520   42.8560 C   0  0  0  0  0  0  0  0  0  0  0  0
   47.7970   31.1360   41.8090 H   0  0  0  0  0  0  0  0  0  0  0  0
   48.0010   30.1400   43.2450 H   0  0  0  0  0  0  0  0  0  0  0  0
   49.6860   31.4560   42.8620 C   0  0  0  0  0  0  0  0  0  0  0  0
   50.0220   32.1610   43.6330 H   0  0  0  0  0  0  0  0  0  0  0  0
   50.0460   31.6540   41.8430 H   0  0  0  0  0  0  0  0  0  0  0  0
   50.2070   30.4880   43.1410 H   0  0  0  0  0  0  0  0  0  0  0  0
  1  6  1  0  0  0  0
  2  1  2  0  0  0  0
  2  3  1  0  0  0  0
  3  4  2  0  0  0  0
  4  5  1  0  0  0  0
  5  8  1  0  0  0  0
  6  5  2  0  0  0  0
  7  3  1  0  0  0  0
 10  9  1  0  0  0  0
 10 11  1  0  0  0  0
 11  2  1  0  0  0  0
 12 11  2  0  0  0  0
 12 13  1  0  0  0  0
 14 12  1  0  0  0  0
 15 14  1  0  0  0  0
 16 17  1  0  0  0  0
 16 14  2  0  0  0  0
 17 10  2  0  0  0  0
 18 21  1  0  0  0  0
 18 20  1  0  0  0  0
 18  1  1  0  0  0  0
 19 18  1  0  0  0  0
 21 24  1  0  0  0  0
 21 22  1  0  0  0  0
 23 21  1  0  0  0  0
M  END
>  <minimizedAffinity>
-3.18971801

>  <minimizedRMSD>
2.269063

$$$$
