
 OpenBabel03252501023D

 25 27  0  0  1  0  0  0  0  0999 V2000
   37.3430   27.8320   42.4380 C   0  0  1  0  0  0  0  0  0  0  0  0
   37.5620   28.6720   43.6790 C   0  0  0  0  0  0  0  0  0  0  0  0
   38.2380   28.9850   42.3500 C   0  0  2  0  0  0  0  0  0  0  0  0
   36.3180   27.8610   42.0130 H   0  0  0  0  0  0  0  0  0  0  0  0
   36.6720   29.1910   44.0150 H   0  0  0  0  0  0  0  0  0  0  0  0
   38.1730   28.2490   44.5090 H   0  0  0  0  0  0  0  0  0  0  0  0
   39.3520   28.7820   42.3970 H   0  0  0  0  0  0  0  0  0  0  0  0
   38.0590   24.1510   42.0650 C   0  0  0  0  0  0  0  0  0  0  0  0
   37.3650   25.3670   41.9300 C   0  0  0  0  0  0  0  0  0  0  0  0
   37.9690   26.4680   42.5340 C   0  0  0  0  0  0  0  0  0  0  0  0
   39.1610   26.3150   43.2020 N   0  0  0  0  0  0  0  0  0  0  0  0
   39.7860   25.1190   43.3010 C   0  0  0  0  0  0  0  0  0  0  0  0
   39.2200   24.0460   42.7260 N   0  0  0  0  0  0  0  0  0  0  0  0
   37.6400   23.2590   41.6190 H   0  0  0  0  0  0  0  0  0  0  0  0
   36.4390   25.4610   41.4060 H   0  0  0  0  0  0  0  0  0  0  0  0
   40.7030   25.2210   43.8640 H   0  0  0  0  0  0  0  0  0  0  0  0
   35.5370   29.3400   40.7980 Cl  0  0  0  0  0  0  0  0  0  0  0  0
   36.8250   30.5200   40.8180 C   0  0  0  0  0  0  0  0  0  0  0  0
   37.9150   30.1720   41.5680 C   0  0  0  0  0  0  0  0  0  0  0  0
   38.9540   31.1110   41.6080 C   0  0  0  0  0  0  0  0  0  0  0  0
   39.8890   31.0130   42.1440 H   0  0  0  0  0  0  0  0  0  0  0  0
   38.8710   32.3190   40.9220 C   0  0  0  0  0  0  0  0  0  0  0  0
   39.6520   33.0660   40.9290 H   0  0  0  0  0  0  0  0  0  0  0  0
   37.7560   32.6370   40.1740 C   0  0  0  0  0  3  0  0  0  0  0  0
   36.7390   31.7100   40.1400 C   0  0  0  0  0  3  0  0  0  0  0  0
  1  4  1  6  0  0  0
  1 10  1  0  0  0  0
  1  2  1  0  0  0  0
  2  5  1  0  0  0  0
  2  6  1  0  0  0  0
  3  7  1  6  0  0  0
  3  1  1  0  0  0  0
  3  2  1  0  0  0  0
  8 13  1  0  0  0  0
  9  8  2  0  0  0  0
  9 10  1  0  0  0  0
 10 11  2  0  0  0  0
 11 12  1  0  0  0  0
 12 16  1  0  0  0  0
 13 12  2  0  0  0  0
 14  8  1  0  0  0  0
 15  9  1  0  0  0  0
 17 18  1  0  0  0  0
 18 19  1  0  0  0  0
 19 20  2  0  0  0  0
 19  3  1  0  0  0  0
 20 21  1  0  0  0  0
 22 23  1  0  0  0  0
 22 20  1  0  0  0  0
 24 22  2  0  0  0  0
 25 24  1  0  0  0  0
 25 18  2  0  0  0  0
M  END
>  <minimizedAffinity>
-4.98489761

$$$$

 OpenBabel03252501023D

 25 27  0  0  1  0  0  0  0  0999 V2000
   37.5960   29.0120   42.2220 C   0  0  1  0  0  0  0  0  0  0  0  0
   36.3410   28.3050   41.7560 C   0  0  0  0  0  0  0  0  0  0  0  0
   37.7370   27.8130   41.3980 C   0  0  2  0  0  0  0  0  0  0  0  0
   37.7830   28.9880   43.3150 H   0  0  0  0  0  0  0  0  0  0  0  0
   35.7610   27.8730   42.5630 H   0  0  0  0  0  0  0  0  0  0  0  0
   35.7190   28.7860   40.9660 H   0  0  0  0  0  0  0  0  0  0  0  0
   37.9570   27.9630   40.2960 H   0  0  0  0  0  0  0  0  0  0  0  0
   37.0810   32.1880   40.2610 C   0  0  0  0  0  0  0  0  0  0  0  0
   36.7790   30.9300   40.8120 C   0  0  0  0  0  0  0  0  0  0  0  0
   37.8010   30.3450   41.5560 C   0  0  0  0  0  0  0  0  0  0  0  0
   39.0000   31.0000   41.7060 N   0  0  0  0  0  0  0  0  0  0  0  0
   39.2370   32.2120   41.1530 C   0  0  0  0  0  0  0  0  0  0  0  0
   38.2650   32.7920   40.4320 N   0  0  0  0  0  0  0  0  0  0  0  0
   36.3270   32.6940   39.6710 H   0  0  0  0  0  0  0  0  0  0  0  0
   35.8380   30.4400   40.6810 H   0  0  0  0  0  0  0  0  0  0  0  0
   40.2370   32.5450   41.3930 H   0  0  0  0  0  0  0  0  0  0  0  0
   36.8070   24.9870   40.4090 Cl  0  0  0  0  0  0  0  0  0  0  0  0
   38.0180   25.2510   41.6400 C   0  0  0  0  0  0  0  0  0  0  0  0
   38.2840   26.5650   41.9150 C   0  0  0  0  0  0  0  0  0  0  0  0
   39.2620   26.7990   42.8910 C   0  0  0  0  0  0  0  0  0  0  0  0
   39.6040   27.7640   43.2400 H   0  0  0  0  0  0  0  0  0  0  0  0
   39.9150   25.7510   43.5340 C   0  0  0  0  0  0  0  0  0  0  0  0
   40.6720   25.8930   44.2910 H   0  0  0  0  0  0  0  0  0  0  0  0
   39.6210   24.4370   43.2310 C   0  0  0  0  0  3  0  0  0  0  0  0
   38.6590   24.2160   42.2720 C   0  0  0  0  0  3  0  0  0  0  0  0
  1  4  1  1  0  0  0
  2  1  1  0  0  0  0
  2  5  1  0  0  0  0
  3  7  1  6  0  0  0
  3  2  1  0  0  0  0
  3 19  1  0  0  0  0
  3  1  1  0  0  0  0
  6  2  1  0  0  0  0
  8 13  2  0  0  0  0
  8  9  1  0  0  0  0
  9 10  2  0  0  0  0
 10 11  1  0  0  0  0
 10  1  1  0  0  0  0
 12 16  1  0  0  0  0
 12 11  2  0  0  0  0
 13 12  1  0  0  0  0
 14  8  1  0  0  0  0
 15  9  1  0  0  0  0
 17 18  1  0  0  0  0
 18 19  2  0  0  0  0
 18 25  1  0  0  0  0
 19 20  1  0  0  0  0
 20 21  1  0  0  0  0
 20 22  2  0  0  0  0
 22 23  1  0  0  0  0
 24 22  1  0  0  0  0
 25 24  2  0  0  0  0
M  END
>  <minimizedAffinity>
-4.8539505

$$$$

 OpenBabel03252501023D

 25 27  0  0  1  0  0  0  0  0999 V2000
   36.6400   29.3600   41.1700 C   0  0  1  0  0  0  0  0  0  0  0  0
   35.4640   29.1910   40.2310 C   0  0  0  0  0  0  0  0  0  0  0  0
   36.7250   28.3430   40.1230 C   0  0  2  0  0  0  0  0  0  0  0  0
   36.4530   29.0860   42.2280 H   0  0  0  0  0  0  0  0  0  0  0  0
   34.5650   28.8360   40.7210 H   0  0  0  0  0  0  0  0  0  0  0  0
   35.2750   29.9770   39.4640 H   0  0  0  0  0  0  0  0  0  0  0  0
   37.3180   28.6040   39.1930 H   0  0  0  0  0  0  0  0  0  0  0  0
   37.5990   32.8400   40.0880 C   0  0  0  0  0  0  0  0  0  0  0  0
   36.8190   31.6750   40.1980 C   0  0  0  0  0  0  0  0  0  0  0  0
   37.3840   30.6490   40.9520 C   0  0  0  0  0  0  0  0  0  0  0  0
   38.6220   30.8220   41.5260 N   0  0  0  0  0  0  0  0  0  0  0  0
   39.3290   31.9670   41.3870 C   0  0  0  0  0  0  0  0  0  0  0  0
   38.8020   32.9670   40.6640 N   0  0  0  0  0  0  0  0  0  0  0  0
   37.2140   33.6730   39.5140 H   0  0  0  0  0  0  0  0  0  0  0  0
   35.8590   31.5640   39.7430 H   0  0  0  0  0  0  0  0  0  0  0  0
   40.2700   31.8920   41.9150 H   0  0  0  0  0  0  0  0  0  0  0  0
   36.0510   26.1460   37.9910 Cl  0  0  0  0  0  0  0  0  0  0  0  0
   36.4660   25.8110   39.6540 C   0  0  0  0  0  0  0  0  0  0  0  0
   36.7360   26.9150   40.4150 C   0  0  0  0  0  0  0  0  0  0  0  0
   37.0830   26.6670   41.7500 C   0  0  0  0  0  0  0  0  0  0  0  0
   37.3290   27.4080   42.4990 H   0  0  0  0  0  0  0  0  0  0  0  0
   37.1470   25.3730   42.2580 C   0  0  0  0  0  0  0  0  0  0  0  0
   37.4100   25.1430   43.2800 H   0  0  0  0  0  0  0  0  0  0  0  0
   36.8680   24.2810   41.4610 C   0  0  0  0  0  3  0  0  0  0  0  0
   36.5270   24.5330   40.1510 C   0  0  0  0  0  3  0  0  0  0  0  0
  1  4  1  1  0  0  0
  2  5  1  0  0  0  0
  2  1  1  0  0  0  0
  3  7  1  6  0  0  0
  3  2  1  0  0  0  0
  3 19  1  0  0  0  0
  3  1  1  0  0  0  0
  6  2  1  0  0  0  0
  8  9  2  0  0  0  0
  8 13  1  0  0  0  0
  9 10  1  0  0  0  0
 10  1  1  0  0  0  0
 10 11  2  0  0  0  0
 12 11  1  0  0  0  0
 12 16  1  0  0  0  0
 13 12  2  0  0  0  0
 14  8  1  0  0  0  0
 15  9  1  0  0  0  0
 17 18  1  0  0  0  0
 18 25  2  0  0  0  0
 18 19  1  0  0  0  0
 19 20  2  0  0  0  0
 20 22  1  0  0  0  0
 20 21  1  0  0  0  0
 22 23  1  0  0  0  0
 24 22  2  0  0  0  0
 25 24  1  0  0  0  0
M  END
>  <minimizedAffinity>
-4.83430576

$$$$

 OpenBabel03252501023D

 25 27  0  0  1  0  0  0  0  0999 V2000
   38.4370   31.8690   40.7780 C   0  0  1  0  0  0  0  0  0  0  0  0
   37.0300   31.8820   40.2190 C   0  0  0  0  0  0  0  0  0  0  0  0
   37.8320   30.5980   40.3830 C   0  0  2  0  0  0  0  0  0  0  0  0
   38.5330   32.1570   41.8450 H   0  0  0  0  0  0  0  0  0  0  0  0
   36.2800   32.1950   40.9370 H   0  0  0  0  0  0  0  0  0  0  0  0
   36.8660   32.2880   39.1950 H   0  0  0  0  0  0  0  0  0  0  0  0
   38.1330   30.1690   39.3780 H   0  0  0  0  0  0  0  0  0  0  0  0
   41.0670   34.1010   39.2610 C   0  0  0  0  0  0  0  0  0  0  0  0
   40.1310   33.6390   40.2040 C   0  0  0  0  0  0  0  0  0  0  0  0
   39.4450   32.4810   39.8450 C   0  0  0  0  0  0  0  0  0  0  0  0
   39.7090   31.8740   38.6390 N   0  0  0  0  0  0  0  0  0  0  0  0
   40.6210   32.3620   37.7690 C   0  0  0  0  0  0  0  0  0  0  0  0
   41.2930   33.4780   38.0950 N   0  0  0  0  0  0  0  0  0  0  0  0
   41.6310   34.9970   39.4810 H   0  0  0  0  0  0  0  0  0  0  0  0
   39.9430   34.1280   41.1350 H   0  0  0  0  0  0  0  0  0  0  0  0
   40.6720   31.7370   36.8880 H   0  0  0  0  0  0  0  0  0  0  0  0
   35.5280   28.5260   39.9080 Cl  0  0  0  0  0  0  0  0  0  0  0  0
   36.5120   28.5920   41.3490 C   0  0  0  0  0  0  0  0  0  0  0  0
   37.4700   29.5670   41.3490 C   0  0  0  0  0  0  0  0  0  0  0  0
   38.2800   29.6290   42.4920 C   0  0  0  0  0  0  0  0  0  0  0  0
   39.0850   30.3280   42.6720 H   0  0  0  0  0  0  0  0  0  0  0  0
   38.1080   28.7460   43.5550 C   0  0  0  0  0  0  0  0  0  0  0  0
   38.7110   28.7640   44.4500 H   0  0  0  0  0  0  0  0  0  0  0  0
   37.1290   27.7740   43.5200 C   0  0  0  0  0  3  0  0  0  0  0  0
   36.3390   27.7200   42.3950 C   0  0  0  0  0  3  0  0  0  0  0  0
  1  4  1  1  0  0  0
  2  3  1  0  0  0  0
  2  1  1  0  0  0  0
  2  5  1  0  0  0  0
  3  7  1  6  0  0  0
  3  1  1  0  0  0  0
  3 19  1  0  0  0  0
  6  2  1  0  0  0  0
  8 14  1  0  0  0  0
  8  9  1  0  0  0  0
  9 15  1  0  0  0  0
 10  9  2  0  0  0  0
 10  1  1  0  0  0  0
 11 10  1  0  0  0  0
 12 13  1  0  0  0  0
 12 11  2  0  0  0  0
 13  8  2  0  0  0  0
 16 12  1  0  0  0  0
 17 18  1  0  0  0  0
 18 19  2  0  0  0  0
 18 25  1  0  0  0  0
 19 20  1  0  0  0  0
 20 21  1  0  0  0  0
 20 22  2  0  0  0  0
 22 23  1  0  0  0  0
 24 22  1  0  0  0  0
 25 24  2  0  0  0  0
M  END
>  <minimizedAffinity>
-4.81586456

$$$$

 OpenBabel03252501023D

 25 27  0  0  1  0  0  0  0  0999 V2000
   36.8670   28.5570   41.7050 C   0  0  1  0  0  0  0  0  0  0  0  0
   37.6130   28.9010   42.9770 C   0  0  0  0  0  0  0  0  0  0  0  0
   38.1350   29.2760   41.5970 C   0  0  2  0  0  0  0  0  0  0  0  0
   35.8950   29.0730   41.5640 H   0  0  0  0  0  0  0  0  0  0  0  0
   37.0880   29.6060   43.6120 H   0  0  0  0  0  0  0  0  0  0  0  0
   38.1160   28.0810   43.5400 H   0  0  0  0  0  0  0  0  0  0  0  0
   39.0530   28.6710   41.3250 H   0  0  0  0  0  0  0  0  0  0  0  0
   37.0430   24.8060   42.0130 C   0  0  0  0  0  0  0  0  0  0  0  0
   37.0880   26.1520   42.4150 C   0  0  0  0  0  0  0  0  0  0  0  0
   36.8720   27.0840   41.4020 C   0  0  0  0  0  0  0  0  0  0  0  0
   36.6350   26.6560   40.1170 N   0  0  0  0  0  0  0  0  0  0  0  0
   36.6020   25.3450   39.7860 C   0  0  0  0  0  0  0  0  0  0  0  0
   36.8090   24.4320   40.7470 N   0  0  0  0  0  0  0  0  0  0  0  0
   37.2050   24.0340   42.7540 H   0  0  0  0  0  0  0  0  0  0  0  0
   37.2740   26.4610   43.4210 H   0  0  0  0  0  0  0  0  0  0  0  0
   36.4020   25.2300   38.7290 H   0  0  0  0  0  0  0  0  0  0  0  0
   40.4010   31.2520   42.4860 Cl  0  0  0  0  0  0  0  0  0  0  0  0
   39.0930   31.6730   41.4070 C   0  0  0  0  0  0  0  0  0  0  0  0
   38.2170   30.6580   41.1390 C   0  0  0  0  0  0  0  0  0  0  0  0
   37.1670   30.9720   40.2650 C   0  0  0  0  0  0  0  0  0  0  0  0
   36.3820   30.3040   39.9380 H   0  0  0  0  0  0  0  0  0  0  0  0
   37.0360   32.2420   39.7110 C   0  0  0  0  0  0  0  0  0  0  0  0
   36.2410   32.5210   39.0350 H   0  0  0  0  0  0  0  0  0  0  0  0
   37.9400   33.2430   40.0040 C   0  0  0  0  0  3  0  0  0  0  0  0
   38.9680   32.9270   40.8630 C   0  0  0  0  0  3  0  0  0  0  0  0
  1  4  1  6  0  0  0
  1  2  1  0  0  0  0
  2  6  1  0  0  0  0
  2  5  1  0  0  0  0
  3  7  1  6  0  0  0
  3  1  1  0  0  0  0
  3  2  1  0  0  0  0
  8  9  1  0  0  0  0
  8 14  1  0  0  0  0
  9 15  1  0  0  0  0
 10  1  1  0  0  0  0
 10  9  2  0  0  0  0
 11 10  1  0  0  0  0
 12 11  2  0  0  0  0
 12 13  1  0  0  0  0
 13  8  2  0  0  0  0
 16 12  1  0  0  0  0
 18 17  1  0  0  0  0
 19 18  1  0  0  0  0
 19  3  1  0  0  0  0
 20 19  2  0  0  0  0
 21 20  1  0  0  0  0
 22 24  2  0  0  0  0
 22 20  1  0  0  0  0
 23 22  1  0  0  0  0
 24 25  1  0  0  0  0
 25 18  2  0  0  0  0
M  END
>  <minimizedAffinity>
-4.70496416

$$$$

 OpenBabel03252501023D

 25 27  0  0  1  0  0  0  0  0999 V2000
   38.8310   30.1060   41.0740 C   0  0  1  0  0  0  0  0  0  0  0  0
   38.8300   29.9450   42.5800 C   0  0  0  0  0  0  0  0  0  0  0  0
   37.7740   29.3050   41.6890 C   0  0  2  0  0  0  0  0  0  0  0  0
   39.6800   29.6310   40.5410 H   0  0  0  0  0  0  0  0  0  0  0  0
   39.6830   29.3930   42.9580 H   0  0  0  0  0  0  0  0  0  0  0  0
   38.5470   30.8190   43.2100 H   0  0  0  0  0  0  0  0  0  0  0  0
   36.7630   29.7980   41.8280 H   0  0  0  0  0  0  0  0  0  0  0  0
   37.1000   33.0860   39.5510 C   0  0  0  0  0  0  0  0  0  0  0  0
   37.3340   31.7390   39.8810 C   0  0  0  0  0  0  0  0  0  0  0  0
   38.4820   31.5000   40.6320 C   0  0  0  0  0  0  0  0  0  0  0  0
   39.2930   32.5490   40.9970 N   0  0  0  0  0  0  0  0  0  0  0  0
   39.0190   33.8280   40.6520 C   0  0  0  0  0  0  0  0  0  0  0  0
   37.9180   34.0790   39.9270 N   0  0  0  0  0  0  0  0  0  0  0  0
   36.2240   33.3360   38.9670 H   0  0  0  0  0  0  0  0  0  0  0  0
   36.6890   30.9400   39.5850 H   0  0  0  0  0  0  0  0  0  0  0  0
   39.7800   34.4920   41.0380 H   0  0  0  0  0  0  0  0  0  0  0  0
   36.2580   27.4160   43.6800 Cl  0  0  0  0  0  0  0  0  0  0  0  0
   37.0860   26.8710   42.2420 C   0  0  0  0  0  0  0  0  0  0  0  0
   37.6740   27.8620   41.5050 C   0  0  0  0  0  0  0  0  0  0  0  0
   38.3330   27.4470   40.3390 C   0  0  0  0  0  0  0  0  0  0  0  0
   38.8530   28.0810   39.6340 H   0  0  0  0  0  0  0  0  0  0  0  0
   38.3790   26.1070   39.9660 C   0  0  0  0  0  0  0  0  0  0  0  0
   38.8770   25.7500   39.0770 H   0  0  0  0  0  0  0  0  0  0  0  0
   37.7740   25.1330   40.7350 C   0  0  0  0  0  3  0  0  0  0  0  0
   37.1290   25.5490   41.8770 C   0  0  0  0  0  3  0  0  0  0  0  0
  1  4  1  6  0  0  0
  1  3  1  0  0  0  0
  1  2  1  0  0  0  0
  2  5  1  0  0  0  0
  2  6  1  0  0  0  0
  3  7  1  1  0  0  0
  3  2  1  0  0  0  0
  8  9  2  0  0  0  0
  8 13  1  0  0  0  0
  9 10  1  0  0  0  0
 10 11  2  0  0  0  0
 10  1  1  0  0  0  0
 12 11  1  0  0  0  0
 12 16  1  0  0  0  0
 13 12  2  0  0  0  0
 14  8  1  0  0  0  0
 15  9  1  0  0  0  0
 18 17  1  0  0  0  0
 19  3  1  0  0  0  0
 19 18  2  0  0  0  0
 20 19  1  0  0  0  0
 21 20  1  0  0  0  0
 22 20  2  0  0  0  0
 22 24  1  0  0  0  0
 23 22  1  0  0  0  0
 24 25  2  0  0  0  0
 25 18  1  0  0  0  0
M  END
>  <minimizedAffinity>
-4.67486715

$$$$

 OpenBabel03252501023D

 25 27  0  0  1  0  0  0  0  0999 V2000
   35.7770   29.5190   38.7500 C   0  0  1  0  0  0  0  0  0  0  0  0
   34.4950   29.0890   39.4320 C   0  0  0  0  0  0  0  0  0  0  0  0
   35.8220   28.3760   39.6600 C   0  0  2  0  0  0  0  0  0  0  0  0
   36.1700   30.5120   39.0490 H   0  0  0  0  0  0  0  0  0  0  0  0
   34.1040   29.8240   40.1250 H   0  0  0  0  0  0  0  0  0  0  0  0
   33.7100   28.5850   38.8230 H   0  0  0  0  0  0  0  0  0  0  0  0
   35.8190   27.3420   39.1960 H   0  0  0  0  0  0  0  0  0  0  0  0
   36.8560   28.8540   35.2010 C   0  0  0  0  0  0  0  0  0  0  0  0
   36.9800   29.1500   36.5700 C   0  0  0  0  0  0  0  0  0  0  0  0
   35.7800   29.2350   37.2730 C   0  0  0  0  0  0  0  0  0  0  0  0
   34.5880   29.0330   36.6190 N   0  0  0  0  0  0  0  0  0  0  0  0
   34.5260   28.7500   35.2980 C   0  0  0  0  0  0  0  0  0  0  0  0
   35.6710   28.6640   34.6030 N   0  0  0  0  0  0  0  0  0  0  0  0
   37.7520   28.7750   34.6010 H   0  0  0  0  0  0  0  0  0  0  0  0
   37.9190   29.3030   37.0560 H   0  0  0  0  0  0  0  0  0  0  0  0
   33.4980   28.6290   34.9870 H   0  0  0  0  0  0  0  0  0  0  0  0
   36.6190   31.0440   41.1010 Cl  0  0  0  0  0  0  0  0  0  0  0  0
   36.9700   29.4480   41.7180 C   0  0  0  0  0  0  0  0  0  0  0  0
   36.5230   28.4170   40.9380 C   0  0  0  0  0  0  0  0  0  0  0  0
   36.7830   27.1270   41.4220 C   0  0  0  0  0  0  0  0  0  0  0  0
   36.5080   26.1950   40.9460 H   0  0  0  0  0  0  0  0  0  0  0  0
   37.4540   26.9220   42.6230 C   0  0  0  0  0  0  0  0  0  0  0  0
   37.6720   25.9440   43.0270 H   0  0  0  0  0  0  0  0  0  0  0  0
   37.8910   27.9860   43.3850 C   0  0  0  0  0  3  0  0  0  0  0  0
   37.6330   29.2490   42.9030 C   0  0  0  0  0  3  0  0  0  0  0  0
  1  4  1  1  0  0  0
  1  2  1  0  0  0  0
  1  3  1  0  0  0  0
  2  3  1  0  0  0  0
  2  5  1  0  0  0  0
  3  7  1  6  0  0  0
  3 19  1  0  0  0  0
  6  2  1  0  0  0  0
  8  9  1  0  0  0  0
  9 15  1  0  0  0  0
  9 10  2  0  0  0  0
 10  1  1  0  0  0  0
 11 10  1  0  0  0  0
 12 11  2  0  0  0  0
 13  8  2  0  0  0  0
 13 12  1  0  0  0  0
 14  8  1  0  0  0  0
 16 12  1  0  0  0  0
 17 18  1  0  0  0  0
 18 25  1  0  0  0  0
 19 20  1  0  0  0  0
 19 18  2  0  0  0  0
 20 22  2  0  0  0  0
 21 20  1  0  0  0  0
 22 23  1  0  0  0  0
 22 24  1  0  0  0  0
 25 24  2  0  0  0  0
M  END
>  <minimizedAffinity>
-4.63756132

$$$$

 OpenBabel03252501023D

 25 27  0  0  1  0  0  0  0  0999 V2000
   35.9290   29.5320   39.2240 C   0  0  1  0  0  0  0  0  0  0  0  0
   34.6660   29.1330   39.9570 C   0  0  0  0  0  0  0  0  0  0  0  0
   35.9060   28.2490   39.9250 C   0  0  2  0  0  0  0  0  0  0  0  0
   36.4690   30.4080   39.6380 H   0  0  0  0  0  0  0  0  0  0  0  0
   34.4310   29.7750   40.7980 H   0  0  0  0  0  0  0  0  0  0  0  0
   33.7740   28.8330   39.3600 H   0  0  0  0  0  0  0  0  0  0  0  0
   35.7330   27.3190   39.3010 H   0  0  0  0  0  0  0  0  0  0  0  0
   36.5520   29.8490   35.5210 C   0  0  0  0  0  0  0  0  0  0  0  0
   36.8080   29.9400   36.9010 C   0  0  0  0  0  0  0  0  0  0  0  0
   35.7710   29.5120   37.7290 C   0  0  0  0  0  0  0  0  0  0  0  0
   34.6030   29.0440   37.1760 N   0  0  0  0  0  0  0  0  0  0  0  0
   34.4100   28.9780   35.8390 C   0  0  0  0  0  0  0  0  0  0  0  0
   35.3960   29.3860   35.0250 N   0  0  0  0  0  0  0  0  0  0  0  0
   37.3180   30.1670   34.8260 H   0  0  0  0  0  0  0  0  0  0  0  0
   37.7250   30.3080   37.3060 H   0  0  0  0  0  0  0  0  0  0  0  0
   33.4280   28.5820   35.6210 H   0  0  0  0  0  0  0  0  0  0  0  0
   36.7800   25.3730   40.8130 Cl  0  0  0  0  0  0  0  0  0  0  0  0
   37.1840   26.8360   41.6770 C   0  0  0  0  0  0  0  0  0  0  0  0
   36.7120   27.9880   41.1120 C   0  0  0  0  0  0  0  0  0  0  0  0
   37.0370   29.1750   41.7820 C   0  0  0  0  0  0  0  0  0  0  0  0
   36.7540   30.1780   41.4890 H   0  0  0  0  0  0  0  0  0  0  0  0
   37.7930   29.1680   42.9510 C   0  0  0  0  0  0  0  0  0  0  0  0
   38.0610   30.0620   43.4950 H   0  0  0  0  0  0  0  0  0  0  0  0
   38.2520   27.9850   43.4930 C   0  0  0  0  0  3  0  0  0  0  0  0
   37.9300   26.8250   42.8290 C   0  0  0  0  0  3  0  0  0  0  0  0
  1  4  1  1  0  0  0
  1  3  1  0  0  0  0
  1  2  1  0  0  0  0
  2  5  1  0  0  0  0
  3  7  1  6  0  0  0
  3  2  1  0  0  0  0
  3 19  1  0  0  0  0
  6  2  1  0  0  0  0
  8  9  1  0  0  0  0
  9 15  1  0  0  0  0
  9 10  2  0  0  0  0
 10  1  1  0  0  0  0
 11 10  1  0  0  0  0
 12 11  2  0  0  0  0
 13  8  2  0  0  0  0
 13 12  1  0  0  0  0
 14  8  1  0  0  0  0
 16 12  1  0  0  0  0
 17 18  1  0  0  0  0
 18 25  1  0  0  0  0
 19 18  2  0  0  0  0
 19 20  1  0  0  0  0
 20 22  2  0  0  0  0
 21 20  1  0  0  0  0
 22 24  1  0  0  0  0
 22 23  1  0  0  0  0
 25 24  2  0  0  0  0
M  END
>  <minimizedAffinity>
-4.63602257

$$$$

 OpenBabel03252501023D

 25 27  0  0  1  0  0  0  0  0999 V2000
   36.8440   28.4790   41.6600 C   0  0  1  0  0  0  0  0  0  0  0  0
   37.5900   28.8030   42.9370 C   0  0  0  0  0  0  0  0  0  0  0  0
   38.1110   29.2000   41.5620 C   0  0  2  0  0  0  0  0  0  0  0  0
   35.8720   28.9970   41.5280 H   0  0  0  0  0  0  0  0  0  0  0  0
   37.0650   29.4970   43.5830 H   0  0  0  0  0  0  0  0  0  0  0  0
   38.0940   27.9740   43.4860 H   0  0  0  0  0  0  0  0  0  0  0  0
   39.0300   28.5990   41.2810 H   0  0  0  0  0  0  0  0  0  0  0  0
   36.7440   25.1840   39.8340 C   0  0  0  0  0  0  0  0  0  0  0  0
   36.6950   26.5770   40.0180 C   0  0  0  0  0  0  0  0  0  0  0  0
   36.8490   27.0110   41.3330 C   0  0  0  0  0  0  0  0  0  0  0  0
   37.0330   26.0930   42.3400 N   0  0  0  0  0  0  0  0  0  0  0  0
   37.0720   24.7610   42.1060 C   0  0  0  0  0  0  0  0  0  0  0  0
   36.9260   24.3230   40.8450 N   0  0  0  0  0  0  0  0  0  0  0  0
   36.6300   24.7850   38.8350 H   0  0  0  0  0  0  0  0  0  0  0  0
   36.5510   27.2720   39.2190 H   0  0  0  0  0  0  0  0  0  0  0  0
   37.2250   24.2220   43.0300 H   0  0  0  0  0  0  0  0  0  0  0  0
   40.3290   31.1850   42.5480 Cl  0  0  0  0  0  0  0  0  0  0  0  0
   39.0500   31.6090   41.4360 C   0  0  0  0  0  0  0  0  0  0  0  0
   38.1930   30.5890   41.1270 C   0  0  0  0  0  0  0  0  0  0  0  0
   37.1670   30.9050   40.2260 C   0  0  0  0  0  0  0  0  0  0  0  0
   36.3990   30.2340   39.8650 H   0  0  0  0  0  0  0  0  0  0  0  0
   37.0400   32.1810   39.6850 C   0  0  0  0  0  0  0  0  0  0  0  0
   36.2630   32.4610   38.9890 H   0  0  0  0  0  0  0  0  0  0  0  0
   37.9240   33.1870   40.0200 C   0  0  0  0  0  3  0  0  0  0  0  0
   38.9280   32.8690   40.9050 C   0  0  0  0  0  3  0  0  0  0  0  0
  1  4  1  6  0  0  0
  1  2  1  0  0  0  0
  2  6  1  0  0  0  0
  2  5  1  0  0  0  0
  3  7  1  6  0  0  0
  3  1  1  0  0  0  0
  3  2  1  0  0  0  0
  8  9  2  0  0  0  0
  8 13  1  0  0  0  0
  9 10  1  0  0  0  0
 10  1  1  0  0  0  0
 10 11  2  0  0  0  0
 12 11  1  0  0  0  0
 12 16  1  0  0  0  0
 13 12  2  0  0  0  0
 14  8  1  0  0  0  0
 15  9  1  0  0  0  0
 18 17  1  0  0  0  0
 19 18  1  0  0  0  0
 19  3  1  0  0  0  0
 20 19  2  0  0  0  0
 21 20  1  0  0  0  0
 22 24  2  0  0  0  0
 22 20  1  0  0  0  0
 23 22  1  0  0  0  0
 24 25  1  0  0  0  0
 25 18  2  0  0  0  0
M  END
>  <minimizedAffinity>
-4.59258652

$$$$
