
 OpenBabel03252508333D

 32 34  0  0  1  0  0  0  0  0999 V2000
   38.3690   30.6920   41.0140 N   0  0  0  0  0  0  0  0  0  0  0  0
   37.0840   31.2410   40.6970 C   0  0  1  0  0  0  0  0  0  0  0  0
   37.1120   32.5900   40.0690 C   0  0  0  0  0  0  0  0  0  0  0  0
   38.0830   33.4740   40.5950 N   0  0  0  0  0  0  0  0  0  0  0  0
   39.3430   32.9290   40.9020 C   0  0  0  0  0  0  0  0  0  0  0  0
   39.4620   31.4640   40.5130 C   0  0  0  0  0  0  0  0  0  0  0  0
   36.4810   31.2480   41.6280 H   0  0  0  0  0  0  0  0  0  0  0  0
   37.2710   32.4770   38.9560 H   0  0  0  0  0  0  0  0  0  0  0  0
   36.1090   33.0560   40.1730 H   0  0  0  0  0  0  0  0  0  0  0  0
   37.9830   34.4480   40.3600 H   0  0  0  0  0  0  0  0  0  0  0  0
   40.1310   33.4560   40.3040 H   0  0  0  0  0  0  0  0  0  0  0  0
   39.6660   33.0110   41.9590 H   0  0  0  0  0  0  0  0  0  0  0  0
   40.4640   31.1120   40.7140 H   0  0  0  0  0  0  0  0  0  0  0  0
   39.3760   31.4870   39.3850 H   0  0  0  0  0  0  0  0  0  0  0  0
   39.1490   28.4510   41.1950 C   0  0  0  0  0  0  0  0  0  0  0  0
   38.4170   29.4900   41.7620 C   0  0  0  0  0  0  0  0  0  0  0  0
   37.8100   29.2620   42.9830 C   0  0  0  0  0  0  0  0  0  0  0  0
   37.9390   28.0530   43.5910 N   0  0  0  0  0  0  0  0  0  0  0  0
   38.6620   27.0510   43.0140 C   0  0  0  0  0  0  0  0  0  0  0  0
   39.2600   27.2500   41.8280 N   0  0  0  0  0  0  0  0  0  0  0  0
   39.6900   28.4340   40.2590 H   0  0  0  0  0  0  0  0  0  0  0  0
   37.2580   30.0580   43.4060 H   0  0  0  0  0  0  0  0  0  0  0  0
   38.6950   26.1310   43.5890 H   0  0  0  0  0  0  0  0  0  0  0  0
   38.0290   31.3730   37.8900 Cl  0  0  0  0  0  0  0  0  0  0  0  0
   36.6520   30.3710   38.3510 C   0  0  0  0  0  0  0  0  0  0  0  0
   36.3140   30.4030   39.7090 C   0  0  0  0  0  0  0  0  0  0  0  0
   35.2420   29.6230   40.0700 C   0  0  0  0  0  0  0  0  0  0  0  0
   34.9190   29.5900   41.0790 H   0  0  0  0  0  0  0  0  0  0  0  0
   34.5310   28.8520   39.1770 C   0  0  0  0  0  0  0  0  0  0  0  0
   33.6910   28.2410   39.4530 H   0  0  0  0  0  0  0  0  0  0  0  0
   34.8960   28.8490   37.8490 C   0  0  0  0  0  3  0  0  0  0  0  0
   35.9640   29.6140   37.4350 C   0  0  0  0  0  3  0  0  0  0  0  0
  1 16  1  0  0  0  0
  2  1  1  0  0  0  0
  2  7  1  1  0  0  0
  3  9  1  0  0  0  0
  3  4  1  0  0  0  0
  3  2  1  0  0  0  0
  4  5  1  0  0  0  0
  5 12  1  0  0  0  0
  6 13  1  0  0  0  0
  6  5  1  0  0  0  0
  6  1  1  0  0  0  0
  8  3  1  0  0  0  0
 10  4  1  0  0  0  0
 11  5  1  0  0  0  0
 14  6  1  0  0  0  0
 15 16  2  0  0  0  0
 15 20  1  0  0  0  0
 16 17  1  0  0  0  0
 17 22  1  0  0  0  0
 17 18  2  0  0  0  0
 19 23  1  0  0  0  0
 19 18  1  0  0  0  0
 20 19  2  0  0  0  0
 21 15  1  0  0  0  0
 24 25  1  0  0  0  0
 25 26  1  0  0  0  0
 26 27  2  0  0  0  0
 26  2  1  0  0  0  0
 27 28  1  0  0  0  0
 29 30  1  0  0  0  0
 29 27  1  0  0  0  0
 31 29  2  0  0  0  0
 32 31  1  0  0  0  0
 32 25  2  0  0  0  0
M  END
>  <minimizedAffinity>
-5.44555807

$$$$

 OpenBabel03252508333D

 32 34  0  0  1  0  0  0  0  0999 V2000
   38.1720   30.8030   40.5540 N   0  0  0  0  0  0  0  0  0  0  0  0
   36.9530   31.2360   39.9380 C   0  0  1  0  0  0  0  0  0  0  0  0
   36.9470   32.6490   39.4730 C   0  0  0  0  0  0  0  0  0  0  0  0
   37.5990   33.5630   40.3340 N   0  0  0  0  0  0  0  0  0  0  0  0
   38.7970   33.1330   40.9330 C   0  0  0  0  0  0  0  0  0  0  0  0
   39.2320   31.7560   40.4570 C   0  0  0  0  0  0  0  0  0  0  0  0
   36.1280   31.0490   40.6560 H   0  0  0  0  0  0  0  0  0  0  0  0
   37.4140   32.7030   38.4460 H   0  0  0  0  0  0  0  0  0  0  0  0
   35.8960   32.9770   39.3320 H   0  0  0  0  0  0  0  0  0  0  0  0
   37.4220   34.5420   40.1730 H   0  0  0  0  0  0  0  0  0  0  0  0
   39.6290   33.8230   40.6350 H   0  0  0  0  0  0  0  0  0  0  0  0
   38.8090   33.1130   42.0410 H   0  0  0  0  0  0  0  0  0  0  0  0
   40.1850   31.5000   40.9010 H   0  0  0  0  0  0  0  0  0  0  0  0
   39.4500   31.9180   39.3590 H   0  0  0  0  0  0  0  0  0  0  0  0
   37.5710   29.4350   42.4060 C   0  0  0  0  0  0  0  0  0  0  0  0
   38.1970   29.5260   41.1670 C   0  0  0  0  0  0  0  0  0  0  0  0
   38.7790   28.3830   40.6510 C   0  0  0  0  0  0  0  0  0  0  0  0
   38.7290   27.2190   41.3510 N   0  0  0  0  0  0  0  0  0  0  0  0
   38.1090   27.1560   42.5640 C   0  0  0  0  0  0  0  0  0  0  0  0
   37.5360   28.2540   43.0850 N   0  0  0  0  0  0  0  0  0  0  0  0
   37.0650   30.2070   42.9680 H   0  0  0  0  0  0  0  0  0  0  0  0
   39.2510   28.4630   39.7090 H   0  0  0  0  0  0  0  0  0  0  0  0
   38.1320   26.1770   43.0320 H   0  0  0  0  0  0  0  0  0  0  0  0
   34.7450   29.2780   40.2290 Cl  0  0  0  0  0  0  0  0  0  0  0  0
   35.5880   29.4930   38.6930 C   0  0  0  0  0  0  0  0  0  0  0  0
   36.6090   30.4500   38.6980 C   0  0  0  0  0  0  0  0  0  0  0  0
   37.2670   30.6190   37.5030 C   0  0  0  0  0  0  0  0  0  0  0  0
   38.0540   31.3240   37.4200 H   0  0  0  0  0  0  0  0  0  0  0  0
   36.9620   29.9080   36.3640 C   0  0  0  0  0  0  0  0  0  0  0  0
   37.4730   30.0350   35.4270 H   0  0  0  0  0  0  0  0  0  0  0  0
   35.9500   28.9750   36.4020 C   0  0  0  0  0  3  0  0  0  0  0  0
   35.2600   28.7670   37.5750 C   0  0  0  0  0  3  0  0  0  0  0  0
  1 16  1  0  0  0  0
  2  1  1  0  0  0  0
  2  7  1  1  0  0  0
  3  2  1  0  0  0  0
  3  4  1  0  0  0  0
  4  5  1  0  0  0  0
  5 12  1  0  0  0  0
  6  1  1  0  0  0  0
  6 13  1  0  0  0  0
  6  5  1  0  0  0  0
  8  3  1  0  0  0  0
  9  3  1  0  0  0  0
 10  4  1  0  0  0  0
 11  5  1  0  0  0  0
 14  6  1  0  0  0  0
 15 21  1  0  0  0  0
 15 20  1  0  0  0  0
 16 15  2  0  0  0  0
 17 16  1  0  0  0  0
 17 18  2  0  0  0  0
 18 19  1  0  0  0  0
 19 23  1  0  0  0  0
 19 20  2  0  0  0  0
 22 17  1  0  0  0  0
 25 26  1  0  0  0  0
 25 24  1  0  0  0  0
 26  2  1  0  0  0  0
 27 26  2  0  0  0  0
 28 27  1  0  0  0  0
 29 31  2  0  0  0  0
 29 27  1  0  0  0  0
 30 29  1  0  0  0  0
 31 32  1  0  0  0  0
 32 25  2  0  0  0  0
M  END
>  <minimizedAffinity>
-5.28063297

$$$$

 OpenBabel03252508333D

 32 34  0  0  1  0  0  0  0  0999 V2000
   38.3480   29.8080   40.7200 N   0  0  0  0  0  0  0  0  0  0  0  0
   37.2460   29.2230   41.4240 C   0  0  1  0  0  0  0  0  0  0  0  0
   35.9130   29.7970   41.0970 C   0  0  0  0  0  0  0  0  0  0  0  0
   35.8950   31.2000   40.9140 N   0  0  0  0  0  0  0  0  0  0  0  0
   36.9780   31.7670   40.2210 C   0  0  0  0  0  0  0  0  0  0  0  0
   37.9540   30.7250   39.6980 C   0  0  0  0  0  0  0  0  0  0  0  0
   37.4590   29.3030   42.5100 H   0  0  0  0  0  0  0  0  0  0  0  0
   35.5100   29.2930   40.1700 H   0  0  0  0  0  0  0  0  0  0  0  0
   35.1980   29.5320   41.9050 H   0  0  0  0  0  0  0  0  0  0  0  0
   34.9910   31.6460   40.9190 H   0  0  0  0  0  0  0  0  0  0  0  0
   36.5990   32.2970   39.3090 H   0  0  0  0  0  0  0  0  0  0  0  0
   37.5740   32.5200   40.7760 H   0  0  0  0  0  0  0  0  0  0  0  0
   38.7330   31.2080   39.1230 H   0  0  0  0  0  0  0  0  0  0  0  0
   37.3390   30.1510   38.9410 H   0  0  0  0  0  0  0  0  0  0  0  0
   40.0890   29.8800   42.3420 C   0  0  0  0  0  0  0  0  0  0  0  0
   39.6600   29.4300   41.0970 C   0  0  0  0  0  0  0  0  0  0  0  0
   40.5370   28.6660   40.3490 C   0  0  0  0  0  0  0  0  0  0  0  0
   41.7730   28.3780   40.8350 N   0  0  0  0  0  0  0  0  0  0  0  0
   42.1690   28.8320   42.0580 C   0  0  0  0  0  0  0  0  0  0  0  0
   41.3340   29.5750   42.8030 N   0  0  0  0  0  0  0  0  0  0  0  0
   39.5560   30.4810   43.0650 H   0  0  0  0  0  0  0  0  0  0  0  0
   40.2020   28.3280   39.4050 H   0  0  0  0  0  0  0  0  0  0  0  0
   43.1760   28.5420   42.3430 H   0  0  0  0  0  0  0  0  0  0  0  0
   37.8690   27.4030   43.6800 Cl  0  0  0  0  0  0  0  0  0  0  0  0
   37.3410   26.7820   42.1150 C   0  0  0  0  0  0  0  0  0  0  0  0
   37.0810   27.7520   41.1400 C   0  0  0  0  0  0  0  0  0  0  0  0
   36.6690   27.2700   39.9210 C   0  0  0  0  0  0  0  0  0  0  0  0
   36.4510   27.9370   39.1270 H   0  0  0  0  0  0  0  0  0  0  0  0
   36.5150   25.9280   39.6490 C   0  0  0  0  0  0  0  0  0  0  0  0
   36.1940   25.5450   38.6990 H   0  0  0  0  0  0  0  0  0  0  0  0
   36.7810   25.0050   40.6370 C   0  0  0  0  0  3  0  0  0  0  0  0
   37.1970   25.4370   41.8770 C   0  0  0  0  0  3  0  0  0  0  0  0
  1 16  1  0  0  0  0
  1  2  1  0  0  0  0
  2  7  1  1  0  0  0
  3  2  1  0  0  0  0
  3  9  1  0  0  0  0
  4 10  1  0  0  0  0
  4  3  1  0  0  0  0
  5 12  1  0  0  0  0
  5  4  1  0  0  0  0
  6  5  1  0  0  0  0
  6  1  1  0  0  0  0
  8  3  1  0  0  0  0
 11  5  1  0  0  0  0
 13  6  1  0  0  0  0
 14  6  1  0  0  0  0
 15 20  1  0  0  0  0
 15 21  1  0  0  0  0
 16 15  2  0  0  0  0
 17 18  2  0  0  0  0
 17 16  1  0  0  0  0
 18 19  1  0  0  0  0
 19 23  1  0  0  0  0
 19 20  2  0  0  0  0
 22 17  1  0  0  0  0
 25 24  1  0  0  0  0
 26  2  1  0  0  0  0
 26 25  2  0  0  0  0
 27 26  1  0  0  0  0
 28 27  1  0  0  0  0
 29 27  2  0  0  0  0
 29 31  1  0  0  0  0
 30 29  1  0  0  0  0
 31 32  2  0  0  0  0
 32 25  1  0  0  0  0
M  END
>  <minimizedAffinity>
-4.94796991

$$$$

 OpenBabel03252508333D

 32 34  0  0  1  0  0  0  0  0999 V2000
   37.9110   29.8700   41.2620 N   0  0  0  0  0  0  0  0  0  0  0  0
   37.9140   28.8220   40.2850 C   0  0  1  0  0  0  0  0  0  0  0  0
   37.7710   27.4470   40.8340 C   0  0  0  0  0  0  0  0  0  0  0  0
   38.4700   27.2100   42.0410 N   0  0  0  0  0  0  0  0  0  0  0  0
   38.4610   28.2420   42.9970 C   0  0  0  0  0  0  0  0  0  0  0  0
   37.5970   29.4220   42.5820 C   0  0  0  0  0  0  0  0  0  0  0  0
   38.8460   28.9190   39.6890 H   0  0  0  0  0  0  0  0  0  0  0  0
   36.6750   27.2210   40.9840 H   0  0  0  0  0  0  0  0  0  0  0  0
   38.1160   26.7170   40.0710 H   0  0  0  0  0  0  0  0  0  0  0  0
   38.5830   26.2480   42.3170 H   0  0  0  0  0  0  0  0  0  0  0  0
   38.0030   27.8630   43.9470 H   0  0  0  0  0  0  0  0  0  0  0  0
   39.4510   28.6490   43.2850 H   0  0  0  0  0  0  0  0  0  0  0  0
   37.5770   30.1580   43.3740 H   0  0  0  0  0  0  0  0  0  0  0  0
   36.5550   28.9840   42.5560 H   0  0  0  0  0  0  0  0  0  0  0  0
   39.5520   31.5440   40.8480 C   0  0  0  0  0  0  0  0  0  0  0  0
   38.2070   31.1870   40.8330 C   0  0  0  0  0  0  0  0  0  0  0  0
   37.2920   32.1330   40.4080 C   0  0  0  0  0  0  0  0  0  0  0  0
   37.7180   33.3650   40.0230 N   0  0  0  0  0  0  0  0  0  0  0  0
   39.0420   33.6900   40.0480 C   0  0  0  0  0  0  0  0  0  0  0  0
   39.9480   32.7870   40.4570 N   0  0  0  0  0  0  0  0  0  0  0  0
   40.4070   30.9520   41.1430 H   0  0  0  0  0  0  0  0  0  0  0  0
   36.2740   31.8520   40.3980 H   0  0  0  0  0  0  0  0  0  0  0  0
   39.2650   34.7010   39.7200 H   0  0  0  0  0  0  0  0  0  0  0  0
   38.6870   29.5180   37.5080 Cl  0  0  0  0  0  0  0  0  0  0  0  0
   37.0000   29.2550   37.9560 C   0  0  0  0  0  0  0  0  0  0  0  0
   36.7790   28.9340   39.3000 C   0  0  0  0  0  0  0  0  0  0  0  0
   35.4660   28.7290   39.6500 C   0  0  0  0  0  0  0  0  0  0  0  0
   35.2100   28.4820   40.6480 H   0  0  0  0  0  0  0  0  0  0  0  0
   34.4200   28.8280   38.7590 C   0  0  0  0  0  0  0  0  0  0  0  0
   33.3910   28.6700   39.0270 H   0  0  0  0  0  0  0  0  0  0  0  0
   34.6810   29.1470   37.4450 C   0  0  0  0  0  3  0  0  0  0  0  0
   35.9810   29.3620   37.0420 C   0  0  0  0  0  3  0  0  0  0  0  0
  1  6  1  0  0  0  0
  2  7  1  6  0  0  0
  2  3  1  0  0  0  0
  2  1  1  0  0  0  0
  3  8  1  0  0  0  0
  3  4  1  0  0  0  0
  4 10  1  0  0  0  0
  4  5  1  0  0  0  0
  5 12  1  0  0  0  0
  5 11  1  0  0  0  0
  6  5  1  0  0  0  0
  6 13  1  0  0  0  0
  9  3  1  0  0  0  0
 14  6  1  0  0  0  0
 15 21  1  0  0  0  0
 16 15  1  0  0  0  0
 16  1  1  0  0  0  0
 17 16  2  0  0  0  0
 18 19  2  0  0  0  0
 18 17  1  0  0  0  0
 19 20  1  0  0  0  0
 20 15  2  0  0  0  0
 22 17  1  0  0  0  0
 23 19  1  0  0  0  0
 24 25  1  0  0  0  0
 25 26  1  0  0  0  0
 26 27  2  0  0  0  0
 26  2  1  0  0  0  0
 27 28  1  0  0  0  0
 29 30  1  0  0  0  0
 29 27  1  0  0  0  0
 31 29  2  0  0  0  0
 32 31  1  0  0  0  0
 32 25  2  0  0  0  0
M  END
>  <minimizedAffinity>
-4.78909445

$$$$

 OpenBabel03252508333D

 32 34  0  0  1  0  0  0  0  0999 V2000
   37.8460   31.0190   40.3670 N   0  0  0  0  0  0  0  0  0  0  0  0
   37.2530   30.9570   39.0640 C   0  0  1  0  0  0  0  0  0  0  0  0
   37.4230   32.1800   38.2340 C   0  0  0  0  0  0  0  0  0  0  0  0
   37.3120   33.4010   38.9400 N   0  0  0  0  0  0  0  0  0  0  0  0
   37.8990   33.4560   40.2170 C   0  0  0  0  0  0  0  0  0  0  0  0
   38.6480   32.1830   40.5760 C   0  0  0  0  0  0  0  0  0  0  0  0
   36.1780   30.7100   39.1950 H   0  0  0  0  0  0  0  0  0  0  0  0
   38.4240   32.1370   37.7130 H   0  0  0  0  0  0  0  0  0  0  0  0
   36.6700   32.1690   37.4180 H   0  0  0  0  0  0  0  0  0  0  0  0
   37.1950   34.2350   38.3870 H   0  0  0  0  0  0  0  0  0  0  0  0
   38.6730   34.2670   40.2350 H   0  0  0  0  0  0  0  0  0  0  0  0
   37.2150   33.6790   41.0600 H   0  0  0  0  0  0  0  0  0  0  0  0
   39.1290   32.3000   41.5380 H   0  0  0  0  0  0  0  0  0  0  0  0
   39.4920   32.1580   39.8240 H   0  0  0  0  0  0  0  0  0  0  0  0
   38.5320   29.7720   42.2740 C   0  0  0  0  0  0  0  0  0  0  0  0
   37.5860   29.9620   41.2730 C   0  0  0  0  0  0  0  0  0  0  0  0
   36.4920   29.1160   41.2480 C   0  0  0  0  0  0  0  0  0  0  0  0
   36.3690   28.1370   42.1830 N   0  0  0  0  0  0  0  0  0  0  0  0
   37.3110   27.9720   43.1540 C   0  0  0  0  0  0  0  0  0  0  0  0
   38.3820   28.7820   43.1980 N   0  0  0  0  0  0  0  0  0  0  0  0
   39.4440   30.3230   42.4590 H   0  0  0  0  0  0  0  0  0  0  0  0
   35.7780   29.2690   40.4840 H   0  0  0  0  0  0  0  0  0  0  0  0
   37.1090   27.1590   43.8450 H   0  0  0  0  0  0  0  0  0  0  0  0
   35.2760   29.1790   37.7530 Cl  0  0  0  0  0  0  0  0  0  0  0  0
   37.0110   28.9490   37.5290 C   0  0  0  0  0  0  0  0  0  0  0  0
   37.8300   29.8600   38.2070 C   0  0  0  0  0  0  0  0  0  0  0  0
   39.1810   29.6830   38.0330 C   0  0  0  0  0  0  0  0  0  0  0  0
   39.8720   30.3290   38.5110 H   0  0  0  0  0  0  0  0  0  0  0  0
   39.7200   28.6840   37.2520 C   0  0  0  0  0  0  0  0  0  0  0  0
   40.7760   28.5400   37.1130 H   0  0  0  0  0  0  0  0  0  0  0  0
   38.8790   27.8080   36.6030 C   0  0  0  0  0  3  0  0  0  0  0  0
   37.5160   27.9430   36.7440 C   0  0  0  0  0  3  0  0  0  0  0  0
  1  6  1  0  0  0  0
  1 16  1  0  0  0  0
  2  7  1  1  0  0  0
  2  1  1  0  0  0  0
  3  4  1  0  0  0  0
  3  2  1  0  0  0  0
  4  5  1  0  0  0  0
  5 11  1  0  0  0  0
  5  6  1  0  0  0  0
  5 12  1  0  0  0  0
  6 13  1  0  0  0  0
  8  3  1  0  0  0  0
  9  3  1  0  0  0  0
 10  4  1  0  0  0  0
 14  6  1  0  0  0  0
 15 21  1  0  0  0  0
 15 20  1  0  0  0  0
 16 15  2  0  0  0  0
 17 16  1  0  0  0  0
 17 18  2  0  0  0  0
 18 19  1  0  0  0  0
 19 20  2  0  0  0  0
 19 23  1  0  0  0  0
 22 17  1  0  0  0  0
 25 24  1  0  0  0  0
 25 26  1  0  0  0  0
 26  2  1  0  0  0  0
 27 26  2  0  0  0  0
 27 28  1  0  0  0  0
 29 27  1  0  0  0  0
 30 29  1  0  0  0  0
 31 32  1  0  0  0  0
 31 29  2  0  0  0  0
 32 25  2  0  0  0  0
M  END
>  <minimizedAffinity>
-4.7787981

$$$$

 OpenBabel03252508333D

 32 34  0  0  1  0  0  0  0  0999 V2000
   38.0980   31.0030   40.1820 N   0  0  0  0  0  0  0  0  0  0  0  0
   39.0910   30.2510   40.8910 C   0  0  1  0  0  0  0  0  0  0  0  0
   39.8720   31.0240   41.8930 C   0  0  0  0  0  0  0  0  0  0  0  0
   40.2130   32.3390   41.4990 N   0  0  0  0  0  0  0  0  0  0  0  0
   39.2330   33.0730   40.8060 C   0  0  0  0  0  0  0  0  0  0  0  0
   37.9140   32.3270   40.6860 C   0  0  0  0  0  0  0  0  0  0  0  0
   39.7600   29.7830   40.1390 H   0  0  0  0  0  0  0  0  0  0  0  0
   39.2950   31.0610   42.8630 H   0  0  0  0  0  0  0  0  0  0  0  0
   40.8040   30.4680   42.1310 H   0  0  0  0  0  0  0  0  0  0  0  0
   40.9220   32.8060   42.0420 H   0  0  0  0  0  0  0  0  0  0  0  0
   38.9920   34.0050   41.3800 H   0  0  0  0  0  0  0  0  0  0  0  0
   39.5070   33.4140   39.7870 H   0  0  0  0  0  0  0  0  0  0  0  0
   37.1800   32.9560   40.2000 H   0  0  0  0  0  0  0  0  0  0  0  0
   37.5670   32.2400   41.7590 H   0  0  0  0  0  0  0  0  0  0  0  0
   38.1820   30.1970   37.9440 C   0  0  0  0  0  0  0  0  0  0  0  0
   37.4300   30.3780   39.1000 C   0  0  0  0  0  0  0  0  0  0  0  0
   36.1190   29.9400   39.0930 C   0  0  0  0  0  0  0  0  0  0  0  0
   35.6030   29.3550   37.9790 N   0  0  0  0  0  0  0  0  0  0  0  0
   36.3620   29.1900   36.8580 C   0  0  0  0  0  0  0  0  0  0  0  0
   37.6380   29.6080   36.8420 N   0  0  0  0  0  0  0  0  0  0  0  0
   39.2110   30.4680   37.7550 H   0  0  0  0  0  0  0  0  0  0  0  0
   35.5560   30.0800   39.9770 H   0  0  0  0  0  0  0  0  0  0  0  0
   35.8460   28.7130   36.0310 H   0  0  0  0  0  0  0  0  0  0  0  0
   39.6390   27.5310   39.8470 Cl  0  0  0  0  0  0  0  0  0  0  0  0
   38.6890   27.7790   41.3130 C   0  0  0  0  0  0  0  0  0  0  0  0
   38.5080   29.1150   41.6910 C   0  0  0  0  0  0  0  0  0  0  0  0
   37.7680   29.3100   42.8330 C   0  0  0  0  0  0  0  0  0  0  0  0
   37.5830   30.2910   43.1890 H   0  0  0  0  0  0  0  0  0  0  0  0
   37.2300   28.2800   43.5730 C   0  0  0  0  0  0  0  0  0  0  0  0
   36.6510   28.4270   44.4650 H   0  0  0  0  0  0  0  0  0  0  0  0
   37.4320   26.9800   43.1650 C   0  0  0  0  0  3  0  0  0  0  0  0
   38.1660   26.7300   42.0270 C   0  0  0  0  0  3  0  0  0  0  0  0
  1  6  1  0  0  0  0
  1  2  1  0  0  0  0
  2  7  1  6  0  0  0
  2 26  1  0  0  0  0
  2  3  1  0  0  0  0
  3  9  1  0  0  0  0
  3  8  1  0  0  0  0
  4  3  1  0  0  0  0
  4 10  1  0  0  0  0
  5 11  1  0  0  0  0
  5  4  1  0  0  0  0
  6  5  1  0  0  0  0
  6 14  1  0  0  0  0
 12  5  1  0  0  0  0
 13  6  1  0  0  0  0
 15 16  1  0  0  0  0
 16  1  1  0  0  0  0
 17 16  2  0  0  0  0
 17 22  1  0  0  0  0
 18 17  1  0  0  0  0
 19 18  2  0  0  0  0
 20 19  1  0  0  0  0
 20 15  2  0  0  0  0
 21 15  1  0  0  0  0
 23 19  1  0  0  0  0
 24 25  1  0  0  0  0
 25 26  2  0  0  0  0
 25 32  1  0  0  0  0
 26 27  1  0  0  0  0
 27 28  1  0  0  0  0
 27 29  2  0  0  0  0
 29 30  1  0  0  0  0
 31 29  1  0  0  0  0
 32 31  2  0  0  0  0
M  END
>  <minimizedAffinity>
-4.74981117

$$$$

 OpenBabel03252508333D

 32 34  0  0  1  0  0  0  0  0999 V2000
   36.6730   28.3160   41.0190 N   0  0  0  0  0  0  0  0  0  0  0  0
   37.3260   29.5600   41.2970 C   0  0  1  0  0  0  0  0  0  0  0  0
   38.0300   29.6250   42.6060 C   0  0  0  0  0  0  0  0  0  0  0  0
   37.3580   28.9920   43.6770 N   0  0  0  0  0  0  0  0  0  0  0  0
   36.7220   27.7690   43.3990 C   0  0  0  0  0  0  0  0  0  0  0  0
   36.9590   27.2930   41.9750 C   0  0  0  0  0  0  0  0  0  0  0  0
   36.5670   30.3660   41.2120 H   0  0  0  0  0  0  0  0  0  0  0  0
   39.0620   29.1790   42.4930 H   0  0  0  0  0  0  0  0  0  0  0  0
   38.2020   30.6900   42.8700 H   0  0  0  0  0  0  0  0  0  0  0  0
   37.6840   29.2070   44.6060 H   0  0  0  0  0  0  0  0  0  0  0  0
   37.1550   26.9680   44.0520 H   0  0  0  0  0  0  0  0  0  0  0  0
   35.6270   27.7370   43.5740 H   0  0  0  0  0  0  0  0  0  0  0  0
   36.5000   26.3240   41.8310 H   0  0  0  0  0  0  0  0  0  0  0  0
   38.0730   27.1000   41.9480 H   0  0  0  0  0  0  0  0  0  0  0  0
   36.1360   27.2030   38.9850 C   0  0  0  0  0  0  0  0  0  0  0  0
   35.8460   28.2350   39.8710 C   0  0  0  0  0  0  0  0  0  0  0  0
   34.7950   29.0780   39.5610 C   0  0  0  0  0  0  0  0  0  0  0  0
   34.0830   28.8840   38.4190 N   0  0  0  0  0  0  0  0  0  0  0  0
   34.3880   27.8650   37.5660 C   0  0  0  0  0  0  0  0  0  0  0  0
   35.4050   27.0330   37.8480 N   0  0  0  0  0  0  0  0  0  0  0  0
   36.9080   26.4490   39.0510 H   0  0  0  0  0  0  0  0  0  0  0  0
   34.5820   29.8580   40.2410 H   0  0  0  0  0  0  0  0  0  0  0  0
   33.7540   27.8070   36.6870 H   0  0  0  0  0  0  0  0  0  0  0  0
   36.9270   32.0770   39.7810 Cl  0  0  0  0  0  0  0  0  0  0  0  0
   38.3400   31.0550   39.5120 C   0  0  0  0  0  0  0  0  0  0  0  0
   38.4010   29.8970   40.2950 C   0  0  0  0  0  0  0  0  0  0  0  0
   39.5010   29.1000   40.0870 C   0  0  0  0  0  0  0  0  0  0  0  0
   39.6250   28.2040   40.6390 H   0  0  0  0  0  0  0  0  0  0  0  0
   40.4900   29.3960   39.1750 C   0  0  0  0  0  0  0  0  0  0  0  0
   41.3510   28.7770   39.0070 H   0  0  0  0  0  0  0  0  0  0  0  0
   40.3910   30.5460   38.4230 C   0  0  0  0  0  3  0  0  0  0  0  0
   39.3080   31.3790   38.5940 C   0  0  0  0  0  3  0  0  0  0  0  0
  1  2  1  0  0  0  0
  1  6  1  0  0  0  0
  2  7  1  6  0  0  0
  2  3  1  0  0  0  0
  3  9  1  0  0  0  0
  3  4  1  0  0  0  0
  4 10  1  0  0  0  0
  5 12  1  0  0  0  0
  5  4  1  0  0  0  0
  5 11  1  0  0  0  0
  6  5  1  0  0  0  0
  8  3  1  0  0  0  0
 13  6  1  0  0  0  0
 14  6  1  0  0  0  0
 15 21  1  0  0  0  0
 15 16  1  0  0  0  0
 16  1  1  0  0  0  0
 17 16  2  0  0  0  0
 17 22  1  0  0  0  0
 18 17  1  0  0  0  0
 19 20  1  0  0  0  0
 19 18  2  0  0  0  0
 20 15  2  0  0  0  0
 23 19  1  0  0  0  0
 25 24  1  0  0  0  0
 25 26  1  0  0  0  0
 26  2  1  0  0  0  0
 27 26  2  0  0  0  0
 27 28  1  0  0  0  0
 29 27  1  0  0  0  0
 30 29  1  0  0  0  0
 31 32  1  0  0  0  0
 31 29  2  0  0  0  0
 32 25  2  0  0  0  0
M  END
>  <minimizedAffinity>
-4.67743731

$$$$

 OpenBabel03252508333D

 32 34  0  0  1  0  0  0  0  0999 V2000
   37.0640   29.5760   39.3550 N   0  0  0  0  0  0  0  0  0  0  0  0
   37.9160   30.3290   38.4840 C   0  0  1  0  0  0  0  0  0  0  0  0
   37.3260   30.6660   37.1600 C   0  0  0  0  0  0  0  0  0  0  0  0
   36.5450   29.6410   36.5770 N   0  0  0  0  0  0  0  0  0  0  0  0
   35.7090   28.9070   37.4370 C   0  0  0  0  0  0  0  0  0  0  0  0
   35.7300   29.4280   38.8650 C   0  0  0  0  0  0  0  0  0  0  0  0
   38.8630   29.7630   38.3660 H   0  0  0  0  0  0  0  0  0  0  0  0
   36.7030   31.6020   37.2600 H   0  0  0  0  0  0  0  0  0  0  0  0
   38.1450   30.9360   36.4600 H   0  0  0  0  0  0  0  0  0  0  0  0
   36.3230   29.7410   35.5990 H   0  0  0  0  0  0  0  0  0  0  0  0
   34.6450   29.0140   37.1010 H   0  0  0  0  0  0  0  0  0  0  0  0
   35.8970   27.8150   37.4870 H   0  0  0  0  0  0  0  0  0  0  0  0
   35.0280   28.8690   39.4690 H   0  0  0  0  0  0  0  0  0  0  0  0
   35.2830   30.4620   38.7700 H   0  0  0  0  0  0  0  0  0  0  0  0
   36.9520   29.4500   41.7290 C   0  0  0  0  0  0  0  0  0  0  0  0
   37.6120   29.0780   40.5630 C   0  0  0  0  0  0  0  0  0  0  0  0
   38.7280   28.2700   40.6810 C   0  0  0  0  0  0  0  0  0  0  0  0
   39.1470   27.8650   41.9090 N   0  0  0  0  0  0  0  0  0  0  0  0
   38.4820   28.2440   43.0380 C   0  0  0  0  0  0  0  0  0  0  0  0
   37.3950   29.0290   42.9470 N   0  0  0  0  0  0  0  0  0  0  0  0
   36.0730   30.0690   41.8430 H   0  0  0  0  0  0  0  0  0  0  0  0
   39.2220   27.9920   39.7900 H   0  0  0  0  0  0  0  0  0  0  0  0
   38.9060   27.8620   43.9610 H   0  0  0  0  0  0  0  0  0  0  0  0
   40.8120   30.7280   38.9770 Cl  0  0  0  0  0  0  0  0  0  0  0  0
   39.6350   31.9930   39.3360 C   0  0  0  0  0  0  0  0  0  0  0  0
   38.3020   31.6700   39.0540 C   0  0  0  0  0  0  0  0  0  0  0  0
   37.3850   32.6540   39.3320 C   0  0  0  0  0  0  0  0  0  0  0  0
   36.3530   32.4920   39.1490 H   0  0  0  0  0  0  0  0  0  0  0  0
   37.7250   33.8830   39.8540 C   0  0  0  0  0  0  0  0  0  0  0  0
   37.0120   34.6560   40.0740 H   0  0  0  0  0  0  0  0  0  0  0  0
   39.0480   34.1600   40.1160 C   0  0  0  0  0  3  0  0  0  0  0  0
   40.0080   33.2080   39.8550 C   0  0  0  0  0  3  0  0  0  0  0  0
  1 16  1  0  0  0  0
  2  7  1  6  0  0  0
  2 26  1  0  0  0  0
  2  1  1  0  0  0  0
  3  8  1  0  0  0  0
  3  2  1  0  0  0  0
  4  3  1  0  0  0  0
  4  5  1  0  0  0  0
  5 12  1  0  0  0  0
  5  6  1  0  0  0  0
  6  1  1  0  0  0  0
  6 13  1  0  0  0  0
  9  3  1  0  0  0  0
 10  4  1  0  0  0  0
 11  5  1  0  0  0  0
 14  6  1  0  0  0  0
 15 21  1  0  0  0  0
 15 20  1  0  0  0  0
 16 17  1  0  0  0  0
 16 15  2  0  0  0  0
 17 18  2  0  0  0  0
 18 19  1  0  0  0  0
 19 23  1  0  0  0  0
 20 19  2  0  0  0  0
 22 17  1  0  0  0  0
 24 25  1  0  0  0  0
 25 32  1  0  0  0  0
 26 27  1  0  0  0  0
 26 25  2  0  0  0  0
 27 29  2  0  0  0  0
 28 27  1  0  0  0  0
 29 30  1  0  0  0  0
 29 31  1  0  0  0  0
 32 31  2  0  0  0  0
M  END
>  <minimizedAffinity>
-4.6550622

$$$$

 OpenBabel03252508333D

 32 34  0  0  1  0  0  0  0  0999 V2000
   39.0160   27.7260   41.6100 N   0  0  0  0  0  0  0  0  0  0  0  0
   37.7800   27.0820   41.9460 C   0  0  1  0  0  0  0  0  0  0  0  0
   36.7230   27.9840   42.4770 C   0  0  0  0  0  0  0  0  0  0  0  0
   37.1850   28.9970   43.3490 N   0  0  0  0  0  0  0  0  0  0  0  0
   38.3960   29.6270   43.0130 C   0  0  0  0  0  0  0  0  0  0  0  0
   38.9570   29.1520   41.6820 C   0  0  0  0  0  0  0  0  0  0  0  0
   38.0090   26.2690   42.6660 H   0  0  0  0  0  0  0  0  0  0  0  0
   36.1710   28.4570   41.6120 H   0  0  0  0  0  0  0  0  0  0  0  0
   35.9620   27.3730   43.0070 H   0  0  0  0  0  0  0  0  0  0  0  0
   36.4870   29.4740   43.8990 H   0  0  0  0  0  0  0  0  0  0  0  0
   38.2190   30.7260   42.8810 H   0  0  0  0  0  0  0  0  0  0  0  0
   39.2130   29.5440   43.7580 H   0  0  0  0  0  0  0  0  0  0  0  0
   39.8540   29.7080   41.4430 H   0  0  0  0  0  0  0  0  0  0  0  0
   38.1830   29.5010   40.9350 H   0  0  0  0  0  0  0  0  0  0  0  0
   40.6160   26.0890   42.2620 C   0  0  0  0  0  0  0  0  0  0  0  0
   40.1200   26.9130   41.2560 C   0  0  0  0  0  0  0  0  0  0  0  0
   40.7390   26.8680   40.0200 C   0  0  0  0  0  0  0  0  0  0  0  0
   41.7960   26.0370   39.8190 N   0  0  0  0  0  0  0  0  0  0  0  0
   42.2620   25.2400   40.8210 C   0  0  0  0  0  0  0  0  0  0  0  0
   41.6770   25.2670   42.0300 N   0  0  0  0  0  0  0  0  0  0  0  0
   40.2730   25.9820   43.2810 H   0  0  0  0  0  0  0  0  0  0  0  0
   40.3540   27.4960   39.2630 H   0  0  0  0  0  0  0  0  0  0  0  0
   43.1100   24.6190   40.5470 H   0  0  0  0  0  0  0  0  0  0  0  0
   37.5420   24.1310   42.1000 Cl  0  0  0  0  0  0  0  0  0  0  0  0
   36.9460   25.0310   40.7040 C   0  0  0  0  0  0  0  0  0  0  0  0
   37.1230   26.4180   40.7630 C   0  0  0  0  0  0  0  0  0  0  0  0
   36.6590   27.1200   39.6770 C   0  0  0  0  0  0  0  0  0  0  0  0
   36.7540   28.1750   39.6410 H   0  0  0  0  0  0  0  0  0  0  0  0
   36.0570   26.5240   38.5910 C   0  0  0  0  0  0  0  0  0  0  0  0
   35.6930   27.0680   37.7380 H   0  0  0  0  0  0  0  0  0  0  0  0
   35.9020   25.1560   38.5720 C   0  0  0  0  0  3  0  0  0  0  0  0
   36.3500   24.4060   39.6370 C   0  0  0  0  0  3  0  0  0  0  0  0
  1  6  1  0  0  0  0
  1  2  1  0  0  0  0
  2  3  1  0  0  0  0
  2  7  1  1  0  0  0
  3  9  1  0  0  0  0
  3  4  1  0  0  0  0
  4 10  1  0  0  0  0
  5  4  1  0  0  0  0
  5 12  1  0  0  0  0
  6  5  1  0  0  0  0
  8  3  1  0  0  0  0
 11  5  1  0  0  0  0
 13  6  1  0  0  0  0
 14  6  1  0  0  0  0
 15 21  1  0  0  0  0
 16  1  1  0  0  0  0
 16 15  2  0  0  0  0
 17 16  1  0  0  0  0
 18 17  2  0  0  0  0
 18 19  1  0  0  0  0
 19 20  2  0  0  0  0
 20 15  1  0  0  0  0
 22 17  1  0  0  0  0
 23 19  1  0  0  0  0
 25 26  1  0  0  0  0
 25 24  1  0  0  0  0
 26  2  1  0  0  0  0
 27 26  2  0  0  0  0
 28 27  1  0  0  0  0
 29 27  1  0  0  0  0
 30 29  1  0  0  0  0
 31 29  2  0  0  0  0
 31 32  1  0  0  0  0
 32 25  2  0  0  0  0
M  END
>  <minimizedAffinity>
-4.62426853

$$$$
