
 OpenBabel03242521133D

 28 30  0  0  0  0  0  0  0  0999 V2000
   44.5290   35.7810   44.9230 C   0  0  0  0  0  0  0  0  0  0  0  0
   45.1390   35.7270   43.6450 C   0  0  0  0  0  0  0  0  0  0  0  0
   46.0090   34.6510   43.4020 C   0  0  0  0  0  0  0  0  0  0  0  0
   46.2170   33.7380   44.3830 N   0  0  0  0  0  0  0  0  0  0  0  0
   45.6240   33.8170   45.5860 C   0  0  0  0  0  0  0  0  0  0  0  0
   44.7780   34.8330   45.8680 N   0  0  0  0  0  0  0  0  0  0  0  0
   43.8480   36.6000   45.1470 H   0  0  0  0  0  0  0  0  0  0  0  0
   44.9430   36.4760   42.8990 H   0  0  0  0  0  0  0  0  0  0  0  0
   46.6290   34.5890   42.1200 N   0  0  0  0  0  0  0  0  0  0  0  0
   47.8770   35.1160   42.0090 C   0  0  0  0  0  0  0  0  0  0  0  0
   48.5090   35.0760   40.7690 C   0  0  0  0  0  0  0  0  0  0  0  0
   47.8170   34.4970   39.7230 C   0  0  0  0  0  0  0  0  0  0  0  0
   48.4080   34.4650   38.5890 O   0  0  0  0  0  0  0  0  0  0  0  0
   46.5670   33.9660   39.8280 N   0  0  0  0  0  0  0  0  0  0  0  0
   46.0260   34.0450   41.0620 C   0  0  0  0  0  0  0  0  0  0  0  0
   44.8940   33.5950   41.2760 O   0  0  0  0  0  0  0  0  0  0  0  0
   48.3600   35.5570   42.8760 H   0  0  0  0  0  0  0  0  0  0  0  0
   49.4940   35.4800   40.6350 H   0  0  0  0  0  0  0  0  0  0  0  0
   46.0850   33.5390   39.0070 H   0  0  0  0  0  0  0  0  0  0  0  0
   47.4330   31.6530   44.7160 Cl  0  0  0  0  0  0  0  0  0  0  0  0
   46.7180   31.7420   46.3130 C   0  0  0  0  0  0  0  0  0  0  0  0
   45.8840   32.8040   46.6070 C   0  0  0  0  0  0  0  0  0  0  0  0
   45.3010   32.9070   47.8620 C   0  0  0  0  0  0  0  0  0  0  0  0
   44.6580   33.7690   48.0190 H   0  0  0  0  0  0  0  0  0  0  0  0
   45.5290   31.9570   48.8580 C   0  0  0  0  0  0  0  0  0  0  0  0
   45.0490   32.0840   49.8200 H   0  0  0  0  0  0  0  0  0  0  0  0
   46.3620   30.9160   48.5340 C   0  0  0  0  0  0  0  0  0  0  0  0
   46.9560   30.7880   47.2930 C   0  0  0  0  0  0  0  0  0  0  0  0
  1  7  1  0  0  0  0
  1  6  1  0  0  0  0
  2  1  2  0  0  0  0
  3  2  1  0  0  0  0
  3  4  2  0  0  0  0
  4  5  1  0  0  0  0
  5  6  2  0  0  0  0
  5 22  1  0  0  0  0
  8  2  1  0  0  0  0
  9  3  1  0  0  0  0
 10  9  1  0  0  0  0
 10 17  1  0  0  0  0
 11 10  2  0  0  0  0
 12 14  1  0  0  0  0
 12 11  1  0  0  0  0
 13 12  2  0  0  0  0
 14 15  1  0  0  0  0
 15 16  2  0  0  0  0
 15  9  1  0  0  0  0
 18 11  1  0  0  0  0
 19 14  1  0  0  0  0
 20 21  1  0  0  0  0
 21 22  2  0  0  0  0
 21 28  1  0  0  0  0
 22 23  1  0  0  0  0
 23 24  1  0  0  0  0
 23 25  2  0  0  0  0
 25 26  1  0  0  0  0
 27 25  1  0  0  0  0
 28 27  2  0  0  0  0
M  END
>  <minimizedAffinity>
-6.78252983

>  <minimizedRMSD>
0.49501428

$$$$
