
 OpenBabel03252508303D

 39 42  0  0  1  0  0  0  0  0999 V2000
   36.4650   30.4350   39.5440 N   0  0  0  0  0  0  0  0  0  0  0  0
   36.9190   31.2450   38.4090 C   0  0  2  0  0  0  0  0  0  0  0  0
   37.3920   30.4250   37.2700 C   0  0  0  0  0  0  0  0  0  0  0  0
   37.1100   29.0070   37.4330 N   0  0  0  0  0  0  0  0  0  0  0  0
   37.4430   28.4540   38.6930 C   0  0  0  0  0  0  0  0  0  0  0  0
   37.5820   29.4930   39.7750 C   0  0  2  0  0  0  0  0  0  0  0  0
   36.4970   31.0740   40.3720 H   0  0  0  0  0  0  0  0  0  0  0  0
   36.0790   31.9430   38.1440 H   0  0  0  0  0  0  0  0  0  0  0  0
   38.4670   30.4010   37.0580 H   0  0  0  0  0  0  0  0  0  0  0  0
   36.7910   30.7270   36.3710 H   0  0  0  0  0  0  0  0  0  0  0  0
   37.5050   28.5160   36.6110 H   0  0  0  0  0  0  0  0  0  0  0  0
   36.5760   27.8110   39.0070 H   0  0  0  0  0  0  0  0  0  0  0  0
   38.3220   27.7750   38.6990 H   0  0  0  0  0  0  0  0  0  0  0  0
   38.5290   30.0340   39.5770 H   0  0  0  0  0  0  0  0  0  0  0  0
   39.7210   30.5490   41.6930 Cl  0  0  0  0  0  0  0  0  0  0  0  0
   38.5060   29.3440   42.0690 C   0  0  0  0  0  0  0  0  0  0  0  0
   37.5830   28.9350   41.1260 C   0  0  0  0  0  0  0  0  0  0  0  0
   36.6330   27.9800   41.4510 C   0  0  0  0  0  0  0  0  0  0  0  0
   35.8970   27.6430   40.7280 H   0  0  0  0  0  0  0  0  0  0  0  0
   36.5770   27.4150   42.7000 C   0  0  0  0  0  0  0  0  0  0  0  0
   35.8450   26.6650   42.9850 H   0  0  0  0  0  0  0  0  0  0  0  0
   37.4910   27.8000   43.6800 C   0  0  0  0  0  3  0  0  0  0  0  0
   38.4280   28.7630   43.3080 C   0  0  0  0  0  3  0  0  0  0  0  0
   39.9480   33.0590   39.1350 C   0  0  0  0  0  0  0  0  0  0  0  0
   38.9850   33.6700   39.9470 C   0  0  0  0  0  0  0  0  0  0  0  0
   37.7590   33.0540   39.7680 C   0  0  0  0  0  0  0  0  0  0  0  0
   37.9970   32.1040   38.8680 N   0  0  0  0  0  0  0  0  0  0  0  0
   39.2710   32.1050   38.4980 N   0  0  0  0  0  0  0  0  0  0  0  0
   39.2980   34.5050   40.5840 H   0  0  0  0  0  0  0  0  0  0  0  0
   37.0090   33.5170   40.3990 H   0  0  0  0  0  0  0  0  0  0  0  0
   43.5240   33.8840   39.9640 C   0  0  0  0  0  0  0  0  0  0  0  0
   42.1620   33.5000   40.1880 C   0  0  0  0  0  0  0  0  0  0  0  0
   41.3580   33.4420   39.0770 C   0  0  0  0  0  0  0  0  0  0  0  0
   41.8720   33.7400   37.8530 N   0  0  0  0  0  0  0  0  0  0  0  0
   43.1600   34.0980   37.6710 C   0  0  0  0  0  0  0  0  0  0  0  0
   43.9620   34.1610   38.7430 N   0  0  0  0  0  0  0  0  0  0  0  0
   44.1450   33.9250   40.8510 H   0  0  0  0  0  0  0  0  0  0  0  0
   41.7420   33.2620   41.1490 H   0  0  0  0  0  0  0  0  0  0  0  0
   43.4460   34.3100   36.6480 H   0  0  0  0  0  0  0  0  0  0  0  0
  1  6  1  0  0  0  0
  1  7  1  0  0  0  0
  2  8  1  6  0  0  0
  2 27  1  0  0  0  0
  2  1  1  0  0  0  0
  3  4  1  0  0  0  0
  3  2  1  0  0  0  0
  4  5  1  0  0  0  0
  5 13  1  0  0  0  0
  5 12  1  0  0  0  0
  5  6  1  0  0  0  0
  6 14  1  6  0  0  0
  6 17  1  0  0  0  0
  9  3  1  0  0  0  0
 10  3  1  0  0  0  0
 11  4  1  0  0  0  0
 15 16  1  0  0  0  0
 16 23  1  0  0  0  0
 17 18  1  0  0  0  0
 17 16  2  0  0  0  0
 18 20  2  0  0  0  0
 19 18  1  0  0  0  0
 20 21  1  0  0  0  0
 20 22  1  0  0  0  0
 23 22  2  0  0  0  0
 24 25  1  0  0  0  0
 25 29  1  0  0  0  0
 26 25  2  0  0  0  0
 26 30  1  0  0  0  0
 27 26  1  0  0  0  0
 28 27  1  0  0  0  0
 28 24  2  0  0  0  0
 31 32  1  0  0  0  0
 31 37  1  0  0  0  0
 32 38  1  0  0  0  0
 33 24  1  0  0  0  0
 33 32  2  0  0  0  0
 34 33  1  0  0  0  0
 35 34  2  0  0  0  0
 35 36  1  0  0  0  0
 36 31  2  0  0  0  0
 39 35  1  0  0  0  0
M  END
>  <minimizedAffinity>
-5.88892698

$$$$

 OpenBabel03252508303D

 39 42  0  0  1  0  0  0  0  0999 V2000
   39.0810   32.1190   41.9590 N   0  0  0  0  0  0  0  0  0  0  0  0
   39.4420   33.0900   40.9210 C   0  0  2  0  0  0  0  0  0  0  0  0
   38.3810   33.2620   39.9020 C   0  0  0  0  0  0  0  0  0  0  0  0
   37.1350   32.6010   40.2580 N   0  0  0  0  0  0  0  0  0  0  0  0
   37.2550   31.2670   40.7160 C   0  0  0  0  0  0  0  0  0  0  0  0
   38.6430   30.9300   41.1960 C   0  0  2  0  0  0  0  0  0  0  0  0
   39.9870   31.8220   42.3910 H   0  0  0  0  0  0  0  0  0  0  0  0
   39.7250   34.0430   41.4440 H   0  0  0  0  0  0  0  0  0  0  0  0
   38.5530   32.8560   38.8990 H   0  0  0  0  0  0  0  0  0  0  0  0
   38.1200   34.3540   39.8750 H   0  0  0  0  0  0  0  0  0  0  0  0
   36.4720   32.7480   39.4760 H   0  0  0  0  0  0  0  0  0  0  0  0
   36.5960   31.1720   41.6220 H   0  0  0  0  0  0  0  0  0  0  0  0
   36.8930   30.4870   40.0120 H   0  0  0  0  0  0  0  0  0  0  0  0
   39.2820   30.8530   40.2920 H   0  0  0  0  0  0  0  0  0  0  0  0
   41.0710   29.1300   40.7130 Cl  0  0  0  0  0  0  0  0  0  0  0  0
   39.7630   28.8150   41.8360 C   0  0  0  0  0  0  0  0  0  0  0  0
   38.7090   29.6970   41.9780 C   0  0  0  0  0  0  0  0  0  0  0  0
   37.6880   29.4230   42.8730 C   0  0  0  0  0  0  0  0  0  0  0  0
   36.8500   30.1000   43.0030 H   0  0  0  0  0  0  0  0  0  0  0  0
   37.6880   28.2840   43.6390 C   0  0  0  0  0  0  0  0  0  0  0  0
   36.9030   28.0410   44.3490 H   0  0  0  0  0  0  0  0  0  0  0  0
   38.7330   27.3690   43.5260 C   0  0  0  0  0  3  0  0  0  0  0  0
   39.7370   27.6860   42.6120 C   0  0  0  0  0  3  0  0  0  0  0  0
   42.1000   31.8500   38.8260 C   0  0  0  0  0  0  0  0  0  0  0  0
   42.7450   32.2010   40.0180 C   0  0  0  0  0  0  0  0  0  0  0  0
   41.8220   32.6920   40.9250 C   0  0  0  0  0  0  0  0  0  0  0  0
   40.6620   32.6320   40.2780 N   0  0  0  0  0  0  0  0  0  0  0  0
   40.8210   32.1410   39.0560 N   0  0  0  0  0  0  0  0  0  0  0  0
   43.8280   32.0540   40.0850 H   0  0  0  0  0  0  0  0  0  0  0  0
   42.3130   32.9600   41.8540 H   0  0  0  0  0  0  0  0  0  0  0  0
   42.9440   29.9090   35.7160 C   0  0  0  0  0  0  0  0  0  0  0  0
   42.1660   30.3610   36.8300 C   0  0  0  0  0  0  0  0  0  0  0  0
   42.7630   31.2830   37.6520 C   0  0  0  0  0  0  0  0  0  0  0  0
   44.0260   31.7130   37.3820 N   0  0  0  0  0  0  0  0  0  0  0  0
   44.7360   31.2700   36.3250 C   0  0  0  0  0  0  0  0  0  0  0  0
   44.1710   30.3700   35.5090 N   0  0  0  0  0  0  0  0  0  0  0  0
   42.4580   29.1810   35.0760 H   0  0  0  0  0  0  0  0  0  0  0  0
   41.1680   30.0290   37.0560 H   0  0  0  0  0  0  0  0  0  0  0  0
   45.7290   31.6900   36.2190 H   0  0  0  0  0  0  0  0  0  0  0  0
  1  7  1  0  0  0  0
  2  8  1  1  0  0  0
  2  1  1  0  0  0  0
  3  4  1  0  0  0  0
  3  2  1  0  0  0  0
  4  5  1  0  0  0  0
  5  6  1  0  0  0  0
  5 12  1  0  0  0  0
  6 14  1  6  0  0  0
  6  1  1  0  0  0  0
  6 17  1  0  0  0  0
  9  3  1  0  0  0  0
 10  3  1  0  0  0  0
 11  4  1  0  0  0  0
 13  5  1  0  0  0  0
 15 16  1  0  0  0  0
 16 17  2  0  0  0  0
 16 23  1  0  0  0  0
 17 18  1  0  0  0  0
 18 19  1  0  0  0  0
 18 20  2  0  0  0  0
 20 21  1  0  0  0  0
 22 20  1  0  0  0  0
 23 22  2  0  0  0  0
 24 28  2  0  0  0  0
 24 25  1  0  0  0  0
 25 29  1  0  0  0  0
 25 26  2  0  0  0  0
 26 30  1  0  0  0  0
 27  2  1  0  0  0  0
 27 26  1  0  0  0  0
 28 27  1  0  0  0  0
 31 32  1  0  0  0  0
 32 38  1  0  0  0  0
 32 33  2  0  0  0  0
 33 24  1  0  0  0  0
 34 33  1  0  0  0  0
 35 34  2  0  0  0  0
 36 31  2  0  0  0  0
 36 35  1  0  0  0  0
 37 31  1  0  0  0  0
 39 35  1  0  0  0  0
M  END
>  <minimizedAffinity>
-5.77528334

$$$$

 OpenBabel03252508303D

 39 42  0  0  1  0  0  0  0  0999 V2000
   39.2260   31.8780   39.3430 N   0  0  0  0  0  0  0  0  0  0  0  0
   37.8020   31.7990   39.0030 C   0  0  2  0  0  0  0  0  0  0  0  0
   37.0540   33.0220   39.3730 C   0  0  0  0  0  0  0  0  0  0  0  0
   37.9170   34.1130   39.7950 N   0  0  0  0  0  0  0  0  0  0  0  0
   38.9260   33.7740   40.7300 C   0  0  0  0  0  0  0  0  0  0  0  0
   39.2280   32.2990   40.7620 C   0  0  2  0  0  0  0  0  0  0  0  0
   39.5610   30.8870   39.3730 H   0  0  0  0  0  0  0  0  0  0  0  0
   37.7370   31.5430   37.9100 H   0  0  0  0  0  0  0  0  0  0  0  0
   36.3560   32.9690   40.2170 H   0  0  0  0  0  0  0  0  0  0  0  0
   36.5580   33.4030   38.4400 H   0  0  0  0  0  0  0  0  0  0  0  0
   37.3070   34.9060   40.0650 H   0  0  0  0  0  0  0  0  0  0  0  0
   39.8740   34.2640   40.3790 H   0  0  0  0  0  0  0  0  0  0  0  0
   38.7680   34.1550   41.7610 H   0  0  0  0  0  0  0  0  0  0  0  0
   38.3680   31.8080   41.2620 H   0  0  0  0  0  0  0  0  0  0  0  0
   39.0930   30.0770   42.8640 Cl  0  0  0  0  0  0  0  0  0  0  0  0
   40.5230   30.9830   42.4150 C   0  0  0  0  0  0  0  0  0  0  0  0
   40.4750   31.9710   41.4500 C   0  0  0  0  0  0  0  0  0  0  0  0
   41.6220   32.6720   41.1140 C   0  0  0  0  0  0  0  0  0  0  0  0
   41.6100   33.4520   40.3590 H   0  0  0  0  0  0  0  0  0  0  0  0
   42.8260   32.4160   41.7200 C   0  0  0  0  0  0  0  0  0  0  0  0
   43.7420   32.9480   41.4790 H   0  0  0  0  0  0  0  0  0  0  0  0
   42.9170   31.4280   42.6990 C   0  0  0  0  0  3  0  0  0  0  0  0
   41.7380   30.7480   43.0040 C   0  0  0  0  0  3  0  0  0  0  0  0
   36.8590   28.6360   40.4520 C   0  0  0  0  0  0  0  0  0  0  0  0
   35.9360   29.5430   40.9880 C   0  0  0  0  0  0  0  0  0  0  0  0
   36.1860   30.8120   40.4990 C   0  0  0  0  0  0  0  0  0  0  0  0
   37.2340   30.6550   39.6950 N   0  0  0  0  0  0  0  0  0  0  0  0
   37.6270   29.3890   39.6660 N   0  0  0  0  0  0  0  0  0  0  0  0
   35.1790   29.1620   41.6820 H   0  0  0  0  0  0  0  0  0  0  0  0
   35.4710   31.5190   40.9050 H   0  0  0  0  0  0  0  0  0  0  0  0
   37.1550   25.2650   42.0970 C   0  0  0  0  0  0  0  0  0  0  0  0
   37.1800   26.6920   41.9770 C   0  0  0  0  0  0  0  0  0  0  0  0
   36.8850   27.2020   40.7380 C   0  0  0  0  0  0  0  0  0  0  0  0
   36.5910   26.3580   39.7110 N   0  0  0  0  0  0  0  0  0  0  0  0
   36.5750   25.0170   39.8530 C   0  0  0  0  0  0  0  0  0  0  0  0
   36.8600   24.4990   41.0550 N   0  0  0  0  0  0  0  0  0  0  0  0
   37.3910   24.8790   43.0820 H   0  0  0  0  0  0  0  0  0  0  0  0
   37.4110   27.3710   42.7790 H   0  0  0  0  0  0  0  0  0  0  0  0
   36.3260   24.4550   38.9600 H   0  0  0  0  0  0  0  0  0  0  0  0
  1  7  1  0  0  0  0
  1  6  1  0  0  0  0
  2  8  1  6  0  0  0
  2  1  1  0  0  0  0
  2  3  1  0  0  0  0
  2 27  1  0  0  0  0
  3  4  1  0  0  0  0
  3  9  1  0  0  0  0
  4 11  1  0  0  0  0
  4  5  1  0  0  0  0
  5  6  1  0  0  0  0
  5 13  1  0  0  0  0
  6 14  1  1  0  0  0
  6 17  1  0  0  0  0
 10  3  1  0  0  0  0
 12  5  1  0  0  0  0
 16 15  1  0  0  0  0
 16 23  1  0  0  0  0
 17 16  2  0  0  0  0
 18 17  1  0  0  0  0
 18 20  2  0  0  0  0
 19 18  1  0  0  0  0
 20 22  1  0  0  0  0
 21 20  1  0  0  0  0
 22 23  2  0  0  0  0
 24 33  1  0  0  0  0
 24 25  1  0  0  0  0
 25 29  1  0  0  0  0
 26 30  1  0  0  0  0
 26 25  2  0  0  0  0
 27 26  1  0  0  0  0
 28 27  1  0  0  0  0
 28 24  2  0  0  0  0
 31 37  1  0  0  0  0
 32 31  1  0  0  0  0
 32 38  1  0  0  0  0
 33 32  2  0  0  0  0
 34 35  2  0  0  0  0
 34 33  1  0  0  0  0
 35 36  1  0  0  0  0
 36 31  2  0  0  0  0
 39 35  1  0  0  0  0
M  END
>  <minimizedAffinity>
-5.76557207

$$$$

 OpenBabel03252508303D

 39 42  0  0  1  0  0  0  0  0999 V2000
   35.3820   29.9080   40.4520 N   0  0  0  0  0  0  0  0  0  0  0  0
   36.4240   30.3470   41.3850 C   0  0  2  0  0  0  0  0  0  0  0  0
   37.4170   31.2470   40.7550 C   0  0  0  0  0  0  0  0  0  0  0  0
   37.0350   31.6710   39.4170 N   0  0  0  0  0  0  0  0  0  0  0  0
   36.5860   30.6450   38.5510 C   0  0  0  0  0  0  0  0  0  0  0  0
   36.1400   29.4070   39.2840 C   0  0  2  0  0  0  0  0  0  0  0  0
   34.9730   29.0430   40.8770 H   0  0  0  0  0  0  0  0  0  0  0  0
   35.9040   30.7990   42.2720 H   0  0  0  0  0  0  0  0  0  0  0  0
   38.4260   30.8600   40.5710 H   0  0  0  0  0  0  0  0  0  0  0  0
   37.4330   32.1960   41.3550 H   0  0  0  0  0  0  0  0  0  0  0  0
   37.8010   32.2640   39.0490 H   0  0  0  0  0  0  0  0  0  0  0  0
   35.6650   31.0330   38.0350 H   0  0  0  0  0  0  0  0  0  0  0  0
   37.2840   30.3740   37.7310 H   0  0  0  0  0  0  0  0  0  0  0  0
   37.0580   28.9130   39.6620 H   0  0  0  0  0  0  0  0  0  0  0  0
   37.1430   26.5180   39.1470 Cl  0  0  0  0  0  0  0  0  0  0  0  0
   35.7320   27.1580   38.3280 C   0  0  0  0  0  0  0  0  0  0  0  0
   35.3650   28.4830   38.4570 C   0  0  0  0  0  0  0  0  0  0  0  0
   34.2450   28.9630   37.7990 C   0  0  0  0  0  0  0  0  0  0  0  0
   33.9360   30.0000   37.8850 H   0  0  0  0  0  0  0  0  0  0  0  0
   33.4720   28.1510   37.0070 C   0  0  0  0  0  0  0  0  0  0  0  0
   32.5880   28.4970   36.4790 H   0  0  0  0  0  0  0  0  0  0  0  0
   33.8080   26.8080   36.8500 C   0  0  0  0  0  3  0  0  0  0  0  0
   34.9430   26.3700   37.5320 C   0  0  0  0  0  3  0  0  0  0  0  0
   38.6240   27.7430   42.5560 C   0  0  0  0  0  0  0  0  0  0  0  0
   37.3420   27.2200   42.7610 C   0  0  0  0  0  0  0  0  0  0  0  0
   36.3890   28.1310   42.3400 C   0  0  0  0  0  0  0  0  0  0  0  0
   37.0980   29.1670   41.8990 N   0  0  0  0  0  0  0  0  0  0  0  0
   38.3990   28.9430   42.0230 N   0  0  0  0  0  0  0  0  0  0  0  0
   37.2540   26.2200   43.2010 H   0  0  0  0  0  0  0  0  0  0  0  0
   35.3930   27.7300   42.4900 H   0  0  0  0  0  0  0  0  0  0  0  0
   42.1050   26.8570   43.6760 C   0  0  0  0  0  0  0  0  0  0  0  0
   40.9620   27.6790   43.4160 C   0  0  0  0  0  0  0  0  0  0  0  0
   39.8720   27.0470   42.8720 C   0  0  0  0  0  0  0  0  0  0  0  0
   39.9230   25.7120   42.6120 N   0  0  0  0  0  0  0  0  0  0  0  0
   41.0130   24.9620   42.8680 C   0  0  0  0  0  0  0  0  0  0  0  0
   42.0890   25.5590   43.4000 N   0  0  0  0  0  0  0  0  0  0  0  0
   42.9570   27.3700   44.1050 H   0  0  0  0  0  0  0  0  0  0  0  0
   40.9070   28.7350   43.6160 H   0  0  0  0  0  0  0  0  0  0  0  0
   40.9280   23.9110   42.6160 H   0  0  0  0  0  0  0  0  0  0  0  0
  1  7  1  0  0  0  0
  1  2  1  0  0  0  0
  2 27  1  0  0  0  0
  2  8  1  1  0  0  0
  3 10  1  0  0  0  0
  3  2  1  0  0  0  0
  4  3  1  0  0  0  0
  5  6  1  0  0  0  0
  5  4  1  0  0  0  0
  6 14  1  1  0  0  0
  6  1  1  0  0  0  0
  9  3  1  0  0  0  0
 11  4  1  0  0  0  0
 12  5  1  0  0  0  0
 13  5  1  0  0  0  0
 16 17  1  0  0  0  0
 16 15  1  0  0  0  0
 17  6  1  0  0  0  0
 18 19  1  0  0  0  0
 18 17  2  0  0  0  0
 20 18  1  0  0  0  0
 21 20  1  0  0  0  0
 22 20  2  0  0  0  0
 22 23  1  0  0  0  0
 23 16  2  0  0  0  0
 24 25  1  0  0  0  0
 24 33  1  0  0  0  0
 25 29  1  0  0  0  0
 26 30  1  0  0  0  0
 26 25  2  0  0  0  0
 27 28  1  0  0  0  0
 27 26  1  0  0  0  0
 28 24  2  0  0  0  0
 31 37  1  0  0  0  0
 32 38  1  0  0  0  0
 32 31  1  0  0  0  0
 33 32  2  0  0  0  0
 34 35  2  0  0  0  0
 34 33  1  0  0  0  0
 35 36  1  0  0  0  0
 36 31  2  0  0  0  0
 39 35  1  0  0  0  0
M  END
>  <minimizedAffinity>
-5.74042654

$$$$

 OpenBabel03252508303D

 39 42  0  0  1  0  0  0  0  0999 V2000
   40.2380   29.7550   40.5810 N   0  0  0  0  0  0  0  0  0  0  0  0
   40.4220   30.8870   39.6680 C   0  0  2  0  0  0  0  0  0  0  0  0
   40.6450   32.1670   40.3780 C   0  0  0  0  0  0  0  0  0  0  0  0
   40.8460   31.9990   41.8080 N   0  0  0  0  0  0  0  0  0  0  0  0
   39.9190   31.1530   42.4650 C   0  0  0  0  0  0  0  0  0  0  0  0
   39.1980   30.2250   41.5230 C   0  0  2  0  0  0  0  0  0  0  0  0
   39.7540   29.0180   40.0180 H   0  0  0  0  0  0  0  0  0  0  0  0
   41.2520   30.6110   38.9620 H   0  0  0  0  0  0  0  0  0  0  0  0
   39.8440   32.9150   40.3660 H   0  0  0  0  0  0  0  0  0  0  0  0
   41.6180   32.5880   40.0070 H   0  0  0  0  0  0  0  0  0  0  0  0
   40.9590   32.9430   42.2190 H   0  0  0  0  0  0  0  0  0  0  0  0
   40.5130   30.4840   43.1460 H   0  0  0  0  0  0  0  0  0  0  0  0
   39.1910   31.6670   43.1280 H   0  0  0  0  0  0  0  0  0  0  0  0
   38.4790   30.8460   40.9520 H   0  0  0  0  0  0  0  0  0  0  0  0
   36.1930   29.9720   40.9990 Cl  0  0  0  0  0  0  0  0  0  0  0  0
   37.1490   28.9260   42.0280 C   0  0  0  0  0  0  0  0  0  0  0  0
   38.5060   29.1280   42.1970 C   0  0  0  0  0  0  0  0  0  0  0  0
   39.2390   28.2850   43.0170 C   0  0  0  0  0  0  0  0  0  0  0  0
   40.3050   28.4230   43.1650 H   0  0  0  0  0  0  0  0  0  0  0  0
   38.6510   27.2360   43.6800 C   0  0  0  0  0  0  0  0  0  0  0  0
   39.1980   26.5580   44.3290 H   0  0  0  0  0  0  0  0  0  0  0  0
   37.2860   26.9980   43.5360 C   0  0  0  0  0  3  0  0  0  0  0  0
   36.5900   27.8720   42.7020 C   0  0  0  0  0  3  0  0  0  0  0  0
   37.5070   30.5270   37.5780 C   0  0  0  0  0  0  0  0  0  0  0  0
   37.5930   31.9060   37.8050 C   0  0  0  0  0  0  0  0  0  0  0  0
   38.6900   32.1850   38.5990 C   0  0  0  0  0  0  0  0  0  0  0  0
   39.2350   30.9950   38.8360 N   0  0  0  0  0  0  0  0  0  0  0  0
   38.5490   30.0290   38.2420 N   0  0  0  0  0  0  0  0  0  0  0  0
   36.8320   32.5540   37.3550 H   0  0  0  0  0  0  0  0  0  0  0  0
   38.7670   33.2520   38.7740 H   0  0  0  0  0  0  0  0  0  0  0  0
   34.4910   28.6200   36.3860 C   0  0  0  0  0  0  0  0  0  0  0  0
   35.4170   29.1960   37.3130 C   0  0  0  0  0  0  0  0  0  0  0  0
   36.4780   29.8750   36.7680 C   0  0  0  0  0  0  0  0  0  0  0  0
   36.5990   29.9690   35.4160 N   0  0  0  0  0  0  0  0  0  0  0  0
   35.7100   29.4160   34.5650 C   0  0  0  0  0  0  0  0  0  0  0  0
   34.6670   28.7490   35.0770 N   0  0  0  0  0  0  0  0  0  0  0  0
   33.6600   28.0870   36.8320 H   0  0  0  0  0  0  0  0  0  0  0  0
   35.3350   29.1290   38.3840 H   0  0  0  0  0  0  0  0  0  0  0  0
   35.9180   29.5620   33.5120 H   0  0  0  0  0  0  0  0  0  0  0  0
  1  6  1  0  0  0  0
  2  8  1  6  0  0  0
  2  3  1  0  0  0  0
  2  1  1  0  0  0  0
  3  4  1  0  0  0  0
  4 11  1  0  0  0  0
  4  5  1  0  0  0  0
  5 13  1  0  0  0  0
  5 12  1  0  0  0  0
  6 14  1  6  0  0  0
  6 17  1  0  0  0  0
  6  5  1  0  0  0  0
  7  1  1  0  0  0  0
  9  3  1  0  0  0  0
 10  3  1  0  0  0  0
 15 16  1  0  0  0  0
 16 17  2  0  0  0  0
 16 23  1  0  0  0  0
 17 18  1  0  0  0  0
 18 19  1  0  0  0  0
 18 20  2  0  0  0  0
 20 21  1  0  0  0  0
 22 20  1  0  0  0  0
 23 22  2  0  0  0  0
 24 25  1  0  0  0  0
 24 28  2  0  0  0  0
 25 26  2  0  0  0  0
 26 30  1  0  0  0  0
 26 27  1  0  0  0  0
 27  2  1  0  0  0  0
 28 27  1  0  0  0  0
 29 25  1  0  0  0  0
 31 37  1  0  0  0  0
 31 32  1  0  0  0  0
 32 38  1  0  0  0  0
 33 32  2  0  0  0  0
 33 24  1  0  0  0  0
 34 33  1  0  0  0  0
 35 36  1  0  0  0  0
 35 34  2  0  0  0  0
 36 31  2  0  0  0  0
 39 35  1  0  0  0  0
M  END
>  <minimizedAffinity>
-5.72224617

$$$$

 OpenBabel03252508303D

 39 42  0  0  1  0  0  0  0  0999 V2000
   38.9610   31.4340   39.4020 N   0  0  0  0  0  0  0  0  0  0  0  0
   37.6270   30.8790   39.6510 C   0  0  2  0  0  0  0  0  0  0  0  0
   36.6400   31.9100   40.0470 C   0  0  0  0  0  0  0  0  0  0  0  0
   37.1420   33.2670   39.8970 N   0  0  0  0  0  0  0  0  0  0  0  0
   38.4360   33.5050   40.4210 C   0  0  0  0  0  0  0  0  0  0  0  0
   39.2380   32.2450   40.6080 C   0  0  2  0  0  0  0  0  0  0  0  0
   39.6200   30.6250   39.4840 H   0  0  0  0  0  0  0  0  0  0  0  0
   37.3330   30.3000   38.7340 H   0  0  0  0  0  0  0  0  0  0  0  0
   36.2950   31.9280   41.0870 H   0  0  0  0  0  0  0  0  0  0  0  0
   35.7850   31.8470   39.3210 H   0  0  0  0  0  0  0  0  0  0  0  0
   36.4000   33.9100   40.2280 H   0  0  0  0  0  0  0  0  0  0  0  0
   38.9950   34.1030   39.6510 H   0  0  0  0  0  0  0  0  0  0  0  0
   38.4700   34.1210   41.3450 H   0  0  0  0  0  0  0  0  0  0  0  0
   38.8020   31.7160   41.4800 H   0  0  0  0  0  0  0  0  0  0  0  0
   40.5570   30.7480   42.9300 Cl  0  0  0  0  0  0  0  0  0  0  0  0
   41.3560   31.8580   41.8350 C   0  0  0  0  0  0  0  0  0  0  0  0
   40.6650   32.4840   40.8150 C   0  0  0  0  0  0  0  0  0  0  0  0
   41.3220   33.3570   39.9630 C   0  0  0  0  0  0  0  0  0  0  0  0
   40.8020   33.8610   39.1550 H   0  0  0  0  0  0  0  0  0  0  0  0
   42.6610   33.6270   40.1010 C   0  0  0  0  0  0  0  0  0  0  0  0
   43.2040   34.3070   39.4500 H   0  0  0  0  0  0  0  0  0  0  0  0
   43.3930   33.0170   41.1170 C   0  0  0  0  0  3  0  0  0  0  0  0
   42.6910   32.1460   41.9490 C   0  0  0  0  0  3  0  0  0  0  0  0
   38.3530   28.1630   41.9080 C   0  0  0  0  0  0  0  0  0  0  0  0
   37.3790   28.9100   42.5800 C   0  0  0  0  0  0  0  0  0  0  0  0
   37.0020   29.9940   41.8090 C   0  0  0  0  0  0  0  0  0  0  0  0
   37.7400   29.8870   40.7070 N   0  0  0  0  0  0  0  0  0  0  0  0
   38.5270   28.8200   40.7620 N   0  0  0  0  0  0  0  0  0  0  0  0
   37.0550   28.5690   43.5700 H   0  0  0  0  0  0  0  0  0  0  0  0
   36.2420   30.5750   42.3200 H   0  0  0  0  0  0  0  0  0  0  0  0
   40.5410   25.6650   43.6770 C   0  0  0  0  0  0  0  0  0  0  0  0
   40.0590   26.9460   43.2560 C   0  0  0  0  0  0  0  0  0  0  0  0
   38.9710   26.9400   42.4190 C   0  0  0  0  0  0  0  0  0  0  0  0
   38.4160   25.7570   42.0400 N   0  0  0  0  0  0  0  0  0  0  0  0
   38.8910   24.5640   42.4520 C   0  0  0  0  0  0  0  0  0  0  0  0
   39.9520   24.5480   43.2700 N   0  0  0  0  0  0  0  0  0  0  0  0
   41.4000   25.6870   44.3370 H   0  0  0  0  0  0  0  0  0  0  0  0
   40.4870   27.8890   43.5470 H   0  0  0  0  0  0  0  0  0  0  0  0
   38.3610   23.6950   42.0800 H   0  0  0  0  0  0  0  0  0  0  0  0
  1  7  1  0  0  0  0
  1  2  1  0  0  0  0
  1  6  1  0  0  0  0
  2  8  1  6  0  0  0
  2  3  1  0  0  0  0
  2 27  1  0  0  0  0
  3  9  1  0  0  0  0
  4  3  1  0  0  0  0
  4 11  1  0  0  0  0
  4  5  1  0  0  0  0
  5  6  1  0  0  0  0
  5 13  1  0  0  0  0
  6 17  1  0  0  0  0
  6 14  1  1  0  0  0
 10  3  1  0  0  0  0
 12  5  1  0  0  0  0
 16 23  1  0  0  0  0
 16 15  1  0  0  0  0
 17 16  2  0  0  0  0
 18 20  2  0  0  0  0
 18 17  1  0  0  0  0
 19 18  1  0  0  0  0
 20 22  1  0  0  0  0
 21 20  1  0  0  0  0
 22 23  2  0  0  0  0
 24 33  1  0  0  0  0
 24 25  1  0  0  0  0
 25 29  1  0  0  0  0
 26 30  1  0  0  0  0
 26 25  2  0  0  0  0
 27 28  1  0  0  0  0
 27 26  1  0  0  0  0
 28 24  2  0  0  0  0
 31 37  1  0  0  0  0
 32 38  1  0  0  0  0
 32 31  2  0  0  0  0
 33 32  1  0  0  0  0
 34 33  2  0  0  0  0
 34 35  1  0  0  0  0
 35 36  2  0  0  0  0
 36 31  1  0  0  0  0
 39 35  1  0  0  0  0
M  END
>  <minimizedAffinity>
-5.62414598

$$$$

 OpenBabel03252508303D

 39 42  0  0  1  0  0  0  0  0999 V2000
   38.0380   29.6650   41.4530 N   0  0  0  0  0  0  0  0  0  0  0  0
   38.1340   31.0260   40.9170 C   0  0  2  0  0  0  0  0  0  0  0  0
   36.8100   31.6430   40.6740 C   0  0  0  0  0  0  0  0  0  0  0  0
   35.7080   30.8600   41.2130 N   0  0  0  0  0  0  0  0  0  0  0  0
   35.7390   29.4750   40.9210 C   0  0  0  0  0  0  0  0  0  0  0  0
   37.1060   28.9850   40.5260 C   0  0  2  0  0  0  0  0  0  0  0  0
   38.9640   29.2200   41.2520 H   0  0  0  0  0  0  0  0  0  0  0  0
   38.7840   31.6140   41.6210 H   0  0  0  0  0  0  0  0  0  0  0  0
   36.4820   31.7800   39.6370 H   0  0  0  0  0  0  0  0  0  0  0  0
   36.7790   32.6040   41.2550 H   0  0  0  0  0  0  0  0  0  0  0  0
   34.8300   31.3500   40.9660 H   0  0  0  0  0  0  0  0  0  0  0  0
   35.4940   28.9350   41.8760 H   0  0  0  0  0  0  0  0  0  0  0  0
   34.9800   29.1250   40.1890 H   0  0  0  0  0  0  0  0  0  0  0  0
   37.3010   29.3720   39.5050 H   0  0  0  0  0  0  0  0  0  0  0  0
   37.8810   27.6240   37.8950 Cl  0  0  0  0  0  0  0  0  0  0  0  0
   37.5850   26.8180   39.4220 C   0  0  0  0  0  0  0  0  0  0  0  0
   37.2390   27.5290   40.5550 C   0  0  0  0  0  0  0  0  0  0  0  0
   37.0100   26.8660   41.7500 C   0  0  0  0  0  0  0  0  0  0  0  0
   36.7370   27.4020   42.6530 H   0  0  0  0  0  0  0  0  0  0  0  0
   37.1160   25.5020   41.8480 C   0  0  0  0  0  0  0  0  0  0  0  0
   36.9430   24.9530   42.7700 H   0  0  0  0  0  0  0  0  0  0  0  0
   37.4630   24.7480   40.7280 C   0  0  0  0  0  3  0  0  0  0  0  0
   37.6840   25.4570   39.5490 C   0  0  0  0  0  3  0  0  0  0  0  0
   40.2980   30.4210   38.0980 C   0  0  0  0  0  0  0  0  0  0  0  0
   39.4410   31.4360   37.6550 C   0  0  0  0  0  0  0  0  0  0  0  0
   38.5510   31.7720   38.6590 C   0  0  0  0  0  0  0  0  0  0  0  0
   38.8780   30.9710   39.6700 N   0  0  0  0  0  0  0  0  0  0  0  0
   39.8950   30.1840   39.3460 N   0  0  0  0  0  0  0  0  0  0  0  0
   39.5700   31.8150   36.6350 H   0  0  0  0  0  0  0  0  0  0  0  0
   37.8880   32.5620   38.3260 H   0  0  0  0  0  0  0  0  0  0  0  0
   42.6580   28.0530   36.3730 C   0  0  0  0  0  0  0  0  0  0  0  0
   41.5640   28.4750   37.1950 C   0  0  0  0  0  0  0  0  0  0  0  0
   41.3750   29.8290   37.3040 C   0  0  0  0  0  0  0  0  0  0  0  0
   42.2060   30.6840   36.6480 N   0  0  0  0  0  0  0  0  0  0  0  0
   43.2290   30.2590   35.8790 C   0  0  0  0  0  0  0  0  0  0  0  0
   43.4310   28.9390   35.7590 N   0  0  0  0  0  0  0  0  0  0  0  0
   42.7940   26.9810   36.2970 H   0  0  0  0  0  0  0  0  0  0  0  0
   40.8990   27.8110   37.7200 H   0  0  0  0  0  0  0  0  0  0  0  0
   43.8170   31.0380   35.4100 H   0  0  0  0  0  0  0  0  0  0  0  0
  2  1  1  0  0  0  0
  2  8  1  1  0  0  0
  3  2  1  0  0  0  0
  3  4  1  0  0  0  0
  3 10  1  0  0  0  0
  5  4  1  0  0  0  0
  5 12  1  0  0  0  0
  6 14  1  6  0  0  0
  6 17  1  0  0  0  0
  6  5  1  0  0  0  0
  6  1  1  0  0  0  0
  7  1  1  0  0  0  0
  9  3  1  0  0  0  0
 11  4  1  0  0  0  0
 13  5  1  0  0  0  0
 15 16  1  0  0  0  0
 16 23  2  0  0  0  0
 16 17  1  0  0  0  0
 17 18  2  0  0  0  0
 18 20  1  0  0  0  0
 18 19  1  0  0  0  0
 20 21  1  0  0  0  0
 22 20  2  0  0  0  0
 23 22  1  0  0  0  0
 24 28  2  0  0  0  0
 25 24  1  0  0  0  0
 25 26  2  0  0  0  0
 26 27  1  0  0  0  0
 27  2  1  0  0  0  0
 28 27  1  0  0  0  0
 29 25  1  0  0  0  0
 30 26  1  0  0  0  0
 31 32  1  0  0  0  0
 32 33  2  0  0  0  0
 32 38  1  0  0  0  0
 33 24  1  0  0  0  0
 34 33  1  0  0  0  0
 35 34  2  0  0  0  0
 36 35  1  0  0  0  0
 36 31  2  0  0  0  0
 37 31  1  0  0  0  0
 39 35  1  0  0  0  0
M  END
>  <minimizedAffinity>
-5.57566833

$$$$

 OpenBabel03252508303D

 39 42  0  0  1  0  0  0  0  0999 V2000
   38.5720   30.4600   39.9310 N   0  0  0  0  0  0  0  0  0  0  0  0
   38.2730   31.1180   38.6550 C   0  0  2  0  0  0  0  0  0  0  0  0
   37.2420   32.1730   38.7800 C   0  0  0  0  0  0  0  0  0  0  0  0
   36.9030   32.4780   40.1610 N   0  0  0  0  0  0  0  0  0  0  0  0
   36.6590   31.3610   40.9960 C   0  0  0  0  0  0  0  0  0  0  0  0
   37.2410   30.0820   40.4550 C   0  0  2  0  0  0  0  0  0  0  0  0
   39.0130   29.5460   39.6770 H   0  0  0  0  0  0  0  0  0  0  0  0
   39.2490   31.4870   38.2370 H   0  0  0  0  0  0  0  0  0  0  0  0
   36.2480   31.9820   38.3580 H   0  0  0  0  0  0  0  0  0  0  0  0
   37.6900   33.1240   38.3860 H   0  0  0  0  0  0  0  0  0  0  0  0
   36.1560   33.1960   40.1460 H   0  0  0  0  0  0  0  0  0  0  0  0
   37.2030   31.5500   41.9620 H   0  0  0  0  0  0  0  0  0  0  0  0
   35.5980   31.2060   41.2880 H   0  0  0  0  0  0  0  0  0  0  0  0
   36.6090   29.7840   39.5930 H   0  0  0  0  0  0  0  0  0  0  0  0
   36.2770   27.3250   39.5360 Cl  0  0  0  0  0  0  0  0  0  0  0  0
   36.8940   27.7220   41.1270 C   0  0  0  0  0  0  0  0  0  0  0  0
   37.3050   29.0030   41.4400 C   0  0  0  0  0  0  0  0  0  0  0  0
   37.7890   29.2900   42.7060 C   0  0  0  0  0  0  0  0  0  0  0  0
   38.1170   30.2880   42.9760 H   0  0  0  0  0  0  0  0  0  0  0  0
   37.8750   28.3250   43.6790 C   0  0  0  0  0  0  0  0  0  0  0  0
   38.2500   28.5180   44.6800 H   0  0  0  0  0  0  0  0  0  0  0  0
   37.4710   27.0200   43.4030 C   0  0  0  0  0  3  0  0  0  0  0  0
   36.9920   26.7790   42.1160 C   0  0  0  0  0  3  0  0  0  0  0  0
   36.5940   28.9110   36.3510 C   0  0  0  0  0  0  0  0  0  0  0  0
   37.8980   28.4070   36.4130 C   0  0  0  0  0  0  0  0  0  0  0  0
   38.6570   29.1700   37.2820 C   0  0  0  0  0  0  0  0  0  0  0  0
   37.8170   30.1040   37.7190 N   0  0  0  0  0  0  0  0  0  0  0  0
   36.6150   29.9540   37.1800 N   0  0  0  0  0  0  0  0  0  0  0  0
   38.1430   27.5280   35.8070 H   0  0  0  0  0  0  0  0  0  0  0  0
   39.6680   28.7820   37.3400 H   0  0  0  0  0  0  0  0  0  0  0  0
   33.2620   28.0580   34.8260 C   0  0  0  0  0  0  0  0  0  0  0  0
   34.1980   28.6970   35.7020 C   0  0  0  0  0  0  0  0  0  0  0  0
   35.5140   28.3430   35.5440 C   0  0  0  0  0  0  0  0  0  0  0  0
   35.8610   27.4320   34.5950 N   0  0  0  0  0  0  0  0  0  0  0  0
   34.9580   26.8450   33.7830 C   0  0  0  0  0  0  0  0  0  0  0  0
   33.6670   27.1770   33.9210 N   0  0  0  0  0  0  0  0  0  0  0  0
   32.2270   28.3480   34.9640 H   0  0  0  0  0  0  0  0  0  0  0  0
   33.9390   29.4190   36.4560 H   0  0  0  0  0  0  0  0  0  0  0  0
   35.3610   26.1370   33.0690 H   0  0  0  0  0  0  0  0  0  0  0  0
  1  6  1  0  0  0  0
  2  8  1  6  0  0  0
  2  3  1  0  0  0  0
  2  1  1  0  0  0  0
  3  4  1  0  0  0  0
  4  5  1  0  0  0  0
  5 13  1  0  0  0  0
  5 12  1  0  0  0  0
  6 14  1  6  0  0  0
  6  5  1  0  0  0  0
  6 17  1  0  0  0  0
  7  1  1  0  0  0  0
  9  3  1  0  0  0  0
 10  3  1  0  0  0  0
 11  4  1  0  0  0  0
 15 16  1  0  0  0  0
 16 17  2  0  0  0  0
 16 23  1  0  0  0  0
 17 18  1  0  0  0  0
 18 19  1  0  0  0  0
 18 20  2  0  0  0  0
 20 21  1  0  0  0  0
 22 20  1  0  0  0  0
 23 22  2  0  0  0  0
 24 25  1  0  0  0  0
 24 28  2  0  0  0  0
 25 26  2  0  0  0  0
 26 30  1  0  0  0  0
 26 27  1  0  0  0  0
 27  2  1  0  0  0  0
 28 27  1  0  0  0  0
 29 25  1  0  0  0  0
 31 37  1  0  0  0  0
 31 32  1  0  0  0  0
 32 38  1  0  0  0  0
 33 32  2  0  0  0  0
 33 24  1  0  0  0  0
 34 33  1  0  0  0  0
 35 36  1  0  0  0  0
 35 34  2  0  0  0  0
 36 31  2  0  0  0  0
 39 35  1  0  0  0  0
M  END
>  <minimizedAffinity>
-5.571208

$$$$

 OpenBabel03252508303D

 39 42  0  0  1  0  0  0  0  0999 V2000
   38.5160   32.1430   37.5100 N   0  0  0  0  0  0  0  0  0  0  0  0
   37.3300   32.1750   38.3700 C   0  0  2  0  0  0  0  0  0  0  0  0
   37.5310   32.9810   39.5970 C   0  0  0  0  0  0  0  0  0  0  0  0
   38.7740   33.7360   39.5860 N   0  0  0  0  0  0  0  0  0  0  0  0
   39.9290   33.0140   39.1980 C   0  0  0  0  0  0  0  0  0  0  0  0
   39.6100   31.7590   38.4300 C   0  0  2  0  0  0  0  0  0  0  0  0
   38.3940   31.3020   36.8980 H   0  0  0  0  0  0  0  0  0  0  0  0
   36.4710   32.5250   37.7360 H   0  0  0  0  0  0  0  0  0  0  0  0
   37.6130   32.4570   40.5550 H   0  0  0  0  0  0  0  0  0  0  0  0
   36.7280   33.7660   39.6140 H   0  0  0  0  0  0  0  0  0  0  0  0
   38.8410   34.2360   40.4900 H   0  0  0  0  0  0  0  0  0  0  0  0
   40.4970   33.6670   38.4810 H   0  0  0  0  0  0  0  0  0  0  0  0
   40.6470   32.7900   40.0160 H   0  0  0  0  0  0  0  0  0  0  0  0
   39.1990   31.0330   39.1610 H   0  0  0  0  0  0  0  0  0  0  0  0
   39.7110   28.7070   38.2160 Cl  0  0  0  0  0  0  0  0  0  0  0  0
   40.9040   29.8230   37.5830 C   0  0  0  0  0  0  0  0  0  0  0  0
   40.7630   31.1890   37.7350 C   0  0  0  0  0  0  0  0  0  0  0  0
   41.7210   32.0490   37.2240 C   0  0  0  0  0  0  0  0  0  0  0  0
   41.6320   33.1250   37.3290 H   0  0  0  0  0  0  0  0  0  0  0  0
   42.8280   31.5810   36.5600 C   0  0  0  0  0  0  0  0  0  0  0  0
   43.5960   32.2290   36.1480 H   0  0  0  0  0  0  0  0  0  0  0  0
   43.0080   30.2100   36.3860 C   0  0  0  0  0  3  0  0  0  0  0  0
   42.0180   29.3840   36.9170 C   0  0  0  0  0  3  0  0  0  0  0  0
   36.7680   28.9300   39.8360 C   0  0  0  0  0  0  0  0  0  0  0  0
   36.1950   28.8300   38.5630 C   0  0  0  0  0  0  0  0  0  0  0  0
   36.3510   30.0240   37.8820 C   0  0  0  0  0  0  0  0  0  0  0  0
   36.9990   30.8090   38.7380 N   0  0  0  0  0  0  0  0  0  0  0  0
   37.2440   30.1740   39.8760 N   0  0  0  0  0  0  0  0  0  0  0  0
   35.7250   27.8820   38.2790 H   0  0  0  0  0  0  0  0  0  0  0  0
   35.9150   29.9520   36.8910 H   0  0  0  0  0  0  0  0  0  0  0  0
   37.0400   25.6070   41.5790 C   0  0  0  0  0  0  0  0  0  0  0  0
   37.0280   26.5410   40.4940 C   0  0  0  0  0  0  0  0  0  0  0  0
   36.8020   27.8530   40.8260 C   0  0  0  0  0  0  0  0  0  0  0  0
   36.6060   28.1980   42.1270 N   0  0  0  0  0  0  0  0  0  0  0  0
   36.6230   27.2970   43.1300 C   0  0  0  0  0  0  0  0  0  0  0  0
   36.8430   26.0100   42.8280 N   0  0  0  0  0  0  0  0  0  0  0  0
   37.2200   24.5750   41.3000 H   0  0  0  0  0  0  0  0  0  0  0  0
   37.1810   26.2830   39.4600 H   0  0  0  0  0  0  0  0  0  0  0  0
   36.4550   27.6980   44.1230 H   0  0  0  0  0  0  0  0  0  0  0  0
  1  2  1  0  0  0  0
  1  6  1  0  0  0  0
  2  8  1  6  0  0  0
  2 27  1  0  0  0  0
  2  3  1  0  0  0  0
  3 10  1  0  0  0  0
  3  9  1  0  0  0  0
  4  3  1  0  0  0  0
  4 11  1  0  0  0  0
  5  4  1  0  0  0  0
  5 13  1  0  0  0  0
  6 14  1  1  0  0  0
  6  5  1  0  0  0  0
  7  1  1  0  0  0  0
 12  5  1  0  0  0  0
 16 17  1  0  0  0  0
 16 15  1  0  0  0  0
 17  6  1  0  0  0  0
 18 19  1  0  0  0  0
 18 17  2  0  0  0  0
 20 18  1  0  0  0  0
 21 20  1  0  0  0  0
 22 20  2  0  0  0  0
 22 23  1  0  0  0  0
 23 16  2  0  0  0  0
 24 28  2  0  0  0  0
 24 33  1  0  0  0  0
 25 24  1  0  0  0  0
 26 25  2  0  0  0  0
 26 27  1  0  0  0  0
 27 28  1  0  0  0  0
 29 25  1  0  0  0  0
 30 26  1  0  0  0  0
 31 36  1  0  0  0  0
 32 33  1  0  0  0  0
 32 31  2  0  0  0  0
 33 34  2  0  0  0  0
 34 35  1  0  0  0  0
 35 39  1  0  0  0  0
 36 35  2  0  0  0  0
 37 31  1  0  0  0  0
 38 32  1  0  0  0  0
M  END
>  <minimizedAffinity>
-5.54282856

$$$$
