
 OpenBabel03252508323D

 32 34  0  0  1  0  0  0  0  0999 V2000
   44.3440   34.4900   41.9360 N   0  0  0  0  0  0  0  0  0  0  0  0
   44.6680   33.4530   41.0030 C   0  0  1  0  0  0  0  0  0  0  0  0
   44.1110   33.6360   39.6360 C   0  0  0  0  0  0  0  0  0  0  0  0
   42.7970   34.1610   39.5920 N   0  0  0  0  0  0  0  0  0  0  0  0
   42.4870   35.1810   40.5090 C   0  0  0  0  0  0  0  0  0  0  0  0
   43.6840   35.6100   41.3410 C   0  0  0  0  0  0  0  0  0  0  0  0
   44.3370   32.4890   41.4420 H   0  0  0  0  0  0  0  0  0  0  0  0
   44.8010   34.3030   39.0410 H   0  0  0  0  0  0  0  0  0  0  0  0
   44.1240   32.6590   39.1070 H   0  0  0  0  0  0  0  0  0  0  0  0
   42.3090   34.0860   38.7140 H   0  0  0  0  0  0  0  0  0  0  0  0
   42.1740   36.1010   39.9490 H   0  0  0  0  0  0  0  0  0  0  0  0
   41.6600   34.9680   41.2160 H   0  0  0  0  0  0  0  0  0  0  0  0
   43.4070   36.4330   41.9850 H   0  0  0  0  0  0  0  0  0  0  0  0
   44.3870   36.0550   40.5750 H   0  0  0  0  0  0  0  0  0  0  0  0
   44.4290   35.3710   44.1450 C   0  0  0  0  0  0  0  0  0  0  0  0
   44.6990   34.3040   43.2950 C   0  0  0  0  0  0  0  0  0  0  0  0
   45.2810   33.1740   43.8390 C   0  0  0  0  0  0  0  0  0  0  0  0
   45.5720   33.1320   45.1660 N   0  0  0  0  0  0  0  0  0  0  0  0
   45.2970   34.1920   45.9790 C   0  0  0  0  0  0  0  0  0  0  0  0
   44.7320   35.3000   45.4720 N   0  0  0  0  0  0  0  0  0  0  0  0
   43.9830   36.3280   43.9120 H   0  0  0  0  0  0  0  0  0  0  0  0
   45.4810   32.3690   43.1850 H   0  0  0  0  0  0  0  0  0  0  0  0
   45.5720   34.0470   47.0190 H   0  0  0  0  0  0  0  0  0  0  0  0
   45.7110   30.6770   40.9860 Cl  0  0  0  0  0  0  0  0  0  0  0  0
   46.7750   32.0620   40.7360 C   0  0  0  0  0  0  0  0  0  0  0  0
   46.1510   33.3150   40.7680 C   0  0  0  0  0  0  0  0  0  0  0  0
   46.9790   34.3930   40.5740 C   0  0  0  0  0  0  0  0  0  0  0  0
   46.5860   35.3770   40.5820 H   0  0  0  0  0  0  0  0  0  0  0  0
   48.3350   34.2800   40.3580 C   0  0  0  0  0  0  0  0  0  0  0  0
   48.9860   35.1190   40.2050 H   0  0  0  0  0  0  0  0  0  0  0  0
   48.9110   33.0270   40.3340 C   0  0  0  0  0  3  0  0  0  0  0  0
   48.1240   31.9140   40.5230 C   0  0  0  0  0  3  0  0  0  0  0  0
  1 16  1  0  0  0  0
  2  7  1  1  0  0  0
  2  1  1  0  0  0  0
  3  2  1  0  0  0  0
  4  3  1  0  0  0  0
  4  5  1  0  0  0  0
  5 12  1  0  0  0  0
  5  6  1  0  0  0  0
  6  1  1  0  0  0  0
  6 13  1  0  0  0  0
  8  3  1  0  0  0  0
  9  3  1  0  0  0  0
 10  4  1  0  0  0  0
 11  5  1  0  0  0  0
 14  6  1  0  0  0  0
 15 20  1  0  0  0  0
 16 17  1  0  0  0  0
 16 15  2  0  0  0  0
 17 18  2  0  0  0  0
 18 19  1  0  0  0  0
 19 23  1  0  0  0  0
 20 19  2  0  0  0  0
 21 15  1  0  0  0  0
 22 17  1  0  0  0  0
 25 26  1  0  0  0  0
 25 24  1  0  0  0  0
 26  2  1  0  0  0  0
 27 28  1  0  0  0  0
 27 26  2  0  0  0  0
 29 27  1  0  0  0  0
 30 29  1  0  0  0  0
 31 29  2  0  0  0  0
 31 32  1  0  0  0  0
 32 25  2  0  0  0  0
M  END
>  <minimizedAffinity>
-4.43078518

>  <minimizedRMSD>
0.577215672

$$$$
