
 OpenBabel03252507073D

 24 25  0  0  0  0  0  0  0  0999 V2000
   44.6370   35.7030   44.6100 C   0  0  0  0  0  0  0  0  0  0  0  0
   45.2510   35.8410   43.3560 C   0  0  0  0  0  0  0  0  0  0  0  0
   46.2010   34.9020   42.9830 C   0  0  0  0  0  0  0  0  0  0  0  0
   46.5010   33.8830   43.8500 N   0  0  0  0  0  0  0  0  0  0  0  0
   45.8900   33.7890   45.0400 C   0  0  0  0  0  0  0  0  0  0  0  0
   44.9680   34.6810   45.4270 N   0  0  0  0  0  0  0  0  0  0  0  0
   43.8850   36.4080   44.9560 H   0  0  0  0  0  0  0  0  0  0  0  0
   44.9640   36.6730   42.7210 H   0  0  0  0  0  0  0  0  0  0  0  0
   44.5620   33.8740   47.6950 Cl  0  0  0  0  0  0  0  0  0  0  0  0
   45.6880   32.6050   47.2000 C   0  0  0  0  0  0  0  0  0  0  0  0
   46.2210   32.6980   45.9490 C   0  0  0  0  0  0  0  0  0  0  0  0
   47.0970   31.6940   45.5910 C   0  0  0  0  0  0  0  0  0  0  0  0
   47.5720   31.6820   44.6160 H   0  0  0  0  0  0  0  0  0  0  0  0
   47.4360   30.6460   46.4230 C   0  0  0  0  0  0  0  0  0  0  0  0
   48.1140   29.8640   46.1520 H   0  0  0  0  0  0  0  0  0  0  0  0
   46.8620   30.6120   47.6720 C   0  0  0  0  0  3  0  0  0  0  0  0
   45.9790   31.5880   48.0860 C   0  0  0  0  0  3  0  0  0  0  0  0
   46.7980   35.0570   41.7380 O   0  0  0  0  0  0  0  0  0  0  0  0
   48.6410   33.3640   40.9050 O   0  0  0  0  0  0  0  0  0  0  0  0
   48.4720   34.7210   41.5640 P   0  0  0  0  0  0  0  0  0  0  0  0
   49.1610   35.9610   40.6610 O   0  0  0  0  0  0  0  0  0  0  0  0
   49.0220   35.8610   39.7050 H   0  0  0  0  0  0  0  0  0  0  0  0
   49.1390   34.6640   43.1140 O   0  0  0  0  0  0  0  0  0  0  0  0
   50.1040   34.8870   43.0280 H   0  0  0  0  0  0  0  0  0  0  0  0
  1  7  1  0  0  0  0
  1  6  1  0  0  0  0
  2  1  2  0  0  0  0
  3  2  1  0  0  0  0
  3  4  2  0  0  0  0
  4  5  1  0  0  0  0
  5  6  2  0  0  0  0
  5 11  1  0  0  0  0
  8  2  1  0  0  0  0
 10  9  1  0  0  0  0
 10 17  1  0  0  0  0
 11 10  2  0  0  0  0
 12 11  1  0  0  0  0
 12 14  2  0  0  0  0
 13 12  1  0  0  0  0
 14 16  1  0  0  0  0
 15 14  1  0  0  0  0
 16 17  2  0  0  0  0
 18  3  1  0  0  0  0
 19 20  2  0  0  0  0
 20 18  1  0  0  0  0
 20 23  1  0  0  0  0
 21 20  1  0  0  0  0
 22 21  1  0  0  0  0
 24 23  1  0  0  0  0
M  END
>  <minimizedAffinity>
-5.54762793

>  <minimizedRMSD>
0.399284095

$$$$
