
 OpenBabel03252506563D

 38 42  0  0  0  0  0  0  0  0999 V2000
   47.1240   31.3690   45.0290 C   0  0  0  0  0  0  0  0  0  0  0  0
   46.8710   32.7410   45.0430 C   0  0  0  0  0  0  0  0  0  0  0  0
   46.3170   33.3820   46.1350 C   0  0  0  0  0  0  0  0  0  0  0  0
   45.9860   32.6610   47.2780 C   0  0  0  0  0  0  0  0  0  0  0  0
   45.4460   32.9540   48.4900 N   0  0  0  0  0  0  0  0  0  0  0  0
   45.3650   31.7970   49.2070 C   0  0  0  0  0  0  0  0  0  0  0  0
   45.8600   30.8090   48.4190 N   0  0  0  0  0  0  0  0  0  0  0  0
   46.2450   31.3170   47.2370 C   0  0  0  0  0  0  0  0  0  0  0  0
   46.7890   30.6410   46.1880 C   0  0  0  0  0  0  0  0  0  0  0  0
   47.5560   30.8770   44.1780 H   0  0  0  0  0  0  0  0  0  0  0  0
   46.1250   34.4570   46.1300 H   0  0  0  0  0  0  0  0  0  0  0  0
   45.1590   33.8960   48.7820 H   0  0  0  0  0  0  0  0  0  0  0  0
   44.9880   31.6760   50.2000 H   0  0  0  0  0  0  0  0  0  0  0  0
   46.6400   35.1910   42.3210 C   0  0  0  0  0  0  0  0  0  0  0  0
   47.8510   34.9980   41.6420 C   0  0  0  0  0  0  0  0  0  0  0  0
   48.7370   34.0320   42.1200 C   0  0  0  0  0  0  0  0  0  0  0  0
   48.3790   33.3170   43.2340 N   0  0  0  0  0  0  0  0  0  0  0  0
   47.2040   33.5260   43.8670 C   0  0  0  0  0  0  0  0  0  0  0  0
   46.3480   34.4530   43.4130 N   0  0  0  0  0  0  0  0  0  0  0  0
   45.8960   35.9250   42.0120 H   0  0  0  0  0  0  0  0  0  0  0  0
   48.0640   35.5920   40.7810 H   0  0  0  0  0  0  0  0  0  0  0  0
   49.6830   33.8540   41.6220 H   0  0  0  0  0  0  0  0  0  0  0  0
   47.0290   29.1970   46.2380 C   0  0  0  0  0  0  0  0  0  0  0  0
   48.2690   28.6110   46.4080 C   0  0  0  0  0  0  0  0  0  0  0  0
   47.9870   27.2330   46.3880 C   0  0  0  0  0  0  0  0  0  0  0  0
   46.6290   27.0750   46.2130 C   0  0  0  0  0  0  0  0  0  0  0  0
   46.1120   28.2800   46.1300 O   0  0  0  0  0  0  0  0  0  0  0  0
   49.2380   29.0420   46.5290 H   0  0  0  0  0  0  0  0  0  0  0  0
   48.6900   26.3990   46.4910 H   0  0  0  0  0  0  0  0  0  0  0  0
   44.7620   26.5610   48.4920 Cl  0  0  0  0  0  0  0  0  0  0  0  0
   45.0140   25.4760   47.1360 C   0  0  0  0  0  0  0  0  0  0  0  0
   45.9030   25.8130   46.1340 C   0  0  0  0  0  0  0  0  0  0  0  0
   46.1150   24.9750   45.0590 C   0  0  0  0  0  0  0  0  0  0  0  0
   46.8070   25.2300   44.2740 H   0  0  0  0  0  0  0  0  0  0  0  0
   45.4360   23.7770   44.9680 C   0  0  0  0  0  0  0  0  0  0  0  0
   45.6030   23.1190   44.1250 H   0  0  0  0  0  0  0  0  0  0  0  0
   44.5550   23.4670   45.9840 C   0  0  0  0  0  3  0  0  0  0  0  0
   44.3100   24.2780   47.0810 C   0  0  0  0  0  3  0  0  0  0  0  0
  1  2  2  0  0  0  0
  1  9  1  0  0  0  0
  2  3  1  0  0  0  0
  3  4  2  0  0  0  0
  4  5  1  0  0  0  0
  5 12  1  0  0  0  0
  5  6  1  0  0  0  0
  6 13  1  0  0  0  0
  7  6  2  0  0  0  0
  8  4  1  0  0  0  0
  8  7  1  0  0  0  0
  9 23  1  0  0  0  0
  9  8  2  0  0  0  0
 10  1  1  0  0  0  0
 11  3  1  0  0  0  0
 14 19  1  0  0  0  0
 15 16  1  0  0  0  0
 15 14  2  0  0  0  0
 16 17  2  0  0  0  0
 17 18  1  0  0  0  0
 18  2  1  0  0  0  0
 19 18  2  0  0  0  0
 20 14  1  0  0  0  0
 21 15  1  0  0  0  0
 22 16  1  0  0  0  0
 23 24  2  0  0  0  0
 24 28  1  0  0  0  0
 25 24  1  0  0  0  0
 25 29  1  0  0  0  0
 26 25  2  0  0  0  0
 27 26  1  0  0  0  0
 27 23  1  0  0  0  0
 31 30  1  0  0  0  0
 32 26  1  0  0  0  0
 32 31  2  0  0  0  0
 33 32  1  0  0  0  0
 34 33  1  0  0  0  0
 35 33  2  0  0  0  0
 35 37  1  0  0  0  0
 36 35  1  0  0  0  0
 37 38  2  0  0  0  0
 38 31  1  0  0  0  0
M  END
>  <minimizedAffinity>
-5.64335823

>  <minimizedRMSD>
0.734427691

$$$$
