
 OpenBabel03242518433D

 19 20  0  0  0  0  0  0  0  0999 V2000
   44.8560   35.0500   45.4480 C   0  0  0  0  0  0  0  0  0  0  0  0
   44.4990   36.0560   44.5260 C   0  0  0  0  0  0  0  0  0  0  0  0
   45.0880   35.9860   43.2560 C   0  0  0  0  0  0  0  0  0  0  0  0
   45.9460   34.9800   42.9900 N   0  0  0  0  0  0  0  0  0  0  0  0
   46.2630   34.0300   43.9060 C   0  0  0  0  0  0  0  0  0  0  0  0
   45.7160   34.0750   45.1240 N   0  0  0  0  0  0  0  0  0  0  0  0
   43.8060   36.8530   44.7680 H   0  0  0  0  0  0  0  0  0  0  0  0
   44.8730   36.7120   42.4890 H   0  0  0  0  0  0  0  0  0  0  0  0
   48.8020   34.9650   42.6120 Cl  0  0  0  0  0  0  0  0  0  0  0  0
   48.4080   33.2900   42.9540 C   0  0  0  0  0  0  0  0  0  0  0  0
   47.2020   32.9650   43.5580 C   0  0  0  0  0  0  0  0  0  0  0  0
   46.9130   31.6270   43.8180 C   0  0  0  0  0  0  0  0  0  0  0  0
   45.9680   31.3550   44.2930 H   0  0  0  0  0  0  0  0  0  0  0  0
   47.8120   30.6090   43.4840 C   0  0  0  0  0  0  0  0  0  0  0  0
   47.5120   29.5850   43.7200 H   0  0  0  0  0  0  0  0  0  0  0  0
   49.0090   30.9720   42.8810 C   0  0  0  0  0  0  0  0  0  0  0  0
   49.2680   32.2860   42.6370 C   0  0  0  0  0  0  0  0  0  0  0  0
   44.2830   35.1110   46.6950 O   0  0  0  0  0  0  0  0  0  0  0  0
   44.0990   34.2950   47.2610 H   0  0  0  0  0  0  0  0  0  0  0  0
  1 18  1  0  0  0  0
  2  7  1  0  0  0  0
  2  1  2  0  0  0  0
  3  2  1  0  0  0  0
  4  3  2  0  0  0  0
  4  5  1  0  0  0  0
  5  6  2  0  0  0  0
  6  1  1  0  0  0  0
  8  3  1  0  0  0  0
  9 10  1  0  0  0  0
 10 11  1  0  0  0  0
 11 12  2  0  0  0  0
 11  5  1  0  0  0  0
 12 13  1  0  0  0  0
 14 15  1  0  0  0  0
 14 12  1  0  0  0  0
 16 14  2  0  0  0  0
 17 16  1  0  0  0  0
 17 10  2  0  0  0  0
 18 19  1  0  0  0  0
M  END
>  <minimizedAffinity>
-4.90367174

>  <minimizedRMSD>
4.7158885

$$$$
