
 OpenBabel03252503423D

 21 22  0  0  0  0  0  0  0  0999 V2000
   38.3480   30.3050   40.3100 C   0  0  0  0  0  0  0  0  0  0  0  0
   37.2350   31.1310   40.4520 C   0  0  0  0  0  0  0  0  0  0  0  0
   36.0150   30.5110   40.7450 C   0  0  0  0  0  0  0  0  0  0  0  0
   36.0020   29.1680   40.8680 N   0  0  0  0  0  0  0  0  0  0  0  0
   37.0970   28.4070   40.7240 C   0  0  0  0  0  0  0  0  0  0  0  0
   38.3010   28.9460   40.4410 N   0  0  0  0  0  0  0  0  0  0  0  0
   39.3390   30.6780   40.0830 H   0  0  0  0  0  0  0  0  0  0  0  0
   35.1970   31.1870   40.8430 H   0  0  0  0  0  0  0  0  0  0  0  0
   37.6530   27.3910   43.4250 Cl  0  0  0  0  0  0  0  0  0  0  0  0
   37.2090   26.3460   42.0920 C   0  0  0  0  0  0  0  0  0  0  0  0
   36.9770   26.9600   40.8770 C   0  0  0  0  0  0  0  0  0  0  0  0
   36.6240   26.1830   39.7940 C   0  0  0  0  0  0  0  0  0  0  0  0
   36.4380   26.6460   38.8370 H   0  0  0  0  0  0  0  0  0  0  0  0
   36.5150   24.8110   39.9620 C   0  0  0  0  0  0  0  0  0  0  0  0
   36.2420   24.1580   39.1430 H   0  0  0  0  0  0  0  0  0  0  0  0
   36.7610   24.2390   41.2090 C   0  0  0  0  0  3  0  0  0  0  0  0
   37.1180   24.9960   42.3130 C   0  0  0  0  0  3  0  0  0  0  0  0
   37.4930   32.5710   40.2720 C   0  0  0  0  0  0  0  0  0  0  0  0
   38.1380   32.9290   41.0800 H   0  0  0  0  0  0  0  0  0  0  0  0
   36.5570   33.1590   40.3260 H   0  0  0  0  0  0  0  0  0  0  0  0
   38.0260   32.7810   39.3130 H   0  0  0  0  0  0  0  0  0  0  0  0
  1  6  2  0  0  0  0
  1  2  1  0  0  0  0
  2  3  2  0  0  0  0
  3  8  1  0  0  0  0
  3  4  1  0  0  0  0
  5  4  2  0  0  0  0
  5 11  1  0  0  0  0
  6  5  1  0  0  0  0
  7  1  1  0  0  0  0
 10 17  1  0  0  0  0
 10  9  1  0  0  0  0
 11 10  2  0  0  0  0
 12 14  2  0  0  0  0
 12 11  1  0  0  0  0
 13 12  1  0  0  0  0
 14 16  1  0  0  0  0
 15 14  1  0  0  0  0
 16 17  2  0  0  0  0
 18 20  1  0  0  0  0
 18  2  1  0  0  0  0
 18 19  1  0  0  0  0
 21 18  1  0  0  0  0
M  END
>  <minimizedAffinity>
-4.51783276

$$$$

 OpenBabel03252503423D

 21 22  0  0  0  0  0  0  0  0999 V2000
   38.1080   27.2480   40.7230 C   0  0  0  0  0  0  0  0  0  0  0  0
   37.2770   26.8880   41.7810 C   0  0  0  0  0  0  0  0  0  0  0  0
   36.6110   27.9230   42.4470 C   0  0  0  0  0  0  0  0  0  0  0  0
   36.8190   29.1860   42.0220 N   0  0  0  0  0  0  0  0  0  0  0  0
   37.6280   29.4910   40.9970 C   0  0  0  0  0  0  0  0  0  0  0  0
   38.2990   28.5380   40.3160 N   0  0  0  0  0  0  0  0  0  0  0  0
   38.6710   26.5290   40.1390 H   0  0  0  0  0  0  0  0  0  0  0  0
   35.9880   27.5950   43.2480 H   0  0  0  0  0  0  0  0  0  0  0  0
   39.7350   30.9460   42.4400 Cl  0  0  0  0  0  0  0  0  0  0  0  0
   38.7390   31.6940   41.2100 C   0  0  0  0  0  0  0  0  0  0  0  0
   37.7870   30.8920   40.6140 C   0  0  0  0  0  0  0  0  0  0  0  0
   36.9750   31.4310   39.6390 C   0  0  0  0  0  0  0  0  0  0  0  0
   36.2260   30.8180   39.1620 H   0  0  0  0  0  0  0  0  0  0  0  0
   37.1440   32.7630   39.2900 C   0  0  0  0  0  0  0  0  0  0  0  0
   36.5310   33.2330   38.5310 H   0  0  0  0  0  0  0  0  0  0  0  0
   38.1190   33.5320   39.9220 C   0  0  0  0  0  3  0  0  0  0  0  0
   38.9470   33.0140   40.9050 C   0  0  0  0  0  3  0  0  0  0  0  0
   37.2070   25.4440   42.0640 C   0  0  0  0  0  0  0  0  0  0  0  0
   36.7290   24.9300   41.2240 H   0  0  0  0  0  0  0  0  0  0  0  0
   36.5890   25.2360   42.9580 H   0  0  0  0  0  0  0  0  0  0  0  0
   38.2230   24.9940   42.1840 H   0  0  0  0  0  0  0  0  0  0  0  0
  1  2  1  0  0  0  0
  2 18  1  0  0  0  0
  2  3  2  0  0  0  0
  3  8  1  0  0  0  0
  4  3  1  0  0  0  0
  5  4  2  0  0  0  0
  6  1  2  0  0  0  0
  6  5  1  0  0  0  0
  7  1  1  0  0  0  0
 10  9  1  0  0  0  0
 11  5  1  0  0  0  0
 11 10  2  0  0  0  0
 12 11  1  0  0  0  0
 13 12  1  0  0  0  0
 14 12  2  0  0  0  0
 14 16  1  0  0  0  0
 15 14  1  0  0  0  0
 16 17  2  0  0  0  0
 17 10  1  0  0  0  0
 18 21  1  0  0  0  0
 18 20  1  0  0  0  0
 19 18  1  0  0  0  0
M  END
>  <minimizedAffinity>
-4.45237923

$$$$

 OpenBabel03252503423D

 21 22  0  0  0  0  0  0  0  0999 V2000
   37.8670   26.5190   40.8680 C   0  0  0  0  0  0  0  0  0  0  0  0
   37.2180   26.1280   42.0370 C   0  0  0  0  0  0  0  0  0  0  0  0
   36.8500   27.1410   42.9300 C   0  0  0  0  0  0  0  0  0  0  0  0
   37.1480   28.4140   42.6000 N   0  0  0  0  0  0  0  0  0  0  0  0
   37.7750   28.7490   41.4630 C   0  0  0  0  0  0  0  0  0  0  0  0
   38.1550   27.8180   40.5620 N   0  0  0  0  0  0  0  0  0  0  0  0
   38.1950   25.8190   40.1090 H   0  0  0  0  0  0  0  0  0  0  0  0
   36.3570   26.7890   43.8070 H   0  0  0  0  0  0  0  0  0  0  0  0
   35.6400   30.1950   40.0530 Cl  0  0  0  0  0  0  0  0  0  0  0  0
   37.1370   30.9590   40.5440 C   0  0  0  0  0  0  0  0  0  0  0  0
   38.0530   30.1590   41.1980 C   0  0  0  0  0  0  0  0  0  0  0  0
   39.2490   30.7100   41.6060 C   0  0  0  0  0  0  0  0  0  0  0  0
   39.9760   30.0990   42.1190 H   0  0  0  0  0  0  0  0  0  0  0  0
   39.4910   32.0500   41.3440 C   0  0  0  0  0  0  0  0  0  0  0  0
   40.4140   32.5290   41.6440 H   0  0  0  0  0  0  0  0  0  0  0  0
   38.5350   32.8160   40.6790 C   0  0  0  0  0  3  0  0  0  0  0  0
   37.3250   32.2860   40.2590 C   0  0  0  0  0  3  0  0  0  0  0  0
   37.0000   24.6770   42.1810 C   0  0  0  0  0  0  0  0  0  0  0  0
   36.2980   24.3360   41.4150 H   0  0  0  0  0  0  0  0  0  0  0  0
   36.5460   24.4320   43.1610 H   0  0  0  0  0  0  0  0  0  0  0  0
   37.9450   24.0990   42.0370 H   0  0  0  0  0  0  0  0  0  0  0  0
  1  2  1  0  0  0  0
  2 18  1  0  0  0  0
  2  3  2  0  0  0  0
  3  8  1  0  0  0  0
  4  3  1  0  0  0  0
  5  4  2  0  0  0  0
  6  1  2  0  0  0  0
  6  5  1  0  0  0  0
  7  1  1  0  0  0  0
  9 10  1  0  0  0  0
 10 11  1  0  0  0  0
 11  5  1  0  0  0  0
 11 12  2  0  0  0  0
 12 13  1  0  0  0  0
 14 12  1  0  0  0  0
 14 15  1  0  0  0  0
 16 14  2  0  0  0  0
 17 10  2  0  0  0  0
 17 16  1  0  0  0  0
 18 20  1  0  0  0  0
 19 18  1  0  0  0  0
 21 18  1  0  0  0  0
M  END
>  <minimizedAffinity>
-4.34467745

$$$$

 OpenBabel03252503423D

 21 22  0  0  0  0  0  0  0  0999 V2000
   38.1850   30.1650   40.0660 C   0  0  0  0  0  0  0  0  0  0  0  0
   37.0900   30.9880   40.3190 C   0  0  0  0  0  0  0  0  0  0  0  0
   35.9110   30.3660   40.7440 C   0  0  0  0  0  0  0  0  0  0  0  0
   35.9160   29.0240   40.8770 N   0  0  0  0  0  0  0  0  0  0  0  0
   36.9930   28.2660   40.6240 C   0  0  0  0  0  0  0  0  0  0  0  0
   38.1590   28.8070   40.2110 N   0  0  0  0  0  0  0  0  0  0  0  0
   39.1450   30.5400   39.7330 H   0  0  0  0  0  0  0  0  0  0  0  0
   35.1040   31.0400   40.9240 H   0  0  0  0  0  0  0  0  0  0  0  0
   36.2500   26.7670   38.2080 Cl  0  0  0  0  0  0  0  0  0  0  0  0
   36.5560   25.9920   39.7470 C   0  0  0  0  0  0  0  0  0  0  0  0
   36.8960   26.8190   40.7990 C   0  0  0  0  0  0  0  0  0  0  0  0
   37.1480   26.2600   42.0340 C   0  0  0  0  0  0  0  0  0  0  0  0
   37.4150   26.8920   42.8660 H   0  0  0  0  0  0  0  0  0  0  0  0
   37.0510   24.8830   42.1760 C   0  0  0  0  0  0  0  0  0  0  0  0
   37.2380   24.3970   43.1250 H   0  0  0  0  0  0  0  0  0  0  0  0
   36.7030   24.0910   41.0840 C   0  0  0  0  0  3  0  0  0  0  0  0
   36.4450   24.6280   39.8330 C   0  0  0  0  0  3  0  0  0  0  0  0
   37.3220   32.4270   40.1030 C   0  0  0  0  0  0  0  0  0  0  0  0
   38.0470   32.7940   40.8360 H   0  0  0  0  0  0  0  0  0  0  0  0
   36.3940   33.0130   40.2520 H   0  0  0  0  0  0  0  0  0  0  0  0
   37.7490   32.6320   39.0920 H   0  0  0  0  0  0  0  0  0  0  0  0
  1  6  2  0  0  0  0
  1  2  1  0  0  0  0
  2  3  2  0  0  0  0
  3  4  1  0  0  0  0
  3  8  1  0  0  0  0
  5 11  1  0  0  0  0
  5  4  2  0  0  0  0
  6  5  1  0  0  0  0
  7  1  1  0  0  0  0
  9 10  1  0  0  0  0
 10 17  2  0  0  0  0
 10 11  1  0  0  0  0
 11 12  2  0  0  0  0
 12 14  1  0  0  0  0
 12 13  1  0  0  0  0
 14 15  1  0  0  0  0
 16 14  2  0  0  0  0
 17 16  1  0  0  0  0
 18 20  1  0  0  0  0
 18  2  1  0  0  0  0
 18 19  1  0  0  0  0
 21 18  1  0  0  0  0
M  END
>  <minimizedAffinity>
-4.3382349

$$$$

 OpenBabel03252503423D

 21 22  0  0  0  0  0  0  0  0999 V2000
   40.6160   31.7550   39.8150 C   0  0  0  0  0  0  0  0  0  0  0  0
   40.1340   33.0610   39.8600 C   0  0  0  0  0  0  0  0  0  0  0  0
   38.9320   33.2720   40.5450 C   0  0  0  0  0  0  0  0  0  0  0  0
   38.3290   32.2060   41.1080 N   0  0  0  0  0  0  0  0  0  0  0  0
   38.8260   30.9620   41.0420 C   0  0  0  0  0  0  0  0  0  0  0  0
   39.9800   30.6940   40.3960 N   0  0  0  0  0  0  0  0  0  0  0  0
   41.5350   31.4780   39.3120 H   0  0  0  0  0  0  0  0  0  0  0  0
   38.6080   34.2880   40.5500 H   0  0  0  0  0  0  0  0  0  0  0  0
   36.6820   29.7730   39.4220 Cl  0  0  0  0  0  0  0  0  0  0  0  0
   37.0630   29.2230   41.0400 C   0  0  0  0  0  0  0  0  0  0  0  0
   38.0950   29.8740   41.6860 C   0  0  0  0  0  0  0  0  0  0  0  0
   38.4360   29.4800   42.9630 C   0  0  0  0  0  0  0  0  0  0  0  0
   39.2410   29.9770   43.4820 H   0  0  0  0  0  0  0  0  0  0  0  0
   37.7290   28.4440   43.5540 C   0  0  0  0  0  0  0  0  0  0  0  0
   37.9590   28.0990   44.5540 H   0  0  0  0  0  0  0  0  0  0  0  0
   36.6950   27.8190   42.8610 C   0  0  0  0  0  3  0  0  0  0  0  0
   36.3320   28.1960   41.5770 C   0  0  0  0  0  3  0  0  0  0  0  0
   40.9660   34.0630   39.1710 C   0  0  0  0  0  0  0  0  0  0  0  0
   41.9230   34.1630   39.6920 H   0  0  0  0  0  0  0  0  0  0  0  0
   40.4900   35.0620   39.1840 H   0  0  0  0  0  0  0  0  0  0  0  0
   41.1980   33.7590   38.1210 H   0  0  0  0  0  0  0  0  0  0  0  0
  1  2  2  0  0  0  0
  1  6  1  0  0  0  0
  2  3  1  0  0  0  0
  3  8  1  0  0  0  0
  3  4  2  0  0  0  0
  5  4  1  0  0  0  0
  5 11  1  0  0  0  0
  6  5  2  0  0  0  0
  7  1  1  0  0  0  0
  9 10  1  0  0  0  0
 10 17  2  0  0  0  0
 10 11  1  0  0  0  0
 11 12  2  0  0  0  0
 12 13  1  0  0  0  0
 12 14  1  0  0  0  0
 14 15  1  0  0  0  0
 16 14  2  0  0  0  0
 17 16  1  0  0  0  0
 18 20  1  0  0  0  0
 18 19  1  0  0  0  0
 18  2  1  0  0  0  0
 21 18  1  0  0  0  0
M  END
>  <minimizedAffinity>
-4.24059486

$$$$

 OpenBabel03252503423D

 21 22  0  0  0  0  0  0  0  0999 V2000
   38.7280   31.4940   40.1350 C   0  0  0  0  0  0  0  0  0  0  0  0
   37.4320   32.0000   40.1970 C   0  0  0  0  0  0  0  0  0  0  0  0
   36.4700   31.2100   40.8380 C   0  0  0  0  0  0  0  0  0  0  0  0
   36.8630   30.0250   41.3470 N   0  0  0  0  0  0  0  0  0  0  0  0
   38.1230   29.5730   41.2670 C   0  0  0  0  0  0  0  0  0  0  0  0
   39.0940   30.2870   40.6610 N   0  0  0  0  0  0  0  0  0  0  0  0
   39.5490   32.0200   39.6630 H   0  0  0  0  0  0  0  0  0  0  0  0
   35.4960   31.6430   40.8580 H   0  0  0  0  0  0  0  0  0  0  0  0
   37.6710   27.2680   39.5010 Cl  0  0  0  0  0  0  0  0  0  0  0  0
   38.2830   27.1060   41.1340 C   0  0  0  0  0  0  0  0  0  0  0  0
   38.4460   28.2740   41.8510 C   0  0  0  0  0  0  0  0  0  0  0  0
   38.9250   28.2030   43.1420 C   0  0  0  0  0  0  0  0  0  0  0  0
   39.0590   29.1060   43.7170 H   0  0  0  0  0  0  0  0  0  0  0  0
   39.2270   26.9580   43.6760 C   0  0  0  0  0  0  0  0  0  0  0  0
   39.6050   26.8500   44.6840 H   0  0  0  0  0  0  0  0  0  0  0  0
   39.0440   25.8080   42.9110 C   0  0  0  0  0  3  0  0  0  0  0  0
   38.5630   25.8520   41.6120 C   0  0  0  0  0  3  0  0  0  0  0  0
   37.2410   33.3190   39.5690 C   0  0  0  0  0  0  0  0  0  0  0  0
   37.7990   34.0750   40.1310 H   0  0  0  0  0  0  0  0  0  0  0  0
   36.1780   33.6270   39.5910 H   0  0  0  0  0  0  0  0  0  0  0  0
   37.6280   33.3410   38.5220 H   0  0  0  0  0  0  0  0  0  0  0  0
  1  2  2  0  0  0  0
  1  6  1  0  0  0  0
  2  3  1  0  0  0  0
  3  8  1  0  0  0  0
  3  4  2  0  0  0  0
  5  4  1  0  0  0  0
  5 11  1  0  0  0  0
  6  5  2  0  0  0  0
  7  1  1  0  0  0  0
  9 10  1  0  0  0  0
 10 17  2  0  0  0  0
 10 11  1  0  0  0  0
 11 12  2  0  0  0  0
 12 14  1  0  0  0  0
 12 13  1  0  0  0  0
 14 15  1  0  0  0  0
 16 14  2  0  0  0  0
 17 16  1  0  0  0  0
 18 20  1  0  0  0  0
 18 19  1  0  0  0  0
 18  2  1  0  0  0  0
 21 18  1  0  0  0  0
M  END
>  <minimizedAffinity>
-4.2060771

$$$$

 OpenBabel03252503423D

 21 22  0  0  0  0  0  0  0  0999 V2000
   36.3820   27.9250   38.8150 C   0  0  0  0  0  0  0  0  0  0  0  0
   35.2540   28.6390   39.2140 C   0  0  0  0  0  0  0  0  0  0  0  0
   35.2080   29.0620   40.5480 C   0  0  0  0  0  0  0  0  0  0  0  0
   36.2490   28.7500   41.3460 N   0  0  0  0  0  0  0  0  0  0  0  0
   37.3180   28.0600   40.9230 C   0  0  0  0  0  0  0  0  0  0  0  0
   37.4200   27.6250   39.6490 N   0  0  0  0  0  0  0  0  0  0  0  0
   36.5210   27.5500   37.8080 H   0  0  0  0  0  0  0  0  0  0  0  0
   34.3260   29.6040   40.8010 H   0  0  0  0  0  0  0  0  0  0  0  0
   37.0790   25.4960   42.3390 Cl  0  0  0  0  0  0  0  0  0  0  0  0
   38.4100   26.6040   42.6010 C   0  0  0  0  0  0  0  0  0  0  0  0
   38.3940   27.7730   41.8680 C   0  0  0  0  0  0  0  0  0  0  0  0
   39.4180   28.6800   42.0360 C   0  0  0  0  0  0  0  0  0  0  0  0
   39.4220   29.5990   41.4710 H   0  0  0  0  0  0  0  0  0  0  0  0
   40.4300   28.3860   42.9380 C   0  0  0  0  0  0  0  0  0  0  0  0
   41.2550   29.0660   43.1060 H   0  0  0  0  0  0  0  0  0  0  0  0
   40.4010   27.1920   43.6560 C   0  0  0  0  0  3  0  0  0  0  0  0
   39.3830   26.2640   43.5060 C   0  0  0  0  0  3  0  0  0  0  0  0
   34.2440   28.8590   38.1640 C   0  0  0  0  0  0  0  0  0  0  0  0
   34.6580   29.5150   37.3920 H   0  0  0  0  0  0  0  0  0  0  0  0
   33.3470   29.3680   38.5670 H   0  0  0  0  0  0  0  0  0  0  0  0
   33.9540   27.9060   37.6600 H   0  0  0  0  0  0  0  0  0  0  0  0
  1  2  2  0  0  0  0
  1  6  1  0  0  0  0
  2  3  1  0  0  0  0
  3  8  1  0  0  0  0
  3  4  2  0  0  0  0
  5  4  1  0  0  0  0
  5 11  1  0  0  0  0
  6  5  2  0  0  0  0
  7  1  1  0  0  0  0
  9 10  1  0  0  0  0
 10 17  1  0  0  0  0
 11 12  1  0  0  0  0
 11 10  2  0  0  0  0
 12 14  2  0  0  0  0
 13 12  1  0  0  0  0
 14 15  1  0  0  0  0
 14 16  1  0  0  0  0
 17 16  2  0  0  0  0
 18 20  1  0  0  0  0
 18  2  1  0  0  0  0
 19 18  1  0  0  0  0
 21 18  1  0  0  0  0
M  END
>  <minimizedAffinity>
-4.16947985

$$$$

 OpenBabel03252503423D

 21 22  0  0  0  0  0  0  0  0999 V2000
   38.3270   28.5790   43.1260 C   0  0  0  0  0  0  0  0  0  0  0  0
   39.1900   27.6750   42.5120 C   0  0  0  0  0  0  0  0  0  0  0  0
   39.7990   28.0850   41.3210 C   0  0  0  0  0  0  0  0  0  0  0  0
   39.5100   29.3160   40.8530 N   0  0  0  0  0  0  0  0  0  0  0  0
   38.6720   30.1580   41.4750 C   0  0  0  0  0  0  0  0  0  0  0  0
   38.0540   29.8210   42.6270 N   0  0  0  0  0  0  0  0  0  0  0  0
   37.8020   28.3660   44.0500 H   0  0  0  0  0  0  0  0  0  0  0  0
   40.4500   27.3570   40.8920 H   0  0  0  0  0  0  0  0  0  0  0  0
   36.3290   30.3090   39.7080 Cl  0  0  0  0  0  0  0  0  0  0  0  0
   37.3570   31.6870   40.0370 C   0  0  0  0  0  0  0  0  0  0  0  0
   38.4240   31.4720   40.8860 C   0  0  0  0  0  0  0  0  0  0  0  0
   39.2660   32.5240   41.1800 C   0  0  0  0  0  0  0  0  0  0  0  0
   40.1040   32.3740   41.8420 H   0  0  0  0  0  0  0  0  0  0  0  0
   39.0110   33.7630   40.6100 C   0  0  0  0  0  0  0  0  0  0  0  0
   39.6420   34.6190   40.8090 H   0  0  0  0  0  0  0  0  0  0  0  0
   37.9210   33.9290   39.7580 C   0  0  0  0  0  3  0  0  0  0  0  0
   37.0600   32.8880   39.4470 C   0  0  0  0  0  3  0  0  0  0  0  0
   39.3510   26.3860   43.2090 C   0  0  0  0  0  0  0  0  0  0  0  0
   39.8500   26.5510   44.1690 H   0  0  0  0  0  0  0  0  0  0  0  0
   39.9910   25.6920   42.6320 H   0  0  0  0  0  0  0  0  0  0  0  0
   38.3660   25.9090   43.4320 H   0  0  0  0  0  0  0  0  0  0  0  0
  1  7  1  0  0  0  0
  2  1  2  0  0  0  0
  2 18  1  0  0  0  0
  3  2  1  0  0  0  0
  4  3  2  0  0  0  0
  4  5  1  0  0  0  0
  5  6  2  0  0  0  0
  6  1  1  0  0  0  0
  8  3  1  0  0  0  0
  9 10  1  0  0  0  0
 10 11  1  0  0  0  0
 11 12  2  0  0  0  0
 11  5  1  0  0  0  0
 12 13  1  0  0  0  0
 14 15  1  0  0  0  0
 14 12  1  0  0  0  0
 16 14  2  0  0  0  0
 17 16  1  0  0  0  0
 17 10  2  0  0  0  0
 18 21  1  0  0  0  0
 18 19  1  0  0  0  0
 20 18  1  0  0  0  0
M  END
>  <minimizedAffinity>
-4.1037097

$$$$

 OpenBabel03252503423D

 21 22  0  0  0  0  0  0  0  0999 V2000
   38.1480   30.1000   37.8780 C   0  0  0  0  0  0  0  0  0  0  0  0
   37.6010   31.3780   37.7860 C   0  0  0  0  0  0  0  0  0  0  0  0
   36.9740   31.8860   38.9290 C   0  0  0  0  0  0  0  0  0  0  0  0
   36.9420   31.1090   40.0310 N   0  0  0  0  0  0  0  0  0  0  0  0
   37.4820   29.8820   40.0790 C   0  0  0  0  0  0  0  0  0  0  0  0
   38.1000   29.3370   39.0100 N   0  0  0  0  0  0  0  0  0  0  0  0
   38.6550   29.6110   37.0550 H   0  0  0  0  0  0  0  0  0  0  0  0
   36.5730   32.8660   38.8060 H   0  0  0  0  0  0  0  0  0  0  0  0
   39.5110   30.5530   42.0960 Cl  0  0  0  0  0  0  0  0  0  0  0  0
   38.2840   29.3310   42.3560 C   0  0  0  0  0  0  0  0  0  0  0  0
   37.3950   29.1200   41.3220 C   0  0  0  0  0  0  0  0  0  0  0  0
   36.4080   28.1680   41.4750 C   0  0  0  0  0  0  0  0  0  0  0  0
   35.7040   27.9900   40.6770 H   0  0  0  0  0  0  0  0  0  0  0  0
   36.3440   27.4570   42.6640 C   0  0  0  0  0  0  0  0  0  0  0  0
   35.5880   26.7000   42.8320 H   0  0  0  0  0  0  0  0  0  0  0  0
   37.2660   27.7070   43.6780 C   0  0  0  0  0  3  0  0  0  0  0  0
   38.2670   28.6570   43.5500 C   0  0  0  0  0  3  0  0  0  0  0  0
   37.7570   32.0370   36.4770 C   0  0  0  0  0  0  0  0  0  0  0  0
   38.8170   32.2370   36.2940 H   0  0  0  0  0  0  0  0  0  0  0  0
   37.2390   33.0150   36.4520 H   0  0  0  0  0  0  0  0  0  0  0  0
   37.4000   31.3890   35.6400 H   0  0  0  0  0  0  0  0  0  0  0  0
  1  6  1  0  0  0  0
  2  1  2  0  0  0  0
  2  3  1  0  0  0  0
  3  4  2  0  0  0  0
  4  5  1  0  0  0  0
  5 11  1  0  0  0  0
  6  5  2  0  0  0  0
  7  1  1  0  0  0  0
  8  3  1  0  0  0  0
  9 10  1  0  0  0  0
 10 17  1  0  0  0  0
 11 12  1  0  0  0  0
 11 10  2  0  0  0  0
 12 14  2  0  0  0  0
 13 12  1  0  0  0  0
 14 15  1  0  0  0  0
 14 16  1  0  0  0  0
 17 16  2  0  0  0  0
 18  2  1  0  0  0  0
 19 18  1  0  0  0  0
 20 18  1  0  0  0  0
 21 18  1  0  0  0  0
M  END
>  <minimizedAffinity>
-4.09732771

$$$$
