
 OpenBabel03252507083D

 24 25  0  0  0  0  0  0  0  0999 V2000
   44.5470   35.9790   44.5260 C   0  0  0  0  0  0  0  0  0  0  0  0
   45.1860   35.9820   43.2770 C   0  0  0  0  0  0  0  0  0  0  0  0
   46.0920   34.9680   43.0000 C   0  0  0  0  0  0  0  0  0  0  0  0
   46.3260   34.0120   43.9530 N   0  0  0  0  0  0  0  0  0  0  0  0
   45.6940   34.0470   45.1350 C   0  0  0  0  0  0  0  0  0  0  0  0
   44.8140   35.0120   45.4300 N   0  0  0  0  0  0  0  0  0  0  0  0
   43.8270   36.7470   44.7990 H   0  0  0  0  0  0  0  0  0  0  0  0
   44.9510   36.7710   42.5710 H   0  0  0  0  0  0  0  0  0  0  0  0
   47.5430   31.8730   44.3070 Cl  0  0  0  0  0  0  0  0  0  0  0  0
   46.7800   31.9640   45.9000 C   0  0  0  0  0  0  0  0  0  0  0  0
   45.9550   33.0200   46.1370 C   0  0  0  0  0  0  0  0  0  0  0  0
   45.3750   33.0630   47.3880 C   0  0  0  0  0  0  0  0  0  0  0  0
   44.7020   33.8660   47.6700 H   0  0  0  0  0  0  0  0  0  0  0  0
   45.5970   32.1110   48.3630 C   0  0  0  0  0  0  0  0  0  0  0  0
   45.1500   32.1380   49.3370 H   0  0  0  0  0  0  0  0  0  0  0  0
   46.4420   31.0700   48.0590 C   0  0  0  0  0  3  0  0  0  0  0  0
   47.0490   30.9740   46.8250 C   0  0  0  0  0  3  0  0  0  0  0  0
   46.7140   34.9900   41.7580 O   0  0  0  0  0  0  0  0  0  0  0  0
   48.6000   33.2640   41.1100 O   0  0  0  0  0  0  0  0  0  0  0  0
   48.3960   34.6650   41.6580 P   0  0  0  0  0  0  0  0  0  0  0  0
   49.0970   35.8410   40.6820 O   0  0  0  0  0  0  0  0  0  0  0  0
   48.9870   35.6670   39.7330 H   0  0  0  0  0  0  0  0  0  0  0  0
   49.0180   34.7350   43.2260 O   0  0  0  0  0  0  0  0  0  0  0  0
   49.9820   34.9650   43.1510 H   0  0  0  0  0  0  0  0  0  0  0  0
  1  7  1  0  0  0  0
  1  6  1  0  0  0  0
  2  1  2  0  0  0  0
  3  2  1  0  0  0  0
  3  4  2  0  0  0  0
  4  5  1  0  0  0  0
  5  6  2  0  0  0  0
  5 11  1  0  0  0  0
  8  2  1  0  0  0  0
  9 10  1  0  0  0  0
 10 11  2  0  0  0  0
 10 17  1  0  0  0  0
 11 12  1  0  0  0  0
 12 13  1  0  0  0  0
 12 14  2  0  0  0  0
 14 15  1  0  0  0  0
 16 14  1  0  0  0  0
 17 16  2  0  0  0  0
 18  3  1  0  0  0  0
 19 20  2  0  0  0  0
 20 18  1  0  0  0  0
 20 23  1  0  0  0  0
 21 20  1  0  0  0  0
 22 21  1  0  0  0  0
 24 23  1  0  0  0  0
M  END
>  <minimizedAffinity>
-5.93558216

>  <minimizedRMSD>
0.230821013

$$$$
