
 OpenBabel03242518223D

 39 42  0  0  0  0  0  0  0  0999 V2000
   41.4050   30.6730   41.3550 C   0  0  0  0  0  0  0  0  0  0  0  0
   42.0570   30.5120   40.4740 H   0  0  0  0  0  0  0  0  0  0  0  0
   41.9330   31.2800   42.1030 H   0  0  0  0  0  0  0  0  0  0  0  0
   41.0530   29.3360   41.9260 C   0  0  0  0  0  0  0  0  0  0  0  0
   41.6690   28.7820   43.0200 C   0  0  0  0  0  0  0  0  0  0  0  0
   41.1030   27.5560   43.2700 C   0  0  0  0  0  0  0  0  0  0  0  0
   40.1390   27.4080   42.2930 C   0  0  0  0  0  0  0  0  0  0  0  0
   40.1680   28.4690   41.5580 O   0  0  0  0  0  0  0  0  0  0  0  0
   42.4740   29.1400   43.6630 H   0  0  0  0  0  0  0  0  0  0  0  0
   41.3200   26.8330   44.0370 H   0  0  0  0  0  0  0  0  0  0  0  0
   39.2570   26.2530   42.1370 C   0  0  0  0  0  0  0  0  0  0  0  0
   37.9090   26.3730   42.3210 C   0  0  0  0  0  0  0  0  0  0  0  0
   37.0240   25.3090   42.1820 C   0  0  0  0  0  0  0  0  0  0  0  0
   37.6520   24.1010   41.8350 C   0  0  0  0  0  0  0  0  0  0  0  0
   38.9940   23.9620   41.6470 C   0  0  0  0  0  0  0  0  0  0  0  0
   39.7700   25.0490   41.8040 N   0  0  0  0  0  0  0  0  0  0  0  0
   37.4690   27.3260   42.5880 H   0  0  0  0  0  0  0  0  0  0  0  0
   35.9620   25.3950   42.3250 H   0  0  0  0  0  0  0  0  0  0  0  0
   36.9930   23.2350   41.7150 H   0  0  0  0  0  0  0  0  0  0  0  0
   39.3600   22.9850   41.3830 H   0  0  0  0  0  0  0  0  0  0  0  0
   39.1000   33.4210   40.5780 C   0  0  0  0  0  0  0  0  0  0  0  0
   37.9370   32.7730   40.1720 C   0  0  0  0  0  0  0  0  0  0  0  0
   37.9600   31.4000   40.1700 C   0  0  0  0  0  0  0  0  0  0  0  0
   39.0860   30.7340   40.5530 N   0  0  0  0  0  0  0  0  0  0  0  0
   40.1910   31.4180   40.9400 C   0  0  0  0  0  0  0  0  0  0  0  0
   40.1910   32.7630   40.9500 N   0  0  0  0  0  0  0  0  0  0  0  0
   39.1820   34.5110   40.6150 H   0  0  0  0  0  0  0  0  0  0  0  0
   37.7300   30.8940   37.2050 Cl  0  0  0  0  0  0  0  0  0  0  0  0
   36.6530   30.3030   38.4550 C   0  0  0  0  0  0  0  0  0  0  0  0
   36.8440   30.5850   39.7870 C   0  0  0  0  0  0  0  0  0  0  0  0
   35.8740   30.0060   40.5600 C   0  0  0  0  0  0  0  0  0  0  0  0
   35.9240   30.1620   41.6210 H   0  0  0  0  0  0  0  0  0  0  0  0
   34.8140   29.2320   40.1470 C   0  0  0  0  0  0  0  0  0  0  0  0
   34.1070   28.8240   40.8250 H   0  0  0  0  0  0  0  0  0  0  0  0
   34.6720   28.9840   38.8060 C   0  0  0  0  0  3  0  0  0  0  0  0
   35.6030   29.5280   37.9510 C   0  0  0  0  0  3  0  0  0  0  0  0
   36.8400   33.5550   39.8060 N   0  0  0  0  0  0  0  0  0  0  0  0
   36.9340   33.7810   38.7720 H   0  0  0  0  0  0  0  0  0  0  0  0
   36.3710   33.5830   40.7590 H   0  0  0  0  0  0  0  0  0  0  0  0
  1  4  1  0  0  0  0
  1  3  1  0  0  0  0
  2  1  1  0  0  0  0
  4  5  2  0  0  0  0
  5  6  1  0  0  0  0
  5  9  1  0  0  0  0
  6 10  1  0  0  0  0
  7  6  2  0  0  0  0
  8  4  1  0  0  0  0
  8  7  1  0  0  0  0
 11  7  1  0  0  0  0
 11 12  1  0  0  0  0
 12 17  1  0  0  0  0
 13 12  2  0  0  0  0
 13 18  1  0  0  0  0
 14 13  1  0  0  0  0
 15 16  1  0  0  0  0
 15 14  2  0  0  0  0
 16 11  2  0  0  0  0
 19 14  1  0  0  0  0
 20 15  1  0  0  0  0
 21 27  1  0  0  0  0
 21 26  1  0  0  0  0
 22 21  2  0  0  0  0
 23 22  1  0  0  0  0
 23 24  2  0  0  0  0
 24 25  1  0  0  0  0
 25 26  2  0  0  0  0
 25  1  1  0  0  0  0
 28 29  1  0  0  0  0
 29 30  1  0  0  0  0
 30 23  1  0  0  0  0
 30 31  2  0  0  0  0
 31 32  1  0  0  0  0
 33 31  1  0  0  0  0
 33 34  1  0  0  0  0
 35 33  2  0  0  0  0
 36 29  2  0  0  0  0
 36 35  1  0  0  0  0
 37 22  1  0  0  0  0
 37 39  1  0  0  0  0
 38 37  1  0  0  0  0
M  END
>  <minimizedAffinity>
-6.53376818

$$$$

 OpenBabel03242518223D

 39 42  0  0  0  0  0  0  0  0999 V2000
   39.3920   29.9120   42.4560 C   0  0  0  0  0  0  0  0  0  0  0  0
   40.4470   29.6810   42.2080 H   0  0  0  0  0  0  0  0  0  0  0  0
   39.3420   30.4220   43.4280 H   0  0  0  0  0  0  0  0  0  0  0  0
   38.6290   28.6270   42.5030 C   0  0  0  0  0  0  0  0  0  0  0  0
   37.6040   28.3740   43.3790 C   0  0  0  0  0  0  0  0  0  0  0  0
   37.1300   27.1060   43.1500 C   0  0  0  0  0  0  0  0  0  0  0  0
   37.9070   26.6230   42.1150 C   0  0  0  0  0  0  0  0  0  0  0  0
   38.7460   27.5510   41.7960 O   0  0  0  0  0  0  0  0  0  0  0  0
   37.1490   28.9790   44.1640 H   0  0  0  0  0  0  0  0  0  0  0  0
   36.3380   26.5600   43.6320 H   0  0  0  0  0  0  0  0  0  0  0  0
   37.7860   25.3000   41.5070 C   0  0  0  0  0  0  0  0  0  0  0  0
   36.5930   24.8700   41.0000 C   0  0  0  0  0  0  0  0  0  0  0  0
   36.4220   23.6230   40.4080 C   0  0  0  0  0  0  0  0  0  0  0  0
   37.5960   22.8510   40.3820 C   0  0  0  0  0  0  0  0  0  0  0  0
   38.7940   23.2630   40.8810 C   0  0  0  0  0  0  0  0  0  0  0  0
   38.8610   24.4860   41.4360 N   0  0  0  0  0  0  0  0  0  0  0  0
   35.7130   25.5010   41.0420 H   0  0  0  0  0  0  0  0  0  0  0  0
   35.4860   23.2770   40.0070 H   0  0  0  0  0  0  0  0  0  0  0  0
   37.5080   21.8600   39.9240 H   0  0  0  0  0  0  0  0  0  0  0  0
   39.6240   22.5820   40.8050 H   0  0  0  0  0  0  0  0  0  0  0  0
   38.4760   32.9760   40.6550 C   0  0  0  0  0  0  0  0  0  0  0  0
   37.7990   32.5090   39.5320 C   0  0  0  0  0  0  0  0  0  0  0  0
   37.6660   31.1480   39.4070 C   0  0  0  0  0  0  0  0  0  0  0  0
   38.1860   30.3210   40.3580 N   0  0  0  0  0  0  0  0  0  0  0  0
   38.8360   30.8320   41.4330 C   0  0  0  0  0  0  0  0  0  0  0  0
   38.9780   32.1620   41.5740 N   0  0  0  0  0  0  0  0  0  0  0  0
   38.6330   34.0410   40.8440 H   0  0  0  0  0  0  0  0  0  0  0  0
   35.1790   29.6280   40.1850 Cl  0  0  0  0  0  0  0  0  0  0  0  0
   35.8490   29.7870   38.5730 C   0  0  0  0  0  0  0  0  0  0  0  0
   36.9900   30.5090   38.3160 C   0  0  0  0  0  0  0  0  0  0  0  0
   37.3030   30.4840   36.9830 C   0  0  0  0  0  0  0  0  0  0  0  0
   38.1800   31.0170   36.6680 H   0  0  0  0  0  0  0  0  0  0  0  0
   36.6250   29.8500   35.9680 C   0  0  0  0  0  0  0  0  0  0  0  0
   36.9460   29.8880   34.9570 H   0  0  0  0  0  0  0  0  0  0  0  0
   35.4930   29.1440   36.2820 C   0  0  0  0  0  3  0  0  0  0  0  0
   35.1020   29.1120   37.6010 C   0  0  0  0  0  3  0  0  0  0  0  0
   37.3020   33.4470   38.6250 N   0  0  0  0  0  0  0  0  0  0  0  0
   38.0720   33.6610   37.9240 H   0  0  0  0  0  0  0  0  0  0  0  0
   36.3310   33.5410   39.0460 H   0  0  0  0  0  0  0  0  0  0  0  0
  1  4  1  0  0  0  0
  1  3  1  0  0  0  0
  2  1  1  0  0  0  0
  4  5  2  0  0  0  0
  5  9  1  0  0  0  0
  6  5  1  0  0  0  0
  6 10  1  0  0  0  0
  7  6  2  0  0  0  0
  8  7  1  0  0  0  0
  8  4  1  0  0  0  0
 11  7  1  0  0  0  0
 12 17  1  0  0  0  0
 12 11  2  0  0  0  0
 13 12  1  0  0  0  0
 14 13  2  0  0  0  0
 14 15  1  0  0  0  0
 15 16  2  0  0  0  0
 16 11  1  0  0  0  0
 18 13  1  0  0  0  0
 19 14  1  0  0  0  0
 20 15  1  0  0  0  0
 21 27  1  0  0  0  0
 21 26  1  0  0  0  0
 22 21  2  0  0  0  0
 23 22  1  0  0  0  0
 23 24  2  0  0  0  0
 24 25  1  0  0  0  0
 25 26  2  0  0  0  0
 25  1  1  0  0  0  0
 29 28  1  0  0  0  0
 30 29  1  0  0  0  0
 30 23  1  0  0  0  0
 31 30  2  0  0  0  0
 32 31  1  0  0  0  0
 33 35  2  0  0  0  0
 33 31  1  0  0  0  0
 34 33  1  0  0  0  0
 35 36  1  0  0  0  0
 36 29  2  0  0  0  0
 37 39  1  0  0  0  0
 37 22  1  0  0  0  0
 38 37  1  0  0  0  0
M  END
>  <minimizedAffinity>
-6.51569796

$$$$

 OpenBabel03242518223D

 39 42  0  0  0  0  0  0  0  0999 V2000
   35.7890   28.0710   38.9150 C   0  0  0  0  0  0  0  0  0  0  0  0
   34.7150   28.2780   39.0930 H   0  0  0  0  0  0  0  0  0  0  0  0
   35.8960   27.1570   38.3150 H   0  0  0  0  0  0  0  0  0  0  0  0
   36.4590   27.9050   40.2410 C   0  0  0  0  0  0  0  0  0  0  0  0
   35.9650   28.4050   41.4190 C   0  0  0  0  0  0  0  0  0  0  0  0
   36.8260   28.0710   42.4360 C   0  0  0  0  0  0  0  0  0  0  0  0
   37.8380   27.3620   41.8200 C   0  0  0  0  0  0  0  0  0  0  0  0
   37.5600   27.3070   40.5600 O   0  0  0  0  0  0  0  0  0  0  0  0
   35.0670   28.9810   41.6480 H   0  0  0  0  0  0  0  0  0  0  0  0
   36.7750   28.2850   43.4890 H   0  0  0  0  0  0  0  0  0  0  0  0
   39.0020   26.7870   42.4900 C   0  0  0  0  0  0  0  0  0  0  0  0
   39.2930   25.4580   42.3690 C   0  0  0  0  0  0  0  0  0  0  0  0
   40.3880   24.8590   42.9810 C   0  0  0  0  0  0  0  0  0  0  0  0
   41.1660   25.7550   43.7350 C   0  0  0  0  0  0  0  0  0  0  0  0
   40.8920   27.0820   43.8670 C   0  0  0  0  0  0  0  0  0  0  0  0
   39.8090   27.5700   43.2360 N   0  0  0  0  0  0  0  0  0  0  0  0
   38.6640   24.8040   41.7760 H   0  0  0  0  0  0  0  0  0  0  0  0
   40.6240   23.8130   42.8910 H   0  0  0  0  0  0  0  0  0  0  0  0
   42.0400   25.3270   44.2360 H   0  0  0  0  0  0  0  0  0  0  0  0
   41.5620   27.6690   44.4710 H   0  0  0  0  0  0  0  0  0  0  0  0
   36.8780   30.1890   36.1220 C   0  0  0  0  0  0  0  0  0  0  0  0
   37.4950   31.2690   36.7470 C   0  0  0  0  0  0  0  0  0  0  0  0
   37.5290   31.2560   38.1200 C   0  0  0  0  0  0  0  0  0  0  0  0
   36.9730   30.2180   38.8080 N   0  0  0  0  0  0  0  0  0  0  0  0
   36.3850   29.1910   38.1450 C   0  0  0  0  0  0  0  0  0  0  0  0
   36.3410   29.1840   36.8010 N   0  0  0  0  0  0  0  0  0  0  0  0
   36.8000   30.1070   35.0350 H   0  0  0  0  0  0  0  0  0  0  0  0
   40.4690   30.8620   38.6660 Cl  0  0  0  0  0  0  0  0  0  0  0  0
   39.4690   32.1910   39.2190 C   0  0  0  0  0  0  0  0  0  0  0  0
   38.1320   32.2860   38.9130 C   0  0  0  0  0  0  0  0  0  0  0  0
   37.5790   33.4140   39.4570 C   0  0  0  0  0  0  0  0  0  0  0  0
   36.5340   33.5890   39.2820 H   0  0  0  0  0  0  0  0  0  0  0  0
   38.1980   34.3760   40.2200 C   0  0  0  0  0  0  0  0  0  0  0  0
   37.6830   35.2220   40.6010 H   0  0  0  0  0  0  0  0  0  0  0  0
   39.5330   34.2300   40.4950 C   0  0  0  0  0  3  0  0  0  0  0  0
   40.1750   33.1230   39.9880 C   0  0  0  0  0  3  0  0  0  0  0  0
   38.0350   32.2740   35.9450 N   0  0  0  0  0  0  0  0  0  0  0  0
   37.2670   32.9810   35.7470 H   0  0  0  0  0  0  0  0  0  0  0  0
   39.0200   31.8790   35.8790 H   0  0  0  0  0  0  0  0  0  0  0  0
  1  2  1  0  0  0  0
  1  4  1  0  0  0  0
  3  1  1  0  0  0  0
  4  8  1  0  0  0  0
  4  5  2  0  0  0  0
  5  9  1  0  0  0  0
  5  6  1  0  0  0  0
  6 10  1  0  0  0  0
  7  6  2  0  0  0  0
  7 11  1  0  0  0  0
  8  7  1  0  0  0  0
 11 16  1  0  0  0  0
 12 11  2  0  0  0  0
 12 13  1  0  0  0  0
 13 14  2  0  0  0  0
 14 15  1  0  0  0  0
 14 19  1  0  0  0  0
 15 20  1  0  0  0  0
 16 15  2  0  0  0  0
 17 12  1  0  0  0  0
 18 13  1  0  0  0  0
 21 22  2  0  0  0  0
 21 26  1  0  0  0  0
 22 23  1  0  0  0  0
 23 24  2  0  0  0  0
 23 30  1  0  0  0  0
 25 24  1  0  0  0  0
 25  1  1  0  0  0  0
 26 25  2  0  0  0  0
 27 21  1  0  0  0  0
 28 29  1  0  0  0  0
 29 36  1  0  0  0  0
 30 29  2  0  0  0  0
 30 31  1  0  0  0  0
 31 33  2  0  0  0  0
 32 31  1  0  0  0  0
 33 35  1  0  0  0  0
 33 34  1  0  0  0  0
 36 35  2  0  0  0  0
 37 22  1  0  0  0  0
 38 37  1  0  0  0  0
 39 37  1  0  0  0  0
M  END
>  <minimizedAffinity>
-6.44996405

$$$$

 OpenBabel03242518223D

 39 42  0  0  0  0  0  0  0  0999 V2000
   37.8750   30.6450   37.4810 C   0  0  0  0  0  0  0  0  0  0  0  0
   37.2440   31.0920   36.6870 H   0  0  0  0  0  0  0  0  0  0  0  0
   38.8480   30.3540   37.0620 H   0  0  0  0  0  0  0  0  0  0  0  0
   37.1640   29.4460   38.0250 C   0  0  0  0  0  0  0  0  0  0  0  0
   35.9270   29.0300   37.6000 C   0  0  0  0  0  0  0  0  0  0  0  0
   35.5750   27.9050   38.3050 C   0  0  0  0  0  0  0  0  0  0  0  0
   36.6390   27.6760   39.1540 C   0  0  0  0  0  0  0  0  0  0  0  0
   37.5130   28.6010   38.9370 O   0  0  0  0  0  0  0  0  0  0  0  0
   35.2410   29.4260   36.8500 H   0  0  0  0  0  0  0  0  0  0  0  0
   34.6880   27.2990   38.2510 H   0  0  0  0  0  0  0  0  0  0  0  0
   36.7380   26.5800   40.1160 C   0  0  0  0  0  0  0  0  0  0  0  0
   36.4780   25.2930   39.7400 C   0  0  0  0  0  0  0  0  0  0  0  0
   36.5600   24.2130   40.6110 C   0  0  0  0  0  0  0  0  0  0  0  0
   36.9380   24.5750   41.9160 C   0  0  0  0  0  0  0  0  0  0  0  0
   37.2020   25.8520   42.3100 C   0  0  0  0  0  0  0  0  0  0  0  0
   37.0950   26.8310   41.3940 N   0  0  0  0  0  0  0  0  0  0  0  0
   36.1900   25.0610   38.7210 H   0  0  0  0  0  0  0  0  0  0  0  0
   36.3570   23.1970   40.3230 H   0  0  0  0  0  0  0  0  0  0  0  0
   37.0160   23.7560   42.6370 H   0  0  0  0  0  0  0  0  0  0  0  0
   37.4820   26.0060   43.3370 H   0  0  0  0  0  0  0  0  0  0  0  0
   37.4720   33.5540   39.6830 C   0  0  0  0  0  0  0  0  0  0  0  0
   38.5960   33.5050   40.5030 C   0  0  0  0  0  0  0  0  0  0  0  0
   39.4770   32.4740   40.2900 C   0  0  0  0  0  0  0  0  0  0  0  0
   39.2320   31.5560   39.3120 N   0  0  0  0  0  0  0  0  0  0  0  0
   38.1200   31.6530   38.5410 C   0  0  0  0  0  0  0  0  0  0  0  0
   37.2440   32.6560   38.7330 N   0  0  0  0  0  0  0  0  0  0  0  0
   36.7140   34.3350   39.7730 H   0  0  0  0  0  0  0  0  0  0  0  0
   39.2590   30.4760   42.5400 Cl  0  0  0  0  0  0  0  0  0  0  0  0
   40.6800   31.3990   42.0920 C   0  0  0  0  0  0  0  0  0  0  0  0
   40.6830   32.2870   41.0420 C   0  0  0  0  0  0  0  0  0  0  0  0
   41.9100   32.8750   40.8950 C   0  0  0  0  0  0  0  0  0  0  0  0
   42.0270   33.5900   40.1030 H   0  0  0  0  0  0  0  0  0  0  0  0
   43.0430   32.6680   41.6470 C   0  0  0  0  0  0  0  0  0  0  0  0
   43.9560   33.1750   41.4560 H   0  0  0  0  0  0  0  0  0  0  0  0
   42.9820   31.7720   42.6830 C   0  0  0  0  0  3  0  0  0  0  0  0
   41.7850   31.1310   42.9070 C   0  0  0  0  0  3  0  0  0  0  0  0
   38.7500   34.5010   41.4690 N   0  0  0  0  0  0  0  0  0  0  0  0
   38.2420   34.1830   42.3470 H   0  0  0  0  0  0  0  0  0  0  0  0
   39.3320   35.1680   40.8830 H   0  0  0  0  0  0  0  0  0  0  0  0
  1  4  1  0  0  0  0
  1 25  1  0  0  0  0
  2  1  1  0  0  0  0
  3  1  1  0  0  0  0
  4  8  1  0  0  0  0
  5  4  2  0  0  0  0
  5  6  1  0  0  0  0
  6  7  2  0  0  0  0
  7 11  1  0  0  0  0
  8  7  1  0  0  0  0
  9  5  1  0  0  0  0
 10  6  1  0  0  0  0
 11 16  1  0  0  0  0
 12 11  2  0  0  0  0
 12 13  1  0  0  0  0
 13 14  2  0  0  0  0
 14 15  1  0  0  0  0
 14 19  1  0  0  0  0
 15 20  1  0  0  0  0
 16 15  2  0  0  0  0
 17 12  1  0  0  0  0
 18 13  1  0  0  0  0
 21 27  1  0  0  0  0
 21 22  1  0  0  0  0
 22 37  1  0  0  0  0
 23 22  2  0  0  0  0
 23 30  1  0  0  0  0
 24 23  1  0  0  0  0
 25 26  1  0  0  0  0
 25 24  2  0  0  0  0
 26 21  2  0  0  0  0
 29 28  1  0  0  0  0
 29 36  1  0  0  0  0
 30 29  2  0  0  0  0
 31 30  1  0  0  0  0
 31 33  2  0  0  0  0
 32 31  1  0  0  0  0
 33 35  1  0  0  0  0
 34 33  1  0  0  0  0
 35 36  2  0  0  0  0
 37 38  1  0  0  0  0
 39 37  1  0  0  0  0
M  END
>  <minimizedAffinity>
-6.40343237

$$$$

 OpenBabel03242518223D

 39 42  0  0  0  0  0  0  0  0999 V2000
   35.9230   27.4330   38.4850 C   0  0  0  0  0  0  0  0  0  0  0  0
   36.4630   27.5480   37.5240 H   0  0  0  0  0  0  0  0  0  0  0  0
   34.8550   27.2610   38.2930 H   0  0  0  0  0  0  0  0  0  0  0  0
   36.1140   28.6850   39.2800 C   0  0  0  0  0  0  0  0  0  0  0  0
   35.3260   29.0460   40.3440 C   0  0  0  0  0  0  0  0  0  0  0  0
   35.7770   30.2450   40.8400 C   0  0  0  0  0  0  0  0  0  0  0  0
   36.8500   30.5760   40.0360 C   0  0  0  0  0  0  0  0  0  0  0  0
   36.9840   29.6340   39.1630 O   0  0  0  0  0  0  0  0  0  0  0  0
   34.4680   28.5640   40.8130 H   0  0  0  0  0  0  0  0  0  0  0  0
   35.4180   30.8370   41.6630 H   0  0  0  0  0  0  0  0  0  0  0  0
   37.6720   31.7770   40.1670 C   0  0  0  0  0  0  0  0  0  0  0  0
   37.2270   32.9830   39.7040 C   0  0  0  0  0  0  0  0  0  0  0  0
   37.9650   34.1570   39.8050 C   0  0  0  0  0  0  0  0  0  0  0  0
   39.2120   33.9810   40.4300 C   0  0  0  0  0  0  0  0  0  0  0  0
   39.6720   32.7880   40.8980 C   0  0  0  0  0  0  0  0  0  0  0  0
   38.8860   31.7060   40.7550 N   0  0  0  0  0  0  0  0  0  0  0  0
   36.2580   33.0710   39.2290 H   0  0  0  0  0  0  0  0  0  0  0  0
   37.6230   35.1100   39.4430 H   0  0  0  0  0  0  0  0  0  0  0  0
   39.8290   34.8800   40.5320 H   0  0  0  0  0  0  0  0  0  0  0  0
   40.6450   32.7770   41.3590 H   0  0  0  0  0  0  0  0  0  0  0  0
   36.4360   23.9740   39.5980 C   0  0  0  0  0  0  0  0  0  0  0  0
   37.4400   24.0800   40.5560 C   0  0  0  0  0  0  0  0  0  0  0  0
   37.9280   25.3390   40.8080 C   0  0  0  0  0  0  0  0  0  0  0  0
   37.4310   26.4130   40.1310 N   0  0  0  0  0  0  0  0  0  0  0  0
   36.4510   26.2500   39.2070 C   0  0  0  0  0  0  0  0  0  0  0  0
   35.9590   25.0260   38.9460 N   0  0  0  0  0  0  0  0  0  0  0  0
   35.9820   23.0170   39.3280 H   0  0  0  0  0  0  0  0  0  0  0  0
   37.0410   27.0370   43.1370 Cl  0  0  0  0  0  0  0  0  0  0  0  0
   38.6470   26.3910   42.8630 C   0  0  0  0  0  0  0  0  0  0  0  0
   38.9550   25.6190   41.7680 C   0  0  0  0  0  0  0  0  0  0  0  0
   40.2690   25.2350   41.7870 C   0  0  0  0  0  0  0  0  0  0  0  0
   40.6210   24.6270   40.9750 H   0  0  0  0  0  0  0  0  0  0  0  0
   41.2230   25.5340   42.7300 C   0  0  0  0  0  0  0  0  0  0  0  0
   42.2250   25.1880   42.6590 H   0  0  0  0  0  0  0  0  0  0  0  0
   40.8610   26.3080   43.8020 C   0  0  0  0  0  3  0  0  0  0  0  0
   39.5560   26.7420   43.8670 C   0  0  0  0  0  3  0  0  0  0  0  0
   37.8700   22.9150   41.1920 N   0  0  0  0  0  0  0  0  0  0  0  0
   38.6440   22.4890   40.6010 H   0  0  0  0  0  0  0  0  0  0  0  0
   37.2110   22.9640   42.0240 H   0  0  0  0  0  0  0  0  0  0  0  0
  1 25  1  0  0  0  0
  1  4  1  0  0  0  0
  2  1  1  0  0  0  0
  3  1  1  0  0  0  0
  4  5  2  0  0  0  0
  5  9  1  0  0  0  0
  5  6  1  0  0  0  0
  6 10  1  0  0  0  0
  7 11  1  0  0  0  0
  7  6  2  0  0  0  0
  8  4  1  0  0  0  0
  8  7  1  0  0  0  0
 11 16  1  0  0  0  0
 12 13  1  0  0  0  0
 12 11  2  0  0  0  0
 13 14  2  0  0  0  0
 14 19  1  0  0  0  0
 14 15  1  0  0  0  0
 15 20  1  0  0  0  0
 16 15  2  0  0  0  0
 17 12  1  0  0  0  0
 18 13  1  0  0  0  0
 21 22  1  0  0  0  0
 22 23  2  0  0  0  0
 22 37  1  0  0  0  0
 23 30  1  0  0  0  0
 24 23  1  0  0  0  0
 25 24  2  0  0  0  0
 26 25  1  0  0  0  0
 26 21  2  0  0  0  0
 27 21  1  0  0  0  0
 29 28  1  0  0  0  0
 29 36  1  0  0  0  0
 30 31  1  0  0  0  0
 30 29  2  0  0  0  0
 31 33  2  0  0  0  0
 32 31  1  0  0  0  0
 33 35  1  0  0  0  0
 34 33  1  0  0  0  0
 35 36  2  0  0  0  0
 37 39  1  0  0  0  0
 38 37  1  0  0  0  0
M  END
>  <minimizedAffinity>
-6.39478445

$$$$

 OpenBabel03242518223D

 39 42  0  0  0  0  0  0  0  0999 V2000
   37.6780   30.7130   37.5420 C   0  0  0  0  0  0  0  0  0  0  0  0
   37.0230   31.1750   36.7770 H   0  0  0  0  0  0  0  0  0  0  0  0
   38.6280   30.4080   37.0810 H   0  0  0  0  0  0  0  0  0  0  0  0
   36.9690   29.5250   38.1090 C   0  0  0  0  0  0  0  0  0  0  0  0
   35.6640   29.2050   37.8320 C   0  0  0  0  0  0  0  0  0  0  0  0
   35.3360   28.0600   38.5150 C   0  0  0  0  0  0  0  0  0  0  0  0
   36.4850   27.7180   39.1990 C   0  0  0  0  0  0  0  0  0  0  0  0
   37.3810   28.6050   38.9180 O   0  0  0  0  0  0  0  0  0  0  0  0
   34.9130   29.6860   37.2040 H   0  0  0  0  0  0  0  0  0  0  0  0
   34.4130   27.5090   38.5470 H   0  0  0  0  0  0  0  0  0  0  0  0
   36.6400   26.5600   40.0770 C   0  0  0  0  0  0  0  0  0  0  0  0
   37.0590   26.7110   41.3680 C   0  0  0  0  0  0  0  0  0  0  0  0
   37.2200   25.6450   42.2470 C   0  0  0  0  0  0  0  0  0  0  0  0
   36.9090   24.3990   41.6760 C   0  0  0  0  0  0  0  0  0  0  0  0
   36.4890   24.2280   40.3920 C   0  0  0  0  0  0  0  0  0  0  0  0
   36.3640   25.3210   39.6170 N   0  0  0  0  0  0  0  0  0  0  0  0
   37.2870   27.6930   41.7650 H   0  0  0  0  0  0  0  0  0  0  0  0
   37.5500   25.7560   43.2640 H   0  0  0  0  0  0  0  0  0  0  0  0
   37.0220   23.5300   42.3320 H   0  0  0  0  0  0  0  0  0  0  0  0
   36.2810   23.2240   40.0670 H   0  0  0  0  0  0  0  0  0  0  0  0
   37.4830   33.6820   39.6910 C   0  0  0  0  0  0  0  0  0  0  0  0
   38.5730   33.5430   40.5450 C   0  0  0  0  0  0  0  0  0  0  0  0
   39.3610   32.4320   40.3730 C   0  0  0  0  0  0  0  0  0  0  0  0
   39.0600   31.5250   39.4000 N   0  0  0  0  0  0  0  0  0  0  0  0
   37.9850   31.7120   38.5950 C   0  0  0  0  0  0  0  0  0  0  0  0
   37.2000   32.7930   38.7470 N   0  0  0  0  0  0  0  0  0  0  0  0
   36.7970   34.5300   39.7490 H   0  0  0  0  0  0  0  0  0  0  0  0
   41.8770   33.8200   39.4550 Cl  0  0  0  0  0  0  0  0  0  0  0  0
   41.7190   32.7300   40.8190 C   0  0  0  0  0  0  0  0  0  0  0  0
   40.5230   32.1470   41.1630 C   0  0  0  0  0  0  0  0  0  0  0  0
   40.6610   31.3450   42.2630 C   0  0  0  0  0  0  0  0  0  0  0  0
   39.7860   30.8360   42.6210 H   0  0  0  0  0  0  0  0  0  0  0  0
   41.8020   31.0950   42.9900 C   0  0  0  0  0  0  0  0  0  0  0  0
   41.8120   30.4530   43.8350 H   0  0  0  0  0  0  0  0  0  0  0  0
   42.9680   31.7030   42.6010 C   0  0  0  0  0  3  0  0  0  0  0  0
   42.9240   32.5290   41.5010 C   0  0  0  0  0  3  0  0  0  0  0  0
   38.7900   34.5360   41.5030 N   0  0  0  0  0  0  0  0  0  0  0  0
   38.2300   34.2800   42.3690 H   0  0  0  0  0  0  0  0  0  0  0  0
   39.4470   35.1380   40.9250 H   0  0  0  0  0  0  0  0  0  0  0  0
  1  4  1  0  0  0  0
  1 25  1  0  0  0  0
  2  1  1  0  0  0  0
  3  1  1  0  0  0  0
  4  8  1  0  0  0  0
  5  4  2  0  0  0  0
  5  6  1  0  0  0  0
  6 10  1  0  0  0  0
  6  7  2  0  0  0  0
  7 11  1  0  0  0  0
  8  7  1  0  0  0  0
  9  5  1  0  0  0  0
 11 12  1  0  0  0  0
 12 17  1  0  0  0  0
 12 13  2  0  0  0  0
 13 18  1  0  0  0  0
 14 13  1  0  0  0  0
 14 19  1  0  0  0  0
 15 14  2  0  0  0  0
 16 11  2  0  0  0  0
 16 15  1  0  0  0  0
 20 15  1  0  0  0  0
 21 27  1  0  0  0  0
 21 22  1  0  0  0  0
 22 37  1  0  0  0  0
 23 22  2  0  0  0  0
 23 30  1  0  0  0  0
 24 23  1  0  0  0  0
 25 26  1  0  0  0  0
 25 24  2  0  0  0  0
 26 21  2  0  0  0  0
 28 29  1  0  0  0  0
 29 30  2  0  0  0  0
 29 36  1  0  0  0  0
 30 31  1  0  0  0  0
 31 32  1  0  0  0  0
 31 33  2  0  0  0  0
 33 34  1  0  0  0  0
 35 33  1  0  0  0  0
 36 35  2  0  0  0  0
 37 38  1  0  0  0  0
 39 37  1  0  0  0  0
M  END
>  <minimizedAffinity>
-6.37390232

$$$$

 OpenBabel03242518223D

 39 42  0  0  0  0  0  0  0  0999 V2000
   39.5910   30.7780   42.2810 C   0  0  0  0  0  0  0  0  0  0  0  0
   40.6330   30.6690   42.6410 H   0  0  0  0  0  0  0  0  0  0  0  0
   39.0820   31.5690   42.8490 H   0  0  0  0  0  0  0  0  0  0  0  0
   38.8920   29.4690   42.4710 C   0  0  0  0  0  0  0  0  0  0  0  0
   37.8970   29.2570   43.3920 C   0  0  0  0  0  0  0  0  0  0  0  0
   37.4800   27.9520   43.2990 C   0  0  0  0  0  0  0  0  0  0  0  0
   38.2590   27.4060   42.2970 C   0  0  0  0  0  0  0  0  0  0  0  0
   39.0450   28.3360   41.8700 O   0  0  0  0  0  0  0  0  0  0  0  0
   37.4290   29.9150   44.1260 H   0  0  0  0  0  0  0  0  0  0  0  0
   36.7250   27.4210   43.8510 H   0  0  0  0  0  0  0  0  0  0  0  0
   38.1890   26.0260   41.8230 C   0  0  0  0  0  0  0  0  0  0  0  0
   37.0060   25.3440   41.8280 C   0  0  0  0  0  0  0  0  0  0  0  0
   36.8810   24.0310   41.3860 C   0  0  0  0  0  0  0  0  0  0  0  0
   38.0910   23.4770   40.9330 C   0  0  0  0  0  0  0  0  0  0  0  0
   39.2800   24.1410   40.9200 C   0  0  0  0  0  0  0  0  0  0  0  0
   39.3010   25.4090   41.3690 N   0  0  0  0  0  0  0  0  0  0  0  0
   36.0970   25.8130   42.1860 H   0  0  0  0  0  0  0  0  0  0  0  0
   35.9540   23.4870   41.3860 H   0  0  0  0  0  0  0  0  0  0  0  0
   38.0410   22.4440   40.5750 H   0  0  0  0  0  0  0  0  0  0  0  0
   40.1400   23.6120   40.5510 H   0  0  0  0  0  0  0  0  0  0  0  0
   40.3320   32.5940   39.1790 C   0  0  0  0  0  0  0  0  0  0  0  0
   39.6060   31.9060   38.2120 C   0  0  0  0  0  0  0  0  0  0  0  0
   38.8710   30.8270   38.6370 C   0  0  0  0  0  0  0  0  0  0  0  0
   38.8750   30.4730   39.9530 N   0  0  0  0  0  0  0  0  0  0  0  0
   39.6020   31.1810   40.8530 C   0  0  0  0  0  0  0  0  0  0  0  0
   40.3290   32.2410   40.4580 N   0  0  0  0  0  0  0  0  0  0  0  0
   40.9480   33.4660   38.9410 H   0  0  0  0  0  0  0  0  0  0  0  0
   40.3410   28.5570   37.3020 Cl  0  0  0  0  0  0  0  0  0  0  0  0
   38.6470   28.9640   37.1110 C   0  0  0  0  0  0  0  0  0  0  0  0
   38.0630   30.0200   37.7690 C   0  0  0  0  0  0  0  0  0  0  0  0
   36.7340   30.1260   37.4570 C   0  0  0  0  0  0  0  0  0  0  0  0
   36.1770   30.9200   37.9150 H   0  0  0  0  0  0  0  0  0  0  0  0
   36.0000   29.3280   36.6110 C   0  0  0  0  0  0  0  0  0  0  0  0
   34.9660   29.4880   36.4300 H   0  0  0  0  0  0  0  0  0  0  0  0
   36.6330   28.2890   35.9800 C   0  0  0  0  0  3  0  0  0  0  0  0
   37.9740   28.1060   36.2340 C   0  0  0  0  0  3  0  0  0  0  0  0
   39.6690   32.3600   36.8940 N   0  0  0  0  0  0  0  0  0  0  0  0
   40.5030   31.8930   36.4290 H   0  0  0  0  0  0  0  0  0  0  0  0
   38.8220   33.0000   36.9310 H   0  0  0  0  0  0  0  0  0  0  0  0
  1  4  1  0  0  0  0
  1  2  1  0  0  0  0
  1  3  1  0  0  0  0
  4  5  2  0  0  0  0
  5  9  1  0  0  0  0
  6  5  1  0  0  0  0
  6 10  1  0  0  0  0
  7  6  2  0  0  0  0
  8  7  1  0  0  0  0
  8  4  1  0  0  0  0
 11 12  1  0  0  0  0
 11  7  1  0  0  0  0
 12 17  1  0  0  0  0
 13 12  2  0  0  0  0
 14 13  1  0  0  0  0
 15 14  2  0  0  0  0
 15 16  1  0  0  0  0
 16 11  2  0  0  0  0
 18 13  1  0  0  0  0
 19 14  1  0  0  0  0
 20 15  1  0  0  0  0
 21 26  1  0  0  0  0
 22 23  1  0  0  0  0
 22 21  2  0  0  0  0
 23 24  2  0  0  0  0
 24 25  1  0  0  0  0
 25  1  1  0  0  0  0
 26 25  2  0  0  0  0
 27 21  1  0  0  0  0
 29 28  1  0  0  0  0
 29 30  1  0  0  0  0
 30 23  1  0  0  0  0
 31 30  2  0  0  0  0
 31 32  1  0  0  0  0
 33 31  1  0  0  0  0
 34 33  1  0  0  0  0
 35 36  1  0  0  0  0
 35 33  2  0  0  0  0
 36 29  2  0  0  0  0
 37 39  1  0  0  0  0
 37 22  1  0  0  0  0
 38 37  1  0  0  0  0
M  END
>  <minimizedAffinity>
-6.34126186

$$$$

 OpenBabel03242518223D

 39 42  0  0  0  0  0  0  0  0999 V2000
   38.8500   29.7690   42.7150 C   0  0  0  0  0  0  0  0  0  0  0  0
   39.9450   29.6030   42.6840 H   0  0  0  0  0  0  0  0  0  0  0  0
   38.5790   30.2860   43.6460 H   0  0  0  0  0  0  0  0  0  0  0  0
   38.1720   28.4380   42.6430 C   0  0  0  0  0  0  0  0  0  0  0  0
   37.2170   28.0140   43.5330 C   0  0  0  0  0  0  0  0  0  0  0  0
   36.8100   26.7520   43.1730 C   0  0  0  0  0  0  0  0  0  0  0  0
   37.5520   26.4510   42.0480 C   0  0  0  0  0  0  0  0  0  0  0  0
   38.3110   27.4660   41.8030 O   0  0  0  0  0  0  0  0  0  0  0  0
   36.7750   28.4880   44.4090 H   0  0  0  0  0  0  0  0  0  0  0  0
   36.0830   26.1010   43.6250 H   0  0  0  0  0  0  0  0  0  0  0  0
   37.4760   25.2050   41.2880 C   0  0  0  0  0  0  0  0  0  0  0  0
   36.5450   25.0430   40.3020 C   0  0  0  0  0  0  0  0  0  0  0  0
   36.4300   23.8820   39.5460 C   0  0  0  0  0  0  0  0  0  0  0  0
   37.3650   22.8930   39.8960 C   0  0  0  0  0  0  0  0  0  0  0  0
   38.3010   23.0360   40.8750 C   0  0  0  0  0  0  0  0  0  0  0  0
   38.3340   24.1970   41.5530 N   0  0  0  0  0  0  0  0  0  0  0  0
   35.8430   25.8350   40.0670 H   0  0  0  0  0  0  0  0  0  0  0  0
   35.6990   23.7460   38.7690 H   0  0  0  0  0  0  0  0  0  0  0  0
   37.3120   21.9590   39.3260 H   0  0  0  0  0  0  0  0  0  0  0  0
   38.9640   22.2070   41.0530 H   0  0  0  0  0  0  0  0  0  0  0  0
   36.8090   31.5540   40.2410 C   0  0  0  0  0  0  0  0  0  0  0  0
   37.7440   32.2500   39.4810 C   0  0  0  0  0  0  0  0  0  0  0  0
   39.0640   32.0980   39.8280 C   0  0  0  0  0  0  0  0  0  0  0  0
   39.4070   31.2950   40.8750 N   0  0  0  0  0  0  0  0  0  0  0  0
   38.4520   30.6400   41.5810 C   0  0  0  0  0  0  0  0  0  0  0  0
   37.1540   30.7740   41.2580 N   0  0  0  0  0  0  0  0  0  0  0  0
   35.7350   31.6090   40.0440 H   0  0  0  0  0  0  0  0  0  0  0  0
   40.2450   30.4920   37.5650 Cl  0  0  0  0  0  0  0  0  0  0  0  0
   40.7550   32.0820   38.1000 C   0  0  0  0  0  0  0  0  0  0  0  0
   40.1480   32.7390   39.1430 C   0  0  0  0  0  0  0  0  0  0  0  0
   40.7240   33.9620   39.3610 C   0  0  0  0  0  0  0  0  0  0  0  0
   40.3290   34.5640   40.1570 H   0  0  0  0  0  0  0  0  0  0  0  0
   41.7710   34.5360   38.6790 C   0  0  0  0  0  0  0  0  0  0  0  0
   42.1530   35.4960   38.9220 H   0  0  0  0  0  0  0  0  0  0  0  0
   42.3390   33.8350   37.6470 C   0  0  0  0  0  3  0  0  0  0  0  0
   41.8240   32.5920   37.3550 C   0  0  0  0  0  3  0  0  0  0  0  0
   37.2810   33.0390   38.4270 N   0  0  0  0  0  0  0  0  0  0  0  0
   37.0570   34.0030   38.8170 H   0  0  0  0  0  0  0  0  0  0  0  0
   37.3580   32.3040   37.6640 H   0  0  0  0  0  0  0  0  0  0  0  0
  1  3  1  0  0  0  0
  2  1  1  0  0  0  0
  4  1  1  0  0  0  0
  4  5  2  0  0  0  0
  5  9  1  0  0  0  0
  6  5  1  0  0  0  0
  6 10  1  0  0  0  0
  7  6  2  0  0  0  0
  8  7  1  0  0  0  0
  8  4  1  0  0  0  0
 11 16  1  0  0  0  0
 11  7  1  0  0  0  0
 12 11  2  0  0  0  0
 13 14  2  0  0  0  0
 13 12  1  0  0  0  0
 14 15  1  0  0  0  0
 15 20  1  0  0  0  0
 15 16  2  0  0  0  0
 17 12  1  0  0  0  0
 18 13  1  0  0  0  0
 19 14  1  0  0  0  0
 21 26  1  0  0  0  0
 22 23  1  0  0  0  0
 22 21  2  0  0  0  0
 23 24  2  0  0  0  0
 24 25  1  0  0  0  0
 25  1  1  0  0  0  0
 26 25  2  0  0  0  0
 27 21  1  0  0  0  0
 28 29  1  0  0  0  0
 29 30  1  0  0  0  0
 30 31  2  0  0  0  0
 30 23  1  0  0  0  0
 31 32  1  0  0  0  0
 33 34  1  0  0  0  0
 33 31  1  0  0  0  0
 35 33  2  0  0  0  0
 36 35  1  0  0  0  0
 36 29  2  0  0  0  0
 37 38  1  0  0  0  0
 37 22  1  0  0  0  0
 39 37  1  0  0  0  0
M  END
>  <minimizedAffinity>
-6.31828117

$$$$

 OpenBabel03242518223D

 39 42  0  0  0  0  0  0  0  0999 V2000
   36.2250   28.8530   36.3850 C   0  0  0  0  0  0  0  0  0  0  0  0
   36.8990   28.0140   36.1240 H   0  0  0  0  0  0  0  0  0  0  0  0
   36.3570   29.6740   35.6660 H   0  0  0  0  0  0  0  0  0  0  0  0
   36.5630   29.3130   37.7670 C   0  0  0  0  0  0  0  0  0  0  0  0
   36.8580   30.6120   38.0940 C   0  0  0  0  0  0  0  0  0  0  0  0
   37.1190   30.6810   39.4400 C   0  0  0  0  0  0  0  0  0  0  0  0
   36.9690   29.3850   39.8930 C   0  0  0  0  0  0  0  0  0  0  0  0
   36.6500   28.6550   38.8770 O   0  0  0  0  0  0  0  0  0  0  0  0
   36.9120   31.5210   37.4930 H   0  0  0  0  0  0  0  0  0  0  0  0
   37.3830   31.5220   40.0560 H   0  0  0  0  0  0  0  0  0  0  0  0
   37.1430   28.9410   41.2740 C   0  0  0  0  0  0  0  0  0  0  0  0
   36.4150   27.8980   41.7710 C   0  0  0  0  0  0  0  0  0  0  0  0
   36.5420   27.4330   43.0760 C   0  0  0  0  0  0  0  0  0  0  0  0
   37.4950   28.1400   43.8300 C   0  0  0  0  0  0  0  0  0  0  0  0
   38.2310   29.1810   43.3520 C   0  0  0  0  0  0  0  0  0  0  0  0
   38.0360   29.5600   42.0760 N   0  0  0  0  0  0  0  0  0  0  0  0
   35.6910   27.3820   41.1520 H   0  0  0  0  0  0  0  0  0  0  0  0
   35.9720   26.6130   43.4750 H   0  0  0  0  0  0  0  0  0  0  0  0
   37.6290   27.8080   44.8650 H   0  0  0  0  0  0  0  0  0  0  0  0
   38.9300   29.6450   44.0260 H   0  0  0  0  0  0  0  0  0  0  0  0
   33.2740   26.7370   35.8470 C   0  0  0  0  0  0  0  0  0  0  0  0
   32.2060   27.5790   36.1420 C   0  0  0  0  0  0  0  0  0  0  0  0
   32.5120   28.8630   36.5210 C   0  0  0  0  0  0  0  0  0  0  0  0
   33.8140   29.2610   36.5970 N   0  0  0  0  0  0  0  0  0  0  0  0
   34.8160   28.3970   36.2980 C   0  0  0  0  0  0  0  0  0  0  0  0
   34.5380   27.1350   35.9240 N   0  0  0  0  0  0  0  0  0  0  0  0
   33.1340   25.6990   35.5360 H   0  0  0  0  0  0  0  0  0  0  0  0
   31.9250   30.8310   34.3120 Cl  0  0  0  0  0  0  0  0  0  0  0  0
   31.1990   30.7990   35.9070 C   0  0  0  0  0  0  0  0  0  0  0  0
   31.5290   29.8540   36.8490 C   0  0  0  0  0  0  0  0  0  0  0  0
   30.8230   30.0410   38.0070 C   0  0  0  0  0  0  0  0  0  0  0  0
   31.0030   29.3580   38.8160 H   0  0  0  0  0  0  0  0  0  0  0  0
   29.8900   31.0130   38.2800 C   0  0  0  0  0  0  0  0  0  0  0  0
   29.3900   31.0790   39.2140 H   0  0  0  0  0  0  0  0  0  0  0  0
   29.5990   31.9300   37.3030 C   0  0  0  0  0  3  0  0  0  0  0  0
   30.2630   31.8210   36.1020 C   0  0  0  0  0  3  0  0  0  0  0  0
   30.9120   27.0680   36.0250 N   0  0  0  0  0  0  0  0  0  0  0  0
   30.6570   26.6160   36.9520 H   0  0  0  0  0  0  0  0  0  0  0  0
   30.7400   27.3660   35.0200 H   0  0  0  0  0  0  0  0  0  0  0  0
  1  4  1  0  0  0  0
  2  1  1  0  0  0  0
  3  1  1  0  0  0  0
  4  5  2  0  0  0  0
  4  8  1  0  0  0  0
  5  6  1  0  0  0  0
  6  7  2  0  0  0  0
  6 10  1  0  0  0  0
  7 11  1  0  0  0  0
  8  7  1  0  0  0  0
  9  5  1  0  0  0  0
 11 12  2  0  0  0  0
 11 16  1  0  0  0  0
 12 13  1  0  0  0  0
 13 18  1  0  0  0  0
 13 14  2  0  0  0  0
 14 19  1  0  0  0  0
 15 14  1  0  0  0  0
 15 20  1  0  0  0  0
 16 15  2  0  0  0  0
 17 12  1  0  0  0  0
 21 26  2  0  0  0  0
 21 22  1  0  0  0  0
 22 23  2  0  0  0  0
 23 24  1  0  0  0  0
 23 30  1  0  0  0  0
 25  1  1  0  0  0  0
 25 24  2  0  0  0  0
 26 25  1  0  0  0  0
 27 21  1  0  0  0  0
 28 29  1  0  0  0  0
 29 36  2  0  0  0  0
 29 30  1  0  0  0  0
 30 31  2  0  0  0  0
 31 33  1  0  0  0  0
 31 32  1  0  0  0  0
 33 34  1  0  0  0  0
 35 33  2  0  0  0  0
 36 35  1  0  0  0  0
 37 22  1  0  0  0  0
 37 38  1  0  0  0  0
 39 37  1  0  0  0  0
M  END
>  <minimizedAffinity>
-6.28559542

$$$$
