
 OpenBabel03252504413D

 45 48  0  0  0  0  0  0  0  0999 V2000
   45.9210   32.2360   48.3890 C   0  0  0  0  0  0  0  0  0  0  0  0
   45.5330   31.3540   49.3520 C   0  0  0  0  0  0  0  0  0  0  0  0
   46.6280   30.6550   49.6840 N   0  0  0  0  0  0  0  0  0  0  0  0
   47.6920   31.0580   48.9730 C   0  0  0  0  0  0  0  0  0  0  0  0
   47.2400   32.0510   48.1610 N   0  0  0  0  0  0  0  0  0  0  0  0
   49.0390   30.6290   48.9700 N   0  0  0  0  0  0  0  0  0  0  0  0
   49.9780   31.2910   49.9020 C   0  0  0  0  0  0  0  0  0  0  0  0
   50.1840   30.2740   51.0210 C   0  0  0  0  0  0  0  0  0  0  0  0
   50.4800   28.9050   50.4410 C   0  0  0  0  0  0  0  0  0  0  0  0
   50.8780   29.0540   48.9880 C   0  0  0  0  0  0  0  0  0  0  0  0
   49.7220   29.6320   48.2100 C   0  0  0  0  0  0  0  0  0  0  0  0
   44.5460   31.2180   49.7850 H   0  0  0  0  0  0  0  0  0  0  0  0
   46.7250   29.8850   50.3920 H   0  0  0  0  0  0  0  0  0  0  0  0
   49.5100   32.1940   50.3510 H   0  0  0  0  0  0  0  0  0  0  0  0
   50.9170   31.5460   49.4120 H   0  0  0  0  0  0  0  0  0  0  0  0
   51.0350   30.6490   51.6270 H   0  0  0  0  0  0  0  0  0  0  0  0
   49.2880   30.2780   51.6570 H   0  0  0  0  0  0  0  0  0  0  0  0
   49.5880   28.2580   50.5560 H   0  0  0  0  0  0  0  0  0  0  0  0
   51.3640   28.4820   50.9610 H   0  0  0  0  0  0  0  0  0  0  0  0
   51.7510   29.7260   48.9670 H   0  0  0  0  0  0  0  0  0  0  0  0
   51.1920   28.0750   48.5960 H   0  0  0  0  0  0  0  0  0  0  0  0
   49.0850   28.8140   47.8430 H   0  0  0  0  0  0  0  0  0  0  0  0
   50.1840   30.1410   47.3180 H   0  0  0  0  0  0  0  0  0  0  0  0
   45.0550   33.2380   47.6950 C   0  0  0  0  0  0  0  0  0  0  0  0
   44.0640   32.7120   47.5840 H   0  0  0  0  0  0  0  0  0  0  0  0
   44.9010   34.1470   48.3060 H   0  0  0  0  0  0  0  0  0  0  0  0
   45.0560   34.4630   45.5600 C   0  0  0  0  0  0  0  0  0  0  0  0
   45.5190   33.4990   46.3280 C   0  0  0  0  0  0  0  0  0  0  0  0
   45.6130   34.5920   44.2140 C   0  0  0  0  0  0  0  0  0  0  0  0
   44.9360   35.3380   43.1990 C   0  0  0  0  0  0  0  0  0  0  0  0
   45.5230   35.4050   41.9550 C   0  0  0  0  0  0  0  0  0  0  0  0
   46.7040   34.7700   41.7450 N   0  0  0  0  0  0  0  0  0  0  0  0
   47.3270   34.0690   42.7210 C   0  0  0  0  0  0  0  0  0  0  0  0
   46.8010   33.9800   43.9250 N   0  0  0  0  0  0  0  0  0  0  0  0
   44.0080   35.7870   43.5150 H   0  0  0  0  0  0  0  0  0  0  0  0
   44.9910   35.9680   41.2220 H   0  0  0  0  0  0  0  0  0  0  0  0
   47.2050   31.5490   40.9750 Cl  0  0  0  0  0  0  0  0  0  0  0  0
   48.6760   32.3370   41.5020 C   0  0  0  0  0  0  0  0  0  0  0  0
   48.5800   33.4660   42.2860 C   0  0  0  0  0  0  0  0  0  0  0  0
   49.8020   33.9980   42.6360 C   0  0  0  0  0  0  0  0  0  0  0  0
   49.8710   34.8990   43.2590 H   0  0  0  0  0  0  0  0  0  0  0  0
   51.0140   33.4520   42.2380 C   0  0  0  0  0  0  0  0  0  0  0  0
   51.9480   33.9240   42.5520 H   0  0  0  0  0  0  0  0  0  0  0  0
   51.0390   32.3220   41.4560 C   0  0  0  0  0  0  0  0  0  0  0  0
   49.8500   31.7530   41.0790 C   0  0  0  0  0  0  0  0  0  0  0  0
  1  2  2  0  0  0  0
  2  3  1  0  0  0  0
  2 12  1  0  0  0  0
  3 13  1  0  0  0  0
  4  3  1  0  0  0  0
  5  1  1  0  0  0  0
  5  4  2  0  0  0  0
  6  4  1  0  0  0  0
  6  7  1  0  0  0  0
  7 14  1  0  0  0  0
  7  8  1  0  0  0  0
  8 16  1  0  0  0  0
  8 17  1  0  0  0  0
  9 18  1  0  0  0  0
  9 19  1  0  0  0  0
  9  8  1  0  0  0  0
 10  9  1  0  0  0  0
 11  6  1  0  0  0  0
 11 10  1  0  0  0  0
 15  7  1  0  0  0  0
 20 10  1  0  0  0  0
 21 10  1  0  0  0  0
 22 11  1  0  0  0  0
 23 11  1  0  0  0  0
 24 26  1  0  0  0  0
 24  1  1  0  0  0  0
 25 24  1  0  0  0  0
 27 28  2  0  0  0  0
 28 24  1  0  0  0  0
 29 27  1  0  0  0  0
 30 35  1  0  0  0  0
 30 29  2  0  0  0  0
 31 30  1  0  0  0  0
 32 31  2  0  0  0  0
 32 33  1  0  0  0  0
 33 34  2  0  0  0  0
 34 29  1  0  0  0  0
 36 31  1  0  0  0  0
 37 38  1  0  0  0  0
 38 39  1  0  0  0  0
 39 40  2  0  0  0  0
 39 33  1  0  0  0  0
 40 41  1  0  0  0  0
 42 43  1  0  0  0  0
 42 40  1  0  0  0  0
 44 42  2  0  0  0  0
 45 44  1  0  0  0  0
 45 38  2  0  0  0  0
M  END
>  <minimizedAffinity>
-6.831882

>  <minimizedRMSD>
1.56388652

$$$$
