
 OpenBabel03252506563D

 38 42  0  0  0  0  0  0  0  0999 V2000
   47.1690   31.3750   45.0360 C   0  0  0  0  0  0  0  0  0  0  0  0
   46.8810   32.7400   45.0420 C   0  0  0  0  0  0  0  0  0  0  0  0
   46.2970   33.3710   46.1250 C   0  0  0  0  0  0  0  0  0  0  0  0
   45.9720   32.6450   47.2670 C   0  0  0  0  0  0  0  0  0  0  0  0
   45.4100   32.9270   48.4710 N   0  0  0  0  0  0  0  0  0  0  0  0
   45.3500   31.7710   49.1910 C   0  0  0  0  0  0  0  0  0  0  0  0
   45.8800   30.7930   48.4130 N   0  0  0  0  0  0  0  0  0  0  0  0
   46.2650   31.3070   47.2330 C   0  0  0  0  0  0  0  0  0  0  0  0
   46.8400   30.6420   46.1940 C   0  0  0  0  0  0  0  0  0  0  0  0
   47.6240   30.8920   44.1920 H   0  0  0  0  0  0  0  0  0  0  0  0
   46.0780   34.4400   46.1150 H   0  0  0  0  0  0  0  0  0  0  0  0
   45.0950   33.8630   48.7570 H   0  0  0  0  0  0  0  0  0  0  0  0
   44.9640   31.6440   50.1810 H   0  0  0  0  0  0  0  0  0  0  0  0
   46.6340   35.1960   42.3280 C   0  0  0  0  0  0  0  0  0  0  0  0
   47.8430   35.0100   41.6450 C   0  0  0  0  0  0  0  0  0  0  0  0
   48.7350   34.0470   42.1180 C   0  0  0  0  0  0  0  0  0  0  0  0
   48.3820   33.3270   43.2310 N   0  0  0  0  0  0  0  0  0  0  0  0
   47.2080   33.5300   43.8670 C   0  0  0  0  0  0  0  0  0  0  0  0
   46.3470   34.4540   43.4180 N   0  0  0  0  0  0  0  0  0  0  0  0
   45.8860   35.9280   42.0220 H   0  0  0  0  0  0  0  0  0  0  0  0
   48.0520   35.6080   40.7850 H   0  0  0  0  0  0  0  0  0  0  0  0
   49.6800   33.8740   41.6170 H   0  0  0  0  0  0  0  0  0  0  0  0
   47.1160   29.2050   46.2510 C   0  0  0  0  0  0  0  0  0  0  0  0
   48.3660   28.6510   46.4510 C   0  0  0  0  0  0  0  0  0  0  0  0
   48.1200   27.2670   46.4270 C   0  0  0  0  0  0  0  0  0  0  0  0
   46.7720   27.0730   46.2210 C   0  0  0  0  0  0  0  0  0  0  0  0
   46.2260   28.2640   46.1240 O   0  0  0  0  0  0  0  0  0  0  0  0
   49.3210   29.1080   46.5930 H   0  0  0  0  0  0  0  0  0  0  0  0
   48.8430   26.4520   46.5470 H   0  0  0  0  0  0  0  0  0  0  0  0
   44.9100   26.4880   48.4870 Cl  0  0  0  0  0  0  0  0  0  0  0  0
   45.1970   25.4230   47.1220 C   0  0  0  0  0  0  0  0  0  0  0  0
   46.0810   25.7930   46.1270 C   0  0  0  0  0  0  0  0  0  0  0  0
   46.3200   24.9700   45.0460 C   0  0  0  0  0  0  0  0  0  0  0  0
   47.0090   25.2510   44.2670 H   0  0  0  0  0  0  0  0  0  0  0  0
   45.6740   23.7550   44.9420 C   0  0  0  0  0  0  0  0  0  0  0  0
   45.8620   23.1100   44.0940 H   0  0  0  0  0  0  0  0  0  0  0  0
   44.7970   23.4120   45.9510 C   0  0  0  0  0  3  0  0  0  0  0  0
   44.5270   24.2070   47.0540 C   0  0  0  0  0  3  0  0  0  0  0  0
  1  2  2  0  0  0  0
  1  9  1  0  0  0  0
  2  3  1  0  0  0  0
  3  4  2  0  0  0  0
  4  5  1  0  0  0  0
  5 12  1  0  0  0  0
  5  6  1  0  0  0  0
  6 13  1  0  0  0  0
  7  6  2  0  0  0  0
  8  4  1  0  0  0  0
  8  7  1  0  0  0  0
  9 23  1  0  0  0  0
  9  8  2  0  0  0  0
 10  1  1  0  0  0  0
 11  3  1  0  0  0  0
 14 19  1  0  0  0  0
 15 16  1  0  0  0  0
 15 14  2  0  0  0  0
 16 17  2  0  0  0  0
 17 18  1  0  0  0  0
 18  2  1  0  0  0  0
 19 18  2  0  0  0  0
 20 14  1  0  0  0  0
 21 15  1  0  0  0  0
 22 16  1  0  0  0  0
 23 24  2  0  0  0  0
 24 28  1  0  0  0  0
 25 24  1  0  0  0  0
 25 29  1  0  0  0  0
 26 25  2  0  0  0  0
 27 26  1  0  0  0  0
 27 23  1  0  0  0  0
 31 30  1  0  0  0  0
 32 26  1  0  0  0  0
 32 31  2  0  0  0  0
 33 32  1  0  0  0  0
 34 33  1  0  0  0  0
 35 33  2  0  0  0  0
 35 37  1  0  0  0  0
 36 35  1  0  0  0  0
 37 38  2  0  0  0  0
 38 31  1  0  0  0  0
M  END
>  <minimizedAffinity>
-5.6353755

>  <minimizedRMSD>
0.393059045

$$$$
