
 OpenBabel03252507093D

 24 25  0  0  0  0  0  0  0  0999 V2000
   38.9660   34.0930   40.6080 C   0  0  0  0  0  0  0  0  0  0  0  0
   40.1700   34.0470   39.8880 C   0  0  0  0  0  0  0  0  0  0  0  0
   40.7520   32.8080   39.6630 C   0  0  0  0  0  0  0  0  0  0  0  0
   40.1320   31.6860   40.1490 N   0  0  0  0  0  0  0  0  0  0  0  0
   38.9820   31.7760   40.8320 C   0  0  0  0  0  0  0  0  0  0  0  0
   38.3960   32.9590   41.0650 N   0  0  0  0  0  0  0  0  0  0  0  0
   38.4630   35.0360   40.8150 H   0  0  0  0  0  0  0  0  0  0  0  0
   40.6040   34.9750   39.5330 H   0  0  0  0  0  0  0  0  0  0  0  0
   36.7630   30.7020   39.1760 Cl  0  0  0  0  0  0  0  0  0  0  0  0
   37.3050   29.9680   40.6900 C   0  0  0  0  0  0  0  0  0  0  0  0
   38.3350   30.5730   41.3420 C   0  0  0  0  0  0  0  0  0  0  0  0
   38.7360   29.9770   42.5200 C   0  0  0  0  0  0  0  0  0  0  0  0
   39.5510   30.3860   43.1100 H   0  0  0  0  0  0  0  0  0  0  0  0
   38.1520   28.8380   43.0350 C   0  0  0  0  0  0  0  0  0  0  0  0
   38.4580   28.3700   43.9500 H   0  0  0  0  0  0  0  0  0  0  0  0
   37.1150   28.2770   42.3280 C   0  0  0  0  0  3  0  0  0  0  0  0
   36.6710   28.8270   41.1440 C   0  0  0  0  0  3  0  0  0  0  0  0
   41.9440   32.7830   38.9490 O   0  0  0  0  0  0  0  0  0  0  0  0
   42.8620   31.5960   36.7800 O   0  0  0  0  0  0  0  0  0  0  0  0
   41.8930   32.6720   37.2380 P   0  0  0  0  0  0  0  0  0  0  0  0
   40.3080   32.3390   36.7840 O   0  0  0  0  0  0  0  0  0  0  0  0
   40.0740   31.4010   36.8720 H   0  0  0  0  0  0  0  0  0  0  0  0
   42.3960   34.1600   36.6200 O   0  0  0  0  0  0  0  0  0  0  0  0
   41.9910   34.2570   35.7170 H   0  0  0  0  0  0  0  0  0  0  0  0
  1  7  1  0  0  0  0
  1  6  1  0  0  0  0
  2  1  2  0  0  0  0
  3  2  1  0  0  0  0
  3  4  2  0  0  0  0
  4  5  1  0  0  0  0
  5  6  2  0  0  0  0
  5 11  1  0  0  0  0
  8  2  1  0  0  0  0
  9 10  1  0  0  0  0
 10 17  2  0  0  0  0
 10 11  1  0  0  0  0
 11 12  2  0  0  0  0
 12 14  1  0  0  0  0
 12 13  1  0  0  0  0
 14 15  1  0  0  0  0
 16 14  2  0  0  0  0
 17 16  1  0  0  0  0
 18  3  1  0  0  0  0
 19 20  2  0  0  0  0
 20 18  1  0  0  0  0
 21 22  1  0  0  0  0
 21 20  1  0  0  0  0
 23 20  1  0  0  0  0
 24 23  1  0  0  0  0
M  END
>  <minimizedAffinity>
-5.66680241

$$$$

 OpenBabel03252507093D

 24 25  0  0  0  0  0  0  0  0999 V2000
   37.9720   28.1250   43.6730 C   0  0  0  0  0  0  0  0  0  0  0  0
   38.0890   29.3350   42.9740 C   0  0  0  0  0  0  0  0  0  0  0  0
   38.1120   29.2930   41.5880 C   0  0  0  0  0  0  0  0  0  0  0  0
   38.0200   28.0780   40.9610 N   0  0  0  0  0  0  0  0  0  0  0  0
   37.9100   26.9450   41.6680 C   0  0  0  0  0  0  0  0  0  0  0  0
   37.8840   26.9540   43.0070 N   0  0  0  0  0  0  0  0  0  0  0  0
   37.9480   28.0950   44.7600 H   0  0  0  0  0  0  0  0  0  0  0  0
   38.1570   30.2610   43.5370 H   0  0  0  0  0  0  0  0  0  0  0  0
   40.4890   25.5950   41.0800 Cl  0  0  0  0  0  0  0  0  0  0  0  0
   38.9100   24.9280   40.6500 C   0  0  0  0  0  0  0  0  0  0  0  0
   37.8120   25.6600   40.9840 C   0  0  0  0  0  0  0  0  0  0  0  0
   36.5940   25.1150   40.6350 C   0  0  0  0  0  0  0  0  0  0  0  0
   35.6630   25.6240   40.8600 H   0  0  0  0  0  0  0  0  0  0  0  0
   36.4590   23.9020   39.9890 C   0  0  0  0  0  0  0  0  0  0  0  0
   35.5170   23.4730   39.7150 H   0  0  0  0  0  0  0  0  0  0  0  0
   37.6080   23.2130   39.6800 C   0  0  0  0  0  3  0  0  0  0  0  0
   38.8540   23.7090   40.0030 C   0  0  0  0  0  3  0  0  0  0  0  0
   38.2300   30.5030   40.9140 O   0  0  0  0  0  0  0  0  0  0  0  0
   36.6230   30.9440   38.8700 O   0  0  0  0  0  0  0  0  0  0  0  0
   36.8140   31.2810   40.3380 P   0  0  0  0  0  0  0  0  0  0  0  0
   35.5190   30.7750   41.2830 O   0  0  0  0  0  0  0  0  0  0  0  0
   35.1710   29.9060   41.0230 H   0  0  0  0  0  0  0  0  0  0  0  0
   37.0550   32.9460   40.4890 O   0  0  0  0  0  0  0  0  0  0  0  0
   36.1570   33.3680   40.5660 H   0  0  0  0  0  0  0  0  0  0  0  0
  1  7  1  0  0  0  0
  2  8  1  0  0  0  0
  2  1  2  0  0  0  0
  3  2  1  0  0  0  0
  4  3  2  0  0  0  0
  4  5  1  0  0  0  0
  5  6  2  0  0  0  0
  6  1  1  0  0  0  0
 10 11  1  0  0  0  0
 10  9  1  0  0  0  0
 11  5  1  0  0  0  0
 12 13  1  0  0  0  0
 12 11  2  0  0  0  0
 14 12  1  0  0  0  0
 15 14  1  0  0  0  0
 16 14  2  0  0  0  0
 16 17  1  0  0  0  0
 17 10  2  0  0  0  0
 18  3  1  0  0  0  0
 19 20  2  0  0  0  0
 20 23  1  0  0  0  0
 20 18  1  0  0  0  0
 20 21  1  0  0  0  0
 22 21  1  0  0  0  0
 23 24  1  0  0  0  0
M  END
>  <minimizedAffinity>
-5.34694147

$$$$

 OpenBabel03252507093D

 24 25  0  0  0  0  0  0  0  0999 V2000
   40.4380   29.1730   42.9020 C   0  0  0  0  0  0  0  0  0  0  0  0
   40.0040   30.2390   42.1000 C   0  0  0  0  0  0  0  0  0  0  0  0
   39.0360   29.9860   41.1390 C   0  0  0  0  0  0  0  0  0  0  0  0
   38.5460   28.7130   41.0130 N   0  0  0  0  0  0  0  0  0  0  0  0
   38.9890   27.7230   41.8000 C   0  0  0  0  0  0  0  0  0  0  0  0
   39.9230   27.9370   42.7370 N   0  0  0  0  0  0  0  0  0  0  0  0
   41.1950   29.3110   43.6710 H   0  0  0  0  0  0  0  0  0  0  0  0
   40.4370   31.2220   42.2560 H   0  0  0  0  0  0  0  0  0  0  0  0
   36.4780   27.1560   43.2830 Cl  0  0  0  0  0  0  0  0  0  0  0  0
   37.3130   25.9700   42.2720 C   0  0  0  0  0  0  0  0  0  0  0  0
   38.4550   26.3730   41.6520 C   0  0  0  0  0  0  0  0  0  0  0  0
   39.0840   25.4260   40.8710 C   0  0  0  0  0  0  0  0  0  0  0  0
   40.0010   25.6540   40.3370 H   0  0  0  0  0  0  0  0  0  0  0  0
   38.6110   24.1400   40.7040 C   0  0  0  0  0  0  0  0  0  0  0  0
   39.0950   23.3990   40.0990 H   0  0  0  0  0  0  0  0  0  0  0  0
   37.4520   23.7970   41.3580 C   0  0  0  0  0  3  0  0  0  0  0  0
   36.7790   24.7020   42.1530 C   0  0  0  0  0  3  0  0  0  0  0  0
   38.6200   31.0550   40.3550 O   0  0  0  0  0  0  0  0  0  0  0  0
   36.4470   30.8380   38.8760 O   0  0  0  0  0  0  0  0  0  0  0  0
   36.9420   31.3810   40.2050 P   0  0  0  0  0  0  0  0  0  0  0  0
   36.1550   30.6780   41.5150 O   0  0  0  0  0  0  0  0  0  0  0  0
   36.0010   29.7250   41.4020 H   0  0  0  0  0  0  0  0  0  0  0  0
   36.7490   33.0580   40.2170 O   0  0  0  0  0  0  0  0  0  0  0  0
   35.8300   33.2470   40.5440 H   0  0  0  0  0  0  0  0  0  0  0  0
  1  7  1  0  0  0  0
  2  8  1  0  0  0  0
  2  1  2  0  0  0  0
  3  2  1  0  0  0  0
  4  3  2  0  0  0  0
  4  5  1  0  0  0  0
  5  6  2  0  0  0  0
  6  1  1  0  0  0  0
 10  9  1  0  0  0  0
 11  5  1  0  0  0  0
 11 10  2  0  0  0  0
 12 11  1  0  0  0  0
 13 12  1  0  0  0  0
 14 12  2  0  0  0  0
 14 16  1  0  0  0  0
 15 14  1  0  0  0  0
 16 17  2  0  0  0  0
 17 10  1  0  0  0  0
 18  3  1  0  0  0  0
 19 20  2  0  0  0  0
 20 23  1  0  0  0  0
 20 18  1  0  0  0  0
 20 21  1  0  0  0  0
 22 21  1  0  0  0  0
 23 24  1  0  0  0  0
M  END
>  <minimizedAffinity>
-5.30569744

$$$$

 OpenBabel03252507093D

 24 25  0  0  0  0  0  0  0  0999 V2000
   37.8530   34.0440   39.9810 C   0  0  0  0  0  0  0  0  0  0  0  0
   39.2310   34.0690   39.7190 C   0  0  0  0  0  0  0  0  0  0  0  0
   39.8360   32.9010   39.2760 C   0  0  0  0  0  0  0  0  0  0  0  0
   39.0680   31.7780   39.1150 N   0  0  0  0  0  0  0  0  0  0  0  0
   37.7530   31.7980   39.3770 C   0  0  0  0  0  0  0  0  0  0  0  0
   37.1420   32.9110   39.8050 N   0  0  0  0  0  0  0  0  0  0  0  0
   37.3240   34.9290   40.3300 H   0  0  0  0  0  0  0  0  0  0  0  0
   39.7770   34.9940   39.8690 H   0  0  0  0  0  0  0  0  0  0  0  0
   37.4180   30.1000   41.7910 Cl  0  0  0  0  0  0  0  0  0  0  0  0
   36.7120   29.7210   40.2150 C   0  0  0  0  0  0  0  0  0  0  0  0
   36.9510   30.5930   39.1990 C   0  0  0  0  0  0  0  0  0  0  0  0
   36.3880   30.2710   37.9820 C   0  0  0  0  0  0  0  0  0  0  0  0
   36.5220   30.9060   37.1120 H   0  0  0  0  0  0  0  0  0  0  0  0
   35.6210   29.1420   37.7720 C   0  0  0  0  0  0  0  0  0  0  0  0
   35.1810   28.8850   36.8300 H   0  0  0  0  0  0  0  0  0  0  0  0
   35.4180   28.3010   38.8410 C   0  0  0  0  0  3  0  0  0  0  0  0
   35.9570   28.5720   40.0820 C   0  0  0  0  0  3  0  0  0  0  0  0
   41.2010   32.9460   39.0230 O   0  0  0  0  0  0  0  0  0  0  0  0
   42.9170   31.6740   37.4750 O   0  0  0  0  0  0  0  0  0  0  0  0
   41.7670   32.6650   37.4280 P   0  0  0  0  0  0  0  0  0  0  0  0
   40.4760   32.1010   36.5090 O   0  0  0  0  0  0  0  0  0  0  0  0
   40.3000   31.1540   36.6350 H   0  0  0  0  0  0  0  0  0  0  0  0
   42.3370   34.1360   36.8260 O   0  0  0  0  0  0  0  0  0  0  0  0
   42.2700   34.0950   35.8350 H   0  0  0  0  0  0  0  0  0  0  0  0
  1  7  1  0  0  0  0
  2  8  1  0  0  0  0
  2  1  2  0  0  0  0
  3  2  1  0  0  0  0
  4  3  2  0  0  0  0
  4  5  1  0  0  0  0
  5  6  2  0  0  0  0
  6  1  1  0  0  0  0
 10  9  1  0  0  0  0
 11  5  1  0  0  0  0
 11 10  2  0  0  0  0
 12 11  1  0  0  0  0
 13 12  1  0  0  0  0
 14 12  2  0  0  0  0
 14 16  1  0  0  0  0
 15 14  1  0  0  0  0
 16 17  2  0  0  0  0
 17 10  1  0  0  0  0
 18  3  1  0  0  0  0
 20 19  2  0  0  0  0
 20 18  1  0  0  0  0
 21 22  1  0  0  0  0
 21 20  1  0  0  0  0
 23 20  1  0  0  0  0
 24 23  1  0  0  0  0
M  END
>  <minimizedAffinity>
-5.21980572

$$$$

 OpenBabel03252507093D

 24 25  0  0  0  0  0  0  0  0999 V2000
   36.1440   30.8710   40.9330 C   0  0  0  0  0  0  0  0  0  0  0  0
   37.2680   31.4850   40.3620 C   0  0  0  0  0  0  0  0  0  0  0  0
   38.3160   30.6770   39.9450 C   0  0  0  0  0  0  0  0  0  0  0  0
   38.2120   29.3200   40.1070 N   0  0  0  0  0  0  0  0  0  0  0  0
   37.1190   28.7750   40.6580 C   0  0  0  0  0  0  0  0  0  0  0  0
   36.0910   29.5290   41.0700 N   0  0  0  0  0  0  0  0  0  0  0  0
   35.2910   31.4520   41.2780 H   0  0  0  0  0  0  0  0  0  0  0  0
   37.2820   32.5650   40.2650 H   0  0  0  0  0  0  0  0  0  0  0  0
   37.7710   27.7350   43.3630 Cl  0  0  0  0  0  0  0  0  0  0  0  0
   37.2930   26.7100   42.0050 C   0  0  0  0  0  0  0  0  0  0  0  0
   37.0240   27.3290   40.8220 C   0  0  0  0  0  0  0  0  0  0  0  0
   36.6540   26.5030   39.7810 C   0  0  0  0  0  0  0  0  0  0  0  0
   36.4190   26.9030   38.8000 H   0  0  0  0  0  0  0  0  0  0  0  0
   36.5520   25.1310   39.8950 C   0  0  0  0  0  0  0  0  0  0  0  0
   36.2660   24.4840   39.0900 H   0  0  0  0  0  0  0  0  0  0  0  0
   36.8380   24.5700   41.1170 C   0  0  0  0  0  3  0  0  0  0  0  0
   37.2130   25.3450   42.1950 C   0  0  0  0  0  3  0  0  0  0  0  0
   39.4210   31.3050   39.3830 O   0  0  0  0  0  0  0  0  0  0  0  0
   41.2640   30.3110   37.7790 O   0  0  0  0  0  0  0  0  0  0  0  0
   39.8730   30.9210   37.7730 P   0  0  0  0  0  0  0  0  0  0  0  0
   38.7180   29.8730   37.1430 O   0  0  0  0  0  0  0  0  0  0  0  0
   38.8460   28.9510   37.4200 H   0  0  0  0  0  0  0  0  0  0  0  0
   39.9140   32.3670   36.9010 O   0  0  0  0  0  0  0  0  0  0  0  0
   39.7580   32.1390   35.9460 H   0  0  0  0  0  0  0  0  0  0  0  0
  1  6  1  0  0  0  0
  1  7  1  0  0  0  0
  2  1  2  0  0  0  0
  3  4  2  0  0  0  0
  3  2  1  0  0  0  0
  4  5  1  0  0  0  0
  5 11  1  0  0  0  0
  5  6  2  0  0  0  0
  8  2  1  0  0  0  0
 10 17  1  0  0  0  0
 10  9  1  0  0  0  0
 11 10  2  0  0  0  0
 12 14  2  0  0  0  0
 12 11  1  0  0  0  0
 13 12  1  0  0  0  0
 14 16  1  0  0  0  0
 15 14  1  0  0  0  0
 16 17  2  0  0  0  0
 18  3  1  0  0  0  0
 20 19  2  0  0  0  0
 20 18  1  0  0  0  0
 21 22  1  0  0  0  0
 21 20  1  0  0  0  0
 23 20  1  0  0  0  0
 24 23  1  0  0  0  0
M  END
>  <minimizedAffinity>
-5.18892241

$$$$

 OpenBabel03252507093D

 24 25  0  0  0  0  0  0  0  0999 V2000
   35.8960   29.4070   37.5970 C   0  0  0  0  0  0  0  0  0  0  0  0
   36.7920   30.4850   37.6620 C   0  0  0  0  0  0  0  0  0  0  0  0
   37.7510   30.4820   38.6640 C   0  0  0  0  0  0  0  0  0  0  0  0
   37.7830   29.4340   39.5470 N   0  0  0  0  0  0  0  0  0  0  0  0
   36.9080   28.4240   39.4500 C   0  0  0  0  0  0  0  0  0  0  0  0
   35.9710   28.3990   38.4920 N   0  0  0  0  0  0  0  0  0  0  0  0
   35.1240   29.3540   36.8340 H   0  0  0  0  0  0  0  0  0  0  0  0
   36.7080   31.2810   36.9290 H   0  0  0  0  0  0  0  0  0  0  0  0
   37.0250   29.1820   42.3190 Cl  0  0  0  0  0  0  0  0  0  0  0  0
   37.0140   27.5110   41.7430 C   0  0  0  0  0  0  0  0  0  0  0  0
   36.9580   27.3170   40.3970 C   0  0  0  0  0  0  0  0  0  0  0  0
   36.9510   26.0020   39.9770 C   0  0  0  0  0  0  0  0  0  0  0  0
   36.9070   25.7470   38.9240 H   0  0  0  0  0  0  0  0  0  0  0  0
   36.9950   24.9270   40.8410 C   0  0  0  0  0  0  0  0  0  0  0  0
   36.9910   23.9040   40.5220 H   0  0  0  0  0  0  0  0  0  0  0  0
   37.0520   25.1930   42.1890 C   0  0  0  0  0  3  0  0  0  0  0  0
   37.0610   26.4860   42.6670 C   0  0  0  0  0  3  0  0  0  0  0  0
   38.6280   31.5590   38.7110 O   0  0  0  0  0  0  0  0  0  0  0  0
   39.1880   32.1070   41.2300 O   0  0  0  0  0  0  0  0  0  0  0  0
   38.5060   32.6830   40.0010 P   0  0  0  0  0  0  0  0  0  0  0  0
   39.2040   34.1290   39.5020 O   0  0  0  0  0  0  0  0  0  0  0  0
   40.1730   34.1290   39.5670 H   0  0  0  0  0  0  0  0  0  0  0  0
   36.8640   32.8920   40.3360 O   0  0  0  0  0  0  0  0  0  0  0  0
   36.7590   33.7910   40.7480 H   0  0  0  0  0  0  0  0  0  0  0  0
  1  2  2  0  0  0  0
  1  6  1  0  0  0  0
  2  3  1  0  0  0  0
  3 18  1  0  0  0  0
  3  4  2  0  0  0  0
  5  4  1  0  0  0  0
  5 11  1  0  0  0  0
  6  5  2  0  0  0  0
  7  1  1  0  0  0  0
  8  2  1  0  0  0  0
 10  9  1  0  0  0  0
 10 17  1  0  0  0  0
 11 10  2  0  0  0  0
 12 11  1  0  0  0  0
 12 14  2  0  0  0  0
 13 12  1  0  0  0  0
 14 16  1  0  0  0  0
 15 14  1  0  0  0  0
 16 17  2  0  0  0  0
 18 20  1  0  0  0  0
 20 23  1  0  0  0  0
 20 19  2  0  0  0  0
 21 22  1  0  0  0  0
 21 20  1  0  0  0  0
 23 24  1  0  0  0  0
M  END
>  <minimizedAffinity>
-5.15777206

$$$$

 OpenBabel03252507093D

 24 25  0  0  0  0  0  0  0  0999 V2000
   36.1080   30.7840   41.1710 C   0  0  0  0  0  0  0  0  0  0  0  0
   37.0610   31.4950   40.4270 C   0  0  0  0  0  0  0  0  0  0  0  0
   38.1290   30.7940   39.8880 C   0  0  0  0  0  0  0  0  0  0  0  0
   38.2110   29.4430   40.1030 N   0  0  0  0  0  0  0  0  0  0  0  0
   37.2780   28.8020   40.8200 C   0  0  0  0  0  0  0  0  0  0  0  0
   36.2350   29.4520   41.3530 N   0  0  0  0  0  0  0  0  0  0  0  0
   35.2490   31.2800   41.6180 H   0  0  0  0  0  0  0  0  0  0  0  0
   36.9320   32.5650   40.2980 H   0  0  0  0  0  0  0  0  0  0  0  0
   38.7960   27.9650   43.2320 Cl  0  0  0  0  0  0  0  0  0  0  0  0
   38.0450   26.8340   42.1010 C   0  0  0  0  0  0  0  0  0  0  0  0
   37.3800   27.3640   41.0380 C   0  0  0  0  0  0  0  0  0  0  0  0
   36.8050   26.4560   40.1730 C   0  0  0  0  0  0  0  0  0  0  0  0
   36.2530   26.7830   39.2970 H   0  0  0  0  0  0  0  0  0  0  0  0
   36.8780   25.0890   40.3450 C   0  0  0  0  0  0  0  0  0  0  0  0
   36.4340   24.3780   39.6760 H   0  0  0  0  0  0  0  0  0  0  0  0
   37.5650   24.6180   41.4390 C   0  0  0  0  0  3  0  0  0  0  0  0
   38.1610   25.4780   42.3380 C   0  0  0  0  0  3  0  0  0  0  0  0
   39.0630   31.5180   39.1550 O   0  0  0  0  0  0  0  0  0  0  0  0
   37.6690   31.7950   36.9330 O   0  0  0  0  0  0  0  0  0  0  0  0
   39.0470   31.4110   37.4430 P   0  0  0  0  0  0  0  0  0  0  0  0
   40.2520   32.4210   36.8460 O   0  0  0  0  0  0  0  0  0  0  0  0
   39.9870   33.3550   36.8110 H   0  0  0  0  0  0  0  0  0  0  0  0
   39.3540   29.8020   37.0340 O   0  0  0  0  0  0  0  0  0  0  0  0
   39.7510   29.8000   36.1220 H   0  0  0  0  0  0  0  0  0  0  0  0
  1  6  1  0  0  0  0
  1  7  1  0  0  0  0
  2  1  2  0  0  0  0
  3  4  2  0  0  0  0
  3  2  1  0  0  0  0
  4  5  1  0  0  0  0
  5 11  1  0  0  0  0
  5  6  2  0  0  0  0
  8  2  1  0  0  0  0
 10 17  1  0  0  0  0
 10  9  1  0  0  0  0
 11 10  2  0  0  0  0
 12 14  2  0  0  0  0
 12 11  1  0  0  0  0
 13 12  1  0  0  0  0
 14 16  1  0  0  0  0
 15 14  1  0  0  0  0
 16 17  2  0  0  0  0
 18  3  1  0  0  0  0
 19 20  2  0  0  0  0
 20 18  1  0  0  0  0
 21 20  1  0  0  0  0
 22 21  1  0  0  0  0
 23 20  1  0  0  0  0
 24 23  1  0  0  0  0
M  END
>  <minimizedAffinity>
-4.98368311

$$$$

 OpenBabel03252507093D

 24 25  0  0  0  0  0  0  0  0999 V2000
   39.1650   28.2390   37.5170 C   0  0  0  0  0  0  0  0  0  0  0  0
   38.5380   29.4860   37.6640 C   0  0  0  0  0  0  0  0  0  0  0  0
   37.6390   29.6500   38.7080 C   0  0  0  0  0  0  0  0  0  0  0  0
   37.4000   28.5940   39.5480 N   0  0  0  0  0  0  0  0  0  0  0  0
   38.0210   27.4190   39.3710 C   0  0  0  0  0  0  0  0  0  0  0  0
   38.8940   27.2310   38.3730 N   0  0  0  0  0  0  0  0  0  0  0  0
   39.8780   28.0510   36.7180 H   0  0  0  0  0  0  0  0  0  0  0  0
   38.7750   30.2770   36.9610 H   0  0  0  0  0  0  0  0  0  0  0  0
   35.8750   25.5480   38.5230 Cl  0  0  0  0  0  0  0  0  0  0  0  0
   36.8010   25.3700   40.0180 C   0  0  0  0  0  0  0  0  0  0  0  0
   37.7550   26.3060   40.2760 C   0  0  0  0  0  0  0  0  0  0  0  0
   38.4600   26.1410   41.4500 C   0  0  0  0  0  0  0  0  0  0  0  0
   39.2420   26.8360   41.7410 H   0  0  0  0  0  0  0  0  0  0  0  0
   38.2410   25.1020   42.3310 C   0  0  0  0  0  0  0  0  0  0  0  0
   38.7850   24.9680   43.2440 H   0  0  0  0  0  0  0  0  0  0  0  0
   37.2620   24.1910   42.0110 C   0  0  0  0  0  3  0  0  0  0  0  0
   36.5240   24.3040   40.8520 C   0  0  0  0  0  3  0  0  0  0  0  0
   37.0290   30.8920   38.8350 O   0  0  0  0  0  0  0  0  0  0  0  0
   38.3410   31.3840   41.0690 O   0  0  0  0  0  0  0  0  0  0  0  0
   37.0280   31.6720   40.3630 P   0  0  0  0  0  0  0  0  0  0  0  0
   36.7870   33.3170   40.1090 O   0  0  0  0  0  0  0  0  0  0  0  0
   37.5960   33.7860   39.8480 H   0  0  0  0  0  0  0  0  0  0  0  0
   35.7640   31.0110   41.2670 O   0  0  0  0  0  0  0  0  0  0  0  0
   35.4920   31.6950   41.9360 H   0  0  0  0  0  0  0  0  0  0  0  0
  1  2  2  0  0  0  0
  1  6  1  0  0  0  0
  2  3  1  0  0  0  0
  3 18  1  0  0  0  0
  3  4  2  0  0  0  0
  5  4  1  0  0  0  0
  5 11  1  0  0  0  0
  6  5  2  0  0  0  0
  7  1  1  0  0  0  0
  8  2  1  0  0  0  0
  9 10  1  0  0  0  0
 10 11  2  0  0  0  0
 10 17  1  0  0  0  0
 11 12  1  0  0  0  0
 12 13  1  0  0  0  0
 12 14  2  0  0  0  0
 14 15  1  0  0  0  0
 16 14  1  0  0  0  0
 17 16  2  0  0  0  0
 18 20  1  0  0  0  0
 20 19  2  0  0  0  0
 20 23  1  0  0  0  0
 21 20  1  0  0  0  0
 22 21  1  0  0  0  0
 23 24  1  0  0  0  0
M  END
>  <minimizedAffinity>
-4.98115492

$$$$

 OpenBabel03252507093D

 24 25  0  0  0  0  0  0  0  0999 V2000
   35.8900   30.4150   40.9100 C   0  0  0  0  0  0  0  0  0  0  0  0
   36.6450   31.3090   40.1370 C   0  0  0  0  0  0  0  0  0  0  0  0
   37.9950   31.0420   39.9550 C   0  0  0  0  0  0  0  0  0  0  0  0
   38.5320   29.9230   40.5350 N   0  0  0  0  0  0  0  0  0  0  0  0
   37.7740   29.0950   41.2670 C   0  0  0  0  0  0  0  0  0  0  0  0
   36.4680   29.3260   41.4600 N   0  0  0  0  0  0  0  0  0  0  0  0
   34.8280   30.5720   41.0870 H   0  0  0  0  0  0  0  0  0  0  0  0
   36.1530   32.1760   39.7080 H   0  0  0  0  0  0  0  0  0  0  0  0
   37.3990   26.5550   39.7740 Cl  0  0  0  0  0  0  0  0  0  0  0  0
   38.2710   26.6750   41.3060 C   0  0  0  0  0  0  0  0  0  0  0  0
   38.3620   27.9080   41.8760 C   0  0  0  0  0  0  0  0  0  0  0  0
   39.0480   27.9700   43.0720 C   0  0  0  0  0  0  0  0  0  0  0  0
   39.1750   28.9090   43.6010 H   0  0  0  0  0  0  0  0  0  0  0  0
   39.6210   26.8710   43.6800 C   0  0  0  0  0  0  0  0  0  0  0  0
   40.1550   26.9120   44.6080 H   0  0  0  0  0  0  0  0  0  0  0  0
   39.4920   25.6550   43.0520 C   0  0  0  0  0  3  0  0  0  0  0  0
   38.8170   25.5310   41.8550 C   0  0  0  0  0  3  0  0  0  0  0  0
   38.7250   31.9400   39.1860 O   0  0  0  0  0  0  0  0  0  0  0  0
   41.1720   31.2760   38.4590 O   0  0  0  0  0  0  0  0  0  0  0  0
   39.7450   31.3420   37.9430 P   0  0  0  0  0  0  0  0  0  0  0  0
   39.1660   29.8350   37.4730 O   0  0  0  0  0  0  0  0  0  0  0  0
   39.4370   29.1180   38.0690 H   0  0  0  0  0  0  0  0  0  0  0  0
   39.6780   32.4400   36.6620 O   0  0  0  0  0  0  0  0  0  0  0  0
   39.8960   31.9380   35.8320 H   0  0  0  0  0  0  0  0  0  0  0  0
  1  7  1  0  0  0  0
  1  6  1  0  0  0  0
  2  1  2  0  0  0  0
  3  2  1  0  0  0  0
  3  4  2  0  0  0  0
  4  5  1  0  0  0  0
  5  6  2  0  0  0  0
  5 11  1  0  0  0  0
  8  2  1  0  0  0  0
  9 10  1  0  0  0  0
 10 17  2  0  0  0  0
 10 11  1  0  0  0  0
 11 12  2  0  0  0  0
 12 13  1  0  0  0  0
 12 14  1  0  0  0  0
 14 15  1  0  0  0  0
 16 14  2  0  0  0  0
 17 16  1  0  0  0  0
 18  3  1  0  0  0  0
 20 19  2  0  0  0  0
 20 18  1  0  0  0  0
 21 20  1  0  0  0  0
 21 22  1  0  0  0  0
 23 20  1  0  0  0  0
 24 23  1  0  0  0  0
M  END
>  <minimizedAffinity>
-4.92212152

$$$$
