
 OpenBabel03252506253D

 45 49  0  0  0  0  0  0  0  0999 V2000
   46.0280   27.9850   47.9240 C   0  0  0  0  0  0  0  0  0  0  0  0
   45.7540   29.3330   47.7960 C   0  0  0  0  0  0  0  0  0  0  0  0
   44.6630   29.6690   46.9920 C   0  0  0  0  0  0  0  0  0  0  0  0
   43.8940   28.7200   46.3580 C   0  0  0  0  0  0  0  0  0  0  0  0
   42.8210   28.7460   45.5490 N   0  0  0  0  0  0  0  0  0  0  0  0
   42.4500   27.5020   45.1990 C   0  0  0  0  0  0  0  0  0  0  0  0
   43.3110   26.5880   45.7970 C   0  0  0  0  0  0  0  0  0  0  0  0
   44.1900   27.3760   46.5030 C   0  0  0  0  0  0  0  0  0  0  0  0
   45.2630   27.0410   47.2950 C   0  0  0  0  0  0  0  0  0  0  0  0
   46.8860   27.7840   48.5600 H   0  0  0  0  0  0  0  0  0  0  0  0
   44.3370   30.6820   46.8050 H   0  0  0  0  0  0  0  0  0  0  0  0
   42.3300   29.6140   45.2290 H   0  0  0  0  0  0  0  0  0  0  0  0
   41.6240   27.2110   44.5590 H   0  0  0  0  0  0  0  0  0  0  0  0
   43.3030   25.5050   45.7280 H   0  0  0  0  0  0  0  0  0  0  0  0
   44.4230   25.6860   49.8990 Cl  0  0  0  0  0  0  0  0  0  0  0  0
   45.3000   24.9000   48.6030 C   0  0  0  0  0  0  0  0  0  0  0  0
   45.6150   25.6370   47.4790 C   0  0  0  0  0  0  0  0  0  0  0  0
   46.3070   25.1100   46.3960 C   0  0  0  0  0  0  0  0  0  0  0  0
   46.5680   25.6570   45.5070 H   0  0  0  0  0  0  0  0  0  0  0  0
   46.7000   23.7790   46.4500 C   0  0  0  0  0  0  0  0  0  0  0  0
   47.2480   23.3570   45.5940 H   0  0  0  0  0  0  0  0  0  0  0  0
   46.3950   23.0060   47.5750 C   0  0  0  0  0  0  0  0  0  0  0  0
   45.7060   23.5800   48.6220 C   0  0  0  0  0  0  0  0  0  0  0  0
   46.4330   30.4860   48.3740 C   0  0  0  0  0  0  0  0  0  0  0  0
   46.7040   30.1950   49.4310 H   0  0  0  0  0  0  0  0  0  0  0  0
   45.7360   31.3460   48.5140 H   0  0  0  0  0  0  0  0  0  0  0  0
   47.6760   30.9370   47.7130 C   0  0  0  0  0  0  0  0  0  0  0  0
   48.1520   31.7010   48.3910 H   0  0  0  0  0  0  0  0  0  0  0  0
   48.3730   30.1130   47.5740 H   0  0  0  0  0  0  0  0  0  0  0  0
   46.6160   33.0540   45.0300 C   0  0  0  0  0  0  0  0  0  0  0  0
   47.2060   31.9700   44.3330 C   0  0  0  0  0  0  0  0  0  0  0  0
   47.6640   31.0660   45.2350 C   0  0  0  0  0  0  0  0  0  0  0  0
   47.3690   31.5710   46.4440 N   0  0  0  0  0  0  0  0  0  0  0  0
   46.7480   32.7490   46.3180 N   0  0  0  0  0  0  0  0  0  0  0  0
   47.3010   31.8330   43.2650 H   0  0  0  0  0  0  0  0  0  0  0  0
   48.1610   30.1330   45.0870 H   0  0  0  0  0  0  0  0  0  0  0  0
   44.4720   35.9370   44.4410 C   0  0  0  0  0  0  0  0  0  0  0  0
   44.8720   36.3850   43.1900 C   0  0  0  0  0  0  0  0  0  0  0  0
   45.8890   35.6880   42.5430 C   0  0  0  0  0  0  0  0  0  0  0  0
   46.4100   34.6260   43.1840 N   0  0  0  0  0  0  0  0  0  0  0  0
   46.0230   34.2000   44.3860 C   0  0  0  0  0  0  0  0  0  0  0  0
   45.0480   34.8670   45.0070 N   0  0  0  0  0  0  0  0  0  0  0  0
   43.6890   36.5240   44.8700 H   0  0  0  0  0  0  0  0  0  0  0  0
   44.4860   37.2300   42.6350 H   0  0  0  0  0  0  0  0  0  0  0  0
   46.3060   35.9100   41.5790 H   0  0  0  0  0  0  0  0  0  0  0  0
  1 10  1  0  0  0  0
  2  1  1  0  0  0  0
  2 24  1  0  0  0  0
  3  2  2  0  0  0  0
  4  8  2  0  0  0  0
  4  3  1  0  0  0  0
  5  4  1  0  0  0  0
  6  5  1  0  0  0  0
  6  7  2  0  0  0  0
  7  8  1  0  0  0  0
  8  9  1  0  0  0  0
  9 17  1  0  0  0  0
  9  1  2  0  0  0  0
 11  3  1  0  0  0  0
 12  5  1  0  0  0  0
 13  6  1  0  0  0  0
 14  7  1  0  0  0  0
 16 23  1  0  0  0  0
 16 15  1  0  0  0  0
 17 16  2  0  0  0  0
 18 20  2  0  0  0  0
 18 17  1  0  0  0  0
 19 18  1  0  0  0  0
 20 22  1  0  0  0  0
 21 20  1  0  0  0  0
 22 23  2  0  0  0  0
 24 26  1  0  0  0  0
 24 25  1  0  0  0  0
 27 24  1  0  0  0  0
 27 28  1  0  0  0  0
 29 27  1  0  0  0  0
 30 34  2  0  0  0  0
 31 30  1  0  0  0  0
 31 32  2  0  0  0  0
 32 33  1  0  0  0  0
 33 27  1  0  0  0  0
 34 33  1  0  0  0  0
 35 31  1  0  0  0  0
 36 32  1  0  0  0  0
 37 43  1  0  0  0  0
 37 42  1  0  0  0  0
 38 37  2  0  0  0  0
 39 40  2  0  0  0  0
 39 38  1  0  0  0  0
 40 41  1  0  0  0  0
 41 42  2  0  0  0  0
 41 30  1  0  0  0  0
 44 38  1  0  0  0  0
 45 39  1  0  0  0  0
M  END
>  <minimizedAffinity>
-5.45187187

>  <minimizedRMSD>
1.02961552

$$$$
