
 OpenBabel03242518433D

 19 20  0  0  0  0  0  0  0  0999 V2000
   37.2370   32.4580   39.7000 C   0  0  0  0  0  0  0  0  0  0  0  0
   37.5960   32.0740   38.3900 C   0  0  0  0  0  0  0  0  0  0  0  0
   37.8810   30.7170   38.1870 C   0  0  0  0  0  0  0  0  0  0  0  0
   37.7970   29.8690   39.2320 N   0  0  0  0  0  0  0  0  0  0  0  0
   37.4470   30.2800   40.4780 C   0  0  0  0  0  0  0  0  0  0  0  0
   37.1720   31.5680   40.6980 N   0  0  0  0  0  0  0  0  0  0  0  0
   37.6550   32.7780   37.5690 H   0  0  0  0  0  0  0  0  0  0  0  0
   38.1630   30.3340   37.2200 H   0  0  0  0  0  0  0  0  0  0  0  0
   39.5700   30.5900   42.5740 Cl  0  0  0  0  0  0  0  0  0  0  0  0
   38.3100   29.3680   42.5940 C   0  0  0  0  0  0  0  0  0  0  0  0
   37.3740   29.3120   41.5710 C   0  0  0  0  0  0  0  0  0  0  0  0
   36.3840   28.3330   41.6110 C   0  0  0  0  0  0  0  0  0  0  0  0
   35.6400   28.2760   40.8140 H   0  0  0  0  0  0  0  0  0  0  0  0
   36.3160   27.4080   42.6590 C   0  0  0  0  0  0  0  0  0  0  0  0
   35.5100   26.6710   42.6170 H   0  0  0  0  0  0  0  0  0  0  0  0
   37.2700   27.4940   43.6640 C   0  0  0  0  0  3  0  0  0  0  0  0
   38.2270   28.4600   43.6020 C   0  0  0  0  0  3  0  0  0  0  0  0
   36.9570   33.7870   39.9070 O   0  0  0  0  0  0  0  0  0  0  0  0
   36.3080   34.1130   40.6100 H   0  0  0  0  0  0  0  0  0  0  0  0
  1 18  1  0  0  0  0
  1  6  1  0  0  0  0
  2  1  2  0  0  0  0
  3  2  1  0  0  0  0
  3  4  2  0  0  0  0
  4  5  1  0  0  0  0
  5  6  2  0  0  0  0
  5 11  1  0  0  0  0
  7  2  1  0  0  0  0
  8  3  1  0  0  0  0
  9 10  1  0  0  0  0
 10 17  1  0  0  0  0
 11 12  1  0  0  0  0
 11 10  2  0  0  0  0
 12 14  2  0  0  0  0
 13 12  1  0  0  0  0
 14 16  1  0  0  0  0
 15 14  1  0  0  0  0
 17 16  2  0  0  0  0
 18 19  1  0  0  0  0
M  END
>  <minimizedAffinity>
-5.08966446

$$$$

 OpenBabel03242518433D

 19 20  0  0  0  0  0  0  0  0999 V2000
   37.3440   32.4790   39.6410 C   0  0  0  0  0  0  0  0  0  0  0  0
   37.7570   32.1450   38.3340 C   0  0  0  0  0  0  0  0  0  0  0  0
   38.1750   30.8240   38.1220 C   0  0  0  0  0  0  0  0  0  0  0  0
   38.1590   29.9620   39.1590 N   0  0  0  0  0  0  0  0  0  0  0  0
   37.7540   30.3240   40.4030 C   0  0  0  0  0  0  0  0  0  0  0  0
   37.3510   31.5770   40.6300 N   0  0  0  0  0  0  0  0  0  0  0  0
   37.7580   32.8600   37.5190 H   0  0  0  0  0  0  0  0  0  0  0  0
   38.5070   30.4810   37.1570 H   0  0  0  0  0  0  0  0  0  0  0  0
   35.1780   28.8300   40.7610 Cl  0  0  0  0  0  0  0  0  0  0  0  0
   36.6170   28.5960   41.7370 C   0  0  0  0  0  0  0  0  0  0  0  0
   37.7600   29.3430   41.4870 C   0  0  0  0  0  0  0  0  0  0  0  0
   38.8900   29.1390   42.2760 C   0  0  0  0  0  0  0  0  0  0  0  0
   39.7970   29.7170   42.0920 H   0  0  0  0  0  0  0  0  0  0  0  0
   38.8940   28.1990   43.3130 C   0  0  0  0  0  0  0  0  0  0  0  0
   39.8190   28.0980   43.8860 H   0  0  0  0  0  0  0  0  0  0  0  0
   37.7320   27.4710   43.5350 C   0  0  0  0  0  3  0  0  0  0  0  0
   36.6420   27.6900   42.7490 C   0  0  0  0  0  3  0  0  0  0  0  0
   36.9320   33.7730   39.8560 O   0  0  0  0  0  0  0  0  0  0  0  0
   36.2450   34.0270   40.5510 H   0  0  0  0  0  0  0  0  0  0  0  0
  1 18  1  0  0  0  0
  1  6  1  0  0  0  0
  2  1  2  0  0  0  0
  3  2  1  0  0  0  0
  3  4  2  0  0  0  0
  4  5  1  0  0  0  0
  5  6  2  0  0  0  0
  5 11  1  0  0  0  0
  7  2  1  0  0  0  0
  8  3  1  0  0  0  0
  9 10  1  0  0  0  0
 10 17  1  0  0  0  0
 11 10  2  0  0  0  0
 11 12  1  0  0  0  0
 12 14  2  0  0  0  0
 13 12  1  0  0  0  0
 14 16  1  0  0  0  0
 14 15  1  0  0  0  0
 17 16  2  0  0  0  0
 18 19  1  0  0  0  0
M  END
>  <minimizedAffinity>
-4.98248768

$$$$

 OpenBabel03242518433D

 19 20  0  0  0  0  0  0  0  0999 V2000
   36.5240   30.3030   40.9760 C   0  0  0  0  0  0  0  0  0  0  0  0
   37.7180   30.8310   40.4420 C   0  0  0  0  0  0  0  0  0  0  0  0
   38.6850   29.9070   40.0220 C   0  0  0  0  0  0  0  0  0  0  0  0
   38.4250   28.5900   40.1480 N   0  0  0  0  0  0  0  0  0  0  0  0
   37.2610   28.1220   40.6670 C   0  0  0  0  0  0  0  0  0  0  0  0
   36.3240   28.9820   41.0750 N   0  0  0  0  0  0  0  0  0  0  0  0
   37.8990   31.8950   40.3530 H   0  0  0  0  0  0  0  0  0  0  0  0
   39.6260   30.2200   39.6030 H   0  0  0  0  0  0  0  0  0  0  0  0
   37.9260   26.9500   43.3470 Cl  0  0  0  0  0  0  0  0  0  0  0  0
   37.3140   26.0390   41.9770 C   0  0  0  0  0  0  0  0  0  0  0  0
   37.0380   26.6810   40.7780 C   0  0  0  0  0  0  0  0  0  0  0  0
   36.5540   25.9350   39.7060 C   0  0  0  0  0  0  0  0  0  0  0  0
   36.3310   26.4250   38.7560 H   0  0  0  0  0  0  0  0  0  0  0  0
   36.3410   24.5560   39.8150 C   0  0  0  0  0  0  0  0  0  0  0  0
   35.9600   24.0430   38.9290 H   0  0  0  0  0  0  0  0  0  0  0  0
   36.6290   23.9480   41.0290 C   0  0  0  0  0  3  0  0  0  0  0  0
   37.1020   24.7000   42.0620 C   0  0  0  0  0  3  0  0  0  0  0  0
   35.5710   31.2030   41.3900 O   0  0  0  0  0  0  0  0  0  0  0  0
   34.5800   31.0070   41.3720 H   0  0  0  0  0  0  0  0  0  0  0  0
  1  6  1  0  0  0  0
  1 18  1  0  0  0  0
  2  1  2  0  0  0  0
  3  4  2  0  0  0  0
  3  2  1  0  0  0  0
  4  5  1  0  0  0  0
  5 11  1  0  0  0  0
  5  6  2  0  0  0  0
  7  2  1  0  0  0  0
  8  3  1  0  0  0  0
 10 17  1  0  0  0  0
 10  9  1  0  0  0  0
 11 10  2  0  0  0  0
 12 14  2  0  0  0  0
 12 11  1  0  0  0  0
 13 12  1  0  0  0  0
 14 16  1  0  0  0  0
 15 14  1  0  0  0  0
 16 17  2  0  0  0  0
 19 18  1  0  0  0  0
M  END
>  <minimizedAffinity>
-4.87058735

$$$$

 OpenBabel03242518433D

 19 20  0  0  0  0  0  0  0  0999 V2000
   37.7530   32.6140   40.3140 C   0  0  0  0  0  0  0  0  0  0  0  0
   39.1230   32.9050   40.1440 C   0  0  0  0  0  0  0  0  0  0  0  0
   40.0320   31.9160   40.5420 C   0  0  0  0  0  0  0  0  0  0  0  0
   39.5580   30.7630   41.0550 N   0  0  0  0  0  0  0  0  0  0  0  0
   38.2300   30.5210   41.2020 C   0  0  0  0  0  0  0  0  0  0  0  0
   37.3430   31.4480   40.8310 N   0  0  0  0  0  0  0  0  0  0  0  0
   39.4750   33.8410   39.7280 H   0  0  0  0  0  0  0  0  0  0  0  0
   41.0970   32.0520   40.4490 H   0  0  0  0  0  0  0  0  0  0  0  0
   37.6450   28.3850   39.1790 Cl  0  0  0  0  0  0  0  0  0  0  0  0
   37.4800   28.1950   40.9160 C   0  0  0  0  0  0  0  0  0  0  0  0
   37.7770   29.2510   41.7660 C   0  0  0  0  0  0  0  0  0  0  0  0
   37.6370   29.0740   43.1410 C   0  0  0  0  0  0  0  0  0  0  0  0
   37.8680   29.8940   43.8230 H   0  0  0  0  0  0  0  0  0  0  0  0
   37.2040   27.8570   43.6780 C   0  0  0  0  0  0  0  0  0  0  0  0
   37.1200   27.7980   44.7660 H   0  0  0  0  0  0  0  0  0  0  0  0
   36.9150   26.8230   42.7970 C   0  0  0  0  0  3  0  0  0  0  0  0
   37.0600   27.0220   41.4580 C   0  0  0  0  0  3  0  0  0  0  0  0
   36.8550   33.5790   39.9270 O   0  0  0  0  0  0  0  0  0  0  0  0
   35.9250   33.3680   39.5920 H   0  0  0  0  0  0  0  0  0  0  0  0
  1  6  1  0  0  0  0
  2  1  2  0  0  0  0
  2  3  1  0  0  0  0
  3  4  2  0  0  0  0
  4  5  1  0  0  0  0
  5 11  1  0  0  0  0
  6  5  2  0  0  0  0
  7  2  1  0  0  0  0
  8  3  1  0  0  0  0
  9 10  1  0  0  0  0
 10 17  2  0  0  0  0
 10 11  1  0  0  0  0
 11 12  2  0  0  0  0
 12 14  1  0  0  0  0
 12 13  1  0  0  0  0
 14 15  1  0  0  0  0
 16 14  2  0  0  0  0
 17 16  1  0  0  0  0
 18  1  1  0  0  0  0
 19 18  1  0  0  0  0
M  END
>  <minimizedAffinity>
-4.80048084

$$$$

 OpenBabel03242518433D

 19 20  0  0  0  0  0  0  0  0999 V2000
   37.9610   30.8140   38.2280 C   0  0  0  0  0  0  0  0  0  0  0  0
   37.4980   32.1410   38.3560 C   0  0  0  0  0  0  0  0  0  0  0  0
   36.9820   32.5110   39.6050 C   0  0  0  0  0  0  0  0  0  0  0  0
   36.9570   31.5980   40.5970 N   0  0  0  0  0  0  0  0  0  0  0  0
   37.4130   30.3300   40.4330 C   0  0  0  0  0  0  0  0  0  0  0  0
   37.9090   29.9520   39.2520 N   0  0  0  0  0  0  0  0  0  0  0  0
   37.5310   32.8540   37.5410 H   0  0  0  0  0  0  0  0  0  0  0  0
   36.6060   33.5030   39.7930 H   0  0  0  0  0  0  0  0  0  0  0  0
   39.5150   30.7390   42.5320 Cl  0  0  0  0  0  0  0  0  0  0  0  0
   38.2870   29.4870   42.5730 C   0  0  0  0  0  0  0  0  0  0  0  0
   37.3580   29.3850   41.5470 C   0  0  0  0  0  0  0  0  0  0  0  0
   36.3930   28.3820   41.6030 C   0  0  0  0  0  0  0  0  0  0  0  0
   35.6550   28.2890   40.8040 H   0  0  0  0  0  0  0  0  0  0  0  0
   36.3420   27.4790   42.6700 C   0  0  0  0  0  0  0  0  0  0  0  0
   35.5560   26.7210   42.6400 H   0  0  0  0  0  0  0  0  0  0  0  0
   37.2880   27.6110   43.6790 C   0  0  0  0  0  3  0  0  0  0  0  0
   38.2210   28.5990   43.6000 C   0  0  0  0  0  3  0  0  0  0  0  0
   38.4690   30.4430   37.0060 O   0  0  0  0  0  0  0  0  0  0  0  0
   39.1870   29.7410   36.8950 H   0  0  0  0  0  0  0  0  0  0  0  0
  1  2  2  0  0  0  0
  1  6  1  0  0  0  0
  2  3  1  0  0  0  0
  3  8  1  0  0  0  0
  3  4  2  0  0  0  0
  5  4  1  0  0  0  0
  5 11  1  0  0  0  0
  6  5  2  0  0  0  0
  7  2  1  0  0  0  0
  9 10  1  0  0  0  0
 10 17  1  0  0  0  0
 11 12  1  0  0  0  0
 11 10  2  0  0  0  0
 12 14  2  0  0  0  0
 13 12  1  0  0  0  0
 14 16  1  0  0  0  0
 15 14  1  0  0  0  0
 17 16  2  0  0  0  0
 18  1  1  0  0  0  0
 19 18  1  0  0  0  0
M  END
>  <minimizedAffinity>
-4.70438242

$$$$

 OpenBabel03242518433D

 19 20  0  0  0  0  0  0  0  0999 V2000
   39.5060   32.5380   40.9400 C   0  0  0  0  0  0  0  0  0  0  0  0
   38.5750   33.2760   40.1800 C   0  0  0  0  0  0  0  0  0  0  0  0
   37.3190   32.6880   39.9770 C   0  0  0  0  0  0  0  0  0  0  0  0
   37.0740   31.4740   40.5090 N   0  0  0  0  0  0  0  0  0  0  0  0
   37.9990   30.7960   41.2350 C   0  0  0  0  0  0  0  0  0  0  0  0
   39.2030   31.3340   41.4430 N   0  0  0  0  0  0  0  0  0  0  0  0
   38.8000   34.2520   39.7650 H   0  0  0  0  0  0  0  0  0  0  0  0
   36.5460   33.1800   39.4090 H   0  0  0  0  0  0  0  0  0  0  0  0
   37.2160   28.7390   39.1980 Cl  0  0  0  0  0  0  0  0  0  0  0  0
   37.2990   28.4570   40.9280 C   0  0  0  0  0  0  0  0  0  0  0  0
   37.6730   29.4810   41.7860 C   0  0  0  0  0  0  0  0  0  0  0  0
   37.7310   29.2310   43.1550 C   0  0  0  0  0  0  0  0  0  0  0  0
   38.0250   30.0260   43.8430 H   0  0  0  0  0  0  0  0  0  0  0  0
   37.4190   27.9720   43.6800 C   0  0  0  0  0  0  0  0  0  0  0  0
   37.4890   27.8560   44.7640 H   0  0  0  0  0  0  0  0  0  0  0  0
   37.0480   26.9720   42.7910 C   0  0  0  0  0  3  0  0  0  0  0  0
   36.9990   27.2420   41.4570 C   0  0  0  0  0  3  0  0  0  0  0  0
   40.7400   33.1080   41.1440 O   0  0  0  0  0  0  0  0  0  0  0  0
   41.3030   32.9310   41.9650 H   0  0  0  0  0  0  0  0  0  0  0  0
  1 18  1  0  0  0  0
  1  6  1  0  0  0  0
  2  1  2  0  0  0  0
  3  2  1  0  0  0  0
  3  4  2  0  0  0  0
  4  5  1  0  0  0  0
  5  6  2  0  0  0  0
  5 11  1  0  0  0  0
  7  2  1  0  0  0  0
  8  3  1  0  0  0  0
  9 10  1  0  0  0  0
 10 17  2  0  0  0  0
 10 11  1  0  0  0  0
 11 12  2  0  0  0  0
 12 14  1  0  0  0  0
 12 13  1  0  0  0  0
 14 15  1  0  0  0  0
 16 14  2  0  0  0  0
 17 16  1  0  0  0  0
 18 19  1  0  0  0  0
M  END
>  <minimizedAffinity>
-4.63875818

$$$$

 OpenBabel03242518433D

 19 20  0  0  0  0  0  0  0  0999 V2000
   42.6480   25.4120   42.8770 C   0  0  0  0  0  0  0  0  0  0  0  0
   43.2930   25.9610   41.7490 C   0  0  0  0  0  0  0  0  0  0  0  0
   42.5290   26.8110   40.9370 C   0  0  0  0  0  0  0  0  0  0  0  0
   41.2460   27.0530   41.2720 N   0  0  0  0  0  0  0  0  0  0  0  0
   40.6620   26.5040   42.3680 C   0  0  0  0  0  0  0  0  0  0  0  0
   41.3680   25.6910   43.1570 N   0  0  0  0  0  0  0  0  0  0  0  0
   44.3270   25.7500   41.5050 H   0  0  0  0  0  0  0  0  0  0  0  0
   42.9400   27.2750   40.0550 H   0  0  0  0  0  0  0  0  0  0  0  0
   38.6900   24.4720   41.3780 Cl  0  0  0  0  0  0  0  0  0  0  0  0
   38.2710   25.9280   42.2650 C   0  0  0  0  0  0  0  0  0  0  0  0
   39.2650   26.8040   42.6780 C   0  0  0  0  0  0  0  0  0  0  0  0
   38.9060   27.9530   43.3800 C   0  0  0  0  0  0  0  0  0  0  0  0
   39.6760   28.6520   43.7120 H   0  0  0  0  0  0  0  0  0  0  0  0
   37.5690   28.2380   43.6760 C   0  0  0  0  0  0  0  0  0  0  0  0
   37.3700   29.1590   44.2300 H   0  0  0  0  0  0  0  0  0  0  0  0
   36.6020   27.3380   43.2460 C   0  0  0  0  0  3  0  0  0  0  0  0
   36.9790   26.2240   42.5610 C   0  0  0  0  0  3  0  0  0  0  0  0
   43.3900   24.5780   43.6790 O   0  0  0  0  0  0  0  0  0  0  0  0
   43.2300   24.4780   44.6720 H   0  0  0  0  0  0  0  0  0  0  0  0
  1  6  1  0  0  0  0
  1 18  1  0  0  0  0
  2  1  2  0  0  0  0
  3  4  2  0  0  0  0
  3  2  1  0  0  0  0
  4  5  1  0  0  0  0
  5 11  1  0  0  0  0
  5  6  2  0  0  0  0
  7  2  1  0  0  0  0
  8  3  1  0  0  0  0
  9 10  1  0  0  0  0
 10 17  2  0  0  0  0
 10 11  1  0  0  0  0
 11 12  2  0  0  0  0
 12 14  1  0  0  0  0
 12 13  1  0  0  0  0
 14 15  1  0  0  0  0
 16 14  2  0  0  0  0
 17 16  1  0  0  0  0
 18 19  1  0  0  0  0
M  END
>  <minimizedAffinity>
-4.60538101

$$$$

 OpenBabel03242518433D

 19 20  0  0  0  0  0  0  0  0999 V2000
   38.0830   31.0040   38.2000 C   0  0  0  0  0  0  0  0  0  0  0  0
   37.6600   32.3300   38.4330 C   0  0  0  0  0  0  0  0  0  0  0  0
   37.2490   32.6410   39.7370 C   0  0  0  0  0  0  0  0  0  0  0  0
   37.2810   31.6770   40.6780 N   0  0  0  0  0  0  0  0  0  0  0  0
   37.6960   30.4110   40.4130 C   0  0  0  0  0  0  0  0  0  0  0  0
   38.0920   30.0890   39.1790 N   0  0  0  0  0  0  0  0  0  0  0  0
   37.6450   33.0850   37.6570 H   0  0  0  0  0  0  0  0  0  0  0  0
   36.9100   33.6280   40.0050 H   0  0  0  0  0  0  0  0  0  0  0  0
   35.1450   28.8620   40.7060 Cl  0  0  0  0  0  0  0  0  0  0  0  0
   36.5750   28.6360   41.6970 C   0  0  0  0  0  0  0  0  0  0  0  0
   37.7070   29.4090   41.4770 C   0  0  0  0  0  0  0  0  0  0  0  0
   38.8300   29.2090   42.2770 C   0  0  0  0  0  0  0  0  0  0  0  0
   39.7280   29.8090   42.1160 H   0  0  0  0  0  0  0  0  0  0  0  0
   38.8380   28.2490   43.2950 C   0  0  0  0  0  0  0  0  0  0  0  0
   39.7570   28.1540   43.8780 H   0  0  0  0  0  0  0  0  0  0  0  0
   37.6880   27.4950   43.4860 C   0  0  0  0  0  3  0  0  0  0  0  0
   36.6040   27.7100   42.6900 C   0  0  0  0  0  3  0  0  0  0  0  0
   38.4870   30.6910   36.9250 O   0  0  0  0  0  0  0  0  0  0  0  0
   39.1800   29.9840   36.7220 H   0  0  0  0  0  0  0  0  0  0  0  0
  1  2  2  0  0  0  0
  1  6  1  0  0  0  0
  2  3  1  0  0  0  0
  3  8  1  0  0  0  0
  3  4  2  0  0  0  0
  5  4  1  0  0  0  0
  5 11  1  0  0  0  0
  6  5  2  0  0  0  0
  7  2  1  0  0  0  0
  9 10  1  0  0  0  0
 10 17  1  0  0  0  0
 11 10  2  0  0  0  0
 11 12  1  0  0  0  0
 12 14  2  0  0  0  0
 13 12  1  0  0  0  0
 14 16  1  0  0  0  0
 14 15  1  0  0  0  0
 17 16  2  0  0  0  0
 18  1  1  0  0  0  0
 19 18  1  0  0  0  0
M  END
>  <minimizedAffinity>
-4.59228182

$$$$

 OpenBabel03242518433D

 19 20  0  0  0  0  0  0  0  0999 V2000
   37.0040   28.0400   42.7180 C   0  0  0  0  0  0  0  0  0  0  0  0
   37.8990   27.0500   42.2600 C   0  0  0  0  0  0  0  0  0  0  0  0
   38.8220   27.4380   41.2790 C   0  0  0  0  0  0  0  0  0  0  0  0
   38.8050   28.7110   40.8350 N   0  0  0  0  0  0  0  0  0  0  0  0
   37.9260   29.6350   41.3030 C   0  0  0  0  0  0  0  0  0  0  0  0
   37.0360   29.2900   42.2370 N   0  0  0  0  0  0  0  0  0  0  0  0
   37.8910   26.0340   42.6360 H   0  0  0  0  0  0  0  0  0  0  0  0
   39.5430   26.7490   40.8710 H   0  0  0  0  0  0  0  0  0  0  0  0
   36.0360   30.1560   39.0330 Cl  0  0  0  0  0  0  0  0  0  0  0  0
   37.1190   31.3470   39.7300 C   0  0  0  0  0  0  0  0  0  0  0  0
   37.9560   31.0000   40.7810 C   0  0  0  0  0  0  0  0  0  0  0  0
   38.8080   31.9650   41.3160 C   0  0  0  0  0  0  0  0  0  0  0  0
   39.4720   31.7080   42.1440 H   0  0  0  0  0  0  0  0  0  0  0  0
   38.8350   33.2710   40.8160 C   0  0  0  0  0  0  0  0  0  0  0  0
   39.5300   33.9680   41.2890 H   0  0  0  0  0  0  0  0  0  0  0  0
   37.9840   33.5820   39.7630 C   0  0  0  0  0  3  0  0  0  0  0  0
   37.1620   32.6210   39.2580 C   0  0  0  0  0  3  0  0  0  0  0  0
   36.0970   27.6670   43.6800 O   0  0  0  0  0  0  0  0  0  0  0  0
   35.7290   28.3060   44.3710 H   0  0  0  0  0  0  0  0  0  0  0  0
  1 18  1  0  0  0  0
  2  7  1  0  0  0  0
  2  1  1  0  0  0  0
  3  2  2  0  0  0  0
  4  3  1  0  0  0  0
  4  5  2  0  0  0  0
  5  6  1  0  0  0  0
  6  1  2  0  0  0  0
  8  3  1  0  0  0  0
  9 10  1  0  0  0  0
 10 11  1  0  0  0  0
 11  5  1  0  0  0  0
 11 12  2  0  0  0  0
 12 13  1  0  0  0  0
 14 15  1  0  0  0  0
 14 12  1  0  0  0  0
 16 14  2  0  0  0  0
 17 10  2  0  0  0  0
 17 16  1  0  0  0  0
 18 19  1  0  0  0  0
M  END
>  <minimizedAffinity>
-4.44734001

$$$$
