
 OpenBabel03242517073D

 34 36  0  0  1  0  0  0  0  0999 V2000
   47.0430   34.0910   42.9110 C   0  0  2  0  0  0  0  0  0  0  0  0
   46.4990   33.4900   41.6680 C   0  0  2  0  0  0  0  0  0  0  0  0
   47.4900   33.3750   40.5750 C   0  0  0  0  0  0  0  0  0  0  0  0
   48.1900   34.6720   40.2530 C   0  0  0  0  0  0  0  0  0  0  0  0
   48.5940   35.4330   41.4700 C   0  0  0  0  0  0  0  0  0  0  0  0
   48.4420   34.6530   42.7440 C   0  0  0  0  0  0  0  0  0  0  0  0
   46.3850   34.9130   43.2650 H   0  0  0  0  0  0  0  0  0  0  0  0
   46.1890   32.3880   41.9120 H   0  0  0  0  0  0  0  0  0  0  0  0
   47.0500   32.9590   39.6390 H   0  0  0  0  0  0  0  0  0  0  0  0
   48.3420   32.6630   40.7860 H   0  0  0  0  0  0  0  0  0  0  0  0
   49.0720   34.4770   39.5800 H   0  0  0  0  0  0  0  0  0  0  0  0
   47.5180   35.2820   39.6350 H   0  0  0  0  0  0  0  0  0  0  0  0
   49.6780   35.6600   41.3820 H   0  0  0  0  0  0  0  0  0  0  0  0
   48.0950   36.4120   41.5140 H   0  0  0  0  0  0  0  0  0  0  0  0
   49.1420   33.8070   42.7850 H   0  0  0  0  0  0  0  0  0  0  0  0
   48.6540   35.3410   43.5870 H   0  0  0  0  0  0  0  0  0  0  0  0
   47.1080   33.1020   44.0110 C   0  0  0  0  0  0  0  0  0  0  0  0
   47.6360   31.8260   43.6840 C   0  0  0  0  0  0  0  0  0  0  0  0
   47.7330   30.8440   44.6730 C   0  0  0  0  0  0  0  0  0  0  0  0
   47.2950   31.2030   45.9320 N   0  0  0  0  0  0  0  0  0  0  0  0
   46.7990   32.4130   46.2210 C   0  0  0  0  0  0  0  0  0  0  0  0
   46.7060   33.3620   45.2580 N   0  0  0  0  0  0  0  0  0  0  0  0
   47.9860   31.4830   42.7520 H   0  0  0  0  0  0  0  0  0  0  0  0
   48.1210   29.8560   44.5060 H   0  0  0  0  0  0  0  0  0  0  0  0
   46.4920   32.5680   47.2400 H   0  0  0  0  0  0  0  0  0  0  0  0
   45.3660   35.9300   43.1320 Cl  0  0  0  0  0  0  0  0  0  0  0  0
   44.5990   35.1690   41.7500 C   0  0  0  0  0  0  0  0  0  0  0  0
   45.2220   34.0440   41.1850 C   0  0  0  0  0  0  0  0  0  0  0  0
   44.4860   33.5750   40.1110 C   0  0  0  0  0  0  0  0  0  0  0  0
   44.8340   32.7350   39.5550 H   0  0  0  0  0  0  0  0  0  0  0  0
   43.3220   34.1030   39.6440 C   0  0  0  0  0  0  0  0  0  0  0  0
   42.7760   33.7100   38.8040 H   0  0  0  0  0  0  0  0  0  0  0  0
   42.7810   35.2000   40.2510 C   0  0  0  0  0  0  0  0  0  0  0  0
   43.4250   35.7510   41.3260 C   0  0  0  0  0  0  0  0  0  0  0  0
  1  7  1  1  0  0  0
  1 17  1  0  0  0  0
  2  8  1  1  0  0  0
  2  1  1  0  0  0  0
  3 10  1  0  0  0  0
  3  2  1  0  0  0  0
  4  3  1  0  0  0  0
  4  5  1  0  0  0  0
  5 14  1  0  0  0  0
  5  6  1  0  0  0  0
  6 15  1  0  0  0  0
  6  1  1  0  0  0  0
  6 16  1  0  0  0  0
  9  3  1  0  0  0  0
 11  4  1  0  0  0  0
 12  4  1  0  0  0  0
 13  5  1  0  0  0  0
 17 22  1  0  0  0  0
 18 17  2  0  0  0  0
 18 19  1  0  0  0  0
 19 20  2  0  0  0  0
 20 21  1  0  0  0  0
 21 25  1  0  0  0  0
 22 21  2  0  0  0  0
 23 18  1  0  0  0  0
 24 19  1  0  0  0  0
 27 26  1  0  0  0  0
 28  2  1  0  0  0  0
 28 27  2  0  0  0  0
 29 28  1  0  0  0  0
 30 29  1  0  0  0  0
 31 29  2  0  0  0  0
 31 33  1  0  0  0  0
 32 31  1  0  0  0  0
 33 34  2  0  0  0  0
 34 27  1  0  0  0  0
M  END
>  <minimizedAffinity>
-5.5693078

>  <minimizedRMSD>
3.64598894

$$$$
