
 OpenBabel03252507073D

 24 25  0  0  0  0  0  0  0  0999 V2000
   44.4640   35.9560   44.7280 C   0  0  0  0  0  0  0  0  0  0  0  0
   44.7860   35.7470   43.3790 C   0  0  0  0  0  0  0  0  0  0  0  0
   45.4790   34.5950   43.0400 C   0  0  0  0  0  0  0  0  0  0  0  0
   45.8210   33.7120   44.0300 N   0  0  0  0  0  0  0  0  0  0  0  0
   45.4930   33.9500   45.3080 C   0  0  0  0  0  0  0  0  0  0  0  0
   44.8240   35.0540   45.6660 N   0  0  0  0  0  0  0  0  0  0  0  0
   43.9220   36.8410   45.0540 H   0  0  0  0  0  0  0  0  0  0  0  0
   44.4840   36.4900   42.6470 H   0  0  0  0  0  0  0  0  0  0  0  0
   47.6270   32.0130   44.5900 Cl  0  0  0  0  0  0  0  0  0  0  0  0
   46.8250   32.0530   46.1640 C   0  0  0  0  0  0  0  0  0  0  0  0
   45.8640   32.9990   46.3500 C   0  0  0  0  0  0  0  0  0  0  0  0
   45.2560   33.0050   47.5890 C   0  0  0  0  0  0  0  0  0  0  0  0
   44.4790   33.7220   47.8310 H   0  0  0  0  0  0  0  0  0  0  0  0
   45.5790   32.1240   48.6000 C   0  0  0  0  0  0  0  0  0  0  0  0
   45.1120   32.1230   49.5630 H   0  0  0  0  0  0  0  0  0  0  0  0
   46.5590   31.1930   48.3470 C   0  0  0  0  0  3  0  0  0  0  0  0
   47.2010   31.1390   47.1280 C   0  0  0  0  0  3  0  0  0  0  0  0
   45.7890   34.4080   41.6980 O   0  0  0  0  0  0  0  0  0  0  0  0
   47.5430   32.4940   41.2290 O   0  0  0  0  0  0  0  0  0  0  0  0
   47.3980   34.0050   41.2590 P   0  0  0  0  0  0  0  0  0  0  0  0
   47.7220   34.7070   39.7650 O   0  0  0  0  0  0  0  0  0  0  0  0
   47.3690   34.1970   39.0180 H   0  0  0  0  0  0  0  0  0  0  0  0
   48.4180   34.6290   42.4510 O   0  0  0  0  0  0  0  0  0  0  0  0
   49.3070   34.7770   42.0300 H   0  0  0  0  0  0  0  0  0  0  0  0
  1  7  1  0  0  0  0
  1  6  1  0  0  0  0
  2  1  2  0  0  0  0
  3  2  1  0  0  0  0
  3  4  2  0  0  0  0
  4  5  1  0  0  0  0
  5  6  2  0  0  0  0
  5 11  1  0  0  0  0
  8  2  1  0  0  0  0
  9 10  1  0  0  0  0
 10 11  2  0  0  0  0
 10 17  1  0  0  0  0
 11 12  1  0  0  0  0
 12 13  1  0  0  0  0
 12 14  2  0  0  0  0
 14 15  1  0  0  0  0
 16 14  1  0  0  0  0
 17 16  2  0  0  0  0
 18  3  1  0  0  0  0
 19 20  2  0  0  0  0
 20 18  1  0  0  0  0
 20 23  1  0  0  0  0
 21 20  1  0  0  0  0
 22 21  1  0  0  0  0
 24 23  1  0  0  0  0
M  END
>  <minimizedAffinity>
-5.10715723

>  <minimizedRMSD>
1.01068592

$$$$
