
 OpenBabel03242516523D

 45 48  0  0  1  0  0  0  0  0999 V2000
   46.9700   31.9920   40.6290 C   0  0  1  0  0  0  0  0  0  0  0  0
   45.9120   31.5280   39.7280 C   0  0  0  0  0  0  0  0  0  0  0  0
   46.4430   31.6910   38.3060 C   0  0  0  0  0  0  0  0  0  0  0  0
   46.5140   33.1820   38.0400 C   0  0  0  0  0  0  0  0  0  0  0  0
   47.2910   33.9530   39.0700 C   0  0  0  0  0  0  0  0  0  0  0  0
   47.2400   33.4900   40.4600 C   0  0  1  0  0  0  0  0  0  0  0  0
   47.9500   31.5320   40.2930 H   0  0  0  0  0  0  0  0  0  0  0  0
   44.9720   32.0740   39.8100 H   0  0  0  0  0  0  0  0  0  0  0  0
   45.7680   30.4280   39.8980 H   0  0  0  0  0  0  0  0  0  0  0  0
   45.6710   31.3050   37.5940 H   0  0  0  0  0  0  0  0  0  0  0  0
   47.4190   31.1970   38.1830 H   0  0  0  0  0  0  0  0  0  0  0  0
   45.4600   33.5390   37.9480 H   0  0  0  0  0  0  0  0  0  0  0  0
   46.9740   33.3340   37.0380 H   0  0  0  0  0  0  0  0  0  0  0  0
   48.3410   34.0340   38.6920 H   0  0  0  0  0  0  0  0  0  0  0  0
   46.9020   35.0070   39.0340 H   0  0  0  0  0  0  0  0  0  0  0  0
   48.2650   33.6360   40.9200 H   0  0  0  0  0  0  0  0  0  0  0  0
   45.3370   30.9480   43.8780 C   0  0  0  0  0  0  0  0  0  0  0  0
   45.5720   31.2610   42.5330 C   0  0  0  0  0  0  0  0  0  0  0  0
   46.8090   31.6800   42.0330 C   0  0  0  0  0  0  0  0  0  0  0  0
   47.7970   31.7740   42.9290 N   0  0  0  0  0  0  0  0  0  0  0  0
   47.5890   31.4750   44.2400 C   0  0  0  0  0  0  0  0  0  0  0  0
   46.4040   31.0750   44.7080 N   0  0  0  0  0  0  0  0  0  0  0  0
   44.3650   30.6360   44.1780 H   0  0  0  0  0  0  0  0  0  0  0  0
   44.7490   31.1740   41.8330 H   0  0  0  0  0  0  0  0  0  0  0  0
   48.4310   31.5670   44.9360 H   0  0  0  0  0  0  0  0  0  0  0  0
   46.3520   34.2970   41.2960 C   0  0  0  0  0  0  0  0  0  0  0  0
   46.7280   35.0760   42.3890 C   0  0  0  0  0  0  0  0  0  0  0  0
   45.7030   35.7760   43.0250 C   0  0  0  0  0  0  0  0  0  0  0  0
   44.4220   35.6470   42.5340 C   0  0  0  0  0  0  0  0  0  0  0  0
   44.0650   34.8670   41.4440 C   0  0  0  0  0  0  0  0  0  0  0  0
   45.0790   34.1910   40.8360 N   0  0  0  0  0  0  0  0  0  0  0  0
   47.7780   35.0680   42.6460 H   0  0  0  0  0  0  0  0  0  0  0  0
   45.9920   36.3740   43.8630 H   0  0  0  0  0  0  0  0  0  0  0  0
   43.6810   36.2260   43.0860 H   0  0  0  0  0  0  0  0  0  0  0  0
   42.6750   34.8040   41.0120 C   0  0  0  0  0  0  0  0  0  0  0  0
   41.9220   35.7700   41.2880 O   0  0  0  0  0  0  0  0  0  0  0  0
   42.3020   35.5110   38.1900 Cl  0  0  0  0  0  0  0  0  0  0  0  0
   41.6330   34.0460   38.9250 C   0  0  0  0  0  0  0  0  0  0  0  0
   41.8810   33.8250   40.2880 C   0  0  0  0  0  0  0  0  0  0  0  0
   41.3370   32.6820   40.7780 C   0  0  0  0  0  0  0  0  0  0  0  0
   41.5020   32.4580   41.8040 H   0  0  0  0  0  0  0  0  0  0  0  0
   40.5940   31.7680   40.0650 C   0  0  0  0  0  0  0  0  0  0  0  0
   40.1930   30.8800   40.5240 H   0  0  0  0  0  0  0  0  0  0  0  0
   40.3830   32.0400   38.7290 C   0  0  0  0  0  3  0  0  0  0  0  0
   40.8900   33.1710   38.1280 C   0  0  0  0  0  3  0  0  0  0  0  0
  1  7  1  6  0  0  0
  1 19  1  0  0  0  0
  2  8  1  0  0  0  0
  2  9  1  0  0  0  0
  2  1  1  0  0  0  0
  3  2  1  0  0  0  0
  4  3  1  0  0  0  0
  4  5  1  0  0  0  0
  5  6  1  0  0  0  0
  6  1  1  0  0  0  0
  6 16  1  1  0  0  0
  6 26  1  0  0  0  0
 10  3  1  0  0  0  0
 11  3  1  0  0  0  0
 12  4  1  0  0  0  0
 13  4  1  0  0  0  0
 14  5  1  0  0  0  0
 15  5  1  0  0  0  0
 17 23  1  0  0  0  0
 17 22  1  0  0  0  0
 18 17  2  0  0  0  0
 19 18  1  0  0  0  0
 19 20  2  0  0  0  0
 20 21  1  0  0  0  0
 21 22  2  0  0  0  0
 21 25  1  0  0  0  0
 24 18  1  0  0  0  0
 26 27  1  0  0  0  0
 27 32  1  0  0  0  0
 27 28  2  0  0  0  0
 28 33  1  0  0  0  0
 29 28  1  0  0  0  0
 29 34  1  0  0  0  0
 30 29  2  0  0  0  0
 31 26  2  0  0  0  0
 31 30  1  0  0  0  0
 35 36  2  0  0  0  0
 35 30  1  0  0  0  0
 37 38  1  0  0  0  0
 38 39  1  0  0  0  0
 39 40  2  0  0  0  0
 39 35  1  0  0  0  0
 40 41  1  0  0  0  0
 42 43  1  0  0  0  0
 42 40  1  0  0  0  0
 44 42  2  0  0  0  0
 45 44  1  0  0  0  0
 45 38  2  0  0  0  0
M  END
>  <minimizedAffinity>
-5.24036121

>  <minimizedRMSD>
1.75497282

$$$$
