
 OpenBabel03242516523D

 45 48  0  0  1  0  0  0  0  0999 V2000
   47.8440   32.8980   41.8350 C   0  0  1  0  0  0  0  0  0  0  0  0
   47.5180   32.2850   40.5440 C   0  0  0  0  0  0  0  0  0  0  0  0
   48.5380   32.8130   39.5380 C   0  0  0  0  0  0  0  0  0  0  0  0
   48.2190   34.2810   39.3300 C   0  0  0  0  0  0  0  0  0  0  0  0
   48.1520   35.0800   40.6010 C   0  0  0  0  0  0  0  0  0  0  0  0
   47.6460   34.4170   41.8060 C   0  0  1  0  0  0  0  0  0  0  0  0
   48.9610   32.8050   42.0010 H   0  0  0  0  0  0  0  0  0  0  0  0
   46.5190   32.5110   40.1730 H   0  0  0  0  0  0  0  0  0  0  0  0
   47.6880   31.1800   40.6310 H   0  0  0  0  0  0  0  0  0  0  0  0
   48.3400   32.3300   38.5490 H   0  0  0  0  0  0  0  0  0  0  0  0
   49.5680   32.6540   39.8900 H   0  0  0  0  0  0  0  0  0  0  0  0
   47.2650   34.3210   38.7530 H   0  0  0  0  0  0  0  0  0  0  0  0
   48.9970   34.7140   38.6620 H   0  0  0  0  0  0  0  0  0  0  0  0
   49.1670   35.5240   40.7610 H   0  0  0  0  0  0  0  0  0  0  0  0
   47.4950   35.9650   40.3830 H   0  0  0  0  0  0  0  0  0  0  0  0
   48.2450   34.7870   42.6940 H   0  0  0  0  0  0  0  0  0  0  0  0
   45.4080   30.9110   43.9390 C   0  0  0  0  0  0  0  0  0  0  0  0
   46.0960   31.4820   42.8610 C   0  0  0  0  0  0  0  0  0  0  0  0
   47.1890   32.3420   43.0000 C   0  0  0  0  0  0  0  0  0  0  0  0
   47.5660   32.6070   44.2560 N   0  0  0  0  0  0  0  0  0  0  0  0
   46.9100   32.0620   45.3160 C   0  0  0  0  0  0  0  0  0  0  0  0
   45.8660   31.2410   45.1740 N   0  0  0  0  0  0  0  0  0  0  0  0
   44.5830   30.2660   43.7480 H   0  0  0  0  0  0  0  0  0  0  0  0
   45.7640   31.2460   41.8560 H   0  0  0  0  0  0  0  0  0  0  0  0
   47.2560   32.3100   46.3260 H   0  0  0  0  0  0  0  0  0  0  0  0
   46.2670   34.7880   42.1240 C   0  0  0  0  0  0  0  0  0  0  0  0
   45.8200   35.3640   43.3110 C   0  0  0  0  0  0  0  0  0  0  0  0
   44.4560   35.6490   43.3790 C   0  0  0  0  0  0  0  0  0  0  0  0
   43.6700   35.3440   42.2890 C   0  0  0  0  0  0  0  0  0  0  0  0
   44.1330   34.7700   41.1130 C   0  0  0  0  0  0  0  0  0  0  0  0
   45.4670   34.5000   41.0660 N   0  0  0  0  0  0  0  0  0  0  0  0
   46.5670   35.5390   44.0720 H   0  0  0  0  0  0  0  0  0  0  0  0
   44.1130   36.0920   44.2900 H   0  0  0  0  0  0  0  0  0  0  0  0
   42.6190   35.5980   42.4220 H   0  0  0  0  0  0  0  0  0  0  0  0
   43.2100   34.4900   40.0230 C   0  0  0  0  0  0  0  0  0  0  0  0
   42.6010   35.4530   39.4960 O   0  0  0  0  0  0  0  0  0  0  0  0
   40.8700   33.2430   41.2810 Cl  0  0  0  0  0  0  0  0  0  0  0  0
   41.6690   32.5890   39.8410 C   0  0  0  0  0  0  0  0  0  0  0  0
   42.7820   33.2790   39.3410 C   0  0  0  0  0  0  0  0  0  0  0  0
   43.3380   32.7180   38.2370 C   0  0  0  0  0  0  0  0  0  0  0  0
   44.1790   33.2040   37.8070 H   0  0  0  0  0  0  0  0  0  0  0  0
   42.9060   31.5730   37.6060 C   0  0  0  0  0  0  0  0  0  0  0  0
   43.3990   31.1850   36.7310 H   0  0  0  0  0  0  0  0  0  0  0  0
   41.8060   30.9380   38.1450 C   0  0  0  0  0  3  0  0  0  0  0  0
   41.1640   31.4210   39.2640 C   0  0  0  0  0  3  0  0  0  0  0  0
  1  7  1  1  0  0  0
  1 19  1  0  0  0  0
  2  9  1  0  0  0  0
  2  1  1  0  0  0  0
  3 11  1  0  0  0  0
  3  2  1  0  0  0  0
  4  3  1  0  0  0  0
  4  5  1  0  0  0  0
  5 14  1  0  0  0  0
  5  6  1  0  0  0  0
  6  1  1  0  0  0  0
  6 26  1  0  0  0  0
  6 16  1  1  0  0  0
  8  2  1  0  0  0  0
 10  3  1  0  0  0  0
 12  4  1  0  0  0  0
 13  4  1  0  0  0  0
 15  5  1  0  0  0  0
 17 22  1  0  0  0  0
 18 19  1  0  0  0  0
 18 17  2  0  0  0  0
 19 20  2  0  0  0  0
 20 21  1  0  0  0  0
 21 25  1  0  0  0  0
 22 21  2  0  0  0  0
 23 17  1  0  0  0  0
 24 18  1  0  0  0  0
 26 27  1  0  0  0  0
 27 28  2  0  0  0  0
 27 32  1  0  0  0  0
 28 33  1  0  0  0  0
 29 34  1  0  0  0  0
 29 28  1  0  0  0  0
 30 29  2  0  0  0  0
 31 30  1  0  0  0  0
 31 26  2  0  0  0  0
 35 30  1  0  0  0  0
 36 35  2  0  0  0  0
 38 37  1  0  0  0  0
 39 38  1  0  0  0  0
 39 35  1  0  0  0  0
 40 39  2  0  0  0  0
 41 40  1  0  0  0  0
 42 44  2  0  0  0  0
 42 40  1  0  0  0  0
 43 42  1  0  0  0  0
 44 45  1  0  0  0  0
 45 38  2  0  0  0  0
M  END
>  <minimizedAffinity>
-5.60363817

>  <minimizedRMSD>
0.571778595

$$$$
