
 OpenBabel03242516523D

 45 48  0  0  1  0  0  0  0  0999 V2000
   47.8400   32.8870   41.8370 C   0  0  1  0  0  0  0  0  0  0  0  0
   47.5070   32.2500   40.5600 C   0  0  0  0  0  0  0  0  0  0  0  0
   48.5190   32.7620   39.5380 C   0  0  0  0  0  0  0  0  0  0  0  0
   48.1950   34.2250   39.3060 C   0  0  0  0  0  0  0  0  0  0  0  0
   48.1340   35.0470   40.5620 C   0  0  0  0  0  0  0  0  0  0  0  0
   47.6370   34.4050   41.7820 C   0  0  1  0  0  0  0  0  0  0  0  0
   48.9580   32.8000   41.9980 H   0  0  0  0  0  0  0  0  0  0  0  0
   46.5050   32.4660   40.1910 H   0  0  0  0  0  0  0  0  0  0  0  0
   47.6810   31.1470   40.6660 H   0  0  0  0  0  0  0  0  0  0  0  0
   48.3160   32.2610   38.5590 H   0  0  0  0  0  0  0  0  0  0  0  0
   49.5520   32.6120   39.8870 H   0  0  0  0  0  0  0  0  0  0  0  0
   47.2370   34.2520   38.7340 H   0  0  0  0  0  0  0  0  0  0  0  0
   48.9680   34.6470   38.6240 H   0  0  0  0  0  0  0  0  0  0  0  0
   49.1490   35.4970   40.7070 H   0  0  0  0  0  0  0  0  0  0  0  0
   47.4730   35.9260   40.3320 H   0  0  0  0  0  0  0  0  0  0  0  0
   48.2420   34.7930   42.6590 H   0  0  0  0  0  0  0  0  0  0  0  0
   45.4140   30.9420   43.9930 C   0  0  0  0  0  0  0  0  0  0  0  0
   46.0940   31.4950   42.9010 C   0  0  0  0  0  0  0  0  0  0  0  0
   47.1940   32.3510   43.0170 C   0  0  0  0  0  0  0  0  0  0  0  0
   47.5840   32.6320   44.2650 N   0  0  0  0  0  0  0  0  0  0  0  0
   46.9360   32.1050   45.3390 C   0  0  0  0  0  0  0  0  0  0  0  0
   45.8860   31.2880   45.2190 N   0  0  0  0  0  0  0  0  0  0  0  0
   44.5850   30.2990   43.8200 H   0  0  0  0  0  0  0  0  0  0  0  0
   45.7520   31.2470   41.9030 H   0  0  0  0  0  0  0  0  0  0  0  0
   47.2930   32.3660   46.3420 H   0  0  0  0  0  0  0  0  0  0  0  0
   46.2600   34.7790   42.1020 C   0  0  0  0  0  0  0  0  0  0  0  0
   45.8150   35.3570   43.2890 C   0  0  0  0  0  0  0  0  0  0  0  0
   44.4520   35.6430   43.3590 C   0  0  0  0  0  0  0  0  0  0  0  0
   43.6640   35.3380   42.2710 C   0  0  0  0  0  0  0  0  0  0  0  0
   44.1240   34.7620   41.0950 C   0  0  0  0  0  0  0  0  0  0  0  0
   45.4570   34.4900   41.0450 N   0  0  0  0  0  0  0  0  0  0  0  0
   46.5650   35.5320   44.0490 H   0  0  0  0  0  0  0  0  0  0  0  0
   44.1110   36.0880   44.2700 H   0  0  0  0  0  0  0  0  0  0  0  0
   42.6130   35.5940   42.4050 H   0  0  0  0  0  0  0  0  0  0  0  0
   43.1980   34.4810   40.0070 C   0  0  0  0  0  0  0  0  0  0  0  0
   42.5890   35.4440   39.4800 O   0  0  0  0  0  0  0  0  0  0  0  0
   40.8650   33.2340   41.2760 Cl  0  0  0  0  0  0  0  0  0  0  0  0
   41.6570   32.5790   39.8330 C   0  0  0  0  0  0  0  0  0  0  0  0
   42.7680   33.2700   39.3270 C   0  0  0  0  0  0  0  0  0  0  0  0
   43.3190   32.7090   38.2210 C   0  0  0  0  0  0  0  0  0  0  0  0
   44.1580   33.1960   37.7860 H   0  0  0  0  0  0  0  0  0  0  0  0
   42.8850   31.5620   37.5920 C   0  0  0  0  0  0  0  0  0  0  0  0
   43.3750   31.1750   36.7150 H   0  0  0  0  0  0  0  0  0  0  0  0
   41.7890   30.9280   38.1360 C   0  0  0  0  0  3  0  0  0  0  0  0
   41.1510   31.4120   39.2580 C   0  0  0  0  0  3  0  0  0  0  0  0
  1  7  1  1  0  0  0
  1 19  1  0  0  0  0
  2  9  1  0  0  0  0
  2  1  1  0  0  0  0
  3 11  1  0  0  0  0
  3  2  1  0  0  0  0
  4  3  1  0  0  0  0
  4  5  1  0  0  0  0
  5 14  1  0  0  0  0
  5  6  1  0  0  0  0
  6  1  1  0  0  0  0
  6 26  1  0  0  0  0
  6 16  1  1  0  0  0
  8  2  1  0  0  0  0
 10  3  1  0  0  0  0
 12  4  1  0  0  0  0
 13  4  1  0  0  0  0
 15  5  1  0  0  0  0
 17 22  1  0  0  0  0
 18 19  1  0  0  0  0
 18 17  2  0  0  0  0
 19 20  2  0  0  0  0
 20 21  1  0  0  0  0
 21 25  1  0  0  0  0
 22 21  2  0  0  0  0
 23 17  1  0  0  0  0
 24 18  1  0  0  0  0
 26 27  1  0  0  0  0
 27 28  2  0  0  0  0
 27 32  1  0  0  0  0
 28 33  1  0  0  0  0
 29 34  1  0  0  0  0
 29 28  1  0  0  0  0
 30 29  2  0  0  0  0
 31 30  1  0  0  0  0
 31 26  2  0  0  0  0
 35 30  1  0  0  0  0
 36 35  2  0  0  0  0
 38 37  1  0  0  0  0
 39 38  1  0  0  0  0
 39 35  1  0  0  0  0
 40 39  2  0  0  0  0
 41 40  1  0  0  0  0
 42 44  2  0  0  0  0
 42 40  1  0  0  0  0
 43 42  1  0  0  0  0
 44 45  1  0  0  0  0
 45 38  2  0  0  0  0
M  END
>  <minimizedAffinity>
-5.60288906

>  <minimizedRMSD>
0.97149384

$$$$
