
 OpenBabel03242516553D

 45 48  0  0  1  0  0  0  0  0999 V2000
   37.3600   30.3410   38.6650 C   0  0  1  0  0  0  0  0  0  0  0  0
   36.9510   28.9360   38.5910 C   0  0  0  0  0  0  0  0  0  0  0  0
   35.4440   28.9040   38.8410 C   0  0  0  0  0  0  0  0  0  0  0  0
   35.2410   29.2620   40.3010 C   0  0  0  0  0  0  0  0  0  0  0  0
   35.8970   30.5490   40.7140 C   0  0  0  0  0  0  0  0  0  0  0  0
   37.1640   30.9140   40.0730 C   0  0  1  0  0  0  0  0  0  0  0  0
   36.6320   30.9570   38.0520 H   0  0  0  0  0  0  0  0  0  0  0  0
   37.4340   28.2820   39.3170 H   0  0  0  0  0  0  0  0  0  0  0  0
   37.1140   28.5810   37.5400 H   0  0  0  0  0  0  0  0  0  0  0  0
   35.0940   27.8460   38.7500 H   0  0  0  0  0  0  0  0  0  0  0  0
   34.9110   29.5890   38.1640 H   0  0  0  0  0  0  0  0  0  0  0  0
   35.6050   28.3900   40.8950 H   0  0  0  0  0  0  0  0  0  0  0  0
   34.1470   29.3250   40.4930 H   0  0  0  0  0  0  0  0  0  0  0  0
   35.1270   31.3550   40.6120 H   0  0  0  0  0  0  0  0  0  0  0  0
   36.0710   30.4730   41.8210 H   0  0  0  0  0  0  0  0  0  0  0  0
   37.1710   32.0360   39.9130 H   0  0  0  0  0  0  0  0  0  0  0  0
   40.9630   29.8750   37.6110 C   0  0  0  0  0  0  0  0  0  0  0  0
   39.6540   29.6500   38.0560 C   0  0  0  0  0  0  0  0  0  0  0  0
   38.6920   30.6540   38.1920 C   0  0  0  0  0  0  0  0  0  0  0  0
   39.0890   31.8890   37.8670 N   0  0  0  0  0  0  0  0  0  0  0  0
   40.3560   32.1290   37.4330 C   0  0  0  0  0  0  0  0  0  0  0  0
   41.2690   31.1620   37.3070 N   0  0  0  0  0  0  0  0  0  0  0  0
   41.6370   29.0550   37.5360 H   0  0  0  0  0  0  0  0  0  0  0  0
   39.3650   28.6360   38.3110 H   0  0  0  0  0  0  0  0  0  0  0  0
   40.6340   33.1580   37.1800 H   0  0  0  0  0  0  0  0  0  0  0  0
   38.3260   30.6650   40.9250 C   0  0  0  0  0  0  0  0  0  0  0  0
   39.2990   31.5940   41.2870 C   0  0  0  0  0  0  0  0  0  0  0  0
   40.3090   31.1280   42.1280 C   0  0  0  0  0  0  0  0  0  0  0  0
   40.2690   29.8100   42.5290 C   0  0  0  0  0  0  0  0  0  0  0  0
   39.2910   28.8970   42.1580 C   0  0  0  0  0  0  0  0  0  0  0  0
   38.3140   29.3710   41.3370 N   0  0  0  0  0  0  0  0  0  0  0  0
   39.1850   32.5910   40.8850 H   0  0  0  0  0  0  0  0  0  0  0  0
   41.0560   31.8410   42.4070 H   0  0  0  0  0  0  0  0  0  0  0  0
   41.0920   29.5260   43.1840 H   0  0  0  0  0  0  0  0  0  0  0  0
   39.3500   27.5250   42.6420 C   0  0  0  0  0  0  0  0  0  0  0  0
   40.0150   27.2880   43.6800 O   0  0  0  0  0  0  0  0  0  0  0  0
   36.5180   27.2220   43.3480 Cl  0  0  0  0  0  0  0  0  0  0  0  0
   37.4390   25.9990   42.4570 C   0  0  0  0  0  0  0  0  0  0  0  0
   38.7890   26.2640   42.1860 C   0  0  0  0  0  0  0  0  0  0  0  0
   39.4260   25.2810   41.5000 C   0  0  0  0  0  0  0  0  0  0  0  0
   40.4490   25.4320   41.2570 H   0  0  0  0  0  0  0  0  0  0  0  0
   38.8650   24.0970   41.0740 C   0  0  0  0  0  0  0  0  0  0  0  0
   39.4350   23.3610   40.5320 H   0  0  0  0  0  0  0  0  0  0  0  0
   37.5350   23.8920   41.3700 C   0  0  0  0  0  3  0  0  0  0  0  0
   36.7920   24.8260   42.0610 C   0  0  0  0  0  3  0  0  0  0  0  0
  1  7  1  6  0  0  0
  1  6  1  0  0  0  0
  2  1  1  0  0  0  0
  2  3  1  0  0  0  0
  2  8  1  0  0  0  0
  3  4  1  0  0  0  0
  4 13  1  0  0  0  0
  4  5  1  0  0  0  0
  4 12  1  0  0  0  0
  5 15  1  0  0  0  0
  6 16  1  6  0  0  0
  6  5  1  0  0  0  0
  6 26  1  0  0  0  0
  9  2  1  0  0  0  0
 10  3  1  0  0  0  0
 11  3  1  0  0  0  0
 14  5  1  0  0  0  0
 17 18  1  0  0  0  0
 18 19  2  0  0  0  0
 18 24  1  0  0  0  0
 19  1  1  0  0  0  0
 20 19  1  0  0  0  0
 21 20  2  0  0  0  0
 22 21  1  0  0  0  0
 22 17  2  0  0  0  0
 23 17  1  0  0  0  0
 25 21  1  0  0  0  0
 26 27  2  0  0  0  0
 26 31  1  0  0  0  0
 27 28  1  0  0  0  0
 28 33  1  0  0  0  0
 28 29  2  0  0  0  0
 29 34  1  0  0  0  0
 30 29  1  0  0  0  0
 30 35  1  0  0  0  0
 31 30  2  0  0  0  0
 32 27  1  0  0  0  0
 35 36  2  0  0  0  0
 38 37  1  0  0  0  0
 39 38  1  0  0  0  0
 39 35  1  0  0  0  0
 40 39  2  0  0  0  0
 41 40  1  0  0  0  0
 42 44  2  0  0  0  0
 42 40  1  0  0  0  0
 43 42  1  0  0  0  0
 44 45  1  0  0  0  0
 45 38  2  0  0  0  0
M  END
>  <minimizedAffinity>
-6.54330444

$$$$

 OpenBabel03242516553D

 45 48  0  0  1  0  0  0  0  0999 V2000
   36.4940   30.7540   38.9870 C   0  0  1  0  0  0  0  0  0  0  0  0
   36.6580   29.8270   37.8640 C   0  0  0  0  0  0  0  0  0  0  0  0
   35.2550   29.4020   37.4370 C   0  0  0  0  0  0  0  0  0  0  0  0
   34.7130   28.5270   38.5500 C   0  0  0  0  0  0  0  0  0  0  0  0
   34.7660   29.1610   39.9110 C   0  0  0  0  0  0  0  0  0  0  0  0
   35.8850   30.0600   40.2090 C   0  0  1  0  0  0  0  0  0  0  0  0
   35.6910   31.5060   38.7130 H   0  0  0  0  0  0  0  0  0  0  0  0
   37.2350   28.9320   38.0940 H   0  0  0  0  0  0  0  0  0  0  0  0
   37.1010   30.3970   37.0050 H   0  0  0  0  0  0  0  0  0  0  0  0
   35.3460   28.7240   36.5520 H   0  0  0  0  0  0  0  0  0  0  0  0
   34.6140   30.2740   37.2410 H   0  0  0  0  0  0  0  0  0  0  0  0
   35.2820   27.5670   38.5060 H   0  0  0  0  0  0  0  0  0  0  0  0
   33.6590   28.2660   38.3040 H   0  0  0  0  0  0  0  0  0  0  0  0
   33.7750   29.6530   40.0810 H   0  0  0  0  0  0  0  0  0  0  0  0
   34.7850   28.3160   40.6520 H   0  0  0  0  0  0  0  0  0  0  0  0
   35.4940   30.9150   40.8420 H   0  0  0  0  0  0  0  0  0  0  0  0
   38.6240   33.5330   40.4210 C   0  0  0  0  0  0  0  0  0  0  0  0
   37.5390   32.7470   40.0120 C   0  0  0  0  0  0  0  0  0  0  0  0
   37.6660   31.5040   39.3850 C   0  0  0  0  0  0  0  0  0  0  0  0
   38.9190   31.0800   39.1830 N   0  0  0  0  0  0  0  0  0  0  0  0
   39.9860   31.8290   39.5720 C   0  0  0  0  0  0  0  0  0  0  0  0
   39.8540   33.0150   40.1710 N   0  0  0  0  0  0  0  0  0  0  0  0
   38.4410   34.4690   40.8920 H   0  0  0  0  0  0  0  0  0  0  0  0
   36.5370   33.1210   40.1920 H   0  0  0  0  0  0  0  0  0  0  0  0
   40.9920   31.4380   39.3840 H   0  0  0  0  0  0  0  0  0  0  0  0
   36.9110   29.4350   41.0430 C   0  0  0  0  0  0  0  0  0  0  0  0
   37.4640   29.9640   42.2080 C   0  0  0  0  0  0  0  0  0  0  0  0
   38.4190   29.1740   42.8470 C   0  0  0  0  0  0  0  0  0  0  0  0
   38.7380   27.9550   42.2890 C   0  0  0  0  0  0  0  0  0  0  0  0
   38.1770   27.4430   41.1270 C   0  0  0  0  0  0  0  0  0  0  0  0
   37.2460   28.2280   40.5180 N   0  0  0  0  0  0  0  0  0  0  0  0
   37.1040   30.9370   42.5120 H   0  0  0  0  0  0  0  0  0  0  0  0
   38.8430   29.5790   43.7410 H   0  0  0  0  0  0  0  0  0  0  0  0
   39.4900   27.4000   42.8490 H   0  0  0  0  0  0  0  0  0  0  0  0
   38.5910   26.1400   40.6270 C   0  0  0  0  0  0  0  0  0  0  0  0
   39.7540   25.7450   40.8850 O   0  0  0  0  0  0  0  0  0  0  0  0
   36.7380   24.5050   42.2080 Cl  0  0  0  0  0  0  0  0  0  0  0  0
   37.0290   24.2540   40.4790 C   0  0  0  0  0  0  0  0  0  0  0  0
   37.9440   25.1030   39.8390 C   0  0  0  0  0  0  0  0  0  0  0  0
   38.1130   24.8490   38.5170 C   0  0  0  0  0  0  0  0  0  0  0  0
   38.7870   25.4680   37.9770 H   0  0  0  0  0  0  0  0  0  0  0  0
   37.4790   23.8620   37.7940 C   0  0  0  0  0  0  0  0  0  0  0  0
   37.6640   23.7190   36.7420 H   0  0  0  0  0  0  0  0  0  0  0  0
   36.5920   23.0590   38.4770 C   0  0  0  0  0  3  0  0  0  0  0  0
   36.3430   23.2300   39.8220 C   0  0  0  0  0  3  0  0  0  0  0  0
  1  7  1  6  0  0  0
  1 19  1  0  0  0  0
  1  6  1  0  0  0  0
  2  8  1  0  0  0  0
  2  1  1  0  0  0  0
  3  2  1  0  0  0  0
  3  4  1  0  0  0  0
  4  5  1  0  0  0  0
  5 14  1  0  0  0  0
  5  6  1  0  0  0  0
  5 15  1  0  0  0  0
  6 16  1  1  0  0  0
  6 26  1  0  0  0  0
  9  2  1  0  0  0  0
 10  3  1  0  0  0  0
 11  3  1  0  0  0  0
 12  4  1  0  0  0  0
 13  4  1  0  0  0  0
 17 23  1  0  0  0  0
 18 24  1  0  0  0  0
 18 17  2  0  0  0  0
 19 18  1  0  0  0  0
 20 19  2  0  0  0  0
 20 21  1  0  0  0  0
 21 22  2  0  0  0  0
 22 17  1  0  0  0  0
 25 21  1  0  0  0  0
 26 27  1  0  0  0  0
 27 32  1  0  0  0  0
 27 28  2  0  0  0  0
 28 33  1  0  0  0  0
 29 28  1  0  0  0  0
 29 34  1  0  0  0  0
 30 29  2  0  0  0  0
 31 26  2  0  0  0  0
 31 30  1  0  0  0  0
 35 36  2  0  0  0  0
 35 30  1  0  0  0  0
 38 37  1  0  0  0  0
 39 38  1  0  0  0  0
 39 35  1  0  0  0  0
 40 39  2  0  0  0  0
 41 40  1  0  0  0  0
 42 44  2  0  0  0  0
 42 40  1  0  0  0  0
 43 42  1  0  0  0  0
 44 45  1  0  0  0  0
 45 38  2  0  0  0  0
M  END
>  <minimizedAffinity>
-6.16145039

$$$$

 OpenBabel03242516553D

 45 48  0  0  1  0  0  0  0  0999 V2000
   38.2990   25.7240   42.0970 C   0  0  1  0  0  0  0  0  0  0  0  0
   39.3570   26.6960   42.3820 C   0  0  0  0  0  0  0  0  0  0  0  0
   38.9480   27.4290   43.6570 C   0  0  0  0  0  0  0  0  0  0  0  0
   37.7550   28.2920   43.2950 C   0  0  0  0  0  0  0  0  0  0  0  0
   36.6300   27.5410   42.6400 C   0  0  0  0  0  0  0  0  0  0  0  0
   36.9710   26.4140   41.7660 C   0  0  1  0  0  0  0  0  0  0  0  0
   38.0520   25.1750   43.0560 H   0  0  0  0  0  0  0  0  0  0  0  0
   39.5210   27.4350   41.5970 H   0  0  0  0  0  0  0  0  0  0  0  0
   40.2960   26.1290   42.6190 H   0  0  0  0  0  0  0  0  0  0  0  0
   39.7590   28.1520   43.9240 H   0  0  0  0  0  0  0  0  0  0  0  0
   38.7220   26.7230   44.4700 H   0  0  0  0  0  0  0  0  0  0  0  0
   38.1430   29.1190   42.6530 H   0  0  0  0  0  0  0  0  0  0  0  0
   37.3830   28.7780   44.2250 H   0  0  0  0  0  0  0  0  0  0  0  0
   35.9210   27.2430   43.4530 H   0  0  0  0  0  0  0  0  0  0  0  0
   36.0570   28.2940   42.0350 H   0  0  0  0  0  0  0  0  0  0  0  0
   36.1970   25.6000   41.9180 H   0  0  0  0  0  0  0  0  0  0  0  0
   38.1700   22.4690   40.1720 C   0  0  0  0  0  0  0  0  0  0  0  0
   37.9370   23.4880   41.1050 C   0  0  0  0  0  0  0  0  0  0  0  0
   38.5920   24.7230   41.0930 C   0  0  0  0  0  0  0  0  0  0  0  0
   39.4870   24.8970   40.1140 N   0  0  0  0  0  0  0  0  0  0  0  0
   39.7280   23.9200   39.1990 C   0  0  0  0  0  0  0  0  0  0  0  0
   39.0970   22.7430   39.2190 N   0  0  0  0  0  0  0  0  0  0  0  0
   37.6290   21.5560   40.2510 H   0  0  0  0  0  0  0  0  0  0  0  0
   37.2040   23.3130   41.8850 H   0  0  0  0  0  0  0  0  0  0  0  0
   40.4720   24.1110   38.4170 H   0  0  0  0  0  0  0  0  0  0  0  0
   36.8720   26.7440   40.3450 C   0  0  0  0  0  0  0  0  0  0  0  0
   36.2490   25.9810   39.3610 C   0  0  0  0  0  0  0  0  0  0  0  0
   36.2650   26.5100   38.0710 C   0  0  0  0  0  0  0  0  0  0  0  0
   36.8850   27.7250   37.8720 C   0  0  0  0  0  0  0  0  0  0  0  0
   37.5020   28.4730   38.8650 C   0  0  0  0  0  0  0  0  0  0  0  0
   37.4750   27.9400   40.1170 N   0  0  0  0  0  0  0  0  0  0  0  0
   35.8090   25.0470   39.6830 H   0  0  0  0  0  0  0  0  0  0  0  0
   35.7860   25.9240   37.3160 H   0  0  0  0  0  0  0  0  0  0  0  0
   36.8530   28.0690   36.8380 H   0  0  0  0  0  0  0  0  0  0  0  0
   38.1280   29.7470   38.5390 C   0  0  0  0  0  0  0  0  0  0  0  0
   38.8830   29.8000   37.5370 O   0  0  0  0  0  0  0  0  0  0  0  0
   40.1250   30.0880   40.6610 Cl  0  0  0  0  0  0  0  0  0  0  0  0
   39.0080   31.3670   40.1570 C   0  0  0  0  0  0  0  0  0  0  0  0
   38.0980   31.0740   39.1320 C   0  0  0  0  0  0  0  0  0  0  0  0
   37.2770   32.1030   38.8010 C   0  0  0  0  0  0  0  0  0  0  0  0
   36.5730   31.9430   38.0220 H   0  0  0  0  0  0  0  0  0  0  0  0
   37.2760   33.3550   39.3760 C   0  0  0  0  0  0  0  0  0  0  0  0
   36.5920   34.1250   39.0600 H   0  0  0  0  0  0  0  0  0  0  0  0
   38.1930   33.5830   40.3790 C   0  0  0  0  0  3  0  0  0  0  0  0
   39.0760   32.6090   40.7930 C   0  0  0  0  0  3  0  0  0  0  0  0
  1  2  1  0  0  0  0
  1  7  1  1  0  0  0
  2  9  1  0  0  0  0
  2  3  1  0  0  0  0
  3 10  1  0  0  0  0
  3 11  1  0  0  0  0
  4  3  1  0  0  0  0
  4 13  1  0  0  0  0
  5  4  1  0  0  0  0
  5 14  1  0  0  0  0
  6 16  1  1  0  0  0
  6  1  1  0  0  0  0
  6  5  1  0  0  0  0
  8  2  1  0  0  0  0
 12  4  1  0  0  0  0
 15  5  1  0  0  0  0
 17 23  1  0  0  0  0
 17 18  1  0  0  0  0
 18 24  1  0  0  0  0
 19 18  2  0  0  0  0
 19  1  1  0  0  0  0
 20 19  1  0  0  0  0
 21 22  1  0  0  0  0
 21 20  2  0  0  0  0
 22 17  2  0  0  0  0
 25 21  1  0  0  0  0
 26  6  1  0  0  0  0
 27 32  1  0  0  0  0
 27 26  2  0  0  0  0
 28 27  1  0  0  0  0
 29 28  2  0  0  0  0
 29 30  1  0  0  0  0
 30 31  2  0  0  0  0
 31 26  1  0  0  0  0
 33 28  1  0  0  0  0
 34 29  1  0  0  0  0
 35 30  1  0  0  0  0
 35 39  1  0  0  0  0
 36 35  2  0  0  0  0
 38 37  1  0  0  0  0
 38 45  1  0  0  0  0
 39 38  2  0  0  0  0
 40 39  1  0  0  0  0
 40 42  2  0  0  0  0
 41 40  1  0  0  0  0
 42 44  1  0  0  0  0
 43 42  1  0  0  0  0
 44 45  2  0  0  0  0
M  END
>  <minimizedAffinity>
-6.13947105

$$$$

 OpenBabel03242516553D

 45 48  0  0  1  0  0  0  0  0999 V2000
   39.6320   24.8700   41.5550 C   0  0  1  0  0  0  0  0  0  0  0  0
   40.7590   25.4830   40.8480 C   0  0  0  0  0  0  0  0  0  0  0  0
   41.9710   25.3630   41.7680 C   0  0  0  0  0  0  0  0  0  0  0  0
   41.7240   26.3010   42.9330 C   0  0  0  0  0  0  0  0  0  0  0  0
   40.4110   26.0820   43.6300 C   0  0  0  0  0  0  0  0  0  0  0  0
   39.2660   25.6500   42.8220 C   0  0  1  0  0  0  0  0  0  0  0  0
   39.9740   23.8750   41.9760 H   0  0  0  0  0  0  0  0  0  0  0  0
   40.6200   26.5340   40.5960 H   0  0  0  0  0  0  0  0  0  0  0  0
   40.9770   24.8640   39.9380 H   0  0  0  0  0  0  0  0  0  0  0  0
   42.8600   25.7870   41.2370 H   0  0  0  0  0  0  0  0  0  0  0  0
   42.1260   24.3230   42.0930 H   0  0  0  0  0  0  0  0  0  0  0  0
   41.8240   27.3390   42.5330 H   0  0  0  0  0  0  0  0  0  0  0  0
   42.5550   26.1750   43.6620 H   0  0  0  0  0  0  0  0  0  0  0  0
   40.6070   25.3860   44.4850 H   0  0  0  0  0  0  0  0  0  0  0  0
   40.1470   27.0570   44.1210 H   0  0  0  0  0  0  0  0  0  0  0  0
   38.6590   24.9120   43.4310 H   0  0  0  0  0  0  0  0  0  0  0  0
   37.1550   24.9900   38.6970 C   0  0  0  0  0  0  0  0  0  0  0  0
   38.2810   25.1830   39.5070 C   0  0  0  0  0  0  0  0  0  0  0  0
   38.4380   24.6170   40.7760 C   0  0  0  0  0  0  0  0  0  0  0  0
   37.4250   23.8540   41.2020 N   0  0  0  0  0  0  0  0  0  0  0  0
   36.3220   23.6550   40.4310 C   0  0  0  0  0  0  0  0  0  0  0  0
   36.1820   24.1990   39.2190 N   0  0  0  0  0  0  0  0  0  0  0  0
   37.1130   25.4570   37.7430 H   0  0  0  0  0  0  0  0  0  0  0  0
   39.0840   25.8070   39.1310 H   0  0  0  0  0  0  0  0  0  0  0  0
   35.5190   23.0210   40.8240 H   0  0  0  0  0  0  0  0  0  0  0  0
   38.3280   26.7360   42.5360 C   0  0  0  0  0  0  0  0  0  0  0  0
   37.0060   26.8200   42.9670 C   0  0  0  0  0  0  0  0  0  0  0  0
   36.3080   27.9650   42.5840 C   0  0  0  0  0  0  0  0  0  0  0  0
   36.9660   28.9070   41.8230 C   0  0  0  0  0  0  0  0  0  0  0  0
   38.2850   28.8080   41.4030 C   0  0  0  0  0  0  0  0  0  0  0  0
   38.9500   27.6830   41.7870 N   0  0  0  0  0  0  0  0  0  0  0  0
   36.6390   25.9930   43.5580 H   0  0  0  0  0  0  0  0  0  0  0  0
   35.2930   28.0300   42.9140 H   0  0  0  0  0  0  0  0  0  0  0  0
   36.3520   29.7710   41.5680 H   0  0  0  0  0  0  0  0  0  0  0  0
   38.8800   29.8670   40.6000 C   0  0  0  0  0  0  0  0  0  0  0  0
   39.8810   29.5890   39.8960 O   0  0  0  0  0  0  0  0  0  0  0  0
   36.8580   30.3070   38.5190 Cl  0  0  0  0  0  0  0  0  0  0  0  0
   37.6250   31.6190   39.4290 C   0  0  0  0  0  0  0  0  0  0  0  0
   38.5810   31.2750   40.3950 C   0  0  0  0  0  0  0  0  0  0  0  0
   39.1220   32.3330   41.0510 C   0  0  0  0  0  0  0  0  0  0  0  0
   39.8440   32.1310   41.8030 H   0  0  0  0  0  0  0  0  0  0  0  0
   38.8130   33.6590   40.8410 C   0  0  0  0  0  0  0  0  0  0  0  0
   39.2850   34.4490   41.4010 H   0  0  0  0  0  0  0  0  0  0  0  0
   37.8660   33.9360   39.8770 C   0  0  0  0  0  3  0  0  0  0  0  0
   37.2520   32.9370   39.1530 C   0  0  0  0  0  3  0  0  0  0  0  0
  1  7  1  1  0  0  0
  1  6  1  0  0  0  0
  2  1  1  0  0  0  0
  2  3  1  0  0  0  0
  3 11  1  0  0  0  0
  3  4  1  0  0  0  0
  4  5  1  0  0  0  0
  4 13  1  0  0  0  0
  5 15  1  0  0  0  0
  5 14  1  0  0  0  0
  6 16  1  1  0  0  0
  6  5  1  0  0  0  0
  8  2  1  0  0  0  0
  9  2  1  0  0  0  0
 10  3  1  0  0  0  0
 12  4  1  0  0  0  0
 17 22  2  0  0  0  0
 17 18  1  0  0  0  0
 18 19  2  0  0  0  0
 19 20  1  0  0  0  0
 19  1  1  0  0  0  0
 21 25  1  0  0  0  0
 21 20  2  0  0  0  0
 22 21  1  0  0  0  0
 23 17  1  0  0  0  0
 24 18  1  0  0  0  0
 26  6  1  0  0  0  0
 26 27  1  0  0  0  0
 27 32  1  0  0  0  0
 28 33  1  0  0  0  0
 28 27  2  0  0  0  0
 29 28  1  0  0  0  0
 30 31  1  0  0  0  0
 30 29  2  0  0  0  0
 31 26  2  0  0  0  0
 34 29  1  0  0  0  0
 35 30  1  0  0  0  0
 36 35  2  0  0  0  0
 37 38  1  0  0  0  0
 38 39  1  0  0  0  0
 39 35  1  0  0  0  0
 39 40  2  0  0  0  0
 40 41  1  0  0  0  0
 42 40  1  0  0  0  0
 42 43  1  0  0  0  0
 44 42  2  0  0  0  0
 45 38  2  0  0  0  0
 45 44  1  0  0  0  0
M  END
>  <minimizedAffinity>
-6.08499002

$$$$

 OpenBabel03242516553D

 45 48  0  0  1  0  0  0  0  0999 V2000
   37.6780   31.6220   39.3840 C   0  0  1  0  0  0  0  0  0  0  0  0
   37.3650   32.7390   40.2790 C   0  0  0  0  0  0  0  0  0  0  0  0
   38.4290   33.8070   40.0370 C   0  0  0  0  0  0  0  0  0  0  0  0
   39.7280   33.2550   40.5910 C   0  0  0  0  0  0  0  0  0  0  0  0
   40.0970   31.9000   40.0580 C   0  0  0  0  0  0  0  0  0  0  0  0
   39.0130   30.9630   39.7490 C   0  0  1  0  0  0  0  0  0  0  0  0
   37.8910   32.0400   38.3530 H   0  0  0  0  0  0  0  0  0  0  0  0
   37.3640   32.4870   41.3390 H   0  0  0  0  0  0  0  0  0  0  0  0
   36.3840   33.1770   39.9570 H   0  0  0  0  0  0  0  0  0  0  0  0
   38.1920   34.6920   40.6780 H   0  0  0  0  0  0  0  0  0  0  0  0
   38.5050   34.0620   38.9690 H   0  0  0  0  0  0  0  0  0  0  0  0
   39.6260   33.2610   41.7030 H   0  0  0  0  0  0  0  0  0  0  0  0
   40.5400   33.9800   40.3570 H   0  0  0  0  0  0  0  0  0  0  0  0
   40.7710   32.0680   39.1800 H   0  0  0  0  0  0  0  0  0  0  0  0
   40.7620   31.4280   40.8300 H   0  0  0  0  0  0  0  0  0  0  0  0
   39.2970   30.3870   38.8150 H   0  0  0  0  0  0  0  0  0  0  0  0
   35.5350   28.9380   37.7980 C   0  0  0  0  0  0  0  0  0  0  0  0
   36.5010   29.9270   38.0210 C   0  0  0  0  0  0  0  0  0  0  0  0
   36.6580   30.6060   39.2340 C   0  0  0  0  0  0  0  0  0  0  0  0
   35.8130   30.2570   40.2100 N   0  0  0  0  0  0  0  0  0  0  0  0
   34.8670   29.2990   40.0120 C   0  0  0  0  0  0  0  0  0  0  0  0
   34.7240   28.6560   38.8500 N   0  0  0  0  0  0  0  0  0  0  0  0
   35.4800   28.4690   36.8440 H   0  0  0  0  0  0  0  0  0  0  0  0
   37.1700   30.1860   37.2090 H   0  0  0  0  0  0  0  0  0  0  0  0
   34.1970   29.0490   40.8430 H   0  0  0  0  0  0  0  0  0  0  0  0
   38.8450   29.9290   40.7700 C   0  0  0  0  0  0  0  0  0  0  0  0
   38.7480   30.1340   42.1450 C   0  0  0  0  0  0  0  0  0  0  0  0
   38.5720   28.9920   42.9240 C   0  0  0  0  0  0  0  0  0  0  0  0
   38.5100   27.7710   42.2890 C   0  0  0  0  0  0  0  0  0  0  0  0
   38.6090   27.5840   40.9170 C   0  0  0  0  0  0  0  0  0  0  0  0
   38.7800   28.7110   40.1730 N   0  0  0  0  0  0  0  0  0  0  0  0
   38.8170   31.1590   42.4840 H   0  0  0  0  0  0  0  0  0  0  0  0
   38.4970   29.1490   43.9800 H   0  0  0  0  0  0  0  0  0  0  0  0
   38.3710   26.9300   42.9680 H   0  0  0  0  0  0  0  0  0  0  0  0
   38.5310   26.2440   40.3530 C   0  0  0  0  0  0  0  0  0  0  0  0
   39.5760   25.5490   40.3240 O   0  0  0  0  0  0  0  0  0  0  0  0
   37.3610   24.3390   42.2540 Cl  0  0  0  0  0  0  0  0  0  0  0  0
   36.8170   24.5030   40.5770 C   0  0  0  0  0  0  0  0  0  0  0  0
   37.4630   25.4500   39.7680 C   0  0  0  0  0  0  0  0  0  0  0  0
   36.9900   25.5180   38.4980 C   0  0  0  0  0  0  0  0  0  0  0  0
   37.4340   26.2250   37.8420 H   0  0  0  0  0  0  0  0  0  0  0  0
   35.9690   24.7560   37.9730 C   0  0  0  0  0  0  0  0  0  0  0  0
   35.6460   24.8650   36.9500 H   0  0  0  0  0  0  0  0  0  0  0  0
   35.3730   23.8420   38.8150 C   0  0  0  0  0  3  0  0  0  0  0  0
   35.7730   23.6920   40.1250 C   0  0  0  0  0  3  0  0  0  0  0  0
  1  7  1  6  0  0  0
  1  6  1  0  0  0  0
  1  2  1  0  0  0  0
  2  8  1  0  0  0  0
  3  2  1  0  0  0  0
  3  4  1  0  0  0  0
  3 10  1  0  0  0  0
  4 12  1  0  0  0  0
  5  4  1  0  0  0  0
  5 15  1  0  0  0  0
  6 16  1  6  0  0  0
  6  5  1  0  0  0  0
  6 26  1  0  0  0  0
  9  2  1  0  0  0  0
 11  3  1  0  0  0  0
 13  4  1  0  0  0  0
 14  5  1  0  0  0  0
 17 18  2  0  0  0  0
 17 22  1  0  0  0  0
 18 19  1  0  0  0  0
 19  1  1  0  0  0  0
 19 20  2  0  0  0  0
 21 20  1  0  0  0  0
 21 25  1  0  0  0  0
 22 21  2  0  0  0  0
 23 17  1  0  0  0  0
 24 18  1  0  0  0  0
 26 27  1  0  0  0  0
 27 32  1  0  0  0  0
 27 28  2  0  0  0  0
 28 33  1  0  0  0  0
 29 28  1  0  0  0  0
 29 34  1  0  0  0  0
 30 29  2  0  0  0  0
 31 26  2  0  0  0  0
 31 30  1  0  0  0  0
 35 30  1  0  0  0  0
 36 35  2  0  0  0  0
 38 37  1  0  0  0  0
 39 35  1  0  0  0  0
 39 38  2  0  0  0  0
 40 39  1  0  0  0  0
 41 40  1  0  0  0  0
 42 40  2  0  0  0  0
 42 44  1  0  0  0  0
 43 42  1  0  0  0  0
 44 45  2  0  0  0  0
 45 38  1  0  0  0  0
M  END
>  <minimizedAffinity>
-6.01041365

$$$$

 OpenBabel03242516553D

 45 48  0  0  1  0  0  0  0  0999 V2000
   36.6420   30.4730   39.2790 C   0  0  1  0  0  0  0  0  0  0  0  0
   36.7460   29.5810   38.1220 C   0  0  0  0  0  0  0  0  0  0  0  0
   35.3420   29.4580   37.5350 C   0  0  0  0  0  0  0  0  0  0  0  0
   34.5260   28.6590   38.5330 C   0  0  0  0  0  0  0  0  0  0  0  0
   34.5530   29.2110   39.9300 C   0  0  0  0  0  0  0  0  0  0  0  0
   35.7850   29.8600   40.3910 C   0  0  1  0  0  0  0  0  0  0  0  0
   36.0320   31.3790   38.9770 H   0  0  0  0  0  0  0  0  0  0  0  0
   37.1140   28.5810   38.3490 H   0  0  0  0  0  0  0  0  0  0  0  0
   37.3790   30.0890   37.3470 H   0  0  0  0  0  0  0  0  0  0  0  0
   35.3960   28.8130   36.6230 H   0  0  0  0  0  0  0  0  0  0  0  0
   34.9030   30.4470   37.3330 H   0  0  0  0  0  0  0  0  0  0  0  0
   34.9030   27.6090   38.4850 H   0  0  0  0  0  0  0  0  0  0  0  0
   33.4740   28.6210   38.1710 H   0  0  0  0  0  0  0  0  0  0  0  0
   33.6620   29.8810   40.0340 H   0  0  0  0  0  0  0  0  0  0  0  0
   34.3320   28.3490   40.6150 H   0  0  0  0  0  0  0  0  0  0  0  0
   35.4990   30.7470   41.0360 H   0  0  0  0  0  0  0  0  0  0  0  0
   40.3270   30.6870   40.1110 C   0  0  0  0  0  0  0  0  0  0  0  0
   39.0860   30.2810   39.6030 C   0  0  0  0  0  0  0  0  0  0  0  0
   37.8870   30.9610   39.8350 C   0  0  0  0  0  0  0  0  0  0  0  0
   37.9770   32.0590   40.5940 N   0  0  0  0  0  0  0  0  0  0  0  0
   39.1720   32.4690   41.0970 C   0  0  0  0  0  0  0  0  0  0  0  0
   40.3130   31.8130   40.8700 N   0  0  0  0  0  0  0  0  0  0  0  0
   41.1940   30.1130   39.8890 H   0  0  0  0  0  0  0  0  0  0  0  0
   39.0490   29.3870   38.9920 H   0  0  0  0  0  0  0  0  0  0  0  0
   39.1940   33.3750   41.7140 H   0  0  0  0  0  0  0  0  0  0  0  0
   36.5770   29.0110   41.2800 C   0  0  0  0  0  0  0  0  0  0  0  0
   37.1500   29.3910   42.4920 C   0  0  0  0  0  0  0  0  0  0  0  0
   37.8500   28.3990   43.1770 C   0  0  0  0  0  0  0  0  0  0  0  0
   37.9220   27.1430   42.6140 C   0  0  0  0  0  0  0  0  0  0  0  0
   37.3460   26.7810   41.4050 C   0  0  0  0  0  0  0  0  0  0  0  0
   36.6660   27.7630   40.7510 N   0  0  0  0  0  0  0  0  0  0  0  0
   37.0010   30.4190   42.7930 H   0  0  0  0  0  0  0  0  0  0  0  0
   38.2890   28.6900   44.1080 H   0  0  0  0  0  0  0  0  0  0  0  0
   38.4850   26.4260   43.2120 H   0  0  0  0  0  0  0  0  0  0  0  0
   37.4870   25.4210   40.9040 C   0  0  0  0  0  0  0  0  0  0  0  0
   38.4250   24.7170   41.3510 O   0  0  0  0  0  0  0  0  0  0  0  0
   38.2530   25.9990   38.1310 Cl  0  0  0  0  0  0  0  0  0  0  0  0
   37.0360   24.7920   38.5770 C   0  0  0  0  0  0  0  0  0  0  0  0
   36.7580   24.6140   39.9390 C   0  0  0  0  0  0  0  0  0  0  0  0
   35.8170   23.6720   40.2010 C   0  0  0  0  0  0  0  0  0  0  0  0
   35.5730   23.4860   41.2180 H   0  0  0  0  0  0  0  0  0  0  0  0
   35.1470   22.9160   39.2640 C   0  0  0  0  0  0  0  0  0  0  0  0
   34.4080   22.1830   39.5470 H   0  0  0  0  0  0  0  0  0  0  0  0
   35.4620   23.1350   37.9410 C   0  0  0  0  0  3  0  0  0  0  0  0
   36.4050   24.0670   37.5630 C   0  0  0  0  0  3  0  0  0  0  0  0
  1  7  1  6  0  0  0
  1 19  1  0  0  0  0
  1  6  1  0  0  0  0
  2  8  1  0  0  0  0
  2  1  1  0  0  0  0
  3  2  1  0  0  0  0
  3  4  1  0  0  0  0
  4  5  1  0  0  0  0
  5 14  1  0  0  0  0
  5  6  1  0  0  0  0
  5 15  1  0  0  0  0
  6 16  1  1  0  0  0
  6 26  1  0  0  0  0
  9  2  1  0  0  0  0
 10  3  1  0  0  0  0
 11  3  1  0  0  0  0
 12  4  1  0  0  0  0
 13  4  1  0  0  0  0
 17 22  1  0  0  0  0
 18 19  1  0  0  0  0
 18 17  2  0  0  0  0
 19 20  2  0  0  0  0
 20 21  1  0  0  0  0
 21 25  1  0  0  0  0
 22 21  2  0  0  0  0
 23 17  1  0  0  0  0
 24 18  1  0  0  0  0
 26 27  1  0  0  0  0
 27 32  1  0  0  0  0
 27 28  2  0  0  0  0
 28 33  1  0  0  0  0
 29 28  1  0  0  0  0
 29 34  1  0  0  0  0
 30 29  2  0  0  0  0
 31 26  2  0  0  0  0
 31 30  1  0  0  0  0
 35 36  2  0  0  0  0
 35 30  1  0  0  0  0
 37 38  1  0  0  0  0
 38 39  1  0  0  0  0
 39 40  2  0  0  0  0
 39 35  1  0  0  0  0
 40 41  1  0  0  0  0
 42 43  1  0  0  0  0
 42 40  1  0  0  0  0
 44 42  2  0  0  0  0
 45 44  1  0  0  0  0
 45 38  2  0  0  0  0
M  END
>  <minimizedAffinity>
-6.00968027

$$$$

 OpenBabel03242516553D

 45 48  0  0  1  0  0  0  0  0999 V2000
   38.9420   24.8020   40.9450 C   0  0  1  0  0  0  0  0  0  0  0  0
   38.2760   23.7050   41.6520 C   0  0  0  0  0  0  0  0  0  0  0  0
   37.3160   23.0600   40.6550 C   0  0  0  0  0  0  0  0  0  0  0  0
   36.2030   24.0620   40.4170 C   0  0  0  0  0  0  0  0  0  0  0  0
   36.6830   25.4240   40.0020 C   0  0  0  0  0  0  0  0  0  0  0  0
   37.9530   25.9050   40.5530 C   0  0  1  0  0  0  0  0  0  0  0  0
   39.2860   24.4190   39.9360 H   0  0  0  0  0  0  0  0  0  0  0  0
   37.7080   24.0080   42.5310 H   0  0  0  0  0  0  0  0  0  0  0  0
   39.0500   22.9340   41.9050 H   0  0  0  0  0  0  0  0  0  0  0  0
   36.8210   22.1900   41.1550 H   0  0  0  0  0  0  0  0  0  0  0  0
   37.8330   22.7790   39.7250 H   0  0  0  0  0  0  0  0  0  0  0  0
   35.5970   24.0930   41.3540 H   0  0  0  0  0  0  0  0  0  0  0  0
   35.5290   23.6520   39.6320 H   0  0  0  0  0  0  0  0  0  0  0  0
   36.6760   25.4450   38.8830 H   0  0  0  0  0  0  0  0  0  0  0  0
   35.8740   26.1470   40.2970 H   0  0  0  0  0  0  0  0  0  0  0  0
   38.4960   26.4830   39.7430 H   0  0  0  0  0  0  0  0  0  0  0  0
   41.3570   25.8040   43.6800 C   0  0  0  0  0  0  0  0  0  0  0  0
   40.2740   25.2610   42.9780 C   0  0  0  0  0  0  0  0  0  0  0  0
   40.0940   25.3890   41.5970 C   0  0  0  0  0  0  0  0  0  0  0  0
   41.0370   26.0800   40.9490 N   0  0  0  0  0  0  0  0  0  0  0  0
   42.0970   26.6170   41.6120 C   0  0  0  0  0  0  0  0  0  0  0  0
   42.2610   26.4890   42.9320 N   0  0  0  0  0  0  0  0  0  0  0  0
   41.4210   25.6620   44.7320 H   0  0  0  0  0  0  0  0  0  0  0  0
   39.5270   24.7060   43.5340 H   0  0  0  0  0  0  0  0  0  0  0  0
   42.8440   27.1750   41.0370 H   0  0  0  0  0  0  0  0  0  0  0  0
   37.7740   26.8790   41.6300 C   0  0  0  0  0  0  0  0  0  0  0  0
   37.0060   26.7080   42.7800 C   0  0  0  0  0  0  0  0  0  0  0  0
   37.0010   27.7740   43.6780 C   0  0  0  0  0  0  0  0  0  0  0  0
   37.7410   28.8940   43.3680 C   0  0  0  0  0  0  0  0  0  0  0  0
   38.5020   29.0480   42.2170 C   0  0  0  0  0  0  0  0  0  0  0  0
   38.4940   27.9970   41.3520 N   0  0  0  0  0  0  0  0  0  0  0  0
   36.4830   25.7660   42.8730 H   0  0  0  0  0  0  0  0  0  0  0  0
   36.4120   27.6420   44.5610 H   0  0  0  0  0  0  0  0  0  0  0  0
   37.6850   29.6800   44.1210 H   0  0  0  0  0  0  0  0  0  0  0  0
   39.2450   30.2790   41.9900 C   0  0  0  0  0  0  0  0  0  0  0  0
   39.6380   30.9300   42.9890 O   0  0  0  0  0  0  0  0  0  0  0  0
   37.0510   31.7130   40.6720 Cl  0  0  0  0  0  0  0  0  0  0  0  0
   38.7220   31.7320   40.0840 C   0  0  0  0  0  0  0  0  0  0  0  0
   39.6770   31.0000   40.8040 C   0  0  0  0  0  0  0  0  0  0  0  0
   40.9330   31.0640   40.2930 C   0  0  0  0  0  0  0  0  0  0  0  0
   41.7010   30.5390   40.8040 H   0  0  0  0  0  0  0  0  0  0  0  0
   41.3150   31.7640   39.1690 C   0  0  0  0  0  0  0  0  0  0  0  0
   42.3350   31.7680   38.8210 H   0  0  0  0  0  0  0  0  0  0  0  0
   40.3320   32.4630   38.5030 C   0  0  0  0  0  3  0  0  0  0  0  0
   39.0230   32.4680   38.9360 C   0  0  0  0  0  3  0  0  0  0  0  0
  1  7  1  6  0  0  0
  1 19  1  0  0  0  0
  1  2  1  0  0  0  0
  2  9  1  0  0  0  0
  2  8  1  0  0  0  0
  3 10  1  0  0  0  0
  3  2  1  0  0  0  0
  4  3  1  0  0  0  0
  4 12  1  0  0  0  0
  5 15  1  0  0  0  0
  5  4  1  0  0  0  0
  5  6  1  0  0  0  0
  6 16  1  6  0  0  0
  6  1  1  0  0  0  0
  6 26  1  0  0  0  0
 11  3  1  0  0  0  0
 13  4  1  0  0  0  0
 14  5  1  0  0  0  0
 17 23  1  0  0  0  0
 18 24  1  0  0  0  0
 18 17  1  0  0  0  0
 19 18  2  0  0  0  0
 20 19  1  0  0  0  0
 20 21  2  0  0  0  0
 21 22  1  0  0  0  0
 22 17  2  0  0  0  0
 25 21  1  0  0  0  0
 26 27  1  0  0  0  0
 27 32  1  0  0  0  0
 27 28  2  0  0  0  0
 28 33  1  0  0  0  0
 29 28  1  0  0  0  0
 29 34  1  0  0  0  0
 30 29  2  0  0  0  0
 31 26  2  0  0  0  0
 31 30  1  0  0  0  0
 35 30  1  0  0  0  0
 35 36  2  0  0  0  0
 38 37  1  0  0  0  0
 38 39  1  0  0  0  0
 39 35  1  0  0  0  0
 40 39  2  0  0  0  0
 40 41  1  0  0  0  0
 42 40  1  0  0  0  0
 43 42  1  0  0  0  0
 44 45  1  0  0  0  0
 44 42  2  0  0  0  0
 45 38  2  0  0  0  0
M  END
>  <minimizedAffinity>
-5.99798059

$$$$

 OpenBabel03242516553D

 45 48  0  0  1  0  0  0  0  0999 V2000
   36.6460   30.3780   39.2540 C   0  0  1  0  0  0  0  0  0  0  0  0
   36.7350   29.4640   38.1130 C   0  0  0  0  0  0  0  0  0  0  0  0
   35.3320   29.3690   37.5170 C   0  0  0  0  0  0  0  0  0  0  0  0
   34.4870   28.6100   38.5220 C   0  0  0  0  0  0  0  0  0  0  0  0
   34.5180   29.1850   39.9090 C   0  0  0  0  0  0  0  0  0  0  0  0
   35.7630   29.8080   40.3690 C   0  0  1  0  0  0  0  0  0  0  0  0
   36.0630   31.2950   38.9320 H   0  0  0  0  0  0  0  0  0  0  0  0
   37.0730   28.4580   38.3610 H   0  0  0  0  0  0  0  0  0  0  0  0
   37.3880   29.9400   37.3360 H   0  0  0  0  0  0  0  0  0  0  0  0
   35.3760   28.7070   36.6160 H   0  0  0  0  0  0  0  0  0  0  0  0
   34.9230   30.3650   37.2940 H   0  0  0  0  0  0  0  0  0  0  0  0
   34.8360   27.5490   38.4940 H   0  0  0  0  0  0  0  0  0  0  0  0
   33.4380   28.5940   38.1500 H   0  0  0  0  0  0  0  0  0  0  0  0
   33.6450   29.8800   39.9930 H   0  0  0  0  0  0  0  0  0  0  0  0
   34.2670   28.3410   40.6070 H   0  0  0  0  0  0  0  0  0  0  0  0
   35.4960   30.7140   40.9960 H   0  0  0  0  0  0  0  0  0  0  0  0
   39.1430   32.5770   41.0560 C   0  0  0  0  0  0  0  0  0  0  0  0
   37.9690   32.0610   40.4940 C   0  0  0  0  0  0  0  0  0  0  0  0
   37.8990   30.8410   39.8130 C   0  0  0  0  0  0  0  0  0  0  0  0
   39.0470   30.1620   39.7170 N   0  0  0  0  0  0  0  0  0  0  0  0
   40.1980   30.6460   40.2560 C   0  0  0  0  0  0  0  0  0  0  0  0
   40.2550   31.8130   40.9040 N   0  0  0  0  0  0  0  0  0  0  0  0
   39.1120   33.5140   41.5580 H   0  0  0  0  0  0  0  0  0  0  0  0
   37.0560   32.6370   40.5900 H   0  0  0  0  0  0  0  0  0  0  0  0
   41.1130   30.0520   40.1500 H   0  0  0  0  0  0  0  0  0  0  0  0
   36.5250   28.9530   41.2790 C   0  0  0  0  0  0  0  0  0  0  0  0
   37.0980   29.3380   42.4890 C   0  0  0  0  0  0  0  0  0  0  0  0
   37.7650   28.3390   43.1970 C   0  0  0  0  0  0  0  0  0  0  0  0
   37.8070   27.0720   42.6570 C   0  0  0  0  0  0  0  0  0  0  0  0
   37.2300   26.7050   41.4490 C   0  0  0  0  0  0  0  0  0  0  0  0
   36.5830   27.6940   40.7720 N   0  0  0  0  0  0  0  0  0  0  0  0
   36.9740   30.3740   42.7710 H   0  0  0  0  0  0  0  0  0  0  0  0
   38.2040   28.6350   44.1270 H   0  0  0  0  0  0  0  0  0  0  0  0
   38.3450   26.3510   43.2710 H   0  0  0  0  0  0  0  0  0  0  0  0
   37.3380   25.3340   40.9730 C   0  0  0  0  0  0  0  0  0  0  0  0
   36.7070   24.4390   41.5870 O   0  0  0  0  0  0  0  0  0  0  0  0
   35.7630   25.2230   38.4990 Cl  0  0  0  0  0  0  0  0  0  0  0  0
   37.4070   24.5790   38.6400 C   0  0  0  0  0  0  0  0  0  0  0  0
   38.0510   24.6910   39.8810 C   0  0  0  0  0  0  0  0  0  0  0  0
   39.3070   24.1770   39.9090 C   0  0  0  0  0  0  0  0  0  0  0  0
   39.8470   24.2440   40.8210 H   0  0  0  0  0  0  0  0  0  0  0  0
   39.9610   23.5810   38.8530 C   0  0  0  0  0  0  0  0  0  0  0  0
   40.9620   23.1930   38.9510 H   0  0  0  0  0  0  0  0  0  0  0  0
   39.2780   23.4990   37.6590 C   0  0  0  0  0  3  0  0  0  0  0  0
   37.9970   23.9900   37.5190 C   0  0  0  0  0  3  0  0  0  0  0  0
  1  7  1  6  0  0  0
  1 19  1  0  0  0  0
  1  6  1  0  0  0  0
  2  8  1  0  0  0  0
  2  1  1  0  0  0  0
  3  2  1  0  0  0  0
  3  4  1  0  0  0  0
  4  5  1  0  0  0  0
  5 14  1  0  0  0  0
  5  6  1  0  0  0  0
  5 15  1  0  0  0  0
  6 16  1  1  0  0  0
  6 26  1  0  0  0  0
  9  2  1  0  0  0  0
 10  3  1  0  0  0  0
 11  3  1  0  0  0  0
 12  4  1  0  0  0  0
 13  4  1  0  0  0  0
 17 23  1  0  0  0  0
 18 24  1  0  0  0  0
 18 17  2  0  0  0  0
 19 18  1  0  0  0  0
 20 19  2  0  0  0  0
 20 21  1  0  0  0  0
 21 22  2  0  0  0  0
 22 17  1  0  0  0  0
 25 21  1  0  0  0  0
 26 27  1  0  0  0  0
 27 32  1  0  0  0  0
 27 28  2  0  0  0  0
 28 33  1  0  0  0  0
 29 28  1  0  0  0  0
 29 34  1  0  0  0  0
 30 29  2  0  0  0  0
 31 26  2  0  0  0  0
 31 30  1  0  0  0  0
 35 30  1  0  0  0  0
 35 36  2  0  0  0  0
 37 38  1  0  0  0  0
 38 39  1  0  0  0  0
 39 40  2  0  0  0  0
 39 35  1  0  0  0  0
 40 41  1  0  0  0  0
 42 43  1  0  0  0  0
 42 40  1  0  0  0  0
 44 42  2  0  0  0  0
 45 44  1  0  0  0  0
 45 38  2  0  0  0  0
M  END
>  <minimizedAffinity>
-5.94680548

$$$$

 OpenBabel03242516553D

 45 48  0  0  1  0  0  0  0  0999 V2000
   39.9230   29.8260   38.2140 C   0  0  1  0  0  0  0  0  0  0  0  0
   40.4850   28.5620   38.6970 C   0  0  0  0  0  0  0  0  0  0  0  0
   40.3470   27.5560   37.5560 C   0  0  0  0  0  0  0  0  0  0  0  0
   38.8660   27.2620   37.4150 C   0  0  0  0  0  0  0  0  0  0  0  0
   38.0100   28.4860   37.2510 C   0  0  0  0  0  0  0  0  0  0  0  0
   38.4190   29.7110   37.9460 C   0  0  1  0  0  0  0  0  0  0  0  0
   40.3370   30.0270   37.1780 H   0  0  0  0  0  0  0  0  0  0  0  0
   39.9920   28.1520   39.5780 H   0  0  0  0  0  0  0  0  0  0  0  0
   41.5830   28.7120   38.8680 H   0  0  0  0  0  0  0  0  0  0  0  0
   40.8060   26.5890   37.8800 H   0  0  0  0  0  0  0  0  0  0  0  0
   40.7870   27.9450   36.6240 H   0  0  0  0  0  0  0  0  0  0  0  0
   38.5760   26.6580   38.3080 H   0  0  0  0  0  0  0  0  0  0  0  0
   38.7270   26.5930   36.5370 H   0  0  0  0  0  0  0  0  0  0  0  0
   37.8830   28.6500   36.1510 H   0  0  0  0  0  0  0  0  0  0  0  0
   36.9840   28.2040   37.6090 H   0  0  0  0  0  0  0  0  0  0  0  0
   38.1950   30.5940   37.2710 H   0  0  0  0  0  0  0  0  0  0  0  0
   40.8320   31.9660   41.1980 C   0  0  0  0  0  0  0  0  0  0  0  0
   40.5660   30.8780   40.3570 C   0  0  0  0  0  0  0  0  0  0  0  0
   40.1870   31.0010   39.0170 C   0  0  0  0  0  0  0  0  0  0  0  0
   40.0850   32.2510   38.5540 N   0  0  0  0  0  0  0  0  0  0  0  0
   40.3380   33.3210   39.3540 C   0  0  0  0  0  0  0  0  0  0  0  0
   40.7000   33.1940   40.6340 N   0  0  0  0  0  0  0  0  0  0  0  0
   41.1150   31.7880   42.2080 H   0  0  0  0  0  0  0  0  0  0  0  0
   40.6580   29.8780   40.7660 H   0  0  0  0  0  0  0  0  0  0  0  0
   40.2400   34.3260   38.9280 H   0  0  0  0  0  0  0  0  0  0  0  0
   37.6330   29.9720   39.1510 C   0  0  0  0  0  0  0  0  0  0  0  0
   36.9490   31.1470   39.4540 C   0  0  0  0  0  0  0  0  0  0  0  0
   36.2500   31.1570   40.6600 C   0  0  0  0  0  0  0  0  0  0  0  0
   36.2870   30.0250   41.4460 C   0  0  0  0  0  0  0  0  0  0  0  0
   36.9740   28.8620   41.1290 C   0  0  0  0  0  0  0  0  0  0  0  0
   37.6510   28.8710   39.9470 N   0  0  0  0  0  0  0  0  0  0  0  0
   37.0220   31.9460   38.7280 H   0  0  0  0  0  0  0  0  0  0  0  0
   35.7240   32.0590   40.8920 H   0  0  0  0  0  0  0  0  0  0  0  0
   35.7150   30.1140   42.3690 H   0  0  0  0  0  0  0  0  0  0  0  0
   36.9450   27.7240   42.0380 C   0  0  0  0  0  0  0  0  0  0  0  0
   36.1990   27.7860   43.0450 O   0  0  0  0  0  0  0  0  0  0  0  0
   39.5900   27.8610   43.3000 Cl  0  0  0  0  0  0  0  0  0  0  0  0
   38.8920   26.3660   42.6570 C   0  0  0  0  0  0  0  0  0  0  0  0
   37.6190   26.4360   42.0730 C   0  0  0  0  0  0  0  0  0  0  0  0
   37.1510   25.2520   41.6050 C   0  0  0  0  0  0  0  0  0  0  0  0
   36.1860   25.2420   41.1620 H   0  0  0  0  0  0  0  0  0  0  0  0
   37.8100   24.0430   41.6590 C   0  0  0  0  0  0  0  0  0  0  0  0
   37.3750   23.1390   41.2650 H   0  0  0  0  0  0  0  0  0  0  0  0
   39.0590   24.0360   42.2440 C   0  0  0  0  0  3  0  0  0  0  0  0
   39.6280   25.1830   42.7540 C   0  0  0  0  0  3  0  0  0  0  0  0
  1  7  1  6  0  0  0
  1  2  1  0  0  0  0
  1 19  1  0  0  0  0
  2  9  1  0  0  0  0
  2  8  1  0  0  0  0
  3 10  1  0  0  0  0
  3  2  1  0  0  0  0
  4  3  1  0  0  0  0
  4 12  1  0  0  0  0
  5  4  1  0  0  0  0
  5 15  1  0  0  0  0
  5  6  1  0  0  0  0
  6 16  1  6  0  0  0
  6  1  1  0  0  0  0
  6 26  1  0  0  0  0
 11  3  1  0  0  0  0
 13  4  1  0  0  0  0
 14  5  1  0  0  0  0
 17 23  1  0  0  0  0
 18 24  1  0  0  0  0
 18 17  2  0  0  0  0
 19 18  1  0  0  0  0
 20 19  2  0  0  0  0
 20 21  1  0  0  0  0
 21 22  2  0  0  0  0
 22 17  1  0  0  0  0
 25 21  1  0  0  0  0
 26 27  2  0  0  0  0
 26 31  1  0  0  0  0
 27 28  1  0  0  0  0
 28 33  1  0  0  0  0
 28 29  2  0  0  0  0
 29 34  1  0  0  0  0
 30 29  1  0  0  0  0
 30 35  1  0  0  0  0
 31 30  2  0  0  0  0
 32 27  1  0  0  0  0
 35 39  1  0  0  0  0
 35 36  2  0  0  0  0
 38 45  1  0  0  0  0
 38 37  1  0  0  0  0
 39 38  2  0  0  0  0
 40 42  2  0  0  0  0
 40 39  1  0  0  0  0
 41 40  1  0  0  0  0
 42 44  1  0  0  0  0
 43 42  1  0  0  0  0
 44 45  2  0  0  0  0
M  END
>  <minimizedAffinity>
-5.79498911

$$$$
