
 OpenBabel03242516513D

 45 48  0  0  1  0  0  0  0  0999 V2000
   47.8060   32.8130   41.7740 C   0  0  1  0  0  0  0  0  0  0  0  0
   47.4420   32.1540   40.5170 C   0  0  0  0  0  0  0  0  0  0  0  0
   48.4420   32.6310   39.4660 C   0  0  0  0  0  0  0  0  0  0  0  0
   48.1320   34.0930   39.2090 C   0  0  0  0  0  0  0  0  0  0  0  0
   48.1040   34.9420   40.4480 C   0  0  0  0  0  0  0  0  0  0  0  0
   47.6210   34.3320   41.6900 C   0  0  1  0  0  0  0  0  0  0  0  0
   48.9250   32.7150   41.9170 H   0  0  0  0  0  0  0  0  0  0  0  0
   46.4360   32.3750   40.1610 H   0  0  0  0  0  0  0  0  0  0  0  0
   47.6040   31.0510   40.6440 H   0  0  0  0  0  0  0  0  0  0  0  0
   48.2150   32.1120   38.5020 H   0  0  0  0  0  0  0  0  0  0  0  0
   49.4790   32.4760   39.8000 H   0  0  0  0  0  0  0  0  0  0  0  0
   47.1640   34.1200   38.6530 H   0  0  0  0  0  0  0  0  0  0  0  0
   48.8970   34.4910   38.5050 H   0  0  0  0  0  0  0  0  0  0  0  0
   49.1260   35.3820   40.5650 H   0  0  0  0  0  0  0  0  0  0  0  0
   47.4490   35.8240   40.2110 H   0  0  0  0  0  0  0  0  0  0  0  0
   48.2460   34.7300   42.5480 H   0  0  0  0  0  0  0  0  0  0  0  0
   45.3980   30.9420   44.0140 C   0  0  0  0  0  0  0  0  0  0  0  0
   46.0650   31.4640   42.8980 C   0  0  0  0  0  0  0  0  0  0  0  0
   47.1740   32.3100   42.9760 C   0  0  0  0  0  0  0  0  0  0  0  0
   47.5880   32.6140   44.2110 N   0  0  0  0  0  0  0  0  0  0  0  0
   46.9540   32.1190   45.3070 C   0  0  0  0  0  0  0  0  0  0  0  0
   45.8940   31.3100   45.2230 N   0  0  0  0  0  0  0  0  0  0  0  0
   44.5590   30.3040   43.8680 H   0  0  0  0  0  0  0  0  0  0  0  0
   45.7020   31.1970   41.9110 H   0  0  0  0  0  0  0  0  0  0  0  0
   47.3310   32.3980   46.2980 H   0  0  0  0  0  0  0  0  0  0  0  0
   46.2540   34.7300   42.0270 C   0  0  0  0  0  0  0  0  0  0  0  0
   45.8370   35.3330   43.2110 C   0  0  0  0  0  0  0  0  0  0  0  0
   44.4790   35.6390   43.2990 C   0  0  0  0  0  0  0  0  0  0  0  0
   43.6690   35.3280   42.2280 C   0  0  0  0  0  0  0  0  0  0  0  0
   44.1020   34.7260   41.0550 C   0  0  0  0  0  0  0  0  0  0  0  0
   45.4300   34.4350   40.9880 N   0  0  0  0  0  0  0  0  0  0  0  0
   46.6010   35.5100   43.9560 H   0  0  0  0  0  0  0  0  0  0  0  0
   44.1600   36.1030   44.2080 H   0  0  0  0  0  0  0  0  0  0  0  0
   42.6240   35.6000   42.3760 H   0  0  0  0  0  0  0  0  0  0  0  0
   43.1540   34.4420   39.9860 C   0  0  0  0  0  0  0  0  0  0  0  0
   42.5470   35.4040   39.4570 O   0  0  0  0  0  0  0  0  0  0  0  0
   40.8570   33.2130   41.3380 Cl  0  0  0  0  0  0  0  0  0  0  0  0
   41.6020   32.5440   39.8770 C   0  0  0  0  0  0  0  0  0  0  0  0
   42.6990   33.2260   39.3310 C   0  0  0  0  0  0  0  0  0  0  0  0
   43.2140   32.6540   38.2130 C   0  0  0  0  0  0  0  0  0  0  0  0
   44.0400   33.1330   37.7490 H   0  0  0  0  0  0  0  0  0  0  0  0
   42.7570   31.5040   37.6080 C   0  0  0  0  0  0  0  0  0  0  0  0
   43.2180   31.1070   36.7190 H   0  0  0  0  0  0  0  0  0  0  0  0
   41.6760   30.8780   38.1910 C   0  0  0  0  0  3  0  0  0  0  0  0
   41.0750   31.3740   39.3280 C   0  0  0  0  0  3  0  0  0  0  0  0
  1  7  1  1  0  0  0
  1 19  1  0  0  0  0
  2  9  1  0  0  0  0
  2  1  1  0  0  0  0
  3 11  1  0  0  0  0
  3  2  1  0  0  0  0
  4  3  1  0  0  0  0
  4  5  1  0  0  0  0
  5 14  1  0  0  0  0
  5  6  1  0  0  0  0
  6  1  1  0  0  0  0
  6 26  1  0  0  0  0
  6 16  1  1  0  0  0
  8  2  1  0  0  0  0
 10  3  1  0  0  0  0
 12  4  1  0  0  0  0
 13  4  1  0  0  0  0
 15  5  1  0  0  0  0
 17 22  1  0  0  0  0
 18 19  1  0  0  0  0
 18 17  2  0  0  0  0
 19 20  2  0  0  0  0
 20 21  1  0  0  0  0
 21 25  1  0  0  0  0
 22 21  2  0  0  0  0
 23 17  1  0  0  0  0
 24 18  1  0  0  0  0
 26 27  1  0  0  0  0
 27 28  2  0  0  0  0
 27 32  1  0  0  0  0
 28 33  1  0  0  0  0
 29 34  1  0  0  0  0
 29 28  1  0  0  0  0
 30 29  2  0  0  0  0
 31 30  1  0  0  0  0
 31 26  2  0  0  0  0
 35 30  1  0  0  0  0
 36 35  2  0  0  0  0
 38 37  1  0  0  0  0
 39 38  1  0  0  0  0
 39 35  1  0  0  0  0
 40 39  2  0  0  0  0
 41 40  1  0  0  0  0
 42 44  2  0  0  0  0
 42 40  1  0  0  0  0
 43 42  1  0  0  0  0
 44 45  1  0  0  0  0
 45 38  2  0  0  0  0
M  END
>  <minimizedAffinity>
-5.60408783

>  <minimizedRMSD>
0.841244578

$$$$
