
 OpenBabel03242516523D

 45 48  0  0  1  0  0  0  0  0999 V2000
   47.8060   32.8130   41.7750 C   0  0  1  0  0  0  0  0  0  0  0  0
   47.4430   32.1540   40.5180 C   0  0  0  0  0  0  0  0  0  0  0  0
   48.4430   32.6310   39.4670 C   0  0  0  0  0  0  0  0  0  0  0  0
   48.1320   34.0930   39.2100 C   0  0  0  0  0  0  0  0  0  0  0  0
   48.1040   34.9430   40.4490 C   0  0  0  0  0  0  0  0  0  0  0  0
   47.6210   34.3320   41.6910 C   0  0  1  0  0  0  0  0  0  0  0  0
   48.9260   32.7160   41.9180 H   0  0  0  0  0  0  0  0  0  0  0  0
   46.4370   32.3750   40.1620 H   0  0  0  0  0  0  0  0  0  0  0  0
   47.6050   31.0510   40.6440 H   0  0  0  0  0  0  0  0  0  0  0  0
   48.2160   32.1120   38.5030 H   0  0  0  0  0  0  0  0  0  0  0  0
   49.4800   32.4760   39.8010 H   0  0  0  0  0  0  0  0  0  0  0  0
   47.1640   34.1200   38.6540 H   0  0  0  0  0  0  0  0  0  0  0  0
   48.8980   34.4910   38.5060 H   0  0  0  0  0  0  0  0  0  0  0  0
   49.1260   35.3820   40.5660 H   0  0  0  0  0  0  0  0  0  0  0  0
   47.4490   35.8240   40.2120 H   0  0  0  0  0  0  0  0  0  0  0  0
   48.2460   34.7300   42.5490 H   0  0  0  0  0  0  0  0  0  0  0  0
   45.3980   30.9420   44.0140 C   0  0  0  0  0  0  0  0  0  0  0  0
   46.0650   31.4630   42.8980 C   0  0  0  0  0  0  0  0  0  0  0  0
   47.1750   32.3100   42.9770 C   0  0  0  0  0  0  0  0  0  0  0  0
   47.5890   32.6140   44.2120 N   0  0  0  0  0  0  0  0  0  0  0  0
   46.9540   32.1190   45.3080 C   0  0  0  0  0  0  0  0  0  0  0  0
   45.8940   31.3100   45.2230 N   0  0  0  0  0  0  0  0  0  0  0  0
   44.5590   30.3040   43.8690 H   0  0  0  0  0  0  0  0  0  0  0  0
   45.7030   31.1970   41.9120 H   0  0  0  0  0  0  0  0  0  0  0  0
   47.3310   32.3970   46.2990 H   0  0  0  0  0  0  0  0  0  0  0  0
   46.2540   34.7300   42.0280 C   0  0  0  0  0  0  0  0  0  0  0  0
   45.8370   35.3330   43.2120 C   0  0  0  0  0  0  0  0  0  0  0  0
   44.4790   35.6390   43.3000 C   0  0  0  0  0  0  0  0  0  0  0  0
   43.6690   35.3280   42.2290 C   0  0  0  0  0  0  0  0  0  0  0  0
   44.1020   34.7260   41.0550 C   0  0  0  0  0  0  0  0  0  0  0  0
   45.4300   34.4350   40.9890 N   0  0  0  0  0  0  0  0  0  0  0  0
   46.6010   35.5090   43.9570 H   0  0  0  0  0  0  0  0  0  0  0  0
   44.1590   36.1020   44.2090 H   0  0  0  0  0  0  0  0  0  0  0  0
   42.6240   35.6000   42.3760 H   0  0  0  0  0  0  0  0  0  0  0  0
   43.1550   34.4420   39.9870 C   0  0  0  0  0  0  0  0  0  0  0  0
   42.5470   35.4040   39.4580 O   0  0  0  0  0  0  0  0  0  0  0  0
   40.8580   33.2130   41.3380 Cl  0  0  0  0  0  0  0  0  0  0  0  0
   41.6030   32.5440   39.8770 C   0  0  0  0  0  0  0  0  0  0  0  0
   42.7000   33.2260   39.3310 C   0  0  0  0  0  0  0  0  0  0  0  0
   43.2150   32.6540   38.2130 C   0  0  0  0  0  0  0  0  0  0  0  0
   44.0410   33.1340   37.7480 H   0  0  0  0  0  0  0  0  0  0  0  0
   42.7570   31.5040   37.6080 C   0  0  0  0  0  0  0  0  0  0  0  0
   43.2190   31.1070   36.7190 H   0  0  0  0  0  0  0  0  0  0  0  0
   41.6770   30.8780   38.1920 C   0  0  0  0  0  3  0  0  0  0  0  0
   41.0760   31.3730   39.3280 C   0  0  0  0  0  3  0  0  0  0  0  0
  1  7  1  1  0  0  0
  1 19  1  0  0  0  0
  2  9  1  0  0  0  0
  2  1  1  0  0  0  0
  3 11  1  0  0  0  0
  3  2  1  0  0  0  0
  4  3  1  0  0  0  0
  4  5  1  0  0  0  0
  5 14  1  0  0  0  0
  5  6  1  0  0  0  0
  6  1  1  0  0  0  0
  6 26  1  0  0  0  0
  6 16  1  1  0  0  0
  8  2  1  0  0  0  0
 10  3  1  0  0  0  0
 12  4  1  0  0  0  0
 13  4  1  0  0  0  0
 15  5  1  0  0  0  0
 17 22  1  0  0  0  0
 18 19  1  0  0  0  0
 18 17  2  0  0  0  0
 19 20  2  0  0  0  0
 20 21  1  0  0  0  0
 21 25  1  0  0  0  0
 22 21  2  0  0  0  0
 23 17  1  0  0  0  0
 24 18  1  0  0  0  0
 26 27  1  0  0  0  0
 27 28  2  0  0  0  0
 27 32  1  0  0  0  0
 28 33  1  0  0  0  0
 29 34  1  0  0  0  0
 29 28  1  0  0  0  0
 30 29  2  0  0  0  0
 31 30  1  0  0  0  0
 31 26  2  0  0  0  0
 35 30  1  0  0  0  0
 36 35  2  0  0  0  0
 38 37  1  0  0  0  0
 39 38  1  0  0  0  0
 39 35  1  0  0  0  0
 40 39  2  0  0  0  0
 41 40  1  0  0  0  0
 42 44  2  0  0  0  0
 42 40  1  0  0  0  0
 43 42  1  0  0  0  0
 44 45  1  0  0  0  0
 45 38  2  0  0  0  0
M  END
>  <minimizedAffinity>
-5.60379648

>  <minimizedRMSD>
0.989753485

$$$$
