
 OpenBabel03242514593D

 37 39  0  0  0  0  0  0  0  0999 V2000
   45.1010   34.5870   42.0110 C   0  0  0  0  0  0  0  0  0  0  0  0
   46.4220   34.6540   41.5550 C   0  0  0  0  0  0  0  0  0  0  0  0
   47.4450   34.4160   42.4680 C   0  0  0  0  0  0  0  0  0  0  0  0
   47.1040   34.1300   43.7640 N   0  0  0  0  0  0  0  0  0  0  0  0
   45.8260   34.0710   44.1760 C   0  0  0  0  0  0  0  0  0  0  0  0
   44.8410   34.3020   43.2910 N   0  0  0  0  0  0  0  0  0  0  0  0
   46.7440   34.8760   40.5440 H   0  0  0  0  0  0  0  0  0  0  0  0
   48.4850   34.4590   42.1540 H   0  0  0  0  0  0  0  0  0  0  0  0
   45.5650   33.7600   45.5660 C   0  0  0  0  0  0  0  0  0  0  0  0
   44.7940   34.5110   46.2110 O   0  0  0  0  0  0  0  0  0  0  0  0
   45.2220   31.0800   44.1450 Cl  0  0  0  0  0  0  0  0  0  0  0  0
   46.1530   31.3080   45.6190 C   0  0  0  0  0  0  0  0  0  0  0  0
   46.2170   32.5820   46.1450 C   0  0  0  0  0  0  0  0  0  0  0  0
   46.9380   32.8390   47.3120 C   0  0  0  0  0  0  0  0  0  0  0  0
   47.0210   33.8270   47.7710 H   0  0  0  0  0  0  0  0  0  0  0  0
   47.6100   31.8270   47.9770 C   0  0  0  0  0  0  0  0  0  0  0  0
   48.1830   31.9720   48.8850 H   0  0  0  0  0  0  0  0  0  0  0  0
   47.5220   30.5630   47.4190 C   0  0  0  0  0  3  0  0  0  0  0  0
   46.8140   30.2640   46.2550 C   0  0  0  0  0  3  0  0  0  0  0  0
   43.8250   34.9030   40.7880 S   0  0  0  0  0  0  0  0  0  0  0  0
   42.1830   34.9390   41.4970 C   0  0  0  0  0  0  0  0  0  0  0  0
   42.1830   35.1870   42.5970 H   0  0  0  0  0  0  0  0  0  0  0  0
   41.7410   33.9180   41.4150 H   0  0  0  0  0  0  0  0  0  0  0  0
   41.2600   35.9090   40.8260 C   0  0  0  0  0  0  0  0  0  0  0  0
   41.7810   36.7030   40.2590 H   0  0  0  0  0  0  0  0  0  0  0  0
   40.5960   36.4020   41.5690 H   0  0  0  0  0  0  0  0  0  0  0  0
   42.0240   36.1280   37.8930 Cl  0  0  0  0  0  0  0  0  0  0  0  0
   40.6320   35.2530   38.4800 C   0  0  0  0  0  0  0  0  0  0  0  0
   40.3740   35.2180   39.8540 C   0  0  0  0  0  0  0  0  0  0  0  0
   39.2560   34.5060   40.2450 C   0  0  0  0  0  0  0  0  0  0  0  0
   38.3870   33.8390   39.4060 C   0  0  0  0  0  0  0  0  0  0  0  0
   38.6720   33.8950   38.0590 C   0  0  0  0  0  0  0  0  0  0  0  0
   37.6040   33.0660   36.9170 Cl  0  0  0  0  0  0  0  0  0  0  0  0
   39.7730   34.5900   37.6130 C   0  0  0  0  0  0  0  0  0  0  0  0
   39.0910   34.5030   41.3130 H   0  0  0  0  0  0  0  0  0  0  0  0
   37.5290   33.3050   39.8180 H   0  0  0  0  0  0  0  0  0  0  0  0
   39.9480   34.5980   36.5440 H   0  0  0  0  0  0  0  0  0  0  0  0
  1  6  1  0  0  0  0
  2  1  2  0  0  0  0
  2  3  1  0  0  0  0
  3  4  2  0  0  0  0
  4  5  1  0  0  0  0
  5  9  1  0  0  0  0
  6  5  2  0  0  0  0
  7  2  1  0  0  0  0
  8  3  1  0  0  0  0
  9 13  1  0  0  0  0
  9 10  2  0  0  0  0
 11 12  1  0  0  0  0
 12 13  2  0  0  0  0
 12 19  1  0  0  0  0
 13 14  1  0  0  0  0
 14 15  1  0  0  0  0
 14 16  2  0  0  0  0
 16 17  1  0  0  0  0
 18 16  1  0  0  0  0
 19 18  2  0  0  0  0
 20 21  1  0  0  0  0
 20  1  1  0  0  0  0
 21 22  1  0  0  0  0
 23 21  1  0  0  0  0
 24 21  1  0  0  0  0
 24 26  1  0  0  0  0
 25 24  1  0  0  0  0
 27 28  1  0  0  0  0
 28 29  1  0  0  0  0
 29 30  2  0  0  0  0
 29 24  1  0  0  0  0
 30 35  1  0  0  0  0
 31 36  1  0  0  0  0
 31 30  1  0  0  0  0
 32 31  2  0  0  0  0
 33 32  1  0  0  0  0
 34 32  1  0  0  0  0
 34 28  2  0  0  0  0
 37 34  1  0  0  0  0
M  END
>  <minimizedAffinity>
-6.75979328

>  <minimizedRMSD>
0.600837648

$$$$
