
 OpenBabel03242516523D

 45 48  0  0  1  0  0  0  0  0999 V2000
   47.8450   32.8980   41.8310 C   0  0  1  0  0  0  0  0  0  0  0  0
   47.5190   32.2870   40.5400 C   0  0  0  0  0  0  0  0  0  0  0  0
   48.5390   32.8160   39.5340 C   0  0  0  0  0  0  0  0  0  0  0  0
   48.2210   34.2840   39.3290 C   0  0  0  0  0  0  0  0  0  0  0  0
   48.1540   35.0820   40.6000 C   0  0  0  0  0  0  0  0  0  0  0  0
   47.6470   34.4170   41.8050 C   0  0  1  0  0  0  0  0  0  0  0  0
   48.9620   32.8050   41.9980 H   0  0  0  0  0  0  0  0  0  0  0  0
   46.5200   32.5130   40.1690 H   0  0  0  0  0  0  0  0  0  0  0  0
   47.6890   31.1820   40.6260 H   0  0  0  0  0  0  0  0  0  0  0  0
   48.3410   32.3340   38.5450 H   0  0  0  0  0  0  0  0  0  0  0  0
   49.5690   32.6570   39.8870 H   0  0  0  0  0  0  0  0  0  0  0  0
   47.2660   34.3250   38.7510 H   0  0  0  0  0  0  0  0  0  0  0  0
   48.9990   34.7180   38.6600 H   0  0  0  0  0  0  0  0  0  0  0  0
   49.1680   35.5260   40.7610 H   0  0  0  0  0  0  0  0  0  0  0  0
   47.4960   35.9670   40.3830 H   0  0  0  0  0  0  0  0  0  0  0  0
   48.2470   34.7860   42.6930 H   0  0  0  0  0  0  0  0  0  0  0  0
   45.4090   30.9070   43.9330 C   0  0  0  0  0  0  0  0  0  0  0  0
   46.0980   31.4800   42.8560 C   0  0  0  0  0  0  0  0  0  0  0  0
   47.1900   32.3410   42.9960 C   0  0  0  0  0  0  0  0  0  0  0  0
   47.5650   32.6060   44.2520 N   0  0  0  0  0  0  0  0  0  0  0  0
   46.9100   32.0600   45.3120 C   0  0  0  0  0  0  0  0  0  0  0  0
   45.8660   31.2380   45.1680 N   0  0  0  0  0  0  0  0  0  0  0  0
   44.5860   30.2610   43.7410 H   0  0  0  0  0  0  0  0  0  0  0  0
   45.7670   31.2440   41.8510 H   0  0  0  0  0  0  0  0  0  0  0  0
   47.2540   32.3080   46.3220 H   0  0  0  0  0  0  0  0  0  0  0  0
   46.2690   34.7890   42.1230 C   0  0  0  0  0  0  0  0  0  0  0  0
   45.8210   35.3650   43.3100 C   0  0  0  0  0  0  0  0  0  0  0  0
   44.4580   35.6490   43.3780 C   0  0  0  0  0  0  0  0  0  0  0  0
   43.6720   35.3440   42.2880 C   0  0  0  0  0  0  0  0  0  0  0  0
   44.1340   34.7700   41.1130 C   0  0  0  0  0  0  0  0  0  0  0  0
   45.4680   34.5000   41.0650 N   0  0  0  0  0  0  0  0  0  0  0  0
   46.5690   35.5400   44.0710 H   0  0  0  0  0  0  0  0  0  0  0  0
   44.1150   36.0920   44.2890 H   0  0  0  0  0  0  0  0  0  0  0  0
   42.6200   35.5980   42.4210 H   0  0  0  0  0  0  0  0  0  0  0  0
   43.2100   34.4890   40.0230 C   0  0  0  0  0  0  0  0  0  0  0  0
   42.6010   35.4520   39.4960 O   0  0  0  0  0  0  0  0  0  0  0  0
   40.8730   33.2420   41.2840 Cl  0  0  0  0  0  0  0  0  0  0  0  0
   41.6690   32.5880   39.8430 C   0  0  0  0  0  0  0  0  0  0  0  0
   42.7820   33.2780   39.3410 C   0  0  0  0  0  0  0  0  0  0  0  0
   43.3370   32.7170   38.2370 C   0  0  0  0  0  0  0  0  0  0  0  0
   44.1770   33.2030   37.8050 H   0  0  0  0  0  0  0  0  0  0  0  0
   42.9050   31.5720   37.6070 C   0  0  0  0  0  0  0  0  0  0  0  0
   43.3960   31.1830   36.7310 H   0  0  0  0  0  0  0  0  0  0  0  0
   41.8070   30.9360   38.1470 C   0  0  0  0  0  3  0  0  0  0  0  0
   41.1650   31.4200   39.2670 C   0  0  0  0  0  3  0  0  0  0  0  0
  1  7  1  1  0  0  0
  1 19  1  0  0  0  0
  2  9  1  0  0  0  0
  2  1  1  0  0  0  0
  3 11  1  0  0  0  0
  3  2  1  0  0  0  0
  4  3  1  0  0  0  0
  4  5  1  0  0  0  0
  5 14  1  0  0  0  0
  5  6  1  0  0  0  0
  6  1  1  0  0  0  0
  6 26  1  0  0  0  0
  6 16  1  1  0  0  0
  8  2  1  0  0  0  0
 10  3  1  0  0  0  0
 12  4  1  0  0  0  0
 13  4  1  0  0  0  0
 15  5  1  0  0  0  0
 17 22  1  0  0  0  0
 18 19  1  0  0  0  0
 18 17  2  0  0  0  0
 19 20  2  0  0  0  0
 20 21  1  0  0  0  0
 21 25  1  0  0  0  0
 22 21  2  0  0  0  0
 23 17  1  0  0  0  0
 24 18  1  0  0  0  0
 26 27  1  0  0  0  0
 27 28  2  0  0  0  0
 27 32  1  0  0  0  0
 28 33  1  0  0  0  0
 29 34  1  0  0  0  0
 29 28  1  0  0  0  0
 30 29  2  0  0  0  0
 31 30  1  0  0  0  0
 31 26  2  0  0  0  0
 35 30  1  0  0  0  0
 36 35  2  0  0  0  0
 38 37  1  0  0  0  0
 39 38  1  0  0  0  0
 39 35  1  0  0  0  0
 40 39  2  0  0  0  0
 41 40  1  0  0  0  0
 42 44  2  0  0  0  0
 42 40  1  0  0  0  0
 43 42  1  0  0  0  0
 44 45  1  0  0  0  0
 45 38  2  0  0  0  0
M  END
>  <minimizedAffinity>
-5.60440588

>  <minimizedRMSD>
0.472211838

$$$$
