
 OpenBabel03242516523D

 45 48  0  0  1  0  0  0  0  0999 V2000
   47.7920   32.7780   41.7000 C   0  0  1  0  0  0  0  0  0  0  0  0
   47.4300   32.1200   40.4420 C   0  0  0  0  0  0  0  0  0  0  0  0
   48.4320   32.5980   39.3930 C   0  0  0  0  0  0  0  0  0  0  0  0
   48.1240   34.0600   39.1360 C   0  0  0  0  0  0  0  0  0  0  0  0
   48.0940   34.9080   40.3760 C   0  0  0  0  0  0  0  0  0  0  0  0
   47.6090   34.2970   41.6180 C   0  0  1  0  0  0  0  0  0  0  0  0
   48.9120   32.6790   41.8450 H   0  0  0  0  0  0  0  0  0  0  0  0
   46.4250   32.3430   40.0840 H   0  0  0  0  0  0  0  0  0  0  0  0
   47.5910   31.0170   40.5670 H   0  0  0  0  0  0  0  0  0  0  0  0
   48.2060   32.0800   38.4280 H   0  0  0  0  0  0  0  0  0  0  0  0
   49.4680   32.4410   39.7280 H   0  0  0  0  0  0  0  0  0  0  0  0
   47.1570   34.0890   38.5790 H   0  0  0  0  0  0  0  0  0  0  0  0
   48.8910   34.4580   38.4340 H   0  0  0  0  0  0  0  0  0  0  0  0
   49.1170   35.3460   40.4960 H   0  0  0  0  0  0  0  0  0  0  0  0
   47.4410   35.7910   40.1400 H   0  0  0  0  0  0  0  0  0  0  0  0
   48.2330   34.6930   42.4770 H   0  0  0  0  0  0  0  0  0  0  0  0
   45.3670   30.9230   43.9330 C   0  0  0  0  0  0  0  0  0  0  0  0
   46.0370   31.4430   42.8190 C   0  0  0  0  0  0  0  0  0  0  0  0
   47.1580   32.2740   42.9000 C   0  0  0  0  0  0  0  0  0  0  0  0
   47.5810   32.5630   44.1360 N   0  0  0  0  0  0  0  0  0  0  0  0
   46.9440   32.0670   45.2310 C   0  0  0  0  0  0  0  0  0  0  0  0
   45.8730   31.2740   45.1440 N   0  0  0  0  0  0  0  0  0  0  0  0
   44.5190   30.2970   43.7870 H   0  0  0  0  0  0  0  0  0  0  0  0
   45.6670   31.1900   41.8320 H   0  0  0  0  0  0  0  0  0  0  0  0
   47.3280   32.3330   46.2220 H   0  0  0  0  0  0  0  0  0  0  0  0
   46.2420   34.6960   41.9520 C   0  0  0  0  0  0  0  0  0  0  0  0
   45.8240   35.3000   43.1360 C   0  0  0  0  0  0  0  0  0  0  0  0
   44.4670   35.6070   43.2220 C   0  0  0  0  0  0  0  0  0  0  0  0
   43.6580   35.2960   42.1510 C   0  0  0  0  0  0  0  0  0  0  0  0
   44.0910   34.6930   40.9780 C   0  0  0  0  0  0  0  0  0  0  0  0
   45.4190   34.4010   40.9130 N   0  0  0  0  0  0  0  0  0  0  0  0
   46.5870   35.4760   43.8810 H   0  0  0  0  0  0  0  0  0  0  0  0
   44.1460   36.0710   44.1300 H   0  0  0  0  0  0  0  0  0  0  0  0
   42.6130   35.5690   42.2970 H   0  0  0  0  0  0  0  0  0  0  0  0
   43.1450   34.4090   39.9080 C   0  0  0  0  0  0  0  0  0  0  0  0
   42.6640   35.3740   39.2660 O   0  0  0  0  0  0  0  0  0  0  0  0
   44.7700   33.2630   37.7500 Cl  0  0  0  0  0  0  0  0  0  0  0  0
   43.2560   32.5410   38.3210 C   0  0  0  0  0  0  0  0  0  0  0  0
   42.5710   33.1910   39.3580 C   0  0  0  0  0  0  0  0  0  0  0  0
   41.4220   32.5780   39.7400 C   0  0  0  0  0  0  0  0  0  0  0  0
   40.8670   33.0200   40.5310 H   0  0  0  0  0  0  0  0  0  0  0  0
   40.9060   31.4180   39.2040 C   0  0  0  0  0  0  0  0  0  0  0  0
   39.9840   30.9890   39.5600 H   0  0  0  0  0  0  0  0  0  0  0  0
   41.6240   30.8270   38.1880 C   0  0  0  0  0  3  0  0  0  0  0  0
   42.8050   31.3630   37.7220 C   0  0  0  0  0  3  0  0  0  0  0  0
  1  7  1  1  0  0  0
  1 19  1  0  0  0  0
  2  9  1  0  0  0  0
  2  1  1  0  0  0  0
  3 11  1  0  0  0  0
  3  2  1  0  0  0  0
  4  3  1  0  0  0  0
  4  5  1  0  0  0  0
  5 14  1  0  0  0  0
  5  6  1  0  0  0  0
  6  1  1  0  0  0  0
  6 26  1  0  0  0  0
  6 16  1  1  0  0  0
  8  2  1  0  0  0  0
 10  3  1  0  0  0  0
 12  4  1  0  0  0  0
 13  4  1  0  0  0  0
 15  5  1  0  0  0  0
 17 22  1  0  0  0  0
 18 19  1  0  0  0  0
 18 17  2  0  0  0  0
 19 20  2  0  0  0  0
 20 21  1  0  0  0  0
 21 25  1  0  0  0  0
 22 21  2  0  0  0  0
 23 17  1  0  0  0  0
 24 18  1  0  0  0  0
 26 27  1  0  0  0  0
 27 28  2  0  0  0  0
 27 32  1  0  0  0  0
 28 33  1  0  0  0  0
 29 34  1  0  0  0  0
 29 28  1  0  0  0  0
 30 29  2  0  0  0  0
 31 30  1  0  0  0  0
 31 26  2  0  0  0  0
 35 30  1  0  0  0  0
 36 35  2  0  0  0  0
 37 38  1  0  0  0  0
 38 39  1  0  0  0  0
 39 40  2  0  0  0  0
 39 35  1  0  0  0  0
 40 41  1  0  0  0  0
 42 43  1  0  0  0  0
 42 40  1  0  0  0  0
 44 42  2  0  0  0  0
 45 44  1  0  0  0  0
 45 38  2  0  0  0  0
M  END
>  <minimizedAffinity>
-5.43838787

>  <minimizedRMSD>
0.641875744

$$$$
