
 OpenBabel03252506183D

 23 24  0  0  0  0  0  0  0  0999 V2000
   44.8870   35.6890   44.1580 C   0  0  0  0  0  0  0  0  0  0  0  0
   44.5070   35.1410   42.9180 C   0  0  0  0  0  0  0  0  0  0  0  0
   44.6340   33.7500   42.7690 C   0  0  0  0  0  0  0  0  0  0  0  0
   45.1040   33.0170   43.8010 N   0  0  0  0  0  0  0  0  0  0  0  0
   45.4580   33.5890   44.9810 C   0  0  0  0  0  0  0  0  0  0  0  0
   45.3480   34.9220   45.1560 N   0  0  0  0  0  0  0  0  0  0  0  0
   44.1370   35.7740   42.1260 H   0  0  0  0  0  0  0  0  0  0  0  0
   44.3460   33.3170   41.8210 H   0  0  0  0  0  0  0  0  0  0  0  0
   47.7170   31.7470   44.1520 Cl  0  0  0  0  0  0  0  0  0  0  0  0
   47.0030   31.8350   45.7290 C   0  0  0  0  0  0  0  0  0  0  0  0
   45.9590   32.7120   46.0430 C   0  0  0  0  0  0  0  0  0  0  0  0
   45.3730   32.8060   47.2820 C   0  0  0  0  0  0  0  0  0  0  0  0
   44.5690   33.4970   47.4840 H   0  0  0  0  0  0  0  0  0  0  0  0
   45.8730   31.9640   48.2540 C   0  0  0  0  0  0  0  0  0  0  0  0
   45.4410   31.9980   49.2550 H   0  0  0  0  0  0  0  0  0  0  0  0
   46.8970   31.0600   48.0590 C   0  0  0  0  0  3  0  0  0  0  0  0
   47.4250   31.0380   46.7770 C   0  0  0  0  0  3  0  0  0  0  0  0
   44.7590   37.1490   44.3340 C   0  0  0  0  0  3  0  0  0  0  0  0
   45.4830   37.9270   43.5590 C   0  0  0  0  0  3  0  0  0  0  0  0
   45.3910   39.4090   43.6980 C   0  0  0  0  0  0  0  0  0  0  0  0
   45.5930   39.6330   44.7750 H   0  0  0  0  0  0  0  0  0  0  0  0
   46.1660   39.9170   43.1090 H   0  0  0  0  0  0  0  0  0  0  0  0
   44.3600   39.7650   43.4390 H   0  0  0  0  0  0  0  0  0  0  0  0
  1 18  1  0  0  0  0
  1  6  1  0  0  0  0
  2  1  2  0  0  0  0
  3  2  1  0  0  0  0
  3  4  2  0  0  0  0
  4  5  1  0  0  0  0
  5  6  2  0  0  0  0
  5 11  1  0  0  0  0
  7  2  1  0  0  0  0
  8  3  1  0  0  0  0
  9 10  1  0  0  0  0
 10 11  2  0  0  0  0
 10 17  1  0  0  0  0
 11 12  1  0  0  0  0
 12 13  1  0  0  0  0
 12 14  2  0  0  0  0
 14 15  1  0  0  0  0
 16 14  1  0  0  0  0
 17 16  2  0  0  0  0
 19 20  1  0  0  0  0
 19 18  2  0  0  0  0
 20 21  1  0  0  0  0
 22 20  1  0  0  0  0
 23 20  1  0  0  0  0
M  END
>  <minimizedAffinity>
-3.81503105

>  <minimizedRMSD>
1.95964408

$$$$
