
 OpenBabel03242511553D

 34 36  0  0  1  0  0  0  0  0999 V2000
   38.7790   31.0500   40.0970 C   0  0  2  0  0  0  0  0  0  0  0  0
   39.7020   32.1320   40.4890 C   0  0  0  0  0  0  0  0  0  0  0  0
   39.0040   33.3730   40.9780 C   0  0  0  0  0  0  0  0  0  0  0  0
   38.0610   33.9130   39.9320 C   0  0  0  0  0  0  0  0  0  0  0  0
   37.1940   32.8450   39.3240 C   0  0  0  0  0  0  0  0  0  0  0  0
   37.3360   31.5090   40.0160 C   0  0  1  0  0  0  0  0  0  0  0  0
   39.0890   30.6580   39.0810 H   0  0  0  0  0  0  0  0  0  0  0  0
   40.3180   32.4830   39.6080 H   0  0  0  0  0  0  0  0  0  0  0  0
   40.4680   31.8320   41.2340 H   0  0  0  0  0  0  0  0  0  0  0  0
   39.7770   34.1490   41.1580 H   0  0  0  0  0  0  0  0  0  0  0  0
   38.4190   33.2680   41.8890 H   0  0  0  0  0  0  0  0  0  0  0  0
   37.4940   34.7620   40.3480 H   0  0  0  0  0  0  0  0  0  0  0  0
   38.7060   34.3150   39.1040 H   0  0  0  0  0  0  0  0  0  0  0  0
   37.3080   32.7620   38.2410 H   0  0  0  0  0  0  0  0  0  0  0  0
   36.1350   33.1620   39.5210 H   0  0  0  0  0  0  0  0  0  0  0  0
   37.0240   31.6850   41.0870 H   0  0  0  0  0  0  0  0  0  0  0  0
   38.8370   29.8990   41.0180 C   0  0  0  0  0  0  0  0  0  0  0  0
   39.3050   28.6900   40.4680 C   0  0  0  0  0  0  0  0  0  0  0  0
   39.3990   27.5590   41.2780 C   0  0  0  0  0  0  0  0  0  0  0  0
   39.0150   27.7120   42.5950 N   0  0  0  0  0  0  0  0  0  0  0  0
   38.5730   28.8770   43.0920 C   0  0  0  0  0  0  0  0  0  0  0  0
   38.4800   29.9790   42.3080 N   0  0  0  0  0  0  0  0  0  0  0  0
   39.6150   28.4940   39.4800 H   0  0  0  0  0  0  0  0  0  0  0  0
   39.7390   26.5910   40.9690 H   0  0  0  0  0  0  0  0  0  0  0  0
   38.2890   28.9370   44.1240 H   0  0  0  0  0  0  0  0  0  0  0  0
   37.5380   30.7610   37.0150 Cl  0  0  0  0  0  0  0  0  0  0  0  0
   36.3570   30.1060   38.1270 C   0  0  0  0  0  0  0  0  0  0  0  0
   36.4180   30.5430   39.4330 C   0  0  0  0  0  0  0  0  0  0  0  0
   35.4490   29.9650   40.2600 C   0  0  0  0  0  0  0  0  0  0  0  0
   35.3070   30.1520   41.2950 H   0  0  0  0  0  0  0  0  0  0  0  0
   34.5320   29.0510   39.7970 C   0  0  0  0  0  0  0  0  0  0  0  0
   33.7640   28.5690   40.3700 H   0  0  0  0  0  0  0  0  0  0  0  0
   34.5290   28.6540   38.4560 C   0  0  0  0  0  3  0  0  0  0  0  0
   35.4670   29.1980   37.6040 C   0  0  0  0  0  3  0  0  0  0  0  0
  1  7  1  6  0  0  0
  1  2  1  0  0  0  0
  1 17  1  0  0  0  0
  2  3  1  0  0  0  0
  2  9  1  0  0  0  0
  3 10  1  0  0  0  0
  3 11  1  0  0  0  0
  4 12  1  0  0  0  0
  4  3  1  0  0  0  0
  5 15  1  0  0  0  0
  5  4  1  0  0  0  0
  5  6  1  0  0  0  0
  6  1  1  0  0  0  0
  6 16  1  1  0  0  0
  8  2  1  0  0  0  0
 13  4  1  0  0  0  0
 14  5  1  0  0  0  0
 17 22  1  0  0  0  0
 18 17  2  0  0  0  0
 18 19  1  0  0  0  0
 19 20  2  0  0  0  0
 20 21  1  0  0  0  0
 21 25  1  0  0  0  0
 22 21  2  0  0  0  0
 23 18  1  0  0  0  0
 24 19  1  0  0  0  0
 26 27  1  0  0  0  0
 27 28  1  0  0  0  0
 28  6  1  0  0  0  0
 28 29  2  0  0  0  0
 29 30  1  0  0  0  0
 31 29  1  0  0  0  0
 31 32  1  0  0  0  0
 33 31  2  0  0  0  0
 34 27  2  0  0  0  0
 34 33  1  0  0  0  0
M  END
>  <minimizedAffinity>
-5.43326473

$$$$

 OpenBabel03242511553D

 34 36  0  0  1  0  0  0  0  0999 V2000
   37.5610   29.7720   41.8150 C   0  0  2  0  0  0  0  0  0  0  0  0
   38.3930   29.5850   43.0180 C   0  0  0  0  0  0  0  0  0  0  0  0
   39.0060   28.2130   43.1200 C   0  0  0  0  0  0  0  0  0  0  0  0
   37.9440   27.1420   43.1080 C   0  0  0  0  0  0  0  0  0  0  0  0
   36.9230   27.3480   42.0220 C   0  0  0  0  0  0  0  0  0  0  0  0
   37.2860   28.4740   41.0820 C   0  0  1  0  0  0  0  0  0  0  0  0
   36.5730   30.2280   42.1240 H   0  0  0  0  0  0  0  0  0  0  0  0
   37.7780   29.6880   43.9610 H   0  0  0  0  0  0  0  0  0  0  0  0
   39.1900   30.3460   43.1470 H   0  0  0  0  0  0  0  0  0  0  0  0
   39.5310   28.1470   44.0960 H   0  0  0  0  0  0  0  0  0  0  0  0
   39.7160   27.9450   42.3410 H   0  0  0  0  0  0  0  0  0  0  0  0
   38.4220   26.1480   43.0860 H   0  0  0  0  0  0  0  0  0  0  0  0
   37.3970   27.2290   44.0860 H   0  0  0  0  0  0  0  0  0  0  0  0
   35.9040   27.4380   42.4010 H   0  0  0  0  0  0  0  0  0  0  0  0
   36.9590   26.4200   41.3900 H   0  0  0  0  0  0  0  0  0  0  0  0
   38.2740   28.1810   40.6210 H   0  0  0  0  0  0  0  0  0  0  0  0
   38.1670   30.7150   40.8540 C   0  0  0  0  0  0  0  0  0  0  0  0
   37.4360   31.8910   40.5980 C   0  0  0  0  0  0  0  0  0  0  0  0
   37.9470   32.8360   39.7090 C   0  0  0  0  0  0  0  0  0  0  0  0
   39.1650   32.5400   39.1290 N   0  0  0  0  0  0  0  0  0  0  0  0
   39.8380   31.4100   39.3930 C   0  0  0  0  0  0  0  0  0  0  0  0
   39.3460   30.4890   40.2560 N   0  0  0  0  0  0  0  0  0  0  0  0
   36.5070   32.1870   40.9970 H   0  0  0  0  0  0  0  0  0  0  0  0
   37.4810   33.7620   39.4390 H   0  0  0  0  0  0  0  0  0  0  0  0
   40.7810   31.2340   38.9130 H   0  0  0  0  0  0  0  0  0  0  0  0
   38.0410   27.7180   38.1720 Cl  0  0  0  0  0  0  0  0  0  0  0  0
   36.4670   28.2900   38.6750 C   0  0  0  0  0  0  0  0  0  0  0  0
   36.3020   28.5700   40.0140 C   0  0  0  0  0  0  0  0  0  0  0  0
   35.0140   29.0110   40.3370 C   0  0  0  0  0  0  0  0  0  0  0  0
   34.6610   29.2840   41.3010 H   0  0  0  0  0  0  0  0  0  0  0  0
   34.0210   29.1450   39.3960 C   0  0  0  0  0  0  0  0  0  0  0  0
   33.0150   29.4750   39.5700 H   0  0  0  0  0  0  0  0  0  0  0  0
   34.2610   28.8420   38.0520 C   0  0  0  0  0  3  0  0  0  0  0  0
   35.5160   28.4040   37.6880 C   0  0  0  0  0  3  0  0  0  0  0  0
  1  7  1  1  0  0  0
  1  2  1  0  0  0  0
  2  3  1  0  0  0  0
  2  9  1  0  0  0  0
  2  8  1  0  0  0  0
  3 10  1  0  0  0  0
  4  3  1  0  0  0  0
  4 13  1  0  0  0  0
  5 14  1  0  0  0  0
  5  4  1  0  0  0  0
  6 16  1  6  0  0  0
  6  1  1  0  0  0  0
  6  5  1  0  0  0  0
 11  3  1  0  0  0  0
 12  4  1  0  0  0  0
 15  5  1  0  0  0  0
 17  1  1  0  0  0  0
 18 17  1  0  0  0  0
 18 23  1  0  0  0  0
 19 18  2  0  0  0  0
 20 21  2  0  0  0  0
 20 19  1  0  0  0  0
 21 22  1  0  0  0  0
 22 17  2  0  0  0  0
 24 19  1  0  0  0  0
 25 21  1  0  0  0  0
 26 27  1  0  0  0  0
 27 28  1  0  0  0  0
 28 29  2  0  0  0  0
 28  6  1  0  0  0  0
 29 30  1  0  0  0  0
 31 32  1  0  0  0  0
 31 29  1  0  0  0  0
 33 31  2  0  0  0  0
 34 33  1  0  0  0  0
 34 27  2  0  0  0  0
M  END
>  <minimizedAffinity>
-5.31376219

$$$$

 OpenBabel03242511553D

 34 36  0  0  1  0  0  0  0  0999 V2000
   37.1070   31.2780   40.5860 C   0  0  2  0  0  0  0  0  0  0  0  0
   37.2830   32.6430   40.0550 C   0  0  0  0  0  0  0  0  0  0  0  0
   38.6970   32.9520   39.6410 C   0  0  0  0  0  0  0  0  0  0  0  0
   39.6530   32.7650   40.7930 C   0  0  0  0  0  0  0  0  0  0  0  0
   39.4300   31.4730   41.5300 C   0  0  0  0  0  0  0  0  0  0  0  0
   38.4240   30.5740   40.8480 C   0  0  1  0  0  0  0  0  0  0  0  0
   36.5300   31.3380   41.5580 H   0  0  0  0  0  0  0  0  0  0  0  0
   37.0430   33.4210   40.8400 H   0  0  0  0  0  0  0  0  0  0  0  0
   36.5980   32.9020   39.2210 H   0  0  0  0  0  0  0  0  0  0  0  0
   38.7390   34.0210   39.3460 H   0  0  0  0  0  0  0  0  0  0  0  0
   39.0950   32.3630   38.8180 H   0  0  0  0  0  0  0  0  0  0  0  0
   40.6890   32.9030   40.4400 H   0  0  0  0  0  0  0  0  0  0  0  0
   39.4340   33.5930   41.5210 H   0  0  0  0  0  0  0  0  0  0  0  0
   39.2070   31.6130   42.5890 H   0  0  0  0  0  0  0  0  0  0  0  0
   40.4030   30.9150   41.4690 H   0  0  0  0  0  0  0  0  0  0  0  0
   38.8500   30.3590   39.8260 H   0  0  0  0  0  0  0  0  0  0  0  0
   36.3090   30.4240   39.6850 C   0  0  0  0  0  0  0  0  0  0  0  0
   36.7390   30.3670   38.3450 C   0  0  0  0  0  0  0  0  0  0  0  0
   36.0430   29.5730   37.4340 C   0  0  0  0  0  0  0  0  0  0  0  0
   34.9530   28.8830   37.9270 N   0  0  0  0  0  0  0  0  0  0  0  0
   34.5660   28.9570   39.2090 C   0  0  0  0  0  0  0  0  0  0  0  0
   35.2400   29.7270   40.0980 N   0  0  0  0  0  0  0  0  0  0  0  0
   37.5550   30.8600   37.8960 H   0  0  0  0  0  0  0  0  0  0  0  0
   36.2780   29.4540   36.3960 H   0  0  0  0  0  0  0  0  0  0  0  0
   33.7110   28.3980   39.5350 H   0  0  0  0  0  0  0  0  0  0  0  0
   39.1660   27.9030   39.4620 Cl  0  0  0  0  0  0  0  0  0  0  0  0
   38.5850   28.0430   41.1050 C   0  0  0  0  0  0  0  0  0  0  0  0
   38.3120   29.3130   41.5660 C   0  0  0  0  0  0  0  0  0  0  0  0
   37.8630   29.3420   42.8900 C   0  0  0  0  0  0  0  0  0  0  0  0
   37.5930   30.2030   43.4490 H   0  0  0  0  0  0  0  0  0  0  0  0
   37.7140   28.2020   43.6450 C   0  0  0  0  0  0  0  0  0  0  0  0
   37.3770   28.1480   44.6610 H   0  0  0  0  0  0  0  0  0  0  0  0
   38.0100   26.9450   43.1100 C   0  0  0  0  0  3  0  0  0  0  0  0
   38.4560   26.8690   41.8080 C   0  0  0  0  0  3  0  0  0  0  0  0
  1  6  1  0  0  0  0
  1  7  1  1  0  0  0
  2  1  1  0  0  0  0
  2  8  1  0  0  0  0
  3  2  1  0  0  0  0
  3  4  1  0  0  0  0
  4 13  1  0  0  0  0
  4  5  1  0  0  0  0
  5 14  1  0  0  0  0
  6 16  1  6  0  0  0
  6  5  1  0  0  0  0
  6 28  1  0  0  0  0
  9  2  1  0  0  0  0
 10  3  1  0  0  0  0
 11  3  1  0  0  0  0
 12  4  1  0  0  0  0
 15  5  1  0  0  0  0
 17 22  1  0  0  0  0
 17  1  1  0  0  0  0
 18 17  2  0  0  0  0
 19 20  2  0  0  0  0
 19 18  1  0  0  0  0
 20 21  1  0  0  0  0
 21 25  1  0  0  0  0
 21 22  2  0  0  0  0
 23 18  1  0  0  0  0
 24 19  1  0  0  0  0
 26 27  1  0  0  0  0
 27 28  2  0  0  0  0
 27 34  1  0  0  0  0
 28 29  1  0  0  0  0
 29 30  1  0  0  0  0
 29 31  2  0  0  0  0
 31 32  1  0  0  0  0
 33 31  1  0  0  0  0
 34 33  2  0  0  0  0
M  END
>  <minimizedAffinity>
-5.18037653

$$$$

 OpenBabel03242511553D

 34 36  0  0  1  0  0  0  0  0999 V2000
   36.1240   29.6910   40.1390 C   0  0  2  0  0  0  0  0  0  0  0  0
   34.7750   29.1790   39.8310 C   0  0  0  0  0  0  0  0  0  0  0  0
   34.7000   28.4190   38.5340 C   0  0  0  0  0  0  0  0  0  0  0  0
   35.1570   29.2720   37.3770 C   0  0  0  0  0  0  0  0  0  0  0  0
   36.4440   29.9970   37.6620 C   0  0  0  0  0  0  0  0  0  0  0  0
   37.0790   29.5740   38.9670 C   0  0  1  0  0  0  0  0  0  0  0  0
   36.0410   30.7820   40.4290 H   0  0  0  0  0  0  0  0  0  0  0  0
   34.0360   30.0250   39.7040 H   0  0  0  0  0  0  0  0  0  0  0  0
   34.3240   28.5640   40.6360 H   0  0  0  0  0  0  0  0  0  0  0  0
   33.6360   28.1600   38.3530 H   0  0  0  0  0  0  0  0  0  0  0  0
   35.2800   27.5000   38.4810 H   0  0  0  0  0  0  0  0  0  0  0  0
   35.1840   28.6650   36.4570 H   0  0  0  0  0  0  0  0  0  0  0  0
   34.3670   30.0600   37.2350 H   0  0  0  0  0  0  0  0  0  0  0  0
   36.3540   31.0820   37.5790 H   0  0  0  0  0  0  0  0  0  0  0  0
   37.1640   29.6640   36.8680 H   0  0  0  0  0  0  0  0  0  0  0  0
   37.2820   28.4690   38.8630 H   0  0  0  0  0  0  0  0  0  0  0  0
   36.7360   29.0030   41.2920 C   0  0  0  0  0  0  0  0  0  0  0  0
   36.7310   27.5960   41.2460 C   0  0  0  0  0  0  0  0  0  0  0  0
   37.3010   26.8730   42.2940 C   0  0  0  0  0  0  0  0  0  0  0  0
   37.8410   27.6120   43.3280 N   0  0  0  0  0  0  0  0  0  0  0  0
   37.8310   28.9530   43.3440 C   0  0  0  0  0  0  0  0  0  0  0  0
   37.2790   29.6590   42.3280 N   0  0  0  0  0  0  0  0  0  0  0  0
   36.3410   26.9640   40.4980 H   0  0  0  0  0  0  0  0  0  0  0  0
   37.3540   25.8060   42.3650 H   0  0  0  0  0  0  0  0  0  0  0  0
   38.2670   29.4730   44.1740 H   0  0  0  0  0  0  0  0  0  0  0  0
   37.1760   32.6260   39.4990 Cl  0  0  0  0  0  0  0  0  0  0  0  0
   38.5810   31.5930   39.3760 C   0  0  0  0  0  0  0  0  0  0  0  0
   38.3530   30.2530   39.1460 C   0  0  0  0  0  0  0  0  0  0  0  0
   39.5250   29.4930   39.0710 C   0  0  0  0  0  0  0  0  0  0  0  0
   39.5920   28.4470   38.9010 H   0  0  0  0  0  0  0  0  0  0  0  0
   40.7760   30.0470   39.2170 C   0  0  0  0  0  0  0  0  0  0  0  0
   41.7140   29.5290   39.1720 H   0  0  0  0  0  0  0  0  0  0  0  0
   40.9310   31.4170   39.4480 C   0  0  0  0  0  3  0  0  0  0  0  0
   39.8020   32.2050   39.5290 C   0  0  0  0  0  3  0  0  0  0  0  0
  1  7  1  1  0  0  0
  1 17  1  0  0  0  0
  2  1  1  0  0  0  0
  2  9  1  0  0  0  0
  3  2  1  0  0  0  0
  4  5  1  0  0  0  0
  4  3  1  0  0  0  0
  5  6  1  0  0  0  0
  6 16  1  6  0  0  0
  6 28  1  0  0  0  0
  6  1  1  0  0  0  0
  8  2  1  0  0  0  0
 10  3  1  0  0  0  0
 11  3  1  0  0  0  0
 12  4  1  0  0  0  0
 13  4  1  0  0  0  0
 14  5  1  0  0  0  0
 15  5  1  0  0  0  0
 17 22  1  0  0  0  0
 18 17  2  0  0  0  0
 18 19  1  0  0  0  0
 19 24  1  0  0  0  0
 19 20  2  0  0  0  0
 20 21  1  0  0  0  0
 21 25  1  0  0  0  0
 22 21  2  0  0  0  0
 23 18  1  0  0  0  0
 27 26  1  0  0  0  0
 27 34  1  0  0  0  0
 28 27  2  0  0  0  0
 29 28  1  0  0  0  0
 29 31  2  0  0  0  0
 30 29  1  0  0  0  0
 31 33  1  0  0  0  0
 32 31  1  0  0  0  0
 33 34  2  0  0  0  0
M  END
>  <minimizedAffinity>
-5.14029598

$$$$

 OpenBabel03242511553D

 34 36  0  0  1  0  0  0  0  0999 V2000
   37.1500   29.4820   41.5630 C   0  0  2  0  0  0  0  0  0  0  0  0
   37.4090   29.0520   42.9500 C   0  0  0  0  0  0  0  0  0  0  0  0
   38.1350   27.7370   43.0480 C   0  0  0  0  0  0  0  0  0  0  0  0
   37.3700   26.6410   42.3490 C   0  0  0  0  0  0  0  0  0  0  0  0
   36.8900   27.0480   40.9830 C   0  0  0  0  0  0  0  0  0  0  0  0
   37.4290   28.3910   40.5470 C   0  0  1  0  0  0  0  0  0  0  0  0
   36.0640   29.7880   41.4740 H   0  0  0  0  0  0  0  0  0  0  0  0
   36.4430   28.8830   43.5120 H   0  0  0  0  0  0  0  0  0  0  0  0
   37.9390   29.8040   43.5710 H   0  0  0  0  0  0  0  0  0  0  0  0
   38.1980   27.4620   44.1220 H   0  0  0  0  0  0  0  0  0  0  0  0
   39.1430   27.7130   42.6390 H   0  0  0  0  0  0  0  0  0  0  0  0
   37.9670   25.7130   42.3520 H   0  0  0  0  0  0  0  0  0  0  0  0
   36.4530   26.4510   42.9700 H   0  0  0  0  0  0  0  0  0  0  0  0
   35.8060   26.9820   40.8690 H   0  0  0  0  0  0  0  0  0  0  0  0
   37.3420   26.3090   40.2680 H   0  0  0  0  0  0  0  0  0  0  0  0
   38.5520   28.2800   40.5360 H   0  0  0  0  0  0  0  0  0  0  0  0
   37.9450   30.6670   41.1840 C   0  0  0  0  0  0  0  0  0  0  0  0
   37.2210   31.7520   40.6540 C   0  0  0  0  0  0  0  0  0  0  0  0
   37.8990   32.9120   40.2810 C   0  0  0  0  0  0  0  0  0  0  0  0
   39.2670   32.9100   40.4640 N   0  0  0  0  0  0  0  0  0  0  0  0
   39.9300   31.8610   40.9710 C   0  0  0  0  0  0  0  0  0  0  0  0
   39.2750   30.7310   41.3350 N   0  0  0  0  0  0  0  0  0  0  0  0
   36.1830   31.8300   40.4840 H   0  0  0  0  0  0  0  0  0  0  0  0
   37.4540   33.7950   39.8690 H   0  0  0  0  0  0  0  0  0  0  0  0
   40.9940   31.9170   41.0910 H   0  0  0  0  0  0  0  0  0  0  0  0
   34.4750   29.1350   39.9750 Cl  0  0  0  0  0  0  0  0  0  0  0  0
   35.7270   29.0240   38.7590 C   0  0  0  0  0  0  0  0  0  0  0  0
   36.9920   28.6900   39.1920 C   0  0  0  0  0  0  0  0  0  0  0  0
   37.9370   28.6330   38.1620 C   0  0  0  0  0  0  0  0  0  0  0  0
   38.9670   28.3960   38.2610 H   0  0  0  0  0  0  0  0  0  0  0  0
   37.6160   28.8880   36.8500 C   0  0  0  0  0  0  0  0  0  0  0  0
   38.2850   28.8630   36.0120 H   0  0  0  0  0  0  0  0  0  0  0  0
   36.3090   29.2210   36.4820 C   0  0  0  0  0  3  0  0  0  0  0  0
   35.3440   29.2900   37.4650 C   0  0  0  0  0  3  0  0  0  0  0  0
  1  7  1  6  0  0  0
  1  2  1  0  0  0  0
  2  3  1  0  0  0  0
  2  8  1  0  0  0  0
  2  9  1  0  0  0  0
  3 10  1  0  0  0  0
  4 12  1  0  0  0  0
  4 13  1  0  0  0  0
  4  3  1  0  0  0  0
  5  4  1  0  0  0  0
  6 16  1  6  0  0  0
  6  5  1  0  0  0  0
  6  1  1  0  0  0  0
 11  3  1  0  0  0  0
 14  5  1  0  0  0  0
 15  5  1  0  0  0  0
 17 22  1  0  0  0  0
 17  1  1  0  0  0  0
 18 17  2  0  0  0  0
 19 20  2  0  0  0  0
 19 18  1  0  0  0  0
 20 21  1  0  0  0  0
 21 25  1  0  0  0  0
 21 22  2  0  0  0  0
 23 18  1  0  0  0  0
 24 19  1  0  0  0  0
 27 28  1  0  0  0  0
 27 26  1  0  0  0  0
 28  6  1  0  0  0  0
 29 30  1  0  0  0  0
 29 28  2  0  0  0  0
 31 29  1  0  0  0  0
 32 31  1  0  0  0  0
 33 31  2  0  0  0  0
 33 34  1  0  0  0  0
 34 27  2  0  0  0  0
M  END
>  <minimizedAffinity>
-5.13268232

$$$$

 OpenBabel03242511553D

 34 36  0  0  1  0  0  0  0  0999 V2000
   37.3080   28.2670   40.7360 C   0  0  2  0  0  0  0  0  0  0  0  0
   36.9770   27.1050   41.5830 C   0  0  0  0  0  0  0  0  0  0  0  0
   36.5410   27.4780   42.9750 C   0  0  0  0  0  0  0  0  0  0  0  0
   37.6020   28.2880   43.6780 C   0  0  0  0  0  0  0  0  0  0  0  0
   38.1500   29.3960   42.8210 C   0  0  0  0  0  0  0  0  0  0  0  0
   37.3960   29.5610   41.5210 C   0  0  1  0  0  0  0  0  0  0  0  0
   38.3060   28.0790   40.2370 H   0  0  0  0  0  0  0  0  0  0  0  0
   37.8790   26.4420   41.7390 H   0  0  0  0  0  0  0  0  0  0  0  0
   36.2260   26.4170   41.1420 H   0  0  0  0  0  0  0  0  0  0  0  0
   36.4050   26.5390   43.5520 H   0  0  0  0  0  0  0  0  0  0  0  0
   35.6200   28.0520   43.0520 H   0  0  0  0  0  0  0  0  0  0  0  0
   37.2210   28.6280   44.6550 H   0  0  0  0  0  0  0  0  0  0  0  0
   38.4540   27.5830   43.8780 H   0  0  0  0  0  0  0  0  0  0  0  0
   39.2290   29.3280   42.6660 H   0  0  0  0  0  0  0  0  0  0  0  0
   37.9580   30.3450   43.3890 H   0  0  0  0  0  0  0  0  0  0  0  0
   36.3320   29.8000   41.8140 H   0  0  0  0  0  0  0  0  0  0  0  0
   36.3330   28.4640   39.6460 C   0  0  0  0  0  0  0  0  0  0  0  0
   36.8110   28.2360   38.3410 C   0  0  0  0  0  0  0  0  0  0  0  0
   35.9470   28.3910   37.2570 C   0  0  0  0  0  0  0  0  0  0  0  0
   34.6530   28.7690   37.5520 N   0  0  0  0  0  0  0  0  0  0  0  0
   34.2260   28.9800   38.8060 C   0  0  0  0  0  0  0  0  0  0  0  0
   35.0610   28.8290   39.8620 N   0  0  0  0  0  0  0  0  0  0  0  0
   37.7780   27.9480   38.0370 H   0  0  0  0  0  0  0  0  0  0  0  0
   36.2000   28.2450   36.2260 H   0  0  0  0  0  0  0  0  0  0  0  0
   33.2080   29.2710   38.9750 H   0  0  0  0  0  0  0  0  0  0  0  0
   40.2700   29.4810   40.3630 Cl  0  0  0  0  0  0  0  0  0  0  0  0
   39.1720   30.8330   40.2080 C   0  0  0  0  0  0  0  0  0  0  0  0
   37.9240   30.6940   40.7770 C   0  0  0  0  0  0  0  0  0  0  0  0
   37.1020   31.8120   40.6000 C   0  0  0  0  0  0  0  0  0  0  0  0
   36.1070   31.9290   40.9510 H   0  0  0  0  0  0  0  0  0  0  0  0
   37.5170   32.9340   39.9200 C   0  0  0  0  0  0  0  0  0  0  0  0
   36.9440   33.8240   39.7460 H   0  0  0  0  0  0  0  0  0  0  0  0
   38.7990   33.0050   39.3690 C   0  0  0  0  0  3  0  0  0  0  0  0
   39.6440   31.9250   39.5190 C   0  0  0  0  0  3  0  0  0  0  0  0
  1  7  1  6  0  0  0
  1  6  1  0  0  0  0
  1  2  1  0  0  0  0
  2  8  1  0  0  0  0
  2  3  1  0  0  0  0
  3 11  1  0  0  0  0
  3 10  1  0  0  0  0
  3  4  1  0  0  0  0
  4 13  1  0  0  0  0
  4 12  1  0  0  0  0
  5 15  1  0  0  0  0
  5  4  1  0  0  0  0
  6 16  1  1  0  0  0
  6  5  1  0  0  0  0
  9  2  1  0  0  0  0
 14  5  1  0  0  0  0
 17 22  1  0  0  0  0
 17  1  1  0  0  0  0
 18 17  2  0  0  0  0
 19 20  2  0  0  0  0
 19 18  1  0  0  0  0
 20 21  1  0  0  0  0
 21 25  1  0  0  0  0
 21 22  2  0  0  0  0
 23 18  1  0  0  0  0
 24 19  1  0  0  0  0
 27 26  1  0  0  0  0
 27 28  1  0  0  0  0
 28  6  1  0  0  0  0
 29 28  2  0  0  0  0
 29 30  1  0  0  0  0
 31 29  1  0  0  0  0
 32 31  1  0  0  0  0
 33 34  1  0  0  0  0
 33 31  2  0  0  0  0
 34 27  2  0  0  0  0
M  END
>  <minimizedAffinity>
-5.09455061

$$$$

 OpenBabel03242511553D

 34 36  0  0  1  0  0  0  0  0999 V2000
   37.6830   26.9500   42.5190 C   0  0  2  0  0  0  0  0  0  0  0  0
   38.4540   27.4370   43.6790 C   0  0  0  0  0  0  0  0  0  0  0  0
   39.8930   26.9950   43.6750 C   0  0  0  0  0  0  0  0  0  0  0  0
   40.0000   25.4910   43.6330 C   0  0  0  0  0  0  0  0  0  0  0  0
   39.0990   24.8720   42.5990 C   0  0  0  0  0  0  0  0  0  0  0  0
   38.4260   25.8990   41.7180 C   0  0  1  0  0  0  0  0  0  0  0  0
   36.7130   26.5010   42.8910 H   0  0  0  0  0  0  0  0  0  0  0  0
   38.0370   27.0280   44.6470 H   0  0  0  0  0  0  0  0  0  0  0  0
   38.4140   28.5350   43.8270 H   0  0  0  0  0  0  0  0  0  0  0  0
   40.3560   27.3330   44.6250 H   0  0  0  0  0  0  0  0  0  0  0  0
   40.5060   27.3650   42.8560 H   0  0  0  0  0  0  0  0  0  0  0  0
   41.0580   25.1970   43.5340 H   0  0  0  0  0  0  0  0  0  0  0  0
   39.6430   25.1230   44.6340 H   0  0  0  0  0  0  0  0  0  0  0  0
   38.3880   24.1590   43.0190 H   0  0  0  0  0  0  0  0  0  0  0  0
   39.7750   24.2980   41.9100 H   0  0  0  0  0  0  0  0  0  0  0  0
   39.2620   26.4580   41.2060 H   0  0  0  0  0  0  0  0  0  0  0  0
   37.3060   28.0390   41.5980 C   0  0  0  0  0  0  0  0  0  0  0  0
   35.9250   28.2270   41.3950 C   0  0  0  0  0  0  0  0  0  0  0  0
   35.4890   29.2430   40.5450 C   0  0  0  0  0  0  0  0  0  0  0  0
   36.4700   30.0100   39.9500 N   0  0  0  0  0  0  0  0  0  0  0  0
   37.7780   29.8080   40.1620 C   0  0  0  0  0  0  0  0  0  0  0  0
   38.2070   28.8220   40.9870 N   0  0  0  0  0  0  0  0  0  0  0  0
   35.1210   27.6870   41.8100 H   0  0  0  0  0  0  0  0  0  0  0  0
   34.4680   29.4770   40.3170 H   0  0  0  0  0  0  0  0  0  0  0  0
   38.4960   30.4370   39.6720 H   0  0  0  0  0  0  0  0  0  0  0  0
   39.0260   26.3690   38.7130 Cl  0  0  0  0  0  0  0  0  0  0  0  0
   37.7520   25.3390   39.3240 C   0  0  0  0  0  0  0  0  0  0  0  0
   37.6330   25.2360   40.6940 C   0  0  0  0  0  0  0  0  0  0  0  0
   36.5990   24.3860   41.1020 C   0  0  0  0  0  0  0  0  0  0  0  0
   36.3250   24.1590   42.1020 H   0  0  0  0  0  0  0  0  0  0  0  0
   35.7900   23.7250   40.2080 C   0  0  0  0  0  0  0  0  0  0  0  0
   34.9820   23.0610   40.4480 H   0  0  0  0  0  0  0  0  0  0  0  0
   35.9680   23.8780   38.8300 C   0  0  0  0  0  3  0  0  0  0  0  0
   36.9750   24.7060   38.3820 C   0  0  0  0  0  3  0  0  0  0  0  0
  1  7  1  1  0  0  0
  1  2  1  0  0  0  0
  2  9  1  0  0  0  0
  2  8  1  0  0  0  0
  3  2  1  0  0  0  0
  3 10  1  0  0  0  0
  4  3  1  0  0  0  0
  4 13  1  0  0  0  0
  5 14  1  0  0  0  0
  5  4  1  0  0  0  0
  6 16  1  6  0  0  0
  6  1  1  0  0  0  0
  6  5  1  0  0  0  0
 11  3  1  0  0  0  0
 12  4  1  0  0  0  0
 15  5  1  0  0  0  0
 17  1  1  0  0  0  0
 18 17  1  0  0  0  0
 18 23  1  0  0  0  0
 19 18  2  0  0  0  0
 20 21  2  0  0  0  0
 20 19  1  0  0  0  0
 21 22  1  0  0  0  0
 22 17  2  0  0  0  0
 24 19  1  0  0  0  0
 25 21  1  0  0  0  0
 26 27  1  0  0  0  0
 27 28  1  0  0  0  0
 28 29  2  0  0  0  0
 28  6  1  0  0  0  0
 29 30  1  0  0  0  0
 31 32  1  0  0  0  0
 31 29  1  0  0  0  0
 33 31  2  0  0  0  0
 34 33  1  0  0  0  0
 34 27  2  0  0  0  0
M  END
>  <minimizedAffinity>
-5.06782913

$$$$

 OpenBabel03242511553D

 34 36  0  0  1  0  0  0  0  0999 V2000
   37.6410   29.3120   38.9320 C   0  0  2  0  0  0  0  0  0  0  0  0
   36.9810   29.5640   37.6370 C   0  0  0  0  0  0  0  0  0  0  0  0
   35.4980   29.3090   37.6560 C   0  0  0  0  0  0  0  0  0  0  0  0
   35.1960   27.8910   38.0730 C   0  0  0  0  0  0  0  0  0  0  0  0
   35.9710   27.4640   39.2890 C   0  0  0  0  0  0  0  0  0  0  0  0
   36.7400   28.6000   39.9220 C   0  0  1  0  0  0  0  0  0  0  0  0
   38.5570   28.6720   38.7540 H   0  0  0  0  0  0  0  0  0  0  0  0
   37.3750   28.8710   36.8350 H   0  0  0  0  0  0  0  0  0  0  0  0
   37.1680   30.5740   37.2170 H   0  0  0  0  0  0  0  0  0  0  0  0
   35.1160   29.4380   36.6220 H   0  0  0  0  0  0  0  0  0  0  0  0
   34.9090   29.9490   38.3100 H   0  0  0  0  0  0  0  0  0  0  0  0
   34.1050   27.7580   38.1720 H   0  0  0  0  0  0  0  0  0  0  0  0
   35.5370   27.2350   37.2260 H   0  0  0  0  0  0  0  0  0  0  0  0
   36.5990   26.5880   39.1140 H   0  0  0  0  0  0  0  0  0  0  0  0
   35.2030   27.1730   40.0540 H   0  0  0  0  0  0  0  0  0  0  0  0
   35.9660   29.3670   40.2170 H   0  0  0  0  0  0  0  0  0  0  0  0
   38.1230   30.5530   39.5680 C   0  0  0  0  0  0  0  0  0  0  0  0
   37.1740   31.5830   39.7100 C   0  0  0  0  0  0  0  0  0  0  0  0
   37.5490   32.7840   40.3110 C   0  0  0  0  0  0  0  0  0  0  0  0
   38.8610   32.8770   40.7330 N   0  0  0  0  0  0  0  0  0  0  0  0
   39.7430   31.8780   40.5840 C   0  0  0  0  0  0  0  0  0  0  0  0
   39.3830   30.7090   40.0010 N   0  0  0  0  0  0  0  0  0  0  0  0
   36.1620   31.5890   39.4160 H   0  0  0  0  0  0  0  0  0  0  0  0
   36.9150   33.6330   40.4710 H   0  0  0  0  0  0  0  0  0  0  0  0
   40.7490   32.0070   40.9320 H   0  0  0  0  0  0  0  0  0  0  0  0
   39.2220   26.7510   39.7520 Cl  0  0  0  0  0  0  0  0  0  0  0  0
   38.5010   27.3140   41.2420 C   0  0  0  0  0  0  0  0  0  0  0  0
   37.4040   28.1410   41.1330 C   0  0  0  0  0  0  0  0  0  0  0  0
   36.8940   28.5570   42.3670 C   0  0  0  0  0  0  0  0  0  0  0  0
   36.0580   29.1920   42.5260 H   0  0  0  0  0  0  0  0  0  0  0  0
   37.4460   28.1660   43.5650 C   0  0  0  0  0  0  0  0  0  0  0  0
   37.1100   28.4440   44.5450 H   0  0  0  0  0  0  0  0  0  0  0  0
   38.5610   27.3230   43.5990 C   0  0  0  0  0  3  0  0  0  0  0  0
   39.0980   26.8890   42.4060 C   0  0  0  0  0  3  0  0  0  0  0  0
  1  7  1  6  0  0  0
  1 17  1  0  0  0  0
  1  6  1  0  0  0  0
  2  3  1  0  0  0  0
  2  1  1  0  0  0  0
  3  4  1  0  0  0  0
  3 11  1  0  0  0  0
  4 12  1  0  0  0  0
  4  5  1  0  0  0  0
  5  6  1  0  0  0  0
  5 15  1  0  0  0  0
  6 16  1  1  0  0  0
  6 28  1  0  0  0  0
  8  2  1  0  0  0  0
  9  2  1  0  0  0  0
 10  3  1  0  0  0  0
 13  4  1  0  0  0  0
 14  5  1  0  0  0  0
 17 18  2  0  0  0  0
 17 22  1  0  0  0  0
 18 19  1  0  0  0  0
 19 24  1  0  0  0  0
 19 20  2  0  0  0  0
 21 20  1  0  0  0  0
 21 25  1  0  0  0  0
 22 21  2  0  0  0  0
 23 18  1  0  0  0  0
 26 27  1  0  0  0  0
 27 34  1  0  0  0  0
 28 27  2  0  0  0  0
 28 29  1  0  0  0  0
 29 30  1  0  0  0  0
 29 31  2  0  0  0  0
 31 33  1  0  0  0  0
 31 32  1  0  0  0  0
 34 33  2  0  0  0  0
M  END
>  <minimizedAffinity>
-4.9960804

$$$$

 OpenBabel03242511553D

 34 36  0  0  1  0  0  0  0  0999 V2000
   38.9000   31.0280   39.6720 C   0  0  2  0  0  0  0  0  0  0  0  0
   39.6340   32.1080   40.3590 C   0  0  0  0  0  0  0  0  0  0  0  0
   38.7400   33.1730   40.9360 C   0  0  0  0  0  0  0  0  0  0  0  0
   37.8750   33.7940   39.8680 C   0  0  0  0  0  0  0  0  0  0  0  0
   37.2210   32.7700   38.9810 C   0  0  0  0  0  0  0  0  0  0  0  0
   37.4330   31.3540   39.4640 C   0  0  1  0  0  0  0  0  0  0  0  0
   39.3770   30.8500   38.6610 H   0  0  0  0  0  0  0  0  0  0  0  0
   40.3070   32.6650   39.6410 H   0  0  0  0  0  0  0  0  0  0  0  0
   40.3320   31.7580   41.1460 H   0  0  0  0  0  0  0  0  0  0  0  0
   39.3870   33.9760   41.3450 H   0  0  0  0  0  0  0  0  0  0  0  0
   38.0630   32.8550   41.7270 H   0  0  0  0  0  0  0  0  0  0  0  0
   37.1640   34.4990   40.3310 H   0  0  0  0  0  0  0  0  0  0  0  0
   38.5640   34.3940   39.2140 H   0  0  0  0  0  0  0  0  0  0  0  0
   37.4760   32.8890   37.9260 H   0  0  0  0  0  0  0  0  0  0  0  0
   36.1160   32.9450   39.0750 H   0  0  0  0  0  0  0  0  0  0  0  0
   36.9740   31.3100   40.4940 H   0  0  0  0  0  0  0  0  0  0  0  0
   38.9800   29.7450   40.3970 C   0  0  0  0  0  0  0  0  0  0  0  0
   38.6550   29.7880   41.7660 C   0  0  0  0  0  0  0  0  0  0  0  0
   38.6980   28.6140   42.5180 C   0  0  0  0  0  0  0  0  0  0  0  0
   39.0660   27.4660   41.8460 N   0  0  0  0  0  0  0  0  0  0  0  0
   39.3700   27.4560   40.5400 C   0  0  0  0  0  0  0  0  0  0  0  0
   39.3300   28.5940   39.8050 N   0  0  0  0  0  0  0  0  0  0  0  0
   38.3680   30.6180   42.3480 H   0  0  0  0  0  0  0  0  0  0  0  0
   38.4720   28.5280   43.5620 H   0  0  0  0  0  0  0  0  0  0  0  0
   39.6490   26.5330   40.0700 H   0  0  0  0  0  0  0  0  0  0  0  0
   35.2910   29.4580   40.6560 Cl  0  0  0  0  0  0  0  0  0  0  0  0
   35.7490   29.5060   38.9690 C   0  0  0  0  0  0  0  0  0  0  0  0
   36.7150   30.4210   38.6090 C   0  0  0  0  0  0  0  0  0  0  0  0
   37.0170   30.4050   37.2440 C   0  0  0  0  0  0  0  0  0  0  0  0
   37.7260   31.0170   36.7450 H   0  0  0  0  0  0  0  0  0  0  0  0
   36.3990   29.5510   36.3600 C   0  0  0  0  0  0  0  0  0  0  0  0
   36.5790   29.4830   35.3050 H   0  0  0  0  0  0  0  0  0  0  0  0
   35.4260   28.6470   36.7970 C   0  0  0  0  0  3  0  0  0  0  0  0
   35.0970   28.6280   38.1360 C   0  0  0  0  0  3  0  0  0  0  0  0
  1  7  1  6  0  0  0
  1  2  1  0  0  0  0
  1 17  1  0  0  0  0
  2  3  1  0  0  0  0
  2  9  1  0  0  0  0
  3 10  1  0  0  0  0
  3 11  1  0  0  0  0
  4 12  1  0  0  0  0
  4  3  1  0  0  0  0
  5 15  1  0  0  0  0
  5  6  1  0  0  0  0
  5  4  1  0  0  0  0
  6  1  1  0  0  0  0
  6 16  1  1  0  0  0
  8  2  1  0  0  0  0
 13  4  1  0  0  0  0
 14  5  1  0  0  0  0
 17 18  1  0  0  0  0
 18 23  1  0  0  0  0
 18 19  2  0  0  0  0
 19 24  1  0  0  0  0
 20 19  1  0  0  0  0
 21 20  2  0  0  0  0
 22 17  2  0  0  0  0
 22 21  1  0  0  0  0
 25 21  1  0  0  0  0
 27 26  1  0  0  0  0
 28 27  1  0  0  0  0
 28  6  1  0  0  0  0
 29 28  2  0  0  0  0
 30 29  1  0  0  0  0
 31 33  2  0  0  0  0
 31 29  1  0  0  0  0
 32 31  1  0  0  0  0
 33 34  1  0  0  0  0
 34 27  2  0  0  0  0
M  END
>  <minimizedAffinity>
-4.97743988

$$$$
