
 OpenBabel03252506183D

 23 24  0  0  0  0  0  0  0  0999 V2000
   45.0920   35.6360   43.7930 C   0  0  0  0  0  0  0  0  0  0  0  0
   44.9510   35.2790   42.4380 C   0  0  0  0  0  0  0  0  0  0  0  0
   45.2170   33.9420   42.0990 C   0  0  0  0  0  0  0  0  0  0  0  0
   45.5870   33.0780   43.0680 N   0  0  0  0  0  0  0  0  0  0  0  0
   45.7090   33.4660   44.3640 C   0  0  0  0  0  0  0  0  0  0  0  0
   45.4620   34.7430   44.7220 N   0  0  0  0  0  0  0  0  0  0  0  0
   44.6520   36.0120   41.7030 H   0  0  0  0  0  0  0  0  0  0  0  0
   45.1130   33.6560   41.0610 H   0  0  0  0  0  0  0  0  0  0  0  0
   44.9610   30.6200   43.6460 Cl  0  0  0  0  0  0  0  0  0  0  0  0
   45.8020   31.1220   45.0760 C   0  0  0  0  0  0  0  0  0  0  0  0
   46.1170   32.4570   45.3450 C   0  0  0  0  0  0  0  0  0  0  0  0
   46.7810   32.8840   46.4680 C   0  0  0  0  0  0  0  0  0  0  0  0
   47.0060   33.9270   46.6380 H   0  0  0  0  0  0  0  0  0  0  0  0
   47.1470   31.9040   47.3670 C   0  0  0  0  0  0  0  0  0  0  0  0
   47.6780   32.1920   48.2750 H   0  0  0  0  0  0  0  0  0  0  0  0
   46.8910   30.5580   47.2060 C   0  0  0  0  0  3  0  0  0  0  0  0
   46.2150   30.2220   46.0430 C   0  0  0  0  0  3  0  0  0  0  0  0
   44.8160   37.0360   44.1690 C   0  0  0  0  0  3  0  0  0  0  0  0
   45.5240   37.9800   43.5870 C   0  0  0  0  0  3  0  0  0  0  0  0
   45.2840   39.4110   43.9330 C   0  0  0  0  0  0  0  0  0  0  0  0
   45.3770   39.4810   45.0460 H   0  0  0  0  0  0  0  0  0  0  0  0
   46.0530   40.0640   43.4990 H   0  0  0  0  0  0  0  0  0  0  0  0
   44.2480   39.7190   43.6350 H   0  0  0  0  0  0  0  0  0  0  0  0
  1 18  1  0  0  0  0
  1  6  1  0  0  0  0
  2  1  2  0  0  0  0
  3  2  1  0  0  0  0
  3  4  2  0  0  0  0
  4  5  1  0  0  0  0
  5  6  2  0  0  0  0
  5 11  1  0  0  0  0
  7  2  1  0  0  0  0
  8  3  1  0  0  0  0
  9 10  1  0  0  0  0
 10 11  2  0  0  0  0
 10 17  1  0  0  0  0
 11 12  1  0  0  0  0
 12 13  1  0  0  0  0
 12 14  2  0  0  0  0
 14 15  1  0  0  0  0
 16 14  1  0  0  0  0
 17 16  2  0  0  0  0
 19 20  1  0  0  0  0
 19 18  2  0  0  0  0
 20 21  1  0  0  0  0
 22 20  1  0  0  0  0
 23 20  1  0  0  0  0
M  END
>  <minimizedAffinity>
-3.51320314

>  <minimizedRMSD>
1.30943334

$$$$
