
 OpenBabel03252506183D

 23 24  0  0  0  0  0  0  0  0999 V2000
   44.8410   35.5850   43.6180 C   0  0  0  0  0  0  0  0  0  0  0  0
   43.9520   35.3720   42.5470 C   0  0  0  0  0  0  0  0  0  0  0  0
   43.9150   34.0810   41.9950 C   0  0  0  0  0  0  0  0  0  0  0  0
   44.7160   33.1220   42.5080 N   0  0  0  0  0  0  0  0  0  0  0  0
   45.5580   33.3720   43.5440 C   0  0  0  0  0  0  0  0  0  0  0  0
   45.6180   34.6020   44.0950 N   0  0  0  0  0  0  0  0  0  0  0  0
   43.3340   36.1760   42.1750 H   0  0  0  0  0  0  0  0  0  0  0  0
   43.2370   33.9050   41.1710 H   0  0  0  0  0  0  0  0  0  0  0  0
   48.0410   32.8250   41.8950 Cl  0  0  0  0  0  0  0  0  0  0  0  0
   47.5520   31.9620   43.3170 C   0  0  0  0  0  0  0  0  0  0  0  0
   46.3890   32.2680   44.0320 C   0  0  0  0  0  0  0  0  0  0  0  0
   45.9770   31.6050   45.1600 C   0  0  0  0  0  0  0  0  0  0  0  0
   45.0700   31.8720   45.6830 H   0  0  0  0  0  0  0  0  0  0  0  0
   46.7860   30.5730   45.5870 C   0  0  0  0  0  0  0  0  0  0  0  0
   46.5020   30.0130   46.4780 H   0  0  0  0  0  0  0  0  0  0  0  0
   47.9540   30.1820   44.9630 C   0  0  0  0  0  3  0  0  0  0  0  0
   48.2900   30.9110   43.8320 C   0  0  0  0  0  3  0  0  0  0  0  0
   44.8940   36.9350   44.2110 C   0  0  0  0  0  3  0  0  0  0  0  0
   45.3240   37.9230   43.4550 C   0  0  0  0  0  3  0  0  0  0  0  0
   45.3970   39.3060   44.0080 C   0  0  0  0  0  0  0  0  0  0  0  0
   46.0070   39.2340   44.9430 H   0  0  0  0  0  0  0  0  0  0  0  0
   45.9260   39.9840   43.3250 H   0  0  0  0  0  0  0  0  0  0  0  0
   44.3730   39.6800   44.2690 H   0  0  0  0  0  0  0  0  0  0  0  0
  1  6  1  0  0  0  0
  1 18  1  0  0  0  0
  2  1  2  0  0  0  0
  3  4  2  0  0  0  0
  3  2  1  0  0  0  0
  4  5  1  0  0  0  0
  5 11  1  0  0  0  0
  5  6  2  0  0  0  0
  7  2  1  0  0  0  0
  8  3  1  0  0  0  0
  9 10  1  0  0  0  0
 10 17  2  0  0  0  0
 10 11  1  0  0  0  0
 11 12  2  0  0  0  0
 12 14  1  0  0  0  0
 12 13  1  0  0  0  0
 14 15  1  0  0  0  0
 16 14  2  0  0  0  0
 17 16  1  0  0  0  0
 19 20  1  0  0  0  0
 19 18  2  0  0  0  0
 20 23  1  0  0  0  0
 20 21  1  0  0  0  0
 22 20  1  0  0  0  0
M  END
>  <minimizedAffinity>
-3.30675745

>  <minimizedRMSD>
0.955808699

$$$$
