
 OpenBabel03242516503D

 43 46  0  0  1  0  0  0  0  0999 V2000
   47.8610   32.9270   41.8800 C   0  0  1  0  0  0  0  0  0  0  0  0
   47.5580   32.1310   40.6700 C   0  0  0  0  0  0  0  0  0  0  0  0
   48.5660   32.5620   39.6010 C   0  0  0  0  0  0  0  0  0  0  0  0
   48.2040   33.9970   39.2270 C   0  0  0  0  0  0  0  0  0  0  0  0
   48.1070   34.9260   40.3730 C   0  0  0  0  0  0  0  0  0  0  0  0
   47.6270   34.4060   41.6610 C   0  0  1  0  0  0  0  0  0  0  0  0
   48.9730   32.8670   42.0750 H   0  0  0  0  0  0  0  0  0  0  0  0
   47.7900   31.0500   40.9230 H   0  0  0  0  0  0  0  0  0  0  0  0
   46.5350   32.2450   40.3120 H   0  0  0  0  0  0  0  0  0  0  0  0
   48.3800   31.9590   38.6900 H   0  0  0  0  0  0  0  0  0  0  0  0
   49.5830   32.4770   39.9850 H   0  0  0  0  0  0  0  0  0  0  0  0
   47.3270   33.9590   38.5770 H   0  0  0  0  0  0  0  0  0  0  0  0
   49.0490   34.3250   38.5540 H   0  0  0  0  0  0  0  0  0  0  0  0
   47.4020   35.7530   40.0590 H   0  0  0  0  0  0  0  0  0  0  0  0
   49.0810   35.4540   40.4890 H   0  0  0  0  0  0  0  0  0  0  0  0
   48.2030   34.9160   42.4880 H   0  0  0  0  0  0  0  0  0  0  0  0
   45.6420   30.9960   44.2420 C   0  0  0  0  0  0  0  0  0  0  0  0
   46.2980   31.4560   43.1030 C   0  0  0  0  0  0  0  0  0  0  0  0
   47.2150   32.4840   43.1080 C   0  0  0  0  0  0  0  0  0  0  0  0
   47.4580   33.0420   44.3050 N   0  0  0  0  0  0  0  0  0  0  0  0
   46.8320   32.6100   45.4270 C   0  0  0  0  0  0  0  0  0  0  0  0
   45.9500   31.6210   45.4150 N   0  0  0  0  0  0  0  0  0  0  0  0
   44.9350   30.1760   44.1260 H   0  0  0  0  0  0  0  0  0  0  0  0
   46.0660   30.9730   42.1610 H   0  0  0  0  0  0  0  0  0  0  0  0
   47.0290   33.0630   46.3960 H   0  0  0  0  0  0  0  0  0  0  0  0
   46.2210   34.7680   41.9390 C   0  0  0  0  0  0  0  0  0  0  0  0
   45.7740   35.6890   42.8940 C   0  0  0  0  0  0  0  0  0  0  0  0
   44.3910   35.8730   42.9410 C   0  0  0  0  0  0  0  0  0  0  0  0
   43.6060   35.1600   42.0750 C   0  0  0  0  0  0  0  0  0  0  0  0
   44.0470   34.2700   41.1520 C   0  0  0  0  0  0  0  0  0  0  0  0
   45.3850   34.0920   41.1070 N   0  0  0  0  0  0  0  0  0  0  0  0
   46.5170   36.1450   43.4750 H   0  0  0  0  0  0  0  0  0  0  0  0
   44.0400   36.5750   43.6680 H   0  0  0  0  0  0  0  0  0  0  0  0
   42.5800   35.3810   42.2000 H   0  0  0  0  0  0  0  0  0  0  0  0
   42.3080   35.5990   38.8810 Cl  0  0  0  0  0  0  0  0  0  0  0  0
   42.4420   33.8920   39.1880 C   0  0  0  0  0  0  0  0  0  0  0  0
   43.2440   33.4980   40.2180 C   0  0  0  0  0  0  0  0  0  0  0  0
   43.2670   32.1220   40.3600 C   0  0  0  0  0  0  0  0  0  0  0  0
   43.8300   31.6150   41.1010 H   0  0  0  0  0  0  0  0  0  0  0  0
   42.5580   31.2590   39.5510 C   0  0  0  0  0  0  0  0  0  0  0  0
   42.5890   30.1880   39.6770 H   0  0  0  0  0  0  0  0  0  0  0  0
   41.7670   31.7340   38.5280 C   0  0  0  0  0  3  0  0  0  0  0  0
   41.7250   33.0970   38.3640 C   0  0  0  0  0  3  0  0  0  0  0  0
  1  7  1  1  0  0  0
  1 19  1  0  0  0  0
  2  8  1  0  0  0  0
  2  1  1  0  0  0  0
  3 11  1  0  0  0  0
  3  2  1  0  0  0  0
  4  3  1  0  0  0  0
  4  5  1  0  0  0  0
  5 15  1  0  0  0  0
  5  6  1  0  0  0  0
  6  1  1  0  0  0  0
  6 26  1  0  0  0  0
  6 16  1  1  0  0  0
  9  2  1  0  0  0  0
 10  3  1  0  0  0  0
 12  4  1  0  0  0  0
 13  4  1  0  0  0  0
 14  5  1  0  0  0  0
 17 22  1  0  0  0  0
 18 19  1  0  0  0  0
 18 17  2  0  0  0  0
 19 20  2  0  0  0  0
 20 21  1  0  0  0  0
 21 25  1  0  0  0  0
 22 21  2  0  0  0  0
 23 17  1  0  0  0  0
 24 18  1  0  0  0  0
 26 27  1  0  0  0  0
 27 28  2  0  0  0  0
 27 32  1  0  0  0  0
 28 33  1  0  0  0  0
 29 34  1  0  0  0  0
 29 28  1  0  0  0  0
 30 29  2  0  0  0  0
 31 30  1  0  0  0  0
 31 26  2  0  0  0  0
 35 36  1  0  0  0  0
 36 37  1  0  0  0  0
 37 38  2  0  0  0  0
 37 30  1  0  0  0  0
 38 39  1  0  0  0  0
 40 41  1  0  0  0  0
 40 38  1  0  0  0  0
 42 40  2  0  0  0  0
 43 42  1  0  0  0  0
 43 36  2  0  0  0  0
M  END
>  <minimizedAffinity>
-5.43685579

>  <minimizedRMSD>
0.930323005

$$$$
