
 OpenBabel03252507443D

 31 33  0  0  0  0  0  0  0  0999 V2000
   35.2430   28.1510   38.4990 C   0  0  0  0  0  0  0  0  0  0  0  0
   35.2150   27.1760   39.0600 H   0  0  0  0  0  0  0  0  0  0  0  0
   36.1940   28.1130   37.9230 H   0  0  0  0  0  0  0  0  0  0  0  0
   34.0710   28.2310   37.5850 C   0  0  0  0  0  0  0  0  0  0  0  0
   33.7140   27.0840   36.7860 C   0  0  0  0  0  0  0  0  0  0  0  0
   32.2350   27.7160   35.8710 S   0  0  0  0  0  0  0  0  0  0  0  0
   32.3780   29.3830   36.7320 C   0  0  0  0  0  0  0  0  0  0  0  0
   33.2790   29.2620   37.4050 N   0  0  0  0  0  0  0  0  0  0  0  0
   34.2150   26.1410   36.7700 H   0  0  0  0  0  0  0  0  0  0  0  0
   30.2310   30.1200   38.8030 Cl  0  0  0  0  0  0  0  0  0  0  0  0
   30.3670   30.8160   37.2200 C   0  0  0  0  0  0  0  0  0  0  0  0
   31.3460   30.4340   36.3670 C   0  0  0  0  0  0  0  0  0  0  0  0
   31.5450   30.9120   35.1100 C   0  0  0  0  0  0  0  0  0  0  0  0
   32.3330   30.5950   34.4400 H   0  0  0  0  0  0  0  0  0  0  0  0
   30.6700   31.8750   34.6580 C   0  0  0  0  0  0  0  0  0  0  0  0
   30.7210   32.3330   33.6820 H   0  0  0  0  0  0  0  0  0  0  0  0
   29.6480   32.3020   35.4950 C   0  0  0  0  0  3  0  0  0  0  0  0
   29.4660   31.7950   36.7860 C   0  0  0  0  0  3  0  0  0  0  0  0
   35.2820   29.2340   39.5320 C   0  0  0  0  0  0  0  0  0  0  0  0
   35.5210   30.1760   39.0540 H   0  0  0  0  0  0  0  0  0  0  0  0
   34.2190   29.3530   39.9000 H   0  0  0  0  0  0  0  0  0  0  0  0
   36.1670   28.9370   40.6750 C   0  0  0  0  0  0  0  0  0  0  0  0
   37.0030   29.9770   41.1220 C   0  0  0  0  0  0  0  0  0  0  0  0
   37.8480   29.7430   42.1900 C   0  0  0  0  0  0  0  0  0  0  0  0
   37.8430   28.5070   42.7730 N   0  0  0  0  0  0  0  0  0  0  0  0
   37.0250   27.5340   42.3150 C   0  0  0  0  0  0  0  0  0  0  0  0
   36.2180   27.7660   41.2930 N   0  0  0  0  0  0  0  0  0  0  0  0
   38.4760   30.5690   42.5040 H   0  0  0  0  0  0  0  0  0  0  0  0
   37.1020   26.5940   42.8510 H   0  0  0  0  0  0  0  0  0  0  0  0
   36.9580   31.5830   40.3050 S   0  0  0  0  0  0  0  0  0  0  0  0
   37.9060   31.6020   39.2590 H   0  0  0  0  0  0  0  0  0  0  0  0
  1  2  1  0  0  0  0
  1 19  1  0  0  0  0
  3  1  1  0  0  0  0
  4  1  1  0  0  0  0
  5  4  2  0  0  0  0
  6  7  1  0  0  0  0
  6  5  1  0  0  0  0
  7  8  2  0  0  0  0
  8  4  1  0  0  0  0
  9  5  1  0  0  0  0
 11 10  1  0  0  0  0
 12  7  1  0  0  0  0
 12 11  2  0  0  0  0
 13 12  1  0  0  0  0
 14 13  1  0  0  0  0
 15 13  2  0  0  0  0
 15 17  1  0  0  0  0
 16 15  1  0  0  0  0
 17 18  2  0  0  0  0
 18 11  1  0  0  0  0
 19 21  1  0  0  0  0
 19 22  1  0  0  0  0
 20 19  1  0  0  0  0
 22 23  2  0  0  0  0
 22 27  1  0  0  0  0
 23 24  1  0  0  0  0
 24 28  1  0  0  0  0
 24 25  2  0  0  0  0
 26 25  1  0  0  0  0
 26 29  1  0  0  0  0
 27 26  2  0  0  0  0
 30 23  1  0  0  0  0
 31 30  1  0  0  0  0
M  END
>  <minimizedAffinity>
-5.1253829

$$$$

 OpenBabel03252507443D

 31 33  0  0  0  0  0  0  0  0999 V2000
   36.4660   27.5130   42.8550 C   0  0  0  0  0  0  0  0  0  0  0  0
   36.9400   27.9680   43.7690 H   0  0  0  0  0  0  0  0  0  0  0  0
   35.3860   27.4370   43.1120 H   0  0  0  0  0  0  0  0  0  0  0  0
   36.6750   28.4110   41.6880 C   0  0  0  0  0  0  0  0  0  0  0  0
   36.2120   28.0010   40.3840 C   0  0  0  0  0  0  0  0  0  0  0  0
   36.7120   29.4440   39.3410 S   0  0  0  0  0  0  0  0  0  0  0  0
   37.4390   30.3150   40.8430 C   0  0  0  0  0  0  0  0  0  0  0  0
   37.2530   29.5890   41.6900 N   0  0  0  0  0  0  0  0  0  0  0  0
   35.7150   27.0850   40.1470 H   0  0  0  0  0  0  0  0  0  0  0  0
   40.3570   30.7660   41.6950 Cl  0  0  0  0  0  0  0  0  0  0  0  0
   39.3390   31.9610   40.9560 C   0  0  0  0  0  0  0  0  0  0  0  0
   38.0610   31.6790   40.6100 C   0  0  0  0  0  0  0  0  0  0  0  0
   37.1810   32.5350   40.0290 C   0  0  0  0  0  0  0  0  0  0  0  0
   36.1610   32.2940   39.7600 H   0  0  0  0  0  0  0  0  0  0  0  0
   37.6260   33.8130   39.7660 C   0  0  0  0  0  0  0  0  0  0  0  0
   37.0260   34.5830   39.3080 H   0  0  0  0  0  0  0  0  0  0  0  0
   38.9300   34.1520   40.1010 C   0  0  0  0  0  3  0  0  0  0  0  0
   39.8170   33.2510   40.6980 C   0  0  0  0  0  3  0  0  0  0  0  0
   37.0780   26.1560   42.6930 C   0  0  0  0  0  0  0  0  0  0  0  0
   36.6490   25.4800   43.4240 H   0  0  0  0  0  0  0  0  0  0  0  0
   36.7220   25.7700   41.6920 H   0  0  0  0  0  0  0  0  0  0  0  0
   38.5530   26.1590   42.7210 C   0  0  0  0  0  0  0  0  0  0  0  0
   39.2130   25.4990   41.6660 C   0  0  0  0  0  0  0  0  0  0  0  0
   40.5950   25.4770   41.6530 C   0  0  0  0  0  0  0  0  0  0  0  0
   41.2720   26.0960   42.6660 N   0  0  0  0  0  0  0  0  0  0  0  0
   40.6020   26.7190   43.6610 C   0  0  0  0  0  0  0  0  0  0  0  0
   39.2800   26.7360   43.6670 N   0  0  0  0  0  0  0  0  0  0  0  0
   41.0650   24.9590   40.8250 H   0  0  0  0  0  0  0  0  0  0  0  0
   41.2380   27.1770   44.4110 H   0  0  0  0  0  0  0  0  0  0  0  0
   38.2560   24.7030   40.3630 S   0  0  0  0  0  0  0  0  0  0  0  0
   38.0070   23.3600   40.7210 H   0  0  0  0  0  0  0  0  0  0  0  0
  1  3  1  0  0  0  0
  1  2  1  0  0  0  0
  4  8  1  0  0  0  0
  4  1  1  0  0  0  0
  5  4  2  0  0  0  0
  6  5  1  0  0  0  0
  6  7  1  0  0  0  0
  7  8  2  0  0  0  0
  9  5  1  0  0  0  0
 11 10  1  0  0  0  0
 12  7  1  0  0  0  0
 12 11  2  0  0  0  0
 13 12  1  0  0  0  0
 14 13  1  0  0  0  0
 15 13  2  0  0  0  0
 15 17  1  0  0  0  0
 16 15  1  0  0  0  0
 17 18  2  0  0  0  0
 18 11  1  0  0  0  0
 19 22  1  0  0  0  0
 19  1  1  0  0  0  0
 19 20  1  0  0  0  0
 21 19  1  0  0  0  0
 22 27  1  0  0  0  0
 23 22  2  0  0  0  0
 24 23  1  0  0  0  0
 24 25  2  0  0  0  0
 25 26  1  0  0  0  0
 26 27  2  0  0  0  0
 26 29  1  0  0  0  0
 28 24  1  0  0  0  0
 30 31  1  0  0  0  0
 30 23  1  0  0  0  0
M  END
>  <minimizedAffinity>
-5.05919409

$$$$

 OpenBabel03252507443D

 31 33  0  0  0  0  0  0  0  0999 V2000
   37.2930   30.2290   38.8500 C   0  0  0  0  0  0  0  0  0  0  0  0
   37.9790   29.7210   38.1170 H   0  0  0  0  0  0  0  0  0  0  0  0
   36.2710   30.0290   38.4590 H   0  0  0  0  0  0  0  0  0  0  0  0
   37.4740   29.6250   40.1990 C   0  0  0  0  0  0  0  0  0  0  0  0
   37.1190   30.3880   41.3710 C   0  0  0  0  0  0  0  0  0  0  0  0
   37.5320   29.1980   42.7260 S   0  0  0  0  0  0  0  0  0  0  0  0
   38.0950   27.9160   41.4680 C   0  0  0  0  0  0  0  0  0  0  0  0
   37.9370   28.4280   40.4730 N   0  0  0  0  0  0  0  0  0  0  0  0
   36.7250   31.3800   41.3870 H   0  0  0  0  0  0  0  0  0  0  0  0
   36.8110   25.3190   40.4430 Cl  0  0  0  0  0  0  0  0  0  0  0  0
   38.0850   25.4030   41.6180 C   0  0  0  0  0  0  0  0  0  0  0  0
   38.5960   26.5920   42.0150 C   0  0  0  0  0  0  0  0  0  0  0  0
   39.5900   26.7730   42.9240 C   0  0  0  0  0  0  0  0  0  0  0  0
   39.9870   27.7310   43.2320 H   0  0  0  0  0  0  0  0  0  0  0  0
   40.1310   25.6420   43.4970 C   0  0  0  0  0  0  0  0  0  0  0  0
   40.9240   25.6520   44.2290 H   0  0  0  0  0  0  0  0  0  0  0  0
   39.6420   24.3980   43.1230 C   0  0  0  0  0  3  0  0  0  0  0  0
   38.6180   24.2400   42.1840 C   0  0  0  0  0  3  0  0  0  0  0  0
   37.6170   31.6900   38.7910 C   0  0  0  0  0  0  0  0  0  0  0  0
   36.9560   32.1740   38.0820 H   0  0  0  0  0  0  0  0  0  0  0  0
   37.3280   32.1150   39.7990 H   0  0  0  0  0  0  0  0  0  0  0  0
   39.0400   31.9760   38.5280 C   0  0  0  0  0  0  0  0  0  0  0  0
   39.6360   33.0020   39.2860 C   0  0  0  0  0  0  0  0  0  0  0  0
   40.9670   33.3030   39.0710 C   0  0  0  0  0  0  0  0  0  0  0  0
   41.6580   32.5950   38.1290 N   0  0  0  0  0  0  0  0  0  0  0  0
   41.0500   31.6170   37.4210 C   0  0  0  0  0  0  0  0  0  0  0  0
   39.7760   31.3330   37.6320 N   0  0  0  0  0  0  0  0  0  0  0  0
   41.3890   34.0990   39.6750 H   0  0  0  0  0  0  0  0  0  0  0  0
   41.6920   31.1190   36.7010 H   0  0  0  0  0  0  0  0  0  0  0  0
   38.6640   33.8960   40.5120 S   0  0  0  0  0  0  0  0  0  0  0  0
   38.0710   35.0240   39.9060 H   0  0  0  0  0  0  0  0  0  0  0  0
  1  4  1  0  0  0  0
  2  1  1  0  0  0  0
  3  1  1  0  0  0  0
  4  8  1  0  0  0  0
  4  5  2  0  0  0  0
  5  9  1  0  0  0  0
  5  6  1  0  0  0  0
  7 12  1  0  0  0  0
  7  6  1  0  0  0  0
  8  7  2  0  0  0  0
 10 11  1  0  0  0  0
 11 12  2  0  0  0  0
 11 18  1  0  0  0  0
 12 13  1  0  0  0  0
 13 14  1  0  0  0  0
 13 15  2  0  0  0  0
 15 16  1  0  0  0  0
 17 15  1  0  0  0  0
 18 17  2  0  0  0  0
 19  1  1  0  0  0  0
 19 21  1  0  0  0  0
 20 19  1  0  0  0  0
 22 19  1  0  0  0  0
 22 23  1  0  0  0  0
 23 30  1  0  0  0  0
 24 23  2  0  0  0  0
 24 28  1  0  0  0  0
 25 24  1  0  0  0  0
 26 27  1  0  0  0  0
 26 25  2  0  0  0  0
 27 22  2  0  0  0  0
 29 26  1  0  0  0  0
 31 30  1  0  0  0  0
M  END
>  <minimizedAffinity>
-5.00232267

$$$$

 OpenBabel03252507443D

 31 33  0  0  0  0  0  0  0  0999 V2000
   38.4920   31.5440   40.9360 C   0  0  0  0  0  0  0  0  0  0  0  0
   38.5030   32.3380   41.7320 H   0  0  0  0  0  0  0  0  0  0  0  0
   39.1830   31.9270   40.1520 H   0  0  0  0  0  0  0  0  0  0  0  0
   38.9910   30.2630   41.5050 C   0  0  0  0  0  0  0  0  0  0  0  0
   40.1710   30.2670   42.3360 C   0  0  0  0  0  0  0  0  0  0  0  0
   40.3340   28.4740   42.7580 S   0  0  0  0  0  0  0  0  0  0  0  0
   38.7990   28.0660   41.7480 C   0  0  0  0  0  0  0  0  0  0  0  0
   38.4700   29.0700   41.3430 N   0  0  0  0  0  0  0  0  0  0  0  0
   40.7570   31.1200   42.6010 H   0  0  0  0  0  0  0  0  0  0  0  0
   36.3550   27.1890   43.3920 Cl  0  0  0  0  0  0  0  0  0  0  0  0
   37.3120   26.1410   42.3940 C   0  0  0  0  0  0  0  0  0  0  0  0
   38.3760   26.6100   41.7010 C   0  0  0  0  0  0  0  0  0  0  0  0
   39.1900   25.8810   40.8930 C   0  0  0  0  0  0  0  0  0  0  0  0
   40.0380   26.2710   40.3460 H   0  0  0  0  0  0  0  0  0  0  0  0
   38.9100   24.5370   40.7650 C   0  0  0  0  0  0  0  0  0  0  0  0
   39.4790   23.8530   40.1560 H   0  0  0  0  0  0  0  0  0  0  0  0
   37.8290   24.0070   41.4570 C   0  0  0  0  0  3  0  0  0  0  0  0
   37.0060   24.7800   42.2810 C   0  0  0  0  0  3  0  0  0  0  0  0
   37.0860   31.4740   40.4270 C   0  0  0  0  0  0  0  0  0  0  0  0
   36.4870   30.8850   41.1110 H   0  0  0  0  0  0  0  0  0  0  0  0
   36.6730   32.5240   40.5050 H   0  0  0  0  0  0  0  0  0  0  0  0
   36.9780   31.0070   39.0310 C   0  0  0  0  0  0  0  0  0  0  0  0
   36.0770   29.9550   38.7770 C   0  0  0  0  0  0  0  0  0  0  0  0
   35.9460   29.4870   37.4840 C   0  0  0  0  0  0  0  0  0  0  0  0
   36.6960   30.0610   36.4970 N   0  0  0  0  0  0  0  0  0  0  0  0
   37.5500   31.0690   36.7810 C   0  0  0  0  0  0  0  0  0  0  0  0
   37.6710   31.5130   38.0210 N   0  0  0  0  0  0  0  0  0  0  0  0
   35.2420   28.6760   37.3300 H   0  0  0  0  0  0  0  0  0  0  0  0
   38.0930   31.4510   35.9230 H   0  0  0  0  0  0  0  0  0  0  0  0
   35.1200   29.2440   40.1280 S   0  0  0  0  0  0  0  0  0  0  0  0
   35.8370   28.1670   40.6930 H   0  0  0  0  0  0  0  0  0  0  0  0
  1  4  1  0  0  0  0
  1  2  1  0  0  0  0
  3  1  1  0  0  0  0
  4  5  2  0  0  0  0
  5  9  1  0  0  0  0
  5  6  1  0  0  0  0
  7  6  1  0  0  0  0
  8  4  1  0  0  0  0
  8  7  2  0  0  0  0
 11 10  1  0  0  0  0
 12  7  1  0  0  0  0
 12 11  2  0  0  0  0
 13 12  1  0  0  0  0
 14 13  1  0  0  0  0
 15 13  2  0  0  0  0
 15 17  1  0  0  0  0
 16 15  1  0  0  0  0
 17 18  2  0  0  0  0
 18 11  1  0  0  0  0
 19 21  1  0  0  0  0
 19  1  1  0  0  0  0
 19 20  1  0  0  0  0
 22 19  1  0  0  0  0
 23 22  1  0  0  0  0
 23 30  1  0  0  0  0
 24 23  2  0  0  0  0
 25 26  2  0  0  0  0
 25 24  1  0  0  0  0
 26 27  1  0  0  0  0
 27 22  2  0  0  0  0
 28 24  1  0  0  0  0
 29 26  1  0  0  0  0
 30 31  1  0  0  0  0
M  END
>  <minimizedAffinity>
-4.98577929

$$$$

 OpenBabel03252507443D

 31 33  0  0  0  0  0  0  0  0999 V2000
   36.5840   31.1470   40.9930 C   0  0  0  0  0  0  0  0  0  0  0  0
   35.4770   31.3010   41.1190 H   0  0  0  0  0  0  0  0  0  0  0  0
   37.0460   31.8160   41.7530 H   0  0  0  0  0  0  0  0  0  0  0  0
   36.9210   29.7230   41.2610 C   0  0  0  0  0  0  0  0  0  0  0  0
   35.9760   28.6910   40.9090 C   0  0  0  0  0  0  0  0  0  0  0  0
   36.8760   27.1660   41.4430 S   0  0  0  0  0  0  0  0  0  0  0  0
   38.3360   28.1970   42.0300 C   0  0  0  0  0  0  0  0  0  0  0  0
   38.0230   29.2600   41.8030 N   0  0  0  0  0  0  0  0  0  0  0  0
   35.0180   28.8350   40.4590 H   0  0  0  0  0  0  0  0  0  0  0  0
   40.9490   29.7270   42.5540 Cl  0  0  0  0  0  0  0  0  0  0  0  0
   40.6970   28.0440   42.8890 C   0  0  0  0  0  0  0  0  0  0  0  0
   39.5110   27.4460   42.6280 C   0  0  0  0  0  0  0  0  0  0  0  0
   39.2060   26.1410   42.8500 C   0  0  0  0  0  0  0  0  0  0  0  0
   38.2520   25.6770   42.6340 H   0  0  0  0  0  0  0  0  0  0  0  0
   40.1940   25.3470   43.3920 C   0  0  0  0  0  0  0  0  0  0  0  0
   40.0770   24.2980   43.6150 H   0  0  0  0  0  0  0  0  0  0  0  0
   41.4290   25.9130   43.6790 C   0  0  0  0  0  3  0  0  0  0  0  0
   41.7170   27.2610   43.4410 C   0  0  0  0  0  3  0  0  0  0  0  0
   36.9180   31.5980   39.6040 C   0  0  0  0  0  0  0  0  0  0  0  0
   36.8770   30.7490   38.9330 H   0  0  0  0  0  0  0  0  0  0  0  0
   36.0660   32.2690   39.2810 H   0  0  0  0  0  0  0  0  0  0  0  0
   38.1900   32.3390   39.5070 C   0  0  0  0  0  0  0  0  0  0  0  0
   39.2300   31.7290   38.7800 C   0  0  0  0  0  0  0  0  0  0  0  0
   40.4390   32.3870   38.6640 C   0  0  0  0  0  0  0  0  0  0  0  0
   40.5830   33.6080   39.2600 N   0  0  0  0  0  0  0  0  0  0  0  0
   39.5600   34.1610   39.9490 C   0  0  0  0  0  0  0  0  0  0  0  0
   38.4060   33.5250   40.0560 N   0  0  0  0  0  0  0  0  0  0  0  0
   41.2150   31.8840   38.0970 H   0  0  0  0  0  0  0  0  0  0  0  0
   39.7830   35.1320   40.3800 H   0  0  0  0  0  0  0  0  0  0  0  0
   38.9710   30.1150   38.0200 S   0  0  0  0  0  0  0  0  0  0  0  0
   39.3450   29.1040   38.9310 H   0  0  0  0  0  0  0  0  0  0  0  0
  1  2  1  0  0  0  0
  1  4  1  0  0  0  0
  1  3  1  0  0  0  0
  4  8  1  0  0  0  0
  5  4  2  0  0  0  0
  5  6  1  0  0  0  0
  6  7  1  0  0  0  0
  7 12  1  0  0  0  0
  8  7  2  0  0  0  0
  9  5  1  0  0  0  0
 10 11  1  0  0  0  0
 11 18  1  0  0  0  0
 12 13  1  0  0  0  0
 12 11  2  0  0  0  0
 13 15  2  0  0  0  0
 14 13  1  0  0  0  0
 15 16  1  0  0  0  0
 15 17  1  0  0  0  0
 18 17  2  0  0  0  0
 19  1  1  0  0  0  0
 20 19  1  0  0  0  0
 21 19  1  0  0  0  0
 22 19  1  0  0  0  0
 22 27  1  0  0  0  0
 23 22  2  0  0  0  0
 24 23  1  0  0  0  0
 24 25  2  0  0  0  0
 25 26  1  0  0  0  0
 26 27  2  0  0  0  0
 26 29  1  0  0  0  0
 28 24  1  0  0  0  0
 30 23  1  0  0  0  0
 30 31  1  0  0  0  0
M  END
>  <minimizedAffinity>
-4.97194386

$$$$

 OpenBabel03252507443D

 31 33  0  0  0  0  0  0  0  0999 V2000
   33.0120   28.4740   36.9160 C   0  0  0  0  0  0  0  0  0  0  0  0
   33.0350   27.6150   36.1900 H   0  0  0  0  0  0  0  0  0  0  0  0
   32.2960   28.1520   37.7050 H   0  0  0  0  0  0  0  0  0  0  0  0
   34.3720   28.6810   37.4850 C   0  0  0  0  0  0  0  0  0  0  0  0
   35.4150   29.2260   36.6500 C   0  0  0  0  0  0  0  0  0  0  0  0
   36.8440   29.2700   37.8230 S   0  0  0  0  0  0  0  0  0  0  0  0
   35.7750   28.5550   39.1970 C   0  0  0  0  0  0  0  0  0  0  0  0
   34.7640   28.4190   38.7090 N   0  0  0  0  0  0  0  0  0  0  0  0
   35.3230   29.5110   35.6250 H   0  0  0  0  0  0  0  0  0  0  0  0
   36.2330   30.9800   41.0290 Cl  0  0  0  0  0  0  0  0  0  0  0  0
   36.6830   29.3480   41.4080 C   0  0  0  0  0  0  0  0  0  0  0  0
   36.4440   28.3350   40.5420 C   0  0  0  0  0  0  0  0  0  0  0  0
   36.7520   27.0260   40.7360 C   0  0  0  0  0  0  0  0  0  0  0  0
   36.5550   26.2270   40.0330 H   0  0  0  0  0  0  0  0  0  0  0  0
   37.3670   26.6940   41.9240 C   0  0  0  0  0  0  0  0  0  0  0  0
   37.6610   25.6920   42.1970 H   0  0  0  0  0  0  0  0  0  0  0  0
   37.6330   27.6970   42.8460 C   0  0  0  0  0  3  0  0  0  0  0  0
   37.3040   29.0370   42.6220 C   0  0  0  0  0  3  0  0  0  0  0  0
   32.4850   29.6530   36.1590 C   0  0  0  0  0  0  0  0  0  0  0  0
   33.2910   30.3570   35.9880 H   0  0  0  0  0  0  0  0  0  0  0  0
   32.2090   29.2680   35.1330 H   0  0  0  0  0  0  0  0  0  0  0  0
   31.3040   30.2830   36.7810 C   0  0  0  0  0  0  0  0  0  0  0  0
   30.6560   31.2930   36.0440 C   0  0  0  0  0  0  0  0  0  0  0  0
   29.5470   31.9090   36.5890 C   0  0  0  0  0  0  0  0  0  0  0  0
   29.1170   31.5170   37.8250 N   0  0  0  0  0  0  0  0  0  0  0  0
   29.7660   30.5440   38.5010 C   0  0  0  0  0  0  0  0  0  0  0  0
   30.8270   29.9570   37.9740 N   0  0  0  0  0  0  0  0  0  0  0  0
   29.0760   32.6820   35.9900 H   0  0  0  0  0  0  0  0  0  0  0  0
   29.3390   30.3110   39.4720 H   0  0  0  0  0  0  0  0  0  0  0  0
   31.2780   31.7600   34.4180 S   0  0  0  0  0  0  0  0  0  0  0  0
   32.2160   32.8060   34.5590 H   0  0  0  0  0  0  0  0  0  0  0  0
  1  4  1  0  0  0  0
  1  3  1  0  0  0  0
  2  1  1  0  0  0  0
  4  8  1  0  0  0  0
  5  4  2  0  0  0  0
  5  6  1  0  0  0  0
  6  7  1  0  0  0  0
  7 12  1  0  0  0  0
  8  7  2  0  0  0  0
  9  5  1  0  0  0  0
 10 11  1  0  0  0  0
 11 18  1  0  0  0  0
 12 13  1  0  0  0  0
 12 11  2  0  0  0  0
 13 15  2  0  0  0  0
 14 13  1  0  0  0  0
 15 16  1  0  0  0  0
 15 17  1  0  0  0  0
 18 17  2  0  0  0  0
 19 22  1  0  0  0  0
 19  1  1  0  0  0  0
 20 19  1  0  0  0  0
 21 19  1  0  0  0  0
 22 27  1  0  0  0  0
 23 24  1  0  0  0  0
 23 22  2  0  0  0  0
 24 25  2  0  0  0  0
 25 26  1  0  0  0  0
 26 29  1  0  0  0  0
 27 26  2  0  0  0  0
 28 24  1  0  0  0  0
 30 31  1  0  0  0  0
 30 23  1  0  0  0  0
M  END
>  <minimizedAffinity>
-4.93481302

$$$$

 OpenBabel03252507443D

 31 33  0  0  0  0  0  0  0  0999 V2000
   36.2420   28.1930   41.9030 C   0  0  0  0  0  0  0  0  0  0  0  0
   35.5370   28.9040   42.4180 H   0  0  0  0  0  0  0  0  0  0  0  0
   35.5750   27.4520   41.4080 H   0  0  0  0  0  0  0  0  0  0  0  0
   37.0500   28.9360   40.8980 C   0  0  0  0  0  0  0  0  0  0  0  0
   37.1020   28.4610   39.5370 C   0  0  0  0  0  0  0  0  0  0  0  0
   38.2080   29.7160   38.7480 S   0  0  0  0  0  0  0  0  0  0  0  0
   38.3850   30.6310   40.3830 C   0  0  0  0  0  0  0  0  0  0  0  0
   37.7560   30.0240   41.1010 N   0  0  0  0  0  0  0  0  0  0  0  0
   36.6080   27.5980   39.1470 H   0  0  0  0  0  0  0  0  0  0  0  0
   37.1900   33.2680   39.3540 Cl  0  0  0  0  0  0  0  0  0  0  0  0
   38.8090   33.0730   39.9470 C   0  0  0  0  0  0  0  0  0  0  0  0
   39.2570   31.8730   40.3840 C   0  0  0  0  0  0  0  0  0  0  0  0
   40.4990   31.6090   40.8670 C   0  0  0  0  0  0  0  0  0  0  0  0
   40.8420   30.6430   41.2110 H   0  0  0  0  0  0  0  0  0  0  0  0
   41.3900   32.6590   40.9180 C   0  0  0  0  0  0  0  0  0  0  0  0
   42.4030   32.5800   41.2800 H   0  0  0  0  0  0  0  0  0  0  0  0
   40.9790   33.9120   40.4820 C   0  0  0  0  0  3  0  0  0  0  0  0
   39.6930   34.1570   39.9900 C   0  0  0  0  0  3  0  0  0  0  0  0
   37.0570   27.5500   42.9810 C   0  0  0  0  0  0  0  0  0  0  0  0
   37.7560   28.2740   43.3820 H   0  0  0  0  0  0  0  0  0  0  0  0
   36.3390   27.3340   43.8290 H   0  0  0  0  0  0  0  0  0  0  0  0
   37.7140   26.2960   42.5650 C   0  0  0  0  0  0  0  0  0  0  0  0
   39.1220   26.2790   42.5760 C   0  0  0  0  0  0  0  0  0  0  0  0
   39.7790   25.1260   42.1930 C   0  0  0  0  0  0  0  0  0  0  0  0
   39.0380   24.0410   41.8160 N   0  0  0  0  0  0  0  0  0  0  0  0
   37.6880   24.0970   41.8190 C   0  0  0  0  0  0  0  0  0  0  0  0
   37.0650   25.2040   42.1870 N   0  0  0  0  0  0  0  0  0  0  0  0
   40.8630   25.1530   42.2150 H   0  0  0  0  0  0  0  0  0  0  0  0
   37.2010   23.1800   41.5020 H   0  0  0  0  0  0  0  0  0  0  0  0
   40.0360   27.7470   43.0850 S   0  0  0  0  0  0  0  0  0  0  0  0
   40.2990   28.5490   41.9540 H   0  0  0  0  0  0  0  0  0  0  0  0
  1  2  1  0  0  0  0
  1 19  1  0  0  0  0
  3  1  1  0  0  0  0
  4  8  1  0  0  0  0
  4  1  1  0  0  0  0
  5  4  2  0  0  0  0
  6  5  1  0  0  0  0
  6  7  1  0  0  0  0
  7 12  1  0  0  0  0
  7  8  2  0  0  0  0
  9  5  1  0  0  0  0
 10 11  1  0  0  0  0
 11 18  2  0  0  0  0
 11 12  1  0  0  0  0
 12 13  2  0  0  0  0
 13 15  1  0  0  0  0
 13 14  1  0  0  0  0
 15 16  1  0  0  0  0
 17 15  2  0  0  0  0
 18 17  1  0  0  0  0
 19 20  1  0  0  0  0
 19 21  1  0  0  0  0
 22 23  1  0  0  0  0
 22 19  1  0  0  0  0
 23 30  1  0  0  0  0
 24 28  1  0  0  0  0
 24 23  2  0  0  0  0
 25 26  2  0  0  0  0
 25 24  1  0  0  0  0
 26 27  1  0  0  0  0
 27 22  2  0  0  0  0
 29 26  1  0  0  0  0
 31 30  1  0  0  0  0
M  END
>  <minimizedAffinity>
-4.91376495

$$$$

 OpenBabel03252507443D

 31 33  0  0  0  0  0  0  0  0999 V2000
   40.0300   29.4110   42.5580 C   0  0  0  0  0  0  0  0  0  0  0  0
   40.6260   29.1560   43.4780 H   0  0  0  0  0  0  0  0  0  0  0  0
   40.7120   29.1720   41.7110 H   0  0  0  0  0  0  0  0  0  0  0  0
   38.8060   28.5650   42.5100 C   0  0  0  0  0  0  0  0  0  0  0  0
   37.8590   28.6250   43.5960 C   0  0  0  0  0  0  0  0  0  0  0  0
   36.5750   27.4170   43.0360 S   0  0  0  0  0  0  0  0  0  0  0  0
   37.5490   27.0680   41.4630 C   0  0  0  0  0  0  0  0  0  0  0  0
   38.4590   27.7320   41.5580 N   0  0  0  0  0  0  0  0  0  0  0  0
   37.9360   29.2310   44.4730 H   0  0  0  0  0  0  0  0  0  0  0  0
   37.6730   24.0830   42.1860 Cl  0  0  0  0  0  0  0  0  0  0  0  0
   36.9660   24.7290   40.7380 C   0  0  0  0  0  0  0  0  0  0  0  0
   36.9530   26.0610   40.4970 C   0  0  0  0  0  0  0  0  0  0  0  0
   36.4290   26.6710   39.4020 C   0  0  0  0  0  0  0  0  0  0  0  0
   36.4270   27.7380   39.2240 H   0  0  0  0  0  0  0  0  0  0  0  0
   35.8550   25.8620   38.4450 C   0  0  0  0  0  0  0  0  0  0  0  0
   35.4060   26.2240   37.5340 H   0  0  0  0  0  0  0  0  0  0  0  0
   35.8430   24.4880   38.6460 C   0  0  0  0  0  3  0  0  0  0  0  0
   36.3900   23.8850   39.7830 C   0  0  0  0  0  3  0  0  0  0  0  0
   39.7510   30.8800   42.6280 C   0  0  0  0  0  0  0  0  0  0  0  0
   39.1520   31.0890   43.5060 H   0  0  0  0  0  0  0  0  0  0  0  0
   40.7460   31.3780   42.8260 H   0  0  0  0  0  0  0  0  0  0  0  0
   39.1620   31.4350   41.3940 C   0  0  0  0  0  0  0  0  0  0  0  0
   40.0270   32.1350   40.5320 C   0  0  0  0  0  0  0  0  0  0  0  0
   39.5170   32.6720   39.3660 C   0  0  0  0  0  0  0  0  0  0  0  0
   38.1890   32.5040   39.0900 N   0  0  0  0  0  0  0  0  0  0  0  0
   37.3910   31.8250   39.9430 C   0  0  0  0  0  0  0  0  0  0  0  0
   37.8860   31.3130   41.0570 N   0  0  0  0  0  0  0  0  0  0  0  0
   40.2160   33.2040   38.7290 H   0  0  0  0  0  0  0  0  0  0  0  0
   36.3560   31.7510   39.6250 H   0  0  0  0  0  0  0  0  0  0  0  0
   41.7690   32.3190   40.9600 S   0  0  0  0  0  0  0  0  0  0  0  0
   41.9450   33.5060   41.7020 H   0  0  0  0  0  0  0  0  0  0  0  0
  1 19  1  0  0  0  0
  1  2  1  0  0  0  0
  3  1  1  0  0  0  0
  4  1  1  0  0  0  0
  4  5  2  0  0  0  0
  5  9  1  0  0  0  0
  6  5  1  0  0  0  0
  7  8  2  0  0  0  0
  7  6  1  0  0  0  0
  8  4  1  0  0  0  0
 11 10  1  0  0  0  0
 12 11  1  0  0  0  0
 12  7  1  0  0  0  0
 13 12  2  0  0  0  0
 14 13  1  0  0  0  0
 15 17  2  0  0  0  0
 15 13  1  0  0  0  0
 16 15  1  0  0  0  0
 17 18  1  0  0  0  0
 18 11  2  0  0  0  0
 19 21  1  0  0  0  0
 19 20  1  0  0  0  0
 22 19  1  0  0  0  0
 23 30  1  0  0  0  0
 23 22  2  0  0  0  0
 24 23  1  0  0  0  0
 25 24  2  0  0  0  0
 25 26  1  0  0  0  0
 26 27  2  0  0  0  0
 27 22  1  0  0  0  0
 28 24  1  0  0  0  0
 29 26  1  0  0  0  0
 30 31  1  0  0  0  0
M  END
>  <minimizedAffinity>
-4.9065094

$$$$

 OpenBabel03252507443D

 31 33  0  0  0  0  0  0  0  0999 V2000
   40.8820   30.4650   41.1000 C   0  0  0  0  0  0  0  0  0  0  0  0
   41.0560   31.3730   41.7410 H   0  0  0  0  0  0  0  0  0  0  0  0
   41.8620   29.9380   41.0910 H   0  0  0  0  0  0  0  0  0  0  0  0
   39.8270   29.6150   41.7170 C   0  0  0  0  0  0  0  0  0  0  0  0
   39.0760   30.1210   42.8400 C   0  0  0  0  0  0  0  0  0  0  0  0
   37.9400   28.7050   43.1940 S   0  0  0  0  0  0  0  0  0  0  0  0
   38.6860   27.7150   41.7780 C   0  0  0  0  0  0  0  0  0  0  0  0
   39.4740   28.4050   41.3530 N   0  0  0  0  0  0  0  0  0  0  0  0
   39.1920   31.0770   43.3030 H   0  0  0  0  0  0  0  0  0  0  0  0
   39.7350   25.3780   43.4760 Cl  0  0  0  0  0  0  0  0  0  0  0  0
   38.5250   25.2450   42.2400 C   0  0  0  0  0  0  0  0  0  0  0  0
   38.1180   26.3280   41.5370 C   0  0  0  0  0  0  0  0  0  0  0  0
   37.1820   26.3390   40.5520 C   0  0  0  0  0  0  0  0  0  0  0  0
   36.8680   27.2140   39.9990 H   0  0  0  0  0  0  0  0  0  0  0  0
   36.5880   25.1350   40.2360 C   0  0  0  0  0  0  0  0  0  0  0  0
   35.8330   25.0120   39.4760 H   0  0  0  0  0  0  0  0  0  0  0  0
   36.9710   23.9940   40.9280 C   0  0  0  0  0  3  0  0  0  0  0  0
   37.9370   24.0120   41.9390 C   0  0  0  0  0  3  0  0  0  0  0  0
   40.5310   30.9720   39.7350 C   0  0  0  0  0  0  0  0  0  0  0  0
   41.4320   31.3070   39.2360 H   0  0  0  0  0  0  0  0  0  0  0  0
   40.1870   30.0700   39.1460 H   0  0  0  0  0  0  0  0  0  0  0  0
   39.4670   31.9930   39.7340 C   0  0  0  0  0  0  0  0  0  0  0  0
   38.2710   31.6690   39.0640 C   0  0  0  0  0  0  0  0  0  0  0  0
   37.2480   32.5970   39.0370 C   0  0  0  0  0  0  0  0  0  0  0  0
   37.4340   33.7990   39.6620 N   0  0  0  0  0  0  0  0  0  0  0  0
   38.5960   34.0720   40.2940 C   0  0  0  0  0  0  0  0  0  0  0  0
   39.5710   33.1790   40.3160 N   0  0  0  0  0  0  0  0  0  0  0  0
   36.3440   32.3100   38.5110 H   0  0  0  0  0  0  0  0  0  0  0  0
   38.6350   35.0540   40.7560 H   0  0  0  0  0  0  0  0  0  0  0  0
   38.0960   30.0650   38.2610 S   0  0  0  0  0  0  0  0  0  0  0  0
   38.5310   30.1630   36.9220 H   0  0  0  0  0  0  0  0  0  0  0  0
  1  4  1  0  0  0  0
  1  2  1  0  0  0  0
  3  1  1  0  0  0  0
  4  5  2  0  0  0  0
  5  6  1  0  0  0  0
  5  9  1  0  0  0  0
  7  6  1  0  0  0  0
  8  4  1  0  0  0  0
  8  7  2  0  0  0  0
 11 10  1  0  0  0  0
 12  7  1  0  0  0  0
 12 11  2  0  0  0  0
 13 12  1  0  0  0  0
 14 13  1  0  0  0  0
 15 13  2  0  0  0  0
 15 17  1  0  0  0  0
 16 15  1  0  0  0  0
 17 18  2  0  0  0  0
 18 11  1  0  0  0  0
 19  1  1  0  0  0  0
 20 19  1  0  0  0  0
 21 19  1  0  0  0  0
 22 19  1  0  0  0  0
 22 27  1  0  0  0  0
 23 22  2  0  0  0  0
 24 23  1  0  0  0  0
 24 25  2  0  0  0  0
 25 26  1  0  0  0  0
 26 27  2  0  0  0  0
 26 29  1  0  0  0  0
 28 24  1  0  0  0  0
 30 23  1  0  0  0  0
 31 30  1  0  0  0  0
M  END
>  <minimizedAffinity>
-4.8959403

$$$$
