
 OpenBabel03252506183D

 23 24  0  0  0  0  0  0  0  0999 V2000
   45.2140   36.1230   43.0130 C   0  0  0  0  0  0  0  0  0  0  0  0
   44.2120   35.7840   42.0840 C   0  0  0  0  0  0  0  0  0  0  0  0
   44.4740   34.6970   41.2320 C   0  0  0  0  0  0  0  0  0  0  0  0
   45.6500   34.0420   41.3420 N   0  0  0  0  0  0  0  0  0  0  0  0
   46.5870   34.4050   42.2550 C   0  0  0  0  0  0  0  0  0  0  0  0
   46.3670   35.4430   43.0870 N   0  0  0  0  0  0  0  0  0  0  0  0
   43.2900   36.3430   42.0380 H   0  0  0  0  0  0  0  0  0  0  0  0
   43.7130   34.4270   40.5130 H   0  0  0  0  0  0  0  0  0  0  0  0
   49.0570   35.9260   41.3770 Cl  0  0  0  0  0  0  0  0  0  0  0  0
   49.0120   34.2760   41.9070 C   0  0  0  0  0  0  0  0  0  0  0  0
   47.8330   33.6340   42.3000 C   0  0  0  0  0  0  0  0  0  0  0  0
   47.7650   32.3300   42.7240 C   0  0  0  0  0  0  0  0  0  0  0  0
   46.8340   31.8710   43.0180 H   0  0  0  0  0  0  0  0  0  0  0  0
   48.9590   31.6390   42.7510 C   0  0  0  0  0  0  0  0  0  0  0  0
   48.9590   30.5990   43.0810 H   0  0  0  0  0  0  0  0  0  0  0  0
   50.1810   32.1670   42.3870 C   0  0  0  0  0  0  0  0  0  0  0  0
   50.1490   33.4900   41.9730 C   0  0  0  0  0  0  0  0  0  0  0  0
   44.9570   37.2610   43.9170 C   0  0  0  0  0  0  0  0  0  0  0  0
   45.5080   38.4190   43.6210 C   0  0  0  0  0  0  0  0  0  0  0  0
   45.2790   39.5990   44.5040 C   0  0  0  0  0  0  0  0  0  0  0  0
   45.5730   39.2780   45.5350 H   0  0  0  0  0  0  0  0  0  0  0  0
   45.9300   40.4390   44.2270 H   0  0  0  0  0  0  0  0  0  0  0  0
   44.1950   39.8840   44.5060 H   0  0  0  0  0  0  0  0  0  0  0  0
  1  6  1  0  0  0  0
  1 18  1  0  0  0  0
  2  1  2  0  0  0  0
  3  4  2  0  0  0  0
  3  2  1  0  0  0  0
  4  5  1  0  0  0  0
  5 11  1  0  0  0  0
  5  6  2  0  0  0  0
  7  2  1  0  0  0  0
  8  3  1  0  0  0  0
  9 10  1  0  0  0  0
 10 17  2  0  0  0  0
 10 11  1  0  0  0  0
 11 12  2  0  0  0  0
 12 14  1  0  0  0  0
 12 13  1  0  0  0  0
 14 15  1  0  0  0  0
 16 14  2  0  0  0  0
 17 16  1  0  0  0  0
 19 18  2  0  0  0  0
 19 20  1  0  0  0  0
 20 23  1  0  0  0  0
 20 21  1  0  0  0  0
 22 20  1  0  0  0  0
M  END
>  <minimizedAffinity>
-4.32359648

>  <minimizedRMSD>
3.61270404

$$$$
