
 OpenBabel03242516503D

 43 46  0  0  1  0  0  0  0  0999 V2000
   47.6190   32.6150   41.3620 C   0  0  1  0  0  0  0  0  0  0  0  0
   47.0200   31.9570   40.1800 C   0  0  0  0  0  0  0  0  0  0  0  0
   47.9350   32.2770   38.9930 C   0  0  0  0  0  0  0  0  0  0  0  0
   47.7830   33.7730   38.7290 C   0  0  0  0  0  0  0  0  0  0  0  0
   48.0060   34.6330   39.9110 C   0  0  0  0  0  0  0  0  0  0  0  0
   47.6210   34.1230   41.2340 C   0  0  1  0  0  0  0  0  0  0  0  0
   48.7190   32.3560   41.3920 H   0  0  0  0  0  0  0  0  0  0  0  0
   47.0910   30.8390   40.3560 H   0  0  0  0  0  0  0  0  0  0  0  0
   45.9940   32.2640   39.9770 H   0  0  0  0  0  0  0  0  0  0  0  0
   47.5230   31.7710   38.0970 H   0  0  0  0  0  0  0  0  0  0  0  0
   48.9630   31.9980   39.2230 H   0  0  0  0  0  0  0  0  0  0  0  0
   46.8330   33.9230   38.2110 H   0  0  0  0  0  0  0  0  0  0  0  0
   48.5740   33.9950   37.9540 H   0  0  0  0  0  0  0  0  0  0  0  0
   47.4220   35.5840   39.7320 H   0  0  0  0  0  0  0  0  0  0  0  0
   49.0650   34.9810   39.9050 H   0  0  0  0  0  0  0  0  0  0  0  0
   48.3840   34.4760   41.9880 H   0  0  0  0  0  0  0  0  0  0  0  0
   45.3550   31.0570   43.9470 C   0  0  0  0  0  0  0  0  0  0  0  0
   45.9250   31.4630   42.7430 C   0  0  0  0  0  0  0  0  0  0  0  0
   47.0780   32.2120   42.6530 C   0  0  0  0  0  0  0  0  0  0  0  0
   47.6480   32.5460   43.8220 N   0  0  0  0  0  0  0  0  0  0  0  0
   47.1120   32.1610   45.0060 C   0  0  0  0  0  0  0  0  0  0  0  0
   46.0030   31.4400   45.0850 N   0  0  0  0  0  0  0  0  0  0  0  0
   44.4420   30.4660   43.9040 H   0  0  0  0  0  0  0  0  0  0  0  0
   45.4250   31.1690   41.8270 H   0  0  0  0  0  0  0  0  0  0  0  0
   47.5750   32.4320   45.9520 H   0  0  0  0  0  0  0  0  0  0  0  0
   46.3510   34.6990   41.7250 C   0  0  0  0  0  0  0  0  0  0  0  0
   46.1880   35.5070   42.8560 C   0  0  0  0  0  0  0  0  0  0  0  0
   44.8850   35.9480   43.0900 C   0  0  0  0  0  0  0  0  0  0  0  0
   43.8990   35.5670   42.2200 C   0  0  0  0  0  0  0  0  0  0  0  0
   44.0650   34.7840   41.1250 C   0  0  0  0  0  0  0  0  0  0  0  0
   45.3270   34.3570   40.8990 N   0  0  0  0  0  0  0  0  0  0  0  0
   47.0560   35.6990   43.4120 H   0  0  0  0  0  0  0  0  0  0  0  0
   44.7500   36.5660   43.9530 H   0  0  0  0  0  0  0  0  0  0  0  0
   42.9560   35.9590   42.4950 H   0  0  0  0  0  0  0  0  0  0  0  0
   41.1470   35.9850   41.1010 Cl  0  0  0  0  0  0  0  0  0  0  0  0
   41.7490   34.7610   40.0240 C   0  0  0  0  0  0  0  0  0  0  0  0
   43.0430   34.3610   40.1810 C   0  0  0  0  0  0  0  0  0  0  0  0
   43.3990   33.3870   39.2660 C   0  0  0  0  0  0  0  0  0  0  0  0
   44.3620   32.9440   39.2210 H   0  0  0  0  0  0  0  0  0  0  0  0
   42.5420   32.8850   38.3110 C   0  0  0  0  0  0  0  0  0  0  0  0
   42.8380   32.1260   37.6050 H   0  0  0  0  0  0  0  0  0  0  0  0
   41.2450   33.3400   38.2130 C   0  0  0  0  0  0  0  0  0  0  0  0
   40.8630   34.3090   39.1090 C   0  0  0  0  0  0  0  0  0  0  0  0
  1  7  1  1  0  0  0
  1 19  1  0  0  0  0
  2  8  1  0  0  0  0
  2  1  1  0  0  0  0
  3 11  1  0  0  0  0
  3  2  1  0  0  0  0
  4  3  1  0  0  0  0
  4  5  1  0  0  0  0
  5  6  1  0  0  0  0
  6  1  1  0  0  0  0
  6 26  1  0  0  0  0
  6 16  1  1  0  0  0
  9  2  1  0  0  0  0
 10  3  1  0  0  0  0
 12  4  1  0  0  0  0
 13  4  1  0  0  0  0
 14  5  1  0  0  0  0
 15  5  1  0  0  0  0
 17 22  1  0  0  0  0
 18 17  2  0  0  0  0
 19 18  1  0  0  0  0
 19 20  2  0  0  0  0
 20 21  1  0  0  0  0
 21 22  2  0  0  0  0
 21 25  1  0  0  0  0
 23 17  1  0  0  0  0
 24 18  1  0  0  0  0
 26 27  1  0  0  0  0
 27 28  2  0  0  0  0
 27 32  1  0  0  0  0
 28 33  1  0  0  0  0
 29 34  1  0  0  0  0
 29 28  1  0  0  0  0
 30 29  2  0  0  0  0
 31 30  1  0  0  0  0
 31 26  2  0  0  0  0
 36 37  1  0  0  0  0
 36 35  1  0  0  0  0
 37 30  1  0  0  0  0
 38 37  2  0  0  0  0
 39 38  1  0  0  0  0
 40 38  1  0  0  0  0
 41 40  1  0  0  0  0
 42 40  2  0  0  0  0
 42 43  1  0  0  0  0
 43 36  2  0  0  0  0
M  END
>  <minimizedAffinity>
-5.84789515

>  <minimizedRMSD>
1.033167

$$$$
