
 OpenBabel03252506193D

 23 24  0  0  0  0  0  0  0  0999 V2000
   44.8870   35.6880   44.1580 C   0  0  0  0  0  0  0  0  0  0  0  0
   44.5070   35.1400   42.9180 C   0  0  0  0  0  0  0  0  0  0  0  0
   44.6340   33.7490   42.7690 C   0  0  0  0  0  0  0  0  0  0  0  0
   45.1050   33.0160   43.8020 N   0  0  0  0  0  0  0  0  0  0  0  0
   45.4590   33.5880   44.9810 C   0  0  0  0  0  0  0  0  0  0  0  0
   45.3490   34.9210   45.1560 N   0  0  0  0  0  0  0  0  0  0  0  0
   44.1370   35.7730   42.1260 H   0  0  0  0  0  0  0  0  0  0  0  0
   44.3460   33.3160   41.8210 H   0  0  0  0  0  0  0  0  0  0  0  0
   47.7170   31.7460   44.1520 Cl  0  0  0  0  0  0  0  0  0  0  0  0
   47.0020   31.8350   45.7290 C   0  0  0  0  0  0  0  0  0  0  0  0
   45.9590   32.7120   46.0440 C   0  0  0  0  0  0  0  0  0  0  0  0
   45.3740   32.8050   47.2820 C   0  0  0  0  0  0  0  0  0  0  0  0
   44.5690   33.4970   47.4850 H   0  0  0  0  0  0  0  0  0  0  0  0
   45.8730   31.9630   48.2550 C   0  0  0  0  0  0  0  0  0  0  0  0
   45.4420   31.9990   49.2550 H   0  0  0  0  0  0  0  0  0  0  0  0
   46.8970   31.0600   48.0590 C   0  0  0  0  0  3  0  0  0  0  0  0
   47.4260   31.0370   46.7770 C   0  0  0  0  0  3  0  0  0  0  0  0
   44.7590   37.1480   44.3340 C   0  0  0  0  0  3  0  0  0  0  0  0
   45.4830   37.9260   43.5590 C   0  0  0  0  0  3  0  0  0  0  0  0
   45.3900   39.4080   43.6970 C   0  0  0  0  0  0  0  0  0  0  0  0
   45.5920   39.6330   44.7750 H   0  0  0  0  0  0  0  0  0  0  0  0
   46.1660   39.9160   43.1080 H   0  0  0  0  0  0  0  0  0  0  0  0
   44.3590   39.7640   43.4390 H   0  0  0  0  0  0  0  0  0  0  0  0
  1 18  1  0  0  0  0
  1  6  1  0  0  0  0
  2  1  2  0  0  0  0
  3  2  1  0  0  0  0
  3  4  2  0  0  0  0
  4  5  1  0  0  0  0
  5  6  2  0  0  0  0
  5 11  1  0  0  0  0
  7  2  1  0  0  0  0
  8  3  1  0  0  0  0
  9 10  1  0  0  0  0
 10 11  2  0  0  0  0
 10 17  1  0  0  0  0
 11 12  1  0  0  0  0
 12 13  1  0  0  0  0
 12 14  2  0  0  0  0
 14 15  1  0  0  0  0
 16 14  1  0  0  0  0
 17 16  2  0  0  0  0
 19 20  1  0  0  0  0
 19 18  2  0  0  0  0
 20 21  1  0  0  0  0
 22 20  1  0  0  0  0
 23 20  1  0  0  0  0
M  END
>  <minimizedAffinity>
-3.81540036

>  <minimizedRMSD>
2.02862072

$$$$
