
 OpenBabel03242523193D

 37 40  0  0  0  0  0  0  0  0999 V2000
   44.2790   32.0460   42.7320 Cl  0  0  0  0  0  0  0  0  0  0  0  0
   44.4260   33.8020   42.6300 C   0  0  0  0  0  0  0  0  0  0  0  0
   45.2120   34.3950   43.6400 C   0  0  0  0  0  0  0  0  0  0  0  0
   45.2620   35.7700   43.4680 C   0  0  0  0  0  0  0  0  0  0  0  0
   44.6990   36.5430   42.5290 C   0  0  0  0  0  0  0  0  0  0  0  0
   43.9550   35.8870   41.5870 C   0  0  0  0  0  0  0  0  0  0  0  0
   43.8110   34.5430   41.6230 C   0  0  0  0  0  0  0  0  0  0  0  0
   45.8130   36.4020   44.1980 H   0  0  0  0  0  0  0  0  0  0  0  0
   44.7610   37.5960   42.4270 H   0  0  0  0  0  0  0  0  0  0  0  0
   43.4320   36.3460   40.7600 H   0  0  0  0  0  0  0  0  0  0  0  0
   40.8770   34.8450   41.9380 Cl  0  0  0  0  0  0  0  0  0  0  0  0
   41.6620   33.8040   40.7530 C   0  0  0  0  0  0  0  0  0  0  0  0
   43.0340   33.7170   40.6670 C   0  0  0  0  0  0  0  0  0  0  0  0
   43.6280   32.8980   39.7360 C   0  0  0  0  0  0  0  0  0  0  0  0
   44.7060   32.8620   39.7070 H   0  0  0  0  0  0  0  0  0  0  0  0
   42.8150   32.1650   38.8880 C   0  0  0  0  0  0  0  0  0  0  0  0
   43.2580   31.5130   38.1450 H   0  0  0  0  0  0  0  0  0  0  0  0
   41.4330   32.2750   38.9980 C   0  0  0  0  0  3  0  0  0  0  0  0
   40.8200   33.0860   39.9220 C   0  0  0  0  0  3  0  0  0  0  0  0
   45.9210   33.6980   44.7440 C   0  0  0  0  0  0  0  0  0  0  0  0
   45.2760   34.1330   45.6680 O   0  0  0  0  0  0  0  0  0  0  0  0
   46.9930   32.8750   44.1710 C   0  0  0  0  0  0  0  0  0  0  0  0
   47.9150   33.2740   43.2830 C   0  0  0  0  0  0  0  0  0  0  0  0
   48.7470   32.2780   42.8270 C   0  0  0  0  0  0  0  0  0  0  0  0
   48.5700   30.9710   43.3190 N   0  0  0  0  0  0  0  0  0  0  0  0
   47.6430   30.6560   44.1940 C   0  0  0  0  0  0  0  0  0  0  0  0
   46.7910   31.6280   44.6700 N   0  0  0  0  0  0  0  0  0  0  0  0
   49.5510   32.4060   42.1050 H   0  0  0  0  0  0  0  0  0  0  0  0
   47.6240   29.6090   44.4850 H   0  0  0  0  0  0  0  0  0  0  0  0
   48.1730   34.6130   42.8750 C   0  0  0  0  0  0  0  0  0  0  0  0
   49.2510   35.1030   42.2100 C   0  0  0  0  0  0  0  0  0  0  0  0
   48.0520   34.9210   41.3210 C   0  0  0  0  0  0  0  0  0  0  0  0
   47.7100   35.3770   43.5280 H   0  0  0  0  0  0  0  0  0  0  0  0
   50.1020   34.3970   41.9680 H   0  0  0  0  0  0  0  0  0  0  0  0
   49.6600   36.1370   42.1730 H   0  0  0  0  0  0  0  0  0  0  0  0
   47.9930   33.9980   40.7130 H   0  0  0  0  0  0  0  0  0  0  0  0
   47.3810   35.7680   41.1020 H   0  0  0  0  0  0  0  0  0  0  0  0
  2  1  1  0  0  0  0
  2  3  1  0  0  0  0
  3 20  1  0  0  0  0
  4  3  2  0  0  0  0
  4  8  1  0  0  0  0
  5  4  1  0  0  0  0
  6  7  1  0  0  0  0
  6  5  2  0  0  0  0
  7  2  2  0  0  0  0
  9  5  1  0  0  0  0
 10  6  1  0  0  0  0
 12 11  1  0  0  0  0
 13 12  1  0  0  0  0
 13  7  1  0  0  0  0
 14 13  2  0  0  0  0
 15 14  1  0  0  0  0
 16 18  2  0  0  0  0
 16 14  1  0  0  0  0
 17 16  1  0  0  0  0
 18 19  1  0  0  0  0
 19 12  2  0  0  0  0
 20 21  2  0  0  0  0
 22 27  1  0  0  0  0
 22 20  1  0  0  0  0
 23 22  2  0  0  0  0
 24 23  1  0  0  0  0
 24 25  2  0  0  0  0
 25 26  1  0  0  0  0
 26 29  1  0  0  0  0
 26 27  2  0  0  0  0
 28 24  1  0  0  0  0
 30 23  1  0  0  0  0
 30 33  1  0  0  0  0
 31 30  1  0  0  0  0
 32 31  1  0  0  0  0
 32 30  1  0  0  0  0
 34 31  1  0  0  0  0
 35 31  1  0  0  0  0
 36 32  1  0  0  0  0
 37 32  1  0  0  0  0
M  END
>  <minimizedAffinity>
-5.54583979

>  <minimizedRMSD>
0.718146265

$$$$
