
 OpenBabel03242523383D

 19 20  0  0  0  0  0  0  0  0999 V2000
   44.8150   35.3470   43.9130 C   0  0  0  0  0  0  0  0  0  0  0  0
   45.7540   35.5730   42.8850 C   0  0  0  0  0  0  0  0  0  0  0  0
   46.9060   34.7680   42.8790 C   0  0  0  0  0  0  0  0  0  0  0  0
   47.0540   33.8260   43.8500 N   0  0  0  0  0  0  0  0  0  0  0  0
   46.1240   33.6400   44.8250 C   0  0  0  0  0  0  0  0  0  0  0  0
   45.0240   34.3910   44.8510 N   0  0  0  0  0  0  0  0  0  0  0  0
   43.9200   35.9620   43.9300 H   0  0  0  0  0  0  0  0  0  0  0  0
   45.6060   36.3290   42.1270 H   0  0  0  0  0  0  0  0  0  0  0  0
   44.6460   34.0060   47.4500 Cl  0  0  0  0  0  0  0  0  0  0  0  0
   45.7300   32.6800   47.0600 C   0  0  0  0  0  0  0  0  0  0  0  0
   46.3520   32.6090   45.8340 C   0  0  0  0  0  0  0  0  0  0  0  0
   47.2040   31.5560   45.5440 C   0  0  0  0  0  0  0  0  0  0  0  0
   47.7070   31.4740   44.5910 H   0  0  0  0  0  0  0  0  0  0  0  0
   47.4320   30.5800   46.4760 C   0  0  0  0  0  0  0  0  0  0  0  0
   48.1050   29.7600   46.2270 H   0  0  0  0  0  0  0  0  0  0  0  0
   46.8020   30.6480   47.7220 C   0  0  0  0  0  3  0  0  0  0  0  0
   45.9590   31.6990   47.9950 C   0  0  0  0  0  3  0  0  0  0  0  0
   48.1510   34.9840   41.6130 S   0  0  0  0  0  0  0  0  0  0  0  0
   49.2570   35.6210   42.2210 H   0  0  0  0  0  0  0  0  0  0  0  0
  1  7  1  0  0  0  0
  1  6  1  0  0  0  0
  2  1  2  0  0  0  0
  3  2  1  0  0  0  0
  3  4  2  0  0  0  0
  4  5  1  0  0  0  0
  5  6  2  0  0  0  0
  5 11  1  0  0  0  0
  8  2  1  0  0  0  0
 10  9  1  0  0  0  0
 10 17  1  0  0  0  0
 11 10  2  0  0  0  0
 12 11  1  0  0  0  0
 12 14  2  0  0  0  0
 13 12  1  0  0  0  0
 14 16  1  0  0  0  0
 15 14  1  0  0  0  0
 16 17  2  0  0  0  0
 18 19  1  0  0  0  0
 18  3  1  0  0  0  0
M  END
>  <minimizedAffinity>
-4.18541908

>  <minimizedRMSD>
1.07460809

$$$$
