
 OpenBabel03242523383D

 19 20  0  0  0  0  0  0  0  0999 V2000
   43.3730   31.5170   42.4760 C   0  0  0  0  0  0  0  0  0  0  0  0
   44.2180   32.6270   42.2680 C   0  0  0  0  0  0  0  0  0  0  0  0
   44.9680   32.6510   41.0800 C   0  0  0  0  0  0  0  0  0  0  0  0
   44.8420   31.6160   40.2040 N   0  0  0  0  0  0  0  0  0  0  0  0
   44.0160   30.5630   40.4420 C   0  0  0  0  0  0  0  0  0  0  0  0
   43.2950   30.5190   41.5620 N   0  0  0  0  0  0  0  0  0  0  0  0
   42.7870   31.4860   43.3910 H   0  0  0  0  0  0  0  0  0  0  0  0
   44.2950   33.4330   42.9850 H   0  0  0  0  0  0  0  0  0  0  0  0
   46.1120   28.3810   40.6810 Cl  0  0  0  0  0  0  0  0  0  0  0  0
   44.8370   28.4510   39.4740 C   0  0  0  0  0  0  0  0  0  0  0  0
   43.9340   29.4910   39.4540 C   0  0  0  0  0  0  0  0  0  0  0  0
   42.9350   29.5290   38.4940 C   0  0  0  0  0  0  0  0  0  0  0  0
   42.2140   30.3330   38.4550 H   0  0  0  0  0  0  0  0  0  0  0  0
   42.8420   28.5340   37.5610 C   0  0  0  0  0  0  0  0  0  0  0  0
   42.0490   28.5850   36.8150 H   0  0  0  0  0  0  0  0  0  0  0  0
   43.7560   27.4770   37.5760 C   0  0  0  0  0  3  0  0  0  0  0  0
   44.7420   27.4520   38.5350 C   0  0  0  0  0  3  0  0  0  0  0  0
   46.0670   34.0190   40.7330 S   0  0  0  0  0  0  0  0  0  0  0  0
   47.3870   33.5510   40.9200 H   0  0  0  0  0  0  0  0  0  0  0  0
  1  7  1  0  0  0  0
  2  1  1  0  0  0  0
  2  8  1  0  0  0  0
  3  2  2  0  0  0  0
  4  5  2  0  0  0  0
  4  3  1  0  0  0  0
  5  6  1  0  0  0  0
  6  1  2  0  0  0  0
 10  9  1  0  0  0  0
 11 10  1  0  0  0  0
 11  5  1  0  0  0  0
 12 11  2  0  0  0  0
 13 12  1  0  0  0  0
 14 16  2  0  0  0  0
 14 12  1  0  0  0  0
 15 14  1  0  0  0  0
 16 17  1  0  0  0  0
 17 10  2  0  0  0  0
 18 19  1  0  0  0  0
 18  3  1  0  0  0  0
M  END
>  <minimizedAffinity>
-1.05057526

>  <minimizedRMSD>
7.8887949

$$$$
