
 OpenBabel03242523373D

 19 20  0  0  0  0  0  0  0  0999 V2000
   44.4730   35.9980   44.5040 C   0  0  0  0  0  0  0  0  0  0  0  0
   44.3590   35.5300   43.1790 C   0  0  0  0  0  0  0  0  0  0  0  0
   44.7460   34.2020   42.9300 C   0  0  0  0  0  0  0  0  0  0  0  0
   45.2060   33.4480   43.9660 N   0  0  0  0  0  0  0  0  0  0  0  0
   45.3020   33.9380   45.2310 C   0  0  0  0  0  0  0  0  0  0  0  0
   44.9400   35.1940   45.4910 N   0  0  0  0  0  0  0  0  0  0  0  0
   44.1760   37.0230   44.7100 H   0  0  0  0  0  0  0  0  0  0  0  0
   43.9880   36.1550   42.3780 H   0  0  0  0  0  0  0  0  0  0  0  0
   47.6350   32.1470   44.4790 Cl  0  0  0  0  0  0  0  0  0  0  0  0
   46.8610   32.2170   46.0550 C   0  0  0  0  0  0  0  0  0  0  0  0
   45.8050   33.0680   46.2910 C   0  0  0  0  0  0  0  0  0  0  0  0
   45.2080   33.1090   47.5400 C   0  0  0  0  0  0  0  0  0  0  0  0
   44.3770   33.7670   47.7530 H   0  0  0  0  0  0  0  0  0  0  0  0
   45.6640   32.3020   48.5460 C   0  0  0  0  0  0  0  0  0  0  0  0
   45.1790   32.3500   49.5210 H   0  0  0  0  0  0  0  0  0  0  0  0
   46.7350   31.4350   48.3120 C   0  0  0  0  0  3  0  0  0  0  0  0
   47.3200   31.4060   47.0670 C   0  0  0  0  0  3  0  0  0  0  0  0
   44.6360   33.5230   41.2790 S   0  0  0  0  0  0  0  0  0  0  0  0
   45.9530   33.4330   40.7770 H   0  0  0  0  0  0  0  0  0  0  0  0
  1  7  1  0  0  0  0
  1  6  1  0  0  0  0
  2  1  2  0  0  0  0
  3  2  1  0  0  0  0
  3  4  2  0  0  0  0
  4  5  1  0  0  0  0
  5  6  2  0  0  0  0
  5 11  1  0  0  0  0
  8  2  1  0  0  0  0
  9 10  1  0  0  0  0
 10 11  2  0  0  0  0
 10 17  1  0  0  0  0
 11 12  1  0  0  0  0
 12 13  1  0  0  0  0
 12 14  2  0  0  0  0
 14 15  1  0  0  0  0
 16 14  1  0  0  0  0
 17 16  2  0  0  0  0
 18  3  1  0  0  0  0
 19 18  1  0  0  0  0
M  END
>  <minimizedAffinity>
-4.43025255

>  <minimizedRMSD>
1.52777994

$$$$
