
 OpenBabel03242523373D

 19 20  0  0  0  0  0  0  0  0999 V2000
   45.9080   34.3210   44.1830 C   0  0  0  0  0  0  0  0  0  0  0  0
   47.0390   34.2000   43.3490 C   0  0  0  0  0  0  0  0  0  0  0  0
   47.8100   33.0330   43.4770 C   0  0  0  0  0  0  0  0  0  0  0  0
   47.4310   32.0920   44.3850 N   0  0  0  0  0  0  0  0  0  0  0  0
   46.3330   32.2470   45.1710 C   0  0  0  0  0  0  0  0  0  0  0  0
   45.5860   33.3460   45.0670 N   0  0  0  0  0  0  0  0  0  0  0  0
   45.3030   35.2190   44.0940 H   0  0  0  0  0  0  0  0  0  0  0  0
   47.3120   34.9670   42.6370 H   0  0  0  0  0  0  0  0  0  0  0  0
   47.4480   32.5810   47.9750 Cl  0  0  0  0  0  0  0  0  0  0  0  0
   46.4440   31.2480   47.4210 C   0  0  0  0  0  0  0  0  0  0  0  0
   45.9890   31.1940   46.1220 C   0  0  0  0  0  0  0  0  0  0  0  0
   45.1990   30.1350   45.7050 C   0  0  0  0  0  0  0  0  0  0  0  0
   44.8280   30.0670   44.6920 H   0  0  0  0  0  0  0  0  0  0  0  0
   44.8660   29.1390   46.5810 C   0  0  0  0  0  0  0  0  0  0  0  0
   44.2420   28.3160   46.2300 H   0  0  0  0  0  0  0  0  0  0  0  0
   45.3240   29.1910   47.9010 C   0  0  0  0  0  3  0  0  0  0  0  0
   46.1090   30.2470   48.3010 C   0  0  0  0  0  3  0  0  0  0  0  0
   49.2630   32.7940   42.4600 S   0  0  0  0  0  0  0  0  0  0  0  0
   50.3890   32.9810   43.2930 H   0  0  0  0  0  0  0  0  0  0  0  0
  1  6  1  0  0  0  0
  2  3  1  0  0  0  0
  2  1  2  0  0  0  0
  3  4  2  0  0  0  0
  4  5  1  0  0  0  0
  5 11  1  0  0  0  0
  6  5  2  0  0  0  0
  7  1  1  0  0  0  0
  8  2  1  0  0  0  0
 10  9  1  0  0  0  0
 10 17  1  0  0  0  0
 11 10  2  0  0  0  0
 12 11  1  0  0  0  0
 12 14  2  0  0  0  0
 13 12  1  0  0  0  0
 14 16  1  0  0  0  0
 15 14  1  0  0  0  0
 16 17  2  0  0  0  0
 18 19  1  0  0  0  0
 18  3  1  0  0  0  0
M  END
>  <minimizedAffinity>
-3.6290977

>  <minimizedRMSD>
2.2537868

$$$$
