
 OpenBabel03242523203D

 37 40  0  0  0  0  0  0  0  0999 V2000
   44.4860   31.7660   42.8580 Cl  0  0  0  0  0  0  0  0  0  0  0  0
   44.5430   33.5250   42.7440 C   0  0  0  0  0  0  0  0  0  0  0  0
   45.4080   34.1560   43.6620 C   0  0  0  0  0  0  0  0  0  0  0  0
   45.3770   35.5310   43.4880 C   0  0  0  0  0  0  0  0  0  0  0  0
   44.6810   36.2760   42.6180 C   0  0  0  0  0  0  0  0  0  0  0  0
   43.8680   35.5850   41.7630 C   0  0  0  0  0  0  0  0  0  0  0  0
   43.7880   34.2360   41.8120 C   0  0  0  0  0  0  0  0  0  0  0  0
   45.9770   36.1900   44.1540 H   0  0  0  0  0  0  0  0  0  0  0  0
   44.6850   37.3300   42.5120 H   0  0  0  0  0  0  0  0  0  0  0  0
   43.2370   36.0180   40.9990 H   0  0  0  0  0  0  0  0  0  0  0  0
   45.1980   33.3080   39.3730 Cl  0  0  0  0  0  0  0  0  0  0  0  0
   43.5340   32.9030   39.7930 C   0  0  0  0  0  0  0  0  0  0  0  0
   42.9480   33.3730   40.9460 C   0  0  0  0  0  0  0  0  0  0  0  0
   41.6490   33.0470   41.2560 C   0  0  0  0  0  0  0  0  0  0  0  0
   41.2310   33.4390   42.1700 H   0  0  0  0  0  0  0  0  0  0  0  0
   40.9470   32.2340   40.3810 C   0  0  0  0  0  0  0  0  0  0  0  0
   39.9210   31.9620   40.6030 H   0  0  0  0  0  0  0  0  0  0  0  0
   41.5670   31.7740   39.2240 C   0  0  0  0  0  3  0  0  0  0  0  0
   42.8630   32.0890   38.8970 C   0  0  0  0  0  3  0  0  0  0  0  0
   46.2650   33.4950   44.6800 C   0  0  0  0  0  0  0  0  0  0  0  0
   45.6720   33.8560   45.6680 O   0  0  0  0  0  0  0  0  0  0  0  0
   47.3430   32.7740   43.9930 C   0  0  0  0  0  0  0  0  0  0  0  0
   48.1900   33.2830   43.0880 C   0  0  0  0  0  0  0  0  0  0  0  0
   49.0450   32.3690   42.5180 C   0  0  0  0  0  0  0  0  0  0  0  0
   48.9650   31.0230   42.9240 N   0  0  0  0  0  0  0  0  0  0  0  0
   48.1080   30.5980   43.8230 C   0  0  0  0  0  0  0  0  0  0  0  0
   47.2350   31.4870   44.4110 N   0  0  0  0  0  0  0  0  0  0  0  0
   49.7990   32.5900   41.7640 H   0  0  0  0  0  0  0  0  0  0  0  0
   48.1590   29.5340   44.0390 H   0  0  0  0  0  0  0  0  0  0  0  0
   48.3550   34.6600   42.7630 C   0  0  0  0  0  0  0  0  0  0  0  0
   49.3800   35.2570   42.1020 C   0  0  0  0  0  0  0  0  0  0  0  0
   48.1660   35.0600   41.2370 C   0  0  0  0  0  0  0  0  0  0  0  0
   47.8690   35.3490   43.4780 H   0  0  0  0  0  0  0  0  0  0  0  0
   50.2630   34.6220   41.7890 H   0  0  0  0  0  0  0  0  0  0  0  0
   49.7260   36.3150   42.1230 H   0  0  0  0  0  0  0  0  0  0  0  0
   48.1430   34.1770   40.5700 H   0  0  0  0  0  0  0  0  0  0  0  0
   47.4400   35.8760   41.0940 H   0  0  0  0  0  0  0  0  0  0  0  0
  2  1  1  0  0  0  0
  2  3  1  0  0  0  0
  3 20  1  0  0  0  0
  4  3  2  0  0  0  0
  4  8  1  0  0  0  0
  5  4  1  0  0  0  0
  6  7  1  0  0  0  0
  6  5  2  0  0  0  0
  7  2  2  0  0  0  0
  9  5  1  0  0  0  0
 10  6  1  0  0  0  0
 11 12  1  0  0  0  0
 12 13  1  0  0  0  0
 13 14  2  0  0  0  0
 13  7  1  0  0  0  0
 14 15  1  0  0  0  0
 16 17  1  0  0  0  0
 16 14  1  0  0  0  0
 18 16  2  0  0  0  0
 19 18  1  0  0  0  0
 19 12  2  0  0  0  0
 20 21  2  0  0  0  0
 22 27  1  0  0  0  0
 22 20  1  0  0  0  0
 23 22  2  0  0  0  0
 24 25  2  0  0  0  0
 24 23  1  0  0  0  0
 25 26  1  0  0  0  0
 26 29  1  0  0  0  0
 26 27  2  0  0  0  0
 28 24  1  0  0  0  0
 30 23  1  0  0  0  0
 30 33  1  0  0  0  0
 31 35  1  0  0  0  0
 31 30  1  0  0  0  0
 32 31  1  0  0  0  0
 32 30  1  0  0  0  0
 34 31  1  0  0  0  0
 36 32  1  0  0  0  0
 37 32  1  0  0  0  0
M  END
>  <minimizedAffinity>
-5.62387037

>  <minimizedRMSD>
1.06331432

$$$$
