
 OpenBabel03242520233D

 44 47  0  0  0  0  0  0  0  0999 V2000
   41.3890   28.2850   43.0650 C   0  0  0  0  0  0  0  0  0  0  0  0
   42.2430   27.9110   42.4560 H   0  0  0  0  0  0  0  0  0  0  0  0
   41.8550   28.9620   43.8180 H   0  0  0  0  0  0  0  0  0  0  0  0
   40.4530   30.3780   42.2350 C   0  0  0  0  0  0  0  0  0  0  0  0
   41.2590   31.0910   42.9130 O   0  0  0  0  0  0  0  0  0  0  0  0
   40.4850   28.9720   42.1680 N   0  0  0  0  0  0  0  0  0  0  0  0
   39.9130   28.4130   41.5290 H   0  0  0  0  0  0  0  0  0  0  0  0
   39.3900   31.0530   41.4460 C   0  0  0  0  0  0  0  0  0  0  0  0
   39.4320   32.4270   41.2980 C   0  0  0  0  0  0  0  0  0  0  0  0
   38.5110   33.1760   40.5920 C   0  0  0  0  0  0  0  0  0  0  0  0
   37.4830   32.4580   40.0040 C   0  0  0  0  0  0  0  0  0  0  0  0
   37.4650   31.0990   40.1670 C   0  0  0  0  0  0  0  0  0  0  0  0
   38.3840   30.4040   40.8650 N   0  0  0  0  0  0  0  0  0  0  0  0
   40.2520   32.9530   41.7730 H   0  0  0  0  0  0  0  0  0  0  0  0
   38.6040   34.2540   40.5140 H   0  0  0  0  0  0  0  0  0  0  0  0
   36.7590   33.0340   39.4500 H   0  0  0  0  0  0  0  0  0  0  0  0
   37.5860   30.7130   37.1630 Cl  0  0  0  0  0  0  0  0  0  0  0  0
   36.3270   30.0520   38.2090 C   0  0  0  0  0  0  0  0  0  0  0  0
   36.3990   30.3090   39.5630 C   0  0  0  0  0  0  0  0  0  0  0  0
   35.3640   29.7420   40.2740 C   0  0  0  0  0  0  0  0  0  0  0  0
   35.3020   29.8650   41.3300 H   0  0  0  0  0  0  0  0  0  0  0  0
   34.3510   28.9940   39.7190 C   0  0  0  0  0  0  0  0  0  0  0  0
   33.5550   28.5670   40.3150 H   0  0  0  0  0  0  0  0  0  0  0  0
   34.3450   28.7800   38.3560 C   0  0  0  0  0  3  0  0  0  0  0  0
   35.3490   29.3140   37.5750 C   0  0  0  0  0  3  0  0  0  0  0  0
   40.7090   27.1280   43.8040 C   0  0  0  0  0  0  0  0  0  0  0  0
   41.1840   26.1660   43.5360 H   0  0  0  0  0  0  0  0  0  0  0  0
   40.8320   27.2690   44.8830 H   0  0  0  0  0  0  0  0  0  0  0  0
   37.4180   26.0430   42.2700 C   0  0  0  0  0  0  0  0  0  0  0  0
   38.8000   26.0670   42.5990 C   0  0  0  0  0  0  0  0  0  0  0  0
   39.2770   27.0670   43.4240 C   0  0  0  0  0  0  0  0  0  0  0  0
   38.3570   27.9860   43.8750 N   0  0  0  0  0  0  0  0  0  0  0  0
   37.0370   27.9140   43.5240 C   0  0  0  0  0  0  0  0  0  0  0  0
   36.5800   26.9490   42.7300 N   0  0  0  0  0  0  0  0  0  0  0  0
   39.4830   25.3270   42.2210 H   0  0  0  0  0  0  0  0  0  0  0  0
   36.3570   28.6720   43.9160 H   0  0  0  0  0  0  0  0  0  0  0  0
   36.9220   24.9610   41.3640 C   0  0  0  0  0  0  0  0  0  0  0  0
   36.6990   25.5100   39.8980 C   0  0  0  0  0  0  0  0  0  0  0  0
   37.6130   24.4250   40.2630 C   0  0  0  0  0  0  0  0  0  0  0  0
   35.9620   24.5320   41.7570 H   0  0  0  0  0  0  0  0  0  0  0  0
   37.1010   26.5030   39.6790 H   0  0  0  0  0  0  0  0  0  0  0  0
   35.7580   25.2540   39.4160 H   0  0  0  0  0  0  0  0  0  0  0  0
   37.3760   23.3880   39.9210 H   0  0  0  0  0  0  0  0  0  0  0  0
   38.7040   24.6300   40.1040 H   0  0  0  0  0  0  0  0  0  0  0  0
  1 26  1  0  0  0  0
  1  3  1  0  0  0  0
  2  1  1  0  0  0  0
  4  5  2  0  0  0  0
  6  4  1  0  0  0  0
  6  1  1  0  0  0  0
  7  6  1  0  0  0  0
  8  4  1  0  0  0  0
  9  8  1  0  0  0  0
  9 14  1  0  0  0  0
 10  9  2  0  0  0  0
 11 12  2  0  0  0  0
 11 10  1  0  0  0  0
 12 13  1  0  0  0  0
 13  8  2  0  0  0  0
 15 10  1  0  0  0  0
 16 11  1  0  0  0  0
 17 18  1  0  0  0  0
 18 19  1  0  0  0  0
 19 12  1  0  0  0  0
 19 20  2  0  0  0  0
 20 21  1  0  0  0  0
 22 20  1  0  0  0  0
 22 23  1  0  0  0  0
 24 22  2  0  0  0  0
 25 18  2  0  0  0  0
 25 24  1  0  0  0  0
 26 28  1  0  0  0  0
 27 26  1  0  0  0  0
 29 30  2  0  0  0  0
 29 34  1  0  0  0  0
 30 31  1  0  0  0  0
 31 26  1  0  0  0  0
 31 32  2  0  0  0  0
 33 32  1  0  0  0  0
 33 36  1  0  0  0  0
 34 33  2  0  0  0  0
 35 30  1  0  0  0  0
 37 40  1  0  0  0  0
 37 29  1  0  0  0  0
 38 39  1  0  0  0  0
 38 37  1  0  0  0  0
 39 37  1  0  0  0  0
 41 38  1  0  0  0  0
 42 38  1  0  0  0  0
 43 39  1  0  0  0  0
 44 39  1  0  0  0  0
M  END
>  <minimizedAffinity>
-6.1101861

$$$$

 OpenBabel03242520233D

 44 47  0  0  0  0  0  0  0  0999 V2000
   36.2140   29.6840   39.2830 C   0  0  0  0  0  0  0  0  0  0  0  0
   35.4610   29.7510   38.4660 H   0  0  0  0  0  0  0  0  0  0  0  0
   36.9310   28.9010   38.9420 H   0  0  0  0  0  0  0  0  0  0  0  0
   38.2240   31.0670   39.2890 C   0  0  0  0  0  0  0  0  0  0  0  0
   38.9720   30.1080   38.9190 O   0  0  0  0  0  0  0  0  0  0  0  0
   36.8240   30.9900   39.4180 N   0  0  0  0  0  0  0  0  0  0  0  0
   36.2170   31.7950   39.5990 H   0  0  0  0  0  0  0  0  0  0  0  0
   38.8470   32.3760   39.6160 C   0  0  0  0  0  0  0  0  0  0  0  0
   38.0340   33.4730   39.8290 C   0  0  0  0  0  0  0  0  0  0  0  0
   38.4820   34.7420   40.1410 C   0  0  0  0  0  0  0  0  0  0  0  0
   39.8550   34.8820   40.2370 C   0  0  0  0  0  0  0  0  0  0  0  0
   40.6370   33.7800   40.0220 C   0  0  0  0  0  0  0  0  0  0  0  0
   40.1610   32.5570   39.7190 N   0  0  0  0  0  0  0  0  0  0  0  0
   36.9630   33.3220   39.7450 H   0  0  0  0  0  0  0  0  0  0  0  0
   37.7870   35.5600   40.2960 H   0  0  0  0  0  0  0  0  0  0  0  0
   40.2140   35.8700   40.4810 H   0  0  0  0  0  0  0  0  0  0  0  0
   42.1630   33.9580   37.4080 Cl  0  0  0  0  0  0  0  0  0  0  0  0
   42.9090   33.9780   39.0080 C   0  0  0  0  0  0  0  0  0  0  0  0
   42.0880   33.8890   40.1150 C   0  0  0  0  0  0  0  0  0  0  0  0
   42.7840   33.9150   41.3030 C   0  0  0  0  0  0  0  0  0  0  0  0
   42.2680   33.8540   42.2330 H   0  0  0  0  0  0  0  0  0  0  0  0
   44.1520   34.0180   41.4080 C   0  0  0  0  0  0  0  0  0  0  0  0
   44.6590   34.0340   42.3640 H   0  0  0  0  0  0  0  0  0  0  0  0
   44.9070   34.1010   40.2570 C   0  0  0  0  0  3  0  0  0  0  0  0
   44.2840   34.0830   39.0260 C   0  0  0  0  0  3  0  0  0  0  0  0
   35.5570   29.2110   40.5830 C   0  0  0  0  0  0  0  0  0  0  0  0
   35.0260   30.0470   41.0750 H   0  0  0  0  0  0  0  0  0  0  0  0
   34.8160   28.4380   40.3510 H   0  0  0  0  0  0  0  0  0  0  0  0
   37.9670   26.9310   42.4160 C   0  0  0  0  0  0  0  0  0  0  0  0
   36.9570   27.3700   41.5170 C   0  0  0  0  0  0  0  0  0  0  0  0
   36.5970   28.7030   41.5110 C   0  0  0  0  0  0  0  0  0  0  0  0
   37.2570   29.5250   42.3950 N   0  0  0  0  0  0  0  0  0  0  0  0
   38.2210   29.0470   43.2390 C   0  0  0  0  0  0  0  0  0  0  0  0
   38.5670   27.7620   43.2430 N   0  0  0  0  0  0  0  0  0  0  0  0
   36.4670   26.6900   40.8440 H   0  0  0  0  0  0  0  0  0  0  0  0
   38.7090   29.7490   43.9170 H   0  0  0  0  0  0  0  0  0  0  0  0
   38.3330   25.4800   42.4200 C   0  0  0  0  0  0  0  0  0  0  0  0
   39.5960   25.2160   41.5060 C   0  0  0  0  0  0  0  0  0  0  0  0
   39.5180   24.9300   42.9400 C   0  0  0  0  0  0  0  0  0  0  0  0
   37.4700   24.8600   42.0610 H   0  0  0  0  0  0  0  0  0  0  0  0
   40.1460   26.0950   41.1600 H   0  0  0  0  0  0  0  0  0  0  0  0
   39.5310   24.3840   40.8070 H   0  0  0  0  0  0  0  0  0  0  0  0
   39.5230   23.8640   43.2750 H   0  0  0  0  0  0  0  0  0  0  0  0
   40.2000   25.5300   43.5970 H   0  0  0  0  0  0  0  0  0  0  0  0
  1  6  1  0  0  0  0
  1 26  1  0  0  0  0
  2  1  1  0  0  0  0
  3  1  1  0  0  0  0
  4  6  1  0  0  0  0
  4  8  1  0  0  0  0
  5  4  2  0  0  0  0
  6  7  1  0  0  0  0
  8 13  2  0  0  0  0
  8  9  1  0  0  0  0
  9 10  2  0  0  0  0
 10 11  1  0  0  0  0
 10 15  1  0  0  0  0
 11 16  1  0  0  0  0
 12 19  1  0  0  0  0
 12 11  2  0  0  0  0
 13 12  1  0  0  0  0
 14  9  1  0  0  0  0
 17 18  1  0  0  0  0
 18 25  2  0  0  0  0
 18 19  1  0  0  0  0
 19 20  2  0  0  0  0
 20 22  1  0  0  0  0
 20 21  1  0  0  0  0
 22 23  1  0  0  0  0
 24 22  2  0  0  0  0
 25 24  1  0  0  0  0
 26 27  1  0  0  0  0
 26 31  1  0  0  0  0
 28 26  1  0  0  0  0
 29 37  1  0  0  0  0
 29 34  1  0  0  0  0
 30 29  2  0  0  0  0
 31 30  1  0  0  0  0
 31 32  2  0  0  0  0
 32 33  1  0  0  0  0
 33 34  2  0  0  0  0
 33 36  1  0  0  0  0
 35 30  1  0  0  0  0
 37 39  1  0  0  0  0
 38 37  1  0  0  0  0
 38 39  1  0  0  0  0
 39 43  1  0  0  0  0
 39 44  1  0  0  0  0
 40 37  1  0  0  0  0
 41 38  1  0  0  0  0
 42 38  1  0  0  0  0
M  END
>  <minimizedAffinity>
-6.0697031

$$$$

 OpenBabel03242520233D

 44 47  0  0  0  0  0  0  0  0999 V2000
   39.0360   34.0190   40.5460 C   0  0  0  0  0  0  0  0  0  0  0  0
   38.9810   34.8920   41.2340 H   0  0  0  0  0  0  0  0  0  0  0  0
   39.8640   34.2650   39.8420 H   0  0  0  0  0  0  0  0  0  0  0  0
   40.5210   32.1720   41.1230 C   0  0  0  0  0  0  0  0  0  0  0  0
   41.4550   32.5940   40.3710 O   0  0  0  0  0  0  0  0  0  0  0  0
   39.3080   32.8480   41.3530 N   0  0  0  0  0  0  0  0  0  0  0  0
   38.6130   32.5640   42.0500 H   0  0  0  0  0  0  0  0  0  0  0  0
   40.6970   30.8730   41.8240 C   0  0  0  0  0  0  0  0  0  0  0  0
   41.9230   30.5730   42.3870 C   0  0  0  0  0  0  0  0  0  0  0  0
   42.2190   29.4070   43.0640 C   0  0  0  0  0  0  0  0  0  0  0  0
   41.1810   28.4950   43.1630 C   0  0  0  0  0  0  0  0  0  0  0  0
   39.9780   28.8170   42.5970 C   0  0  0  0  0  0  0  0  0  0  0  0
   39.7290   29.9690   41.9430 N   0  0  0  0  0  0  0  0  0  0  0  0
   42.7100   31.3120   42.2870 H   0  0  0  0  0  0  0  0  0  0  0  0
   43.2040   29.2340   43.4830 H   0  0  0  0  0  0  0  0  0  0  0  0
   41.4030   27.5810   43.6910 H   0  0  0  0  0  0  0  0  0  0  0  0
   40.2530   26.2190   41.0600 Cl  0  0  0  0  0  0  0  0  0  0  0  0
   38.8500   26.6640   42.0340 C   0  0  0  0  0  0  0  0  0  0  0  0
   38.8620   27.8830   42.6820 C   0  0  0  0  0  0  0  0  0  0  0  0
   37.7160   28.1160   43.4090 C   0  0  0  0  0  0  0  0  0  0  0  0
   37.5980   29.0230   43.9570 H   0  0  0  0  0  0  0  0  0  0  0  0
   36.6550   27.2450   43.4990 C   0  0  0  0  0  0  0  0  0  0  0  0
   35.7710   27.4700   44.0830 H   0  0  0  0  0  0  0  0  0  0  0  0
   36.7140   26.0450   42.8230 C   0  0  0  0  0  3  0  0  0  0  0  0
   37.8290   25.7360   42.0730 C   0  0  0  0  0  3  0  0  0  0  0  0
   37.7380   33.8850   39.7430 C   0  0  0  0  0  0  0  0  0  0  0  0
   36.8600   34.0040   40.4050 H   0  0  0  0  0  0  0  0  0  0  0  0
   37.6970   34.6790   38.9900 H   0  0  0  0  0  0  0  0  0  0  0  0
   36.6410   30.3810   38.8030 C   0  0  0  0  0  0  0  0  0  0  0  0
   36.6660   31.6540   39.4350 C   0  0  0  0  0  0  0  0  0  0  0  0
   37.6760   32.5420   39.1180 C   0  0  0  0  0  0  0  0  0  0  0  0
   38.6020   32.1180   38.1920 N   0  0  0  0  0  0  0  0  0  0  0  0
   38.5280   30.8800   37.6160 C   0  0  0  0  0  0  0  0  0  0  0  0
   37.5540   30.0270   37.9230 N   0  0  0  0  0  0  0  0  0  0  0  0
   35.9200   31.9410   40.1540 H   0  0  0  0  0  0  0  0  0  0  0  0
   39.2930   30.6030   36.8880 H   0  0  0  0  0  0  0  0  0  0  0  0
   35.5480   29.4270   39.1700 C   0  0  0  0  0  0  0  0  0  0  0  0
   36.1400   28.1240   39.8430 C   0  0  0  0  0  0  0  0  0  0  0  0
   35.1910   29.0440   40.4750 C   0  0  0  0  0  0  0  0  0  0  0  0
   34.9540   29.1460   38.2600 H   0  0  0  0  0  0  0  0  0  0  0  0
   37.1940   28.1550   40.1310 H   0  0  0  0  0  0  0  0  0  0  0  0
   35.7690   27.1700   39.4750 H   0  0  0  0  0  0  0  0  0  0  0  0
   34.1510   28.6870   40.6730 H   0  0  0  0  0  0  0  0  0  0  0  0
   35.5720   29.6020   41.3700 H   0  0  0  0  0  0  0  0  0  0  0  0
  1  2  1  0  0  0  0
  1  6  1  0  0  0  0
  3  1  1  0  0  0  0
  4  6  1  0  0  0  0
  4  8  1  0  0  0  0
  5  4  2  0  0  0  0
  6  7  1  0  0  0  0
  8 13  2  0  0  0  0
  8  9  1  0  0  0  0
  9 10  2  0  0  0  0
 10 11  1  0  0  0  0
 10 15  1  0  0  0  0
 11 16  1  0  0  0  0
 12 19  1  0  0  0  0
 12 11  2  0  0  0  0
 13 12  1  0  0  0  0
 14  9  1  0  0  0  0
 17 18  1  0  0  0  0
 18 25  2  0  0  0  0
 18 19  1  0  0  0  0
 19 20  2  0  0  0  0
 20 22  1  0  0  0  0
 20 21  1  0  0  0  0
 22 23  1  0  0  0  0
 24 22  2  0  0  0  0
 25 24  1  0  0  0  0
 26 27  1  0  0  0  0
 26  1  1  0  0  0  0
 28 26  1  0  0  0  0
 29 37  1  0  0  0  0
 29 30  1  0  0  0  0
 30 35  1  0  0  0  0
 31 30  2  0  0  0  0
 31 26  1  0  0  0  0
 32 31  1  0  0  0  0
 33 34  1  0  0  0  0
 33 32  2  0  0  0  0
 34 29  2  0  0  0  0
 36 33  1  0  0  0  0
 37 38  1  0  0  0  0
 37 39  1  0  0  0  0
 38 41  1  0  0  0  0
 38 39  1  0  0  0  0
 39 43  1  0  0  0  0
 39 44  1  0  0  0  0
 40 37  1  0  0  0  0
 42 38  1  0  0  0  0
M  END
>  <minimizedAffinity>
-6.0381856

$$$$

 OpenBabel03242520233D

 44 47  0  0  0  0  0  0  0  0999 V2000
   36.8340   23.1880   39.6720 C   0  0  0  0  0  0  0  0  0  0  0  0
   36.0850   22.3670   39.7390 H   0  0  0  0  0  0  0  0  0  0  0  0
   37.4850   22.9100   38.8110 H   0  0  0  0  0  0  0  0  0  0  0  0
   35.9600   24.8610   38.1270 C   0  0  0  0  0  0  0  0  0  0  0  0
   36.2880   24.1870   37.1000 O   0  0  0  0  0  0  0  0  0  0  0  0
   36.1050   24.4200   39.4560 N   0  0  0  0  0  0  0  0  0  0  0  0
   35.7300   24.9140   40.2710 H   0  0  0  0  0  0  0  0  0  0  0  0
   35.3780   26.2150   37.9390 C   0  0  0  0  0  0  0  0  0  0  0  0
   34.2660   26.3640   37.1320 C   0  0  0  0  0  0  0  0  0  0  0  0
   33.6280   27.5610   36.8750 C   0  0  0  0  0  0  0  0  0  0  0  0
   34.1760   28.6730   37.4920 C   0  0  0  0  0  0  0  0  0  0  0  0
   35.2760   28.4980   38.2860 C   0  0  0  0  0  0  0  0  0  0  0  0
   35.8710   27.3100   38.5120 N   0  0  0  0  0  0  0  0  0  0  0  0
   33.8670   25.4690   36.6660 H   0  0  0  0  0  0  0  0  0  0  0  0
   32.7570   27.6070   36.2300 H   0  0  0  0  0  0  0  0  0  0  0  0
   33.6830   29.6130   37.2980 H   0  0  0  0  0  0  0  0  0  0  0  0
   37.0450   30.2860   36.5930 Cl  0  0  0  0  0  0  0  0  0  0  0  0
   36.7070   30.5430   38.3060 C   0  0  0  0  0  0  0  0  0  0  0  0
   35.8810   29.6450   38.9530 C   0  0  0  0  0  0  0  0  0  0  0  0
   35.6920   29.9510   40.2830 C   0  0  0  0  0  0  0  0  0  0  0  0
   35.0740   29.3360   40.8960 H   0  0  0  0  0  0  0  0  0  0  0  0
   36.2550   31.0290   40.9260 C   0  0  0  0  0  0  0  0  0  0  0  0
   36.0800   31.2310   41.9760 H   0  0  0  0  0  0  0  0  0  0  0  0
   37.0710   31.8820   40.2150 C   0  0  0  0  0  3  0  0  0  0  0  0
   37.3090   31.6450   38.8770 C   0  0  0  0  0  3  0  0  0  0  0  0
   37.6940   23.2340   40.9390 C   0  0  0  0  0  0  0  0  0  0  0  0
   37.0830   22.9990   41.8300 H   0  0  0  0  0  0  0  0  0  0  0  0
   38.4820   22.4770   40.8670 H   0  0  0  0  0  0  0  0  0  0  0  0
   38.6320   26.6100   42.3840 C   0  0  0  0  0  0  0  0  0  0  0  0
   38.0580   25.3150   42.2650 C   0  0  0  0  0  0  0  0  0  0  0  0
   38.2630   24.5940   41.1050 C   0  0  0  0  0  0  0  0  0  0  0  0
   39.0240   25.1970   40.1300 N   0  0  0  0  0  0  0  0  0  0  0  0
   39.5520   26.4470   40.3000 C   0  0  0  0  0  0  0  0  0  0  0  0
   39.3530   27.1400   41.4180 N   0  0  0  0  0  0  0  0  0  0  0  0
   37.4680   24.8850   43.0550 H   0  0  0  0  0  0  0  0  0  0  0  0
   40.1470   26.8700   39.4890 H   0  0  0  0  0  0  0  0  0  0  0  0
   38.3870   27.3830   43.6420 C   0  0  0  0  0  0  0  0  0  0  0  0
   37.9320   28.8620   43.3160 C   0  0  0  0  0  0  0  0  0  0  0  0
   37.1460   27.8850   44.0730 C   0  0  0  0  0  0  0  0  0  0  0  0
   39.3140   27.4030   44.2740 H   0  0  0  0  0  0  0  0  0  0  0  0
   37.6680   29.0780   42.2760 H   0  0  0  0  0  0  0  0  0  0  0  0
   38.4310   29.6600   43.8610 H   0  0  0  0  0  0  0  0  0  0  0  0
   36.9790   28.0630   45.1640 H   0  0  0  0  0  0  0  0  0  0  0  0
   36.1860   27.5540   43.5980 H   0  0  0  0  0  0  0  0  0  0  0  0
  1  2  1  0  0  0  0
  1 26  1  0  0  0  0
  3  1  1  0  0  0  0
  4  6  1  0  0  0  0
  5  4  2  0  0  0  0
  6  1  1  0  0  0  0
  6  7  1  0  0  0  0
  8  4  1  0  0  0  0
  8 13  1  0  0  0  0
  9  8  2  0  0  0  0
 10  9  1  0  0  0  0
 10 11  2  0  0  0  0
 11 12  1  0  0  0  0
 12 13  2  0  0  0  0
 12 19  1  0  0  0  0
 14  9  1  0  0  0  0
 15 10  1  0  0  0  0
 16 11  1  0  0  0  0
 17 18  1  0  0  0  0
 18 25  2  0  0  0  0
 18 19  1  0  0  0  0
 19 20  2  0  0  0  0
 20 21  1  0  0  0  0
 20 22  1  0  0  0  0
 22 23  1  0  0  0  0
 24 22  2  0  0  0  0
 25 24  1  0  0  0  0
 26 31  1  0  0  0  0
 26 27  1  0  0  0  0
 28 26  1  0  0  0  0
 29 37  1  0  0  0  0
 30 29  1  0  0  0  0
 30 35  1  0  0  0  0
 31 30  2  0  0  0  0
 32 33  2  0  0  0  0
 32 31  1  0  0  0  0
 33 34  1  0  0  0  0
 34 29  2  0  0  0  0
 36 33  1  0  0  0  0
 37 39  1  0  0  0  0
 37 40  1  0  0  0  0
 38 37  1  0  0  0  0
 38 42  1  0  0  0  0
 38 39  1  0  0  0  0
 39 43  1  0  0  0  0
 41 38  1  0  0  0  0
 44 39  1  0  0  0  0
M  END
>  <minimizedAffinity>
-5.96570587

$$$$

 OpenBabel03242520233D

 44 47  0  0  0  0  0  0  0  0999 V2000
   37.1630   28.5740   36.5550 C   0  0  0  0  0  0  0  0  0  0  0  0
   38.1170   29.1050   36.3390 H   0  0  0  0  0  0  0  0  0  0  0  0
   36.9170   28.0370   35.6100 H   0  0  0  0  0  0  0  0  0  0  0  0
   36.7020   26.4630   37.6860 C   0  0  0  0  0  0  0  0  0  0  0  0
   35.9840   26.0260   36.7320 O   0  0  0  0  0  0  0  0  0  0  0  0
   37.4070   27.6810   37.6680 N   0  0  0  0  0  0  0  0  0  0  0  0
   38.0770   27.9690   38.3870 H   0  0  0  0  0  0  0  0  0  0  0  0
   36.8220   25.6480   38.9230 C   0  0  0  0  0  0  0  0  0  0  0  0
   35.9810   24.5650   39.1000 C   0  0  0  0  0  0  0  0  0  0  0  0
   35.9880   23.7280   40.1980 C   0  0  0  0  0  0  0  0  0  0  0  0
   36.9230   24.0310   41.1730 C   0  0  0  0  0  0  0  0  0  0  0  0
   37.7430   25.1080   40.9730 C   0  0  0  0  0  0  0  0  0  0  0  0
   37.7050   25.9020   39.8850 N   0  0  0  0  0  0  0  0  0  0  0  0
   35.2620   24.3610   38.3140 H   0  0  0  0  0  0  0  0  0  0  0  0
   35.2990   22.8930   40.2730 H   0  0  0  0  0  0  0  0  0  0  0  0
   36.9360   23.3810   42.0340 H   0  0  0  0  0  0  0  0  0  0  0  0
   36.9730   27.2520   42.9720 Cl  0  0  0  0  0  0  0  0  0  0  0  0
   38.5270   26.4150   42.9490 C   0  0  0  0  0  0  0  0  0  0  0  0
   38.7410   25.4580   41.9770 C   0  0  0  0  0  0  0  0  0  0  0  0
   39.9860   24.8750   42.0610 C   0  0  0  0  0  0  0  0  0  0  0  0
   40.2780   24.1200   41.3690 H   0  0  0  0  0  0  0  0  0  0  0  0
   40.9380   25.1940   43.0020 C   0  0  0  0  0  0  0  0  0  0  0  0
   41.9060   24.7110   43.0310 H   0  0  0  0  0  0  0  0  0  0  0  0
   40.6530   26.1630   43.9420 C   0  0  0  0  0  3  0  0  0  0  0  0
   39.4250   26.7920   43.9250 C   0  0  0  0  0  3  0  0  0  0  0  0
   36.0440   29.5790   36.8500 C   0  0  0  0  0  0  0  0  0  0  0  0
   36.1230   30.4530   36.1770 H   0  0  0  0  0  0  0  0  0  0  0  0
   35.0760   29.1030   36.6630 H   0  0  0  0  0  0  0  0  0  0  0  0
   36.9720   31.5920   39.9240 C   0  0  0  0  0  0  0  0  0  0  0  0
   36.9020   31.1690   38.5690 C   0  0  0  0  0  0  0  0  0  0  0  0
   36.1560   30.0510   38.2510 C   0  0  0  0  0  0  0  0  0  0  0  0
   35.5210   29.4160   39.2940 N   0  0  0  0  0  0  0  0  0  0  0  0
   35.6240   29.8680   40.5810 C   0  0  0  0  0  0  0  0  0  0  0  0
   36.3430   30.9450   40.8840 N   0  0  0  0  0  0  0  0  0  0  0  0
   37.4170   31.6980   37.7860 H   0  0  0  0  0  0  0  0  0  0  0  0
   35.0960   29.3210   41.3630 H   0  0  0  0  0  0  0  0  0  0  0  0
   37.7970   32.7960   40.2510 C   0  0  0  0  0  0  0  0  0  0  0  0
   39.1690   32.3760   40.9160 C   0  0  0  0  0  0  0  0  0  0  0  0
   39.0320   33.1330   39.6700 C   0  0  0  0  0  0  0  0  0  0  0  0
   37.2340   33.4770   40.9430 H   0  0  0  0  0  0  0  0  0  0  0  0
   39.4300   31.3150   40.8770 H   0  0  0  0  0  0  0  0  0  0  0  0
   39.4610   32.9110   41.8170 H   0  0  0  0  0  0  0  0  0  0  0  0
   39.3540   34.2030   39.6550 H   0  0  0  0  0  0  0  0  0  0  0  0
   39.3980   32.6200   38.7420 H   0  0  0  0  0  0  0  0  0  0  0  0
  1 26  1  0  0  0  0
  1  6  1  0  0  0  0
  2  1  1  0  0  0  0
  3  1  1  0  0  0  0
  4  8  1  0  0  0  0
  5  4  2  0  0  0  0
  6  4  1  0  0  0  0
  6  7  1  0  0  0  0
  8  9  2  0  0  0  0
  8 13  1  0  0  0  0
  9 10  1  0  0  0  0
 10 15  1  0  0  0  0
 10 11  2  0  0  0  0
 11 16  1  0  0  0  0
 12 11  1  0  0  0  0
 12 19  1  0  0  0  0
 13 12  2  0  0  0  0
 14  9  1  0  0  0  0
 18 17  1  0  0  0  0
 18 25  1  0  0  0  0
 19 20  1  0  0  0  0
 19 18  2  0  0  0  0
 20 22  2  0  0  0  0
 21 20  1  0  0  0  0
 22 23  1  0  0  0  0
 22 24  1  0  0  0  0
 25 24  2  0  0  0  0
 26 31  1  0  0  0  0
 27 26  1  0  0  0  0
 28 26  1  0  0  0  0
 29 37  1  0  0  0  0
 29 34  1  0  0  0  0
 30 29  2  0  0  0  0
 31 30  1  0  0  0  0
 31 32  2  0  0  0  0
 32 33  1  0  0  0  0
 33 34  2  0  0  0  0
 33 36  1  0  0  0  0
 35 30  1  0  0  0  0
 37 38  1  0  0  0  0
 37 40  1  0  0  0  0
 38 42  1  0  0  0  0
 39 37  1  0  0  0  0
 39 38  1  0  0  0  0
 41 38  1  0  0  0  0
 43 39  1  0  0  0  0
 44 39  1  0  0  0  0
M  END
>  <minimizedAffinity>
-5.88775635

$$$$

 OpenBabel03242520233D

 44 47  0  0  0  0  0  0  0  0999 V2000
   35.9010   29.0540   37.2010 C   0  0  0  0  0  0  0  0  0  0  0  0
   35.2050   29.3340   36.3780 H   0  0  0  0  0  0  0  0  0  0  0  0
   36.7240   28.4960   36.6980 H   0  0  0  0  0  0  0  0  0  0  0  0
   37.7370   30.4800   37.9380 C   0  0  0  0  0  0  0  0  0  0  0  0
   38.6210   29.7410   37.4030 O   0  0  0  0  0  0  0  0  0  0  0  0
   36.3480   30.2800   37.8260 N   0  0  0  0  0  0  0  0  0  0  0  0
   35.6420   30.9440   38.1570 H   0  0  0  0  0  0  0  0  0  0  0  0
   38.1730   31.6480   38.7470 C   0  0  0  0  0  0  0  0  0  0  0  0
   37.2610   32.6450   39.0370 C   0  0  0  0  0  0  0  0  0  0  0  0
   37.5340   33.7780   39.7770 C   0  0  0  0  0  0  0  0  0  0  0  0
   38.8320   33.8860   40.2450 C   0  0  0  0  0  0  0  0  0  0  0  0
   39.7160   32.8860   39.9430 C   0  0  0  0  0  0  0  0  0  0  0  0
   39.4090   31.7930   39.2170 N   0  0  0  0  0  0  0  0  0  0  0  0
   36.2540   32.5240   38.6520 H   0  0  0  0  0  0  0  0  0  0  0  0
   36.7690   34.5230   39.9680 H   0  0  0  0  0  0  0  0  0  0  0  0
   39.0550   34.7680   40.8240 H   0  0  0  0  0  0  0  0  0  0  0  0
   40.4310   31.1740   42.3410 Cl  0  0  0  0  0  0  0  0  0  0  0  0
   41.5570   32.2410   41.4990 C   0  0  0  0  0  0  0  0  0  0  0  0
   41.0920   32.9640   40.4190 C   0  0  0  0  0  0  0  0  0  0  0  0
   42.0610   33.7580   39.8460 C   0  0  0  0  0  0  0  0  0  0  0  0
   41.8310   34.3670   39.0030 H   0  0  0  0  0  0  0  0  0  0  0  0
   43.3630   33.8420   40.2830 C   0  0  0  0  0  0  0  0  0  0  0  0
   44.0930   34.4810   39.8020 H   0  0  0  0  0  0  0  0  0  0  0  0
   43.7550   33.0900   41.3700 C   0  0  0  0  0  3  0  0  0  0  0  0
   42.8430   32.2690   41.9990 C   0  0  0  0  0  3  0  0  0  0  0  0
   35.2080   28.1130   38.1920 C   0  0  0  0  0  0  0  0  0  0  0  0
   34.3880   28.6380   38.7150 H   0  0  0  0  0  0  0  0  0  0  0  0
   34.7690   27.2730   37.6440 H   0  0  0  0  0  0  0  0  0  0  0  0
   37.1530   27.6940   41.4180 C   0  0  0  0  0  0  0  0  0  0  0  0
   36.2030   28.1790   40.4790 C   0  0  0  0  0  0  0  0  0  0  0  0
   36.1880   27.6470   39.2040 C   0  0  0  0  0  0  0  0  0  0  0  0
   37.1140   26.6660   38.9330 N   0  0  0  0  0  0  0  0  0  0  0  0
   38.0060   26.2380   39.8780 C   0  0  0  0  0  0  0  0  0  0  0  0
   38.0180   26.7520   41.1050 N   0  0  0  0  0  0  0  0  0  0  0  0
   35.4980   28.9490   40.7360 H   0  0  0  0  0  0  0  0  0  0  0  0
   38.7150   25.4560   39.6020 H   0  0  0  0  0  0  0  0  0  0  0  0
   37.1640   28.2920   42.7900 C   0  0  0  0  0  0  0  0  0  0  0  0
   36.3030   27.4230   43.7910 C   0  0  0  0  0  0  0  0  0  0  0  0
   37.7310   27.7110   43.9380 C   0  0  0  0  0  0  0  0  0  0  0  0
   36.7670   29.3410   42.7600 H   0  0  0  0  0  0  0  0  0  0  0  0
   35.9840   26.4380   43.4390 H   0  0  0  0  0  0  0  0  0  0  0  0
   35.5980   27.9590   44.4240 H   0  0  0  0  0  0  0  0  0  0  0  0
   38.0600   28.3720   44.7780 H   0  0  0  0  0  0  0  0  0  0  0  0
   38.4190   26.8290   43.8660 H   0  0  0  0  0  0  0  0  0  0  0  0
  1  6  1  0  0  0  0
  1 26  1  0  0  0  0
  2  1  1  0  0  0  0
  3  1  1  0  0  0  0
  4  8  1  0  0  0  0
  5  4  2  0  0  0  0
  6  4  1  0  0  0  0
  6  7  1  0  0  0  0
  8  9  2  0  0  0  0
  8 13  1  0  0  0  0
  9 10  1  0  0  0  0
 10 15  1  0  0  0  0
 10 11  2  0  0  0  0
 11 16  1  0  0  0  0
 12 11  1  0  0  0  0
 12 19  1  0  0  0  0
 13 12  2  0  0  0  0
 14  9  1  0  0  0  0
 18 25  1  0  0  0  0
 18 17  1  0  0  0  0
 19 18  2  0  0  0  0
 20 22  2  0  0  0  0
 20 19  1  0  0  0  0
 21 20  1  0  0  0  0
 22 24  1  0  0  0  0
 23 22  1  0  0  0  0
 24 25  2  0  0  0  0
 26 27  1  0  0  0  0
 26 31  1  0  0  0  0
 28 26  1  0  0  0  0
 29 37  1  0  0  0  0
 30 35  1  0  0  0  0
 30 29  2  0  0  0  0
 31 30  1  0  0  0  0
 32 31  2  0  0  0  0
 32 33  1  0  0  0  0
 33 34  2  0  0  0  0
 34 29  1  0  0  0  0
 36 33  1  0  0  0  0
 37 38  1  0  0  0  0
 37 39  1  0  0  0  0
 38 39  1  0  0  0  0
 38 42  1  0  0  0  0
 39 43  1  0  0  0  0
 40 37  1  0  0  0  0
 41 38  1  0  0  0  0
 44 39  1  0  0  0  0
M  END
>  <minimizedAffinity>
-5.74100399

$$$$

 OpenBabel03242520233D

 44 47  0  0  0  0  0  0  0  0999 V2000
   36.4980   29.6540   37.7240 C   0  0  0  0  0  0  0  0  0  0  0  0
   36.3150   28.8170   37.0130 H   0  0  0  0  0  0  0  0  0  0  0  0
   35.4870   30.0770   37.9290 H   0  0  0  0  0  0  0  0  0  0  0  0
   36.3150   28.9010   40.0370 C   0  0  0  0  0  0  0  0  0  0  0  0
   35.0520   29.0440   40.0590 O   0  0  0  0  0  0  0  0  0  0  0  0
   37.1250   29.0930   38.9020 N   0  0  0  0  0  0  0  0  0  0  0  0
   38.1210   28.8610   38.8590 H   0  0  0  0  0  0  0  0  0  0  0  0
   37.0130   28.5040   41.2870 C   0  0  0  0  0  0  0  0  0  0  0  0
   36.2810   27.9390   42.3160 C   0  0  0  0  0  0  0  0  0  0  0  0
   36.8040   27.5260   43.5250 C   0  0  0  0  0  0  0  0  0  0  0  0
   38.1680   27.7080   43.6790 C   0  0  0  0  0  0  0  0  0  0  0  0
   38.8680   28.2690   42.6460 C   0  0  0  0  0  0  0  0  0  0  0  0
   38.3200   28.6610   41.4790 N   0  0  0  0  0  0  0  0  0  0  0  0
   35.2160   27.8130   42.1570 H   0  0  0  0  0  0  0  0  0  0  0  0
   36.1720   27.0890   44.2910 H   0  0  0  0  0  0  0  0  0  0  0  0
   38.5850   27.3880   44.6210 H   0  0  0  0  0  0  0  0  0  0  0  0
   39.8370   31.1420   42.6430 Cl  0  0  0  0  0  0  0  0  0  0  0  0
   40.8870   29.7290   42.7840 C   0  0  0  0  0  0  0  0  0  0  0  0
   40.3060   28.4770   42.7710 C   0  0  0  0  0  0  0  0  0  0  0  0
   41.2240   27.4570   42.8880 C   0  0  0  0  0  0  0  0  0  0  0  0
   40.9050   26.4400   42.8920 H   0  0  0  0  0  0  0  0  0  0  0  0
   42.5830   27.6370   43.0070 C   0  0  0  0  0  0  0  0  0  0  0  0
   43.2700   26.8050   43.0960 H   0  0  0  0  0  0  0  0  0  0  0  0
   43.0910   28.9190   43.0120 C   0  0  0  0  0  3  0  0  0  0  0  0
   42.2360   29.9950   42.9000 C   0  0  0  0  0  3  0  0  0  0  0  0
   37.3570   30.7390   37.0670 C   0  0  0  0  0  0  0  0  0  0  0  0
   38.2090   30.2840   36.5300 H   0  0  0  0  0  0  0  0  0  0  0  0
   36.7520   31.2810   36.3320 H   0  0  0  0  0  0  0  0  0  0  0  0
   39.7120   32.7640   39.2390 C   0  0  0  0  0  0  0  0  0  0  0  0
   39.2470   31.8740   38.2330 C   0  0  0  0  0  0  0  0  0  0  0  0
   37.8900   31.6500   38.1080 C   0  0  0  0  0  0  0  0  0  0  0  0
   37.0710   32.3220   38.9880 N   0  0  0  0  0  0  0  0  0  0  0  0
   37.5750   33.1670   39.9380 C   0  0  0  0  0  0  0  0  0  0  0  0
   38.8830   33.3810   40.0550 N   0  0  0  0  0  0  0  0  0  0  0  0
   39.9260   31.3700   37.5680 H   0  0  0  0  0  0  0  0  0  0  0  0
   36.8730   33.6700   40.6050 H   0  0  0  0  0  0  0  0  0  0  0  0
   41.1870   32.9820   39.3690 C   0  0  0  0  0  0  0  0  0  0  0  0
   41.6000   34.3960   38.7950 C   0  0  0  0  0  0  0  0  0  0  0  0
   41.8090   33.9520   40.1740 C   0  0  0  0  0  0  0  0  0  0  0  0
   41.7490   32.1750   38.8280 H   0  0  0  0  0  0  0  0  0  0  0  0
   40.7870   35.0930   38.5700 H   0  0  0  0  0  0  0  0  0  0  0  0
   42.4560   34.4220   38.1230 H   0  0  0  0  0  0  0  0  0  0  0  0
   42.8550   33.7770   40.5280 H   0  0  0  0  0  0  0  0  0  0  0  0
   41.2380   34.5100   40.9610 H   0  0  0  0  0  0  0  0  0  0  0  0
  1  3  1  0  0  0  0
  1  6  1  0  0  0  0
  2  1  1  0  0  0  0
  4  5  2  0  0  0  0
  4  8  1  0  0  0  0
  6  4  1  0  0  0  0
  7  6  1  0  0  0  0
  8 13  2  0  0  0  0
  8  9  1  0  0  0  0
  9 10  2  0  0  0  0
 10 11  1  0  0  0  0
 10 15  1  0  0  0  0
 11 16  1  0  0  0  0
 12 19  1  0  0  0  0
 12 11  2  0  0  0  0
 13 12  1  0  0  0  0
 14  9  1  0  0  0  0
 17 18  1  0  0  0  0
 18 25  1  0  0  0  0
 19 18  2  0  0  0  0
 19 20  1  0  0  0  0
 20 21  1  0  0  0  0
 20 22  2  0  0  0  0
 22 24  1  0  0  0  0
 22 23  1  0  0  0  0
 25 24  2  0  0  0  0
 26  1  1  0  0  0  0
 26 31  1  0  0  0  0
 27 26  1  0  0  0  0
 28 26  1  0  0  0  0
 29 37  1  0  0  0  0
 29 34  1  0  0  0  0
 30 29  2  0  0  0  0
 31 30  1  0  0  0  0
 31 32  2  0  0  0  0
 32 33  1  0  0  0  0
 33 34  2  0  0  0  0
 33 36  1  0  0  0  0
 35 30  1  0  0  0  0
 37 39  1  0  0  0  0
 38 37  1  0  0  0  0
 38 39  1  0  0  0  0
 39 43  1  0  0  0  0
 39 44  1  0  0  0  0
 40 37  1  0  0  0  0
 41 38  1  0  0  0  0
 42 38  1  0  0  0  0
M  END
>  <minimizedAffinity>
-5.73194075

$$$$

 OpenBabel03242520233D

 44 47  0  0  0  0  0  0  0  0999 V2000
   34.4200   28.9480   34.9020 C   0  0  0  0  0  0  0  0  0  0  0  0
   34.6500   29.9110   34.3910 H   0  0  0  0  0  0  0  0  0  0  0  0
   35.0060   28.1840   34.3400 H   0  0  0  0  0  0  0  0  0  0  0  0
   35.4550   27.9650   36.8800 C   0  0  0  0  0  0  0  0  0  0  0  0
   35.8070   26.9120   36.2600 O   0  0  0  0  0  0  0  0  0  0  0  0
   34.8370   29.0800   36.2810 N   0  0  0  0  0  0  0  0  0  0  0  0
   34.6670   29.9690   36.7600 H   0  0  0  0  0  0  0  0  0  0  0  0
   35.7040   28.0530   38.3420 C   0  0  0  0  0  0  0  0  0  0  0  0
   35.1540   29.1010   39.0560 C   0  0  0  0  0  0  0  0  0  0  0  0
   35.3050   29.2990   40.4140 C   0  0  0  0  0  0  0  0  0  0  0  0
   36.0720   28.3540   41.0730 C   0  0  0  0  0  0  0  0  0  0  0  0
   36.6050   27.3260   40.3430 C   0  0  0  0  0  0  0  0  0  0  0  0
   36.4340   27.1680   39.0160 N   0  0  0  0  0  0  0  0  0  0  0  0
   34.5600   29.8200   38.5040 H   0  0  0  0  0  0  0  0  0  0  0  0
   34.8450   30.1450   40.9140 H   0  0  0  0  0  0  0  0  0  0  0  0
   36.1950   28.5000   42.1350 H   0  0  0  0  0  0  0  0  0  0  0  0
   39.5830   27.8630   40.5140 Cl  0  0  0  0  0  0  0  0  0  0  0  0
   38.7860   26.4230   41.1510 C   0  0  0  0  0  0  0  0  0  0  0  0
   37.4180   26.3110   41.0020 C   0  0  0  0  0  0  0  0  0  0  0  0
   36.9120   25.1480   41.5390 C   0  0  0  0  0  0  0  0  0  0  0  0
   35.8680   24.9390   41.4900 H   0  0  0  0  0  0  0  0  0  0  0  0
   37.6660   24.1810   42.1630 C   0  0  0  0  0  0  0  0  0  0  0  0
   37.2260   23.2800   42.5710 H   0  0  0  0  0  0  0  0  0  0  0  0
   39.0280   24.3620   42.2750 C   0  0  0  0  0  3  0  0  0  0  0  0
   39.6120   25.5030   41.7630 C   0  0  0  0  0  3  0  0  0  0  0  0
   32.9310   28.6130   34.7720 C   0  0  0  0  0  0  0  0  0  0  0  0
   32.6910   28.3150   33.7350 H   0  0  0  0  0  0  0  0  0  0  0  0
   32.6950   27.7660   35.4240 H   0  0  0  0  0  0  0  0  0  0  0  0
   30.7320   31.0750   36.6340 C   0  0  0  0  0  0  0  0  0  0  0  0
   31.4890   29.9080   36.3420 C   0  0  0  0  0  0  0  0  0  0  0  0
   32.1200   29.8060   35.1180 C   0  0  0  0  0  0  0  0  0  0  0  0
   31.9640   30.8650   34.2520 N   0  0  0  0  0  0  0  0  0  0  0  0
   31.2220   31.9640   34.5880 C   0  0  0  0  0  0  0  0  0  0  0  0
   30.6160   32.0600   35.7680 N   0  0  0  0  0  0  0  0  0  0  0  0
   31.5820   29.1040   37.0500 H   0  0  0  0  0  0  0  0  0  0  0  0
   31.1380   32.7710   33.8580 H   0  0  0  0  0  0  0  0  0  0  0  0
   30.0430   31.1620   37.9600 C   0  0  0  0  0  0  0  0  0  0  0  0
   28.7000   30.3280   37.9530 C   0  0  0  0  0  0  0  0  0  0  0  0
   29.8330   30.0950   38.8510 C   0  0  0  0  0  0  0  0  0  0  0  0
   29.8230   32.2320   38.2150 H   0  0  0  0  0  0  0  0  0  0  0  0
   28.5400   29.6600   37.1020 H   0  0  0  0  0  0  0  0  0  0  0  0
   27.8150   30.8200   38.3520 H   0  0  0  0  0  0  0  0  0  0  0  0
   29.7060   30.3120   39.9410 H   0  0  0  0  0  0  0  0  0  0  0  0
   30.3650   29.1170   38.7250 H   0  0  0  0  0  0  0  0  0  0  0  0
  1  6  1  0  0  0  0
  2  1  1  0  0  0  0
  3  1  1  0  0  0  0
  4  8  1  0  0  0  0
  5  4  2  0  0  0  0
  6  7  1  0  0  0  0
  6  4  1  0  0  0  0
  8 13  2  0  0  0  0
  8  9  1  0  0  0  0
  9 10  2  0  0  0  0
 10 15  1  0  0  0  0
 10 11  1  0  0  0  0
 11 16  1  0  0  0  0
 12 19  1  0  0  0  0
 12 11  2  0  0  0  0
 13 12  1  0  0  0  0
 14  9  1  0  0  0  0
 17 18  1  0  0  0  0
 18 25  1  0  0  0  0
 19 18  2  0  0  0  0
 19 20  1  0  0  0  0
 20 22  2  0  0  0  0
 21 20  1  0  0  0  0
 22 24  1  0  0  0  0
 22 23  1  0  0  0  0
 25 24  2  0  0  0  0
 26  1  1  0  0  0  0
 26 31  1  0  0  0  0
 26 28  1  0  0  0  0
 27 26  1  0  0  0  0
 29 37  1  0  0  0  0
 30 29  1  0  0  0  0
 30 35  1  0  0  0  0
 31 30  2  0  0  0  0
 32 33  2  0  0  0  0
 32 31  1  0  0  0  0
 33 34  1  0  0  0  0
 34 29  2  0  0  0  0
 36 33  1  0  0  0  0
 37 40  1  0  0  0  0
 37 39  1  0  0  0  0
 38 37  1  0  0  0  0
 38 42  1  0  0  0  0
 38 39  1  0  0  0  0
 39 43  1  0  0  0  0
 41 38  1  0  0  0  0
 44 39  1  0  0  0  0
M  END
>  <minimizedAffinity>
-5.67465973

$$$$

 OpenBabel03242520233D

 44 47  0  0  0  0  0  0  0  0999 V2000
   35.5500   28.7320   35.9050 C   0  0  0  0  0  0  0  0  0  0  0  0
   35.5190   29.5920   35.1990 H   0  0  0  0  0  0  0  0  0  0  0  0
   36.3570   28.0710   35.5090 H   0  0  0  0  0  0  0  0  0  0  0  0
   36.7850   30.3060   37.3010 C   0  0  0  0  0  0  0  0  0  0  0  0
   37.2790   30.9160   36.3010 O   0  0  0  0  0  0  0  0  0  0  0  0
   35.8450   29.2600   37.2190 N   0  0  0  0  0  0  0  0  0  0  0  0
   35.3620   28.8560   38.0270 H   0  0  0  0  0  0  0  0  0  0  0  0
   37.2130   30.7050   38.6660 C   0  0  0  0  0  0  0  0  0  0  0  0
   37.3070   32.0490   38.9760 C   0  0  0  0  0  0  0  0  0  0  0  0
   37.6900   32.5540   40.2030 C   0  0  0  0  0  0  0  0  0  0  0  0
   37.9950   31.6090   41.1680 C   0  0  0  0  0  0  0  0  0  0  0  0
   37.8940   30.2860   40.8350 C   0  0  0  0  0  0  0  0  0  0  0  0
   37.5160   29.8320   39.6240 N   0  0  0  0  0  0  0  0  0  0  0  0
   37.0600   32.7570   38.1930 H   0  0  0  0  0  0  0  0  0  0  0  0
   37.7420   33.6230   40.3790 H   0  0  0  0  0  0  0  0  0  0  0  0
   38.2940   31.9950   42.1300 H   0  0  0  0  0  0  0  0  0  0  0  0
   40.7710   29.3380   40.9560 Cl  0  0  0  0  0  0  0  0  0  0  0  0
   39.4730   28.7380   41.9910 C   0  0  0  0  0  0  0  0  0  0  0  0
   38.2070   29.2610   41.8250 C   0  0  0  0  0  0  0  0  0  0  0  0
   37.2810   28.7170   42.6880 C   0  0  0  0  0  0  0  0  0  0  0  0
   36.2650   29.0350   42.6620 H   0  0  0  0  0  0  0  0  0  0  0  0
   37.5610   27.7510   43.6270 C   0  0  0  0  0  0  0  0  0  0  0  0
   36.8010   27.3490   44.2860 H   0  0  0  0  0  0  0  0  0  0  0  0
   38.8500   27.2740   43.7350 C   0  0  0  0  0  3  0  0  0  0  0  0
   39.8350   27.7710   42.9060 C   0  0  0  0  0  3  0  0  0  0  0  0
   34.2270   27.9600   35.8700 C   0  0  0  0  0  0  0  0  0  0  0  0
   34.1460   27.3740   34.9350 H   0  0  0  0  0  0  0  0  0  0  0  0
   34.2000   27.2550   36.7070 H   0  0  0  0  0  0  0  0  0  0  0  0
   31.2990   30.0260   37.1030 C   0  0  0  0  0  0  0  0  0  0  0  0
   32.3710   29.0930   37.0910 C   0  0  0  0  0  0  0  0  0  0  0  0
   33.0930   28.9130   35.9270 C   0  0  0  0  0  0  0  0  0  0  0  0
   32.7110   29.6680   34.8420 N   0  0  0  0  0  0  0  0  0  0  0  0
   31.6690   30.5520   34.9110 C   0  0  0  0  0  0  0  0  0  0  0  0
   30.9760   30.7230   36.0340 N   0  0  0  0  0  0  0  0  0  0  0  0
   32.6330   28.5240   37.9650 H   0  0  0  0  0  0  0  0  0  0  0  0
   31.4150   31.1220   34.0150 H   0  0  0  0  0  0  0  0  0  0  0  0
   30.5190   30.1960   38.3680 C   0  0  0  0  0  0  0  0  0  0  0  0
   29.4190   31.3200   38.2060 C   0  0  0  0  0  0  0  0  0  0  0  0
   29.1510   29.9190   38.5380 C   0  0  0  0  0  0  0  0  0  0  0  0
   31.2050   30.4580   39.2160 H   0  0  0  0  0  0  0  0  0  0  0  0
   29.2290   31.6800   37.1910 H   0  0  0  0  0  0  0  0  0  0  0  0
   29.3540   32.0620   39.0000 H   0  0  0  0  0  0  0  0  0  0  0  0
   28.7660   29.6750   39.5580 H   0  0  0  0  0  0  0  0  0  0  0  0
   28.5750   29.3360   37.7730 H   0  0  0  0  0  0  0  0  0  0  0  0
  1  6  1  0  0  0  0
  2  1  1  0  0  0  0
  3  1  1  0  0  0  0
  4  8  1  0  0  0  0
  5  4  2  0  0  0  0
  6  4  1  0  0  0  0
  6  7  1  0  0  0  0
  8  9  2  0  0  0  0
  8 13  1  0  0  0  0
  9 10  1  0  0  0  0
 10 15  1  0  0  0  0
 10 11  2  0  0  0  0
 11 16  1  0  0  0  0
 12 11  1  0  0  0  0
 12 19  1  0  0  0  0
 13 12  2  0  0  0  0
 14  9  1  0  0  0  0
 17 18  1  0  0  0  0
 18 25  1  0  0  0  0
 19 18  2  0  0  0  0
 19 20  1  0  0  0  0
 20 22  2  0  0  0  0
 21 20  1  0  0  0  0
 22 24  1  0  0  0  0
 22 23  1  0  0  0  0
 25 24  2  0  0  0  0
 26  1  1  0  0  0  0
 26 31  1  0  0  0  0
 26 28  1  0  0  0  0
 27 26  1  0  0  0  0
 29 37  1  0  0  0  0
 30 29  1  0  0  0  0
 30 35  1  0  0  0  0
 31 30  2  0  0  0  0
 32 33  2  0  0  0  0
 32 31  1  0  0  0  0
 33 34  1  0  0  0  0
 34 29  2  0  0  0  0
 36 33  1  0  0  0  0
 37 39  1  0  0  0  0
 37 40  1  0  0  0  0
 38 37  1  0  0  0  0
 38 39  1  0  0  0  0
 38 42  1  0  0  0  0
 39 43  1  0  0  0  0
 41 38  1  0  0  0  0
 44 39  1  0  0  0  0
M  END
>  <minimizedAffinity>
-5.6473608

$$$$
