
 OpenBabel03242510103D

 28 30  0  0  0  0  0  0  0  0999 V2000
   39.6160   27.9700   39.7310 Br  0  0  0  0  0  0  0  0  0  0  0  0
   38.0820   29.0590   40.1510 C   0  0  0  0  0  0  0  0  0  0  0  0
   38.1410   30.4120   39.9810 C   0  0  0  0  0  0  0  0  0  0  0  0
   37.0350   31.2060   40.2830 C   0  0  0  0  0  0  0  0  0  0  0  0
   35.9040   30.5960   40.7470 C   0  0  0  0  0  0  0  0  0  0  0  0
   35.8950   29.2370   40.9010 C   0  0  0  0  0  0  0  0  0  0  0  0
   36.9550   28.4250   40.6170 C   0  0  0  0  0  0  0  0  0  0  0  0
   37.0680   32.2740   40.1540 H   0  0  0  0  0  0  0  0  0  0  0  0
   35.0320   31.2110   40.9870 H   0  0  0  0  0  0  0  0  0  0  0  0
   34.9550   28.8290   41.2750 H   0  0  0  0  0  0  0  0  0  0  0  0
   41.4700   31.9270   39.9080 C   0  0  0  0  0  0  0  0  0  0  0  0
   41.7060   32.1520   38.5340 C   0  0  0  0  0  0  0  0  0  0  0  0
   40.6870   31.7660   37.6460 C   0  0  0  0  0  0  0  0  0  0  0  0
   39.5590   31.2110   38.1480 N   0  0  0  0  0  0  0  0  0  0  0  0
   39.3660   31.0100   39.4850 C   0  0  0  0  0  0  0  0  0  0  0  0
   40.3350   31.3750   40.3420 N   0  0  0  0  0  0  0  0  0  0  0  0
   42.2630   32.2300   40.5660 H   0  0  0  0  0  0  0  0  0  0  0  0
   42.5990   32.5920   38.1210 H   0  0  0  0  0  0  0  0  0  0  0  0
   40.7500   31.8860   36.5670 H   0  0  0  0  0  0  0  0  0  0  0  0
   37.6090   27.4250   43.3320 Cl  0  0  0  0  0  0  0  0  0  0  0  0
   37.1730   26.3630   42.0000 C   0  0  0  0  0  0  0  0  0  0  0  0
   36.8960   26.9770   40.7970 C   0  0  0  0  0  0  0  0  0  0  0  0
   36.5530   26.1220   39.7540 C   0  0  0  0  0  0  0  0  0  0  0  0
   36.3330   26.6130   38.7980 H   0  0  0  0  0  0  0  0  0  0  0  0
   36.5030   24.7550   39.9410 C   0  0  0  0  0  0  0  0  0  0  0  0
   36.2180   24.2180   39.0300 H   0  0  0  0  0  0  0  0  0  0  0  0
   36.7840   24.1770   41.1490 C   0  0  0  0  0  3  0  0  0  0  0  0
   37.1310   25.0010   42.2170 C   0  0  0  0  0  3  0  0  0  0  0  0
  1  2  1  0  0  0  0
  2  7  1  0  0  0  0
  3  2  2  0  0  0  0
  3  4  1  0  0  0  0
  4  5  2  0  0  0  0
  5  6  1  0  0  0  0
  5  9  1  0  0  0  0
  6 10  1  0  0  0  0
  7 22  1  0  0  0  0
  7  6  2  0  0  0  0
  8  4  1  0  0  0  0
 11 16  1  0  0  0  0
 11 17  1  0  0  0  0
 12 11  2  0  0  0  0
 13 14  2  0  0  0  0
 13 12  1  0  0  0  0
 14 15  1  0  0  0  0
 15  3  1  0  0  0  0
 15 16  2  0  0  0  0
 18 12  1  0  0  0  0
 19 13  1  0  0  0  0
 21 28  1  0  0  0  0
 21 20  1  0  0  0  0
 22 21  2  0  0  0  0
 23 25  2  0  0  0  0
 23 22  1  0  0  0  0
 24 23  1  0  0  0  0
 25 27  1  0  0  0  0
 26 25  1  0  0  0  0
 27 28  2  0  0  0  0
M  END
>  <minimizedAffinity>
-5.26096392

$$$$

 OpenBabel03242510103D

 28 30  0  0  0  0  0  0  0  0999 V2000
   40.4640   29.4870   40.3720 Br  0  0  0  0  0  0  0  0  0  0  0  0
   39.0660   30.7970   40.1530 C   0  0  0  0  0  0  0  0  0  0  0  0
   39.2990   31.9230   39.4190 C   0  0  0  0  0  0  0  0  0  0  0  0
   38.2920   32.8750   39.2560 C   0  0  0  0  0  0  0  0  0  0  0  0
   37.0810   32.6470   39.8460 C   0  0  0  0  0  0  0  0  0  0  0  0
   36.8980   31.5030   40.5720 C   0  0  0  0  0  0  0  0  0  0  0  0
   37.8550   30.5480   40.7550 C   0  0  0  0  0  0  0  0  0  0  0  0
   38.4620   33.7680   38.6800 H   0  0  0  0  0  0  0  0  0  0  0  0
   36.2850   33.3880   39.7240 H   0  0  0  0  0  0  0  0  0  0  0  0
   35.9040   31.3970   41.0100 H   0  0  0  0  0  0  0  0  0  0  0  0
   42.0330   31.8340   36.9900 C   0  0  0  0  0  0  0  0  0  0  0  0
   43.0940   32.4870   37.6550 C   0  0  0  0  0  0  0  0  0  0  0  0
   42.8340   32.9540   38.9560 C   0  0  0  0  0  0  0  0  0  0  0  0
   41.6040   32.7540   39.4870 N   0  0  0  0  0  0  0  0  0  0  0  0
   40.6020   32.1160   38.8130 C   0  0  0  0  0  0  0  0  0  0  0  0
   40.8410   31.6680   37.5680 N   0  0  0  0  0  0  0  0  0  0  0  0
   42.2570   31.4880   35.9990 H   0  0  0  0  0  0  0  0  0  0  0  0
   44.0770   32.6540   37.2450 H   0  0  0  0  0  0  0  0  0  0  0  0
   43.5670   33.4720   39.5690 H   0  0  0  0  0  0  0  0  0  0  0  0
   36.8430   28.2040   39.2470 Cl  0  0  0  0  0  0  0  0  0  0  0  0
   37.1400   28.1710   40.9800 C   0  0  0  0  0  0  0  0  0  0  0  0
   37.6110   29.3410   41.5390 C   0  0  0  0  0  0  0  0  0  0  0  0
   37.8400   29.2970   42.9110 C   0  0  0  0  0  0  0  0  0  0  0  0
   38.2140   30.2290   43.3530 H   0  0  0  0  0  0  0  0  0  0  0  0
   37.6030   28.1480   43.6370 C   0  0  0  0  0  0  0  0  0  0  0  0
   37.8310   28.2700   44.7010 H   0  0  0  0  0  0  0  0  0  0  0  0
   37.1360   27.0030   43.0510 C   0  0  0  0  0  3  0  0  0  0  0  0
   36.8940   27.0070   41.6790 C   0  0  0  0  0  3  0  0  0  0  0  0
  2  1  1  0  0  0  0
  2  7  1  0  0  0  0
  3  2  2  0  0  0  0
  4  3  1  0  0  0  0
  4  5  2  0  0  0  0
  5  6  1  0  0  0  0
  6  7  2  0  0  0  0
  6 10  1  0  0  0  0
  7 22  1  0  0  0  0
  8  4  1  0  0  0  0
  9  5  1  0  0  0  0
 11 16  2  0  0  0  0
 11 12  1  0  0  0  0
 12 13  2  0  0  0  0
 13 14  1  0  0  0  0
 13 19  1  0  0  0  0
 15  3  1  0  0  0  0
 15 14  2  0  0  0  0
 16 15  1  0  0  0  0
 17 11  1  0  0  0  0
 18 12  1  0  0  0  0
 20 21  1  0  0  0  0
 21 22  2  0  0  0  0
 21 28  1  0  0  0  0
 22 23  1  0  0  0  0
 23 24  1  0  0  0  0
 23 25  2  0  0  0  0
 25 26  1  0  0  0  0
 27 25  1  0  0  0  0
 28 27  2  0  0  0  0
M  END
>  <minimizedAffinity>
-5.20901537

$$$$

 OpenBabel03242510103D

 28 30  0  0  0  0  0  0  0  0999 V2000
   37.8990   27.3790   39.0940 Br  0  0  0  0  0  0  0  0  0  0  0  0
   37.5370   27.5320   40.9820 C   0  0  0  0  0  0  0  0  0  0  0  0
   37.4980   28.7630   41.5690 C   0  0  0  0  0  0  0  0  0  0  0  0
   37.2370   28.8810   42.9350 C   0  0  0  0  0  0  0  0  0  0  0  0
   37.0240   27.7410   43.6560 C   0  0  0  0  0  0  0  0  0  0  0  0
   37.0730   26.5300   43.0210 C   0  0  0  0  0  0  0  0  0  0  0  0
   37.3260   26.3720   41.6890 C   0  0  0  0  0  0  0  0  0  0  0  0
   37.2040   29.8450   43.4110 H   0  0  0  0  0  0  0  0  0  0  0  0
   36.8180   27.8230   44.7270 H   0  0  0  0  0  0  0  0  0  0  0  0
   36.8920   25.6710   43.6670 H   0  0  0  0  0  0  0  0  0  0  0  0
   36.8850   31.6970   39.4720 C   0  0  0  0  0  0  0  0  0  0  0  0
   38.1790   32.1970   39.2080 C   0  0  0  0  0  0  0  0  0  0  0  0
   39.2570   31.4930   39.7730 C   0  0  0  0  0  0  0  0  0  0  0  0
   38.9990   30.3970   40.5250 N   0  0  0  0  0  0  0  0  0  0  0  0
   37.7320   29.9420   40.7580 C   0  0  0  0  0  0  0  0  0  0  0  0
   36.6950   30.6090   40.2220 N   0  0  0  0  0  0  0  0  0  0  0  0
   36.0800   32.2510   39.0290 H   0  0  0  0  0  0  0  0  0  0  0  0
   38.4000   33.0680   38.6120 H   0  0  0  0  0  0  0  0  0  0  0  0
   40.2990   31.7780   39.6440 H   0  0  0  0  0  0  0  0  0  0  0  0
   39.9400   24.9740   41.7720 Cl  0  0  0  0  0  0  0  0  0  0  0  0
   38.5100   24.2860   41.0130 C   0  0  0  0  0  0  0  0  0  0  0  0
   37.3670   25.0570   41.0560 C   0  0  0  0  0  0  0  0  0  0  0  0
   36.2460   24.4980   40.4500 C   0  0  0  0  0  0  0  0  0  0  0  0
   35.3390   25.1140   40.4850 H   0  0  0  0  0  0  0  0  0  0  0  0
   36.3040   23.2540   39.8550 C   0  0  0  0  0  0  0  0  0  0  0  0
   35.3440   22.9510   39.4240 H   0  0  0  0  0  0  0  0  0  0  0  0
   37.4540   22.5140   39.8310 C   0  0  0  0  0  3  0  0  0  0  0  0
   38.5980   23.0400   40.4270 C   0  0  0  0  0  3  0  0  0  0  0  0
  1  2  1  0  0  0  0
  2  3  2  0  0  0  0
  2  7  1  0  0  0  0
  3  4  1  0  0  0  0
  4  8  1  0  0  0  0
  4  5  2  0  0  0  0
  5  9  1  0  0  0  0
  6  5  1  0  0  0  0
  6 10  1  0  0  0  0
  7  6  2  0  0  0  0
 11 16  1  0  0  0  0
 12 11  2  0  0  0  0
 12 13  1  0  0  0  0
 13 14  2  0  0  0  0
 14 15  1  0  0  0  0
 15  3  1  0  0  0  0
 16 15  2  0  0  0  0
 17 11  1  0  0  0  0
 18 12  1  0  0  0  0
 19 13  1  0  0  0  0
 21 22  1  0  0  0  0
 21 20  1  0  0  0  0
 22  7  1  0  0  0  0
 23 24  1  0  0  0  0
 23 22  2  0  0  0  0
 25 23  1  0  0  0  0
 26 25  1  0  0  0  0
 27 25  2  0  0  0  0
 27 28  1  0  0  0  0
 28 21  2  0  0  0  0
M  END
>  <minimizedAffinity>
-5.1899066

$$$$

 OpenBabel03242510103D

 28 30  0  0  0  0  0  0  0  0999 V2000
   38.3360   28.2140   39.2580 Br  0  0  0  0  0  0  0  0  0  0  0  0
   37.7510   27.9810   41.0790 C   0  0  0  0  0  0  0  0  0  0  0  0
   37.4490   26.7340   41.5430 C   0  0  0  0  0  0  0  0  0  0  0  0
   37.0240   26.5580   42.8600 C   0  0  0  0  0  0  0  0  0  0  0  0
   36.9220   27.6590   43.6620 C   0  0  0  0  0  0  0  0  0  0  0  0
   37.2360   28.8880   43.1510 C   0  0  0  0  0  0  0  0  0  0  0  0
   37.6540   29.1030   41.8690 C   0  0  0  0  0  0  0  0  0  0  0  0
   36.7830   25.5800   43.2380 H   0  0  0  0  0  0  0  0  0  0  0  0
   36.5900   27.5310   44.6960 H   0  0  0  0  0  0  0  0  0  0  0  0
   37.1280   29.7140   43.8550 H   0  0  0  0  0  0  0  0  0  0  0  0
   38.8680   23.8630   39.7750 C   0  0  0  0  0  0  0  0  0  0  0  0
   37.8140   23.4260   38.9430 C   0  0  0  0  0  0  0  0  0  0  0  0
   36.6100   24.1500   39.0140 C   0  0  0  0  0  0  0  0  0  0  0  0
   36.5310   25.2040   39.8610 N   0  0  0  0  0  0  0  0  0  0  0  0
   37.5750   25.5980   40.6500 C   0  0  0  0  0  0  0  0  0  0  0  0
   38.7290   24.9110   40.5890 N   0  0  0  0  0  0  0  0  0  0  0  0
   39.7760   23.2940   39.7020 H   0  0  0  0  0  0  0  0  0  0  0  0
   37.8620   22.5890   38.2660 H   0  0  0  0  0  0  0  0  0  0  0  0
   35.7270   23.9120   38.4260 H   0  0  0  0  0  0  0  0  0  0  0  0
   40.4230   30.0390   42.3730 Cl  0  0  0  0  0  0  0  0  0  0  0  0
   39.2240   31.0080   41.5260 C   0  0  0  0  0  0  0  0  0  0  0  0
   37.9790   30.4350   41.3690 C   0  0  0  0  0  0  0  0  0  0  0  0
   37.0420   31.2160   40.6980 C   0  0  0  0  0  0  0  0  0  0  0  0
   36.0530   30.7580   40.5750 H   0  0  0  0  0  0  0  0  0  0  0  0
   37.3660   32.4740   40.2330 C   0  0  0  0  0  0  0  0  0  0  0  0
   36.5270   32.9630   39.7270 H   0  0  0  0  0  0  0  0  0  0  0  0
   38.6120   33.0130   40.4050 C   0  0  0  0  0  3  0  0  0  0  0  0
   39.5760   32.2620   41.0730 C   0  0  0  0  0  3  0  0  0  0  0  0
  1  2  1  0  0  0  0
  2  3  2  0  0  0  0
  2  7  1  0  0  0  0
  3  4  1  0  0  0  0
  4  8  1  0  0  0  0
  4  5  2  0  0  0  0
  5  9  1  0  0  0  0
  6  5  1  0  0  0  0
  6 10  1  0  0  0  0
  7  6  2  0  0  0  0
 11 16  1  0  0  0  0
 12 13  1  0  0  0  0
 12 11  2  0  0  0  0
 13 14  2  0  0  0  0
 14 15  1  0  0  0  0
 15  3  1  0  0  0  0
 16 15  2  0  0  0  0
 17 11  1  0  0  0  0
 18 12  1  0  0  0  0
 19 13  1  0  0  0  0
 21 20  1  0  0  0  0
 22 21  1  0  0  0  0
 22  7  1  0  0  0  0
 23 22  2  0  0  0  0
 24 23  1  0  0  0  0
 25 27  2  0  0  0  0
 25 23  1  0  0  0  0
 26 25  1  0  0  0  0
 27 28  1  0  0  0  0
 28 21  2  0  0  0  0
M  END
>  <minimizedAffinity>
-5.18702459

$$$$

 OpenBabel03242510103D

 28 30  0  0  0  0  0  0  0  0999 V2000
   38.8410   28.0780   39.4730 Br  0  0  0  0  0  0  0  0  0  0  0  0
   38.0310   27.8980   41.2130 C   0  0  0  0  0  0  0  0  0  0  0  0
   37.5040   26.7000   41.5980 C   0  0  0  0  0  0  0  0  0  0  0  0
   36.9160   26.5630   42.8560 C   0  0  0  0  0  0  0  0  0  0  0  0
   36.8840   27.6520   43.6800 C   0  0  0  0  0  0  0  0  0  0  0  0
   37.4250   28.8310   43.2480 C   0  0  0  0  0  0  0  0  0  0  0  0
   38.0090   29.0070   42.0260 C   0  0  0  0  0  0  0  0  0  0  0  0
   36.4970   25.6240   43.1710 H   0  0  0  0  0  0  0  0  0  0  0  0
   36.4250   27.5540   44.6680 H   0  0  0  0  0  0  0  0  0  0  0  0
   37.3590   29.6510   43.9650 H   0  0  0  0  0  0  0  0  0  0  0  0
   36.6000   24.3310   38.9600 C   0  0  0  0  0  0  0  0  0  0  0  0
   37.6820   23.4240   38.9400 C   0  0  0  0  0  0  0  0  0  0  0  0
   38.7210   23.6560   39.8580 C   0  0  0  0  0  0  0  0  0  0  0  0
   38.6290   24.7180   40.6940 N   0  0  0  0  0  0  0  0  0  0  0  0
   37.5650   25.5750   40.6850 C   0  0  0  0  0  0  0  0  0  0  0  0
   36.5660   25.3600   39.8100 N   0  0  0  0  0  0  0  0  0  0  0  0
   35.8200   24.1320   38.2500 H   0  0  0  0  0  0  0  0  0  0  0  0
   37.7690   22.5750   38.2800 H   0  0  0  0  0  0  0  0  0  0  0  0
   39.6060   23.0300   39.9390 H   0  0  0  0  0  0  0  0  0  0  0  0
   36.1440   30.8660   40.6620 Cl  0  0  0  0  0  0  0  0  0  0  0  0
   37.8330   31.2550   40.9650 C   0  0  0  0  0  0  0  0  0  0  0  0
   38.5740   30.2870   41.6110 C   0  0  0  0  0  0  0  0  0  0  0  0
   39.9070   30.6110   41.8420 C   0  0  0  0  0  0  0  0  0  0  0  0
   40.4940   29.8400   42.3550 H   0  0  0  0  0  0  0  0  0  0  0  0
   40.4250   31.8260   41.4410 C   0  0  0  0  0  0  0  0  0  0  0  0
   41.4850   31.9330   41.6940 H   0  0  0  0  0  0  0  0  0  0  0  0
   39.6620   32.7650   40.8030 C   0  0  0  0  0  3  0  0  0  0  0  0
   38.3220   32.4770   40.5540 C   0  0  0  0  0  3  0  0  0  0  0  0
  1  2  1  0  0  0  0
  2  3  2  0  0  0  0
  2  7  1  0  0  0  0
  3  4  1  0  0  0  0
  4  8  1  0  0  0  0
  4  5  2  0  0  0  0
  5  9  1  0  0  0  0
  6  5  1  0  0  0  0
  6 10  1  0  0  0  0
  7  6  2  0  0  0  0
 11 16  1  0  0  0  0
 12 11  2  0  0  0  0
 12 13  1  0  0  0  0
 13 19  1  0  0  0  0
 13 14  2  0  0  0  0
 15 14  1  0  0  0  0
 15  3  1  0  0  0  0
 16 15  2  0  0  0  0
 17 11  1  0  0  0  0
 18 12  1  0  0  0  0
 20 21  1  0  0  0  0
 21 22  1  0  0  0  0
 22 23  2  0  0  0  0
 22  7  1  0  0  0  0
 23 24  1  0  0  0  0
 25 26  1  0  0  0  0
 25 23  1  0  0  0  0
 27 25  2  0  0  0  0
 28 27  1  0  0  0  0
 28 21  2  0  0  0  0
M  END
>  <minimizedAffinity>
-5.14675903

$$$$

 OpenBabel03242510103D

 28 30  0  0  0  0  0  0  0  0999 V2000
   37.1460   27.3820   39.4600 Br  0  0  0  0  0  0  0  0  0  0  0  0
   37.2640   29.2790   39.7840 C   0  0  0  0  0  0  0  0  0  0  0  0
   37.9080   29.7410   40.8940 C   0  0  0  0  0  0  0  0  0  0  0  0
   37.9970   31.1120   41.1350 C   0  0  0  0  0  0  0  0  0  0  0  0
   37.4270   31.9670   40.2360 C   0  0  0  0  0  0  0  0  0  0  0  0
   36.7920   31.4560   39.1380 C   0  0  0  0  0  0  0  0  0  0  0  0
   36.6820   30.1220   38.8660 C   0  0  0  0  0  0  0  0  0  0  0  0
   38.5030   31.4890   42.0060 H   0  0  0  0  0  0  0  0  0  0  0  0
   37.4910   33.0450   40.4160 H   0  0  0  0  0  0  0  0  0  0  0  0
   36.3640   32.2040   38.4710 H   0  0  0  0  0  0  0  0  0  0  0  0
   38.2830   27.3980   43.6790 C   0  0  0  0  0  0  0  0  0  0  0  0
   39.6250   26.9710   43.5800 C   0  0  0  0  0  0  0  0  0  0  0  0
   40.3860   27.5150   42.5300 C   0  0  0  0  0  0  0  0  0  0  0  0
   39.8000   28.3990   41.6880 N   0  0  0  0  0  0  0  0  0  0  0  0
   38.4970   28.7900   41.8170 C   0  0  0  0  0  0  0  0  0  0  0  0
   37.7620   28.2750   42.8180 N   0  0  0  0  0  0  0  0  0  0  0  0
   37.7230   26.9690   44.4880 H   0  0  0  0  0  0  0  0  0  0  0  0
   40.1040   26.2670   44.2410 H   0  0  0  0  0  0  0  0  0  0  0  0
   41.4290   27.2650   42.3480 H   0  0  0  0  0  0  0  0  0  0  0  0
   33.8960   29.1940   39.2760 Cl  0  0  0  0  0  0  0  0  0  0  0  0
   34.6960   29.1580   37.7100 C   0  0  0  0  0  0  0  0  0  0  0  0
   35.9940   29.6240   37.6790 C   0  0  0  0  0  0  0  0  0  0  0  0
   36.6130   29.5880   36.4330 C   0  0  0  0  0  0  0  0  0  0  0  0
   37.6440   29.9580   36.4110 H   0  0  0  0  0  0  0  0  0  0  0  0
   35.9470   29.1120   35.3210 C   0  0  0  0  0  0  0  0  0  0  0  0
   36.5640   29.1480   34.4170 H   0  0  0  0  0  0  0  0  0  0  0  0
   34.6580   28.6580   35.3860 C   0  0  0  0  0  3  0  0  0  0  0  0
   34.0060   28.6780   36.6170 C   0  0  0  0  0  3  0  0  0  0  0  0
  1  2  1  0  0  0  0
  2  3  1  0  0  0  0
  3  4  2  0  0  0  0
  3 15  1  0  0  0  0
  4  8  1  0  0  0  0
  5  9  1  0  0  0  0
  5  4  1  0  0  0  0
  6  5  2  0  0  0  0
  7  6  1  0  0  0  0
  7  2  2  0  0  0  0
 10  6  1  0  0  0  0
 11 17  1  0  0  0  0
 12 11  1  0  0  0  0
 12 18  1  0  0  0  0
 13 12  2  0  0  0  0
 14 15  2  0  0  0  0
 14 13  1  0  0  0  0
 15 16  1  0  0  0  0
 16 11  2  0  0  0  0
 19 13  1  0  0  0  0
 21 20  1  0  0  0  0
 22 21  1  0  0  0  0
 22  7  1  0  0  0  0
 23 22  2  0  0  0  0
 24 23  1  0  0  0  0
 25 27  2  0  0  0  0
 25 23  1  0  0  0  0
 26 25  1  0  0  0  0
 27 28  1  0  0  0  0
 28 21  2  0  0  0  0
M  END
>  <minimizedAffinity>
-5.13866711

$$$$

 OpenBabel03242510103D

 28 30  0  0  0  0  0  0  0  0999 V2000
   38.7140   29.5210   39.7660 Br  0  0  0  0  0  0  0  0  0  0  0  0
   38.0380   28.7050   41.3760 C   0  0  0  0  0  0  0  0  0  0  0  0
   38.7950   28.7090   42.5110 C   0  0  0  0  0  0  0  0  0  0  0  0
   38.3120   28.1210   43.6800 C   0  0  0  0  0  0  0  0  0  0  0  0
   37.0730   27.5470   43.6540 C   0  0  0  0  0  0  0  0  0  0  0  0
   36.3520   27.5680   42.4910 C   0  0  0  0  0  0  0  0  0  0  0  0
   36.7880   28.1330   41.3280 C   0  0  0  0  0  0  0  0  0  0  0  0
   38.8990   28.1170   44.5810 H   0  0  0  0  0  0  0  0  0  0  0  0
   36.6860   27.0830   44.5650 H   0  0  0  0  0  0  0  0  0  0  0  0
   35.3740   27.0900   42.5550 H   0  0  0  0  0  0  0  0  0  0  0  0
   42.4180   29.1390   42.2400 C   0  0  0  0  0  0  0  0  0  0  0  0
   42.6070   30.5250   42.4350 C   0  0  0  0  0  0  0  0  0  0  0  0
   41.4520   31.2960   42.6600 C   0  0  0  0  0  0  0  0  0  0  0  0
   40.2470   30.6770   42.6760 N   0  0  0  0  0  0  0  0  0  0  0  0
   40.1040   29.3320   42.4850 C   0  0  0  0  0  0  0  0  0  0  0  0
   41.2030   28.5880   42.2680 N   0  0  0  0  0  0  0  0  0  0  0  0
   43.3150   28.5730   42.0710 H   0  0  0  0  0  0  0  0  0  0  0  0
   43.5590   31.0310   42.4240 H   0  0  0  0  0  0  0  0  0  0  0  0
   41.4670   32.3710   42.8230 H   0  0  0  0  0  0  0  0  0  0  0  0
   37.3430   25.9450   39.4050 Cl  0  0  0  0  0  0  0  0  0  0  0  0
   36.1220   27.1780   39.1240 C   0  0  0  0  0  0  0  0  0  0  0  0
   35.9810   28.1310   40.1110 C   0  0  0  0  0  0  0  0  0  0  0  0
   35.0110   29.1000   39.8720 C   0  0  0  0  0  0  0  0  0  0  0  0
   34.9000   29.8560   40.6590 H   0  0  0  0  0  0  0  0  0  0  0  0
   34.2570   29.0840   38.7160 C   0  0  0  0  0  0  0  0  0  0  0  0
   33.5370   29.9080   38.6740 H   0  0  0  0  0  0  0  0  0  0  0  0
   34.4220   28.1230   37.7560 C   0  0  0  0  0  3  0  0  0  0  0  0
   35.3840   27.1360   37.9590 C   0  0  0  0  0  3  0  0  0  0  0  0
  1  2  1  0  0  0  0
  2  3  1  0  0  0  0
  3  4  2  0  0  0  0
  4  8  1  0  0  0  0
  5  4  1  0  0  0  0
  5  9  1  0  0  0  0
  6 10  1  0  0  0  0
  6  5  2  0  0  0  0
  7  2  2  0  0  0  0
  7  6  1  0  0  0  0
 11 16  2  0  0  0  0
 11 12  1  0  0  0  0
 12 13  2  0  0  0  0
 13 14  1  0  0  0  0
 13 19  1  0  0  0  0
 15  3  1  0  0  0  0
 15 14  2  0  0  0  0
 16 15  1  0  0  0  0
 17 11  1  0  0  0  0
 18 12  1  0  0  0  0
 21 20  1  0  0  0  0
 21 22  1  0  0  0  0
 22  7  1  0  0  0  0
 23 22  2  0  0  0  0
 23 24  1  0  0  0  0
 25 23  1  0  0  0  0
 26 25  1  0  0  0  0
 27 28  1  0  0  0  0
 27 25  2  0  0  0  0
 28 21  2  0  0  0  0
M  END
>  <minimizedAffinity>
-5.13134336

$$$$

 OpenBabel03242510103D

 28 30  0  0  0  0  0  0  0  0999 V2000
   36.2360   26.2300   38.4980 Br  0  0  0  0  0  0  0  0  0  0  0  0
   36.3090   27.7820   39.6380 C   0  0  0  0  0  0  0  0  0  0  0  0
   36.9910   27.7280   40.8180 C   0  0  0  0  0  0  0  0  0  0  0  0
   37.0470   28.8480   41.6480 C   0  0  0  0  0  0  0  0  0  0  0  0
   36.4070   29.9860   41.2480 C   0  0  0  0  0  0  0  0  0  0  0  0
   35.7360   29.9900   40.0560 C   0  0  0  0  0  0  0  0  0  0  0  0
   35.6570   28.9170   39.2160 C   0  0  0  0  0  0  0  0  0  0  0  0
   37.5810   28.8190   42.5810 H   0  0  0  0  0  0  0  0  0  0  0  0
   36.4460   30.8700   41.8920 H   0  0  0  0  0  0  0  0  0  0  0  0
   35.2530   30.9360   39.8100 H   0  0  0  0  0  0  0  0  0  0  0  0
   37.5610   24.3870   42.1960 C   0  0  0  0  0  0  0  0  0  0  0  0
   38.9220   24.1380   41.9180 C   0  0  0  0  0  0  0  0  0  0  0  0
   39.6280   25.1520   41.2470 C   0  0  0  0  0  0  0  0  0  0  0  0
   38.9740   26.2890   40.9100 N   0  0  0  0  0  0  0  0  0  0  0  0
   37.6540   26.4950   41.1960 C   0  0  0  0  0  0  0  0  0  0  0  0
   36.9710   25.5300   41.8380 N   0  0  0  0  0  0  0  0  0  0  0  0
   37.0450   23.5980   42.7090 H   0  0  0  0  0  0  0  0  0  0  0  0
   39.4560   23.2380   42.1800 H   0  0  0  0  0  0  0  0  0  0  0  0
   40.6790   25.0800   40.9760 H   0  0  0  0  0  0  0  0  0  0  0  0
   37.2890   29.4620   36.8000 Cl  0  0  0  0  0  0  0  0  0  0  0  0
   35.5480   29.2140   36.7430 C   0  0  0  0  0  0  0  0  0  0  0  0
   34.9290   28.9710   37.9520 C   0  0  0  0  0  0  0  0  0  0  0  0
   33.5520   28.7780   37.8890 C   0  0  0  0  0  0  0  0  0  0  0  0
   33.0620   28.5840   38.8510 H   0  0  0  0  0  0  0  0  0  0  0  0
   32.8790   28.8320   36.6850 C   0  0  0  0  0  0  0  0  0  0  0  0
   31.8040   28.6600   36.7980 H   0  0  0  0  0  0  0  0  0  0  0  0
   33.5250   29.0760   35.5040 C   0  0  0  0  0  3  0  0  0  0  0  0
   34.9030   29.2750   35.5260 C   0  0  0  0  0  3  0  0  0  0  0  0
  1  2  1  0  0  0  0
  2  3  1  0  0  0  0
  3 15  1  0  0  0  0
  3  4  2  0  0  0  0
  4  8  1  0  0  0  0
  5  4  1  0  0  0  0
  5  9  1  0  0  0  0
  6  5  2  0  0  0  0
  7  2  2  0  0  0  0
  7  6  1  0  0  0  0
 10  6  1  0  0  0  0
 11 17  1  0  0  0  0
 12 18  1  0  0  0  0
 12 11  1  0  0  0  0
 13 12  2  0  0  0  0
 14 15  2  0  0  0  0
 14 13  1  0  0  0  0
 15 16  1  0  0  0  0
 16 11  2  0  0  0  0
 19 13  1  0  0  0  0
 21 20  1  0  0  0  0
 21 22  1  0  0  0  0
 22  7  1  0  0  0  0
 23 22  2  0  0  0  0
 23 24  1  0  0  0  0
 25 26  1  0  0  0  0
 25 23  1  0  0  0  0
 27 28  1  0  0  0  0
 27 25  2  0  0  0  0
 28 21  2  0  0  0  0
M  END
>  <minimizedAffinity>
-5.09048891

$$$$

 OpenBabel03242510103D

 28 30  0  0  0  0  0  0  0  0999 V2000
   38.0580   27.3510   39.1050 Br  0  0  0  0  0  0  0  0  0  0  0  0
   37.6140   27.5250   40.9730 C   0  0  0  0  0  0  0  0  0  0  0  0
   37.3690   26.4110   41.7210 C   0  0  0  0  0  0  0  0  0  0  0  0
   37.0470   26.5300   43.0730 C   0  0  0  0  0  0  0  0  0  0  0  0
   36.9870   27.7800   43.6190 C   0  0  0  0  0  0  0  0  0  0  0  0
   37.2410   28.8670   42.8280 C   0  0  0  0  0  0  0  0  0  0  0  0
   37.5590   28.7940   41.5020 C   0  0  0  0  0  0  0  0  0  0  0  0
   36.8510   25.6590   43.6740 H   0  0  0  0  0  0  0  0  0  0  0  0
   36.7350   27.8840   44.6790 H   0  0  0  0  0  0  0  0  0  0  0  0
   37.1730   29.8270   43.3390 H   0  0  0  0  0  0  0  0  0  0  0  0
   38.6930   23.2100   40.5430 C   0  0  0  0  0  0  0  0  0  0  0  0
   37.5920   22.6110   39.8920 C   0  0  0  0  0  0  0  0  0  0  0  0
   36.3920   23.3430   39.8750 C   0  0  0  0  0  0  0  0  0  0  0  0
   36.3590   24.5580   40.4730 N   0  0  0  0  0  0  0  0  0  0  0  0
   37.4460   25.1060   41.0930 C   0  0  0  0  0  0  0  0  0  0  0  0
   38.5980   24.4130   41.1140 N   0  0  0  0  0  0  0  0  0  0  0  0
   39.5970   22.6320   40.5410 H   0  0  0  0  0  0  0  0  0  0  0  0
   37.6030   21.6460   39.4130 H   0  0  0  0  0  0  0  0  0  0  0  0
   35.4760   22.9900   39.4070 H   0  0  0  0  0  0  0  0  0  0  0  0
   35.2550   29.8640   39.9720 Cl  0  0  0  0  0  0  0  0  0  0  0  0
   36.8540   30.5970   39.9330 C   0  0  0  0  0  0  0  0  0  0  0  0
   37.8230   29.9830   40.6980 C   0  0  0  0  0  0  0  0  0  0  0  0
   39.0820   30.5750   40.6550 C   0  0  0  0  0  0  0  0  0  0  0  0
   39.8510   30.0850   41.2650 H   0  0  0  0  0  0  0  0  0  0  0  0
   39.3140   31.6990   39.8890 C   0  0  0  0  0  0  0  0  0  0  0  0
   40.3510   32.0470   39.9590 H   0  0  0  0  0  0  0  0  0  0  0  0
   38.3290   32.2840   39.1410 C   0  0  0  0  0  3  0  0  0  0  0  0
   37.0560   31.7200   39.1580 C   0  0  0  0  0  3  0  0  0  0  0  0
  1  2  1  0  0  0  0
  2  7  2  0  0  0  0
  2  3  1  0  0  0  0
  3  4  2  0  0  0  0
  4  5  1  0  0  0  0
  4  8  1  0  0  0  0
  5  9  1  0  0  0  0
  6 10  1  0  0  0  0
  6  5  2  0  0  0  0
  7  6  1  0  0  0  0
 11 16  1  0  0  0  0
 12 11  2  0  0  0  0
 13 12  1  0  0  0  0
 13 14  2  0  0  0  0
 14 15  1  0  0  0  0
 15 16  2  0  0  0  0
 15  3  1  0  0  0  0
 17 11  1  0  0  0  0
 18 12  1  0  0  0  0
 19 13  1  0  0  0  0
 21 20  1  0  0  0  0
 21 22  1  0  0  0  0
 22  7  1  0  0  0  0
 23 22  2  0  0  0  0
 23 24  1  0  0  0  0
 25 26  1  0  0  0  0
 25 23  1  0  0  0  0
 27 28  1  0  0  0  0
 27 25  2  0  0  0  0
 28 21  2  0  0  0  0
M  END
>  <minimizedAffinity>
-5.06546402

$$$$
