
 OpenBabel03242510093D

 28 29  0  0  0  0  0  0  0  0999 V2000
   44.6760   33.1940   41.1530 Br  0  0  0  0  0 15  0  0  0  0  0  0
   46.3990   34.0410   40.9850 C   0  0  0  0  0  3  0  0  0  0  0  0
   46.9010   34.7730   42.0210 C   0  0  0  0  0  0  0  0  0  0  0  0
   48.1480   35.3880   41.9070 C   0  0  0  0  0  0  0  0  0  0  0  0
   48.8420   35.2370   40.7400 C   0  0  0  0  0  0  0  0  0  0  0  0
   48.2960   34.4940   39.7300 C   0  0  0  0  0  0  0  0  0  0  0  0
   47.0810   33.8760   39.8020 C   0  0  0  0  0  0  0  0  0  0  0  0
   48.5560   35.9680   42.7160 H   0  0  0  0  0  0  0  0  0  0  0  0
   49.8210   35.7160   40.6410 H   0  0  0  0  0  0  0  0  0  0  0  0
   48.9130   34.4220   38.8340 H   0  0  0  0  0  0  0  0  0  0  0  0
   45.5430   34.0870   45.3480 C   0  0  0  0  0  0  0  0  0  0  0  0
   44.6380   35.1490   45.5660 C   0  0  0  0  0  0  0  0  0  0  0  0
   44.5150   36.0980   44.5360 C   0  0  0  0  0  0  0  0  0  0  0  0
   45.2590   35.9440   43.4140 N   0  0  0  0  0  0  0  0  0  0  0  0
   46.1240   34.9010   43.2390 C   0  0  0  0  0  0  0  0  0  0  0  0
   46.2480   33.9890   44.2190 N   0  0  0  0  0  0  0  0  0  0  0  0
   45.6170   33.3760   46.1490 H   0  0  0  0  0  0  0  0  0  0  0  0
   44.0400   35.2850   46.4530 H   0  0  0  0  0  0  0  0  0  0  0  0
   43.8540   36.9600   44.5840 H   0  0  0  0  0  0  0  0  0  0  0  0
   48.0410   34.6150   37.0950 Cl  0  0  0  0  0  0  0  0  0  0  0  0
   46.8900   33.3160   37.3810 C   0  0  0  0  0  0  0  0  0  0  0  0
   46.5400   33.0920   38.6960 C   0  0  0  0  0  0  0  0  0  0  0  0
   45.6290   32.0600   38.9050 C   0  0  0  0  0  0  0  0  0  0  0  0
   45.3520   31.8840   39.9500 H   0  0  0  0  0  0  0  0  0  0  0  0
   45.1270   31.3280   37.8470 C   0  0  0  0  0  0  0  0  0  0  0  0
   44.4230   30.5540   38.1700 H   0  0  0  0  0  0  0  0  0  0  0  0
   45.4950   31.5770   36.5540 C   0  0  0  0  0  3  0  0  0  0  0  0
   46.4050   32.6010   36.3040 C   0  0  0  0  0  3  0  0  0  0  0  0
  2  3  1  0  0  0  0
  3 15  1  0  0  0  0
  4  3  2  0  0  0  0
  4  8  1  0  0  0  0
  5  4  1  0  0  0  0
  6  7  1  0  0  0  0
  6  5  2  0  0  0  0
  7  2  2  0  0  0  0
  9  5  1  0  0  0  0
 10  6  1  0  0  0  0
 11 12  1  0  0  0  0
 11 17  1  0  0  0  0
 12 18  1  0  0  0  0
 13 19  1  0  0  0  0
 13 12  2  0  0  0  0
 14 13  1  0  0  0  0
 15 14  2  0  0  0  0
 15 16  1  0  0  0  0
 16 11  2  0  0  0  0
 20 21  1  0  0  0  0
 21 22  1  0  0  0  0
 22 23  2  0  0  0  0
 22  7  1  0  0  0  0
 23 24  1  0  0  0  0
 25 26  1  0  0  0  0
 25 23  1  0  0  0  0
 27 25  2  0  0  0  0
 28 27  1  0  0  0  0
 28 21  2  0  0  0  0
M  END
>  <minimizedAffinity>
-5.99327135

>  <minimizedRMSD>
0.193732724

$$$$
