
 OpenBabel03252503583D

 34 37  0  0  0  0  0  0  0  0999 V2000
   47.2380   34.8070   42.7560 C   0  0  0  0  0  0  0  0  0  0  0  0
   46.2440   35.7540   42.4800 C   0  0  0  0  0  0  0  0  0  0  0  0
   45.0990   35.7230   43.2530 C   0  0  0  0  0  0  0  0  0  0  0  0
   44.9960   34.7900   44.2270 N   0  0  0  0  0  0  0  0  0  0  0  0
   45.9860   33.8840   44.4660 C   0  0  0  0  0  0  0  0  0  0  0  0
   47.1120   33.8960   43.7260 N   0  0  0  0  0  0  0  0  0  0  0  0
   46.3810   36.4850   41.6830 H   0  0  0  0  0  0  0  0  0  0  0  0
   44.3210   36.4500   43.0520 H   0  0  0  0  0  0  0  0  0  0  0  0
   46.0040   31.5530   45.1730 C   0  0  0  0  0  0  0  0  0  0  0  0
   45.8540   32.8780   45.5300 C   0  0  0  0  0  0  0  0  0  0  0  0
   45.5890   33.2210   46.8430 C   0  0  0  0  0  0  0  0  0  0  0  0
   45.4800   32.2050   47.7800 C   0  0  0  0  0  0  0  0  0  0  0  0
   45.2350   32.2160   49.1040 N   0  0  0  0  0  0  0  0  0  0  0  0
   45.2280   30.9520   49.5790 C   0  0  0  0  0  0  0  0  0  0  0  0
   45.4730   30.0830   48.5480 C   0  0  0  0  0  0  0  0  0  0  0  0
   45.6310   30.8720   47.4250 C   0  0  0  0  0  0  0  0  0  0  0  0
   45.8950   30.5490   46.1070 C   0  0  0  0  0  0  0  0  0  0  0  0
   46.2140   31.2820   44.1320 H   0  0  0  0  0  0  0  0  0  0  0  0
   45.4730   34.2610   47.1140 H   0  0  0  0  0  0  0  0  0  0  0  0
   45.0680   33.0550   49.7190 H   0  0  0  0  0  0  0  0  0  0  0  0
   45.0570   30.6370   50.6100 H   0  0  0  0  0  0  0  0  0  0  0  0
   45.5430   28.9900   48.5430 H   0  0  0  0  0  0  0  0  0  0  0  0
   46.0210   29.5380   45.7740 H   0  0  0  0  0  0  0  0  0  0  0  0
   48.4230   34.8780   41.9190 C   0  0  0  0  0  0  0  0  0  0  0  0
   48.9010   35.9680   41.4590 O   0  0  0  0  0  0  0  0  0  0  0  0
   47.4660   33.5380   39.4870 Cl  0  0  0  0  0  0  0  0  0  0  0  0
   48.9070   33.0350   40.3450 C   0  0  0  0  0  0  0  0  0  0  0  0
   49.2410   33.7530   41.4740 C   0  0  0  0  0  0  0  0  0  0  0  0
   50.3770   33.3570   42.1500 C   0  0  0  0  0  0  0  0  0  0  0  0
   50.6840   33.8950   43.0490 H   0  0  0  0  0  0  0  0  0  0  0  0
   51.1290   32.2910   41.7050 C   0  0  0  0  0  0  0  0  0  0  0  0
   52.0160   32.0030   42.2560 H   0  0  0  0  0  0  0  0  0  0  0  0
   50.7440   31.6100   40.5680 C   0  0  0  0  0  3  0  0  0  0  0  0
   49.6030   31.9600   39.8350 C   0  0  0  0  0  3  0  0  0  0  0  0
  1  6  1  0  0  0  0
  2  1  2  0  0  0  0
  2  3  1  0  0  0  0
  3  4  2  0  0  0  0
  4  5  1  0  0  0  0
  5 10  1  0  0  0  0
  6  5  2  0  0  0  0
  7  2  1  0  0  0  0
  8  3  1  0  0  0  0
  9 10  2  0  0  0  0
  9 17  1  0  0  0  0
 10 11  1  0  0  0  0
 11 19  1  0  0  0  0
 11 12  2  0  0  0  0
 12 13  1  0  0  0  0
 13 14  1  0  0  0  0
 13 20  1  0  0  0  0
 14 21  1  0  0  0  0
 15 14  2  0  0  0  0
 16 12  1  0  0  0  0
 16 15  1  0  0  0  0
 17 16  2  0  0  0  0
 18  9  1  0  0  0  0
 22 15  1  0  0  0  0
 23 17  1  0  0  0  0
 24  1  1  0  0  0  0
 25 24  2  0  0  0  0
 26 27  1  0  0  0  0
 27 28  1  0  0  0  0
 28 24  1  0  0  0  0
 28 29  2  0  0  0  0
 29 30  1  0  0  0  0
 31 29  1  0  0  0  0
 31 32  1  0  0  0  0
 33 31  2  0  0  0  0
 34 27  2  0  0  0  0
 34 33  1  0  0  0  0
M  END
>  <minimizedAffinity>
-6.58185387

>  <minimizedRMSD>
1.28574955

$$$$
