
 OpenBabel03252507593D

 29 31  0  0  1  0  0  0  0  0999 V2000
   47.0500   34.6550   43.0650 C   0  0  0  0  0  0  0  0  0  0  0  0
   45.8930   35.4850   42.9950 C   0  0  0  0  0  0  0  0  0  0  0  0
   44.8900   35.2140   43.9240 C   0  0  0  0  0  0  0  0  0  0  0  0
   45.0660   34.2090   44.8120 N   0  0  0  0  0  0  0  0  0  0  0  0
   46.2140   33.4500   44.8150 C   0  0  0  0  0  0  0  0  0  0  0  0
   47.2050   33.6460   43.9690 N   0  0  0  0  0  0  0  0  0  0  0  0
   45.8410   36.2650   42.2500 H   0  0  0  0  0  0  0  0  0  0  0  0
   43.9950   35.8190   43.9080 H   0  0  0  0  0  0  0  0  0  0  0  0
   46.3490   32.3550   45.8240 C   0  0  1  0  0  0  0  0  0  0  0  0
   47.0490   32.6500   47.1280 C   0  0  0  0  0  0  0  0  0  0  0  0
   45.5510   32.5560   47.0540 C   0  0  1  0  0  0  0  0  0  0  0  0
   46.5020   31.3640   45.3930 H   0  0  0  0  0  0  0  0  0  0  0  0
   47.5620   33.6090   47.2600 H   0  0  0  0  0  0  0  0  0  0  0  0
   47.5300   31.7740   47.5950 H   0  0  0  0  0  0  0  0  0  0  0  0
   45.0190   31.7070   47.4950 H   0  0  0  0  0  0  0  0  0  0  0  0
   44.9120   33.8530   47.2910 N   0  0  0  0  0  0  0  0  0  0  0  0
   45.4450   34.4280   47.9740 H   0  0  0  0  0  0  0  0  0  0  0  0
   43.9040   33.7550   47.5360 H   0  0  0  0  0  0  0  0  0  0  0  0
   48.0820   34.9530   42.0900 C   0  0  0  0  0  0  0  0  0  0  0  0
   48.7790   36.0130   42.1020 O   0  0  0  0  0  0  0  0  0  0  0  0
   50.2630   32.8420   42.4120 Cl  0  0  0  0  0  0  0  0  0  0  0  0
   49.2900   32.9840   40.9770 C   0  0  0  0  0  0  0  0  0  0  0  0
   48.3620   33.9860   41.0070 C   0  0  0  0  0  0  0  0  0  0  0  0
   47.5360   34.1730   39.8940 C   0  0  0  0  0  0  0  0  0  0  0  0
   46.7680   34.9450   39.8260 H   0  0  0  0  0  0  0  0  0  0  0  0
   47.6270   33.3810   38.7700 C   0  0  0  0  0  0  0  0  0  0  0  0
   47.0140   33.4900   37.8970 H   0  0  0  0  0  0  0  0  0  0  0  0
   48.5700   32.3720   38.7530 C   0  0  0  0  0  3  0  0  0  0  0  0
   49.3770   32.1960   39.8500 C   0  0  0  0  0  3  0  0  0  0  0  0
  1  6  1  0  0  0  0
  2  1  2  0  0  0  0
  2  3  1  0  0  0  0
  3  4  2  0  0  0  0
  4  5  1  0  0  0  0
  5  9  1  0  0  0  0
  6  5  2  0  0  0  0
  7  2  1  0  0  0  0
  8  3  1  0  0  0  0
  9 12  1  6  0  0  0
  9 11  1  0  0  0  0
  9 10  1  0  0  0  0
 10 13  1  0  0  0  0
 10 14  1  0  0  0  0
 11 10  1  0  0  0  0
 11 16  1  0  0  0  0
 11 15  1  1  0  0  0
 16 18  1  0  0  0  0
 16 17  1  0  0  0  0
 19 20  2  0  0  0  0
 19  1  1  0  0  0  0
 22 23  1  0  0  0  0
 22 21  1  0  0  0  0
 23 19  1  0  0  0  0
 24 23  2  0  0  0  0
 25 24  1  0  0  0  0
 26 24  1  0  0  0  0
 27 26  1  0  0  0  0
 28 26  2  0  0  0  0
 28 29  1  0  0  0  0
 29 22  2  0  0  0  0
M  END
>  <minimizedAffinity>
-5.38982105

>  <minimizedRMSD>
2.07120562

$$$$
