
 OpenBabel03252508013D

 29 31  0  0  1  0  0  0  0  0999 V2000
   38.5810   29.4210   42.1980 C   0  0  0  0  0  0  0  0  0  0  0  0
   39.6080   30.1250   42.8930 C   0  0  0  0  0  0  0  0  0  0  0  0
   40.1640   31.2140   42.2230 C   0  0  0  0  0  0  0  0  0  0  0  0
   39.7100   31.5310   40.9880 N   0  0  0  0  0  0  0  0  0  0  0  0
   38.7140   30.8000   40.3830 C   0  0  0  0  0  0  0  0  0  0  0  0
   38.1410   29.7590   40.9530 N   0  0  0  0  0  0  0  0  0  0  0  0
   39.9050   29.7980   43.8790 H   0  0  0  0  0  0  0  0  0  0  0  0
   40.9450   31.7770   42.7120 H   0  0  0  0  0  0  0  0  0  0  0  0
   38.2550   31.2030   39.0180 C   0  0  1  0  0  0  0  0  0  0  0  0
   36.7970   31.0440   38.6650 C   0  0  0  0  0  0  0  0  0  0  0  0
   37.3740   32.3920   38.9960 C   0  0  1  0  0  0  0  0  0  0  0  0
   38.9800   31.0090   38.2260 H   0  0  0  0  0  0  0  0  0  0  0  0
   36.1290   30.5170   39.3550 H   0  0  0  0  0  0  0  0  0  0  0  0
   36.6020   30.8920   37.5900 H   0  0  0  0  0  0  0  0  0  0  0  0
   37.5130   33.1490   38.2180 H   0  0  0  0  0  0  0  0  0  0  0  0
   36.8440   32.9160   40.2570 N   0  0  0  0  0  0  0  0  0  0  0  0
   35.8560   32.6320   40.4090 H   0  0  0  0  0  0  0  0  0  0  0  0
   36.9960   33.9430   40.3500 H   0  0  0  0  0  0  0  0  0  0  0  0
   38.0160   28.2930   42.9130 C   0  0  0  0  0  0  0  0  0  0  0  0
   37.0050   28.3740   43.6750 O   0  0  0  0  0  0  0  0  0  0  0  0
   36.9480   26.3030   40.8610 Cl  0  0  0  0  0  0  0  0  0  0  0  0
   38.2880   25.9480   41.9090 C   0  0  0  0  0  0  0  0  0  0  0  0
   38.6320   26.9560   42.7660 C   0  0  0  0  0  0  0  0  0  0  0  0
   39.7000   26.7580   43.6460 C   0  0  0  0  0  0  0  0  0  0  0  0
   40.0460   27.5020   44.3650 H   0  0  0  0  0  0  0  0  0  0  0  0
   40.4170   25.5820   43.6790 C   0  0  0  0  0  0  0  0  0  0  0  0
   41.2410   25.3890   44.3370 H   0  0  0  0  0  0  0  0  0  0  0  0
   40.0600   24.5710   42.8080 C   0  0  0  0  0  3  0  0  0  0  0  0
   39.0090   24.7750   41.9470 C   0  0  0  0  0  3  0  0  0  0  0  0
  1  2  1  0  0  0  0
  1 19  1  0  0  0  0
  2  7  1  0  0  0  0
  3  8  1  0  0  0  0
  3  2  2  0  0  0  0
  4  3  1  0  0  0  0
  5  6  1  0  0  0  0
  5  4  2  0  0  0  0
  6  1  2  0  0  0  0
  9 12  1  6  0  0  0
  9  5  1  0  0  0  0
 10 11  1  0  0  0  0
 10  9  1  0  0  0  0
 10 13  1  0  0  0  0
 11 15  1  6  0  0  0
 11  9  1  0  0  0  0
 11 16  1  0  0  0  0
 14 10  1  0  0  0  0
 16 18  1  0  0  0  0
 16 17  1  0  0  0  0
 19 20  2  0  0  0  0
 21 22  1  0  0  0  0
 22 29  2  0  0  0  0
 22 23  1  0  0  0  0
 23 19  1  0  0  0  0
 23 24  2  0  0  0  0
 24 26  1  0  0  0  0
 24 25  1  0  0  0  0
 26 27  1  0  0  0  0
 28 26  2  0  0  0  0
 29 28  1  0  0  0  0
M  END
>  <minimizedAffinity>
-5.52488375

$$$$

 OpenBabel03252508013D

 29 31  0  0  1  0  0  0  0  0999 V2000
   37.1400   28.0120   40.9460 C   0  0  0  0  0  0  0  0  0  0  0  0
   36.5400   27.2020   39.9370 C   0  0  0  0  0  0  0  0  0  0  0  0
   36.5100   27.7470   38.6550 C   0  0  0  0  0  0  0  0  0  0  0  0
   37.0360   28.9760   38.4460 N   0  0  0  0  0  0  0  0  0  0  0  0
   37.5980   29.6970   39.4750 C   0  0  0  0  0  0  0  0  0  0  0  0
   37.6630   29.2480   40.7120 N   0  0  0  0  0  0  0  0  0  0  0  0
   36.1450   26.2310   40.1980 H   0  0  0  0  0  0  0  0  0  0  0  0
   36.0640   27.1680   37.8580 H   0  0  0  0  0  0  0  0  0  0  0  0
   38.1640   31.0490   39.1790 C   0  0  1  0  0  0  0  0  0  0  0  0
   37.2860   32.0720   38.5020 C   0  0  0  0  0  0  0  0  0  0  0  0
   37.5730   32.1460   39.9760 C   0  0  1  0  0  0  0  0  0  0  0  0
   39.2200   31.0420   38.9030 H   0  0  0  0  0  0  0  0  0  0  0  0
   36.3040   31.7720   38.1190 H   0  0  0  0  0  0  0  0  0  0  0  0
   37.8340   32.8170   37.9010 H   0  0  0  0  0  0  0  0  0  0  0  0
   38.2230   32.9270   40.3820 H   0  0  0  0  0  0  0  0  0  0  0  0
   36.3740   31.8870   40.7780 N   0  0  0  0  0  0  0  0  0  0  0  0
   35.5140   32.2420   40.3140 H   0  0  0  0  0  0  0  0  0  0  0  0
   36.4790   32.2190   41.7590 H   0  0  0  0  0  0  0  0  0  0  0  0
   37.1620   27.4260   42.2730 C   0  0  0  0  0  0  0  0  0  0  0  0
   36.2260   27.5610   43.1190 O   0  0  0  0  0  0  0  0  0  0  0  0
   37.1580   24.3920   41.9520 Cl  0  0  0  0  0  0  0  0  0  0  0  0
   38.5000   25.2670   42.6270 C   0  0  0  0  0  0  0  0  0  0  0  0
   38.3280   26.6210   42.6950 C   0  0  0  0  0  0  0  0  0  0  0  0
   39.3580   27.4060   43.2240 C   0  0  0  0  0  0  0  0  0  0  0  0
   39.3130   28.4910   43.3190 H   0  0  0  0  0  0  0  0  0  0  0  0
   40.5380   26.8590   43.6790 C   0  0  0  0  0  0  0  0  0  0  0  0
   41.3520   27.4230   44.0920 H   0  0  0  0  0  0  0  0  0  0  0  0
   40.6990   25.4890   43.6040 C   0  0  0  0  0  3  0  0  0  0  0  0
   39.6820   24.7280   43.0830 C   0  0  0  0  0  3  0  0  0  0  0  0
  1 19  1  0  0  0  0
  2  7  1  0  0  0  0
  2  1  2  0  0  0  0
  3  2  1  0  0  0  0
  4  3  2  0  0  0  0
  4  5  1  0  0  0  0
  5  6  2  0  0  0  0
  6  1  1  0  0  0  0
  8  3  1  0  0  0  0
  9 12  1  6  0  0  0
  9  5  1  0  0  0  0
  9 11  1  0  0  0  0
 10  9  1  0  0  0  0
 10 11  1  0  0  0  0
 11 15  1  1  0  0  0
 11 16  1  0  0  0  0
 13 10  1  0  0  0  0
 14 10  1  0  0  0  0
 16 18  1  0  0  0  0
 17 16  1  0  0  0  0
 19 23  1  0  0  0  0
 19 20  2  0  0  0  0
 21 22  1  0  0  0  0
 22 23  2  0  0  0  0
 22 29  1  0  0  0  0
 23 24  1  0  0  0  0
 24 25  1  0  0  0  0
 24 26  2  0  0  0  0
 26 27  1  0  0  0  0
 28 26  1  0  0  0  0
 29 28  2  0  0  0  0
M  END
>  <minimizedAffinity>
-5.4655323

$$$$

 OpenBabel03252508013D

 29 31  0  0  1  0  0  0  0  0999 V2000
   37.7560   26.3390   42.1420 C   0  0  0  0  0  0  0  0  0  0  0  0
   37.2120   25.0210   42.2000 C   0  0  0  0  0  0  0  0  0  0  0  0
   38.0470   23.9970   41.7540 C   0  0  0  0  0  0  0  0  0  0  0  0
   39.2860   24.3020   41.3050 N   0  0  0  0  0  0  0  0  0  0  0  0
   39.7370   25.6020   41.2790 C   0  0  0  0  0  0  0  0  0  0  0  0
   39.0080   26.6220   41.6840 N   0  0  0  0  0  0  0  0  0  0  0  0
   36.2100   24.8740   42.5750 H   0  0  0  0  0  0  0  0  0  0  0  0
   37.6760   22.9820   41.7810 H   0  0  0  0  0  0  0  0  0  0  0  0
   41.1180   25.8730   40.7730 C   0  0  1  0  0  0  0  0  0  0  0  0
   42.0180   26.7830   41.5710 C   0  0  0  0  0  0  0  0  0  0  0  0
   42.1970   25.2910   41.6020 C   0  0  1  0  0  0  0  0  0  0  0  0
   41.1940   25.9290   39.6860 H   0  0  0  0  0  0  0  0  0  0  0  0
   41.6090   27.3340   42.4240 H   0  0  0  0  0  0  0  0  0  0  0  0
   42.7780   27.3130   40.9710 H   0  0  0  0  0  0  0  0  0  0  0  0
   43.0550   24.8180   41.1140 H   0  0  0  0  0  0  0  0  0  0  0  0
   41.8710   24.7310   42.9160 N   0  0  0  0  0  0  0  0  0  0  0  0
   42.1200   25.3830   43.6870 H   0  0  0  0  0  0  0  0  0  0  0  0
   42.2640   23.7750   43.0440 H   0  0  0  0  0  0  0  0  0  0  0  0
   36.8730   27.3900   42.6100 C   0  0  0  0  0  0  0  0  0  0  0  0
   36.1910   27.3160   43.6780 O   0  0  0  0  0  0  0  0  0  0  0  0
   38.7230   29.7640   43.1120 Cl  0  0  0  0  0  0  0  0  0  0  0  0
   37.4700   29.7830   41.9070 C   0  0  0  0  0  0  0  0  0  0  0  0
   36.7370   28.6330   41.8200 C   0  0  0  0  0  0  0  0  0  0  0  0
   35.7070   28.5590   40.8770 C   0  0  0  0  0  0  0  0  0  0  0  0
   35.0700   27.6850   40.7350 H   0  0  0  0  0  0  0  0  0  0  0  0
   35.4070   29.6060   40.0340 C   0  0  0  0  0  0  0  0  0  0  0  0
   34.6270   29.5920   39.2980 H   0  0  0  0  0  0  0  0  0  0  0  0
   36.1550   30.7640   40.1320 C   0  0  0  0  0  3  0  0  0  0  0  0
   37.1640   30.8260   41.0610 C   0  0  0  0  0  3  0  0  0  0  0  0
  1  2  1  0  0  0  0
  1 19  1  0  0  0  0
  2  7  1  0  0  0  0
  3  8  1  0  0  0  0
  3  2  2  0  0  0  0
  4  3  1  0  0  0  0
  5  4  2  0  0  0  0
  5  6  1  0  0  0  0
  6  1  2  0  0  0  0
  9 12  1  6  0  0  0
  9  5  1  0  0  0  0
  9 10  1  0  0  0  0
  9 11  1  0  0  0  0
 10 11  1  0  0  0  0
 10 13  1  0  0  0  0
 11 15  1  6  0  0  0
 11 16  1  0  0  0  0
 14 10  1  0  0  0  0
 16 18  1  0  0  0  0
 16 17  1  0  0  0  0
 19 20  2  0  0  0  0
 22 21  1  0  0  0  0
 23 22  1  0  0  0  0
 23 19  1  0  0  0  0
 24 23  2  0  0  0  0
 25 24  1  0  0  0  0
 26 28  2  0  0  0  0
 26 24  1  0  0  0  0
 27 26  1  0  0  0  0
 28 29  1  0  0  0  0
 29 22  2  0  0  0  0
M  END
>  <minimizedAffinity>
-5.40169573

$$$$

 OpenBabel03252508013D

 29 31  0  0  1  0  0  0  0  0999 V2000
   38.4580   30.7790   39.8860 C   0  0  0  0  0  0  0  0  0  0  0  0
   37.3940   31.6560   40.2510 C   0  0  0  0  0  0  0  0  0  0  0  0
   37.6940   33.0170   40.2380 C   0  0  0  0  0  0  0  0  0  0  0  0
   38.9390   33.4170   39.8900 N   0  0  0  0  0  0  0  0  0  0  0  0
   39.9130   32.5060   39.5510 C   0  0  0  0  0  0  0  0  0  0  0  0
   39.7060   31.2050   39.5400 N   0  0  0  0  0  0  0  0  0  0  0  0
   36.4310   31.2440   40.5150 H   0  0  0  0  0  0  0  0  0  0  0  0
   36.9170   33.7180   40.5070 H   0  0  0  0  0  0  0  0  0  0  0  0
   41.2690   33.0120   39.1740 C   0  0  1  0  0  0  0  0  0  0  0  0
   42.2270   32.0750   38.4810 C   0  0  0  0  0  0  0  0  0  0  0  0
   41.4900   33.1390   37.7160 C   0  0  1  0  0  0  0  0  0  0  0  0
   41.6960   33.7210   39.8850 H   0  0  0  0  0  0  0  0  0  0  0  0
   41.9720   31.0140   38.3870 H   0  0  0  0  0  0  0  0  0  0  0  0
   43.2930   32.3040   38.6520 H   0  0  0  0  0  0  0  0  0  0  0  0
   42.0160   34.0160   37.3260 H   0  0  0  0  0  0  0  0  0  0  0  0
   40.5120   32.5640   36.7890 N   0  0  0  0  0  0  0  0  0  0  0  0
   40.8370   31.6570   36.3970 H   0  0  0  0  0  0  0  0  0  0  0  0
   40.2160   33.2450   36.0590 H   0  0  0  0  0  0  0  0  0  0  0  0
   38.1260   29.3670   39.9060 C   0  0  0  0  0  0  0  0  0  0  0  0
   38.0690   28.6410   38.8670 O   0  0  0  0  0  0  0  0  0  0  0  0
   35.2480   28.8200   40.7560 Cl  0  0  0  0  0  0  0  0  0  0  0  0
   36.6180   28.3860   41.7330 C   0  0  0  0  0  0  0  0  0  0  0  0
   37.8330   28.7060   41.1960 C   0  0  0  0  0  0  0  0  0  0  0  0
   38.9910   28.3920   41.9140 C   0  0  0  0  0  0  0  0  0  0  0  0
   40.0030   28.6080   41.5670 H   0  0  0  0  0  0  0  0  0  0  0  0
   38.9480   27.7720   43.1430 C   0  0  0  0  0  0  0  0  0  0  0  0
   39.8110   27.5140   43.7260 H   0  0  0  0  0  0  0  0  0  0  0  0
   37.7140   27.4530   43.6750 C   0  0  0  0  0  3  0  0  0  0  0  0
   36.5820   27.7660   42.9630 C   0  0  0  0  0  3  0  0  0  0  0  0
  1 19  1  0  0  0  0
  1  2  1  0  0  0  0
  2  7  1  0  0  0  0
  3  2  2  0  0  0  0
  3  8  1  0  0  0  0
  4  3  1  0  0  0  0
  5  4  2  0  0  0  0
  6  5  1  0  0  0  0
  6  1  2  0  0  0  0
  9  5  1  0  0  0  0
  9 12  1  1  0  0  0
 10 14  1  0  0  0  0
 10  9  1  0  0  0  0
 11 15  1  6  0  0  0
 11 10  1  0  0  0  0
 11  9  1  0  0  0  0
 13 10  1  0  0  0  0
 16 11  1  0  0  0  0
 17 16  1  0  0  0  0
 18 16  1  0  0  0  0
 19 23  1  0  0  0  0
 20 19  2  0  0  0  0
 21 22  1  0  0  0  0
 22 29  1  0  0  0  0
 23 22  2  0  0  0  0
 23 24  1  0  0  0  0
 24 26  2  0  0  0  0
 25 24  1  0  0  0  0
 26 28  1  0  0  0  0
 26 27  1  0  0  0  0
 29 28  2  0  0  0  0
M  END
>  <minimizedAffinity>
-5.36722755

$$$$

 OpenBabel03252508013D

 29 31  0  0  1  0  0  0  0  0999 V2000
   37.0200   28.7520   41.6830 C   0  0  0  0  0  0  0  0  0  0  0  0
   38.1090   29.1870   42.4950 C   0  0  0  0  0  0  0  0  0  0  0  0
   38.7580   28.1960   43.2280 C   0  0  0  0  0  0  0  0  0  0  0  0
   38.3320   26.9160   43.1320 N   0  0  0  0  0  0  0  0  0  0  0  0
   37.2700   26.5750   42.3250 C   0  0  0  0  0  0  0  0  0  0  0  0
   36.6070   27.4560   41.6030 N   0  0  0  0  0  0  0  0  0  0  0  0
   38.3780   30.2330   42.5090 H   0  0  0  0  0  0  0  0  0  0  0  0
   39.5900   28.4800   43.8570 H   0  0  0  0  0  0  0  0  0  0  0  0
   36.8480   25.1410   42.2600 C   0  0  1  0  0  0  0  0  0  0  0  0
   36.8320   24.4490   40.9200 C   0  0  0  0  0  0  0  0  0  0  0  0
   37.9350   24.2000   41.9100 C   0  0  1  0  0  0  0  0  0  0  0  0
   36.0590   24.8740   42.9650 H   0  0  0  0  0  0  0  0  0  0  0  0
   36.9960   25.0340   40.0080 H   0  0  0  0  0  0  0  0  0  0  0  0
   36.1060   23.6230   40.8420 H   0  0  0  0  0  0  0  0  0  0  0  0
   38.0100   23.2450   42.4390 H   0  0  0  0  0  0  0  0  0  0  0  0
   39.2180   24.7280   41.4400 N   0  0  0  0  0  0  0  0  0  0  0  0
   39.3110   24.6570   40.4070 H   0  0  0  0  0  0  0  0  0  0  0  0
   40.0250   24.3150   41.9550 H   0  0  0  0  0  0  0  0  0  0  0  0
   36.3580   29.7980   40.9280 C   0  0  0  0  0  0  0  0  0  0  0  0
   36.1650   30.9720   41.3690 O   0  0  0  0  0  0  0  0  0  0  0  0
   38.2330   29.9930   38.5290 Cl  0  0  0  0  0  0  0  0  0  0  0  0
   36.5590   29.5490   38.3830 C   0  0  0  0  0  0  0  0  0  0  0  0
   35.8680   29.5120   39.5620 C   0  0  0  0  0  0  0  0  0  0  0  0
   34.5140   29.1640   39.5400 C   0  0  0  0  0  0  0  0  0  0  0  0
   33.8820   29.1090   40.4270 H   0  0  0  0  0  0  0  0  0  0  0  0
   33.8540   28.8580   38.3700 C   0  0  0  0  0  0  0  0  0  0  0  0
   32.8180   28.5870   38.3080 H   0  0  0  0  0  0  0  0  0  0  0  0
   34.5630   28.8980   37.1850 C   0  0  0  0  0  3  0  0  0  0  0  0
   35.8920   29.2420   37.2180 C   0  0  0  0  0  3  0  0  0  0  0  0
  1  2  1  0  0  0  0
  2  7  1  0  0  0  0
  2  3  2  0  0  0  0
  3  8  1  0  0  0  0
  4  3  1  0  0  0  0
  5  4  2  0  0  0  0
  6  1  2  0  0  0  0
  6  5  1  0  0  0  0
  9  5  1  0  0  0  0
  9 12  1  1  0  0  0
 10 11  1  0  0  0  0
 10  9  1  0  0  0  0
 11  9  1  0  0  0  0
 11 15  1  1  0  0  0
 13 10  1  0  0  0  0
 14 10  1  0  0  0  0
 16 11  1  0  0  0  0
 16 18  1  0  0  0  0
 17 16  1  0  0  0  0
 19 20  2  0  0  0  0
 19  1  1  0  0  0  0
 22 21  1  0  0  0  0
 22 23  1  0  0  0  0
 23 19  1  0  0  0  0
 24 23  2  0  0  0  0
 24 25  1  0  0  0  0
 26 24  1  0  0  0  0
 27 26  1  0  0  0  0
 28 29  1  0  0  0  0
 28 26  2  0  0  0  0
 29 22  2  0  0  0  0
M  END
>  <minimizedAffinity>
-5.34729052

$$$$

 OpenBabel03252508013D

 29 31  0  0  1  0  0  0  0  0999 V2000
   37.0760   30.3050   40.0260 C   0  0  0  0  0  0  0  0  0  0  0  0
   36.6760   31.6310   40.3670 C   0  0  0  0  0  0  0  0  0  0  0  0
   37.6310   32.6260   40.1670 C   0  0  0  0  0  0  0  0  0  0  0  0
   38.8460   32.2880   39.6760 N   0  0  0  0  0  0  0  0  0  0  0  0
   39.1560   30.9820   39.3720 C   0  0  0  0  0  0  0  0  0  0  0  0
   38.3060   29.9880   39.5340 N   0  0  0  0  0  0  0  0  0  0  0  0
   35.6820   31.8050   40.7530 H   0  0  0  0  0  0  0  0  0  0  0  0
   37.3710   33.6460   40.4110 H   0  0  0  0  0  0  0  0  0  0  0  0
   40.5150   30.6740   38.8310 C   0  0  1  0  0  0  0  0  0  0  0  0
   40.6250   29.9670   37.5030 C   0  0  0  0  0  0  0  0  0  0  0  0
   40.8800   31.4440   37.6210 C   0  0  1  0  0  0  0  0  0  0  0  0
   41.2520   30.4150   39.5930 H   0  0  0  0  0  0  0  0  0  0  0  0
   39.7220   29.5730   37.0240 H   0  0  0  0  0  0  0  0  0  0  0  0
   41.5410   29.3640   37.3820 H   0  0  0  0  0  0  0  0  0  0  0  0
   41.8920   31.8490   37.5260 H   0  0  0  0  0  0  0  0  0  0  0  0
   39.8520   32.2300   36.9340 N   0  0  0  0  0  0  0  0  0  0  0  0
   39.5000   31.7470   36.0830 H   0  0  0  0  0  0  0  0  0  0  0  0
   40.1620   33.2080   36.7520 H   0  0  0  0  0  0  0  0  0  0  0  0
   36.0680   29.2830   40.2410 C   0  0  0  0  0  0  0  0  0  0  0  0
   34.8390   29.4350   39.9640 O   0  0  0  0  0  0  0  0  0  0  0  0
   36.5380   26.8680   38.4370 Cl  0  0  0  0  0  0  0  0  0  0  0  0
   36.7140   26.8030   40.1650 C   0  0  0  0  0  0  0  0  0  0  0  0
   36.4640   27.9790   40.8140 C   0  0  0  0  0  0  0  0  0  0  0  0
   36.5820   28.0190   42.2070 C   0  0  0  0  0  0  0  0  0  0  0  0
   36.4030   28.9100   42.8100 H   0  0  0  0  0  0  0  0  0  0  0  0
   36.9410   26.9130   42.9460 C   0  0  0  0  0  0  0  0  0  0  0  0
   37.0430   26.9000   44.0130 H   0  0  0  0  0  0  0  0  0  0  0  0
   37.1910   25.7300   42.2780 C   0  0  0  0  0  3  0  0  0  0  0  0
   37.0720   25.7010   40.9100 C   0  0  0  0  0  3  0  0  0  0  0  0
  1 19  1  0  0  0  0
  1  2  1  0  0  0  0
  2  7  1  0  0  0  0
  3  2  2  0  0  0  0
  3  8  1  0  0  0  0
  4  3  1  0  0  0  0
  5  6  1  0  0  0  0
  5  4  2  0  0  0  0
  6  1  2  0  0  0  0
  9  5  1  0  0  0  0
  9 12  1  1  0  0  0
 10 11  1  0  0  0  0
 10  9  1  0  0  0  0
 11 15  1  6  0  0  0
 11  9  1  0  0  0  0
 13 10  1  0  0  0  0
 14 10  1  0  0  0  0
 16 11  1  0  0  0  0
 17 16  1  0  0  0  0
 18 16  1  0  0  0  0
 19 23  1  0  0  0  0
 20 19  2  0  0  0  0
 21 22  1  0  0  0  0
 22 23  2  0  0  0  0
 22 29  1  0  0  0  0
 23 24  1  0  0  0  0
 24 25  1  0  0  0  0
 24 26  2  0  0  0  0
 26 27  1  0  0  0  0
 28 26  1  0  0  0  0
 29 28  2  0  0  0  0
M  END
>  <minimizedAffinity>
-5.33862305

$$$$

 OpenBabel03252508013D

 29 31  0  0  1  0  0  0  0  0999 V2000
   39.3100   28.3350   41.9890 C   0  0  0  0  0  0  0  0  0  0  0  0
   39.9420   29.3680   42.7420 C   0  0  0  0  0  0  0  0  0  0  0  0
   39.6720   30.6730   42.3340 C   0  0  0  0  0  0  0  0  0  0  0  0
   38.8510   30.8790   41.2790 N   0  0  0  0  0  0  0  0  0  0  0  0
   38.2790   29.8260   40.6020 C   0  0  0  0  0  0  0  0  0  0  0  0
   38.4860   28.5670   40.9290 N   0  0  0  0  0  0  0  0  0  0  0  0
   40.5840   29.1070   43.5710 H   0  0  0  0  0  0  0  0  0  0  0  0
   40.1300   31.4880   42.8760 H   0  0  0  0  0  0  0  0  0  0  0  0
   37.3780   30.1210   39.4450 C   0  0  1  0  0  0  0  0  0  0  0  0
   36.0510   29.4070   39.3580 C   0  0  0  0  0  0  0  0  0  0  0  0
   36.1360   30.8390   39.8060 C   0  0  1  0  0  0  0  0  0  0  0  0
   37.9010   30.3110   38.5070 H   0  0  0  0  0  0  0  0  0  0  0  0
   35.8280   28.5950   40.0570 H   0  0  0  0  0  0  0  0  0  0  0  0
   35.6680   29.2820   38.3310 H   0  0  0  0  0  0  0  0  0  0  0  0
   35.7780   31.6510   39.1650 H   0  0  0  0  0  0  0  0  0  0  0  0
   35.7770   30.9890   41.2190 N   0  0  0  0  0  0  0  0  0  0  0  0
   35.0430   30.3110   41.5060 H   0  0  0  0  0  0  0  0  0  0  0  0
   35.5440   31.9750   41.4630 H   0  0  0  0  0  0  0  0  0  0  0  0
   39.6030   26.9840   42.4300 C   0  0  0  0  0  0  0  0  0  0  0  0
   40.5920   26.6810   43.1650 O   0  0  0  0  0  0  0  0  0  0  0  0
   36.6860   26.9040   43.3230 Cl  0  0  0  0  0  0  0  0  0  0  0  0
   37.3990   25.6780   42.3190 C   0  0  0  0  0  0  0  0  0  0  0  0
   38.7170   25.8750   42.0170 C   0  0  0  0  0  0  0  0  0  0  0  0
   39.3720   24.9370   41.2120 C   0  0  0  0  0  0  0  0  0  0  0  0
   40.4200   25.0090   40.9190 H   0  0  0  0  0  0  0  0  0  0  0  0
   38.7330   23.8220   40.7150 C   0  0  0  0  0  0  0  0  0  0  0  0
   39.1970   23.0790   40.0960 H   0  0  0  0  0  0  0  0  0  0  0  0
   37.4010   23.6340   41.0280 C   0  0  0  0  0  3  0  0  0  0  0  0
   36.7660   24.5610   41.8180 C   0  0  0  0  0  3  0  0  0  0  0  0
  1 19  1  0  0  0  0
  1  2  1  0  0  0  0
  2  7  1  0  0  0  0
  3  2  2  0  0  0  0
  3  8  1  0  0  0  0
  4  3  1  0  0  0  0
  5  6  1  0  0  0  0
  5  4  2  0  0  0  0
  6  1  2  0  0  0  0
  9 12  1  6  0  0  0
  9 11  1  0  0  0  0
  9  5  1  0  0  0  0
 10  9  1  0  0  0  0
 10 11  1  0  0  0  0
 10 13  1  0  0  0  0
 11 15  1  6  0  0  0
 11 16  1  0  0  0  0
 14 10  1  0  0  0  0
 16 18  1  0  0  0  0
 16 17  1  0  0  0  0
 19 20  2  0  0  0  0
 22 21  1  0  0  0  0
 23 22  1  0  0  0  0
 23 19  1  0  0  0  0
 24 23  2  0  0  0  0
 25 24  1  0  0  0  0
 26 28  2  0  0  0  0
 26 24  1  0  0  0  0
 27 26  1  0  0  0  0
 28 29  1  0  0  0  0
 29 22  2  0  0  0  0
M  END
>  <minimizedAffinity>
-5.23608065

$$$$

 OpenBabel03252508013D

 29 31  0  0  1  0  0  0  0  0999 V2000
   36.4580   30.2050   39.5770 C   0  0  0  0  0  0  0  0  0  0  0  0
   36.6500   29.8450   38.2100 C   0  0  0  0  0  0  0  0  0  0  0  0
   37.2870   30.7950   37.4130 C   0  0  0  0  0  0  0  0  0  0  0  0
   37.6740   31.9680   37.9630 N   0  0  0  0  0  0  0  0  0  0  0  0
   37.4510   32.2410   39.2940 C   0  0  0  0  0  0  0  0  0  0  0  0
   36.8560   31.3950   40.1090 N   0  0  0  0  0  0  0  0  0  0  0  0
   36.3070   28.8830   37.8590 H   0  0  0  0  0  0  0  0  0  0  0  0
   37.4550   30.5640   36.3700 H   0  0  0  0  0  0  0  0  0  0  0  0
   37.9050   33.5560   39.8430 C   0  0  1  0  0  0  0  0  0  0  0  0
   38.8520   33.5650   41.0170 C   0  0  0  0  0  0  0  0  0  0  0  0
   39.3390   33.8470   39.6230 C   0  0  1  0  0  0  0  0  0  0  0  0
   37.1470   34.3400   39.8110 H   0  0  0  0  0  0  0  0  0  0  0  0
   39.0840   32.6260   41.5310 H   0  0  0  0  0  0  0  0  0  0  0  0
   38.7790   34.4620   41.6550 H   0  0  0  0  0  0  0  0  0  0  0  0
   39.6450   34.8560   39.3290 H   0  0  0  0  0  0  0  0  0  0  0  0
   40.2200   32.7860   39.1290 N   0  0  0  0  0  0  0  0  0  0  0  0
   40.7900   32.3690   39.8920 H   0  0  0  0  0  0  0  0  0  0  0  0
   40.7890   33.0960   38.3130 H   0  0  0  0  0  0  0  0  0  0  0  0
   35.7940   29.2040   40.3900 C   0  0  0  0  0  0  0  0  0  0  0  0
   34.5370   29.0400   40.4210 O   0  0  0  0  0  0  0  0  0  0  0  0
   36.4350   26.3600   39.4890 Cl  0  0  0  0  0  0  0  0  0  0  0  0
   36.9830   27.0150   41.0020 C   0  0  0  0  0  0  0  0  0  0  0  0
   36.6030   28.3060   41.2420 C   0  0  0  0  0  0  0  0  0  0  0  0
   37.0000   28.9150   42.4370 C   0  0  0  0  0  0  0  0  0  0  0  0
   36.7440   29.9380   42.7160 H   0  0  0  0  0  0  0  0  0  0  0  0
   37.7610   28.2570   43.3790 C   0  0  0  0  0  0  0  0  0  0  0  0
   38.0860   28.6860   44.3070 H   0  0  0  0  0  0  0  0  0  0  0  0
   38.1390   26.9530   43.1240 C   0  0  0  0  0  3  0  0  0  0  0  0
   37.7430   26.3640   41.9480 C   0  0  0  0  0  3  0  0  0  0  0  0
  1  6  1  0  0  0  0
  1 19  1  0  0  0  0
  2  1  2  0  0  0  0
  3  4  2  0  0  0  0
  3  2  1  0  0  0  0
  4  5  1  0  0  0  0
  5  9  1  0  0  0  0
  5  6  2  0  0  0  0
  7  2  1  0  0  0  0
  8  3  1  0  0  0  0
  9 12  1  6  0  0  0
  9 10  1  0  0  0  0
 10 13  1  0  0  0  0
 10 14  1  0  0  0  0
 11 15  1  6  0  0  0
 11  9  1  0  0  0  0
 11 10  1  0  0  0  0
 16 11  1  0  0  0  0
 16 17  1  0  0  0  0
 18 16  1  0  0  0  0
 19 20  2  0  0  0  0
 19 23  1  0  0  0  0
 21 22  1  0  0  0  0
 22 23  2  0  0  0  0
 22 29  1  0  0  0  0
 23 24  1  0  0  0  0
 24 25  1  0  0  0  0
 24 26  2  0  0  0  0
 26 27  1  0  0  0  0
 28 26  1  0  0  0  0
 29 28  2  0  0  0  0
M  END
>  <minimizedAffinity>
-5.21798372

$$$$

 OpenBabel03252508013D

 29 31  0  0  1  0  0  0  0  0999 V2000
   36.9770   28.8270   41.9190 C   0  0  0  0  0  0  0  0  0  0  0  0
   35.8430   28.8890   41.0550 C   0  0  0  0  0  0  0  0  0  0  0  0
   35.7850   29.9900   40.2030 C   0  0  0  0  0  0  0  0  0  0  0  0
   36.7770   30.9090   40.2420 N   0  0  0  0  0  0  0  0  0  0  0  0
   37.8400   30.7780   41.1060 C   0  0  0  0  0  0  0  0  0  0  0  0
   37.9640   29.7660   41.9410 N   0  0  0  0  0  0  0  0  0  0  0  0
   35.0990   28.1060   41.0950 H   0  0  0  0  0  0  0  0  0  0  0  0
   34.9440   30.0780   39.5300 H   0  0  0  0  0  0  0  0  0  0  0  0
   38.9050   31.8280   41.0990 C   0  0  1  0  0  0  0  0  0  0  0  0
   40.3300   31.4140   40.8280 C   0  0  0  0  0  0  0  0  0  0  0  0
   39.5010   32.0840   39.7700 C   0  0  1  0  0  0  0  0  0  0  0  0
   38.7510   32.6270   41.8250 H   0  0  0  0  0  0  0  0  0  0  0  0
   40.5830   30.3490   40.7770 H   0  0  0  0  0  0  0  0  0  0  0  0
   41.0900   32.0710   41.2840 H   0  0  0  0  0  0  0  0  0  0  0  0
   39.7080   33.1140   39.4620 H   0  0  0  0  0  0  0  0  0  0  0  0
   39.1980   31.1760   38.6600 N   0  0  0  0  0  0  0  0  0  0  0  0
   39.9760   30.5100   38.4820 H   0  0  0  0  0  0  0  0  0  0  0  0
   38.8920   31.6890   37.8050 H   0  0  0  0  0  0  0  0  0  0  0  0
   37.0180   27.6730   42.7980 C   0  0  0  0  0  0  0  0  0  0  0  0
   36.1400   27.4260   43.6800 O   0  0  0  0  0  0  0  0  0  0  0  0
   36.9510   25.4470   40.7130 Cl  0  0  0  0  0  0  0  0  0  0  0  0
   38.2740   25.6630   41.8190 C   0  0  0  0  0  0  0  0  0  0  0  0
   38.1360   26.7120   42.6850 C   0  0  0  0  0  0  0  0  0  0  0  0
   39.1540   26.9610   43.6100 C   0  0  0  0  0  0  0  0  0  0  0  0
   39.1320   27.7720   44.3390 H   0  0  0  0  0  0  0  0  0  0  0  0
   40.2900   26.1850   43.6800 C   0  0  0  0  0  0  0  0  0  0  0  0
   41.0930   26.3400   44.3730 H   0  0  0  0  0  0  0  0  0  0  0  0
   40.4180   25.1280   42.8000 C   0  0  0  0  0  3  0  0  0  0  0  0
   39.4130   24.8910   41.8940 C   0  0  0  0  0  3  0  0  0  0  0  0
  1  6  1  0  0  0  0
  1 19  1  0  0  0  0
  2  7  1  0  0  0  0
  2  1  2  0  0  0  0
  3  4  2  0  0  0  0
  3  2  1  0  0  0  0
  4  5  1  0  0  0  0
  5  6  2  0  0  0  0
  8  3  1  0  0  0  0
  9  5  1  0  0  0  0
  9 12  1  1  0  0  0
 10  9  1  0  0  0  0
 10 14  1  0  0  0  0
 11 15  1  6  0  0  0
 11 10  1  0  0  0  0
 11  9  1  0  0  0  0
 13 10  1  0  0  0  0
 16 11  1  0  0  0  0
 17 16  1  0  0  0  0
 18 16  1  0  0  0  0
 19 20  2  0  0  0  0
 21 22  1  0  0  0  0
 22 29  2  0  0  0  0
 22 23  1  0  0  0  0
 23 19  1  0  0  0  0
 23 24  2  0  0  0  0
 24 26  1  0  0  0  0
 24 25  1  0  0  0  0
 26 27  1  0  0  0  0
 28 26  2  0  0  0  0
 29 28  1  0  0  0  0
M  END
>  <minimizedAffinity>
-5.18012762

$$$$
