
 OpenBabel03252507593D

 29 31  0  0  1  0  0  0  0  0999 V2000
   46.3890   34.6830   43.3100 C   0  0  0  0  0  0  0  0  0  0  0  0
   45.4180   35.7040   43.5330 C   0  0  0  0  0  0  0  0  0  0  0  0
   44.6720   35.5900   44.7050 C   0  0  0  0  0  0  0  0  0  0  0  0
   44.9040   34.5500   45.5380 N   0  0  0  0  0  0  0  0  0  0  0  0
   45.8600   33.6030   45.2510 C   0  0  0  0  0  0  0  0  0  0  0  0
   46.6040   33.6430   44.1640 N   0  0  0  0  0  0  0  0  0  0  0  0
   45.3030   36.4970   42.8090 H   0  0  0  0  0  0  0  0  0  0  0  0
   43.9240   36.3420   44.9150 H   0  0  0  0  0  0  0  0  0  0  0  0
   46.0700   32.4790   46.2150 C   0  0  1  0  0  0  0  0  0  0  0  0
   46.8450   32.7430   47.4820 C   0  0  0  0  0  0  0  0  0  0  0  0
   45.3460   32.6300   47.4960 C   0  0  1  0  0  0  0  0  0  0  0  0
   46.2080   31.5050   45.7430 H   0  0  0  0  0  0  0  0  0  0  0  0
   47.3530   33.7040   47.6130 H   0  0  0  0  0  0  0  0  0  0  0  0
   47.3650   31.8600   47.8910 H   0  0  0  0  0  0  0  0  0  0  0  0
   44.8530   31.7610   47.9420 H   0  0  0  0  0  0  0  0  0  0  0  0
   44.7070   33.9100   47.8140 N   0  0  0  0  0  0  0  0  0  0  0  0
   45.2750   34.4710   48.4800 H   0  0  0  0  0  0  0  0  0  0  0  0
   43.7170   33.7900   48.1160 H   0  0  0  0  0  0  0  0  0  0  0  0
   47.1550   34.8190   42.0850 C   0  0  0  0  0  0  0  0  0  0  0  0
   47.9430   35.7850   41.8500 O   0  0  0  0  0  0  0  0  0  0  0  0
   44.5360   34.4480   40.5650 Cl  0  0  0  0  0  0  0  0  0  0  0  0
   45.9500   33.4830   40.2570 C   0  0  0  0  0  0  0  0  0  0  0  0
   47.0320   33.7880   41.0320 C   0  0  0  0  0  0  0  0  0  0  0  0
   48.2160   33.0630   40.8520 C   0  0  0  0  0  0  0  0  0  0  0  0
   49.1300   33.2330   41.4230 H   0  0  0  0  0  0  0  0  0  0  0  0
   48.3230   32.0520   39.9210 C   0  0  0  0  0  0  0  0  0  0  0  0
   49.2100   31.4730   39.7510 H   0  0  0  0  0  0  0  0  0  0  0  0
   47.2200   31.7560   39.1450 C   0  0  0  0  0  3  0  0  0  0  0  0
   46.0640   32.4740   39.3270 C   0  0  0  0  0  3  0  0  0  0  0  0
  1  2  2  0  0  0  0
  1  6  1  0  0  0  0
  2  3  1  0  0  0  0
  3  8  1  0  0  0  0
  3  4  2  0  0  0  0
  5  4  1  0  0  0  0
  5  9  1  0  0  0  0
  6  5  2  0  0  0  0
  7  2  1  0  0  0  0
  9 12  1  6  0  0  0
  9 10  1  0  0  0  0
  9 11  1  0  0  0  0
 10 11  1  0  0  0  0
 10 13  1  0  0  0  0
 10 14  1  0  0  0  0
 11 16  1  0  0  0  0
 11 15  1  1  0  0  0
 16 18  1  0  0  0  0
 16 17  1  0  0  0  0
 19  1  1  0  0  0  0
 20 19  2  0  0  0  0
 22 21  1  0  0  0  0
 22 23  1  0  0  0  0
 23 19  1  0  0  0  0
 24 23  2  0  0  0  0
 24 25  1  0  0  0  0
 26 24  1  0  0  0  0
 27 26  1  0  0  0  0
 28 29  1  0  0  0  0
 28 26  2  0  0  0  0
 29 22  2  0  0  0  0
M  END
>  <minimizedAffinity>
-5.34773397

>  <minimizedRMSD>
1.33820975

$$$$
