
 OpenBabel03242522503D

 26 27  0  0  0  0  0  0  0  0999 V2000
   45.6720   30.5970   47.7860 O   0  0  0  0  0  0  0  0  0  0  0  0
   45.9980   31.9810   48.4060 P   0  0  2  0  0  0  0  0  0  0  0  0
   45.4240   31.8930   49.9860 O   0  0  0  0  0  0  0  0  0  0  0  0
   46.0740   32.1660   50.6710 H   0  0  0  0  0  0  0  0  0  0  0  0
   45.1390   33.1450   47.5360 O   0  0  0  0  0  0  0  0  0  0  0  0
   47.0230   33.1800   44.4280 C   0  0  0  0  0  0  0  0  0  0  0  0
   46.5750   32.8180   45.7130 C   0  0  0  0  0  0  0  0  0  0  0  0
   45.5460   33.5280   46.2800 C   0  0  0  0  0  0  0  0  0  0  0  0
   45.0130   34.5480   45.5620 N   0  0  0  0  0  0  0  0  0  0  0  0
   45.4360   34.8960   44.3420 C   0  0  0  0  0  0  0  0  0  0  0  0
   46.4550   34.1990   43.7720 N   0  0  0  0  0  0  0  0  0  0  0  0
   47.8250   32.6820   43.9020 H   0  0  0  0  0  0  0  0  0  0  0  0
   47.1350   31.9800   46.0900 H   0  0  0  0  0  0  0  0  0  0  0  0
   44.9100   35.7340   43.8940 H   0  0  0  0  0  0  0  0  0  0  0  0
   47.6310   32.2270   48.3340 O   0  0  0  0  0  0  0  0  0  0  0  0
   48.6820   31.6270   48.9220 C   0  0  0  0  0  0  0  0  0  0  0  0
   49.5730   32.4940   49.3600 O   0  0  0  0  0  0  0  0  0  0  0  0
   48.6270   29.3220   46.7920 Cl  0  0  0  0  0  0  0  0  0  0  0  0
   49.2840   29.2870   48.4110 C   0  0  0  0  0  0  0  0  0  0  0  0
   49.2960   30.3140   49.3020 C   0  0  0  0  0  0  0  0  0  0  0  0
   49.8780   30.0840   50.5570 C   0  0  0  0  0  0  0  0  0  0  0  0
   49.8380   30.9700   51.2000 H   0  0  0  0  0  0  0  0  0  0  0  0
   50.4460   28.9240   50.9990 C   0  0  0  0  0  0  0  0  0  0  0  0
   50.8660   28.8550   51.9880 H   0  0  0  0  0  0  0  0  0  0  0  0
   50.4070   27.9230   50.0640 C   0  0  0  0  0  0  0  0  0  0  0  0
   49.8560   28.0680   48.8160 C   0  0  0  0  0  0  0  0  0  0  0  0
  2  1  2  6  0  0  0
  2  3  1  0  0  0  0
  3  4  1  0  0  0  0
  5  2  1  0  0  0  0
  6  7  1  0  0  0  0
  7 13  1  0  0  0  0
  7  8  2  0  0  0  0
  8  5  1  0  0  0  0
  9  8  1  0  0  0  0
 10  9  2  0  0  0  0
 11 10  1  0  0  0  0
 11  6  2  0  0  0  0
 12  6  1  0  0  0  0
 14 10  1  0  0  0  0
 15  2  1  0  0  0  0
 15 16  1  0  0  0  0
 16 20  1  0  0  0  0
 16 17  2  0  0  0  0
 18 19  1  0  0  0  0
 19 26  2  0  0  0  0
 19 20  1  0  0  0  0
 20 21  2  0  0  0  0
 21 23  1  0  0  0  0
 21 22  1  0  0  0  0
 23 24  1  0  0  0  0
 25 23  2  0  0  0  0
 26 25  1  0  0  0  0
M  END
>  <minimizedAffinity>
-5.06729889

>  <minimizedRMSD>
1.04872167

$$$$
