
 OpenBabel03252502273D

 35 37  0  0  0  0  0  0  0  0999 V2000
   45.1910   34.3710   41.0430 C   0  0  0  0  0  0  0  0  0  0  0  0
   45.5150   35.0380   42.2210 C   0  0  0  0  0  0  0  0  0  0  0  0
   46.8690   35.3030   42.4910 C   0  0  0  0  0  0  0  0  0  0  0  0
   47.8270   34.9010   41.5950 C   0  0  0  0  0  0  0  0  0  0  0  0
   47.5220   34.2460   40.4360 C   0  0  0  0  0  0  0  0  0  0  0  0
   46.1700   33.9920   40.1860 C   0  0  0  0  0  0  0  0  0  0  0  0
   44.7670   35.3580   42.9330 H   0  0  0  0  0  0  0  0  0  0  0  0
   47.1730   35.8120   43.3820 H   0  0  0  0  0  0  0  0  0  0  0  0
   48.9040   35.0590   41.7130 H   0  0  0  0  0  0  0  0  0  0  0  0
   48.1750   33.8810   39.6580 H   0  0  0  0  0  0  0  0  0  0  0  0
   41.5150   34.7290   40.3200 C   0  0  0  0  0  0  0  0  0  0  0  0
   42.8610   35.1020   40.5030 C   0  0  0  0  0  0  0  0  0  0  0  0
   43.7830   34.1290   40.8290 C   0  0  0  0  0  0  0  0  0  0  0  0
   43.3210   32.8490   40.9540 N   0  0  0  0  0  0  0  0  0  0  0  0
   42.0300   32.5020   40.7760 C   0  0  0  0  0  0  0  0  0  0  0  0
   41.1160   33.4470   40.4580 N   0  0  0  0  0  0  0  0  0  0  0  0
   43.1920   36.1180   40.3970 H   0  0  0  0  0  0  0  0  0  0  0  0
   41.6780   31.4870   40.8790 H   0  0  0  0  0  0  0  0  0  0  0  0
   40.5020   35.7550   39.9700 C   0  0  0  0  0  0  0  0  0  0  0  0
   39.2940   35.0920   39.7210 F   0  0  0  0  0  0  0  0  0  0  0  0
   40.8930   36.2980   38.7400 F   0  0  0  0  0  0  0  0  0  0  0  0
   40.3350   36.7120   40.9430 F   0  0  0  0  0  0  0  0  0  0  0  0
   45.8740   32.0320   38.4800 C   0  0  0  0  0  0  0  0  0  0  0  0
   46.4840   31.1020   38.9910 O   0  0  0  0  0  0  0  0  0  0  0  0
   45.7210   33.3250   39.0230 N   0  0  0  0  0  0  0  0  0  0  0  0
   45.1430   34.0160   38.4840 H   0  0  0  0  0  0  0  0  0  0  0  0
   47.4610   32.6400   35.9580 Cl  0  0  0  0  0  0  0  0  0  0  0  0
   45.8400   31.9380   35.9430 C   0  0  0  0  0  0  0  0  0  0  0  0
   45.2660   31.7300   37.1870 C   0  0  0  0  0  0  0  0  0  0  0  0
   43.9910   31.1810   37.2950 C   0  0  0  0  0  0  0  0  0  0  0  0
   43.4870   30.9930   38.2520 H   0  0  0  0  0  0  0  0  0  0  0  0
   43.2600   30.8290   36.1650 C   0  0  0  0  0  0  0  0  0  0  0  0
   42.2710   30.4040   36.2530 H   0  0  0  0  0  0  0  0  0  0  0  0
   43.8640   31.0510   34.9220 C   0  0  0  0  0  0  0  0  0  0  0  0
   45.1330   31.5960   34.8120 C   0  0  0  0  0  0  0  0  0  0  0  0
  1  2  1  0  0  0  0
  2  3  2  0  0  0  0
  2  7  1  0  0  0  0
  3  8  1  0  0  0  0
  4  9  1  0  0  0  0
  4  3  1  0  0  0  0
  5  4  2  0  0  0  0
  6  5  1  0  0  0  0
  6  1  2  0  0  0  0
 10  5  1  0  0  0  0
 11 16  2  0  0  0  0
 11 12  1  0  0  0  0
 12 13  2  0  0  0  0
 13 14  1  0  0  0  0
 13  1  1  0  0  0  0
 15 18  1  0  0  0  0
 15 14  2  0  0  0  0
 16 15  1  0  0  0  0
 17 12  1  0  0  0  0
 19 11  1  0  0  0  0
 19 22  1  0  0  0  0
 20 19  1  0  0  0  0
 21 19  1  0  0  0  0
 23 24  2  0  0  0  0
 23 25  1  0  0  0  0
 25  6  1  0  0  0  0
 26 25  1  0  0  0  0
 28 27  1  0  0  0  0
 28 29  1  0  0  0  0
 29 30  2  0  0  0  0
 29 23  1  0  0  0  0
 30 31  1  0  0  0  0
 32 33  1  0  0  0  0
 32 30  1  0  0  0  0
 34 32  2  0  0  0  0
 35 34  1  0  0  0  0
 35 28  2  0  0  0  0
M  END
>  <minimizedAffinity>
-6.12677765

>  <minimizedRMSD>
0.63065362

$$$$
