
 OpenBabel03252507593D

 29 31  0  0  1  0  0  0  0  0999 V2000
   46.7350   32.5970   44.0810 C   0  0  0  0  0  0  0  0  0  0  0  0
   45.3620   32.5810   43.6950 C   0  0  0  0  0  0  0  0  0  0  0  0
   44.9590   33.5980   42.8320 C   0  0  0  0  0  0  0  0  0  0  0  0
   45.8650   34.5150   42.4220 N   0  0  0  0  0  0  0  0  0  0  0  0
   47.1750   34.4630   42.8410 C   0  0  0  0  0  0  0  0  0  0  0  0
   47.6300   33.5330   43.6560 N   0  0  0  0  0  0  0  0  0  0  0  0
   44.7110   31.8070   44.0750 H   0  0  0  0  0  0  0  0  0  0  0  0
   43.9270   33.6250   42.5130 H   0  0  0  0  0  0  0  0  0  0  0  0
   48.1280   35.5050   42.3500 C   0  0  1  0  0  0  0  0  0  0  0  0
   49.5930   35.1590   42.2450 C   0  0  0  0  0  0  0  0  0  0  0  0
   48.7190   35.2160   41.0240 C   0  0  1  0  0  0  0  0  0  0  0  0
   47.8800   36.5210   42.6600 H   0  0  0  0  0  0  0  0  0  0  0  0
   49.9530   34.2080   42.6540 H   0  0  0  0  0  0  0  0  0  0  0  0
   50.2740   36.0210   42.3500 H   0  0  0  0  0  0  0  0  0  0  0  0
   48.8260   36.0250   40.2950 H   0  0  0  0  0  0  0  0  0  0  0  0
   48.5300   33.8920   40.4270 N   0  0  0  0  0  0  0  0  0  0  0  0
   49.3750   33.2950   40.5340 H   0  0  0  0  0  0  0  0  0  0  0  0
   48.1890   33.9490   39.4440 H   0  0  0  0  0  0  0  0  0  0  0  0
   47.1350   31.5300   44.9790 C   0  0  0  0  0  0  0  0  0  0  0  0
   48.0470   30.6890   44.7140 O   0  0  0  0  0  0  0  0  0  0  0  0
   45.0490   29.3490   45.4310 Cl  0  0  0  0  0  0  0  0  0  0  0  0
   45.5110   30.4820   46.6660 C   0  0  0  0  0  0  0  0  0  0  0  0
   46.4600   31.3890   46.2880 C   0  0  0  0  0  0  0  0  0  0  0  0
   46.8930   32.3400   47.2190 C   0  0  0  0  0  0  0  0  0  0  0  0
   47.6440   33.1030   47.0090 H   0  0  0  0  0  0  0  0  0  0  0  0
   46.3950   32.3900   48.5020 C   0  0  0  0  0  0  0  0  0  0  0  0
   46.6980   33.1010   49.2470 H   0  0  0  0  0  0  0  0  0  0  0  0
   45.4370   31.4660   48.8710 C   0  0  0  0  0  3  0  0  0  0  0  0
   45.0180   30.5380   47.9500 C   0  0  0  0  0  3  0  0  0  0  0  0
  1 19  1  0  0  0  0
  2  7  1  0  0  0  0
  2  1  1  0  0  0  0
  3  2  2  0  0  0  0
  4  3  1  0  0  0  0
  4  5  2  0  0  0  0
  5  6  1  0  0  0  0
  6  1  2  0  0  0  0
  8  3  1  0  0  0  0
  9 12  1  1  0  0  0
  9  5  1  0  0  0  0
 10  9  1  0  0  0  0
 10 14  1  0  0  0  0
 10 13  1  0  0  0  0
 11 15  1  6  0  0  0
 11 10  1  0  0  0  0
 11  9  1  0  0  0  0
 16 17  1  0  0  0  0
 16 11  1  0  0  0  0
 18 16  1  0  0  0  0
 19 23  1  0  0  0  0
 20 19  2  0  0  0  0
 21 22  1  0  0  0  0
 22 29  1  0  0  0  0
 23 22  2  0  0  0  0
 23 24  1  0  0  0  0
 24 26  2  0  0  0  0
 25 24  1  0  0  0  0
 26 28  1  0  0  0  0
 26 27  1  0  0  0  0
 29 28  2  0  0  0  0
M  END
>  <minimizedAffinity>
-4.98638582

>  <minimizedRMSD>
6.39010811

$$$$
