
 OpenBabel03252507593D

 29 31  0  0  1  0  0  0  0  0999 V2000
   46.3480   34.5700   43.3520 C   0  0  0  0  0  0  0  0  0  0  0  0
   45.3710   35.5520   43.6930 C   0  0  0  0  0  0  0  0  0  0  0  0
   44.7450   35.3860   44.9280 C   0  0  0  0  0  0  0  0  0  0  0  0
   45.0890   34.3350   45.7070 N   0  0  0  0  0  0  0  0  0  0  0  0
   46.0420   33.4280   45.3050 C   0  0  0  0  0  0  0  0  0  0  0  0
   46.6770   33.5180   44.1540 N   0  0  0  0  0  0  0  0  0  0  0  0
   45.1630   36.3580   43.0050 H   0  0  0  0  0  0  0  0  0  0  0  0
   43.9980   36.1070   45.2280 H   0  0  0  0  0  0  0  0  0  0  0  0
   46.3790   32.2890   46.2140 C   0  0  1  0  0  0  0  0  0  0  0  0
   47.0770   32.5820   47.5180 C   0  0  0  0  0  0  0  0  0  0  0  0
   45.6080   32.2670   47.4770 C   0  0  1  0  0  0  0  0  0  0  0  0
   46.6620   31.3710   45.6960 H   0  0  0  0  0  0  0  0  0  0  0  0
   47.4450   33.5940   47.7180 H   0  0  0  0  0  0  0  0  0  0  0  0
   47.7020   31.7550   47.8970 H   0  0  0  0  0  0  0  0  0  0  0  0
   45.2270   31.3150   47.8580 H   0  0  0  0  0  0  0  0  0  0  0  0
   44.7920   33.4280   47.8400 N   0  0  0  0  0  0  0  0  0  0  0  0
   45.2590   34.0220   48.5540 H   0  0  0  0  0  0  0  0  0  0  0  0
   43.8200   33.1580   48.1020 H   0  0  0  0  0  0  0  0  0  0  0  0
   46.9880   34.7610   42.0640 C   0  0  0  0  0  0  0  0  0  0  0  0
   47.8120   35.6930   41.8170 O   0  0  0  0  0  0  0  0  0  0  0  0
   44.2490   34.7820   40.7190 Cl  0  0  0  0  0  0  0  0  0  0  0  0
   45.5250   33.7020   40.2430 C   0  0  0  0  0  0  0  0  0  0  0  0
   46.6840   33.8310   40.9550 C   0  0  0  0  0  0  0  0  0  0  0  0
   47.7670   33.0010   40.6390 C   0  0  0  0  0  0  0  0  0  0  0  0
   48.7290   33.0310   41.1520 H   0  0  0  0  0  0  0  0  0  0  0  0
   47.7010   32.0590   39.6360 C   0  0  0  0  0  0  0  0  0  0  0  0
   48.5050   31.4030   39.3630 H   0  0  0  0  0  0  0  0  0  0  0  0
   46.5230   31.9390   38.9240 C   0  0  0  0  0  3  0  0  0  0  0  0
   45.4670   32.7580   39.2420 C   0  0  0  0  0  3  0  0  0  0  0  0
  1  2  2  0  0  0  0
  1  6  1  0  0  0  0
  2  3  1  0  0  0  0
  3  8  1  0  0  0  0
  3  4  2  0  0  0  0
  5  4  1  0  0  0  0
  5  9  1  0  0  0  0
  6  5  2  0  0  0  0
  7  2  1  0  0  0  0
  9 12  1  6  0  0  0
  9 11  1  0  0  0  0
  9 10  1  0  0  0  0
 10 13  1  0  0  0  0
 10 14  1  0  0  0  0
 11 10  1  0  0  0  0
 11 16  1  0  0  0  0
 11 15  1  1  0  0  0
 16 18  1  0  0  0  0
 16 17  1  0  0  0  0
 19  1  1  0  0  0  0
 20 19  2  0  0  0  0
 22 21  1  0  0  0  0
 22 23  1  0  0  0  0
 23 19  1  0  0  0  0
 24 23  2  0  0  0  0
 24 25  1  0  0  0  0
 26 24  1  0  0  0  0
 27 26  1  0  0  0  0
 28 29  1  0  0  0  0
 28 26  2  0  0  0  0
 29 22  2  0  0  0  0
M  END
>  <minimizedAffinity>
-5.46233845

>  <minimizedRMSD>
0.891857922

$$$$
