
 OpenBabel03252507593D

 29 31  0  0  1  0  0  0  0  0999 V2000
   46.3950   34.5900   43.3000 C   0  0  0  0  0  0  0  0  0  0  0  0
   45.4040   35.5680   43.6130 C   0  0  0  0  0  0  0  0  0  0  0  0
   44.7470   35.4030   44.8310 C   0  0  0  0  0  0  0  0  0  0  0  0
   45.0750   34.3560   45.6220 N   0  0  0  0  0  0  0  0  0  0  0  0
   46.0440   33.4530   45.2480 C   0  0  0  0  0  0  0  0  0  0  0  0
   46.7080   33.5420   44.1140 N   0  0  0  0  0  0  0  0  0  0  0  0
   45.2100   36.3710   42.9170 H   0  0  0  0  0  0  0  0  0  0  0  0
   43.9890   36.1210   45.1090 H   0  0  0  0  0  0  0  0  0  0  0  0
   46.3620   32.3180   46.1700 C   0  0  1  0  0  0  0  0  0  0  0  0
   47.0640   32.6150   47.4720 C   0  0  0  0  0  0  0  0  0  0  0  0
   45.5900   32.3220   47.4320 C   0  0  1  0  0  0  0  0  0  0  0  0
   46.6310   31.3910   45.6620 H   0  0  0  0  0  0  0  0  0  0  0  0
   47.4480   33.6230   47.6600 H   0  0  0  0  0  0  0  0  0  0  0  0
   47.6760   31.7830   47.8600 H   0  0  0  0  0  0  0  0  0  0  0  0
   45.1950   31.3800   47.8230 H   0  0  0  0  0  0  0  0  0  0  0  0
   44.7920   33.4990   47.7820 N   0  0  0  0  0  0  0  0  0  0  0  0
   45.2680   34.0930   48.4910 H   0  0  0  0  0  0  0  0  0  0  0  0
   43.8160   33.2480   48.0460 H   0  0  0  0  0  0  0  0  0  0  0  0
   47.0670   34.7800   42.0290 C   0  0  0  0  0  0  0  0  0  0  0  0
   47.9160   35.6970   41.8100 O   0  0  0  0  0  0  0  0  0  0  0  0
   49.2060   32.8950   40.9400 Cl  0  0  0  0  0  0  0  0  0  0  0  0
   47.5940   32.9660   40.2930 C   0  0  0  0  0  0  0  0  0  0  0  0
   46.7680   33.8680   40.9040 C   0  0  0  0  0  0  0  0  0  0  0  0
   45.4520   33.9920   40.4480 C   0  0  0  0  0  0  0  0  0  0  0  0
   44.7210   34.6830   40.8720 H   0  0  0  0  0  0  0  0  0  0  0  0
   44.9610   33.2370   39.4060 C   0  0  0  0  0  0  0  0  0  0  0  0
   43.9590   33.3000   39.0260 H   0  0  0  0  0  0  0  0  0  0  0  0
   45.8060   32.3290   38.7970 C   0  0  0  0  0  3  0  0  0  0  0  0
   47.0970   32.2150   39.2520 C   0  0  0  0  0  3  0  0  0  0  0  0
  1  2  2  0  0  0  0
  1  6  1  0  0  0  0
  2  3  1  0  0  0  0
  3  8  1  0  0  0  0
  3  4  2  0  0  0  0
  5  4  1  0  0  0  0
  5  9  1  0  0  0  0
  6  5  2  0  0  0  0
  7  2  1  0  0  0  0
  9 12  1  6  0  0  0
  9 11  1  0  0  0  0
  9 10  1  0  0  0  0
 10 13  1  0  0  0  0
 10 14  1  0  0  0  0
 11 10  1  0  0  0  0
 11 16  1  0  0  0  0
 11 15  1  1  0  0  0
 16 18  1  0  0  0  0
 16 17  1  0  0  0  0
 19  1  1  0  0  0  0
 20 19  2  0  0  0  0
 22 23  1  0  0  0  0
 22 21  1  0  0  0  0
 23 19  1  0  0  0  0
 24 25  1  0  0  0  0
 24 23  2  0  0  0  0
 26 24  1  0  0  0  0
 27 26  1  0  0  0  0
 28 29  1  0  0  0  0
 28 26  2  0  0  0  0
 29 22  2  0  0  0  0
M  END
>  <minimizedAffinity>
-5.47053194

>  <minimizedRMSD>
0.931423664

$$$$
