
 OpenBabel03242519433D

 29 30  0  0  0  0  0  0  0  0999 V2000
   37.2360   29.1320   39.1260 O   0  0  0  0  0  0  0  0  0  0  0  0
   36.2220   29.1150   40.2940 P   0  0  2  0  0  0  0  0  0  0  0  0
   36.6490   30.3370   41.4180 O   0  0  0  0  0  0  0  0  0  0  0  0
   39.8370   32.0660   41.0570 C   0  0  0  0  0  0  0  0  0  0  0  0
   38.8790   31.0970   41.4410 C   0  0  0  0  0  0  0  0  0  0  0  0
   37.5580   31.2970   41.0250 C   0  0  0  0  0  0  0  0  0  0  0  0
   37.2750   32.3880   40.2890 N   0  0  0  0  0  0  0  0  0  0  0  0
   38.2140   33.2960   39.9380 C   0  0  0  0  0  0  0  0  0  0  0  0
   39.4860   33.1420   40.3160 N   0  0  0  0  0  0  0  0  0  0  0  0
   40.8670   31.9040   41.3860 H   0  0  0  0  0  0  0  0  0  0  0  0
   39.2030   30.2500   42.0340 H   0  0  0  0  0  0  0  0  0  0  0  0
   37.9490   34.1650   39.3440 H   0  0  0  0  0  0  0  0  0  0  0  0
   36.2740   27.6420   41.0520 O   0  0  0  0  0  0  0  0  0  0  0  0
   36.9710   27.2660   42.1650 C   0  0  0  0  0  0  0  0  0  0  0  0
   36.3830   27.4240   43.3710 O   0  0  0  0  0  0  0  0  0  0  0  0
   37.2390   24.3610   41.8720 Cl  0  0  0  0  0  0  0  0  0  0  0  0
   38.5180   25.3280   42.5860 C   0  0  0  0  0  0  0  0  0  0  0  0
   38.2440   26.6810   42.7120 C   0  0  0  0  0  0  0  0  0  0  0  0
   39.2140   27.4570   43.2660 C   0  0  0  0  0  0  0  0  0  0  0  0
   39.0620   28.5170   43.3940 H   0  0  0  0  0  0  0  0  0  0  0  0
   40.3980   26.8820   43.6650 C   0  0  0  0  0  0  0  0  0  0  0  0
   41.1640   27.5270   44.1060 H   0  0  0  0  0  0  0  0  0  0  0  0
   40.5890   25.5310   43.5010 C   0  0  0  0  0  3  0  0  0  0  0  0
   39.6650   24.6710   42.9540 C   0  0  0  0  0  3  0  0  0  0  0  0
   34.7410   29.4910   39.6440 O   0  0  0  0  0  0  0  0  0  0  0  0
   34.5190   28.8790   38.4220 C   0  0  0  0  0  0  0  0  0  0  0  0
   35.0600   29.5890   37.3630 F   0  0  0  0  0  0  0  0  0  0  0  0
   34.9350   27.5870   38.4550 F   0  0  0  0  0  0  0  0  0  0  0  0
   33.1340   28.8810   38.2380 F   0  0  0  0  0  0  0  0  0  0  0  0
  2  1  2  6  0  0  0
  2 13  1  0  0  0  0
  2  3  1  0  0  0  0
  4 10  1  0  0  0  0
  4  5  1  0  0  0  0
  5 11  1  0  0  0  0
  6  3  1  0  0  0  0
  6  5  2  0  0  0  0
  7  6  1  0  0  0  0
  8  7  2  0  0  0  0
  8  9  1  0  0  0  0
  9  4  2  0  0  0  0
 12  8  1  0  0  0  0
 13 14  1  0  0  0  0
 14 18  1  0  0  0  0
 14 15  2  0  0  0  0
 16 17  1  0  0  0  0
 17 18  2  0  0  0  0
 17 24  1  0  0  0  0
 18 19  1  0  0  0  0
 19 20  1  0  0  0  0
 19 21  2  0  0  0  0
 21 22  1  0  0  0  0
 23 21  1  0  0  0  0
 24 23  2  0  0  0  0
 25  2  1  0  0  0  0
 26 28  1  0  0  0  0
 26 25  1  0  0  0  0
 27 26  1  0  0  0  0
 29 26  1  0  0  0  0
M  END
>  <minimizedAffinity>
-5.40995121

$$$$

 OpenBabel03242519433D

 29 30  0  0  0  0  0  0  0  0999 V2000
   38.4580   27.7350   39.5050 O   0  0  0  0  0  0  0  0  0  0  0  0
   37.7400   29.0730   39.8030 P   0  0  2  0  0  0  0  0  0  0  0  0
   38.4500   30.3080   38.8500 O   0  0  0  0  0  0  0  0  0  0  0  0
   37.4650   33.7300   39.6270 C   0  0  0  0  0  0  0  0  0  0  0  0
   37.4260   32.4140   39.1050 C   0  0  0  0  0  0  0  0  0  0  0  0
   38.5170   31.5820   39.3760 C   0  0  0  0  0  0  0  0  0  0  0  0
   39.5320   32.0720   40.1110 N   0  0  0  0  0  0  0  0  0  0  0  0
   39.5400   33.3340   40.5960 C   0  0  0  0  0  0  0  0  0  0  0  0
   38.5170   34.1610   40.3590 N   0  0  0  0  0  0  0  0  0  0  0  0
   36.6090   34.3760   39.4110 H   0  0  0  0  0  0  0  0  0  0  0  0
   36.5640   32.1100   38.5250 H   0  0  0  0  0  0  0  0  0  0  0  0
   40.3770   33.6960   41.1860 H   0  0  0  0  0  0  0  0  0  0  0  0
   37.9220   29.4550   41.4060 O   0  0  0  0  0  0  0  0  0  0  0  0
   38.3220   28.6620   42.4430 C   0  0  0  0  0  0  0  0  0  0  0  0
   37.7940   28.8940   43.6650 O   0  0  0  0  0  0  0  0  0  0  0  0
   37.1210   26.0080   42.1120 Cl  0  0  0  0  0  0  0  0  0  0  0  0
   38.7530   26.2010   42.7290 C   0  0  0  0  0  0  0  0  0  0  0  0
   39.1810   27.5090   42.8850 C   0  0  0  0  0  0  0  0  0  0  0  0
   40.4400   27.6920   43.3650 C   0  0  0  0  0  0  0  0  0  0  0  0
   40.8330   28.6870   43.5110 H   0  0  0  0  0  0  0  0  0  0  0  0
   41.2180   26.5980   43.6660 C   0  0  0  0  0  0  0  0  0  0  0  0
   42.2280   26.7710   44.0500 H   0  0  0  0  0  0  0  0  0  0  0  0
   40.7150   25.3330   43.4800 C   0  0  0  0  0  3  0  0  0  0  0  0
   39.4560   25.0540   43.0020 C   0  0  0  0  0  3  0  0  0  0  0  0
   36.1600   28.8820   39.3260 O   0  0  0  0  0  0  0  0  0  0  0  0
   35.2540   29.2910   40.2890 C   0  0  0  0  0  0  0  0  0  0  0  0
   35.2350   28.4540   41.3940 F   0  0  0  0  0  0  0  0  0  0  0  0
   35.4650   30.5910   40.6200 F   0  0  0  0  0  0  0  0  0  0  0  0
   33.9930   29.1960   39.6960 F   0  0  0  0  0  0  0  0  0  0  0  0
  2  1  2  6  0  0  0
  2 13  1  0  0  0  0
  3  6  1  0  0  0  0
  3  2  1  0  0  0  0
  4  9  1  0  0  0  0
  5  6  1  0  0  0  0
  5  4  2  0  0  0  0
  6  7  2  0  0  0  0
  7  8  1  0  0  0  0
  8 12  1  0  0  0  0
  9  8  2  0  0  0  0
 10  4  1  0  0  0  0
 11  5  1  0  0  0  0
 13 14  1  0  0  0  0
 14 18  1  0  0  0  0
 14 15  2  0  0  0  0
 16 17  1  0  0  0  0
 17 18  2  0  0  0  0
 17 24  1  0  0  0  0
 18 19  1  0  0  0  0
 19 20  1  0  0  0  0
 19 21  2  0  0  0  0
 21 22  1  0  0  0  0
 23 21  1  0  0  0  0
 24 23  2  0  0  0  0
 25  2  1  0  0  0  0
 25 26  1  0  0  0  0
 26 28  1  0  0  0  0
 26 27  1  0  0  0  0
 29 26  1  0  0  0  0
M  END
>  <minimizedAffinity>
-5.39393902

$$$$

 OpenBabel03242519433D

 29 30  0  0  0  0  0  0  0  0999 V2000
   38.0490   28.7980   39.9170 O   0  0  0  0  0  0  0  0  0  0  0  0
   36.8360   29.5570   40.5060 P   0  0  2  0  0  0  0  0  0  0  0  0
   37.3900   31.0060   41.2350 O   0  0  0  0  0  0  0  0  0  0  0  0
   40.8580   32.1190   41.1260 C   0  0  0  0  0  0  0  0  0  0  0  0
   39.6570   31.5330   41.5940 C   0  0  0  0  0  0  0  0  0  0  0  0
   38.5450   31.5820   40.7480 C   0  0  0  0  0  0  0  0  0  0  0  0
   38.6760   32.1770   39.5480 N   0  0  0  0  0  0  0  0  0  0  0  0
   39.8370   32.7280   39.1300 C   0  0  0  0  0  0  0  0  0  0  0  0
   40.9230   32.7020   39.9070 N   0  0  0  0  0  0  0  0  0  0  0  0
   41.7240   32.0780   41.7920 H   0  0  0  0  0  0  0  0  0  0  0  0
   39.6500   31.0760   42.5760 H   0  0  0  0  0  0  0  0  0  0  0  0
   39.9070   33.2000   38.1540 H   0  0  0  0  0  0  0  0  0  0  0  0
   36.0990   28.6190   41.6570 O   0  0  0  0  0  0  0  0  0  0  0  0
   36.6090   27.5810   42.3820 C   0  0  0  0  0  0  0  0  0  0  0  0
   36.1380   27.3820   43.6320 O   0  0  0  0  0  0  0  0  0  0  0  0
   39.3490   28.2380   43.1940 Cl  0  0  0  0  0  0  0  0  0  0  0  0
   38.8750   26.5870   42.8330 C   0  0  0  0  0  0  0  0  0  0  0  0
   37.5650   26.4200   42.4130 C   0  0  0  0  0  0  0  0  0  0  0  0
   37.1690   25.1520   42.1220 C   0  0  0  0  0  0  0  0  0  0  0  0
   36.1620   24.9550   41.7870 H   0  0  0  0  0  0  0  0  0  0  0  0
   38.0610   24.1140   42.2570 C   0  0  0  0  0  0  0  0  0  0  0  0
   37.7180   23.1030   42.0180 H   0  0  0  0  0  0  0  0  0  0  0  0
   39.3430   24.3680   42.6820 C   0  0  0  0  0  3  0  0  0  0  0  0
   39.8300   25.6150   42.9960 C   0  0  0  0  0  3  0  0  0  0  0  0
   35.8560   29.9530   39.2250 O   0  0  0  0  0  0  0  0  0  0  0  0
   34.8660   29.0130   38.9940 C   0  0  0  0  0  0  0  0  0  0  0  0
   35.3560   27.7170   38.9690 F   0  0  0  0  0  0  0  0  0  0  0  0
   33.8440   29.1720   39.8740 F   0  0  0  0  0  0  0  0  0  0  0  0
   34.3750   29.2790   37.7130 F   0  0  0  0  0  0  0  0  0  0  0  0
  2  1  2  6  0  0  0
  2  3  1  0  0  0  0
  2 13  1  0  0  0  0
  4  5  1  0  0  0  0
  4 10  1  0  0  0  0
  5 11  1  0  0  0  0
  6  3  1  0  0  0  0
  6  5  2  0  0  0  0
  7  6  1  0  0  0  0
  8  7  2  0  0  0  0
  8  9  1  0  0  0  0
  9  4  2  0  0  0  0
 12  8  1  0  0  0  0
 13 14  1  0  0  0  0
 14 18  1  0  0  0  0
 14 15  2  0  0  0  0
 17 24  1  0  0  0  0
 17 16  1  0  0  0  0
 18 17  2  0  0  0  0
 19 21  2  0  0  0  0
 19 18  1  0  0  0  0
 20 19  1  0  0  0  0
 21 23  1  0  0  0  0
 22 21  1  0  0  0  0
 23 24  2  0  0  0  0
 25  2  1  0  0  0  0
 26 25  1  0  0  0  0
 26 28  1  0  0  0  0
 27 26  1  0  0  0  0
 29 26  1  0  0  0  0
M  END
>  <minimizedAffinity>
-5.31294489

$$$$

 OpenBabel03242519433D

 29 30  0  0  0  0  0  0  0  0999 V2000
   36.0940   29.0780   36.9880 O   0  0  0  0  0  0  0  0  0  0  0  0
   36.8560   29.8060   38.1210 P   0  0  2  0  0  0  0  0  0  0  0  0
   37.3570   31.3430   37.5540 O   0  0  0  0  0  0  0  0  0  0  0  0
   38.1880   33.8510   40.0640 C   0  0  0  0  0  0  0  0  0  0  0  0
   37.4270   33.0270   39.1990 C   0  0  0  0  0  0  0  0  0  0  0  0
   38.1270   32.1280   38.3870 C   0  0  0  0  0  0  0  0  0  0  0  0
   39.4690   32.0950   38.4730 N   0  0  0  0  0  0  0  0  0  0  0  0
   40.1670   32.8950   39.3100 C   0  0  0  0  0  0  0  0  0  0  0  0
   39.5380   33.7680   40.1020 N   0  0  0  0  0  0  0  0  0  0  0  0
   37.6360   34.5520   40.6960 H   0  0  0  0  0  0  0  0  0  0  0  0
   36.3490   33.1260   39.2020 H   0  0  0  0  0  0  0  0  0  0  0  0
   41.2510   32.8410   39.3530 H   0  0  0  0  0  0  0  0  0  0  0  0
   38.1930   28.9240   38.5470 O   0  0  0  0  0  0  0  0  0  0  0  0
   38.5200   28.3760   39.7540 C   0  0  0  0  0  0  0  0  0  0  0  0
   39.7760   27.9100   39.9260 O   0  0  0  0  0  0  0  0  0  0  0  0
   38.6710   30.5530   41.7130 Cl  0  0  0  0  0  0  0  0  0  0  0  0
   38.0240   28.9800   42.1450 C   0  0  0  0  0  0  0  0  0  0  0  0
   38.0560   28.0260   41.1410 C   0  0  0  0  0  0  0  0  0  0  0  0
   37.5640   26.7950   41.4470 C   0  0  0  0  0  0  0  0  0  0  0  0
   37.5620   26.0060   40.7100 H   0  0  0  0  0  0  0  0  0  0  0  0
   37.0650   26.5560   42.7070 C   0  0  0  0  0  0  0  0  0  0  0  0
   36.6740   25.5580   42.9280 H   0  0  0  0  0  0  0  0  0  0  0  0
   37.0700   27.5610   43.6430 C   0  0  0  0  0  3  0  0  0  0  0  0
   37.5470   28.8320   43.4240 C   0  0  0  0  0  3  0  0  0  0  0  0
   35.7690   30.0290   39.3580 O   0  0  0  0  0  0  0  0  0  0  0  0
   34.9840   28.9130   39.5920 C   0  0  0  0  0  0  0  0  0  0  0  0
   35.4710   27.7760   38.9670 F   0  0  0  0  0  0  0  0  0  0  0  0
   34.7920   28.7380   40.9250 F   0  0  0  0  0  0  0  0  0  0  0  0
   33.7430   29.1870   39.0110 F   0  0  0  0  0  0  0  0  0  0  0  0
  2  1  2  6  0  0  0
  2 13  1  0  0  0  0
  2 25  1  0  0  0  0
  3  2  1  0  0  0  0
  3  6  1  0  0  0  0
  4  9  1  0  0  0  0
  4 10  1  0  0  0  0
  5 11  1  0  0  0  0
  5  4  2  0  0  0  0
  6  7  2  0  0  0  0
  6  5  1  0  0  0  0
  7  8  1  0  0  0  0
  8 12  1  0  0  0  0
  8  9  2  0  0  0  0
 13 14  1  0  0  0  0
 14 15  2  0  0  0  0
 14 18  1  0  0  0  0
 16 17  1  0  0  0  0
 17 24  1  0  0  0  0
 18 19  1  0  0  0  0
 18 17  2  0  0  0  0
 19 21  2  0  0  0  0
 20 19  1  0  0  0  0
 21 22  1  0  0  0  0
 21 23  1  0  0  0  0
 24 23  2  0  0  0  0
 25 26  1  0  0  0  0
 26 28  1  0  0  0  0
 27 26  1  0  0  0  0
 29 26  1  0  0  0  0
M  END
>  <minimizedAffinity>
-5.14902592

$$$$

 OpenBabel03242519433D

 29 30  0  0  0  0  0  0  0  0999 V2000
   38.1910   26.8280   40.4030 O   0  0  0  0  0  0  0  0  0  0  0  0
   37.5140   26.9030   41.7920 P   0  0  2  0  0  0  0  0  0  0  0  0
   36.9780   25.3350   42.2330 O   0  0  0  0  0  0  0  0  0  0  0  0
   36.2450   22.9940   39.5390 C   0  0  0  0  0  0  0  0  0  0  0  0
   36.0910   24.0480   40.4720 C   0  0  0  0  0  0  0  0  0  0  0  0
   37.1610   24.3050   41.3340 C   0  0  0  0  0  0  0  0  0  0  0  0
   38.2680   23.5460   41.2300 N   0  0  0  0  0  0  0  0  0  0  0  0
   38.3840   22.5460   40.3270 C   0  0  0  0  0  0  0  0  0  0  0  0
   37.3850   22.2680   39.4860 N   0  0  0  0  0  0  0  0  0  0  0  0
   35.4040   22.7970   38.8680 H   0  0  0  0  0  0  0  0  0  0  0  0
   35.1620   24.6040   40.4790 H   0  0  0  0  0  0  0  0  0  0  0  0
   39.2930   21.9540   40.2710 H   0  0  0  0  0  0  0  0  0  0  0  0
   36.2070   27.9200   41.7180 O   0  0  0  0  0  0  0  0  0  0  0  0
   35.9560   28.9440   40.8510 C   0  0  0  0  0  0  0  0  0  0  0  0
   34.6850   29.1340   40.4360 O   0  0  0  0  0  0  0  0  0  0  0  0
   36.5670   28.3590   38.0430 Cl  0  0  0  0  0  0  0  0  0  0  0  0
   36.8060   29.9630   38.7140 C   0  0  0  0  0  0  0  0  0  0  0  0
   36.5270   30.0930   40.0650 C   0  0  0  0  0  0  0  0  0  0  0  0
   36.7060   31.3240   40.6150 C   0  0  0  0  0  0  0  0  0  0  0  0
   36.5080   31.4900   41.6630 H   0  0  0  0  0  0  0  0  0  0  0  0
   37.1430   32.3630   39.8260 C   0  0  0  0  0  0  0  0  0  0  0  0
   37.2780   33.3440   40.2920 H   0  0  0  0  0  0  0  0  0  0  0  0
   37.3940   32.1480   38.4930 C   0  0  0  0  0  3  0  0  0  0  0  0
   37.2430   30.9390   37.8540 C   0  0  0  0  0  3  0  0  0  0  0  0
   38.6860   27.3810   42.8680 O   0  0  0  0  0  0  0  0  0  0  0  0
   39.0750   28.6970   42.6890 C   0  0  0  0  0  0  0  0  0  0  0  0
   39.2170   29.0360   41.3530 F   0  0  0  0  0  0  0  0  0  0  0  0
   38.2410   29.5360   43.3570 F   0  0  0  0  0  0  0  0  0  0  0  0
   40.3440   28.8050   43.2640 F   0  0  0  0  0  0  0  0  0  0  0  0
  2  1  2  6  0  0  0
  2  3  1  0  0  0  0
  2 25  1  0  0  0  0
  4  5  1  0  0  0  0
  5 11  1  0  0  0  0
  5  6  2  0  0  0  0
  6  3  1  0  0  0  0
  7  6  1  0  0  0  0
  8  7  2  0  0  0  0
  9  4  2  0  0  0  0
  9  8  1  0  0  0  0
 10  4  1  0  0  0  0
 12  8  1  0  0  0  0
 13  2  1  0  0  0  0
 14 13  1  0  0  0  0
 15 14  2  0  0  0  0
 16 17  1  0  0  0  0
 17 18  1  0  0  0  0
 18 19  2  0  0  0  0
 18 14  1  0  0  0  0
 19 20  1  0  0  0  0
 21 22  1  0  0  0  0
 21 19  1  0  0  0  0
 23 21  2  0  0  0  0
 24 23  1  0  0  0  0
 24 17  2  0  0  0  0
 26 25  1  0  0  0  0
 26 29  1  0  0  0  0
 26 28  1  0  0  0  0
 27 26  1  0  0  0  0
M  END
>  <minimizedAffinity>
-5.11835337

$$$$

 OpenBabel03242519433D

 29 30  0  0  0  0  0  0  0  0999 V2000
   39.9270   30.0730   40.3060 O   0  0  0  0  0  0  0  0  0  0  0  0
   39.4030   31.1240   41.3130 P   0  0  2  0  0  0  0  0  0  0  0  0
   39.2580   30.3900   42.8560 O   0  0  0  0  0  0  0  0  0  0  0  0
   37.0270   27.5100   42.9430 C   0  0  0  0  0  0  0  0  0  0  0  0
   37.4740   28.8520   42.8790 C   0  0  0  0  0  0  0  0  0  0  0  0
   38.8550   29.0730   42.9170 C   0  0  0  0  0  0  0  0  0  0  0  0
   39.6740   28.0080   43.0100 N   0  0  0  0  0  0  0  0  0  0  0  0
   39.2150   26.7380   43.0700 C   0  0  0  0  0  0  0  0  0  0  0  0
   37.9040   26.4840   43.0370 N   0  0  0  0  0  0  0  0  0  0  0  0
   35.9470   27.3440   42.9130 H   0  0  0  0  0  0  0  0  0  0  0  0
   36.7380   29.6420   42.8040 H   0  0  0  0  0  0  0  0  0  0  0  0
   39.9060   25.9030   43.1450 H   0  0  0  0  0  0  0  0  0  0  0  0
   37.9130   31.6640   40.8280 O   0  0  0  0  0  0  0  0  0  0  0  0
   37.3210   31.5830   39.6000 C   0  0  0  0  0  0  0  0  0  0  0  0
   36.9360   32.7290   38.9990 O   0  0  0  0  0  0  0  0  0  0  0  0
   35.1980   29.6910   40.3150 Cl  0  0  0  0  0  0  0  0  0  0  0  0
   35.8230   29.7850   38.6780 C   0  0  0  0  0  0  0  0  0  0  0  0
   36.8590   30.6850   38.4850 C   0  0  0  0  0  0  0  0  0  0  0  0
   37.3680   30.7790   37.2270 C   0  0  0  0  0  0  0  0  0  0  0  0
   38.1780   31.4590   37.0120 H   0  0  0  0  0  0  0  0  0  0  0  0
   36.8440   29.9980   36.2230 C   0  0  0  0  0  0  0  0  0  0  0  0
   37.2690   30.0930   35.2190 H   0  0  0  0  0  0  0  0  0  0  0  0
   35.8140   29.1320   36.5000 C   0  0  0  0  0  3  0  0  0  0  0  0
   35.2400   28.9700   37.7400 C   0  0  0  0  0  3  0  0  0  0  0  0
   40.5590   32.3140   41.4030 O   0  0  0  0  0  0  0  0  0  0  0  0
   40.3560   33.3310   40.4870 C   0  0  0  0  0  0  0  0  0  0  0  0
   40.2310   32.8640   39.1880 F   0  0  0  0  0  0  0  0  0  0  0  0
   39.3110   34.1120   40.8660 F   0  0  0  0  0  0  0  0  0  0  0  0
   41.5130   34.1150   40.5190 F   0  0  0  0  0  0  0  0  0  0  0  0
  2  1  2  6  0  0  0
  2 25  1  0  0  0  0
  2  3  1  0  0  0  0
  3  6  1  0  0  0  0
  4  9  1  0  0  0  0
  5  6  1  0  0  0  0
  5  4  2  0  0  0  0
  6  7  2  0  0  0  0
  7  8  1  0  0  0  0
  8 12  1  0  0  0  0
  9  8  2  0  0  0  0
 10  4  1  0  0  0  0
 11  5  1  0  0  0  0
 13  2  1  0  0  0  0
 14 13  1  0  0  0  0
 15 14  2  0  0  0  0
 17 16  1  0  0  0  0
 18 17  1  0  0  0  0
 18 14  1  0  0  0  0
 19 18  2  0  0  0  0
 20 19  1  0  0  0  0
 21 23  2  0  0  0  0
 21 19  1  0  0  0  0
 22 21  1  0  0  0  0
 23 24  1  0  0  0  0
 24 17  2  0  0  0  0
 26 29  1  0  0  0  0
 26 28  1  0  0  0  0
 26 25  1  0  0  0  0
 27 26  1  0  0  0  0
M  END
>  <minimizedAffinity>
-5.01643705

$$$$

 OpenBabel03242519433D

 29 30  0  0  0  0  0  0  0  0999 V2000
   38.2460   29.9790   39.0990 O   0  0  0  0  0  0  0  0  0  0  0  0
   37.2850   30.4840   40.2020 P   0  0  2  0  0  0  0  0  0  0  0  0
   37.6270   32.1330   40.5230 O   0  0  0  0  0  0  0  0  0  0  0  0
   40.5900   34.1610   39.9010 C   0  0  0  0  0  0  0  0  0  0  0  0
   39.2430   33.7250   39.8890 C   0  0  0  0  0  0  0  0  0  0  0  0
   38.9470   32.5310   40.5560 C   0  0  0  0  0  0  0  0  0  0  0  0
   39.9480   31.8710   41.1670 N   0  0  0  0  0  0  0  0  0  0  0  0
   41.2260   32.3140   41.1600 C   0  0  0  0  0  0  0  0  0  0  0  0
   41.5500   33.4490   40.5340 N   0  0  0  0  0  0  0  0  0  0  0  0
   40.8150   35.0940   39.3780 H   0  0  0  0  0  0  0  0  0  0  0  0
   38.5060   34.3260   39.3710 H   0  0  0  0  0  0  0  0  0  0  0  0
   42.0080   31.7540   41.6640 H   0  0  0  0  0  0  0  0  0  0  0  0
   37.5180   29.6030   41.5860 O   0  0  0  0  0  0  0  0  0  0  0  0
   38.1770   28.4200   41.7580 C   0  0  0  0  0  0  0  0  0  0  0  0
   39.4260   28.4520   42.2720 O   0  0  0  0  0  0  0  0  0  0  0  0
   36.2910   27.0630   43.5480 Cl  0  0  0  0  0  0  0  0  0  0  0  0
   37.2370   26.1690   42.3710 C   0  0  0  0  0  0  0  0  0  0  0  0
   38.1260   26.9230   41.6230 C   0  0  0  0  0  0  0  0  0  0  0  0
   38.8770   26.2580   40.7040 C   0  0  0  0  0  0  0  0  0  0  0  0
   39.5900   26.7870   40.0900 H   0  0  0  0  0  0  0  0  0  0  0  0
   38.7230   24.8980   40.5570 C   0  0  0  0  0  0  0  0  0  0  0  0
   39.3370   24.3860   39.8100 H   0  0  0  0  0  0  0  0  0  0  0  0
   37.8150   24.2270   41.3400 C   0  0  0  0  0  3  0  0  0  0  0  0
   37.0170   24.8160   42.2930 C   0  0  0  0  0  3  0  0  0  0  0  0
   35.7490   30.3760   39.5790 O   0  0  0  0  0  0  0  0  0  0  0  0
   35.1930   29.1180   39.7340 C   0  0  0  0  0  0  0  0  0  0  0  0
   33.9280   29.0210   39.1770 F   0  0  0  0  0  0  0  0  0  0  0  0
   36.0420   28.1620   39.2760 F   0  0  0  0  0  0  0  0  0  0  0  0
   35.0380   28.9320   41.1100 F   0  0  0  0  0  0  0  0  0  0  0  0
  2  1  2  6  0  0  0
  2  3  1  0  0  0  0
  2 13  1  0  0  0  0
  3  6  1  0  0  0  0
  4  9  1  0  0  0  0
  5  4  2  0  0  0  0
  5  6  1  0  0  0  0
  6  7  2  0  0  0  0
  8  7  1  0  0  0  0
  8 12  1  0  0  0  0
  9  8  2  0  0  0  0
 10  4  1  0  0  0  0
 11  5  1  0  0  0  0
 13 14  1  0  0  0  0
 14 15  2  0  0  0  0
 17 16  1  0  0  0  0
 18 14  1  0  0  0  0
 18 17  2  0  0  0  0
 19 18  1  0  0  0  0
 20 19  1  0  0  0  0
 21 19  2  0  0  0  0
 21 23  1  0  0  0  0
 22 21  1  0  0  0  0
 23 24  2  0  0  0  0
 24 17  1  0  0  0  0
 25 26  1  0  0  0  0
 25  2  1  0  0  0  0
 26 29  1  0  0  0  0
 27 26  1  0  0  0  0
 28 26  1  0  0  0  0
M  END
>  <minimizedAffinity>
-4.97215319

$$$$

 OpenBabel03242519433D

 29 30  0  0  0  0  0  0  0  0999 V2000
   38.5180   29.7320   38.6690 O   0  0  0  0  0  0  0  0  0  0  0  0
   38.6380   30.4490   40.0350 P   0  0  2  0  0  0  0  0  0  0  0  0
   40.1750   30.1020   40.7110 O   0  0  0  0  0  0  0  0  0  0  0  0
   40.6150   26.5290   41.2770 C   0  0  0  0  0  0  0  0  0  0  0  0
   40.4540   27.7650   40.6060 C   0  0  0  0  0  0  0  0  0  0  0  0
   40.3340   28.9140   41.3950 C   0  0  0  0  0  0  0  0  0  0  0  0
   40.3790   28.7830   42.7330 N   0  0  0  0  0  0  0  0  0  0  0  0
   40.5330   27.5870   43.3440 C   0  0  0  0  0  0  0  0  0  0  0  0
   40.6520   26.4650   42.6280 N   0  0  0  0  0  0  0  0  0  0  0  0
   40.7080   25.6340   40.6550 H   0  0  0  0  0  0  0  0  0  0  0  0
   40.4310   27.7710   39.5230 H   0  0  0  0  0  0  0  0  0  0  0  0
   40.5650   27.5180   44.4280 H   0  0  0  0  0  0  0  0  0  0  0  0
   37.4590   29.8950   41.0590 O   0  0  0  0  0  0  0  0  0  0  0  0
   36.7830   28.7080   41.0370 C   0  0  0  0  0  0  0  0  0  0  0  0
   35.4330   28.7430   40.9930 O   0  0  0  0  0  0  0  0  0  0  0  0
   37.0740   27.4660   43.6770 Cl  0  0  0  0  0  0  0  0  0  0  0  0
   36.9630   26.4950   42.2180 C   0  0  0  0  0  0  0  0  0  0  0  0
   36.8790   27.2080   41.0330 C   0  0  0  0  0  0  0  0  0  0  0  0
   36.7950   26.4840   39.8840 C   0  0  0  0  0  0  0  0  0  0  0  0
   36.7300   26.9780   38.9270 H   0  0  0  0  0  0  0  0  0  0  0  0
   36.7940   25.1090   39.9460 C   0  0  0  0  0  0  0  0  0  0  0  0
   36.7250   24.5490   39.0090 H   0  0  0  0  0  0  0  0  0  0  0  0
   36.8790   24.4820   41.1660 C   0  0  0  0  0  3  0  0  0  0  0  0
   36.9690   25.1320   42.3750 C   0  0  0  0  0  3  0  0  0  0  0  0
   38.5560   32.0790   39.7250 O   0  0  0  0  0  0  0  0  0  0  0  0
   37.3340   32.4660   39.2020 C   0  0  0  0  0  0  0  0  0  0  0  0
   36.3080   31.6000   39.5450 F   0  0  0  0  0  0  0  0  0  0  0  0
   37.0630   33.7560   39.5300 F   0  0  0  0  0  0  0  0  0  0  0  0
   37.4690   32.3950   37.8130 F   0  0  0  0  0  0  0  0  0  0  0  0
  2  1  2  6  0  0  0
  2  3  1  0  0  0  0
  2 13  1  0  0  0  0
  3  6  1  0  0  0  0
  4  9  1  0  0  0  0
  5  4  2  0  0  0  0
  5  6  1  0  0  0  0
  6  7  2  0  0  0  0
  7  8  1  0  0  0  0
  8 12  1  0  0  0  0
  9  8  2  0  0  0  0
 10  4  1  0  0  0  0
 11  5  1  0  0  0  0
 14 13  1  0  0  0  0
 15 14  2  0  0  0  0
 17 24  1  0  0  0  0
 17 16  1  0  0  0  0
 18 14  1  0  0  0  0
 18 17  2  0  0  0  0
 19 21  2  0  0  0  0
 19 18  1  0  0  0  0
 20 19  1  0  0  0  0
 21 23  1  0  0  0  0
 22 21  1  0  0  0  0
 23 24  2  0  0  0  0
 25  2  1  0  0  0  0
 26 28  1  0  0  0  0
 26 27  1  0  0  0  0
 26 25  1  0  0  0  0
 29 26  1  0  0  0  0
M  END
>  <minimizedAffinity>
-4.96392441

$$$$

 OpenBabel03242519433D

 29 30  0  0  0  0  0  0  0  0999 V2000
   38.4190   29.1060   38.3790 O   0  0  0  0  0  0  0  0  0  0  0  0
   37.1490   29.8880   37.9680 P   0  0  2  0  0  0  0  0  0  0  0  0
   37.6060   31.4570   37.4500 O   0  0  0  0  0  0  0  0  0  0  0  0
   38.3040   33.8710   40.0890 C   0  0  0  0  0  0  0  0  0  0  0  0
   37.5880   33.0470   39.1880 C   0  0  0  0  0  0  0  0  0  0  0  0
   38.3330   32.2450   38.3180 C   0  0  0  0  0  0  0  0  0  0  0  0
   39.6770   32.2990   38.3860 N   0  0  0  0  0  0  0  0  0  0  0  0
   40.3320   33.0970   39.2580 C   0  0  0  0  0  0  0  0  0  0  0  0
   39.6570   33.8790   40.1060 N   0  0  0  0  0  0  0  0  0  0  0  0
   37.7160   34.4960   40.7660 H   0  0  0  0  0  0  0  0  0  0  0  0
   36.5050   33.0710   39.2090 H   0  0  0  0  0  0  0  0  0  0  0  0
   41.4170   33.1150   39.2850 H   0  0  0  0  0  0  0  0  0  0  0  0
   36.1340   30.0220   39.2710 O   0  0  0  0  0  0  0  0  0  0  0  0
   36.4010   29.8410   40.5980 C   0  0  0  0  0  0  0  0  0  0  0  0
   36.0150   30.8010   41.4660 O   0  0  0  0  0  0  0  0  0  0  0  0
   39.1270   30.5260   41.4330 Cl  0  0  0  0  0  0  0  0  0  0  0  0
   38.2560   29.1920   42.1690 C   0  0  0  0  0  0  0  0  0  0  0  0
   36.9960   28.9430   41.6480 C   0  0  0  0  0  0  0  0  0  0  0  0
   36.2960   27.9130   42.1950 C   0  0  0  0  0  0  0  0  0  0  0  0
   35.3100   27.6660   41.8330 H   0  0  0  0  0  0  0  0  0  0  0  0
   36.8530   27.1820   43.2190 C   0  0  0  0  0  0  0  0  0  0  0  0
   36.2700   26.3590   43.6440 H   0  0  0  0  0  0  0  0  0  0  0  0
   38.1090   27.4980   43.6770 C   0  0  0  0  0  3  0  0  0  0  0  0
   38.8880   28.5190   43.1840 C   0  0  0  0  0  3  0  0  0  0  0  0
   36.4900   29.0770   36.6760 O   0  0  0  0  0  0  0  0  0  0  0  0
   35.3840   28.3210   37.0230 C   0  0  0  0  0  0  0  0  0  0  0  0
   35.6300   27.4750   38.0930 F   0  0  0  0  0  0  0  0  0  0  0  0
   34.3050   29.1200   37.2230 F   0  0  0  0  0  0  0  0  0  0  0  0
   35.1170   27.5040   35.9210 F   0  0  0  0  0  0  0  0  0  0  0  0
  2  1  2  1  0  0  0
  2 13  1  0  0  0  0
  3  2  1  0  0  0  0
  3  6  1  0  0  0  0
  4  9  1  0  0  0  0
  4 10  1  0  0  0  0
  5 11  1  0  0  0  0
  5  4  2  0  0  0  0
  6  7  2  0  0  0  0
  6  5  1  0  0  0  0
  7  8  1  0  0  0  0
  8 12  1  0  0  0  0
  8  9  2  0  0  0  0
 13 14  1  0  0  0  0
 14 15  2  0  0  0  0
 14 18  1  0  0  0  0
 16 17  1  0  0  0  0
 17 24  1  0  0  0  0
 18 17  2  0  0  0  0
 18 19  1  0  0  0  0
 19 21  2  0  0  0  0
 20 19  1  0  0  0  0
 21 22  1  0  0  0  0
 21 23  1  0  0  0  0
 24 23  2  0  0  0  0
 25 26  1  0  0  0  0
 25  2  1  0  0  0  0
 26 28  1  0  0  0  0
 26 27  1  0  0  0  0
 29 26  1  0  0  0  0
M  END
>  <minimizedAffinity>
-4.83943987

$$$$
