
 OpenBabel03242521173D

 38 40  0  0  0  0  0  0  0  0999 V2000
   44.5770   35.5180   44.9590 C   0  0  0  0  0  0  0  0  0  0  0  0
   45.1720   35.5360   43.6790 C   0  0  0  0  0  0  0  0  0  0  0  0
   46.1530   34.6000   43.4180 C   0  0  0  0  0  0  0  0  0  0  0  0
   46.4910   33.7040   44.4160 N   0  0  0  0  0  0  0  0  0  0  0  0
   45.8980   33.7260   45.6090 C   0  0  0  0  0  0  0  0  0  0  0  0
   44.9350   34.6270   45.9040 N   0  0  0  0  0  0  0  0  0  0  0  0
   43.8120   36.2350   45.1870 H   0  0  0  0  0  0  0  0  0  0  0  0
   44.8650   36.2680   42.9300 H   0  0  0  0  0  0  0  0  0  0  0  0
   46.7680   34.5990   42.1350 N   0  0  0  0  0  0  0  0  0  0  0  0
   47.9610   35.2150   41.9960 C   0  0  0  0  0  0  0  0  0  0  0  0
   48.5570   35.2090   40.7370 C   0  0  0  0  0  0  0  0  0  0  0  0
   47.9210   34.5920   39.7090 C   0  0  0  0  0  0  0  0  0  0  0  0
   48.4780   34.5980   38.5740 O   0  0  0  0  0  0  0  0  0  0  0  0
   46.7370   33.9790   39.8410 N   0  0  0  0  0  0  0  0  0  0  0  0
   46.1840   34.0010   41.0740 C   0  0  0  0  0  0  0  0  0  0  0  0
   45.0810   33.4570   41.2970 O   0  0  0  0  0  0  0  0  0  0  0  0
   48.4580   35.7040   42.8260 H   0  0  0  0  0  0  0  0  0  0  0  0
   49.5110   35.6870   40.5670 H   0  0  0  0  0  0  0  0  0  0  0  0
   46.2290   33.4950   39.0560 H   0  0  0  0  0  0  0  0  0  0  0  0
   46.4550   32.6540   46.4890 C   0  0  0  0  0  0  0  0  0  0  0  0
   46.7710   31.7570   45.9370 H   0  0  0  0  0  0  0  0  0  0  0  0
   47.3830   33.0940   46.9280 H   0  0  0  0  0  0  0  0  0  0  0  0
   45.5040   32.3580   47.6390 C   0  0  0  0  0  0  0  0  0  0  0  0
   46.0110   32.3930   48.6240 H   0  0  0  0  0  0  0  0  0  0  0  0
   44.7230   33.1470   47.6770 H   0  0  0  0  0  0  0  0  0  0  0  0
   45.5050   29.8960   47.6230 C   0  0  0  0  0  0  0  0  0  0  0  0
   46.6550   30.0090   48.1220 O   0  0  0  0  0  0  0  0  0  0  0  0
   44.8380   31.1060   47.3600 N   0  0  0  0  0  0  0  0  0  0  0  0
   43.8820   31.1320   46.9720 H   0  0  0  0  0  0  0  0  0  0  0  0
   44.6090   29.3420   44.7660 Cl  0  0  0  0  0  0  0  0  0  0  0  0
   44.4340   28.2030   46.0930 C   0  0  0  0  0  0  0  0  0  0  0  0
   44.8880   28.6000   47.3310 C   0  0  0  0  0  0  0  0  0  0  0  0
   44.7720   27.7320   48.4110 C   0  0  0  0  0  0  0  0  0  0  0  0
   45.1160   28.0050   49.3970 H   0  0  0  0  0  0  0  0  0  0  0  0
   44.2070   26.4790   48.2660 C   0  0  0  0  0  0  0  0  0  0  0  0
   44.1270   25.8120   49.1370 H   0  0  0  0  0  0  0  0  0  0  0  0
   43.7530   26.0960   47.0090 C   0  0  0  0  0  0  0  0  0  0  0  0
   43.8610   26.9500   45.9140 C   0  0  0  0  0  0  0  0  0  0  0  0
  1  7  1  0  0  0  0
  1  6  1  0  0  0  0
  2  1  2  0  0  0  0
  3  2  1  0  0  0  0
  3  4  2  0  0  0  0
  4  5  1  0  0  0  0
  5  6  2  0  0  0  0
  5 20  1  0  0  0  0
  8  2  1  0  0  0  0
  9  3  1  0  0  0  0
 10  9  1  0  0  0  0
 10 17  1  0  0  0  0
 11 10  2  0  0  0  0
 12 14  1  0  0  0  0
 12 11  1  0  0  0  0
 13 12  2  0  0  0  0
 14 15  1  0  0  0  0
 15 16  2  0  0  0  0
 15  9  1  0  0  0  0
 18 11  1  0  0  0  0
 19 14  1  0  0  0  0
 20 22  1  0  0  0  0
 20 23  1  0  0  0  0
 21 20  1  0  0  0  0
 23 25  1  0  0  0  0
 23 24  1  0  0  0  0
 26 27  2  0  0  0  0
 28 26  1  0  0  0  0
 28 23  1  0  0  0  0
 29 28  1  0  0  0  0
 30 31  1  0  0  0  0
 31 32  1  0  0  0  0
 32 26  1  0  0  0  0
 32 33  2  0  0  0  0
 33 34  1  0  0  0  0
 35 33  1  0  0  0  0
 35 36  1  0  0  0  0
 37 35  2  0  0  0  0
 38 31  2  0  0  0  0
 38 37  1  0  0  0  0
M  END
>  <minimizedAffinity>
-6.55333376

>  <minimizedRMSD>
1.32794476

$$$$
