
 OpenBabel03252507593D

 29 31  0  0  1  0  0  0  0  0999 V2000
   46.2060   34.5690   43.4630 C   0  0  0  0  0  0  0  0  0  0  0  0
   45.2550   35.5580   43.8560 C   0  0  0  0  0  0  0  0  0  0  0  0
   44.6850   35.3890   45.1170 C   0  0  0  0  0  0  0  0  0  0  0  0
   45.0550   34.3300   45.8730 N   0  0  0  0  0  0  0  0  0  0  0  0
   45.9810   33.4170   45.4210 C   0  0  0  0  0  0  0  0  0  0  0  0
   46.5620   33.5100   44.2420 N   0  0  0  0  0  0  0  0  0  0  0  0
   45.0220   36.3700   43.1830 H   0  0  0  0  0  0  0  0  0  0  0  0
   43.9600   36.1150   45.4560 H   0  0  0  0  0  0  0  0  0  0  0  0
   46.3490   32.2690   46.3060 C   0  0  1  0  0  0  0  0  0  0  0  0
   47.0430   32.5550   47.6150 C   0  0  0  0  0  0  0  0  0  0  0  0
   45.5820   32.2030   47.5700 C   0  0  1  0  0  0  0  0  0  0  0  0
   46.6530   31.3700   45.7700 H   0  0  0  0  0  0  0  0  0  0  0  0
   47.3860   33.5720   47.8340 H   0  0  0  0  0  0  0  0  0  0  0  0
   47.6900   31.7370   47.9760 H   0  0  0  0  0  0  0  0  0  0  0  0
   45.2270   31.2330   47.9330 H   0  0  0  0  0  0  0  0  0  0  0  0
   44.7370   33.3350   47.9580 N   0  0  0  0  0  0  0  0  0  0  0  0
   45.1920   33.9260   48.6830 H   0  0  0  0  0  0  0  0  0  0  0  0
   43.7730   33.0350   48.2170 H   0  0  0  0  0  0  0  0  0  0  0  0
   46.7870   34.7630   42.1480 C   0  0  0  0  0  0  0  0  0  0  0  0
   47.6340   35.6680   41.8770 O   0  0  0  0  0  0  0  0  0  0  0  0
   44.0510   35.0390   40.8260 Cl  0  0  0  0  0  0  0  0  0  0  0  0
   45.2190   33.8490   40.3350 C   0  0  0  0  0  0  0  0  0  0  0  0
   46.3910   33.8700   41.0380 C   0  0  0  0  0  0  0  0  0  0  0  0
   47.3900   32.9470   40.7110 C   0  0  0  0  0  0  0  0  0  0  0  0
   48.3560   32.8870   41.2140 H   0  0  0  0  0  0  0  0  0  0  0  0
   47.2310   32.0200   39.7030 C   0  0  0  0  0  0  0  0  0  0  0  0
   47.9690   31.2950   39.4210 H   0  0  0  0  0  0  0  0  0  0  0  0
   46.0410   32.0100   39.0010 C   0  0  0  0  0  3  0  0  0  0  0  0
   45.0670   32.9200   39.3300 C   0  0  0  0  0  3  0  0  0  0  0  0
  1  2  2  0  0  0  0
  1  6  1  0  0  0  0
  2  3  1  0  0  0  0
  3  8  1  0  0  0  0
  3  4  2  0  0  0  0
  5  4  1  0  0  0  0
  5  9  1  0  0  0  0
  6  5  2  0  0  0  0
  7  2  1  0  0  0  0
  9 12  1  6  0  0  0
  9 11  1  0  0  0  0
  9 10  1  0  0  0  0
 10 13  1  0  0  0  0
 10 14  1  0  0  0  0
 11 10  1  0  0  0  0
 11 15  1  1  0  0  0
 11 16  1  0  0  0  0
 16 18  1  0  0  0  0
 16 17  1  0  0  0  0
 19  1  1  0  0  0  0
 20 19  2  0  0  0  0
 22 21  1  0  0  0  0
 22 23  1  0  0  0  0
 23 19  1  0  0  0  0
 24 23  2  0  0  0  0
 24 25  1  0  0  0  0
 26 24  1  0  0  0  0
 27 26  1  0  0  0  0
 28 29  1  0  0  0  0
 28 26  2  0  0  0  0
 29 22  2  0  0  0  0
M  END
>  <minimizedAffinity>
-5.44434357

>  <minimizedRMSD>
0.823370874

$$$$
