
 OpenBabel03242510493D

 22 23  0  0  0  0  0  0  0  0999 V2000
   45.0270   36.2310   43.1170 C   0  0  0  0  0  0  0  0  0  0  0  0
   46.1540   35.9010   42.3330 C   0  0  0  0  0  0  0  0  0  0  0  0
   46.8800   34.7700   42.7030 C   0  0  0  0  0  0  0  0  0  0  0  0
   46.4810   34.0460   43.7800 N   0  0  0  0  0  0  0  0  0  0  0  0
   45.3930   34.3910   44.5100 C   0  0  0  0  0  0  0  0  0  0  0  0
   44.6670   35.4920   44.1680 N   0  0  0  0  0  0  0  0  0  0  0  0
   46.0170   32.6730   46.0920 C   0  0  0  0  0  0  0  0  0  0  0  0
   47.1600   32.5080   45.6060 O   0  0  0  0  0  0  0  0  0  0  0  0
   45.0120   33.5940   45.6390 N   0  0  0  0  0  0  0  0  0  0  0  0
   44.4610   37.1100   42.8300 H   0  0  0  0  0  0  0  0  0  0  0  0
   46.4760   36.4610   41.4870 H   0  0  0  0  0  0  0  0  0  0  0  0
   47.7640   34.4290   42.1680 H   0  0  0  0  0  0  0  0  0  0  0  0
   44.0750   33.7050   46.0660 H   0  0  0  0  0  0  0  0  0  0  0  0
   45.3790   29.8410   45.4850 Cl  0  0  0  0  0  0  0  0  0  0  0  0
   45.3900   30.4830   47.1300 C   0  0  0  0  0  0  0  0  0  0  0  0
   45.7080   31.8240   47.2400 C   0  0  0  0  0  0  0  0  0  0  0  0
   45.7160   32.3290   48.5450 C   0  0  0  0  0  0  0  0  0  0  0  0
   45.9580   33.3770   48.7130 H   0  0  0  0  0  0  0  0  0  0  0  0
   45.4260   31.5360   49.6330 C   0  0  0  0  0  0  0  0  0  0  0  0
   45.4330   31.9390   50.6520 H   0  0  0  0  0  0  0  0  0  0  0  0
   45.1120   30.1910   49.4680 C   0  0  0  0  0  0  0  0  0  0  0  0
   45.0980   29.6730   48.1920 C   0  0  0  0  0  0  0  0  0  0  0  0
  1  6  1  0  0  0  0
  2  3  1  0  0  0  0
  2  1  2  0  0  0  0
  3  4  2  0  0  0  0
  4  5  1  0  0  0  0
  5  9  1  0  0  0  0
  6  5  2  0  0  0  0
  7 16  1  0  0  0  0
  8  7  2  0  0  0  0
  9 13  1  0  0  0  0
  9  7  1  0  0  0  0
 10  1  1  0  0  0  0
 11  2  1  0  0  0  0
 12  3  1  0  0  0  0
 14 15  1  0  0  0  0
 15 16  2  0  0  0  0
 15 22  1  0  0  0  0
 16 17  1  0  0  0  0
 17 18  1  0  0  0  0
 17 19  2  0  0  0  0
 19 20  1  0  0  0  0
 21 19  1  0  0  0  0
 22 21  2  0  0  0  0
M  END
>  <minimizedAffinity>
-4.86792278

>  <minimizedRMSD>
1.27823961

$$$$
