
 OpenBabel03242518483D

 23 24  0  0  0  0  0  0  0  0999 V2000
   44.6220   36.0800   44.2520 C   0  0  0  0  0  0  0  0  0  0  0  0
   45.4260   35.9490   43.1020 C   0  0  0  0  0  0  0  0  0  0  0  0
   46.3100   34.8540   43.0880 C   0  0  0  0  0  0  0  0  0  0  0  0
   46.3220   34.0280   44.1530 N   0  0  0  0  0  0  0  0  0  0  0  0
   45.5410   34.1820   45.2360 C   0  0  0  0  0  0  0  0  0  0  0  0
   44.6840   35.2170   45.2840 N   0  0  0  0  0  0  0  0  0  0  0  0
   43.9240   36.9170   44.3000 H   0  0  0  0  0  0  0  0  0  0  0  0
   45.3320   36.6650   42.3160 H   0  0  0  0  0  0  0  0  0  0  0  0
   47.1380   34.7350   41.8860 C   0  0  0  0  0  0  0  0  0  0  0  0
   47.9980   33.6440   42.0310 F   0  0  0  0  0  0  0  0  0  0  0  0
   47.9890   35.8500   41.8890 F   0  0  0  0  0  0  0  0  0  0  0  0
   46.4390   34.6140   40.7400 F   0  0  0  0  0  0  0  0  0  0  0  0
   45.5880   33.2630   46.3660 C   0  0  0  0  0  0  0  0  0  0  0  0
   44.8900   33.4570   47.3940 O   0  0  0  0  0  0  0  0  0  0  0  0
   46.0540   32.2670   49.0870 Cl  0  0  0  0  0  0  0  0  0  0  0  0
   46.7010   31.5890   47.5960 C   0  0  0  0  0  0  0  0  0  0  0  0
   46.4560   32.0930   46.3170 C   0  0  0  0  0  0  0  0  0  0  0  0
   47.0220   31.4710   45.2240 C   0  0  0  0  0  0  0  0  0  0  0  0
   46.7650   31.9450   44.2870 H   0  0  0  0  0  0  0  0  0  0  0  0
   47.8200   30.3620   45.4180 C   0  0  0  0  0  0  0  0  0  0  0  0
   48.2310   29.9220   44.5360 H   0  0  0  0  0  0  0  0  0  0  0  0
   48.0590   29.8670   46.6880 C   0  0  0  0  0  0  0  0  0  0  0  0
   47.5020   30.4750   47.7880 C   0  0  0  0  0  0  0  0  0  0  0  0
  1  7  1  0  0  0  0
  1  6  1  0  0  0  0
  2  1  2  0  0  0  0
  3  2  1  0  0  0  0
  3  4  2  0  0  0  0
  4  5  1  0  0  0  0
  5  6  2  0  0  0  0
  5 13  1  0  0  0  0
  8  2  1  0  0  0  0
  9 11  1  0  0  0  0
  9 10  1  0  0  0  0
  9  3  1  0  0  0  0
 12  9  1  0  0  0  0
 13 14  2  0  0  0  0
 16 23  1  0  0  0  0
 16 15  1  0  0  0  0
 17 13  1  0  0  0  0
 17 16  2  0  0  0  0
 18 20  2  0  0  0  0
 18 17  1  0  0  0  0
 19 18  1  0  0  0  0
 20 22  1  0  0  0  0
 21 20  1  0  0  0  0
 22 23  2  0  0  0  0
M  END
>  <minimizedAffinity>
-5.64830494

>  <minimizedRMSD>
0.412346393

$$$$
