
 OpenBabel03252508493D

 28 30  0  0  0  0  0  0  0  0999 V2000
   45.8690   34.1940   41.0530 C   0  0  0  0  0  0  0  0  0  0  0  0
   46.4820   34.7810   42.1530 C   0  0  0  0  0  0  0  0  0  0  0  0
   47.8470   35.0840   42.0170 C   0  0  0  0  0  0  0  0  0  0  0  0
   48.4670   34.7860   40.8370 N   0  0  0  0  0  0  0  0  0  0  0  0
   47.8290   34.2240   39.8170 C   0  0  0  0  0  0  0  0  0  0  0  0
   46.5250   33.9180   39.9040 N   0  0  0  0  0  0  0  0  0  0  0  0
   48.3400   35.5440   42.8730 H   0  0  0  0  0  0  0  0  0  0  0  0
   48.3750   34.0120   38.9070 H   0  0  0  0  0  0  0  0  0  0  0  0
   45.7220   35.0500   43.3540 C   0  0  0  0  0  0  0  0  0  0  0  0
   45.0600   36.2390   43.5750 C   0  0  0  0  0  0  0  0  0  0  0  0
   44.4830   36.0670   44.8120 C   0  0  0  0  0  0  0  0  0  0  0  0
   44.7750   34.8430   45.3200 N   0  0  0  0  0  0  0  0  0  0  0  0
   45.5240   34.2540   44.4160 N   0  0  0  0  0  0  0  0  0  0  0  0
   44.9900   37.1250   42.9410 H   0  0  0  0  0  0  0  0  0  0  0  0
   43.8720   36.7770   45.3510 H   0  0  0  0  0  0  0  0  0  0  0  0
   44.5120   34.3840   46.2130 H   0  0  0  0  0  0  0  0  0  0  0  0
   44.5220   33.8800   41.1460 O   0  0  0  0  0  0  0  0  0  0  0  0
   43.4790   34.5620   40.5830 C   0  0  0  0  0  0  0  0  0  0  0  0
   43.2720   35.8300   40.5920 O   0  0  0  0  0  0  0  0  0  0  0  0
   40.6780   34.8500   41.7150 Cl  0  0  0  0  0  0  0  0  0  0  0  0
   41.0400   33.9270   40.2470 C   0  0  0  0  0  0  0  0  0  0  0  0
   42.3770   33.8820   39.8420 C   0  0  0  0  0  0  0  0  0  0  0  0
   42.5470   33.1420   38.6960 C   0  0  0  0  0  0  0  0  0  0  0  0
   43.5540   33.0460   38.2970 H   0  0  0  0  0  0  0  0  0  0  0  0
   41.5490   32.5140   38.0100 C   0  0  0  0  0  0  0  0  0  0  0  0
   41.7670   31.9530   37.1180 H   0  0  0  0  0  0  0  0  0  0  0  0
   40.2660   32.6190   38.4900 C   0  0  0  0  0  3  0  0  0  0  0  0
   39.9860   33.3350   39.6290 C   0  0  0  0  0  3  0  0  0  0  0  0
  1 17  1  0  0  0  0
  1  2  1  0  0  0  0
  2  9  1  0  0  0  0
  3  2  2  0  0  0  0
  3  7  1  0  0  0  0
  4  3  1  0  0  0  0
  5  6  1  0  0  0  0
  5  4  2  0  0  0  0
  6  1  2  0  0  0  0
  8  5  1  0  0  0  0
  9 10  1  0  0  0  0
  9 13  2  0  0  0  0
 10 11  2  0  0  0  0
 11 12  1  0  0  0  0
 11 15  1  0  0  0  0
 12 16  1  0  0  0  0
 13 12  1  0  0  0  0
 14 10  1  0  0  0  0
 18 19  2  0  0  0  0
 18 17  1  0  0  0  0
 21 20  1  0  0  0  0
 22 21  1  0  0  0  0
 22 18  1  0  0  0  0
 23 22  2  0  0  0  0
 24 23  1  0  0  0  0
 25 27  2  0  0  0  0
 25 23  1  0  0  0  0
 26 25  1  0  0  0  0
 27 28  1  0  0  0  0
 28 21  2  0  0  0  0
M  END
>  <minimizedAffinity>
-5.5322814

>  <minimizedRMSD>
0.874123514

$$$$
