
 OpenBabel03252501323D

 24 25  0  0  0  0  0  0  0  0999 V2000
   42.5810   34.3620   40.6640 C   0  0  0  0  0  0  0  0  0  0  0  0
   42.9090   33.3620   41.3920 O   0  0  0  0  0  0  0  0  0  0  0  0
   43.5310   35.4220   40.7340 N   0  0  0  0  0  0  0  0  0  0  0  0
   43.4020   36.2840   40.1980 H   0  0  0  0  0  0  0  0  0  0  0  0
   39.9390   33.9560   42.1240 Cl  0  0  0  0  0  0  0  0  0  0  0  0
   40.1350   34.2660   40.4320 C   0  0  0  0  0  0  0  0  0  0  0  0
   41.3810   34.4390   39.8470 C   0  0  0  0  0  0  0  0  0  0  0  0
   41.5110   34.6860   38.4950 C   0  0  0  0  0  0  0  0  0  0  0  0
   42.4830   34.8200   38.0470 H   0  0  0  0  0  0  0  0  0  0  0  0
   40.3540   34.7600   37.7110 C   0  0  0  0  0  0  0  0  0  0  0  0
   40.4220   34.9530   36.6340 H   0  0  0  0  0  0  0  0  0  0  0  0
   39.0950   34.5860   38.2920 C   0  0  0  0  0  0  0  0  0  0  0  0
   38.9890   34.3390   39.6590 C   0  0  0  0  0  0  0  0  0  0  0  0
   44.5980   35.0380   41.6390 C   0  0  0  0  0  0  0  0  0  0  0  0
   44.5900   35.2030   43.0080 C   0  0  0  0  0  0  0  0  0  0  0  0
   45.7150   34.7650   43.7020 C   0  0  0  0  0  0  0  0  0  0  0  0
   46.7160   34.2200   42.9870 N   0  0  0  0  0  0  0  0  0  0  0  0
   46.6970   34.0720   41.6580 C   0  0  0  0  0  0  0  0  0  0  0  0
   45.6270   34.4820   40.9500 N   0  0  0  0  0  0  0  0  0  0  0  0
   45.6870   34.9030   44.7660 H   0  0  0  0  0  0  0  0  0  0  0  0
   47.5550   33.6190   41.1740 H   0  0  0  0  0  0  0  0  0  0  0  0
   43.4350   35.7990   43.5570 N   0  0  0  0  0  0  0  0  0  0  0  0
   42.4460   35.5450   43.5780 H   0  0  0  0  0  0  0  0  0  0  0  0
   43.6400   36.7010   44.0520 H   0  0  0  0  0  0  0  0  0  0  0  0
  1  3  1  0  0  0  0
  1  2  2  0  0  0  0
  3 14  1  0  0  0  0
  4  3  1  0  0  0  0
  6  5  1  0  0  0  0
  7  6  1  0  0  0  0
  7  1  1  0  0  0  0
  8  7  2  0  0  0  0
  9  8  1  0  0  0  0
 10 12  2  0  0  0  0
 10  8  1  0  0  0  0
 11 10  1  0  0  0  0
 12 13  1  0  0  0  0
 13  6  2  0  0  0  0
 14 15  1  0  0  0  0
 15 22  1  0  0  0  0
 15 16  2  0  0  0  0
 16 20  1  0  0  0  0
 17 16  1  0  0  0  0
 18 17  2  0  0  0  0
 19 14  2  0  0  0  0
 19 18  1  0  0  0  0
 21 18  1  0  0  0  0
 22 23  1  0  0  0  0
 22 24  1  0  0  0  0
M  END
>  <minimizedAffinity>
-5.66865587

>  <minimizedRMSD>
4.09221125

$$$$
