
 OpenBabel03252507173D

 29 31  0  0  0  0  0  0  0  0999 V2000
   39.6420   32.1610   40.8890 C   0  0  0  0  0  0  0  0  0  0  0  0
   38.7060   31.2030   40.4450 C   0  0  0  0  0  0  0  0  0  0  0  0
   37.5440   31.6620   39.8350 C   0  0  0  0  0  0  0  0  0  0  0  0
   37.3460   32.9790   39.6870 N   0  0  0  0  0  0  0  0  0  0  0  0
   38.2690   33.9020   40.1260 C   0  0  0  0  0  0  0  0  0  0  0  0
   39.3800   33.4750   40.7090 N   0  0  0  0  0  0  0  0  0  0  0  0
   40.5460   31.7900   41.3640 H   0  0  0  0  0  0  0  0  0  0  0  0
   38.0100   34.9400   39.9560 H   0  0  0  0  0  0  0  0  0  0  0  0
   36.5790   30.6770   39.3760 C   0  0  0  0  0  0  0  0  0  0  0  0
   36.6240   30.2190   38.0790 C   0  0  0  0  0  0  0  0  0  0  0  0
   35.6910   29.2850   37.6840 C   0  0  0  0  0  0  0  0  0  0  0  0
   34.6990   28.7750   38.5210 C   0  0  0  0  0  0  0  0  0  0  0  0
   34.7130   29.2800   39.8050 C   0  0  0  0  0  0  0  0  0  0  0  0
   35.6330   30.1930   40.1800 N   0  0  0  0  0  0  0  0  0  0  0  0
   37.3490   30.5530   37.3690 H   0  0  0  0  0  0  0  0  0  0  0  0
   35.7130   28.9120   36.6620 H   0  0  0  0  0  0  0  0  0  0  0  0
   33.9730   28.0520   38.2170 H   0  0  0  0  0  0  0  0  0  0  0  0
   33.9880   28.9630   40.5650 H   0  0  0  0  0  0  0  0  0  0  0  0
   38.9830   29.8230   40.6350 C   0  0  0  0  0  0  0  0  0  0  0  0
   39.9720   29.3200   40.0170 O   0  0  0  0  0  0  0  0  0  0  0  0
   38.0950   27.1850   39.4080 Cl  0  0  0  0  0  0  0  0  0  0  0  0
   37.8050   27.6200   41.0750 C   0  0  0  0  0  0  0  0  0  0  0  0
   38.2760   28.8560   41.4670 C   0  0  0  0  0  0  0  0  0  0  0  0
   38.0770   29.2650   42.7900 C   0  0  0  0  0  0  0  0  0  0  0  0
   38.4210   30.2260   43.1660 H   0  0  0  0  0  0  0  0  0  0  0  0
   37.4160   28.4350   43.6800 C   0  0  0  0  0  0  0  0  0  0  0  0
   37.2730   28.7720   44.6980 H   0  0  0  0  0  0  0  0  0  0  0  0
   36.9430   27.1840   43.2750 C   0  0  0  0  0  3  0  0  0  0  0  0
   37.1480   26.7920   41.9630 C   0  0  0  0  0  3  0  0  0  0  0  0
  1  7  1  0  0  0  0
  2 19  1  0  0  0  0
  2  1  2  0  0  0  0
  3  2  1  0  0  0  0
  4  3  2  0  0  0  0
  4  5  1  0  0  0  0
  5  6  2  0  0  0  0
  6  1  1  0  0  0  0
  8  5  1  0  0  0  0
  9  3  1  0  0  0  0
  9 14  1  0  0  0  0
 10  9  2  0  0  0  0
 11 10  1  0  0  0  0
 11 12  2  0  0  0  0
 12 13  1  0  0  0  0
 13 14  2  0  0  0  0
 13 18  1  0  0  0  0
 15 10  1  0  0  0  0
 16 11  1  0  0  0  0
 17 12  1  0  0  0  0
 19 23  1  0  0  0  0
 20 19  2  0  0  0  0
 21 22  1  0  0  0  0
 22 23  2  0  0  0  0
 22 29  1  0  0  0  0
 23 24  1  0  0  0  0
 24 25  1  0  0  0  0
 24 26  2  0  0  0  0
 26 27  1  0  0  0  0
 28 26  1  0  0  0  0
 29 28  2  0  0  0  0
M  END
>  <minimizedAffinity>
-5.70681429

$$$$

 OpenBabel03252507173D

 29 31  0  0  0  0  0  0  0  0999 V2000
   39.2720   32.3030   40.5650 C   0  0  0  0  0  0  0  0  0  0  0  0
   38.5350   31.1380   40.8730 C   0  0  0  0  0  0  0  0  0  0  0  0
   39.1510   30.1660   41.6510 C   0  0  0  0  0  0  0  0  0  0  0  0
   40.4060   30.3540   42.0830 N   0  0  0  0  0  0  0  0  0  0  0  0
   41.1120   31.4960   41.7750 C   0  0  0  0  0  0  0  0  0  0  0  0
   40.5340   32.4300   41.0330 N   0  0  0  0  0  0  0  0  0  0  0  0
   38.7800   33.0570   39.9570 H   0  0  0  0  0  0  0  0  0  0  0  0
   42.1170   31.5460   42.1750 H   0  0  0  0  0  0  0  0  0  0  0  0
   38.3940   28.9660   41.9690 C   0  0  0  0  0  0  0  0  0  0  0  0
   37.6450   28.9080   43.1210 C   0  0  0  0  0  0  0  0  0  0  0  0
   36.9430   27.7520   43.3860 C   0  0  0  0  0  0  0  0  0  0  0  0
   36.9460   26.6330   42.5530 C   0  0  0  0  0  0  0  0  0  0  0  0
   37.7200   26.7620   41.4180 C   0  0  0  0  0  0  0  0  0  0  0  0
   38.4020   27.8990   41.1700 N   0  0  0  0  0  0  0  0  0  0  0  0
   37.5830   29.7170   43.8160 H   0  0  0  0  0  0  0  0  0  0  0  0
   36.3440   27.6890   44.2920 H   0  0  0  0  0  0  0  0  0  0  0  0
   36.4030   25.7350   42.7560 H   0  0  0  0  0  0  0  0  0  0  0  0
   37.8090   25.9560   40.6790 H   0  0  0  0  0  0  0  0  0  0  0  0
   37.2100   31.0070   40.3800 C   0  0  0  0  0  0  0  0  0  0  0  0
   36.2600   31.4770   41.0830 O   0  0  0  0  0  0  0  0  0  0  0  0
   34.9800   28.9410   40.4900 Cl  0  0  0  0  0  0  0  0  0  0  0  0
   35.7600   29.4410   39.0090 C   0  0  0  0  0  0  0  0  0  0  0  0
   36.7530   30.3890   39.1400 C   0  0  0  0  0  0  0  0  0  0  0  0
   37.4180   30.8340   37.9930 C   0  0  0  0  0  0  0  0  0  0  0  0
   38.2110   31.5780   38.0240 H   0  0  0  0  0  0  0  0  0  0  0  0
   37.0760   30.3220   36.7520 C   0  0  0  0  0  0  0  0  0  0  0  0
   37.6030   30.6790   35.8780 H   0  0  0  0  0  0  0  0  0  0  0  0
   36.0680   29.3620   36.6270 C   0  0  0  0  0  3  0  0  0  0  0  0
   35.4190   28.9320   37.7710 C   0  0  0  0  0  3  0  0  0  0  0  0
  1  2  2  0  0  0  0
  1  6  1  0  0  0  0
  2  3  1  0  0  0  0
  3  9  1  0  0  0  0
  3  4  2  0  0  0  0
  5  4  1  0  0  0  0
  5  8  1  0  0  0  0
  6  5  2  0  0  0  0
  7  1  1  0  0  0  0
  9 10  1  0  0  0  0
 10 11  2  0  0  0  0
 10 15  1  0  0  0  0
 11 16  1  0  0  0  0
 12 17  1  0  0  0  0
 12 11  1  0  0  0  0
 13 12  2  0  0  0  0
 14 13  1  0  0  0  0
 14  9  2  0  0  0  0
 18 13  1  0  0  0  0
 19  2  1  0  0  0  0
 19 20  2  0  0  0  0
 22 23  1  0  0  0  0
 22 21  1  0  0  0  0
 23 19  1  0  0  0  0
 24 25  1  0  0  0  0
 24 23  2  0  0  0  0
 26 24  1  0  0  0  0
 27 26  1  0  0  0  0
 28 26  2  0  0  0  0
 28 29  1  0  0  0  0
 29 22  2  0  0  0  0
M  END
>  <minimizedAffinity>
-5.50542688

$$$$

 OpenBabel03252507173D

 29 31  0  0  0  0  0  0  0  0999 V2000
   37.3570   24.9690   42.1800 C   0  0  0  0  0  0  0  0  0  0  0  0
   37.3170   26.3360   41.8290 C   0  0  0  0  0  0  0  0  0  0  0  0
   36.8320   26.6710   40.5700 C   0  0  0  0  0  0  0  0  0  0  0  0
   36.4210   25.7060   39.7370 N   0  0  0  0  0  0  0  0  0  0  0  0
   36.4650   24.3770   40.0930 C   0  0  0  0  0  0  0  0  0  0  0  0
   36.9260   24.0460   41.2910 N   0  0  0  0  0  0  0  0  0  0  0  0
   37.7370   24.7200   43.1670 H   0  0  0  0  0  0  0  0  0  0  0  0
   36.1090   23.6790   39.3450 H   0  0  0  0  0  0  0  0  0  0  0  0
   36.7910   28.0780   40.2070 C   0  0  0  0  0  0  0  0  0  0  0  0
   35.7860   28.8860   40.6890 C   0  0  0  0  0  0  0  0  0  0  0  0
   35.7830   30.2140   40.3210 C   0  0  0  0  0  0  0  0  0  0  0  0
   36.7390   30.7900   39.4840 C   0  0  0  0  0  0  0  0  0  0  0  0
   37.7130   29.9220   39.0380 C   0  0  0  0  0  0  0  0  0  0  0  0
   37.7060   28.6240   39.4070 N   0  0  0  0  0  0  0  0  0  0  0  0
   35.0140   28.5300   41.3360 H   0  0  0  0  0  0  0  0  0  0  0  0
   34.9970   30.8670   40.6940 H   0  0  0  0  0  0  0  0  0  0  0  0
   36.7380   31.8200   39.1960 H   0  0  0  0  0  0  0  0  0  0  0  0
   38.5240   30.2460   38.3750 H   0  0  0  0  0  0  0  0  0  0  0  0
   37.7700   27.3050   42.7640 C   0  0  0  0  0  0  0  0  0  0  0  0
   36.9700   27.6730   43.6800 O   0  0  0  0  0  0  0  0  0  0  0  0
   40.1980   25.7180   43.6800 Cl  0  0  0  0  0  0  0  0  0  0  0  0
   40.2620   27.4040   43.2270 C   0  0  0  0  0  0  0  0  0  0  0  0
   39.0670   27.9700   42.8350 C   0  0  0  0  0  0  0  0  0  0  0  0
   39.0470   29.3170   42.4600 C   0  0  0  0  0  0  0  0  0  0  0  0
   38.1400   29.8260   42.1420 H   0  0  0  0  0  0  0  0  0  0  0  0
   40.2160   30.0590   42.4860 C   0  0  0  0  0  0  0  0  0  0  0  0
   40.1790   31.1000   42.1920 H   0  0  0  0  0  0  0  0  0  0  0  0
   41.4240   29.4790   42.8830 C   0  0  0  0  0  3  0  0  0  0  0  0
   41.4270   28.1450   43.2520 C   0  0  0  0  0  3  0  0  0  0  0  0
  1  7  1  0  0  0  0
  2  1  1  0  0  0  0
  2 19  1  0  0  0  0
  3  2  2  0  0  0  0
  4  5  2  0  0  0  0
  4  3  1  0  0  0  0
  5  6  1  0  0  0  0
  6  1  2  0  0  0  0
  8  5  1  0  0  0  0
  9  3  1  0  0  0  0
  9 10  1  0  0  0  0
 10 15  1  0  0  0  0
 11 10  2  0  0  0  0
 11 16  1  0  0  0  0
 12 11  1  0  0  0  0
 13 14  1  0  0  0  0
 13 12  2  0  0  0  0
 14  9  2  0  0  0  0
 17 12  1  0  0  0  0
 18 13  1  0  0  0  0
 19 23  1  0  0  0  0
 19 20  2  0  0  0  0
 22 29  1  0  0  0  0
 22 21  1  0  0  0  0
 23 22  2  0  0  0  0
 24 26  2  0  0  0  0
 24 23  1  0  0  0  0
 25 24  1  0  0  0  0
 26 28  1  0  0  0  0
 27 26  1  0  0  0  0
 28 29  2  0  0  0  0
M  END
>  <minimizedAffinity>
-5.40523338

$$$$

 OpenBabel03252507173D

 29 31  0  0  0  0  0  0  0  0999 V2000
   35.8140   29.1570   41.0540 C   0  0  0  0  0  0  0  0  0  0  0  0
   36.5280   27.9530   41.2330 C   0  0  0  0  0  0  0  0  0  0  0  0
   36.5930   27.0700   40.1610 C   0  0  0  0  0  0  0  0  0  0  0  0
   35.9870   27.3790   39.0060 N   0  0  0  0  0  0  0  0  0  0  0  0
   35.2940   28.5580   38.8470 C   0  0  0  0  0  0  0  0  0  0  0  0
   35.2260   29.4080   39.8630 N   0  0  0  0  0  0  0  0  0  0  0  0
   35.7710   29.8400   41.8990 H   0  0  0  0  0  0  0  0  0  0  0  0
   34.8440   28.7080   37.8740 H   0  0  0  0  0  0  0  0  0  0  0  0
   37.3290   25.8290   40.3430 C   0  0  0  0  0  0  0  0  0  0  0  0
   36.7390   24.7660   40.9870 C   0  0  0  0  0  0  0  0  0  0  0  0
   37.4700   23.6080   41.1390 C   0  0  0  0  0  0  0  0  0  0  0  0
   38.7770   23.4480   40.6780 C   0  0  0  0  0  0  0  0  0  0  0  0
   39.3040   24.5540   40.0440 C   0  0  0  0  0  0  0  0  0  0  0  0
   38.5770   25.6820   39.9010 N   0  0  0  0  0  0  0  0  0  0  0  0
   35.7430   24.7990   41.3710 H   0  0  0  0  0  0  0  0  0  0  0  0
   37.0190   22.7570   41.6450 H   0  0  0  0  0  0  0  0  0  0  0  0
   39.3470   22.5510   40.7950 H   0  0  0  0  0  0  0  0  0  0  0  0
   40.3210   24.5620   39.6340 H   0  0  0  0  0  0  0  0  0  0  0  0
   37.1450   27.6920   42.4850 C   0  0  0  0  0  0  0  0  0  0  0  0
   36.3960   27.4630   43.4860 O   0  0  0  0  0  0  0  0  0  0  0  0
   38.8530   30.1630   42.0040 Cl  0  0  0  0  0  0  0  0  0  0  0  0
   39.4800   28.6690   42.6580 C   0  0  0  0  0  0  0  0  0  0  0  0
   38.5660   27.6470   42.8120 C   0  0  0  0  0  0  0  0  0  0  0  0
   39.0020   26.4240   43.3310 C   0  0  0  0  0  0  0  0  0  0  0  0
   38.3360   25.5760   43.4770 H   0  0  0  0  0  0  0  0  0  0  0  0
   40.3320   26.2540   43.6800 C   0  0  0  0  0  0  0  0  0  0  0  0
   40.6480   25.3000   44.0790 H   0  0  0  0  0  0  0  0  0  0  0  0
   41.2520   27.2950   43.5220 C   0  0  0  0  0  3  0  0  0  0  0  0
   40.8050   28.4990   43.0070 C   0  0  0  0  0  3  0  0  0  0  0  0
  1  2  1  0  0  0  0
  1  7  1  0  0  0  0
  2 19  1  0  0  0  0
  3  9  1  0  0  0  0
  3  2  2  0  0  0  0
  4  3  1  0  0  0  0
  5  4  2  0  0  0  0
  5  6  1  0  0  0  0
  6  1  2  0  0  0  0
  8  5  1  0  0  0  0
  9 10  1  0  0  0  0
 10 11  2  0  0  0  0
 10 15  1  0  0  0  0
 11 16  1  0  0  0  0
 12 17  1  0  0  0  0
 12 11  1  0  0  0  0
 13 12  2  0  0  0  0
 14 13  1  0  0  0  0
 14  9  2  0  0  0  0
 18 13  1  0  0  0  0
 19 23  1  0  0  0  0
 19 20  2  0  0  0  0
 21 22  1  0  0  0  0
 22 23  2  0  0  0  0
 22 29  1  0  0  0  0
 23 24  1  0  0  0  0
 24 25  1  0  0  0  0
 24 26  2  0  0  0  0
 26 27  1  0  0  0  0
 28 26  1  0  0  0  0
 29 28  2  0  0  0  0
M  END
>  <minimizedAffinity>
-5.38813066

$$$$

 OpenBabel03252507173D

 29 31  0  0  0  0  0  0  0  0999 V2000
   35.4490   26.5820   38.0890 C   0  0  0  0  0  0  0  0  0  0  0  0
   35.9680   27.3420   39.1590 C   0  0  0  0  0  0  0  0  0  0  0  0
   36.8070   26.7020   40.0640 C   0  0  0  0  0  0  0  0  0  0  0  0
   37.0960   25.4040   39.9020 N   0  0  0  0  0  0  0  0  0  0  0  0
   36.5810   24.6750   38.8530 C   0  0  0  0  0  0  0  0  0  0  0  0
   35.7800   25.2750   37.9830 N   0  0  0  0  0  0  0  0  0  0  0  0
   34.7950   27.0930   37.3870 H   0  0  0  0  0  0  0  0  0  0  0  0
   36.8790   23.6350   38.8150 H   0  0  0  0  0  0  0  0  0  0  0  0
   37.3440   27.4840   41.1670 C   0  0  0  0  0  0  0  0  0  0  0  0
   36.6790   27.5240   42.3710 C   0  0  0  0  0  0  0  0  0  0  0  0
   37.2210   28.2760   43.3900 C   0  0  0  0  0  0  0  0  0  0  0  0
   38.4060   29.0030   43.2750 C   0  0  0  0  0  0  0  0  0  0  0  0
   39.0160   28.9170   42.0400 C   0  0  0  0  0  0  0  0  0  0  0  0
   38.4760   28.1770   41.0500 N   0  0  0  0  0  0  0  0  0  0  0  0
   35.7670   26.9980   42.5490 H   0  0  0  0  0  0  0  0  0  0  0  0
   36.7090   28.3190   44.3490 H   0  0  0  0  0  0  0  0  0  0  0  0
   38.8290   29.5880   44.0630 H   0  0  0  0  0  0  0  0  0  0  0  0
   39.9540   29.4400   41.8160 H   0  0  0  0  0  0  0  0  0  0  0  0
   35.6190   28.7140   39.2680 C   0  0  0  0  0  0  0  0  0  0  0  0
   34.5280   29.0100   39.8500 O   0  0  0  0  0  0  0  0  0  0  0  0
   36.1960   30.9870   41.2060 Cl  0  0  0  0  0  0  0  0  0  0  0  0
   36.6940   30.9970   39.5310 C   0  0  0  0  0  0  0  0  0  0  0  0
   36.3490   29.8840   38.7930 C   0  0  0  0  0  0  0  0  0  0  0  0
   36.7180   29.8270   37.4440 C   0  0  0  0  0  0  0  0  0  0  0  0
   36.4780   28.9810   36.8040 H   0  0  0  0  0  0  0  0  0  0  0  0
   37.4160   30.8780   36.8730 C   0  0  0  0  0  0  0  0  0  0  0  0
   37.6900   30.8140   35.8280 H   0  0  0  0  0  0  0  0  0  0  0  0
   37.7620   32.0020   37.6280 C   0  0  0  0  0  3  0  0  0  0  0  0
   37.3910   32.0440   38.9610 C   0  0  0  0  0  3  0  0  0  0  0  0
  1  2  1  0  0  0  0
  2 19  1  0  0  0  0
  2  3  2  0  0  0  0
  3  9  1  0  0  0  0
  4  3  1  0  0  0  0
  5  4  2  0  0  0  0
  6  1  2  0  0  0  0
  6  5  1  0  0  0  0
  7  1  1  0  0  0  0
  8  5  1  0  0  0  0
  9 10  1  0  0  0  0
 10 15  1  0  0  0  0
 10 11  2  0  0  0  0
 11 16  1  0  0  0  0
 12 11  1  0  0  0  0
 12 17  1  0  0  0  0
 13 12  2  0  0  0  0
 14  9  2  0  0  0  0
 14 13  1  0  0  0  0
 18 13  1  0  0  0  0
 19 20  2  0  0  0  0
 22 21  1  0  0  0  0
 23 19  1  0  0  0  0
 23 22  2  0  0  0  0
 24 23  1  0  0  0  0
 25 24  1  0  0  0  0
 26 24  2  0  0  0  0
 26 28  1  0  0  0  0
 27 26  1  0  0  0  0
 28 29  2  0  0  0  0
 29 22  1  0  0  0  0
M  END
>  <minimizedAffinity>
-5.35743618

$$$$

 OpenBabel03252507173D

 29 31  0  0  0  0  0  0  0  0999 V2000
   39.0940   32.6040   41.0290 C   0  0  0  0  0  0  0  0  0  0  0  0
   38.4020   31.5760   40.3540 C   0  0  0  0  0  0  0  0  0  0  0  0
   38.7820   31.2830   39.0500 C   0  0  0  0  0  0  0  0  0  0  0  0
   39.7780   31.9720   38.4760 N   0  0  0  0  0  0  0  0  0  0  0  0
   40.4440   32.9730   39.1470 C   0  0  0  0  0  0  0  0  0  0  0  0
   40.0900   33.2600   40.3920 N   0  0  0  0  0  0  0  0  0  0  0  0
   38.7890   32.8240   42.0490 H   0  0  0  0  0  0  0  0  0  0  0  0
   41.2320   33.4650   38.5900 H   0  0  0  0  0  0  0  0  0  0  0  0
   38.0700   30.2240   38.3530 C   0  0  0  0  0  0  0  0  0  0  0  0
   36.9560   30.5200   37.6020 C   0  0  0  0  0  0  0  0  0  0  0  0
   36.3100   29.4870   36.9580 C   0  0  0  0  0  0  0  0  0  0  0  0
   36.7180   28.1550   37.0220 C   0  0  0  0  0  0  0  0  0  0  0  0
   37.8400   27.9320   37.7940 C   0  0  0  0  0  0  0  0  0  0  0  0
   38.4640   28.9520   38.4190 N   0  0  0  0  0  0  0  0  0  0  0  0
   36.5730   31.5110   37.4960 H   0  0  0  0  0  0  0  0  0  0  0  0
   35.4280   29.7030   36.3590 H   0  0  0  0  0  0  0  0  0  0  0  0
   36.2190   27.3510   36.5240 H   0  0  0  0  0  0  0  0  0  0  0  0
   38.2660   26.9300   37.9280 H   0  0  0  0  0  0  0  0  0  0  0  0
   37.3570   30.8880   41.0260 C   0  0  0  0  0  0  0  0  0  0  0  0
   36.2030   31.4210   41.0430 O   0  0  0  0  0  0  0  0  0  0  0  0
   35.2930   28.7520   40.3690 Cl  0  0  0  0  0  0  0  0  0  0  0  0
   36.5560   28.5400   41.5580 C   0  0  0  0  0  0  0  0  0  0  0  0
   37.4080   29.6110   41.7300 C   0  0  0  0  0  0  0  0  0  0  0  0
   38.4420   29.5080   42.6670 C   0  0  0  0  0  0  0  0  0  0  0  0
   39.1480   30.3130   42.8540 H   0  0  0  0  0  0  0  0  0  0  0  0
   38.5960   28.3440   43.4020 C   0  0  0  0  0  0  0  0  0  0  0  0
   39.4020   28.2850   44.1210 H   0  0  0  0  0  0  0  0  0  0  0  0
   37.7290   27.2630   43.2200 C   0  0  0  0  0  3  0  0  0  0  0  0
   36.7110   27.3800   42.2900 C   0  0  0  0  0  3  0  0  0  0  0  0
  1  7  1  0  0  0  0
  2 19  1  0  0  0  0
  2  1  2  0  0  0  0
  3  2  1  0  0  0  0
  4  3  2  0  0  0  0
  4  5  1  0  0  0  0
  5  6  2  0  0  0  0
  6  1  1  0  0  0  0
  8  5  1  0  0  0  0
  9 14  1  0  0  0  0
  9  3  1  0  0  0  0
 10  9  2  0  0  0  0
 11 12  2  0  0  0  0
 11 10  1  0  0  0  0
 12 13  1  0  0  0  0
 13 18  1  0  0  0  0
 13 14  2  0  0  0  0
 15 10  1  0  0  0  0
 16 11  1  0  0  0  0
 17 12  1  0  0  0  0
 19 20  2  0  0  0  0
 19 23  1  0  0  0  0
 21 22  1  0  0  0  0
 22 23  2  0  0  0  0
 22 29  1  0  0  0  0
 23 24  1  0  0  0  0
 24 25  1  0  0  0  0
 24 26  2  0  0  0  0
 26 27  1  0  0  0  0
 28 26  1  0  0  0  0
 29 28  2  0  0  0  0
M  END
>  <minimizedAffinity>
-5.34838963

$$$$

 OpenBabel03252507173D

 29 31  0  0  0  0  0  0  0  0999 V2000
   39.8060   31.5490   39.2910 C   0  0  0  0  0  0  0  0  0  0  0  0
   38.9400   30.7500   40.0690 C   0  0  0  0  0  0  0  0  0  0  0  0
   39.4980   29.7140   40.8070 C   0  0  0  0  0  0  0  0  0  0  0  0
   40.8210   29.5010   40.7620 N   0  0  0  0  0  0  0  0  0  0  0  0
   41.6530   30.2890   39.9980 C   0  0  0  0  0  0  0  0  0  0  0  0
   41.1310   31.2810   39.2900 N   0  0  0  0  0  0  0  0  0  0  0  0
   39.3580   32.3570   38.7190 H   0  0  0  0  0  0  0  0  0  0  0  0
   42.7040   30.0310   40.0340 H   0  0  0  0  0  0  0  0  0  0  0  0
   38.6080   28.8900   41.6100 C   0  0  0  0  0  0  0  0  0  0  0  0
   38.2050   27.6590   41.1480 C   0  0  0  0  0  0  0  0  0  0  0  0
   37.3610   26.9100   41.9390 C   0  0  0  0  0  0  0  0  0  0  0  0
   36.8880   27.3270   43.1830 C   0  0  0  0  0  0  0  0  0  0  0  0
   37.3320   28.5720   43.5810 C   0  0  0  0  0  0  0  0  0  0  0  0
   38.1590   29.2940   42.7970 N   0  0  0  0  0  0  0  0  0  0  0  0
   38.5190   27.2590   40.2080 H   0  0  0  0  0  0  0  0  0  0  0  0
   37.0330   25.9330   41.5900 H   0  0  0  0  0  0  0  0  0  0  0  0
   36.2330   26.7480   43.7990 H   0  0  0  0  0  0  0  0  0  0  0  0
   37.0360   29.0180   44.5380 H   0  0  0  0  0  0  0  0  0  0  0  0
   37.5490   31.0340   40.0680 C   0  0  0  0  0  0  0  0  0  0  0  0
   37.1480   32.0680   40.6890 O   0  0  0  0  0  0  0  0  0  0  0  0
   37.5400   30.7070   37.0440 Cl  0  0  0  0  0  0  0  0  0  0  0  0
   36.3060   30.0460   38.0890 C   0  0  0  0  0  0  0  0  0  0  0  0
   36.4650   30.2890   39.4380 C   0  0  0  0  0  0  0  0  0  0  0  0
   35.5110   29.7880   40.3310 C   0  0  0  0  0  0  0  0  0  0  0  0
   35.5740   29.9420   41.4060 H   0  0  0  0  0  0  0  0  0  0  0  0
   34.4320   29.0620   39.8550 C   0  0  0  0  0  0  0  0  0  0  0  0
   33.7060   28.6840   40.5630 H   0  0  0  0  0  0  0  0  0  0  0  0
   34.2780   28.8200   38.4870 C   0  0  0  0  0  3  0  0  0  0  0  0
   35.2300   29.3220   37.6160 C   0  0  0  0  0  3  0  0  0  0  0  0
  1  2  1  0  0  0  0
  2  3  2  0  0  0  0
  3  9  1  0  0  0  0
  4  3  1  0  0  0  0
  5  8  1  0  0  0  0
  5  4  2  0  0  0  0
  6  1  2  0  0  0  0
  6  5  1  0  0  0  0
  7  1  1  0  0  0  0
  9 14  1  0  0  0  0
 10  9  2  0  0  0  0
 10 11  1  0  0  0  0
 11 12  2  0  0  0  0
 12 13  1  0  0  0  0
 12 17  1  0  0  0  0
 13 18  1  0  0  0  0
 14 13  2  0  0  0  0
 15 10  1  0  0  0  0
 16 11  1  0  0  0  0
 19  2  1  0  0  0  0
 19 20  2  0  0  0  0
 21 22  1  0  0  0  0
 22 23  1  0  0  0  0
 23 19  1  0  0  0  0
 23 24  2  0  0  0  0
 24 25  1  0  0  0  0
 26 24  1  0  0  0  0
 26 27  1  0  0  0  0
 28 26  2  0  0  0  0
 29 22  2  0  0  0  0
 29 28  1  0  0  0  0
M  END
>  <minimizedAffinity>
-5.33422661

$$$$

 OpenBabel03252507173D

 29 31  0  0  0  0  0  0  0  0999 V2000
   36.0870   28.1710   39.4760 C   0  0  0  0  0  0  0  0  0  0  0  0
   36.7900   29.3420   39.8330 C   0  0  0  0  0  0  0  0  0  0  0  0
   37.0890   30.2530   38.8280 C   0  0  0  0  0  0  0  0  0  0  0  0
   36.7080   30.0030   37.5670 N   0  0  0  0  0  0  0  0  0  0  0  0
   36.0230   28.8560   37.2340 C   0  0  0  0  0  0  0  0  0  0  0  0
   35.7320   27.9790   38.1850 N   0  0  0  0  0  0  0  0  0  0  0  0
   35.8590   27.4660   40.2710 H   0  0  0  0  0  0  0  0  0  0  0  0
   35.7630   28.7530   36.1880 H   0  0  0  0  0  0  0  0  0  0  0  0
   37.8130   31.4600   39.1930 C   0  0  0  0  0  0  0  0  0  0  0  0
   37.1240   32.6110   39.5000 C   0  0  0  0  0  0  0  0  0  0  0  0
   37.8480   33.7330   39.8410 C   0  0  0  0  0  0  0  0  0  0  0  0
   39.2410   33.7730   39.8930 C   0  0  0  0  0  0  0  0  0  0  0  0
   39.8640   32.5840   39.5710 C   0  0  0  0  0  0  0  0  0  0  0  0
   39.1440   31.4930   39.2400 N   0  0  0  0  0  0  0  0  0  0  0  0
   36.0570   32.6710   39.4870 H   0  0  0  0  0  0  0  0  0  0  0  0
   37.3190   34.6520   40.0870 H   0  0  0  0  0  0  0  0  0  0  0  0
   39.8050   34.6420   40.1560 H   0  0  0  0  0  0  0  0  0  0  0  0
   40.9560   32.4790   39.5740 H   0  0  0  0  0  0  0  0  0  0  0  0
   37.1610   29.5400   41.1890 C   0  0  0  0  0  0  0  0  0  0  0  0
   36.5380   30.4230   41.8580 O   0  0  0  0  0  0  0  0  0  0  0  0
   36.3490   27.3190   43.1030 Cl  0  0  0  0  0  0  0  0  0  0  0  0
   38.0020   27.8370   42.8710 C   0  0  0  0  0  0  0  0  0  0  0  0
   38.1920   28.8580   41.9640 C   0  0  0  0  0  0  0  0  0  0  0  0
   39.4920   29.3200   41.7300 C   0  0  0  0  0  0  0  0  0  0  0  0
   39.7140   30.1220   41.0300 H   0  0  0  0  0  0  0  0  0  0  0  0
   40.5600   28.7530   42.4060 C   0  0  0  0  0  0  0  0  0  0  0  0
   41.5570   29.1260   42.2100 H   0  0  0  0  0  0  0  0  0  0  0  0
   40.3590   27.7180   43.3230 C   0  0  0  0  0  3  0  0  0  0  0  0
   39.0670   27.2710   43.5430 C   0  0  0  0  0  3  0  0  0  0  0  0
  1  2  1  0  0  0  0
  1  7  1  0  0  0  0
  2 19  1  0  0  0  0
  3  9  1  0  0  0  0
  3  2  2  0  0  0  0
  4  3  1  0  0  0  0
  5  4  2  0  0  0  0
  5  6  1  0  0  0  0
  6  1  2  0  0  0  0
  8  5  1  0  0  0  0
  9 14  2  0  0  0  0
  9 10  1  0  0  0  0
 10 11  2  0  0  0  0
 11 12  1  0  0  0  0
 11 16  1  0  0  0  0
 12 17  1  0  0  0  0
 13 18  1  0  0  0  0
 13 12  2  0  0  0  0
 14 13  1  0  0  0  0
 15 10  1  0  0  0  0
 19 20  2  0  0  0  0
 19 23  1  0  0  0  0
 22 21  1  0  0  0  0
 22 29  1  0  0  0  0
 23 22  2  0  0  0  0
 24 23  1  0  0  0  0
 24 26  2  0  0  0  0
 25 24  1  0  0  0  0
 26 28  1  0  0  0  0
 27 26  1  0  0  0  0
 28 29  2  0  0  0  0
M  END
>  <minimizedAffinity>
-5.30187988

$$$$

 OpenBabel03252507173D

 29 31  0  0  0  0  0  0  0  0999 V2000
   35.8770   27.6400   37.8670 C   0  0  0  0  0  0  0  0  0  0  0  0
   36.3780   28.6410   38.7270 C   0  0  0  0  0  0  0  0  0  0  0  0
   37.2300   29.5970   38.1860 C   0  0  0  0  0  0  0  0  0  0  0  0
   37.5490   29.5450   36.8850 N   0  0  0  0  0  0  0  0  0  0  0  0
   37.0520   28.5620   36.0590 C   0  0  0  0  0  0  0  0  0  0  0  0
   36.2380   27.6450   36.5640 N   0  0  0  0  0  0  0  0  0  0  0  0
   35.2110   26.8990   38.3010 H   0  0  0  0  0  0  0  0  0  0  0  0
   37.3720   28.6130   35.0260 H   0  0  0  0  0  0  0  0  0  0  0  0
   37.7470   30.6290   39.0700 C   0  0  0  0  0  0  0  0  0  0  0  0
   36.9750   31.7270   39.3730 C   0  0  0  0  0  0  0  0  0  0  0  0
   37.5020   32.6830   40.2140 C   0  0  0  0  0  0  0  0  0  0  0  0
   38.7760   32.6050   40.7780 C   0  0  0  0  0  0  0  0  0  0  0  0
   39.4930   31.4790   40.4280 C   0  0  0  0  0  0  0  0  0  0  0  0
   38.9650   30.5500   39.6050 N   0  0  0  0  0  0  0  0  0  0  0  0
   35.9890   31.8690   38.9880 H   0  0  0  0  0  0  0  0  0  0  0  0
   36.9050   33.5570   40.4660 H   0  0  0  0  0  0  0  0  0  0  0  0
   39.1880   33.3450   41.4300 H   0  0  0  0  0  0  0  0  0  0  0  0
   40.5070   31.2940   40.8020 H   0  0  0  0  0  0  0  0  0  0  0  0
   35.9970   28.6330   40.0950 C   0  0  0  0  0  0  0  0  0  0  0  0
   34.8460   29.0790   40.3990 O   0  0  0  0  0  0  0  0  0  0  0  0
   36.7010   25.6830   40.3270 Cl  0  0  0  0  0  0  0  0  0  0  0  0
   37.1580   26.8800   41.5150 C   0  0  0  0  0  0  0  0  0  0  0  0
   36.7570   28.1740   41.2520 C   0  0  0  0  0  0  0  0  0  0  0  0
   37.0900   29.1820   42.1630 C   0  0  0  0  0  0  0  0  0  0  0  0
   36.8050   30.2220   42.0190 H   0  0  0  0  0  0  0  0  0  0  0  0
   37.8110   28.8730   43.3050 C   0  0  0  0  0  0  0  0  0  0  0  0
   38.0580   29.6680   43.9960 H   0  0  0  0  0  0  0  0  0  0  0  0
   38.2150   27.5600   43.5630 C   0  0  0  0  0  3  0  0  0  0  0  0
   37.8770   26.5730   42.6530 C   0  0  0  0  0  3  0  0  0  0  0  0
  1  7  1  0  0  0  0
  1  2  1  0  0  0  0
  2 19  1  0  0  0  0
  3  2  2  0  0  0  0
  3  9  1  0  0  0  0
  4  3  1  0  0  0  0
  5  6  1  0  0  0  0
  5  4  2  0  0  0  0
  6  1  2  0  0  0  0
  8  5  1  0  0  0  0
  9 10  2  0  0  0  0
  9 14  1  0  0  0  0
 10 11  1  0  0  0  0
 11 16  1  0  0  0  0
 11 12  2  0  0  0  0
 12 17  1  0  0  0  0
 13 12  1  0  0  0  0
 13 18  1  0  0  0  0
 14 13  2  0  0  0  0
 15 10  1  0  0  0  0
 19 20  2  0  0  0  0
 19 23  1  0  0  0  0
 21 22  1  0  0  0  0
 22 29  1  0  0  0  0
 23 22  2  0  0  0  0
 23 24  1  0  0  0  0
 24 26  2  0  0  0  0
 25 24  1  0  0  0  0
 26 28  1  0  0  0  0
 26 27  1  0  0  0  0
 29 28  2  0  0  0  0
M  END
>  <minimizedAffinity>
-5.29289818

$$$$
