
 OpenBabel03252508493D

 28 30  0  0  0  0  0  0  0  0999 V2000
   45.9820   34.1880   41.0670 C   0  0  0  0  0  0  0  0  0  0  0  0
   46.5510   34.8140   42.1690 C   0  0  0  0  0  0  0  0  0  0  0  0
   47.9000   35.1870   42.0450 C   0  0  0  0  0  0  0  0  0  0  0  0
   48.5480   34.9140   40.8740 N   0  0  0  0  0  0  0  0  0  0  0  0
   47.9510   34.3110   39.8520 C   0  0  0  0  0  0  0  0  0  0  0  0
   46.6640   33.9380   39.9270 N   0  0  0  0  0  0  0  0  0  0  0  0
   48.3580   35.6790   42.9020 H   0  0  0  0  0  0  0  0  0  0  0  0
   48.5170   34.1220   38.9490 H   0  0  0  0  0  0  0  0  0  0  0  0
   45.7640   35.0510   43.3590 C   0  0  0  0  0  0  0  0  0  0  0  0
   45.0780   36.2260   43.5860 C   0  0  0  0  0  0  0  0  0  0  0  0
   44.4820   36.0250   44.8090 C   0  0  0  0  0  0  0  0  0  0  0  0
   44.7850   34.7980   45.3040 N   0  0  0  0  0  0  0  0  0  0  0  0
   45.5610   34.2360   44.4050 N   0  0  0  0  0  0  0  0  0  0  0  0
   45.0040   37.1190   42.9640 H   0  0  0  0  0  0  0  0  0  0  0  0
   43.8490   36.7160   45.3470 H   0  0  0  0  0  0  0  0  0  0  0  0
   44.5150   34.3220   46.1850 H   0  0  0  0  0  0  0  0  0  0  0  0
   44.6510   33.8040   41.1480 O   0  0  0  0  0  0  0  0  0  0  0  0
   43.5720   34.4730   40.6410 C   0  0  0  0  0  0  0  0  0  0  0  0
   43.3750   35.7420   40.6140 O   0  0  0  0  0  0  0  0  0  0  0  0
   44.0060   33.2730   37.8870 Cl  0  0  0  0  0  0  0  0  0  0  0  0
   42.4650   33.1750   38.7550 C   0  0  0  0  0  0  0  0  0  0  0  0
   42.4110   33.7740   40.0180 C   0  0  0  0  0  0  0  0  0  0  0  0
   41.1740   33.6390   40.6020 C   0  0  0  0  0  0  0  0  0  0  0  0
   41.0280   34.0730   41.5900 H   0  0  0  0  0  0  0  0  0  0  0  0
   40.1050   33.0040   40.0440 C   0  0  0  0  0  0  0  0  0  0  0  0
   39.1680   32.9430   40.5690 H   0  0  0  0  0  0  0  0  0  0  0  0
   40.2590   32.4470   38.7970 C   0  0  0  0  0  3  0  0  0  0  0  0
   41.4550   32.5240   38.1240 C   0  0  0  0  0  3  0  0  0  0  0  0
  1 17  1  0  0  0  0
  1  2  1  0  0  0  0
  2  9  1  0  0  0  0
  3  2  2  0  0  0  0
  3  7  1  0  0  0  0
  4  3  1  0  0  0  0
  5  6  1  0  0  0  0
  5  4  2  0  0  0  0
  6  1  2  0  0  0  0
  8  5  1  0  0  0  0
  9 10  1  0  0  0  0
  9 13  2  0  0  0  0
 10 11  2  0  0  0  0
 11 12  1  0  0  0  0
 11 15  1  0  0  0  0
 12 16  1  0  0  0  0
 13 12  1  0  0  0  0
 14 10  1  0  0  0  0
 18 17  1  0  0  0  0
 19 18  2  0  0  0  0
 20 21  1  0  0  0  0
 21 22  1  0  0  0  0
 22 23  2  0  0  0  0
 22 18  1  0  0  0  0
 23 24  1  0  0  0  0
 25 26  1  0  0  0  0
 25 23  1  0  0  0  0
 27 25  2  0  0  0  0
 28 21  2  0  0  0  0
 28 27  1  0  0  0  0
M  END
>  <minimizedAffinity>
-5.38790751

>  <minimizedRMSD>
0.743872344

$$$$
