
 OpenBabel03252508493D

 28 30  0  0  0  0  0  0  0  0999 V2000
   45.6700   34.2520   41.0780 C   0  0  0  0  0  0  0  0  0  0  0  0
   46.3390   34.7700   42.1800 C   0  0  0  0  0  0  0  0  0  0  0  0
   47.7190   34.9830   42.0260 C   0  0  0  0  0  0  0  0  0  0  0  0
   48.2980   34.6710   40.8290 N   0  0  0  0  0  0  0  0  0  0  0  0
   47.6060   34.1770   39.8090 C   0  0  0  0  0  0  0  0  0  0  0  0
   46.2860   33.9590   39.9130 N   0  0  0  0  0  0  0  0  0  0  0  0
   48.2570   35.3890   42.8830 H   0  0  0  0  0  0  0  0  0  0  0  0
   48.1220   33.9500   38.8850 H   0  0  0  0  0  0  0  0  0  0  0  0
   45.6190   35.0620   43.4000 C   0  0  0  0  0  0  0  0  0  0  0  0
   45.1120   36.3110   43.6950 C   0  0  0  0  0  0  0  0  0  0  0  0
   44.5180   36.1410   44.9230 C   0  0  0  0  0  0  0  0  0  0  0  0
   44.6530   34.8620   45.3570 N   0  0  0  0  0  0  0  0  0  0  0  0
   45.3210   34.2370   44.4150 N   0  0  0  0  0  0  0  0  0  0  0  0
   45.1550   37.2340   43.1130 H   0  0  0  0  0  0  0  0  0  0  0  0
   44.0020   36.8900   45.5070 H   0  0  0  0  0  0  0  0  0  0  0  0
   44.3340   34.3890   46.2240 H   0  0  0  0  0  0  0  0  0  0  0  0
   44.3050   34.0280   41.1890 O   0  0  0  0  0  0  0  0  0  0  0  0
   43.3010   34.8930   40.8510 C   0  0  0  0  0  0  0  0  0  0  0  0
   43.1240   36.0940   41.2710 O   0  0  0  0  0  0  0  0  0  0  0  0
   41.7060   32.3860   41.4690 Cl  0  0  0  0  0  0  0  0  0  0  0  0
   41.4010   33.4060   40.0540 C   0  0  0  0  0  0  0  0  0  0  0  0
   42.2150   34.5320   39.8960 C   0  0  0  0  0  0  0  0  0  0  0  0
   41.8930   35.2500   38.7690 C   0  0  0  0  0  0  0  0  0  0  0  0
   42.4710   36.1480   38.5560 H   0  0  0  0  0  0  0  0  0  0  0  0
   40.9030   34.9300   37.8880 C   0  0  0  0  0  0  0  0  0  0  0  0
   40.7160   35.5470   37.0260 H   0  0  0  0  0  0  0  0  0  0  0  0
   40.1570   33.8020   38.1300 C   0  0  0  0  0  3  0  0  0  0  0  0
   40.3960   33.0120   39.2300 C   0  0  0  0  0  3  0  0  0  0  0  0
  1 17  1  0  0  0  0
  1  2  1  0  0  0  0
  2  9  1  0  0  0  0
  3  2  2  0  0  0  0
  3  7  1  0  0  0  0
  4  3  1  0  0  0  0
  5  6  1  0  0  0  0
  5  4  2  0  0  0  0
  6  1  2  0  0  0  0
  8  5  1  0  0  0  0
  9 10  1  0  0  0  0
  9 13  2  0  0  0  0
 10 11  2  0  0  0  0
 11 12  1  0  0  0  0
 11 15  1  0  0  0  0
 12 16  1  0  0  0  0
 13 12  1  0  0  0  0
 14 10  1  0  0  0  0
 18 17  1  0  0  0  0
 18 19  2  0  0  0  0
 21 20  1  0  0  0  0
 22 21  1  0  0  0  0
 22 18  1  0  0  0  0
 23 22  2  0  0  0  0
 24 23  1  0  0  0  0
 25 27  2  0  0  0  0
 25 23  1  0  0  0  0
 26 25  1  0  0  0  0
 27 28  1  0  0  0  0
 28 21  2  0  0  0  0
M  END
>  <minimizedAffinity>
-5.64029264

>  <minimizedRMSD>
1.21164072

$$$$
