
 OpenBabel03252503313D

 41 43  0  0  1  0  0  0  0  0999 V2000
   45.3490   34.0310   42.0210 C   0  0  0  0  0  0  0  0  0  0  0  0
   46.3920   34.9010   41.5860 C   0  0  0  0  0  0  0  0  0  0  0  0
   47.7020   34.5170   41.9210 C   0  0  0  0  0  0  0  0  0  0  0  0
   47.8650   33.3690   42.6210 N   0  0  0  0  0  0  0  0  0  0  0  0
   46.8410   32.5860   43.0060 C   0  0  0  0  0  0  0  0  0  0  0  0
   45.5720   32.9240   42.7010 N   0  0  0  0  0  0  0  0  0  0  0  0
   43.6840   34.0990   40.3660 C   0  0  0  0  0  0  0  0  0  0  0  0
   44.6120   33.6720   39.5980 O   0  0  0  0  0  0  0  0  0  0  0  0
   43.9850   34.3550   41.7180 N   0  0  0  0  0  0  0  0  0  0  0  0
   42.4030   34.2870   39.7960 N   0  0  0  0  0  0  0  0  0  0  0  0
   42.2580   34.2930   38.3260 C   0  0  0  0  0  0  0  0  0  0  0  0
   41.0980   35.2140   38.1240 C   0  0  0  0  0  0  0  0  0  0  0  0
   40.6150   35.5890   39.4970 C   0  0  0  0  0  0  0  0  0  0  0  0
   41.1040   34.4620   40.3780 C   0  0  1  0  0  0  0  0  0  0  0  0
   46.1490   35.8000   41.0290 H   0  0  0  0  0  0  0  0  0  0  0  0
   47.0650   31.6960   43.5550 H   0  0  0  0  0  0  0  0  0  0  0  0
   43.2550   34.7310   42.3520 H   0  0  0  0  0  0  0  0  0  0  0  0
   43.1430   34.7740   37.8520 H   0  0  0  0  0  0  0  0  0  0  0  0
   42.1010   33.2780   37.9310 H   0  0  0  0  0  0  0  0  0  0  0  0
   41.3360   36.0840   37.4830 H   0  0  0  0  0  0  0  0  0  0  0  0
   40.2740   34.6040   37.6610 H   0  0  0  0  0  0  0  0  0  0  0  0
   41.3720   36.4070   39.7680 H   0  0  0  0  0  0  0  0  0  0  0  0
   39.7000   36.0650   39.6220 H   0  0  0  0  0  0  0  0  0  0  0  0
   41.0910   34.9010   41.3770 H   0  0  0  0  0  0  0  0  0  0  0  0
   38.9100   33.1060   40.2290 C   0  0  0  0  0  0  0  0  0  0  0  0
   38.4130   34.2690   40.2810 O   0  0  0  0  0  0  0  0  0  0  0  0
   40.3480   33.2190   40.2630 N   0  0  0  0  0  0  0  0  0  0  0  0
   40.9360   32.3310   40.2020 H   0  0  0  0  0  0  0  0  0  0  0  0
   38.8640   31.8210   37.4580 Cl  0  0  0  0  0  0  0  0  0  0  0  0
   38.3130   31.0560   38.9340 C   0  0  0  0  0  0  0  0  0  0  0  0
   38.3750   31.7230   40.1430 C   0  0  0  0  0  0  0  0  0  0  0  0
   37.9560   31.1800   41.3470 C   0  0  0  0  0  0  0  0  0  0  0  0
   38.0150   31.7230   42.2810 H   0  0  0  0  0  0  0  0  0  0  0  0
   37.4410   29.8830   41.3530 C   0  0  0  0  0  0  0  0  0  0  0  0
   37.0910   29.3780   42.2450 H   0  0  0  0  0  0  0  0  0  0  0  0
   37.3950   29.2470   40.1270 C   0  0  0  0  0  0  0  0  0  0  0  0
   37.8060   29.7710   38.9160 C   0  0  0  0  0  0  0  0  0  0  0  0
   48.7470   35.4220   41.4640 C   0  0  0  0  0  0  0  0  0  0  0  0
   49.9820   34.8980   41.8410 F   0  0  0  0  0  0  0  0  0  0  0  0
   48.6150   36.6040   42.1920 F   0  0  0  0  0  0  0  0  0  0  0  0
   48.7580   35.6150   40.1130 F   0  0  0  0  0  0  0  0  0  0  0  0
  1  6  1  0  0  0  0
  2  3  1  0  0  0  0
  2  1  2  0  0  0  0
  3  4  2  0  0  0  0
  4  5  1  0  0  0  0
  5 16  1  0  0  0  0
  6  5  2  0  0  0  0
  7  9  1  0  0  0  0
  8  7  2  0  0  0  0
  9  1  1  0  0  0  0
  9 17  1  0  0  0  0
 10  7  1  0  0  0  0
 10 14  1  0  0  0  0
 11 10  1  0  0  0  0
 12 11  1  0  0  0  0
 12 13  1  0  0  0  0
 13 23  1  0  0  0  0
 13 22  1  0  0  0  0
 13 14  1  0  0  0  0
 14 24  1  1  0  0  0
 15  2  1  0  0  0  0
 18 11  1  0  0  0  0
 19 11  1  0  0  0  0
 20 12  1  0  0  0  0
 21 12  1  0  0  0  0
 25 27  1  0  0  0  0
 25 26  2  0  0  0  0
 27 14  1  0  0  0  0
 28 27  1  0  0  0  0
 29 30  1  0  0  0  0
 30 31  1  0  0  0  0
 31 25  1  0  0  0  0
 31 32  2  0  0  0  0
 32 34  1  0  0  0  0
 32 33  1  0  0  0  0
 34 35  1  0  0  0  0
 36 34  2  0  0  0  0
 37 30  2  0  0  0  0
 37 36  1  0  0  0  0
 38 39  1  0  0  0  0
 38  3  1  0  0  0  0
 38 40  1  0  0  0  0
 41 38  1  0  0  0  0
M  END
>  <minimizedAffinity>
-7.19346952

>  <minimizedRMSD>
1.0885241

$$$$
