
 OpenBabel03242520203D

 35 37  0  0  0  0  0  0  0  0999 V2000
   35.4660   28.8440   39.4430 C   0  0  0  0  0  0  0  0  0  0  0  0
   34.3880   29.0890   39.2880 H   0  0  0  0  0  0  0  0  0  0  0  0
   35.7160   27.9370   38.8710 H   0  0  0  0  0  0  0  0  0  0  0  0
   37.4200   32.0720   39.1800 C   0  0  0  0  0  0  0  0  0  0  0  0
   36.5620   31.0700   39.6810 C   0  0  0  0  0  0  0  0  0  0  0  0
   36.3560   29.9190   38.9420 C   0  0  0  0  0  0  0  0  0  0  0  0
   37.0120   29.8240   37.7420 N   0  0  0  0  0  0  0  0  0  0  0  0
   37.8310   30.8160   37.2980 C   0  0  0  0  0  0  0  0  0  0  0  0
   38.0320   31.9260   38.0080 N   0  0  0  0  0  0  0  0  0  0  0  0
   36.0900   31.2400   40.6390 H   0  0  0  0  0  0  0  0  0  0  0  0
   38.2760   30.5960   36.3350 H   0  0  0  0  0  0  0  0  0  0  0  0
   37.6250   33.2990   39.9860 C   0  0  0  0  0  0  0  0  0  0  0  0
   38.8220   33.1550   40.9850 C   0  0  0  0  0  0  0  0  0  0  0  0
   38.7610   34.1420   39.9000 C   0  0  0  0  0  0  0  0  0  0  0  0
   36.6810   33.6560   40.4770 H   0  0  0  0  0  0  0  0  0  0  0  0
   39.5000   32.3010   40.8330 H   0  0  0  0  0  0  0  0  0  0  0  0
   38.5930   33.4580   42.0250 H   0  0  0  0  0  0  0  0  0  0  0  0
   39.4560   34.0080   39.0220 H   0  0  0  0  0  0  0  0  0  0  0  0
   38.6900   35.2090   40.1870 H   0  0  0  0  0  0  0  0  0  0  0  0
   35.6540   28.6510   40.9270 C   0  0  0  0  0  0  0  0  0  0  0  0
   35.5720   29.6330   41.4010 H   0  0  0  0  0  0  0  0  0  0  0  0
   34.8180   28.0410   41.3750 H   0  0  0  0  0  0  0  0  0  0  0  0
   37.0110   27.4000   42.5290 C   0  0  0  0  0  0  0  0  0  0  0  0
   36.1500   27.4250   43.4520 O   0  0  0  0  0  0  0  0  0  0  0  0
   36.9090   27.9730   41.2380 N   0  0  0  0  0  0  0  0  0  0  0  0
   37.6540   27.9330   40.5410 H   0  0  0  0  0  0  0  0  0  0  0  0
   36.8290   24.5400   41.7350 Cl  0  0  0  0  0  0  0  0  0  0  0  0
   38.1950   25.3350   42.4940 C   0  0  0  0  0  0  0  0  0  0  0  0
   38.2620   26.6830   42.8600 C   0  0  0  0  0  0  0  0  0  0  0  0
   39.3870   27.1810   43.4450 C   0  0  0  0  0  0  0  0  0  0  0  0
   39.3310   28.2300   43.6870 H   0  0  0  0  0  0  0  0  0  0  0  0
   40.4560   26.3320   43.6700 C   0  0  0  0  0  0  0  0  0  0  0  0
   41.3290   26.7710   44.1360 H   0  0  0  0  0  0  0  0  0  0  0  0
   40.4190   24.9990   43.3180 C   0  0  0  0  0  3  0  0  0  0  0  0
   39.2670   24.4980   42.7210 C   0  0  0  0  0  3  0  0  0  0  0  0
  1 20  1  0  0  0  0
  2  1  1  0  0  0  0
  3  1  1  0  0  0  0
  4  5  1  0  0  0  0
  4 12  1  0  0  0  0
  5 10  1  0  0  0  0
  6  1  1  0  0  0  0
  6  5  2  0  0  0  0
  7  6  1  0  0  0  0
  8  7  2  0  0  0  0
  8  9  1  0  0  0  0
  9  4  2  0  0  0  0
 11  8  1  0  0  0  0
 12 15  1  0  0  0  0
 12 13  1  0  0  0  0
 13 17  1  0  0  0  0
 14 12  1  0  0  0  0
 14 19  1  0  0  0  0
 14 13  1  0  0  0  0
 16 13  1  0  0  0  0
 18 14  1  0  0  0  0
 20 25  1  0  0  0  0
 20 22  1  0  0  0  0
 20 21  1  0  0  0  0
 23 29  1  0  0  0  0
 23 24  2  0  0  0  0
 25 23  1  0  0  0  0
 26 25  1  0  0  0  0
 27 28  1  0  0  0  0
 28 35  2  0  0  0  0
 28 29  1  0  0  0  0
 29 30  2  0  0  0  0
 30 32  1  0  0  0  0
 30 31  1  0  0  0  0
 32 33  1  0  0  0  0
 34 32  2  0  0  0  0
 35 34  1  0  0  0  0
M  END
>  <minimizedAffinity>
-5.64451361

$$$$

 OpenBabel03242520203D

 35 37  0  0  0  0  0  0  0  0999 V2000
   38.2900   27.8880   43.5230 C   0  0  0  0  0  0  0  0  0  0  0  0
   38.2500   27.9220   44.6390 H   0  0  0  0  0  0  0  0  0  0  0  0
   39.1620   28.4640   43.1760 H   0  0  0  0  0  0  0  0  0  0  0  0
   37.6980   24.5920   41.7660 C   0  0  0  0  0  0  0  0  0  0  0  0
   37.4960   25.9060   42.2380 C   0  0  0  0  0  0  0  0  0  0  0  0
   38.4680   26.5050   43.0180 C   0  0  0  0  0  0  0  0  0  0  0  0
   39.5910   25.7670   43.2890 N   0  0  0  0  0  0  0  0  0  0  0  0
   39.7430   24.5020   42.8130 C   0  0  0  0  0  0  0  0  0  0  0  0
   38.8090   23.9220   42.0610 N   0  0  0  0  0  0  0  0  0  0  0  0
   36.5750   26.4050   41.9690 H   0  0  0  0  0  0  0  0  0  0  0  0
   40.6810   24.0490   43.1120 H   0  0  0  0  0  0  0  0  0  0  0  0
   36.6420   23.9660   40.9350 C   0  0  0  0  0  0  0  0  0  0  0  0
   36.7710   24.3580   39.4250 C   0  0  0  0  0  0  0  0  0  0  0  0
   36.8730   22.9870   39.9370 C   0  0  0  0  0  0  0  0  0  0  0  0
   35.6120   24.1320   41.3480 H   0  0  0  0  0  0  0  0  0  0  0  0
   37.7110   24.8360   39.1100 H   0  0  0  0  0  0  0  0  0  0  0  0
   35.8300   24.7080   38.9580 H   0  0  0  0  0  0  0  0  0  0  0  0
   37.8820   22.4850   39.9100 H   0  0  0  0  0  0  0  0  0  0  0  0
   36.0730   22.2760   39.6520 H   0  0  0  0  0  0  0  0  0  0  0  0
   36.9890   28.4690   43.0290 C   0  0  0  0  0  0  0  0  0  0  0  0
   36.5980   27.7970   42.2600 H   0  0  0  0  0  0  0  0  0  0  0  0
   36.2030   28.4740   43.8380 H   0  0  0  0  0  0  0  0  0  0  0  0
   37.6510   30.0030   41.2450 C   0  0  0  0  0  0  0  0  0  0  0  0
   38.0030   29.0970   40.4400 O   0  0  0  0  0  0  0  0  0  0  0  0
   37.1450   29.8420   42.5580 N   0  0  0  0  0  0  0  0  0  0  0  0
   36.8950   30.6210   43.1670 H   0  0  0  0  0  0  0  0  0  0  0  0
   40.1550   31.2510   42.2550 Cl  0  0  0  0  0  0  0  0  0  0  0  0
   38.9660   31.9870   41.1970 C   0  0  0  0  0  0  0  0  0  0  0  0
   37.7930   31.3840   40.7330 C   0  0  0  0  0  0  0  0  0  0  0  0
   36.9480   32.0660   39.9110 C   0  0  0  0  0  0  0  0  0  0  0  0
   36.0740   31.5080   39.6140 H   0  0  0  0  0  0  0  0  0  0  0  0
   37.2690   33.3620   39.5470 C   0  0  0  0  0  0  0  0  0  0  0  0
   36.5700   33.8650   38.8930 H   0  0  0  0  0  0  0  0  0  0  0  0
   38.4190   33.9820   39.9890 C   0  0  0  0  0  3  0  0  0  0  0  0
   39.2770   33.2780   40.8280 C   0  0  0  0  0  3  0  0  0  0  0  0
  1  2  1  0  0  0  0
  3  1  1  0  0  0  0
  4  9  2  0  0  0  0
  4  5  1  0  0  0  0
  5  6  2  0  0  0  0
  6  7  1  0  0  0  0
  6  1  1  0  0  0  0
  8 11  1  0  0  0  0
  8  7  2  0  0  0  0
  9  8  1  0  0  0  0
 10  5  1  0  0  0  0
 12 15  1  0  0  0  0
 12  4  1  0  0  0  0
 13 14  1  0  0  0  0
 13 12  1  0  0  0  0
 14 12  1  0  0  0  0
 16 13  1  0  0  0  0
 17 13  1  0  0  0  0
 18 14  1  0  0  0  0
 19 14  1  0  0  0  0
 20  1  1  0  0  0  0
 20 22  1  0  0  0  0
 21 20  1  0  0  0  0
 23 25  1  0  0  0  0
 24 23  2  0  0  0  0
 25 20  1  0  0  0  0
 25 26  1  0  0  0  0
 28 27  1  0  0  0  0
 29 28  2  0  0  0  0
 29 23  1  0  0  0  0
 30 29  1  0  0  0  0
 31 30  1  0  0  0  0
 32 30  2  0  0  0  0
 32 34  1  0  0  0  0
 33 32  1  0  0  0  0
 34 35  2  0  0  0  0
 35 28  1  0  0  0  0
M  END
>  <minimizedAffinity>
-5.60199594

$$$$

 OpenBabel03242520203D

 35 37  0  0  0  0  0  0  0  0999 V2000
   35.4920   28.1230   37.6900 C   0  0  0  0  0  0  0  0  0  0  0  0
   35.8230   28.7670   36.8390 H   0  0  0  0  0  0  0  0  0  0  0  0
   36.0110   27.1540   37.6320 H   0  0  0  0  0  0  0  0  0  0  0  0
   36.5100   28.5010   41.3120 C   0  0  0  0  0  0  0  0  0  0  0  0
   36.1700   27.9080   40.0780 C   0  0  0  0  0  0  0  0  0  0  0  0
   35.8460   28.7150   39.0030 C   0  0  0  0  0  0  0  0  0  0  0  0
   35.8770   30.0700   39.2090 N   0  0  0  0  0  0  0  0  0  0  0  0
   36.2110   30.5980   40.4170 C   0  0  0  0  0  0  0  0  0  0  0  0
   36.5240   29.8240   41.4560 N   0  0  0  0  0  0  0  0  0  0  0  0
   36.1740   26.8290   40.0170 H   0  0  0  0  0  0  0  0  0  0  0  0
   36.1900   31.6820   40.4240 H   0  0  0  0  0  0  0  0  0  0  0  0
   36.8500   27.6190   42.4540 C   0  0  0  0  0  0  0  0  0  0  0  0
   38.3950   27.5340   42.6930 C   0  0  0  0  0  0  0  0  0  0  0  0
   37.4320   28.0580   43.6690 C   0  0  0  0  0  0  0  0  0  0  0  0
   36.3580   26.6130   42.3850 H   0  0  0  0  0  0  0  0  0  0  0  0
   39.0230   28.2760   42.1770 H   0  0  0  0  0  0  0  0  0  0  0  0
   38.7880   26.5040   42.7990 H   0  0  0  0  0  0  0  0  0  0  0  0
   37.4430   29.1650   43.8830 H   0  0  0  0  0  0  0  0  0  0  0  0
   37.2870   27.4790   44.6020 H   0  0  0  0  0  0  0  0  0  0  0  0
   33.9960   27.9780   37.5620 C   0  0  0  0  0  0  0  0  0  0  0  0
   33.8020   27.1540   36.8700 H   0  0  0  0  0  0  0  0  0  0  0  0
   33.5260   27.6560   38.5360 H   0  0  0  0  0  0  0  0  0  0  0  0
   32.1270   29.1040   36.4620 C   0  0  0  0  0  0  0  0  0  0  0  0
   31.5300   28.0410   36.1340 O   0  0  0  0  0  0  0  0  0  0  0  0
   33.3560   29.2250   37.1560 N   0  0  0  0  0  0  0  0  0  0  0  0
   33.7950   30.1190   37.3750 H   0  0  0  0  0  0  0  0  0  0  0  0
   30.4000   30.1110   38.6640 Cl  0  0  0  0  0  0  0  0  0  0  0  0
   30.6260   30.8430   37.0870 C   0  0  0  0  0  0  0  0  0  0  0  0
   31.4430   30.3530   36.0630 C   0  0  0  0  0  0  0  0  0  0  0  0
   31.5320   31.0190   34.8780 C   0  0  0  0  0  0  0  0  0  0  0  0
   32.1890   30.5550   34.1590 H   0  0  0  0  0  0  0  0  0  0  0  0
   30.8020   32.1820   34.7070 C   0  0  0  0  0  0  0  0  0  0  0  0
   30.9040   32.6770   33.7500 H   0  0  0  0  0  0  0  0  0  0  0  0
   29.9880   32.6880   35.6990 C   0  0  0  0  0  3  0  0  0  0  0  0
   29.9030   32.0020   36.9060 C   0  0  0  0  0  3  0  0  0  0  0  0
  1  6  1  0  0  0  0
  2  1  1  0  0  0  0
  3  1  1  0  0  0  0
  4  9  1  0  0  0  0
  4 12  1  0  0  0  0
  5  4  2  0  0  0  0
  6  7  2  0  0  0  0
  6  5  1  0  0  0  0
  7  8  1  0  0  0  0
  8 11  1  0  0  0  0
  8  9  2  0  0  0  0
 10  5  1  0  0  0  0
 12 13  1  0  0  0  0
 12 14  1  0  0  0  0
 13 17  1  0  0  0  0
 13 14  1  0  0  0  0
 14 18  1  0  0  0  0
 14 19  1  0  0  0  0
 15 12  1  0  0  0  0
 16 13  1  0  0  0  0
 20  1  1  0  0  0  0
 20 22  1  0  0  0  0
 21 20  1  0  0  0  0
 23 25  1  0  0  0  0
 24 23  2  0  0  0  0
 25 26  1  0  0  0  0
 25 20  1  0  0  0  0
 28 27  1  0  0  0  0
 29 23  1  0  0  0  0
 29 28  2  0  0  0  0
 30 29  1  0  0  0  0
 31 30  1  0  0  0  0
 32 30  2  0  0  0  0
 32 34  1  0  0  0  0
 33 32  1  0  0  0  0
 34 35  2  0  0  0  0
 35 28  1  0  0  0  0
M  END
>  <minimizedAffinity>
-5.34915543

$$$$

 OpenBabel03242520203D

 35 37  0  0  0  0  0  0  0  0999 V2000
   37.3970   28.5440   43.3930 C   0  0  0  0  0  0  0  0  0  0  0  0
   36.4250   28.6540   42.8530 H   0  0  0  0  0  0  0  0  0  0  0  0
   37.2190   28.6330   44.4760 H   0  0  0  0  0  0  0  0  0  0  0  0
   37.9600   24.9900   42.2290 C   0  0  0  0  0  0  0  0  0  0  0  0
   37.3510   26.2470   42.4280 C   0  0  0  0  0  0  0  0  0  0  0  0
   38.0070   27.2110   43.1710 C   0  0  0  0  0  0  0  0  0  0  0  0
   39.2350   26.8760   43.6800 N   0  0  0  0  0  0  0  0  0  0  0  0
   39.7850   25.6510   43.4630 C   0  0  0  0  0  0  0  0  0  0  0  0
   39.1560   24.7200   42.7460 N   0  0  0  0  0  0  0  0  0  0  0  0
   36.3780   26.4140   41.9860 H   0  0  0  0  0  0  0  0  0  0  0  0
   40.7570   25.5370   43.9280 H   0  0  0  0  0  0  0  0  0  0  0  0
   37.2390   23.9690   41.4330 C   0  0  0  0  0  0  0  0  0  0  0  0
   37.4820   24.1410   39.8960 C   0  0  0  0  0  0  0  0  0  0  0  0
   37.8620   22.9520   40.6670 C   0  0  0  0  0  0  0  0  0  0  0  0
   36.1510   23.9000   41.7030 H   0  0  0  0  0  0  0  0  0  0  0  0
   38.3010   24.8100   39.5900 H   0  0  0  0  0  0  0  0  0  0  0  0
   36.5620   24.1330   39.2800 H   0  0  0  0  0  0  0  0  0  0  0  0
   38.9590   22.7580   40.8370 H   0  0  0  0  0  0  0  0  0  0  0  0
   37.3250   22.0090   40.4460 H   0  0  0  0  0  0  0  0  0  0  0  0
   38.3030   29.6330   42.8730 C   0  0  0  0  0  0  0  0  0  0  0  0
   37.9930   30.5720   43.3410 H   0  0  0  0  0  0  0  0  0  0  0  0
   39.3700   29.4800   43.2080 H   0  0  0  0  0  0  0  0  0  0  0  0
   37.2130   30.3690   40.8140 C   0  0  0  0  0  0  0  0  0  0  0  0
   36.2260   30.9040   41.3920 O   0  0  0  0  0  0  0  0  0  0  0  0
   38.3040   29.6970   41.4150 N   0  0  0  0  0  0  0  0  0  0  0  0
   39.0640   29.2680   40.8860 H   0  0  0  0  0  0  0  0  0  0  0  0
   35.8410   28.0260   39.6010 Cl  0  0  0  0  0  0  0  0  0  0  0  0
   36.5610   29.3790   38.7500 C   0  0  0  0  0  0  0  0  0  0  0  0
   37.2030   30.4730   39.3380 C   0  0  0  0  0  0  0  0  0  0  0  0
   37.7230   31.4640   38.5620 C   0  0  0  0  0  0  0  0  0  0  0  0
   38.1960   32.2580   39.1170 H   0  0  0  0  0  0  0  0  0  0  0  0
   37.6060   31.3680   37.1860 C   0  0  0  0  0  0  0  0  0  0  0  0
   38.0340   32.1770   36.6090 H   0  0  0  0  0  0  0  0  0  0  0  0
   36.9780   30.3000   36.5780 C   0  0  0  0  0  3  0  0  0  0  0  0
   36.4500   29.2930   37.3790 C   0  0  0  0  0  3  0  0  0  0  0  0
  1  3  1  0  0  0  0
  2  1  1  0  0  0  0
  4  5  2  0  0  0  0
  4  9  1  0  0  0  0
  5  6  1  0  0  0  0
  6  1  1  0  0  0  0
  6  7  2  0  0  0  0
  8  7  1  0  0  0  0
  8 11  1  0  0  0  0
  9  8  2  0  0  0  0
 10  5  1  0  0  0  0
 12 15  1  0  0  0  0
 12  4  1  0  0  0  0
 13 14  1  0  0  0  0
 13 12  1  0  0  0  0
 14 18  1  0  0  0  0
 14 12  1  0  0  0  0
 16 13  1  0  0  0  0
 17 13  1  0  0  0  0
 19 14  1  0  0  0  0
 20 22  1  0  0  0  0
 20 21  1  0  0  0  0
 20  1  1  0  0  0  0
 23 24  2  0  0  0  0
 23 25  1  0  0  0  0
 25 20  1  0  0  0  0
 26 25  1  0  0  0  0
 28 29  1  0  0  0  0
 28 27  1  0  0  0  0
 29 23  1  0  0  0  0
 30 31  1  0  0  0  0
 30 29  2  0  0  0  0
 32 30  1  0  0  0  0
 33 32  1  0  0  0  0
 34 32  2  0  0  0  0
 34 35  1  0  0  0  0
 35 28  2  0  0  0  0
M  END
>  <minimizedAffinity>
-5.28708553

$$$$

 OpenBabel03242520203D

 35 37  0  0  0  0  0  0  0  0999 V2000
   37.7220   27.9080   43.6800 C   0  0  0  0  0  0  0  0  0  0  0  0
   37.1520   27.6690   44.6100 H   0  0  0  0  0  0  0  0  0  0  0  0
   38.4460   28.7090   43.8970 H   0  0  0  0  0  0  0  0  0  0  0  0
   40.5760   25.5180   43.0120 C   0  0  0  0  0  0  0  0  0  0  0  0
   39.8570   26.6390   43.4790 C   0  0  0  0  0  0  0  0  0  0  0  0
   38.5080   26.7470   43.1970 C   0  0  0  0  0  0  0  0  0  0  0  0
   37.9420   25.7360   42.4640 N   0  0  0  0  0  0  0  0  0  0  0  0
   38.6740   24.6740   42.0330 C   0  0  0  0  0  0  0  0  0  0  0  0
   39.9740   24.5660   42.3040 N   0  0  0  0  0  0  0  0  0  0  0  0
   40.3950   27.3840   44.0500 H   0  0  0  0  0  0  0  0  0  0  0  0
   38.0880   23.9600   41.4670 H   0  0  0  0  0  0  0  0  0  0  0  0
   42.0220   25.4230   43.3210 C   0  0  0  0  0  0  0  0  0  0  0  0
   42.9020   26.1610   42.2570 C   0  0  0  0  0  0  0  0  0  0  0  0
   42.8470   26.5190   43.6800 C   0  0  0  0  0  0  0  0  0  0  0  0
   42.3540   24.3680   43.5140 H   0  0  0  0  0  0  0  0  0  0  0  0
   42.3840   26.8370   41.5610 H   0  0  0  0  0  0  0  0  0  0  0  0
   43.7500   25.5650   41.8670 H   0  0  0  0  0  0  0  0  0  0  0  0
   42.3460   27.4880   43.9630 H   0  0  0  0  0  0  0  0  0  0  0  0
   43.7630   26.3580   44.2810 H   0  0  0  0  0  0  0  0  0  0  0  0
   36.7050   28.3250   42.6470 C   0  0  0  0  0  0  0  0  0  0  0  0
   36.7840   27.6310   41.8060 H   0  0  0  0  0  0  0  0  0  0  0  0
   35.6500   28.1990   43.0290 H   0  0  0  0  0  0  0  0  0  0  0  0
   37.6010   29.9560   41.0650 C   0  0  0  0  0  0  0  0  0  0  0  0
   38.1550   29.1010   40.3190 O   0  0  0  0  0  0  0  0  0  0  0  0
   36.8650   29.7200   42.2510 N   0  0  0  0  0  0  0  0  0  0  0  0
   36.4570   30.4620   42.8190 H   0  0  0  0  0  0  0  0  0  0  0  0
   39.9580   31.2190   42.3680 Cl  0  0  0  0  0  0  0  0  0  0  0  0
   38.8590   31.9710   41.2270 C   0  0  0  0  0  0  0  0  0  0  0  0
   37.7550   31.3600   40.6240 C   0  0  0  0  0  0  0  0  0  0  0  0
   36.9770   32.0570   39.7500 C   0  0  0  0  0  0  0  0  0  0  0  0
   36.1530   31.4920   39.3450 H   0  0  0  0  0  0  0  0  0  0  0  0
   37.2970   33.3740   39.4720 C   0  0  0  0  0  0  0  0  0  0  0  0
   36.6520   33.8890   38.7720 H   0  0  0  0  0  0  0  0  0  0  0  0
   38.3800   34.0020   40.0510 C   0  0  0  0  0  3  0  0  0  0  0  0
   39.1700   33.2830   40.9420 C   0  0  0  0  0  3  0  0  0  0  0  0
  1  3  1  0  0  0  0
  1  2  1  0  0  0  0
  4 12  1  0  0  0  0
  4  5  1  0  0  0  0
  5 10  1  0  0  0  0
  6  5  2  0  0  0  0
  6  1  1  0  0  0  0
  7  6  1  0  0  0  0
  8  9  1  0  0  0  0
  8  7  2  0  0  0  0
  9  4  2  0  0  0  0
 11  8  1  0  0  0  0
 12 15  1  0  0  0  0
 12 14  1  0  0  0  0
 13 12  1  0  0  0  0
 13 14  1  0  0  0  0
 14 18  1  0  0  0  0
 14 19  1  0  0  0  0
 16 13  1  0  0  0  0
 17 13  1  0  0  0  0
 20 22  1  0  0  0  0
 20  1  1  0  0  0  0
 21 20  1  0  0  0  0
 23 25  1  0  0  0  0
 24 23  2  0  0  0  0
 25 20  1  0  0  0  0
 25 26  1  0  0  0  0
 28 27  1  0  0  0  0
 29 23  1  0  0  0  0
 29 28  2  0  0  0  0
 30 29  1  0  0  0  0
 31 30  1  0  0  0  0
 32 30  2  0  0  0  0
 32 34  1  0  0  0  0
 33 32  1  0  0  0  0
 34 35  2  0  0  0  0
 35 28  1  0  0  0  0
M  END
>  <minimizedAffinity>
-5.28502226

$$$$

 OpenBabel03242520203D

 35 37  0  0  0  0  0  0  0  0999 V2000
   40.4350   30.3360   42.0350 C   0  0  0  0  0  0  0  0  0  0  0  0
   40.5350   31.1040   42.8400 H   0  0  0  0  0  0  0  0  0  0  0  0
   41.4300   29.9250   41.8030 H   0  0  0  0  0  0  0  0  0  0  0  0
   39.0970   26.8320   42.5160 C   0  0  0  0  0  0  0  0  0  0  0  0
   39.9150   27.9000   42.0890 C   0  0  0  0  0  0  0  0  0  0  0  0
   39.5930   29.1920   42.4600 C   0  0  0  0  0  0  0  0  0  0  0  0
   38.4750   29.3570   43.2370 N   0  0  0  0  0  0  0  0  0  0  0  0
   37.7170   28.2980   43.6260 C   0  0  0  0  0  0  0  0  0  0  0  0
   38.0230   27.0510   43.2700 N   0  0  0  0  0  0  0  0  0  0  0  0
   40.7750   27.6660   41.4770 H   0  0  0  0  0  0  0  0  0  0  0  0
   36.8680   28.5880   44.2350 H   0  0  0  0  0  0  0  0  0  0  0  0
   39.4560   25.4540   42.1040 C   0  0  0  0  0  0  0  0  0  0  0  0
   39.9320   24.5820   43.3140 C   0  0  0  0  0  0  0  0  0  0  0  0
   38.7540   24.2850   42.4910 C   0  0  0  0  0  0  0  0  0  0  0  0
   40.1710   25.4340   41.2380 H   0  0  0  0  0  0  0  0  0  0  0  0
   39.7380   24.9780   44.3230 H   0  0  0  0  0  0  0  0  0  0  0  0
   40.8800   24.0360   43.1450 H   0  0  0  0  0  0  0  0  0  0  0  0
   37.7360   24.4090   42.9580 H   0  0  0  0  0  0  0  0  0  0  0  0
   38.7900   23.3750   41.8610 H   0  0  0  0  0  0  0  0  0  0  0  0
   39.8180   31.0350   40.8490 C   0  0  0  0  0  0  0  0  0  0  0  0
   39.5300   32.0390   41.1710 H   0  0  0  0  0  0  0  0  0  0  0  0
   40.5720   31.1980   40.0250 H   0  0  0  0  0  0  0  0  0  0  0  0
   37.4830   30.9750   40.1310 C   0  0  0  0  0  0  0  0  0  0  0  0
   37.2360   32.1730   40.4470 O   0  0  0  0  0  0  0  0  0  0  0  0
   38.7060   30.2780   40.2840 N   0  0  0  0  0  0  0  0  0  0  0  0
   38.8340   29.2990   40.0240 H   0  0  0  0  0  0  0  0  0  0  0  0
   37.7230   30.8870   37.1680 Cl  0  0  0  0  0  0  0  0  0  0  0  0
   36.4420   30.1870   38.1400 C   0  0  0  0  0  0  0  0  0  0  0  0
   36.3470   30.2400   39.5340 C   0  0  0  0  0  0  0  0  0  0  0  0
   35.2970   29.6530   40.1740 C   0  0  0  0  0  0  0  0  0  0  0  0
   35.3210   29.7530   41.2470 H   0  0  0  0  0  0  0  0  0  0  0  0
   34.3310   29.0080   39.4210 C   0  0  0  0  0  0  0  0  0  0  0  0
   33.5150   28.5560   39.9710 H   0  0  0  0  0  0  0  0  0  0  0  0
   34.3990   28.9400   38.0450 C   0  0  0  0  0  3  0  0  0  0  0  0
   35.4750   29.5420   37.4000 C   0  0  0  0  0  3  0  0  0  0  0  0
  1  6  1  0  0  0  0
  1  2  1  0  0  0  0
  3  1  1  0  0  0  0
  4  9  1  0  0  0  0
  5  6  1  0  0  0  0
  5  4  2  0  0  0  0
  6  7  2  0  0  0  0
  7  8  1  0  0  0  0
  8 11  1  0  0  0  0
  9  8  2  0  0  0  0
 10  5  1  0  0  0  0
 12 14  1  0  0  0  0
 12  4  1  0  0  0  0
 12 13  1  0  0  0  0
 13 16  1  0  0  0  0
 14 18  1  0  0  0  0
 14 13  1  0  0  0  0
 15 12  1  0  0  0  0
 17 13  1  0  0  0  0
 19 14  1  0  0  0  0
 20 21  1  0  0  0  0
 20  1  1  0  0  0  0
 22 20  1  0  0  0  0
 23 25  1  0  0  0  0
 23 24  2  0  0  0  0
 25 20  1  0  0  0  0
 26 25  1  0  0  0  0
 27 28  1  0  0  0  0
 28 29  1  0  0  0  0
 29 23  1  0  0  0  0
 29 30  2  0  0  0  0
 30 31  1  0  0  0  0
 32 33  1  0  0  0  0
 32 30  1  0  0  0  0
 34 32  2  0  0  0  0
 35 34  1  0  0  0  0
 35 28  2  0  0  0  0
M  END
>  <minimizedAffinity>
-5.00431919

$$$$

 OpenBabel03242520203D

 35 37  0  0  0  0  0  0  0  0999 V2000
   37.7060   31.0140   37.3850 C   0  0  0  0  0  0  0  0  0  0  0  0
   37.2880   31.4590   36.4500 H   0  0  0  0  0  0  0  0  0  0  0  0
   38.5730   30.3850   37.1290 H   0  0  0  0  0  0  0  0  0  0  0  0
   39.9910   33.2560   39.3980 C   0  0  0  0  0  0  0  0  0  0  0  0
   39.5540   32.2540   38.5060 C   0  0  0  0  0  0  0  0  0  0  0  0
   38.1980   32.0530   38.3210 C   0  0  0  0  0  0  0  0  0  0  0  0
   37.3460   32.8570   39.0340 N   0  0  0  0  0  0  0  0  0  0  0  0
   37.8130   33.8110   39.8840 C   0  0  0  0  0  0  0  0  0  0  0  0
   39.1180   34.0080   40.0640 N   0  0  0  0  0  0  0  0  0  0  0  0
   40.3050   31.6710   37.9910 H   0  0  0  0  0  0  0  0  0  0  0  0
   37.0200   34.3640   40.3730 H   0  0  0  0  0  0  0  0  0  0  0  0
   41.4480   33.4530   39.5850 C   0  0  0  0  0  0  0  0  0  0  0  0
   41.9710   32.7740   40.8960 C   0  0  0  0  0  0  0  0  0  0  0  0
   42.4160   32.4190   39.5430 C   0  0  0  0  0  0  0  0  0  0  0  0
   41.7540   34.5290   39.4940 H   0  0  0  0  0  0  0  0  0  0  0  0
   41.2960   32.0600   41.3930 H   0  0  0  0  0  0  0  0  0  0  0  0
   42.5990   33.4250   41.5340 H   0  0  0  0  0  0  0  0  0  0  0  0
   42.1050   31.4180   39.1280 H   0  0  0  0  0  0  0  0  0  0  0  0
   43.4670   32.6450   39.2780 H   0  0  0  0  0  0  0  0  0  0  0  0
   36.5920   30.2170   38.0170 C   0  0  0  0  0  0  0  0  0  0  0  0
   35.8150   30.9220   38.3250 H   0  0  0  0  0  0  0  0  0  0  0  0
   36.0890   29.5390   37.2680 H   0  0  0  0  0  0  0  0  0  0  0  0
   36.5030   29.6320   40.3880 C   0  0  0  0  0  0  0  0  0  0  0  0
   35.6470   30.5090   40.6900 O   0  0  0  0  0  0  0  0  0  0  0  0
   37.0690   29.3810   39.1150 N   0  0  0  0  0  0  0  0  0  0  0  0
   37.7750   28.6650   38.9410 H   0  0  0  0  0  0  0  0  0  0  0  0
   38.8850   30.8100   41.7240 Cl  0  0  0  0  0  0  0  0  0  0  0  0
   38.0680   29.3190   42.1540 C   0  0  0  0  0  0  0  0  0  0  0  0
   36.9490   28.7800   41.5130 C   0  0  0  0  0  0  0  0  0  0  0  0
   36.4060   27.6090   41.9470 C   0  0  0  0  0  0  0  0  0  0  0  0
   35.5470   27.2840   41.3810 H   0  0  0  0  0  0  0  0  0  0  0  0
   36.9810   26.9640   43.0280 C   0  0  0  0  0  0  0  0  0  0  0  0
   36.5170   26.0370   43.3370 H   0  0  0  0  0  0  0  0  0  0  0  0
   38.0850   27.4720   43.6800 C   0  0  0  0  0  3  0  0  0  0  0  0
   38.6330   28.6690   43.2310 C   0  0  0  0  0  3  0  0  0  0  0  0
  1 20  1  0  0  0  0
  1  6  1  0  0  0  0
  2  1  1  0  0  0  0
  3  1  1  0  0  0  0
  4 12  1  0  0  0  0
  4  9  1  0  0  0  0
  5  4  2  0  0  0  0
  6  5  1  0  0  0  0
  6  7  2  0  0  0  0
  7  8  1  0  0  0  0
  8  9  2  0  0  0  0
  8 11  1  0  0  0  0
 10  5  1  0  0  0  0
 12 13  1  0  0  0  0
 13 16  1  0  0  0  0
 13 17  1  0  0  0  0
 14 12  1  0  0  0  0
 14 13  1  0  0  0  0
 15 12  1  0  0  0  0
 18 14  1  0  0  0  0
 19 14  1  0  0  0  0
 20 21  1  0  0  0  0
 20 25  1  0  0  0  0
 22 20  1  0  0  0  0
 23 24  2  0  0  0  0
 23 29  1  0  0  0  0
 25 23  1  0  0  0  0
 26 25  1  0  0  0  0
 27 28  1  0  0  0  0
 28 35  1  0  0  0  0
 29 30  1  0  0  0  0
 29 28  2  0  0  0  0
 30 32  2  0  0  0  0
 31 30  1  0  0  0  0
 32 33  1  0  0  0  0
 32 34  1  0  0  0  0
 35 34  2  0  0  0  0
M  END
>  <minimizedAffinity>
-4.98287201

$$$$

 OpenBabel03242520203D

 35 37  0  0  0  0  0  0  0  0999 V2000
   36.4520   31.1120   40.0050 C   0  0  0  0  0  0  0  0  0  0  0  0
   35.5560   31.7740   39.9280 H   0  0  0  0  0  0  0  0  0  0  0  0
   36.3890   30.3290   39.2320 H   0  0  0  0  0  0  0  0  0  0  0  0
   39.8520   32.0870   38.6650 C   0  0  0  0  0  0  0  0  0  0  0  0
   38.6660   31.3540   38.8880 C   0  0  0  0  0  0  0  0  0  0  0  0
   37.7110   31.8530   39.7550 C   0  0  0  0  0  0  0  0  0  0  0  0
   37.9840   33.0550   40.3570 N   0  0  0  0  0  0  0  0  0  0  0  0
   39.1410   33.7260   40.1120 C   0  0  0  0  0  0  0  0  0  0  0  0
   40.0630   33.2490   39.2770 N   0  0  0  0  0  0  0  0  0  0  0  0
   38.5460   30.4150   38.3650 H   0  0  0  0  0  0  0  0  0  0  0  0
   39.2110   34.6580   40.6610 H   0  0  0  0  0  0  0  0  0  0  0  0
   40.8650   31.5330   37.7350 C   0  0  0  0  0  0  0  0  0  0  0  0
   42.0130   30.7850   38.4930 C   0  0  0  0  0  0  0  0  0  0  0  0
   41.1040   30.1510   37.5300 C   0  0  0  0  0  0  0  0  0  0  0  0
   41.2420   32.2960   37.0040 H   0  0  0  0  0  0  0  0  0  0  0  0
   41.8420   30.5510   39.5550 H   0  0  0  0  0  0  0  0  0  0  0  0
   43.0350   31.0760   38.1830 H   0  0  0  0  0  0  0  0  0  0  0  0
   40.3440   29.4170   37.9230 H   0  0  0  0  0  0  0  0  0  0  0  0
   41.5410   29.7930   36.5780 H   0  0  0  0  0  0  0  0  0  0  0  0
   36.4440   30.5380   41.3990 C   0  0  0  0  0  0  0  0  0  0  0  0
   37.3960   30.7990   41.8700 H   0  0  0  0  0  0  0  0  0  0  0  0
   35.6570   31.0250   42.0440 H   0  0  0  0  0  0  0  0  0  0  0  0
   37.3140   28.2580   41.2560 C   0  0  0  0  0  0  0  0  0  0  0  0
   38.5190   28.6050   41.1070 O   0  0  0  0  0  0  0  0  0  0  0  0
   36.1850   29.1010   41.4000 N   0  0  0  0  0  0  0  0  0  0  0  0
   35.2300   28.7550   41.4990 H   0  0  0  0  0  0  0  0  0  0  0  0
   36.5670   27.2610   38.5560 Cl  0  0  0  0  0  0  0  0  0  0  0  0
   36.7310   26.3100   40.0200 C   0  0  0  0  0  0  0  0  0  0  0  0
   37.0830   26.7970   41.2820 C   0  0  0  0  0  0  0  0  0  0  0  0
   37.1770   25.9500   42.3440 C   0  0  0  0  0  0  0  0  0  0  0  0
   37.4540   26.4300   43.2690 H   0  0  0  0  0  0  0  0  0  0  0  0
   36.9170   24.6040   42.1520 C   0  0  0  0  0  0  0  0  0  0  0  0
   37.0040   23.9680   43.0230 H   0  0  0  0  0  0  0  0  0  0  0  0
   36.5690   24.0950   40.9180 C   0  0  0  0  0  3  0  0  0  0  0  0
   36.4750   24.9670   39.8380 C   0  0  0  0  0  3  0  0  0  0  0  0
  1 20  1  0  0  0  0
  2  1  1  0  0  0  0
  3  1  1  0  0  0  0
  4  5  2  0  0  0  0
  4  9  1  0  0  0  0
  5  6  1  0  0  0  0
  6  1  1  0  0  0  0
  6  7  2  0  0  0  0
  8  7  1  0  0  0  0
  8 11  1  0  0  0  0
  9  8  2  0  0  0  0
 10  5  1  0  0  0  0
 12 13  1  0  0  0  0
 12  4  1  0  0  0  0
 13 16  1  0  0  0  0
 14 12  1  0  0  0  0
 14 18  1  0  0  0  0
 14 13  1  0  0  0  0
 15 12  1  0  0  0  0
 17 13  1  0  0  0  0
 19 14  1  0  0  0  0
 20 25  1  0  0  0  0
 20 21  1  0  0  0  0
 20 22  1  0  0  0  0
 23 29  1  0  0  0  0
 23 25  1  0  0  0  0
 24 23  2  0  0  0  0
 25 26  1  0  0  0  0
 27 28  1  0  0  0  0
 28 29  1  0  0  0  0
 29 30  2  0  0  0  0
 30 31  1  0  0  0  0
 32 30  1  0  0  0  0
 32 33  1  0  0  0  0
 34 32  2  0  0  0  0
 35 28  2  0  0  0  0
 35 34  1  0  0  0  0
M  END
>  <minimizedAffinity>
-4.94485807

$$$$

 OpenBabel03242520203D

 35 37  0  0  0  0  0  0  0  0999 V2000
   36.2390   25.0250   39.1540 C   0  0  0  0  0  0  0  0  0  0  0  0
   36.3710   23.9730   38.8040 H   0  0  0  0  0  0  0  0  0  0  0  0
   35.3490   25.0810   39.8010 H   0  0  0  0  0  0  0  0  0  0  0  0
   38.2990   26.4660   41.9790 C   0  0  0  0  0  0  0  0  0  0  0  0
   37.1860   26.0440   41.2210 C   0  0  0  0  0  0  0  0  0  0  0  0
   37.3860   25.4850   39.9720 C   0  0  0  0  0  0  0  0  0  0  0  0
   38.6830   25.3750   39.5400 N   0  0  0  0  0  0  0  0  0  0  0  0
   39.7260   25.7950   40.3050 C   0  0  0  0  0  0  0  0  0  0  0  0
   39.5370   26.3340   41.5090 N   0  0  0  0  0  0  0  0  0  0  0  0
   36.2020   26.1750   41.6510 H   0  0  0  0  0  0  0  0  0  0  0  0
   40.6870   25.6420   39.8280 H   0  0  0  0  0  0  0  0  0  0  0  0
   38.0630   27.0660   43.3140 C   0  0  0  0  0  0  0  0  0  0  0  0
   38.0330   28.6300   43.2590 C   0  0  0  0  0  0  0  0  0  0  0  0
   36.9030   27.7930   43.6800 C   0  0  0  0  0  0  0  0  0  0  0  0
   38.7600   26.6650   44.0970 H   0  0  0  0  0  0  0  0  0  0  0  0
   37.9560   29.0950   42.2640 H   0  0  0  0  0  0  0  0  0  0  0  0
   38.6670   29.1300   44.0170 H   0  0  0  0  0  0  0  0  0  0  0  0
   36.0050   27.7350   43.0010 H   0  0  0  0  0  0  0  0  0  0  0  0
   36.5920   27.8550   44.7410 H   0  0  0  0  0  0  0  0  0  0  0  0
   36.0970   25.8750   37.9160 C   0  0  0  0  0  0  0  0  0  0  0  0
   36.5180   25.3120   37.0790 H   0  0  0  0  0  0  0  0  0  0  0  0
   35.0140   26.0350   37.6440 H   0  0  0  0  0  0  0  0  0  0  0  0
   35.8540   28.3070   37.9050 C   0  0  0  0  0  0  0  0  0  0  0  0
   34.6290   28.2980   37.6010 O   0  0  0  0  0  0  0  0  0  0  0  0
   36.7080   27.1910   38.0810 N   0  0  0  0  0  0  0  0  0  0  0  0
   37.6990   27.2680   38.3090 H   0  0  0  0  0  0  0  0  0  0  0  0
   35.4030   29.2760   40.6800 Cl  0  0  0  0  0  0  0  0  0  0  0  0
   36.2390   30.1240   39.3930 C   0  0  0  0  0  0  0  0  0  0  0  0
   36.4410   29.6520   38.0930 C   0  0  0  0  0  0  0  0  0  0  0  0
   37.1100   30.4120   37.1820 C   0  0  0  0  0  0  0  0  0  0  0  0
   37.2090   29.9530   36.2110 H   0  0  0  0  0  0  0  0  0  0  0  0
   37.5830   31.6550   37.5660 C   0  0  0  0  0  0  0  0  0  0  0  0
   38.1090   32.2230   36.8100 H   0  0  0  0  0  0  0  0  0  0  0  0
   37.3990   32.1460   38.8410 C   0  0  0  0  0  3  0  0  0  0  0  0
   36.7150   31.3630   39.7650 C   0  0  0  0  0  3  0  0  0  0  0  0
  1  3  1  0  0  0  0
  1  6  1  0  0  0  0
  2  1  1  0  0  0  0
  4 12  1  0  0  0  0
  5 10  1  0  0  0  0
  5  4  2  0  0  0  0
  6  5  1  0  0  0  0
  7  6  2  0  0  0  0
  7  8  1  0  0  0  0
  8  9  2  0  0  0  0
  9  4  1  0  0  0  0
 11  8  1  0  0  0  0
 12 14  1  0  0  0  0
 12 15  1  0  0  0  0
 13 12  1  0  0  0  0
 13 14  1  0  0  0  0
 13 17  1  0  0  0  0
 14 19  1  0  0  0  0
 16 13  1  0  0  0  0
 18 14  1  0  0  0  0
 20 25  1  0  0  0  0
 20  1  1  0  0  0  0
 21 20  1  0  0  0  0
 22 20  1  0  0  0  0
 23 25  1  0  0  0  0
 23 29  1  0  0  0  0
 24 23  2  0  0  0  0
 25 26  1  0  0  0  0
 28 35  1  0  0  0  0
 28 27  1  0  0  0  0
 29 28  2  0  0  0  0
 30 32  2  0  0  0  0
 30 29  1  0  0  0  0
 31 30  1  0  0  0  0
 32 34  1  0  0  0  0
 33 32  1  0  0  0  0
 34 35  2  0  0  0  0
M  END
>  <minimizedAffinity>
-4.87828112

$$$$
