
 OpenBabel03252508493D

 28 30  0  0  0  0  0  0  0  0999 V2000
   45.9080   34.1360   41.0270 C   0  0  0  0  0  0  0  0  0  0  0  0
   46.4990   34.7770   42.1090 C   0  0  0  0  0  0  0  0  0  0  0  0
   47.8460   35.1450   41.9550 C   0  0  0  0  0  0  0  0  0  0  0  0
   48.4710   34.8540   40.7760 N   0  0  0  0  0  0  0  0  0  0  0  0
   47.8540   34.2370   39.7740 C   0  0  0  0  0  0  0  0  0  0  0  0
   46.5680   33.8690   39.8790 N   0  0  0  0  0  0  0  0  0  0  0  0
   48.3210   35.6490   42.7960 H   0  0  0  0  0  0  0  0  0  0  0  0
   48.4030   34.0330   38.8640 H   0  0  0  0  0  0  0  0  0  0  0  0
   45.7340   35.0340   43.3100 C   0  0  0  0  0  0  0  0  0  0  0  0
   45.0290   36.2000   43.5190 C   0  0  0  0  0  0  0  0  0  0  0  0
   44.4660   36.0240   44.7610 C   0  0  0  0  0  0  0  0  0  0  0  0
   44.8060   34.8190   45.2840 N   0  0  0  0  0  0  0  0  0  0  0  0
   45.5720   34.2460   44.3840 N   0  0  0  0  0  0  0  0  0  0  0  0
   44.9220   37.0740   42.8730 H   0  0  0  0  0  0  0  0  0  0  0  0
   43.8310   36.7180   45.2930 H   0  0  0  0  0  0  0  0  0  0  0  0
   44.5660   34.3640   46.1850 H   0  0  0  0  0  0  0  0  0  0  0  0
   44.5780   33.7570   41.1390 O   0  0  0  0  0  0  0  0  0  0  0  0
   43.5310   34.1990   40.3780 C   0  0  0  0  0  0  0  0  0  0  0  0
   43.1270   35.4090   40.2260 O   0  0  0  0  0  0  0  0  0  0  0  0
   40.7210   33.7090   41.4120 Cl  0  0  0  0  0  0  0  0  0  0  0  0
   41.3550   32.9610   39.9360 C   0  0  0  0  0  0  0  0  0  0  0  0
   42.6700   33.2800   39.5800 C   0  0  0  0  0  0  0  0  0  0  0  0
   43.0600   32.6480   38.4250 C   0  0  0  0  0  0  0  0  0  0  0  0
   44.0710   32.8300   38.0610 H   0  0  0  0  0  0  0  0  0  0  0  0
   42.2830   31.8050   37.6870 C   0  0  0  0  0  0  0  0  0  0  0  0
   42.6670   31.3490   36.7900 H   0  0  0  0  0  0  0  0  0  0  0  0
   41.0030   31.5550   38.1210 C   0  0  0  0  0  3  0  0  0  0  0  0
   40.5130   32.1360   39.2650 C   0  0  0  0  0  3  0  0  0  0  0  0
  1 17  1  0  0  0  0
  1  2  1  0  0  0  0
  2  9  1  0  0  0  0
  3  2  2  0  0  0  0
  3  7  1  0  0  0  0
  4  3  1  0  0  0  0
  5  6  1  0  0  0  0
  5  4  2  0  0  0  0
  6  1  2  0  0  0  0
  8  5  1  0  0  0  0
  9 10  1  0  0  0  0
  9 13  2  0  0  0  0
 10 11  2  0  0  0  0
 11 12  1  0  0  0  0
 11 15  1  0  0  0  0
 12 16  1  0  0  0  0
 13 12  1  0  0  0  0
 14 10  1  0  0  0  0
 18 17  1  0  0  0  0
 19 18  2  0  0  0  0
 21 20  1  0  0  0  0
 22 21  1  0  0  0  0
 22 18  1  0  0  0  0
 23 22  2  0  0  0  0
 24 23  1  0  0  0  0
 25 27  2  0  0  0  0
 25 23  1  0  0  0  0
 26 25  1  0  0  0  0
 27 28  1  0  0  0  0
 28 21  2  0  0  0  0
M  END
>  <minimizedAffinity>
-5.28675413

>  <minimizedRMSD>
0.521884918

$$$$
