
 OpenBabel03242520443D

 22 23  0  0  0  0  0  0  0  0999 V2000
   44.9220   35.1370   44.2000 C   0  0  0  0  0  0  0  0  0  0  0  0
   45.7010   35.3840   43.0470 C   0  0  0  0  0  0  0  0  0  0  0  0
   46.8830   34.6390   42.8760 C   0  0  0  0  0  0  0  0  0  0  0  0
   47.2010   33.7250   43.8360 N   0  0  0  0  0  0  0  0  0  0  0  0
   46.4200   33.5260   44.9210 C   0  0  0  0  0  0  0  0  0  0  0  0
   45.2920   34.2330   45.0920 N   0  0  0  0  0  0  0  0  0  0  0  0
   43.7410   35.8840   44.3700 N   0  0  0  0  0  0  0  0  0  0  0  0
   45.3560   36.1250   42.3610 H   0  0  0  0  0  0  0  0  0  0  0  0
   46.7110   32.7910   45.6560 H   0  0  0  0  0  0  0  0  0  0  0  0
   43.3430   36.5340   43.6670 H   0  0  0  0  0  0  0  0  0  0  0  0
   43.1870   35.8240   45.2290 H   0  0  0  0  0  0  0  0  0  0  0  0
   47.6570   34.9030   41.7040 C   0  0  0  0  0  0  0  0  0  0  0  0
   48.6570   35.6860   41.6840 O   0  0  0  0  0  0  0  0  0  0  0  0
   45.4120   32.9160   41.1240 Cl  0  0  0  0  0  0  0  0  0  0  0  0
   46.5480   33.4900   39.9400 C   0  0  0  0  0  0  0  0  0  0  0  0
   47.5150   34.3890   40.3390 C   0  0  0  0  0  0  0  0  0  0  0  0
   48.4110   34.8390   39.3960 C   0  0  0  0  0  0  0  0  0  0  0  0
   49.2150   35.5460   39.5900 H   0  0  0  0  0  0  0  0  0  0  0  0
   48.3760   34.4210   38.0630 C   0  0  0  0  0  0  0  0  0  0  0  0
   49.0800   34.7730   37.3210 H   0  0  0  0  0  0  0  0  0  0  0  0
   47.3990   33.5230   37.7010 C   0  0  0  0  0  0  0  0  0  0  0  0
   46.4860   33.0540   38.6230 C   0  0  0  0  0  0  0  0  0  0  0  0
  1  7  1  0  0  0  0
  1  6  1  0  0  0  0
  2  1  2  0  0  0  0
  3  2  1  0  0  0  0
  3  4  2  0  0  0  0
  4  5  1  0  0  0  0
  5  6  2  0  0  0  0
  5  9  1  0  0  0  0
  7 11  1  0  0  0  0
  8  2  1  0  0  0  0
 10  7  1  0  0  0  0
 12  3  1  0  0  0  0
 13 12  2  0  0  0  0
 15 16  1  0  0  0  0
 15 14  1  0  0  0  0
 16 12  1  0  0  0  0
 17 18  1  0  0  0  0
 17 16  2  0  0  0  0
 19 17  1  0  0  0  0
 20 19  1  0  0  0  0
 21 19  2  0  0  0  0
 21 22  1  0  0  0  0
 22 15  2  0  0  0  0
M  END
>  <minimizedAffinity>
-5.34189892

>  <minimizedRMSD>
0.481293291

$$$$
