
 OpenBabel03252503273D

 25 26  0  0  0  0  0  0  0  0999 V2000
   45.2140   34.7010   42.9320 C   0  0  0  0  0  0  0  0  0  0  0  0
   46.2260   35.1700   42.0750 C   0  0  0  0  0  0  0  0  0  0  0  0
   47.5440   34.7600   42.3740 C   0  0  0  0  0  0  0  0  0  0  0  0
   47.7190   33.9620   43.4460 N   0  0  0  0  0  0  0  0  0  0  0  0
   46.7190   33.5350   44.2420 C   0  0  0  0  0  0  0  0  0  0  0  0
   45.4540   33.9160   43.9710 N   0  0  0  0  0  0  0  0  0  0  0  0
   43.3000   34.3290   41.6030 C   0  0  0  0  0  0  0  0  0  0  0  0
   44.0610   33.5120   40.9810 O   0  0  0  0  0  0  0  0  0  0  0  0
   43.8590   35.0730   42.6940 N   0  0  0  0  0  0  0  0  0  0  0  0
   46.0040   35.8140   41.2270 H   0  0  0  0  0  0  0  0  0  0  0  0
   46.9010   32.8930   45.0940 H   0  0  0  0  0  0  0  0  0  0  0  0
   43.2160   35.7490   43.1350 H   0  0  0  0  0  0  0  0  0  0  0  0
   41.6500   31.8560   41.8650 Cl  0  0  0  0  0  0  0  0  0  0  0  0
   41.0630   33.3760   41.2280 C   0  0  0  0  0  0  0  0  0  0  0  0
   41.9030   34.4480   41.1530 C   0  0  0  0  0  0  0  0  0  0  0  0
   41.4950   35.6690   40.6620 C   0  0  0  0  0  0  0  0  0  0  0  0
   42.1360   36.5560   40.5850 H   0  0  0  0  0  0  0  0  0  0  0  0
   40.1780   35.8390   40.2190 C   0  0  0  0  0  0  0  0  0  0  0  0
   39.8090   36.7840   39.8230 H   0  0  0  0  0  0  0  0  0  0  0  0
   39.3240   34.7680   40.2890 C   0  0  0  0  0  0  0  0  0  0  0  0
   39.7540   33.5300   40.7910 C   0  0  0  0  0  0  0  0  0  0  0  0
   48.5730   35.2630   41.4680 C   0  0  0  0  0  0  0  0  0  0  0  0
   49.7410   34.5290   41.6870 F   0  0  0  0  0  0  0  0  0  0  0  0
   48.8820   36.5510   41.8840 F   0  0  0  0  0  0  0  0  0  0  0  0
   48.2550   35.1780   40.1560 F   0  0  0  0  0  0  0  0  0  0  0  0
  1  6  1  0  0  0  0
  2  3  1  0  0  0  0
  2  1  2  0  0  0  0
  3  4  2  0  0  0  0
  4  5  1  0  0  0  0
  5 11  1  0  0  0  0
  6  5  2  0  0  0  0
  7  9  1  0  0  0  0
  8  7  2  0  0  0  0
  9  1  1  0  0  0  0
  9 12  1  0  0  0  0
 10  2  1  0  0  0  0
 14 13  1  0  0  0  0
 15 14  1  0  0  0  0
 15  7  1  0  0  0  0
 16 15  2  0  0  0  0
 17 16  1  0  0  0  0
 18 20  2  0  0  0  0
 18 16  1  0  0  0  0
 19 18  1  0  0  0  0
 20 21  1  0  0  0  0
 21 14  2  0  0  0  0
 22 23  1  0  0  0  0
 22 24  1  0  0  0  0
 22  3  1  0  0  0  0
 25 22  1  0  0  0  0
M  END
>  <minimizedAffinity>
-6.50302124

>  <minimizedRMSD>
1.07435608

$$$$
