
 OpenBabel03252508493D

 28 30  0  0  0  0  0  0  0  0999 V2000
   45.9370   34.1530   41.0370 C   0  0  0  0  0  0  0  0  0  0  0  0
   46.5190   34.7920   42.1250 C   0  0  0  0  0  0  0  0  0  0  0  0
   47.8650   35.1660   41.9810 C   0  0  0  0  0  0  0  0  0  0  0  0
   48.4990   34.8810   40.8050 N   0  0  0  0  0  0  0  0  0  0  0  0
   47.8910   34.2660   39.7980 C   0  0  0  0  0  0  0  0  0  0  0  0
   46.6060   33.8920   39.8930 N   0  0  0  0  0  0  0  0  0  0  0  0
   48.3330   35.6680   42.8270 H   0  0  0  0  0  0  0  0  0  0  0  0
   48.4470   34.0670   38.8900 H   0  0  0  0  0  0  0  0  0  0  0  0
   45.7460   35.0420   43.3220 C   0  0  0  0  0  0  0  0  0  0  0  0
   45.0310   36.2030   43.5290 C   0  0  0  0  0  0  0  0  0  0  0  0
   44.4620   36.0210   44.7670 C   0  0  0  0  0  0  0  0  0  0  0  0
   44.8080   34.8170   45.2910 N   0  0  0  0  0  0  0  0  0  0  0  0
   45.5830   34.2510   44.3940 N   0  0  0  0  0  0  0  0  0  0  0  0
   44.9220   37.0770   42.8840 H   0  0  0  0  0  0  0  0  0  0  0  0
   43.8190   36.7090   45.2970 H   0  0  0  0  0  0  0  0  0  0  0  0
   44.5650   34.3580   46.1890 H   0  0  0  0  0  0  0  0  0  0  0  0
   44.6090   33.7680   41.1390 O   0  0  0  0  0  0  0  0  0  0  0  0
   43.5600   34.2300   40.3920 C   0  0  0  0  0  0  0  0  0  0  0  0
   43.1580   35.4440   40.2680 O   0  0  0  0  0  0  0  0  0  0  0  0
   40.7290   33.7780   41.3860 Cl  0  0  0  0  0  0  0  0  0  0  0  0
   41.3710   33.0310   39.9130 C   0  0  0  0  0  0  0  0  0  0  0  0
   42.6950   33.3310   39.5760 C   0  0  0  0  0  0  0  0  0  0  0  0
   43.0900   32.7010   38.4200 C   0  0  0  0  0  0  0  0  0  0  0  0
   44.1070   32.8710   38.0710 H   0  0  0  0  0  0  0  0  0  0  0  0
   42.3080   31.8760   37.6660 C   0  0  0  0  0  0  0  0  0  0  0  0
   42.6950   31.4220   36.7720 H   0  0  0  0  0  0  0  0  0  0  0  0
   41.0200   31.6450   38.0820 C   0  0  0  0  0  3  0  0  0  0  0  0
   40.5230   32.2240   39.2250 C   0  0  0  0  0  3  0  0  0  0  0  0
  1 17  1  0  0  0  0
  1  2  1  0  0  0  0
  2  9  1  0  0  0  0
  3  2  2  0  0  0  0
  3  7  1  0  0  0  0
  4  3  1  0  0  0  0
  5  6  1  0  0  0  0
  5  4  2  0  0  0  0
  6  1  2  0  0  0  0
  8  5  1  0  0  0  0
  9 10  1  0  0  0  0
  9 13  2  0  0  0  0
 10 11  2  0  0  0  0
 11 12  1  0  0  0  0
 11 15  1  0  0  0  0
 12 16  1  0  0  0  0
 13 12  1  0  0  0  0
 14 10  1  0  0  0  0
 18 17  1  0  0  0  0
 19 18  2  0  0  0  0
 21 20  1  0  0  0  0
 22 21  1  0  0  0  0
 22 18  1  0  0  0  0
 23 22  2  0  0  0  0
 24 23  1  0  0  0  0
 25 27  2  0  0  0  0
 25 23  1  0  0  0  0
 26 25  1  0  0  0  0
 27 28  1  0  0  0  0
 28 21  2  0  0  0  0
M  END
>  <minimizedAffinity>
-5.30279541

>  <minimizedRMSD>
0.168009922

$$$$
