
 OpenBabel03252508493D

 28 30  0  0  0  0  0  0  0  0999 V2000
   45.9070   34.1850   41.0130 C   0  0  0  0  0  0  0  0  0  0  0  0
   46.5070   34.7910   42.1110 C   0  0  0  0  0  0  0  0  0  0  0  0
   47.8600   35.1370   41.9690 C   0  0  0  0  0  0  0  0  0  0  0  0
   48.4840   34.8590   40.7860 N   0  0  0  0  0  0  0  0  0  0  0  0
   47.8600   34.2760   39.7690 C   0  0  0  0  0  0  0  0  0  0  0  0
   46.5670   33.9290   39.8620 N   0  0  0  0  0  0  0  0  0  0  0  0
   48.3420   35.6130   42.8220 H   0  0  0  0  0  0  0  0  0  0  0  0
   48.4080   34.0810   38.8570 H   0  0  0  0  0  0  0  0  0  0  0  0
   45.7430   35.0360   43.3150 C   0  0  0  0  0  0  0  0  0  0  0  0
   45.1080   36.2330   43.5730 C   0  0  0  0  0  0  0  0  0  0  0  0
   44.5180   36.0320   44.7980 C   0  0  0  0  0  0  0  0  0  0  0  0
   44.7760   34.7840   45.2650 N   0  0  0  0  0  0  0  0  0  0  0  0
   45.5170   34.2090   44.3470 N   0  0  0  0  0  0  0  0  0  0  0  0
   45.0640   37.1420   42.9700 H   0  0  0  0  0  0  0  0  0  0  0  0
   43.9190   36.7370   45.3580 H   0  0  0  0  0  0  0  0  0  0  0  0
   44.4950   34.3010   46.1400 H   0  0  0  0  0  0  0  0  0  0  0  0
   44.5710   33.8280   41.1130 O   0  0  0  0  0  0  0  0  0  0  0  0
   43.4940   34.5500   40.6790 C   0  0  0  0  0  0  0  0  0  0  0  0
   43.2860   35.8110   40.8170 O   0  0  0  0  0  0  0  0  0  0  0  0
   42.3250   32.0080   41.8530 Cl  0  0  0  0  0  0  0  0  0  0  0  0
   41.7150   32.7610   40.3700 C   0  0  0  0  0  0  0  0  0  0  0  0
   42.3510   33.9320   39.9470 C   0  0  0  0  0  0  0  0  0  0  0  0
   41.8010   34.4310   38.7910 C   0  0  0  0  0  0  0  0  0  0  0  0
   42.2270   35.3440   38.3780 H   0  0  0  0  0  0  0  0  0  0  0  0
   40.7570   33.8750   38.1110 C   0  0  0  0  0  0  0  0  0  0  0  0
   40.3850   34.3310   37.2110 H   0  0  0  0  0  0  0  0  0  0  0  0
   40.2000   32.7220   38.6100 C   0  0  0  0  0  3  0  0  0  0  0  0
   40.6740   32.1390   39.7610 C   0  0  0  0  0  3  0  0  0  0  0  0
  1 17  1  0  0  0  0
  1  2  1  0  0  0  0
  2  9  1  0  0  0  0
  3  2  2  0  0  0  0
  3  7  1  0  0  0  0
  4  3  1  0  0  0  0
  5  6  1  0  0  0  0
  5  4  2  0  0  0  0
  6  1  2  0  0  0  0
  8  5  1  0  0  0  0
  9 10  1  0  0  0  0
  9 13  2  0  0  0  0
 10 11  2  0  0  0  0
 11 12  1  0  0  0  0
 11 15  1  0  0  0  0
 12 16  1  0  0  0  0
 13 12  1  0  0  0  0
 14 10  1  0  0  0  0
 18 19  2  0  0  0  0
 18 17  1  0  0  0  0
 21 20  1  0  0  0  0
 22 21  1  0  0  0  0
 22 18  1  0  0  0  0
 23 22  2  0  0  0  0
 24 23  1  0  0  0  0
 25 27  2  0  0  0  0
 25 23  1  0  0  0  0
 26 25  1  0  0  0  0
 27 28  1  0  0  0  0
 28 21  2  0  0  0  0
M  END
>  <minimizedAffinity>
-5.47844172

>  <minimizedRMSD>
0.696827829

$$$$
