
 OpenBabel03252508493D

 28 30  0  0  0  0  0  0  0  0999 V2000
   44.2250   33.7270   40.8230 C   0  0  0  0  0  0  0  0  0  0  0  0
   45.2820   34.2440   41.5620 C   0  0  0  0  0  0  0  0  0  0  0  0
   46.5460   34.2070   40.9510 C   0  0  0  0  0  0  0  0  0  0  0  0
   46.6490   33.6760   39.6970 N   0  0  0  0  0  0  0  0  0  0  0  0
   45.6020   33.1950   39.0380 C   0  0  0  0  0  0  0  0  0  0  0  0
   44.3770   33.2110   39.5840 N   0  0  0  0  0  0  0  0  0  0  0  0
   47.3840   34.6100   41.5200 H   0  0  0  0  0  0  0  0  0  0  0  0
   45.7470   32.7860   38.0460 H   0  0  0  0  0  0  0  0  0  0  0  0
   45.0510   34.7830   42.8850 C   0  0  0  0  0  0  0  0  0  0  0  0
   44.8990   36.1310   43.1330 C   0  0  0  0  0  0  0  0  0  0  0  0
   44.7060   36.1940   44.4930 C   0  0  0  0  0  0  0  0  0  0  0  0
   44.7380   34.9550   45.0480 N   0  0  0  0  0  0  0  0  0  0  0  0
   44.9490   34.1260   44.0510 N   0  0  0  0  0  0  0  0  0  0  0  0
   44.9200   36.9730   42.4380 H   0  0  0  0  0  0  0  0  0  0  0  0
   44.5460   37.0810   45.0880 H   0  0  0  0  0  0  0  0  0  0  0  0
   44.6320   34.6340   46.0280 H   0  0  0  0  0  0  0  0  0  0  0  0
   42.9600   33.7460   41.3910 O   0  0  0  0  0  0  0  0  0  0  0  0
   41.9770   34.6720   41.1770 C   0  0  0  0  0  0  0  0  0  0  0  0
   41.6300   35.6410   41.9460 O   0  0  0  0  0  0  0  0  0  0  0  0
   39.3790   33.1090   41.2960 Cl  0  0  0  0  0  0  0  0  0  0  0  0
   39.9080   34.0030   39.8610 C   0  0  0  0  0  0  0  0  0  0  0  0
   41.1290   34.6790   39.9500 C   0  0  0  0  0  0  0  0  0  0  0  0
   41.4430   35.3370   38.7860 C   0  0  0  0  0  0  0  0  0  0  0  0
   42.3770   35.8950   38.7530 H   0  0  0  0  0  0  0  0  0  0  0  0
   40.6760   35.3490   37.6580 C   0  0  0  0  0  0  0  0  0  0  0  0
   40.9960   35.8930   36.7850 H   0  0  0  0  0  0  0  0  0  0  0  0
   39.4920   34.6530   37.6700 C   0  0  0  0  0  3  0  0  0  0  0  0
   39.0830   33.9610   38.7840 C   0  0  0  0  0  3  0  0  0  0  0  0
  1 17  1  0  0  0  0
  1  2  1  0  0  0  0
  2  9  1  0  0  0  0
  3  7  1  0  0  0  0
  3  2  2  0  0  0  0
  4  3  1  0  0  0  0
  5  6  1  0  0  0  0
  5  4  2  0  0  0  0
  6  1  2  0  0  0  0
  8  5  1  0  0  0  0
  9 10  1  0  0  0  0
  9 13  2  0  0  0  0
 10 11  2  0  0  0  0
 11 12  1  0  0  0  0
 11 15  1  0  0  0  0
 12 16  1  0  0  0  0
 13 12  1  0  0  0  0
 14 10  1  0  0  0  0
 18 17  1  0  0  0  0
 18 19  2  0  0  0  0
 21 22  1  0  0  0  0
 21 20  1  0  0  0  0
 22 18  1  0  0  0  0
 23 22  2  0  0  0  0
 24 23  1  0  0  0  0
 25 27  2  0  0  0  0
 25 23  1  0  0  0  0
 26 25  1  0  0  0  0
 27 28  1  0  0  0  0
 28 21  2  0  0  0  0
M  END
>  <minimizedAffinity>
-5.89952898

>  <minimizedRMSD>
2.57627273

$$$$
