
 OpenBabel03252508493D

 28 30  0  0  0  0  0  0  0  0999 V2000
   45.9070   34.1850   41.0130 C   0  0  0  0  0  0  0  0  0  0  0  0
   46.5060   34.7910   42.1100 C   0  0  0  0  0  0  0  0  0  0  0  0
   47.8600   35.1370   41.9680 C   0  0  0  0  0  0  0  0  0  0  0  0
   48.4840   34.8590   40.7850 N   0  0  0  0  0  0  0  0  0  0  0  0
   47.8590   34.2760   39.7690 C   0  0  0  0  0  0  0  0  0  0  0  0
   46.5670   33.9290   39.8620 N   0  0  0  0  0  0  0  0  0  0  0  0
   48.3420   35.6130   42.8210 H   0  0  0  0  0  0  0  0  0  0  0  0
   48.4080   34.0810   38.8560 H   0  0  0  0  0  0  0  0  0  0  0  0
   45.7430   35.0360   43.3140 C   0  0  0  0  0  0  0  0  0  0  0  0
   45.1080   36.2330   43.5730 C   0  0  0  0  0  0  0  0  0  0  0  0
   44.5180   36.0320   44.7980 C   0  0  0  0  0  0  0  0  0  0  0  0
   44.7750   34.7840   45.2650 N   0  0  0  0  0  0  0  0  0  0  0  0
   45.5170   34.2080   44.3460 N   0  0  0  0  0  0  0  0  0  0  0  0
   45.0650   37.1420   42.9690 H   0  0  0  0  0  0  0  0  0  0  0  0
   43.9200   36.7370   45.3570 H   0  0  0  0  0  0  0  0  0  0  0  0
   44.4950   34.3010   46.1390 H   0  0  0  0  0  0  0  0  0  0  0  0
   44.5710   33.8280   41.1120 O   0  0  0  0  0  0  0  0  0  0  0  0
   43.4940   34.5500   40.6780 C   0  0  0  0  0  0  0  0  0  0  0  0
   43.2860   35.8110   40.8150 O   0  0  0  0  0  0  0  0  0  0  0  0
   42.3260   32.0070   41.8530 Cl  0  0  0  0  0  0  0  0  0  0  0  0
   41.7160   32.7610   40.3700 C   0  0  0  0  0  0  0  0  0  0  0  0
   42.3510   33.9320   39.9460 C   0  0  0  0  0  0  0  0  0  0  0  0
   41.8000   34.4300   38.7900 C   0  0  0  0  0  0  0  0  0  0  0  0
   42.2250   35.3430   38.3770 H   0  0  0  0  0  0  0  0  0  0  0  0
   40.7560   33.8730   38.1120 C   0  0  0  0  0  0  0  0  0  0  0  0
   40.3830   34.3290   37.2110 H   0  0  0  0  0  0  0  0  0  0  0  0
   40.1990   32.7210   38.6110 C   0  0  0  0  0  3  0  0  0  0  0  0
   40.6740   32.1380   39.7610 C   0  0  0  0  0  3  0  0  0  0  0  0
  1 17  1  0  0  0  0
  1  2  1  0  0  0  0
  2  9  1  0  0  0  0
  3  2  2  0  0  0  0
  3  7  1  0  0  0  0
  4  3  1  0  0  0  0
  5  6  1  0  0  0  0
  5  4  2  0  0  0  0
  6  1  2  0  0  0  0
  8  5  1  0  0  0  0
  9 10  1  0  0  0  0
  9 13  2  0  0  0  0
 10 11  2  0  0  0  0
 11 12  1  0  0  0  0
 11 15  1  0  0  0  0
 12 16  1  0  0  0  0
 13 12  1  0  0  0  0
 14 10  1  0  0  0  0
 18 19  2  0  0  0  0
 18 17  1  0  0  0  0
 21 20  1  0  0  0  0
 22 21  1  0  0  0  0
 22 18  1  0  0  0  0
 23 22  2  0  0  0  0
 24 23  1  0  0  0  0
 25 27  2  0  0  0  0
 25 23  1  0  0  0  0
 26 25  1  0  0  0  0
 27 28  1  0  0  0  0
 28 21  2  0  0  0  0
M  END
>  <minimizedAffinity>
-5.47832251

>  <minimizedRMSD>
0.703853786

$$$$
