
 OpenBabel03252508023D

 42 45  0  0  1  0  0  0  0  0999 V2000
   42.0180   33.3210   41.0850 C   0  0  0  0  0  0  0  0  0  0  0  0
   42.7890   34.4280   41.3030 C   0  0  0  0  0  0  0  0  0  0  0  0
   42.1480   35.6840   41.3010 C   0  0  0  0  0  0  0  0  0  0  0  0
   40.7990   35.8460   41.0940 C   0  0  0  0  0  0  0  0  0  0  0  0
   40.0340   34.7290   40.8770 C   0  0  0  0  0  0  0  0  0  0  0  0
   40.6490   33.5120   40.8780 C   0  0  0  0  0  0  0  0  0  0  0  0
   42.6740   36.6170   41.4560 H   0  0  0  0  0  0  0  0  0  0  0  0
   40.3220   36.8070   41.0950 H   0  0  0  0  0  0  0  0  0  0  0  0
   38.9680   34.7550   40.7060 H   0  0  0  0  0  0  0  0  0  0  0  0
   40.0300   32.6150   40.7030 H   0  0  0  0  0  0  0  0  0  0  0  0
   42.6390   31.7570   41.1530 S   0  0  0  0  0  0  0  0  0  0  0  0
   41.4590   30.9590   40.5110 O   0  0  0  0  0  0  0  0  0  0  0  0
   42.7980   31.2550   42.5400 O   0  0  0  0  0  0  0  0  0  0  0  0
   43.0970   28.8280   41.8560 Cl  0  0  0  0  0  0  0  0  0  0  0  0
   43.8330   29.5600   40.4130 C   0  0  0  0  0  0  0  0  0  0  0  0
   43.6540   30.9350   40.0900 C   0  0  0  0  0  0  0  0  0  0  0  0
   44.3310   31.2460   38.9170 C   0  0  0  0  0  0  0  0  0  0  0  0
   44.1340   32.3040   38.6620 H   0  0  0  0  0  0  0  0  0  0  0  0
   45.1020   30.4940   38.0660 C   0  0  0  0  0  0  0  0  0  0  0  0
   45.5370   30.9540   37.2020 H   0  0  0  0  0  0  0  0  0  0  0  0
   45.1590   29.2120   38.5370 C   0  0  0  0  0  3  0  0  0  0  0  0
   44.5760   28.6910   39.6540 C   0  0  0  0  0  3  0  0  0  0  0  0
   44.2200   34.3670   41.5320 C   0  0  0  0  0  0  0  0  0  0  0  0
   45.0890   34.2490   40.6180 O   0  0  0  0  0  0  0  0  0  0  0  0
   44.5730   34.4530   42.9290 C   0  0  0  0  0  0  0  0  0  0  0  0
   44.3000   35.7160   43.5610 C   0  0  0  0  0  0  0  0  0  0  0  0
   44.6270   35.8220   44.9010 C   0  0  0  0  0  0  0  0  0  0  0  0
   45.1760   34.7470   45.5230 N   0  0  0  0  0  0  0  0  0  0  0  0
   45.4170   33.5640   44.8730 C   0  0  0  0  0  0  0  0  0  0  0  0
   45.1150   33.4560   43.6240 N   0  0  0  0  0  0  0  0  0  0  0  0
   43.8790   36.5930   43.1470 H   0  0  0  0  0  0  0  0  0  0  0  0
   44.4610   36.7320   45.4710 H   0  0  0  0  0  0  0  0  0  0  0  0
   46.0090   32.4450   45.6340 C   0  0  1  0  0  0  0  0  0  0  0  0
   46.9630   32.7490   46.7650 C   0  0  0  0  0  0  0  0  0  0  0  0
   45.5480   32.3370   47.0380 C   0  0  1  0  0  0  0  0  0  0  0  0
   46.1320   31.4990   45.0830 H   0  0  0  0  0  0  0  0  0  0  0  0
   47.2920   33.7870   46.8780 H   0  0  0  0  0  0  0  0  0  0  0  0
   47.7140   31.9390   46.9550 H   0  0  0  0  0  0  0  0  0  0  0  0
   45.3290   31.3420   47.4490 H   0  0  0  0  0  0  0  0  0  0  0  0
   44.7670   33.4090   47.6340 N   0  0  0  0  0  0  0  0  0  0  0  0
   45.2260   33.8230   48.4550 H   0  0  0  0  0  0  0  0  0  0  0  0
   43.7650   33.1770   47.7320 H   0  0  0  0  0  0  0  0  0  0  0  0
  1 11  1  0  0  0  0
  1  2  1  0  0  0  0
  2 23  1  0  0  0  0
  3  2  2  0  0  0  0
  3  7  1  0  0  0  0
  4  8  1  0  0  0  0
  4  3  1  0  0  0  0
  5  6  1  0  0  0  0
  5  4  2  0  0  0  0
  6  1  2  0  0  0  0
  9  5  1  0  0  0  0
 10  6  1  0  0  0  0
 11 13  2  0  0  0  0
 12 11  2  0  0  0  0
 15 14  1  0  0  0  0
 16 15  1  0  0  0  0
 16 11  1  0  0  0  0
 17 16  2  0  0  0  0
 18 17  1  0  0  0  0
 19 21  2  0  0  0  0
 19 17  1  0  0  0  0
 20 19  1  0  0  0  0
 21 22  1  0  0  0  0
 22 15  2  0  0  0  0
 23 25  1  0  0  0  0
 24 23  2  0  0  0  0
 25 26  2  0  0  0  0
 25 30  1  0  0  0  0
 26 27  1  0  0  0  0
 27 32  1  0  0  0  0
 27 28  2  0  0  0  0
 29 28  1  0  0  0  0
 29 33  1  0  0  0  0
 30 29  2  0  0  0  0
 31 26  1  0  0  0  0
 33 36  1  6  0  0  0
 33 34  1  0  0  0  0
 33 35  1  0  0  0  0
 34 37  1  0  0  0  0
 34 38  1  0  0  0  0
 34 35  1  0  0  0  0
 35 39  1  1  0  0  0
 35 40  1  0  0  0  0
 40 42  1  0  0  0  0
 40 41  1  0  0  0  0
M  END
>  <minimizedAffinity>
-5.75517511

>  <minimizedRMSD>
1.33190167

$$$$
