
 OpenBabel03252508023D

 42 45  0  0  1  0  0  0  0  0999 V2000
   42.0780   33.2640   41.1080 C   0  0  0  0  0  0  0  0  0  0  0  0
   42.8050   34.4030   41.3100 C   0  0  0  0  0  0  0  0  0  0  0  0
   42.1160   35.6330   41.2900 C   0  0  0  0  0  0  0  0  0  0  0  0
   40.7610   35.7390   41.0790 C   0  0  0  0  0  0  0  0  0  0  0  0
   40.0410   34.5900   40.8780 C   0  0  0  0  0  0  0  0  0  0  0  0
   40.7030   33.3980   40.8970 C   0  0  0  0  0  0  0  0  0  0  0  0
   42.6050   36.5880   41.4320 H   0  0  0  0  0  0  0  0  0  0  0  0
   40.2480   36.6810   41.0660 H   0  0  0  0  0  0  0  0  0  0  0  0
   38.9750   34.5720   40.7050 H   0  0  0  0  0  0  0  0  0  0  0  0
   40.1200   32.4750   40.7340 H   0  0  0  0  0  0  0  0  0  0  0  0
   42.7590   31.7260   41.2000 S   0  0  0  0  0  0  0  0  0  0  0  0
   41.7150   30.9080   40.3740 O   0  0  0  0  0  0  0  0  0  0  0  0
   42.7560   31.1700   42.5750 O   0  0  0  0  0  0  0  0  0  0  0  0
   42.8220   32.6740   38.3030 Cl  0  0  0  0  0  0  0  0  0  0  0  0
   43.9830   31.4720   38.9110 C   0  0  0  0  0  0  0  0  0  0  0  0
   43.9450   30.9960   40.2520 C   0  0  0  0  0  0  0  0  0  0  0  0
   44.9590   30.0720   40.4640 C   0  0  0  0  0  0  0  0  0  0  0  0
   44.9390   29.7580   41.5240 H   0  0  0  0  0  0  0  0  0  0  0  0
   45.9360   29.5630   39.6430 C   0  0  0  0  0  0  0  0  0  0  0  0
   46.6260   28.8400   40.0270 H   0  0  0  0  0  0  0  0  0  0  0  0
   45.8140   30.1310   38.4060 C   0  0  0  0  0  3  0  0  0  0  0  0
   44.9030   31.0550   37.9820 C   0  0  0  0  0  3  0  0  0  0  0  0
   44.2370   34.4000   41.5430 C   0  0  0  0  0  0  0  0  0  0  0  0
   45.1110   34.3410   40.6290 O   0  0  0  0  0  0  0  0  0  0  0  0
   44.5830   34.4730   42.9420 C   0  0  0  0  0  0  0  0  0  0  0  0
   44.3050   35.7290   43.5850 C   0  0  0  0  0  0  0  0  0  0  0  0
   44.6260   35.8220   44.9280 C   0  0  0  0  0  0  0  0  0  0  0  0
   45.1740   34.7420   45.5410 N   0  0  0  0  0  0  0  0  0  0  0  0
   45.4200   33.5650   44.8800 C   0  0  0  0  0  0  0  0  0  0  0  0
   45.1240   33.4700   43.6290 N   0  0  0  0  0  0  0  0  0  0  0  0
   43.8850   36.6100   43.1780 H   0  0  0  0  0  0  0  0  0  0  0  0
   44.4560   36.7260   45.5060 H   0  0  0  0  0  0  0  0  0  0  0  0
   46.0100   32.4400   45.6320 C   0  0  1  0  0  0  0  0  0  0  0  0
   46.9660   32.7340   46.7650 C   0  0  0  0  0  0  0  0  0  0  0  0
   45.5500   32.3230   47.0370 C   0  0  1  0  0  0  0  0  0  0  0  0
   46.1300   31.4970   45.0750 H   0  0  0  0  0  0  0  0  0  0  0  0
   47.2980   33.7710   46.8840 H   0  0  0  0  0  0  0  0  0  0  0  0
   47.7160   31.9210   46.9480 H   0  0  0  0  0  0  0  0  0  0  0  0
   45.3300   31.3270   47.4410 H   0  0  0  0  0  0  0  0  0  0  0  0
   44.7730   33.3930   47.6410 N   0  0  0  0  0  0  0  0  0  0  0  0
   45.2340   33.8010   48.4640 H   0  0  0  0  0  0  0  0  0  0  0  0
   43.7710   33.1630   47.7390 H   0  0  0  0  0  0  0  0  0  0  0  0
  1 11  1  0  0  0  0
  1  2  1  0  0  0  0
  2 23  1  0  0  0  0
  3  2  2  0  0  0  0
  3  7  1  0  0  0  0
  4  3  1  0  0  0  0
  5  6  1  0  0  0  0
  5  4  2  0  0  0  0
  6  1  2  0  0  0  0
  8  4  1  0  0  0  0
  9  5  1  0  0  0  0
 10  6  1  0  0  0  0
 11 13  2  0  0  0  0
 12 11  2  0  0  0  0
 14 15  1  0  0  0  0
 15 16  1  0  0  0  0
 16 17  2  0  0  0  0
 16 11  1  0  0  0  0
 17 18  1  0  0  0  0
 19 20  1  0  0  0  0
 19 17  1  0  0  0  0
 21 19  2  0  0  0  0
 22 21  1  0  0  0  0
 22 15  2  0  0  0  0
 23 25  1  0  0  0  0
 24 23  2  0  0  0  0
 25 26  2  0  0  0  0
 25 30  1  0  0  0  0
 26 27  1  0  0  0  0
 27 32  1  0  0  0  0
 27 28  2  0  0  0  0
 29 28  1  0  0  0  0
 29 33  1  0  0  0  0
 30 29  2  0  0  0  0
 31 26  1  0  0  0  0
 33 36  1  6  0  0  0
 33 34  1  0  0  0  0
 33 35  1  0  0  0  0
 34 37  1  0  0  0  0
 34 38  1  0  0  0  0
 34 35  1  0  0  0  0
 35 39  1  1  0  0  0
 35 40  1  0  0  0  0
 40 42  1  0  0  0  0
 40 41  1  0  0  0  0
M  END
>  <minimizedAffinity>
-5.87783527

>  <minimizedRMSD>
1.23070085

$$$$
