
 OpenBabel03252508023D

 42 45  0  0  1  0  0  0  0  0999 V2000
   42.0410   33.2720   41.1280 C   0  0  0  0  0  0  0  0  0  0  0  0
   42.8010   34.3940   41.3110 C   0  0  0  0  0  0  0  0  0  0  0  0
   42.1470   35.6420   41.2700 C   0  0  0  0  0  0  0  0  0  0  0  0
   40.7960   35.7830   41.0580 C   0  0  0  0  0  0  0  0  0  0  0  0
   40.0430   34.6520   40.8760 C   0  0  0  0  0  0  0  0  0  0  0  0
   40.6700   33.4420   40.9150 C   0  0  0  0  0  0  0  0  0  0  0  0
   42.6630   36.5850   41.3960 H   0  0  0  0  0  0  0  0  0  0  0  0
   40.3100   36.7390   41.0290 H   0  0  0  0  0  0  0  0  0  0  0  0
   38.9770   34.6620   40.7050 H   0  0  0  0  0  0  0  0  0  0  0  0
   40.0610   32.5340   40.7680 H   0  0  0  0  0  0  0  0  0  0  0  0
   42.6780   31.7180   41.2460 S   0  0  0  0  0  0  0  0  0  0  0  0
   41.5350   30.8950   40.5700 O   0  0  0  0  0  0  0  0  0  0  0  0
   42.7890   31.2390   42.6450 O   0  0  0  0  0  0  0  0  0  0  0  0
   43.1580   28.8100   42.0220 Cl  0  0  0  0  0  0  0  0  0  0  0  0
   43.9330   29.5270   40.5930 C   0  0  0  0  0  0  0  0  0  0  0  0
   43.7440   30.8920   40.2360 C   0  0  0  0  0  0  0  0  0  0  0  0
   44.4590   31.1920   39.0830 C   0  0  0  0  0  0  0  0  0  0  0  0
   44.2540   32.2420   38.8010 H   0  0  0  0  0  0  0  0  0  0  0  0
   45.2730   30.4360   38.2750 C   0  0  0  0  0  0  0  0  0  0  0  0
   45.7320   30.8870   37.4190 H   0  0  0  0  0  0  0  0  0  0  0  0
   45.3330   29.1650   38.7730 C   0  0  0  0  0  3  0  0  0  0  0  0
   44.7170   28.6560   39.8790 C   0  0  0  0  0  3  0  0  0  0  0  0
   44.2320   34.3540   41.5430 C   0  0  0  0  0  0  0  0  0  0  0  0
   45.1040   34.2520   40.6290 O   0  0  0  0  0  0  0  0  0  0  0  0
   44.5820   34.4430   42.9400 C   0  0  0  0  0  0  0  0  0  0  0  0
   44.3040   35.7060   43.5690 C   0  0  0  0  0  0  0  0  0  0  0  0
   44.6280   35.8150   44.9100 C   0  0  0  0  0  0  0  0  0  0  0  0
   45.1790   34.7420   45.5340 N   0  0  0  0  0  0  0  0  0  0  0  0
   45.4250   33.5590   44.8860 C   0  0  0  0  0  0  0  0  0  0  0  0
   45.1260   33.4490   43.6370 N   0  0  0  0  0  0  0  0  0  0  0  0
   43.8820   36.5810   43.1530 H   0  0  0  0  0  0  0  0  0  0  0  0
   44.4590   36.7250   45.4780 H   0  0  0  0  0  0  0  0  0  0  0  0
   46.0180   32.4420   45.6500 C   0  0  1  0  0  0  0  0  0  0  0  0
   46.9670   32.7510   46.7850 C   0  0  0  0  0  0  0  0  0  0  0  0
   45.5520   32.3340   47.0530 C   0  0  1  0  0  0  0  0  0  0  0  0
   46.1470   31.4960   45.1010 H   0  0  0  0  0  0  0  0  0  0  0  0
   47.2910   33.7900   46.8980 H   0  0  0  0  0  0  0  0  0  0  0  0
   47.7200   31.9430   46.9780 H   0  0  0  0  0  0  0  0  0  0  0  0
   45.3360   31.3380   47.4640 H   0  0  0  0  0  0  0  0  0  0  0  0
   44.7650   33.4030   47.6450 N   0  0  0  0  0  0  0  0  0  0  0  0
   45.2190   33.8200   48.4680 H   0  0  0  0  0  0  0  0  0  0  0  0
   43.7640   33.1680   47.7400 H   0  0  0  0  0  0  0  0  0  0  0  0
  1 11  1  0  0  0  0
  1  2  1  0  0  0  0
  2 23  1  0  0  0  0
  3  2  2  0  0  0  0
  3  7  1  0  0  0  0
  4  3  1  0  0  0  0
  5  6  1  0  0  0  0
  5  4  2  0  0  0  0
  6  1  2  0  0  0  0
  8  4  1  0  0  0  0
  9  5  1  0  0  0  0
 10  6  1  0  0  0  0
 11 13  2  0  0  0  0
 12 11  2  0  0  0  0
 15 14  1  0  0  0  0
 16 15  1  0  0  0  0
 16 11  1  0  0  0  0
 17 16  2  0  0  0  0
 18 17  1  0  0  0  0
 19 21  2  0  0  0  0
 19 17  1  0  0  0  0
 20 19  1  0  0  0  0
 21 22  1  0  0  0  0
 22 15  2  0  0  0  0
 23 25  1  0  0  0  0
 24 23  2  0  0  0  0
 25 26  2  0  0  0  0
 25 30  1  0  0  0  0
 26 27  1  0  0  0  0
 27 32  1  0  0  0  0
 27 28  2  0  0  0  0
 29 28  1  0  0  0  0
 29 33  1  0  0  0  0
 30 29  2  0  0  0  0
 31 26  1  0  0  0  0
 33 36  1  6  0  0  0
 33 34  1  0  0  0  0
 33 35  1  0  0  0  0
 34 37  1  0  0  0  0
 34 38  1  0  0  0  0
 34 35  1  0  0  0  0
 35 39  1  1  0  0  0
 35 40  1  0  0  0  0
 40 42  1  0  0  0  0
 40 41  1  0  0  0  0
M  END
>  <minimizedAffinity>
-5.72364092

>  <minimizedRMSD>
1.23107922

$$$$
