
 OpenBabel03252508023D

 42 45  0  0  1  0  0  0  0  0999 V2000
   42.0760   33.2650   41.1720 C   0  0  0  0  0  0  0  0  0  0  0  0
   42.8190   34.4020   41.3290 C   0  0  0  0  0  0  0  0  0  0  0  0
   42.1480   35.6390   41.2530 C   0  0  0  0  0  0  0  0  0  0  0  0
   40.7960   35.7560   41.0310 C   0  0  0  0  0  0  0  0  0  0  0  0
   40.0600   34.6100   40.8760 C   0  0  0  0  0  0  0  0  0  0  0  0
   40.7040   33.4100   40.9490 C   0  0  0  0  0  0  0  0  0  0  0  0
   42.6510   36.5920   41.3560 H   0  0  0  0  0  0  0  0  0  0  0  0
   40.2970   36.7040   40.9750 H   0  0  0  0  0  0  0  0  0  0  0  0
   38.9950   34.6000   40.6990 H   0  0  0  0  0  0  0  0  0  0  0  0
   40.1080   32.4900   40.8230 H   0  0  0  0  0  0  0  0  0  0  0  0
   42.7340   31.7230   41.3340 S   0  0  0  0  0  0  0  0  0  0  0  0
   41.9850   30.9770   40.1840 O   0  0  0  0  0  0  0  0  0  0  0  0
   42.3530   31.0580   42.6030 O   0  0  0  0  0  0  0  0  0  0  0  0
   44.4120   30.1860   43.3600 Cl  0  0  0  0  0  0  0  0  0  0  0  0
   44.9130   30.3270   41.6600 C   0  0  0  0  0  0  0  0  0  0  0  0
   44.1540   31.0690   40.7090 C   0  0  0  0  0  0  0  0  0  0  0  0
   44.7640   31.0160   39.4620 C   0  0  0  0  0  0  0  0  0  0  0  0
   44.1290   31.5560   38.7330 H   0  0  0  0  0  0  0  0  0  0  0  0
   45.9090   30.4050   39.0150 C   0  0  0  0  0  0  0  0  0  0  0  0
   46.1930   30.5010   37.9880 H   0  0  0  0  0  0  0  0  0  0  0  0
   46.4960   29.7470   40.0600 C   0  0  0  0  0  3  0  0  0  0  0  0
   46.0750   29.6650   41.3560 C   0  0  0  0  0  3  0  0  0  0  0  0
   44.2490   34.3880   41.5690 C   0  0  0  0  0  0  0  0  0  0  0  0
   45.1280   34.3150   40.6590 O   0  0  0  0  0  0  0  0  0  0  0  0
   44.5900   34.4670   42.9690 C   0  0  0  0  0  0  0  0  0  0  0  0
   44.2980   35.7230   43.6070 C   0  0  0  0  0  0  0  0  0  0  0  0
   44.6130   35.8220   44.9510 C   0  0  0  0  0  0  0  0  0  0  0  0
   45.1690   34.7490   45.5690 N   0  0  0  0  0  0  0  0  0  0  0  0
   45.4280   33.5730   44.9130 C   0  0  0  0  0  0  0  0  0  0  0  0
   45.1370   33.4710   43.6610 N   0  0  0  0  0  0  0  0  0  0  0  0
   43.8720   36.5990   43.1960 H   0  0  0  0  0  0  0  0  0  0  0  0
   44.4330   36.7270   45.5260 H   0  0  0  0  0  0  0  0  0  0  0  0
   46.0240   32.4540   45.6700 C   0  0  1  0  0  0  0  0  0  0  0  0
   46.9710   32.7600   46.8070 C   0  0  0  0  0  0  0  0  0  0  0  0
   45.5580   32.3350   47.0720 C   0  0  1  0  0  0  0  0  0  0  0  0
   46.1580   31.5120   45.1150 H   0  0  0  0  0  0  0  0  0  0  0  0
   47.2910   33.8000   46.9270 H   0  0  0  0  0  0  0  0  0  0  0  0
   47.7280   31.9540   46.9960 H   0  0  0  0  0  0  0  0  0  0  0  0
   45.3450   31.3370   47.4770 H   0  0  0  0  0  0  0  0  0  0  0  0
   44.7660   33.3980   47.6700 N   0  0  0  0  0  0  0  0  0  0  0  0
   45.2180   33.8120   48.4950 H   0  0  0  0  0  0  0  0  0  0  0  0
   43.7660   33.1580   47.7620 H   0  0  0  0  0  0  0  0  0  0  0  0
  1  2  1  0  0  0  0
  1 11  1  0  0  0  0
  2 23  1  0  0  0  0
  3  2  2  0  0  0  0
  3  7  1  0  0  0  0
  4  3  1  0  0  0  0
  5  6  1  0  0  0  0
  5  4  2  0  0  0  0
  6  1  2  0  0  0  0
  8  4  1  0  0  0  0
  9  5  1  0  0  0  0
 10  6  1  0  0  0  0
 11 13  2  0  0  0  0
 12 11  2  0  0  0  0
 15 14  1  0  0  0  0
 16 11  1  0  0  0  0
 16 15  2  0  0  0  0
 17 16  1  0  0  0  0
 18 17  1  0  0  0  0
 19 17  2  0  0  0  0
 19 21  1  0  0  0  0
 20 19  1  0  0  0  0
 21 22  2  0  0  0  0
 22 15  1  0  0  0  0
 23 25  1  0  0  0  0
 24 23  2  0  0  0  0
 25 26  2  0  0  0  0
 25 30  1  0  0  0  0
 26 27  1  0  0  0  0
 27 32  1  0  0  0  0
 27 28  2  0  0  0  0
 29 28  1  0  0  0  0
 29 33  1  0  0  0  0
 30 29  2  0  0  0  0
 31 26  1  0  0  0  0
 33 36  1  6  0  0  0
 33 34  1  0  0  0  0
 33 35  1  0  0  0  0
 34 37  1  0  0  0  0
 34 38  1  0  0  0  0
 34 35  1  0  0  0  0
 35 39  1  1  0  0  0
 35 40  1  0  0  0  0
 40 42  1  0  0  0  0
 40 41  1  0  0  0  0
M  END
>  <minimizedAffinity>
-5.79869699

>  <minimizedRMSD>
0.837519765

$$$$
