
 OpenBabel03242523303D

 22 23  0  0  0  0  0  0  0  0999 V2000
   45.7170   33.1480   46.8460 C   0  0  0  0  0  0  0  0  0  0  0  0
   44.7060   32.9220   47.2880 H   0  0  0  0  0  0  0  0  0  0  0  0
   46.3270   33.6230   47.6430 H   0  0  0  0  0  0  0  0  0  0  0  0
   44.5530   35.8380   44.5850 C   0  0  0  0  0  0  0  0  0  0  0  0
   45.2520   35.5810   43.4260 C   0  0  0  0  0  0  0  0  0  0  0  0
   46.1060   34.4940   43.4400 C   0  0  0  0  0  0  0  0  0  0  0  0
   46.2360   33.7260   44.5520 N   0  0  0  0  0  0  0  0  0  0  0  0
   45.5130   34.0270   45.6820 C   0  0  0  0  0  0  0  0  0  0  0  0
   44.6940   35.0710   45.6720 N   0  0  0  0  0  0  0  0  0  0  0  0
   43.8350   36.6550   44.7500 H   0  0  0  0  0  0  0  0  0  0  0  0
   45.0670   36.2510   42.6210 H   0  0  0  0  0  0  0  0  0  0  0  0
   46.6530   34.2960   42.5290 H   0  0  0  0  0  0  0  0  0  0  0  0
   46.5400   31.6670   46.2730 S   0  0  0  0  0  0  0  0  0  0  0  0
   45.0920   29.7440   48.5120 Cl  0  0  0  0  0  0  0  0  0  0  0  0
   44.8750   29.3680   46.8310 C   0  0  0  0  0  0  0  0  0  0  0  0
   45.5390   30.2560   46.0220 C   0  0  0  0  0  0  0  0  0  0  0  0
   45.4340   30.0200   44.6400 C   0  0  0  0  0  0  0  0  0  0  0  0
   45.8550   30.5610   43.7790 H   0  0  0  0  0  0  0  0  0  0  0  0
   44.6910   28.9400   44.1450 C   0  0  0  0  0  0  0  0  0  0  0  0
   44.5440   28.6660   43.1160 H   0  0  0  0  0  0  0  0  0  0  0  0
   44.0470   28.0850   45.0160 C   0  0  0  0  0  3  0  0  0  0  0  0
   44.1400   28.3010   46.3740 C   0  0  0  0  0  3  0  0  0  0  0  0
  1  2  1  0  0  0  0
  1  3  1  0  0  0  0
  4 10  1  0  0  0  0
  4  9  1  0  0  0  0
  5  6  1  0  0  0  0
  5  4  2  0  0  0  0
  6  7  2  0  0  0  0
  7  8  1  0  0  0  0
  8  1  1  0  0  0  0
  9  8  2  0  0  0  0
 11  5  1  0  0  0  0
 12  6  1  0  0  0  0
 13  1  1  0  0  0  0
 15 14  1  0  0  0  0
 16 13  1  0  0  0  0
 16 15  2  0  0  0  0
 17 16  1  0  0  0  0
 18 17  1  0  0  0  0
 19 17  2  0  0  0  0
 19 21  1  0  0  0  0
 20 19  1  0  0  0  0
 21 22  2  0  0  0  0
 22 15  1  0  0  0  0
M  END
>  <minimizedAffinity>
-3.96487188

>  <minimizedRMSD>
1.66954303

$$$$
