
 OpenBabel03242523293D

 22 23  0  0  0  0  0  0  0  0999 V2000
   45.4590   33.3700   46.7130 C   0  0  0  0  0  0  0  0  0  0  0  0
   44.4960   32.7900   46.7720 H   0  0  0  0  0  0  0  0  0  0  0  0
   45.5540   33.9480   47.6560 H   0  0  0  0  0  0  0  0  0  0  0  0
   44.6230   36.0610   44.3120 C   0  0  0  0  0  0  0  0  0  0  0  0
   45.3950   35.7380   43.2180 C   0  0  0  0  0  0  0  0  0  0  0  0
   46.1830   34.6090   43.3210 C   0  0  0  0  0  0  0  0  0  0  0  0
   46.1850   33.8620   44.4560 N   0  0  0  0  0  0  0  0  0  0  0  0
   45.3940   34.2290   45.5180 C   0  0  0  0  0  0  0  0  0  0  0  0
   44.6370   35.3140   45.4230 N   0  0  0  0  0  0  0  0  0  0  0  0
   43.9400   36.9190   44.4040 H   0  0  0  0  0  0  0  0  0  0  0  0
   45.3090   36.3980   42.3870 H   0  0  0  0  0  0  0  0  0  0  0  0
   46.7880   34.3590   42.4600 H   0  0  0  0  0  0  0  0  0  0  0  0
   46.8760   32.2930   46.5330 S   0  0  0  0  0  0  0  0  0  0  0  0
   48.5780   29.7380   45.3570 Cl  0  0  0  0  0  0  0  0  0  0  0  0
   47.2140   29.4230   46.3840 C   0  0  0  0  0  0  0  0  0  0  0  0
   46.6060   30.5860   46.7920 C   0  0  0  0  0  0  0  0  0  0  0  0
   45.4780   30.4270   47.6170 C   0  0  0  0  0  0  0  0  0  0  0  0
   44.8110   31.1710   48.0800 H   0  0  0  0  0  0  0  0  0  0  0  0
   45.0240   29.1550   47.9860 C   0  0  0  0  0  0  0  0  0  0  0  0
   44.1790   28.9190   48.6070 H   0  0  0  0  0  0  0  0  0  0  0  0
   45.6840   28.0280   47.5400 C   0  0  0  0  0  3  0  0  0  0  0  0
   46.7910   28.1630   46.7300 C   0  0  0  0  0  3  0  0  0  0  0  0
  1  2  1  0  0  0  0
  1  3  1  0  0  0  0
  4 10  1  0  0  0  0
  4  9  1  0  0  0  0
  5  6  1  0  0  0  0
  5  4  2  0  0  0  0
  6  7  2  0  0  0  0
  7  8  1  0  0  0  0
  8  1  1  0  0  0  0
  9  8  2  0  0  0  0
 11  5  1  0  0  0  0
 12  6  1  0  0  0  0
 13  1  1  0  0  0  0
 13 16  1  0  0  0  0
 14 15  1  0  0  0  0
 15 22  2  0  0  0  0
 15 16  1  0  0  0  0
 16 17  2  0  0  0  0
 17 19  1  0  0  0  0
 17 18  1  0  0  0  0
 19 20  1  0  0  0  0
 21 19  2  0  0  0  0
 22 21  1  0  0  0  0
M  END
>  <minimizedAffinity>
-4.0939579

>  <minimizedRMSD>
2.64125991

$$$$
