
 OpenBabel03242523293D

 22 23  0  0  0  0  0  0  0  0999 V2000
   45.5670   33.2130   46.8780 C   0  0  0  0  0  0  0  0  0  0  0  0
   44.5320   32.9200   47.2110 H   0  0  0  0  0  0  0  0  0  0  0  0
   46.0560   33.7260   47.7320 H   0  0  0  0  0  0  0  0  0  0  0  0
   44.5800   35.9060   44.5370 C   0  0  0  0  0  0  0  0  0  0  0  0
   45.2980   35.5960   43.4030 C   0  0  0  0  0  0  0  0  0  0  0  0
   46.1030   34.4750   43.4600 C   0  0  0  0  0  0  0  0  0  0  0  0
   46.1710   33.7230   44.5890 N   0  0  0  0  0  0  0  0  0  0  0  0
   45.4310   34.0770   45.6930 C   0  0  0  0  0  0  0  0  0  0  0  0
   44.6590   35.1540   45.6420 N   0  0  0  0  0  0  0  0  0  0  0  0
   43.8940   36.7550   44.6680 H   0  0  0  0  0  0  0  0  0  0  0  0
   45.1620   36.2590   42.5820 H   0  0  0  0  0  0  0  0  0  0  0  0
   46.6650   34.2360   42.5670 H   0  0  0  0  0  0  0  0  0  0  0  0
   46.5410   31.7890   46.4060 S   0  0  0  0  0  0  0  0  0  0  0  0
   45.1470   30.3320   43.8080 Cl  0  0  0  0  0  0  0  0  0  0  0  0
   45.0890   29.5230   45.3430 C   0  0  0  0  0  0  0  0  0  0  0  0
   45.7090   30.2540   46.3280 C   0  0  0  0  0  0  0  0  0  0  0  0
   45.6960   29.6830   47.6120 C   0  0  0  0  0  0  0  0  0  0  0  0
   46.1080   30.0410   48.5670 H   0  0  0  0  0  0  0  0  0  0  0  0
   45.0840   28.4450   47.8480 C   0  0  0  0  0  0  0  0  0  0  0  0
   45.0150   27.9190   48.7820 H   0  0  0  0  0  0  0  0  0  0  0  0
   44.4790   27.7620   46.8110 C   0  0  0  0  0  3  0  0  0  0  0  0
   44.4810   28.3080   45.5460 C   0  0  0  0  0  3  0  0  0  0  0  0
  1  2  1  0  0  0  0
  1  3  1  0  0  0  0
  4 10  1  0  0  0  0
  4  9  1  0  0  0  0
  5  6  1  0  0  0  0
  5  4  2  0  0  0  0
  6  7  2  0  0  0  0
  7  8  1  0  0  0  0
  8  1  1  0  0  0  0
  9  8  2  0  0  0  0
 11  5  1  0  0  0  0
 12  6  1  0  0  0  0
 13  1  1  0  0  0  0
 14 15  1  0  0  0  0
 15 22  2  0  0  0  0
 15 16  1  0  0  0  0
 16 13  1  0  0  0  0
 16 17  2  0  0  0  0
 17 19  1  0  0  0  0
 17 18  1  0  0  0  0
 19 20  1  0  0  0  0
 21 19  2  0  0  0  0
 22 21  1  0  0  0  0
M  END
>  <minimizedAffinity>
-4.00509071

>  <minimizedRMSD>
2.03566766

$$$$
