
 OpenBabel03242519373D

 27 28  0  0  0  0  0  0  0  0999 V2000
   48.3380   32.8100   41.3690 O   0  0  0  0  0  0  0  0  0  0  0  0
   47.2360   33.8710   41.2890 P   0  0  2  0  0  0  0  0  0  0  0  0
   45.8750   33.2990   42.1790 O   0  0  0  0  0  0  0  0  0  0  0  0
   44.4080   35.8540   44.3520 C   0  0  0  0  0  0  0  0  0  0  0  0
   44.8020   35.1870   43.1720 C   0  0  0  0  0  0  0  0  0  0  0  0
   45.4780   33.9710   43.3220 C   0  0  0  0  0  0  0  0  0  0  0  0
   45.7090   33.5160   44.5720 N   0  0  0  0  0  0  0  0  0  0  0  0
   45.3200   34.1770   45.6780 C   0  0  0  0  0  0  0  0  0  0  0  0
   44.6670   35.3500   45.5730 N   0  0  0  0  0  0  0  0  0  0  0  0
   43.8740   36.8110   44.2890 H   0  0  0  0  0  0  0  0  0  0  0  0
   44.5640   35.6450   42.2080 H   0  0  0  0  0  0  0  0  0  0  0  0
   45.6100   33.6280   46.5670 H   0  0  0  0  0  0  0  0  0  0  0  0
   46.7630   34.1920   39.7270 O   0  0  0  0  0  0  0  0  0  0  0  0
   48.4200   34.6120   37.3250 Cl  0  0  0  0  0  0  0  0  0  0  0  0
   47.4290   33.2250   37.6240 C   0  0  0  0  0  0  0  0  0  0  0  0
   46.7000   33.1530   38.7950 C   0  0  0  0  0  0  0  0  0  0  0  0
   45.9020   32.0280   39.0300 C   0  0  0  0  0  0  0  0  0  0  0  0
   45.3160   31.9590   39.9580 H   0  0  0  0  0  0  0  0  0  0  0  0
   45.8240   30.9810   38.1140 C   0  0  0  0  0  0  0  0  0  0  0  0
   45.1670   30.1430   38.3950 H   0  0  0  0  0  0  0  0  0  0  0  0
   46.5500   31.0490   36.9470 C   0  0  0  0  0  3  0  0  0  0  0  0
   47.3160   32.1700   36.7600 C   0  0  0  0  0  3  0  0  0  0  0  0
   47.8040   35.2580   42.0720 O   0  0  0  0  0  0  0  0  0  0  0  0
   49.0010   35.7090   41.5510 C   0  0  0  0  0  0  0  0  0  0  0  0
   49.2900   37.0200   41.8860 F   0  0  0  0  0  0  0  0  0  0  0  0
   50.0190   34.8320   41.8930 F   0  0  0  0  0  0  0  0  0  0  0  0
   48.8680   35.6710   40.1650 F   0  0  0  0  0  0  0  0  0  0  0  0
  2  1  2  6  0  0  0
  2 23  1  0  0  0  0
  2  3  1  0  0  0  0
  3  6  1  0  0  0  0
  4  9  1  0  0  0  0
  5  6  1  0  0  0  0
  5  4  2  0  0  0  0
  6  7  2  0  0  0  0
  7  8  1  0  0  0  0
  8 12  1  0  0  0  0
  9  8  2  0  0  0  0
 10  4  1  0  0  0  0
 11  5  1  0  0  0  0
 13  2  1  0  0  0  0
 14 15  1  0  0  0  0
 15 16  1  0  0  0  0
 16 17  2  0  0  0  0
 16 13  1  0  0  0  0
 17 18  1  0  0  0  0
 19 20  1  0  0  0  0
 19 17  1  0  0  0  0
 21 19  2  0  0  0  0
 22 21  1  0  0  0  0
 22 15  2  0  0  0  0
 24 25  1  0  0  0  0
 24 26  1  0  0  0  0
 24 23  1  0  0  0  0
 27 24  1  0  0  0  0
M  END
>  <minimizedAffinity>
-5.36637211

>  <minimizedRMSD>
0.750911057

$$$$
