
 OpenBabel03242523293D

 22 23  0  0  0  0  0  0  0  0999 V2000
   45.5600   33.1650   46.9020 C   0  0  0  0  0  0  0  0  0  0  0  0
   44.5880   32.6100   47.0240 H   0  0  0  0  0  0  0  0  0  0  0  0
   45.7390   33.7270   47.8430 H   0  0  0  0  0  0  0  0  0  0  0  0
   44.5840   35.8830   44.5850 C   0  0  0  0  0  0  0  0  0  0  0  0
   45.3150   35.5910   43.4540 C   0  0  0  0  0  0  0  0  0  0  0  0
   46.1250   34.4730   43.5060 C   0  0  0  0  0  0  0  0  0  0  0  0
   46.1850   33.7070   44.6260 N   0  0  0  0  0  0  0  0  0  0  0  0
   45.4330   34.0440   45.7270 C   0  0  0  0  0  0  0  0  0  0  0  0
   44.6560   35.1180   45.6820 N   0  0  0  0  0  0  0  0  0  0  0  0
   43.8940   36.7280   44.7200 H   0  0  0  0  0  0  0  0  0  0  0  0
   45.1860   36.2630   42.6400 H   0  0  0  0  0  0  0  0  0  0  0  0
   46.6970   34.2480   42.6160 H   0  0  0  0  0  0  0  0  0  0  0  0
   46.9290   32.0540   46.6060 S   0  0  0  0  0  0  0  0  0  0  0  0
   49.1200   29.6080   46.7780 Cl  0  0  0  0  0  0  0  0  0  0  0  0
   47.4440   29.2400   47.0400 C   0  0  0  0  0  0  0  0  0  0  0  0
   46.6540   30.3590   46.9330 C   0  0  0  0  0  0  0  0  0  0  0  0
   45.2750   30.1540   47.1140 C   0  0  0  0  0  0  0  0  0  0  0  0
   44.4290   30.8560   47.0840 H   0  0  0  0  0  0  0  0  0  0  0  0
   44.7620   28.8780   47.3850 C   0  0  0  0  0  0  0  0  0  0  0  0
   43.7350   28.6080   47.5400 H   0  0  0  0  0  0  0  0  0  0  0  0
   45.6140   27.7950   47.4800 C   0  0  0  0  0  3  0  0  0  0  0  0
   46.9690   27.9780   47.3050 C   0  0  0  0  0  3  0  0  0  0  0  0
  1  2  1  0  0  0  0
  1  3  1  0  0  0  0
  4 10  1  0  0  0  0
  4  9  1  0  0  0  0
  5  6  1  0  0  0  0
  5  4  2  0  0  0  0
  6  7  2  0  0  0  0
  7  8  1  0  0  0  0
  8  1  1  0  0  0  0
  9  8  2  0  0  0  0
 11  5  1  0  0  0  0
 12  6  1  0  0  0  0
 13  1  1  0  0  0  0
 13 16  1  0  0  0  0
 14 15  1  0  0  0  0
 15 22  1  0  0  0  0
 16 15  2  0  0  0  0
 16 17  1  0  0  0  0
 17 19  2  0  0  0  0
 18 17  1  0  0  0  0
 19 21  1  0  0  0  0
 19 20  1  0  0  0  0
 22 21  2  0  0  0  0
M  END
>  <minimizedAffinity>
-4.04310369

>  <minimizedRMSD>
2.82262564

$$$$
