
 OpenBabel03242523303D

 22 23  0  0  0  0  0  0  0  0999 V2000
   45.1080   33.8990   46.6850 C   0  0  0  0  0  0  0  0  0  0  0  0
   44.0680   33.4760   46.7690 H   0  0  0  0  0  0  0  0  0  0  0  0
   45.2470   34.6040   47.5310 H   0  0  0  0  0  0  0  0  0  0  0  0
   44.7030   36.2010   43.8130 C   0  0  0  0  0  0  0  0  0  0  0  0
   45.5570   35.6650   42.8750 C   0  0  0  0  0  0  0  0  0  0  0  0
   46.2530   34.5290   43.2420 C   0  0  0  0  0  0  0  0  0  0  0  0
   46.0890   33.9780   44.4720 N   0  0  0  0  0  0  0  0  0  0  0  0
   45.2220   34.5540   45.3700 C   0  0  0  0  0  0  0  0  0  0  0  0
   44.5540   35.6460   45.0230 N   0  0  0  0  0  0  0  0  0  0  0  0
   44.0740   37.0950   43.6930 H   0  0  0  0  0  0  0  0  0  0  0  0
   45.6010   36.1830   41.9480 H   0  0  0  0  0  0  0  0  0  0  0  0
   46.9230   34.1110   42.5020 H   0  0  0  0  0  0  0  0  0  0  0  0
   46.3560   32.6210   46.7670 S   0  0  0  0  0  0  0  0  0  0  0  0
   45.2810   31.3160   49.5870 Cl  0  0  0  0  0  0  0  0  0  0  0  0
   45.3270   30.3100   48.1720 C   0  0  0  0  0  0  0  0  0  0  0  0
   45.7990   30.9940   47.0780 C   0  0  0  0  0  0  0  0  0  0  0  0
   45.8880   30.2520   45.8860 C   0  0  0  0  0  0  0  0  0  0  0  0
   46.2250   30.5400   44.8800 H   0  0  0  0  0  0  0  0  0  0  0  0
   45.5110   28.9040   45.8430 C   0  0  0  0  0  0  0  0  0  0  0  0
   45.5370   28.2460   44.9950 H   0  0  0  0  0  0  0  0  0  0  0  0
   45.0430   28.2780   46.9810 C   0  0  0  0  0  3  0  0  0  0  0  0
   44.9500   28.9900   48.1590 C   0  0  0  0  0  3  0  0  0  0  0  0
  1 13  1  0  0  0  0
  1  2  1  0  0  0  0
  1  3  1  0  0  0  0
  4  9  1  0  0  0  0
  5  6  1  0  0  0  0
  5  4  2  0  0  0  0
  6  7  2  0  0  0  0
  7  8  1  0  0  0  0
  8  1  1  0  0  0  0
  9  8  2  0  0  0  0
 10  4  1  0  0  0  0
 11  5  1  0  0  0  0
 12  6  1  0  0  0  0
 13 16  1  0  0  0  0
 15 14  1  0  0  0  0
 16 15  2  0  0  0  0
 17 16  1  0  0  0  0
 18 17  1  0  0  0  0
 19 17  2  0  0  0  0
 19 21  1  0  0  0  0
 20 19  1  0  0  0  0
 21 22  2  0  0  0  0
 22 15  1  0  0  0  0
M  END
>  <minimizedAffinity>
-4.29386663

>  <minimizedRMSD>
2.68750787

$$$$
