
 OpenBabel03242523303D

 22 23  0  0  0  0  0  0  0  0999 V2000
   45.5920   33.2550   46.7810 C   0  0  0  0  0  0  0  0  0  0  0  0
   44.5550   32.9720   47.1170 H   0  0  0  0  0  0  0  0  0  0  0  0
   46.0860   33.7680   47.6320 H   0  0  0  0  0  0  0  0  0  0  0  0
   44.6020   35.9330   44.4240 C   0  0  0  0  0  0  0  0  0  0  0  0
   45.3360   35.6280   43.2980 C   0  0  0  0  0  0  0  0  0  0  0  0
   46.1520   34.5150   43.3670 C   0  0  0  0  0  0  0  0  0  0  0  0
   46.2150   33.7670   44.4980 N   0  0  0  0  0  0  0  0  0  0  0  0
   45.4600   34.1150   45.5930 C   0  0  0  0  0  0  0  0  0  0  0  0
   44.6770   35.1840   45.5320 N   0  0  0  0  0  0  0  0  0  0  0  0
   43.9070   36.7760   44.5460 H   0  0  0  0  0  0  0  0  0  0  0  0
   45.2030   36.2880   42.4740 H   0  0  0  0  0  0  0  0  0  0  0  0
   46.7260   34.2810   42.4810 H   0  0  0  0  0  0  0  0  0  0  0  0
   46.5550   31.8220   46.3130 S   0  0  0  0  0  0  0  0  0  0  0  0
   45.1420   30.2930   43.7680 Cl  0  0  0  0  0  0  0  0  0  0  0  0
   45.0930   29.5280   45.3260 C   0  0  0  0  0  0  0  0  0  0  0  0
   45.7200   30.2870   46.2840 C   0  0  0  0  0  0  0  0  0  0  0  0
   45.7160   29.7520   47.5850 C   0  0  0  0  0  0  0  0  0  0  0  0
   46.1350   30.1370   48.5260 H   0  0  0  0  0  0  0  0  0  0  0  0
   45.1050   28.5220   47.8600 C   0  0  0  0  0  0  0  0  0  0  0  0
   45.0420   28.0230   48.8080 H   0  0  0  0  0  0  0  0  0  0  0  0
   44.4920   27.8110   46.8470 C   0  0  0  0  0  3  0  0  0  0  0  0
   44.4870   28.3200   45.5660 C   0  0  0  0  0  3  0  0  0  0  0  0
  1  2  1  0  0  0  0
  1  3  1  0  0  0  0
  4 10  1  0  0  0  0
  4  9  1  0  0  0  0
  5  6  1  0  0  0  0
  5  4  2  0  0  0  0
  6  7  2  0  0  0  0
  7  8  1  0  0  0  0
  8  1  1  0  0  0  0
  9  8  2  0  0  0  0
 11  5  1  0  0  0  0
 12  6  1  0  0  0  0
 13  1  1  0  0  0  0
 14 15  1  0  0  0  0
 15 22  2  0  0  0  0
 15 16  1  0  0  0  0
 16 13  1  0  0  0  0
 16 17  2  0  0  0  0
 17 19  1  0  0  0  0
 17 18  1  0  0  0  0
 19 20  1  0  0  0  0
 21 19  2  0  0  0  0
 22 21  1  0  0  0  0
M  END
>  <minimizedAffinity>
-4.01391697

>  <minimizedRMSD>
2.08968472

$$$$
