
 OpenBabel03242523303D

 22 23  0  0  0  0  0  0  0  0999 V2000
   45.6130   33.2960   46.7860 C   0  0  0  0  0  0  0  0  0  0  0  0
   44.5790   33.0300   47.1440 H   0  0  0  0  0  0  0  0  0  0  0  0
   46.1280   33.8130   47.6220 H   0  0  0  0  0  0  0  0  0  0  0  0
   44.5810   35.9310   44.3990 C   0  0  0  0  0  0  0  0  0  0  0  0
   45.3290   35.6340   43.2810 C   0  0  0  0  0  0  0  0  0  0  0  0
   46.1690   34.5400   43.3650 C   0  0  0  0  0  0  0  0  0  0  0  0
   46.2400   33.8020   44.5030 N   0  0  0  0  0  0  0  0  0  0  0  0
   45.4700   34.1430   45.5900 C   0  0  0  0  0  0  0  0  0  0  0  0
   44.6640   35.1940   45.5140 N   0  0  0  0  0  0  0  0  0  0  0  0
   43.8650   36.7590   44.5090 H   0  0  0  0  0  0  0  0  0  0  0  0
   45.1870   36.2830   42.4510 H   0  0  0  0  0  0  0  0  0  0  0  0
   46.7540   34.3100   42.4850 H   0  0  0  0  0  0  0  0  0  0  0  0
   46.5500   31.8460   46.3190 S   0  0  0  0  0  0  0  0  0  0  0  0
   45.0920   29.9790   48.6000 Cl  0  0  0  0  0  0  0  0  0  0  0  0
   44.9960   29.4840   46.9380 C   0  0  0  0  0  0  0  0  0  0  0  0
   45.6520   30.3610   46.1090 C   0  0  0  0  0  0  0  0  0  0  0  0
   45.6420   30.0320   44.7420 C   0  0  0  0  0  0  0  0  0  0  0  0
   46.0790   30.5420   43.8710 H   0  0  0  0  0  0  0  0  0  0  0  0
   44.9950   28.8770   44.2800 C   0  0  0  0  0  0  0  0  0  0  0  0
   44.9240   28.5310   43.2660 H   0  0  0  0  0  0  0  0  0  0  0  0
   44.3540   28.0400   45.1700 C   0  0  0  0  0  3  0  0  0  0  0  0
   44.3540   28.3470   46.5130 C   0  0  0  0  0  3  0  0  0  0  0  0
  1  2  1  0  0  0  0
  1  3  1  0  0  0  0
  4 10  1  0  0  0  0
  4  9  1  0  0  0  0
  5  6  1  0  0  0  0
  5  4  2  0  0  0  0
  6  7  2  0  0  0  0
  7  8  1  0  0  0  0
  8  1  1  0  0  0  0
  9  8  2  0  0  0  0
 11  5  1  0  0  0  0
 12  6  1  0  0  0  0
 13  1  1  0  0  0  0
 15 14  1  0  0  0  0
 16 13  1  0  0  0  0
 16 15  2  0  0  0  0
 17 16  1  0  0  0  0
 18 17  1  0  0  0  0
 19 17  2  0  0  0  0
 19 21  1  0  0  0  0
 20 19  1  0  0  0  0
 21 22  2  0  0  0  0
 22 15  1  0  0  0  0
M  END
>  <minimizedAffinity>
-3.97753048

>  <minimizedRMSD>
1.85090125

$$$$
