
 OpenBabel03242519403D

 27 28  0  0  0  0  0  0  0  0999 V2000
   37.5740   28.9160   39.8120 O   0  0  0  0  0  0  0  0  0  0  0  0
   36.7130   29.8300   40.6900 P   0  0  2  0  0  0  0  0  0  0  0  0
   36.8440   31.4380   40.0820 O   0  0  0  0  0  0  0  0  0  0  0  0
   39.9980   33.2330   40.5610 C   0  0  0  0  0  0  0  0  0  0  0  0
   38.7210   32.7010   40.8440 C   0  0  0  0  0  0  0  0  0  0  0  0
   38.0960   31.9690   39.8280 C   0  0  0  0  0  0  0  0  0  0  0  0
   38.7450   31.8190   38.6540 N   0  0  0  0  0  0  0  0  0  0  0  0
   39.9630   32.3400   38.4150 C   0  0  0  0  0  0  0  0  0  0  0  0
   40.5950   33.0500   39.3690 N   0  0  0  0  0  0  0  0  0  0  0  0
   40.5310   33.8150   41.3240 H   0  0  0  0  0  0  0  0  0  0  0  0
   38.2860   32.8820   41.8300 H   0  0  0  0  0  0  0  0  0  0  0  0
   40.2880   32.0950   37.4110 H   0  0  0  0  0  0  0  0  0  0  0  0
   37.1830   29.8170   42.2860 O   0  0  0  0  0  0  0  0  0  0  0  0
   36.3520   27.3060   43.5870 Cl  0  0  0  0  0  0  0  0  0  0  0  0
   37.9890   27.7930   43.3130 C   0  0  0  0  0  0  0  0  0  0  0  0
   38.2420   29.0000   42.6900 C   0  0  0  0  0  0  0  0  0  0  0  0
   39.5680   29.3880   42.4730 C   0  0  0  0  0  0  0  0  0  0  0  0
   39.7820   30.3450   41.9780 H   0  0  0  0  0  0  0  0  0  0  0  0
   40.6390   28.5880   42.8670 C   0  0  0  0  0  0  0  0  0  0  0  0
   41.6430   28.9850   42.6490 H   0  0  0  0  0  0  0  0  0  0  0  0
   40.3900   27.3850   43.4880 C   0  0  0  0  0  3  0  0  0  0  0  0
   39.0760   27.0470   43.6800 C   0  0  0  0  0  3  0  0  0  0  0  0
   35.1030   29.3500   40.5050 O   0  0  0  0  0  0  0  0  0  0  0  0
   34.7970   29.0140   39.2000 C   0  0  0  0  0  0  0  0  0  0  0  0
   35.3300   29.8850   38.2660 F   0  0  0  0  0  0  0  0  0  0  0  0
   35.1480   27.6940   38.9630 F   0  0  0  0  0  0  0  0  0  0  0  0
   33.4110   29.1030   39.0830 F   0  0  0  0  0  0  0  0  0  0  0  0
  2  1  2  6  0  0  0
  2 13  1  0  0  0  0
  3  2  1  0  0  0  0
  4  5  1  0  0  0  0
  4 10  1  0  0  0  0
  5 11  1  0  0  0  0
  6  3  1  0  0  0  0
  6  5  2  0  0  0  0
  7  6  1  0  0  0  0
  8  7  2  0  0  0  0
  8  9  1  0  0  0  0
  9  4  2  0  0  0  0
 12  8  1  0  0  0  0
 13 16  1  0  0  0  0
 15 14  1  0  0  0  0
 15 22  1  0  0  0  0
 16 15  2  0  0  0  0
 17 16  1  0  0  0  0
 17 19  2  0  0  0  0
 18 17  1  0  0  0  0
 19 21  1  0  0  0  0
 20 19  1  0  0  0  0
 21 22  2  0  0  0  0
 23  2  1  0  0  0  0
 24 23  1  0  0  0  0
 25 24  1  0  0  0  0
 26 24  1  0  0  0  0
 27 24  1  0  0  0  0
M  END
>  <minimizedAffinity>
-5.24637175

$$$$

 OpenBabel03242519403D

 27 28  0  0  0  0  0  0  0  0999 V2000
   37.5700   28.3020   39.9360 O   0  0  0  0  0  0  0  0  0  0  0  0
   36.6090   28.6160   41.0860 P   0  0  2  0  0  0  0  0  0  0  0  0
   37.1340   30.0740   41.8420 O   0  0  0  0  0  0  0  0  0  0  0  0
   37.5580   32.8940   39.5470 C   0  0  0  0  0  0  0  0  0  0  0  0
   36.9190   31.9000   40.3190 C   0  0  0  0  0  0  0  0  0  0  0  0
   37.7380   31.0570   41.0780 C   0  0  0  0  0  0  0  0  0  0  0  0
   39.0740   31.2440   41.0260 N   0  0  0  0  0  0  0  0  0  0  0  0
   39.6540   32.2020   40.2800 C   0  0  0  0  0  0  0  0  0  0  0  0
   38.8970   33.0330   39.5370 N   0  0  0  0  0  0  0  0  0  0  0  0
   36.9610   33.5820   38.9340 H   0  0  0  0  0  0  0  0  0  0  0  0
   35.8280   31.8350   40.2880 H   0  0  0  0  0  0  0  0  0  0  0  0
   40.7310   32.1680   40.3910 H   0  0  0  0  0  0  0  0  0  0  0  0
   36.5530   27.4070   42.2280 O   0  0  0  0  0  0  0  0  0  0  0  0
   36.6580   24.6240   41.2610 Cl  0  0  0  0  0  0  0  0  0  0  0  0
   37.8980   25.4090   42.1770 C   0  0  0  0  0  0  0  0  0  0  0  0
   37.7220   26.7220   42.5700 C   0  0  0  0  0  0  0  0  0  0  0  0
   38.7280   27.3510   43.3110 C   0  0  0  0  0  0  0  0  0  0  0  0
   38.6000   28.3950   43.6280 H   0  0  0  0  0  0  0  0  0  0  0  0
   39.9020   26.6870   43.6620 C   0  0  0  0  0  0  0  0  0  0  0  0
   40.6300   27.2720   44.2460 H   0  0  0  0  0  0  0  0  0  0  0  0
   40.0800   25.3790   43.2730 C   0  0  0  0  0  3  0  0  0  0  0  0
   39.0680   24.8050   42.5490 C   0  0  0  0  0  3  0  0  0  0  0  0
   35.0870   28.9170   40.4130 O   0  0  0  0  0  0  0  0  0  0  0  0
   35.0510   28.6750   39.0540 C   0  0  0  0  0  0  0  0  0  0  0  0
   35.7890   29.5810   38.3120 F   0  0  0  0  0  0  0  0  0  0  0  0
   35.4110   27.3590   38.8040 F   0  0  0  0  0  0  0  0  0  0  0  0
   33.7230   28.8250   38.6600 F   0  0  0  0  0  0  0  0  0  0  0  0
  2  1  2  6  0  0  0
  2  3  1  0  0  0  0
  2 13  1  0  0  0  0
  4  5  1  0  0  0  0
  5  6  2  0  0  0  0
  6  3  1  0  0  0  0
  7  6  1  0  0  0  0
  8 12  1  0  0  0  0
  8  7  2  0  0  0  0
  9  4  2  0  0  0  0
  9  8  1  0  0  0  0
 10  4  1  0  0  0  0
 11  5  1  0  0  0  0
 13 16  1  0  0  0  0
 14 15  1  0  0  0  0
 15 22  2  0  0  0  0
 15 16  1  0  0  0  0
 16 17  2  0  0  0  0
 17 18  1  0  0  0  0
 17 19  1  0  0  0  0
 19 20  1  0  0  0  0
 21 19  2  0  0  0  0
 22 21  1  0  0  0  0
 23  2  1  0  0  0  0
 24 23  1  0  0  0  0
 25 24  1  0  0  0  0
 26 24  1  0  0  0  0
 27 24  1  0  0  0  0
M  END
>  <minimizedAffinity>
-5.24287128

$$$$

 OpenBabel03242519403D

 27 28  0  0  0  0  0  0  0  0999 V2000
   37.3520   28.9530   39.1490 O   0  0  0  0  0  0  0  0  0  0  0  0
   36.4490   29.9970   39.8140 P   0  0  2  0  0  0  0  0  0  0  0  0
   36.6520   31.4920   38.9790 O   0  0  0  0  0  0  0  0  0  0  0  0
   38.8390   34.1590   40.2040 C   0  0  0  0  0  0  0  0  0  0  0  0
   37.6670   33.4030   39.9880 C   0  0  0  0  0  0  0  0  0  0  0  0
   37.7880   32.2490   39.2060 C   0  0  0  0  0  0  0  0  0  0  0  0
   39.0040   31.9330   38.7120 N   0  0  0  0  0  0  0  0  0  0  0  0
   40.1040   32.6750   38.9370 C   0  0  0  0  0  0  0  0  0  0  0  0
   40.0260   33.7930   39.6850 N   0  0  0  0  0  0  0  0  0  0  0  0
   38.7980   35.0730   40.8110 H   0  0  0  0  0  0  0  0  0  0  0  0
   36.7310   33.7490   40.4350 H   0  0  0  0  0  0  0  0  0  0  0  0
   40.9640   32.2340   38.4470 H   0  0  0  0  0  0  0  0  0  0  0  0
   36.8060   30.2250   41.4230 O   0  0  0  0  0  0  0  0  0  0  0  0
   39.6050   30.8260   42.1240 Cl  0  0  0  0  0  0  0  0  0  0  0  0
   38.7660   29.3690   42.5320 C   0  0  0  0  0  0  0  0  0  0  0  0
   37.4500   29.2140   42.1400 C   0  0  0  0  0  0  0  0  0  0  0  0
   36.7770   28.0330   42.4720 C   0  0  0  0  0  0  0  0  0  0  0  0
   35.7300   27.8970   42.1670 H   0  0  0  0  0  0  0  0  0  0  0  0
   37.4000   27.0110   43.1870 C   0  0  0  0  0  0  0  0  0  0  0  0
   36.7820   26.1250   43.3980 H   0  0  0  0  0  0  0  0  0  0  0  0
   38.7110   27.1630   43.5780 C   0  0  0  0  0  3  0  0  0  0  0  0
   39.3290   28.3360   43.2300 C   0  0  0  0  0  3  0  0  0  0  0  0
   34.8470   29.5070   39.5890 O   0  0  0  0  0  0  0  0  0  0  0  0
   34.6580   28.8470   38.3900 C   0  0  0  0  0  0  0  0  0  0  0  0
   35.2070   29.5070   37.3050 F   0  0  0  0  0  0  0  0  0  0  0  0
   35.1020   27.5390   38.5020 F   0  0  0  0  0  0  0  0  0  0  0  0
   33.2820   28.8030   38.1760 F   0  0  0  0  0  0  0  0  0  0  0  0
  2  1  2  6  0  0  0
  2 13  1  0  0  0  0
  3  6  1  0  0  0  0
  3  2  1  0  0  0  0
  4 10  1  0  0  0  0
  5  4  1  0  0  0  0
  5 11  1  0  0  0  0
  6  5  2  0  0  0  0
  7  8  2  0  0  0  0
  7  6  1  0  0  0  0
  8  9  1  0  0  0  0
  9  4  2  0  0  0  0
 12  8  1  0  0  0  0
 13 16  1  0  0  0  0
 14 15  1  0  0  0  0
 15 22  1  0  0  0  0
 16 17  1  0  0  0  0
 16 15  2  0  0  0  0
 17 19  2  0  0  0  0
 18 17  1  0  0  0  0
 19 20  1  0  0  0  0
 19 21  1  0  0  0  0
 22 21  2  0  0  0  0
 23  2  1  0  0  0  0
 24 26  1  0  0  0  0
 24 23  1  0  0  0  0
 25 24  1  0  0  0  0
 27 24  1  0  0  0  0
M  END
>  <minimizedAffinity>
-5.16299772

$$$$

 OpenBabel03242519403D

 27 28  0  0  0  0  0  0  0  0999 V2000
   39.4090   29.6060   39.8630 O   0  0  0  0  0  0  0  0  0  0  0  0
   39.0500   30.9170   40.5680 P   0  0  2  0  0  0  0  0  0  0  0  0
   39.0380   30.6270   42.2670 O   0  0  0  0  0  0  0  0  0  0  0  0
   37.8240   27.4370   43.5900 C   0  0  0  0  0  0  0  0  0  0  0  0
   37.8060   28.7670   43.1160 C   0  0  0  0  0  0  0  0  0  0  0  0
   39.0310   29.3250   42.7350 C   0  0  0  0  0  0  0  0  0  0  0  0
   40.1430   28.5660   42.8430 N   0  0  0  0  0  0  0  0  0  0  0  0
   40.1270   27.3000   43.2990 C   0  0  0  0  0  0  0  0  0  0  0  0
   38.9670   26.7290   43.6750 N   0  0  0  0  0  0  0  0  0  0  0  0
   36.8900   26.9530   43.9010 H   0  0  0  0  0  0  0  0  0  0  0  0
   36.8490   29.2920   43.0690 H   0  0  0  0  0  0  0  0  0  0  0  0
   41.1290   26.8860   43.3000 H   0  0  0  0  0  0  0  0  0  0  0  0
   37.5630   31.5080   40.1110 O   0  0  0  0  0  0  0  0  0  0  0  0
   37.6680   31.2550   37.1770 Cl  0  0  0  0  0  0  0  0  0  0  0  0
   36.5500   30.4320   38.2100 C   0  0  0  0  0  0  0  0  0  0  0  0
   36.6090   30.6410   39.5740 C   0  0  0  0  0  0  0  0  0  0  0  0
   35.7010   29.9730   40.4030 C   0  0  0  0  0  0  0  0  0  0  0  0
   35.7380   30.1300   41.4900 H   0  0  0  0  0  0  0  0  0  0  0  0
   34.7410   29.1030   39.8880 C   0  0  0  0  0  0  0  0  0  0  0  0
   34.0760   28.6290   40.6260 H   0  0  0  0  0  0  0  0  0  0  0  0
   34.6800   28.8940   38.5290 C   0  0  0  0  0  3  0  0  0  0  0  0
   35.5890   29.5690   37.7570 C   0  0  0  0  0  3  0  0  0  0  0  0
   40.2900   32.0230   40.2540 O   0  0  0  0  0  0  0  0  0  0  0  0
   39.8940   33.3330   40.4480 C   0  0  0  0  0  0  0  0  0  0  0  0
   38.9430   33.4800   41.4420 F   0  0  0  0  0  0  0  0  0  0  0  0
   41.0080   34.1330   40.6490 F   0  0  0  0  0  0  0  0  0  0  0  0
   39.2950   33.7450   39.2590 F   0  0  0  0  0  0  0  0  0  0  0  0
  2  1  2  6  0  0  0
  2  3  1  0  0  0  0
  3  6  1  0  0  0  0
  4  9  1  0  0  0  0
  4 10  1  0  0  0  0
  5  4  2  0  0  0  0
  6  7  2  0  0  0  0
  6  5  1  0  0  0  0
  7  8  1  0  0  0  0
  8 12  1  0  0  0  0
  8  9  2  0  0  0  0
 11  5  1  0  0  0  0
 13  2  1  0  0  0  0
 14 15  1  0  0  0  0
 15 16  1  0  0  0  0
 16 13  1  0  0  0  0
 16 17  2  0  0  0  0
 17 18  1  0  0  0  0
 19 17  1  0  0  0  0
 19 20  1  0  0  0  0
 21 19  2  0  0  0  0
 22 15  2  0  0  0  0
 22 21  1  0  0  0  0
 23 24  1  0  0  0  0
 23  2  1  0  0  0  0
 24 26  1  0  0  0  0
 24 25  1  0  0  0  0
 27 24  1  0  0  0  0
M  END
>  <minimizedAffinity>
-4.98183298

$$$$

 OpenBabel03242519403D

 27 28  0  0  0  0  0  0  0  0999 V2000
   37.7320   28.5900   40.0140 O   0  0  0  0  0  0  0  0  0  0  0  0
   36.9410   29.0310   41.2490 P   0  0  2  0  0  0  0  0  0  0  0  0
   37.1580   30.7290   41.4480 O   0  0  0  0  0  0  0  0  0  0  0  0
   40.6210   31.8840   41.1670 C   0  0  0  0  0  0  0  0  0  0  0  0
   39.4720   31.2610   41.7010 C   0  0  0  0  0  0  0  0  0  0  0  0
   38.2970   31.3330   40.9450 C   0  0  0  0  0  0  0  0  0  0  0  0
   38.3340   31.9870   39.7640 N   0  0  0  0  0  0  0  0  0  0  0  0
   39.4460   32.5710   39.2810 C   0  0  0  0  0  0  0  0  0  0  0  0
   40.5960   32.5220   39.9820 N   0  0  0  0  0  0  0  0  0  0  0  0
   41.5680   31.8560   41.7210 H   0  0  0  0  0  0  0  0  0  0  0  0
   39.5530   30.7570   42.6680 H   0  0  0  0  0  0  0  0  0  0  0  0
   39.2440   33.0340   38.3230 H   0  0  0  0  0  0  0  0  0  0  0  0
   37.4330   28.2580   42.6380 O   0  0  0  0  0  0  0  0  0  0  0  0
   40.2830   27.8880   43.2940 Cl  0  0  0  0  0  0  0  0  0  0  0  0
   39.1860   26.6220   42.8610 C   0  0  0  0  0  0  0  0  0  0  0  0
   37.8710   26.9330   42.5760 C   0  0  0  0  0  0  0  0  0  0  0  0
   36.9900   25.9040   42.2250 C   0  0  0  0  0  0  0  0  0  0  0  0
   35.9410   26.1380   41.9970 H   0  0  0  0  0  0  0  0  0  0  0  0
   37.4060   24.5750   42.1570 C   0  0  0  0  0  0  0  0  0  0  0  0
   36.6340   23.8430   41.8720 H   0  0  0  0  0  0  0  0  0  0  0  0
   38.7150   24.2630   42.4400 C   0  0  0  0  0  3  0  0  0  0  0  0
   39.5410   25.3030   42.7780 C   0  0  0  0  0  3  0  0  0  0  0  0
   35.3020   28.7660   40.9290 O   0  0  0  0  0  0  0  0  0  0  0  0
   34.9760   29.0000   39.6070 C   0  0  0  0  0  0  0  0  0  0  0  0
   35.5890   30.1210   39.0770 F   0  0  0  0  0  0  0  0  0  0  0  0
   35.2120   27.8560   38.8590 F   0  0  0  0  0  0  0  0  0  0  0  0
   33.6040   29.2420   39.5750 F   0  0  0  0  0  0  0  0  0  0  0  0
  2  1  2  6  0  0  0
  2  3  1  0  0  0  0
  2 13  1  0  0  0  0
  4  5  1  0  0  0  0
  4 10  1  0  0  0  0
  5 11  1  0  0  0  0
  6  3  1  0  0  0  0
  6  5  2  0  0  0  0
  7  6  1  0  0  0  0
  8  7  2  0  0  0  0
  8  9  1  0  0  0  0
  9  4  2  0  0  0  0
 12  8  1  0  0  0  0
 15 14  1  0  0  0  0
 16 13  1  0  0  0  0
 16 15  2  0  0  0  0
 17 16  1  0  0  0  0
 18 17  1  0  0  0  0
 19 17  2  0  0  0  0
 19 21  1  0  0  0  0
 20 19  1  0  0  0  0
 21 22  2  0  0  0  0
 22 15  1  0  0  0  0
 23  2  1  0  0  0  0
 24 23  1  0  0  0  0
 25 24  1  0  0  0  0
 26 24  1  0  0  0  0
 27 24  1  0  0  0  0
M  END
>  <minimizedAffinity>
-4.95860767

$$$$

 OpenBabel03242519403D

 27 28  0  0  0  0  0  0  0  0999 V2000
   35.4220   28.7930   41.0060 O   0  0  0  0  0  0  0  0  0  0  0  0
   36.8860   29.1830   40.7780 P   0  0  2  0  0  0  0  0  0  0  0  0
   36.9450   30.3050   39.4700 O   0  0  0  0  0  0  0  0  0  0  0  0
   38.1670   33.7130   40.0140 C   0  0  0  0  0  0  0  0  0  0  0  0
   37.2740   32.6210   39.9480 C   0  0  0  0  0  0  0  0  0  0  0  0
   37.8010   31.3900   39.5430 C   0  0  0  0  0  0  0  0  0  0  0  0
   39.1160   31.3230   39.2430 N   0  0  0  0  0  0  0  0  0  0  0  0
   39.9420   32.3830   39.3160 C   0  0  0  0  0  0  0  0  0  0  0  0
   39.4700   33.5840   39.7020 N   0  0  0  0  0  0  0  0  0  0  0  0
   37.8030   34.7000   40.3260 H   0  0  0  0  0  0  0  0  0  0  0  0
   36.2260   32.7850   40.2130 H   0  0  0  0  0  0  0  0  0  0  0  0
   40.9480   32.0980   39.0320 H   0  0  0  0  0  0  0  0  0  0  0  0
   37.8510   27.8780   40.4140 O   0  0  0  0  0  0  0  0  0  0  0  0
   36.7120   26.6890   37.9690 Cl  0  0  0  0  0  0  0  0  0  0  0  0
   36.7960   25.9100   39.5120 C   0  0  0  0  0  0  0  0  0  0  0  0
   37.3570   26.5830   40.5810 C   0  0  0  0  0  0  0  0  0  0  0  0
   37.4200   25.9470   41.8260 C   0  0  0  0  0  0  0  0  0  0  0  0
   37.8650   26.4710   42.6830 H   0  0  0  0  0  0  0  0  0  0  0  0
   36.9330   24.6550   42.0140 C   0  0  0  0  0  0  0  0  0  0  0  0
   37.0320   24.2470   43.0320 H   0  0  0  0  0  0  0  0  0  0  0  0
   36.3730   23.9830   40.9520 C   0  0  0  0  0  3  0  0  0  0  0  0
   36.3330   24.6450   39.7520 C   0  0  0  0  0  3  0  0  0  0  0  0
   37.4210   29.9950   42.1620 O   0  0  0  0  0  0  0  0  0  0  0  0
   38.7010   29.6280   42.5300 C   0  0  0  0  0  0  0  0  0  0  0  0
   39.4740   29.1840   41.4710 F   0  0  0  0  0  0  0  0  0  0  0  0
   39.2990   30.6630   43.2330 F   0  0  0  0  0  0  0  0  0  0  0  0
   38.5680   28.5530   43.4060 F   0  0  0  0  0  0  0  0  0  0  0  0
  2  1  2  1  0  0  0
  2 23  1  0  0  0  0
  3  6  1  0  0  0  0
  3  2  1  0  0  0  0
  4 10  1  0  0  0  0
  5  4  1  0  0  0  0
  5 11  1  0  0  0  0
  6  5  2  0  0  0  0
  7  8  2  0  0  0  0
  7  6  1  0  0  0  0
  8  9  1  0  0  0  0
  9  4  2  0  0  0  0
 12  8  1  0  0  0  0
 13 16  1  0  0  0  0
 13  2  1  0  0  0  0
 14 15  1  0  0  0  0
 15 22  2  0  0  0  0
 15 16  1  0  0  0  0
 16 17  2  0  0  0  0
 17 19  1  0  0  0  0
 17 18  1  0  0  0  0
 19 20  1  0  0  0  0
 21 19  2  0  0  0  0
 22 21  1  0  0  0  0
 23 24  1  0  0  0  0
 24 26  1  0  0  0  0
 24 27  1  0  0  0  0
 25 24  1  0  0  0  0
M  END
>  <minimizedAffinity>
-4.95533705

$$$$

 OpenBabel03242519403D

 27 28  0  0  0  0  0  0  0  0999 V2000
   38.8130   29.9990   39.9390 O   0  0  0  0  0  0  0  0  0  0  0  0
   37.6740   30.8790   40.4620 P   0  0  2  0  0  0  0  0  0  0  0  0
   36.9810   30.1010   41.8360 O   0  0  0  0  0  0  0  0  0  0  0  0
   38.7780   27.3940   43.5230 C   0  0  0  0  0  0  0  0  0  0  0  0
   38.3650   28.7020   43.1880 C   0  0  0  0  0  0  0  0  0  0  0  0
   37.4020   28.8290   42.1810 C   0  0  0  0  0  0  0  0  0  0  0  0
   36.9320   27.7050   41.5980 N   0  0  0  0  0  0  0  0  0  0  0  0
   37.3460   26.4710   41.9400 C   0  0  0  0  0  0  0  0  0  0  0  0
   38.2720   26.3100   42.9050 N   0  0  0  0  0  0  0  0  0  0  0  0
   39.5320   27.2410   44.3060 H   0  0  0  0  0  0  0  0  0  0  0  0
   38.8110   29.5450   43.7240 H   0  0  0  0  0  0  0  0  0  0  0  0
   36.8360   25.7230   41.3450 H   0  0  0  0  0  0  0  0  0  0  0  0
   36.4830   31.1320   39.3290 O   0  0  0  0  0  0  0  0  0  0  0  0
   34.3500   29.1510   39.7870 Cl  0  0  0  0  0  0  0  0  0  0  0  0
   35.3450   29.2350   38.3750 C   0  0  0  0  0  0  0  0  0  0  0  0
   36.3130   30.2170   38.2860 C   0  0  0  0  0  0  0  0  0  0  0  0
   37.1160   30.2800   37.1420 C   0  0  0  0  0  0  0  0  0  0  0  0
   37.8880   31.0570   37.0590 H   0  0  0  0  0  0  0  0  0  0  0  0
   36.9630   29.3780   36.0900 C   0  0  0  0  0  0  0  0  0  0  0  0
   37.6440   29.5140   35.2360 H   0  0  0  0  0  0  0  0  0  0  0  0
   36.0000   28.3980   36.1760 C   0  0  0  0  0  3  0  0  0  0  0  0
   35.2390   28.3760   37.3150 C   0  0  0  0  0  3  0  0  0  0  0  0
   38.3540   32.3330   40.9960 O   0  0  0  0  0  0  0  0  0  0  0  0
   38.4860   33.2600   39.9800 C   0  0  0  0  0  0  0  0  0  0  0  0
   38.9250   32.7130   38.7870 F   0  0  0  0  0  0  0  0  0  0  0  0
   37.3040   33.9710   39.8400 F   0  0  0  0  0  0  0  0  0  0  0  0
   39.4660   34.1600   40.3920 F   0  0  0  0  0  0  0  0  0  0  0  0
  2  1  2  6  0  0  0
  2 23  1  0  0  0  0
  2  3  1  0  0  0  0
  3  6  1  0  0  0  0
  4 10  1  0  0  0  0
  5  4  1  0  0  0  0
  5 11  1  0  0  0  0
  6  5  2  0  0  0  0
  7  8  2  0  0  0  0
  7  6  1  0  0  0  0
  8  9  1  0  0  0  0
  9  4  2  0  0  0  0
 12  8  1  0  0  0  0
 13  2  1  0  0  0  0
 15 14  1  0  0  0  0
 16 15  1  0  0  0  0
 16 13  1  0  0  0  0
 17 16  2  0  0  0  0
 18 17  1  0  0  0  0
 19 21  2  0  0  0  0
 19 17  1  0  0  0  0
 20 19  1  0  0  0  0
 21 22  1  0  0  0  0
 22 15  2  0  0  0  0
 24 27  1  0  0  0  0
 24 23  1  0  0  0  0
 25 24  1  0  0  0  0
 26 24  1  0  0  0  0
M  END
>  <minimizedAffinity>
-4.91229534

$$$$

 OpenBabel03242519403D

 27 28  0  0  0  0  0  0  0  0999 V2000
   34.9440   28.8750   40.6540 O   0  0  0  0  0  0  0  0  0  0  0  0
   36.3530   29.4670   40.5440 P   0  0  2  0  0  0  0  0  0  0  0  0
   37.3500   28.3280   39.7180 O   0  0  0  0  0  0  0  0  0  0  0  0
   36.6060   24.7610   40.0720 C   0  0  0  0  0  0  0  0  0  0  0  0
   37.1180   26.0430   40.3700 C   0  0  0  0  0  0  0  0  0  0  0  0
   36.8580   27.0630   39.4480 C   0  0  0  0  0  0  0  0  0  0  0  0
   36.1420   26.7630   38.3440 N   0  0  0  0  0  0  0  0  0  0  0  0
   35.6670   25.5300   38.0880 C   0  0  0  0  0  0  0  0  0  0  0  0
   35.8970   24.5230   38.9530 N   0  0  0  0  0  0  0  0  0  0  0  0
   36.7820   23.9270   40.7630 H   0  0  0  0  0  0  0  0  0  0  0  0
   37.6860   26.1780   41.2940 H   0  0  0  0  0  0  0  0  0  0  0  0
   35.1240   25.5210   37.1510 H   0  0  0  0  0  0  0  0  0  0  0  0
   37.0290   29.8010   42.0270 O   0  0  0  0  0  0  0  0  0  0  0  0
   36.2510   27.4790   43.6670 Cl  0  0  0  0  0  0  0  0  0  0  0  0
   37.8760   27.9170   43.2660 C   0  0  0  0  0  0  0  0  0  0  0  0
   38.1030   29.0350   42.4860 C   0  0  0  0  0  0  0  0  0  0  0  0
   39.4200   29.3840   42.1670 C   0  0  0  0  0  0  0  0  0  0  0  0
   39.6140   30.2700   41.5460 H   0  0  0  0  0  0  0  0  0  0  0  0
   40.5060   28.6330   42.6150 C   0  0  0  0  0  0  0  0  0  0  0  0
   41.5000   28.9940   42.3060 H   0  0  0  0  0  0  0  0  0  0  0  0
   40.2820   27.5200   43.3920 C   0  0  0  0  0  3  0  0  0  0  0  0
   38.9770   27.2170   43.6790 C   0  0  0  0  0  3  0  0  0  0  0  0
   36.2540   30.8470   39.5720 O   0  0  0  0  0  0  0  0  0  0  0  0
   37.3370   31.6890   39.7350 C   0  0  0  0  0  0  0  0  0  0  0  0
   37.3690   32.3160   40.9690 F   0  0  0  0  0  0  0  0  0  0  0  0
   38.5080   31.0030   39.4530 F   0  0  0  0  0  0  0  0  0  0  0  0
   37.2040   32.6940   38.7800 F   0  0  0  0  0  0  0  0  0  0  0  0
  2  1  2  1  0  0  0
  2 13  1  0  0  0  0
  3  2  1  0  0  0  0
  4  5  1  0  0  0  0
  4 10  1  0  0  0  0
  5 11  1  0  0  0  0
  6  3  1  0  0  0  0
  6  5  2  0  0  0  0
  7  6  1  0  0  0  0
  8  7  2  0  0  0  0
  8  9  1  0  0  0  0
  9  4  2  0  0  0  0
 12  8  1  0  0  0  0
 13 16  1  0  0  0  0
 15 14  1  0  0  0  0
 15 22  1  0  0  0  0
 16 15  2  0  0  0  0
 17 16  1  0  0  0  0
 17 19  2  0  0  0  0
 18 17  1  0  0  0  0
 19 21  1  0  0  0  0
 20 19  1  0  0  0  0
 21 22  2  0  0  0  0
 23 24  1  0  0  0  0
 23  2  1  0  0  0  0
 24 25  1  0  0  0  0
 26 24  1  0  0  0  0
 27 24  1  0  0  0  0
M  END
>  <minimizedAffinity>
-4.8970437

$$$$

 OpenBabel03242519403D

 27 28  0  0  0  0  0  0  0  0999 V2000
   38.5460   29.6810   38.5550 O   0  0  0  0  0  0  0  0  0  0  0  0
   37.9230   29.0930   39.8250 P   0  0  2  0  0  0  0  0  0  0  0  0
   37.9760   30.2980   41.0570 O   0  0  0  0  0  0  0  0  0  0  0  0
   39.0060   33.7460   40.3820 C   0  0  0  0  0  0  0  0  0  0  0  0
   38.1660   32.6250   40.5530 C   0  0  0  0  0  0  0  0  0  0  0  0
   38.7800   31.4120   40.8840 C   0  0  0  0  0  0  0  0  0  0  0  0
   40.1230   31.3890   41.0180 N   0  0  0  0  0  0  0  0  0  0  0  0
   40.8980   32.4760   40.8490 C   0  0  0  0  0  0  0  0  0  0  0  0
   40.3420   33.6610   40.5300 N   0  0  0  0  0  0  0  0  0  0  0  0
   38.5740   34.7210   40.1230 H   0  0  0  0  0  0  0  0  0  0  0  0
   37.0880   32.7530   40.4210 H   0  0  0  0  0  0  0  0  0  0  0  0
   41.9400   32.2260   41.0060 H   0  0  0  0  0  0  0  0  0  0  0  0
   38.7180   27.7350   40.3640 O   0  0  0  0  0  0  0  0  0  0  0  0
   38.3190   27.1950   43.2340 Cl  0  0  0  0  0  0  0  0  0  0  0  0
   37.7370   26.2030   41.9420 C   0  0  0  0  0  0  0  0  0  0  0  0
   37.9950   26.5710   40.6360 C   0  0  0  0  0  0  0  0  0  0  0  0
   37.5220   25.7630   39.5960 C   0  0  0  0  0  0  0  0  0  0  0  0
   37.7200   26.0460   38.5520 H   0  0  0  0  0  0  0  0  0  0  0  0
   36.7980   24.5980   39.8450 C   0  0  0  0  0  0  0  0  0  0  0  0
   36.4720   24.0350   38.9560 H   0  0  0  0  0  0  0  0  0  0  0  0
   36.5410   24.2280   41.1450 C   0  0  0  0  0  3  0  0  0  0  0  0
   37.0230   25.0500   42.1300 C   0  0  0  0  0  3  0  0  0  0  0  0
   36.2940   28.7800   39.4970 O   0  0  0  0  0  0  0  0  0  0  0  0
   35.4530   29.2570   40.4840 C   0  0  0  0  0  0  0  0  0  0  0  0
   35.6480   28.6520   41.7140 F   0  0  0  0  0  0  0  0  0  0  0  0
   35.5420   30.6390   40.5470 F   0  0  0  0  0  0  0  0  0  0  0  0
   34.1560   28.9410   40.0860 F   0  0  0  0  0  0  0  0  0  0  0  0
  2  1  2  6  0  0  0
  2 13  1  0  0  0  0
  2  3  1  0  0  0  0
  4  9  2  0  0  0  0
  4  5  1  0  0  0  0
  5  6  2  0  0  0  0
  6  7  1  0  0  0  0
  6  3  1  0  0  0  0
  8 12  1  0  0  0  0
  8  7  2  0  0  0  0
  9  8  1  0  0  0  0
 10  4  1  0  0  0  0
 11  5  1  0  0  0  0
 13 16  1  0  0  0  0
 15 22  1  0  0  0  0
 15 14  1  0  0  0  0
 16 15  2  0  0  0  0
 17 19  2  0  0  0  0
 17 16  1  0  0  0  0
 18 17  1  0  0  0  0
 19 21  1  0  0  0  0
 20 19  1  0  0  0  0
 21 22  2  0  0  0  0
 23  2  1  0  0  0  0
 23 24  1  0  0  0  0
 24 26  1  0  0  0  0
 24 25  1  0  0  0  0
 27 24  1  0  0  0  0
M  END
>  <minimizedAffinity>
-4.86973763

$$$$
