
 OpenBabel03242523293D

 22 23  0  0  0  0  0  0  0  0999 V2000
   45.9840   33.0320   46.1350 C   0  0  0  0  0  0  0  0  0  0  0  0
   45.1710   32.9920   46.9130 H   0  0  0  0  0  0  0  0  0  0  0  0
   46.9410   33.2170   46.6670 H   0  0  0  0  0  0  0  0  0  0  0  0
   44.5070   36.0240   44.5300 C   0  0  0  0  0  0  0  0  0  0  0  0
   45.1240   36.0390   43.2980 C   0  0  0  0  0  0  0  0  0  0  0  0
   46.0300   35.0290   43.0400 C   0  0  0  0  0  0  0  0  0  0  0  0
   46.2880   34.0720   43.9680 N   0  0  0  0  0  0  0  0  0  0  0  0
   45.6430   34.1030   45.1820 C   0  0  0  0  0  0  0  0  0  0  0  0
   44.7740   35.0730   45.4340 N   0  0  0  0  0  0  0  0  0  0  0  0
   43.7640   36.7450   44.9010 H   0  0  0  0  0  0  0  0  0  0  0  0
   44.8410   36.8380   42.6550 H   0  0  0  0  0  0  0  0  0  0  0  0
   46.5120   35.0460   42.0720 H   0  0  0  0  0  0  0  0  0  0  0  0
   46.1040   31.5030   45.2150 S   0  0  0  0  0  0  0  0  0  0  0  0
   44.2780   29.0560   46.4350 Cl  0  0  0  0  0  0  0  0  0  0  0  0
   45.9980   28.9990   46.6630 C   0  0  0  0  0  0  0  0  0  0  0  0
   46.6210   30.0880   46.1020 C   0  0  0  0  0  0  0  0  0  0  0  0
   48.0180   30.1370   46.2530 C   0  0  0  0  0  0  0  0  0  0  0  0
   48.7570   30.8780   45.9120 H   0  0  0  0  0  0  0  0  0  0  0  0
   48.7080   29.1270   46.9350 C   0  0  0  0  0  0  0  0  0  0  0  0
   49.7670   29.0630   47.1090 H   0  0  0  0  0  0  0  0  0  0  0  0
   48.0190   28.0590   47.4740 C   0  0  0  0  0  3  0  0  0  0  0  0
   46.6490   27.9950   47.3370 C   0  0  0  0  0  3  0  0  0  0  0  0
  1  3  1  0  0  0  0
  1  2  1  0  0  0  0
  4 10  1  0  0  0  0
  4  9  1  0  0  0  0
  5  4  2  0  0  0  0
  6  5  1  0  0  0  0
  6  7  2  0  0  0  0
  7  8  1  0  0  0  0
  8  9  2  0  0  0  0
  8  1  1  0  0  0  0
 11  5  1  0  0  0  0
 12  6  1  0  0  0  0
 13 16  1  0  0  0  0
 13  1  1  0  0  0  0
 14 15  1  0  0  0  0
 15 22  1  0  0  0  0
 16 17  1  0  0  0  0
 16 15  2  0  0  0  0
 17 19  2  0  0  0  0
 18 17  1  0  0  0  0
 19 20  1  0  0  0  0
 19 21  1  0  0  0  0
 22 21  2  0  0  0  0
M  END
>  <minimizedAffinity>
-3.8718214

>  <minimizedRMSD>
3.06557584

$$$$
