
 OpenBabel03242516223D

 29 31  0  0  0  0  0  0  0  0999 V2000
   46.2850   32.6330   47.0870 C   0  0  0  0  0  0  0  0  0  0  0  0
   47.4930   32.0250   47.3560 C   0  0  0  0  0  0  0  0  0  0  0  0
   47.6840   31.2630   48.4900 C   0  0  0  0  0  0  0  0  0  0  0  0
   46.6540   31.0930   49.3910 C   0  0  0  0  0  0  0  0  0  0  0  0
   45.4470   31.6880   49.1420 C   0  0  0  0  0  0  0  0  0  0  0  0
   45.2760   32.4540   47.9890 C   0  0  0  0  0  0  0  0  0  0  0  0
   48.3140   32.1610   46.6390 H   0  0  0  0  0  0  0  0  0  0  0  0
   46.8520   30.4850   50.2670 H   0  0  0  0  0  0  0  0  0  0  0  0
   44.6610   31.5330   49.8680 H   0  0  0  0  0  0  0  0  0  0  0  0
   44.3050   32.9020   47.8380 H   0  0  0  0  0  0  0  0  0  0  0  0
   44.9130   35.1190   44.7870 C   0  0  0  0  0  0  0  0  0  0  0  0
   45.6870   35.0000   43.6430 C   0  0  0  0  0  0  0  0  0  0  0  0
   46.6980   34.0500   43.6600 C   0  0  0  0  0  0  0  0  0  0  0  0
   46.9160   33.2640   44.7700 N   0  0  0  0  0  0  0  0  0  0  0  0
   46.1030   33.4430   45.8670 C   0  0  0  0  0  0  0  0  0  0  0  0
   45.0940   34.3700   45.8930 N   0  0  0  0  0  0  0  0  0  0  0  0
   44.1030   35.8320   44.8660 H   0  0  0  0  0  0  0  0  0  0  0  0
   45.5020   35.6250   42.7790 H   0  0  0  0  0  0  0  0  0  0  0  0
   47.3360   33.9110   42.7930 H   0  0  0  0  0  0  0  0  0  0  0  0
   49.2690   30.5110   48.7690 S   0  0  0  0  0  0  0  0  0  0  0  0
   50.3060   29.2660   51.5370 Cl  0  0  0  0  0  0  0  0  0  0  0  0
   50.6570   30.9330   51.0990 C   0  0  0  0  0  0  0  0  0  0  0  0
   50.2270   31.4990   49.9170 C   0  0  0  0  0  0  0  0  0  0  0  0
   50.5180   32.8160   49.5960 C   0  0  0  0  0  0  0  0  0  0  0  0
   50.1530   33.1960   48.6610 H   0  0  0  0  0  0  0  0  0  0  0  0
   51.2550   33.5760   50.4790 C   0  0  0  0  0  0  0  0  0  0  0  0
   51.4300   34.6030   50.1320 H   0  0  0  0  0  0  0  0  0  0  0  0
   51.6920   33.0260   51.6610 C   0  0  0  0  0  0  0  0  0  0  0  0
   51.3920   31.7190   51.9590 C   0  0  0  0  0  0  0  0  0  0  0  0
  1  2  2  0  0  0  0
  1  6  1  0  0  0  0
  2  3  1  0  0  0  0
  3 20  1  0  0  0  0
  3  4  2  0  0  0  0
  4  8  1  0  0  0  0
  5  4  1  0  0  0  0
  5  9  1  0  0  0  0
  6  5  2  0  0  0  0
  7  2  1  0  0  0  0
 10  6  1  0  0  0  0
 11 17  1  0  0  0  0
 11 16  1  0  0  0  0
 12 13  1  0  0  0  0
 12 11  2  0  0  0  0
 13 14  2  0  0  0  0
 14 15  1  0  0  0  0
 15 16  2  0  0  0  0
 15  1  1  0  0  0  0
 18 12  1  0  0  0  0
 19 13  1  0  0  0  0
 20 23  1  0  0  0  0
 22 21  1  0  0  0  0
 22 29  1  0  0  0  0
 23 22  2  0  0  0  0
 24 23  1  0  0  0  0
 24 26  2  0  0  0  0
 25 24  1  0  0  0  0
 26 28  1  0  0  0  0
 27 26  1  0  0  0  0
 28 29  2  0  0  0  0
M  END
>  <minimizedAffinity>
-5.82776165

>  <minimizedRMSD>
0.949596584

$$$$
