
 OpenBabel03242523293D

 22 23  0  0  0  0  0  0  0  0999 V2000
   45.5760   33.3720   46.5470 C   0  0  0  0  0  0  0  0  0  0  0  0
   44.5430   33.0280   46.8360 H   0  0  0  0  0  0  0  0  0  0  0  0
   46.0170   33.8730   47.4340 H   0  0  0  0  0  0  0  0  0  0  0  0
   44.5650   36.1190   44.2790 C   0  0  0  0  0  0  0  0  0  0  0  0
   45.3140   35.8670   43.1500 C   0  0  0  0  0  0  0  0  0  0  0  0
   46.1470   34.7650   43.1860 C   0  0  0  0  0  0  0  0  0  0  0  0
   46.2120   33.9770   44.2900 N   0  0  0  0  0  0  0  0  0  0  0  0
   45.4420   34.2730   45.3890 C   0  0  0  0  0  0  0  0  0  0  0  0
   44.6420   35.3310   45.3590 N   0  0  0  0  0  0  0  0  0  0  0  0
   43.8550   36.9450   44.4240 H   0  0  0  0  0  0  0  0  0  0  0  0
   45.1780   36.5540   42.3490 H   0  0  0  0  0  0  0  0  0  0  0  0
   46.7340   34.5720   42.2980 H   0  0  0  0  0  0  0  0  0  0  0  0
   46.6210   32.0060   46.0560 S   0  0  0  0  0  0  0  0  0  0  0  0
   46.3360   29.5210   43.9230 Cl  0  0  0  0  0  0  0  0  0  0  0  0
   45.8150   29.2720   45.5600 C   0  0  0  0  0  0  0  0  0  0  0  0
   45.9950   30.3970   46.3270 C   0  0  0  0  0  0  0  0  0  0  0  0
   45.5840   30.2940   47.6670 C   0  0  0  0  0  0  0  0  0  0  0  0
   45.6090   31.0240   48.4900 H   0  0  0  0  0  0  0  0  0  0  0  0
   45.0310   29.1060   48.1660 C   0  0  0  0  0  0  0  0  0  0  0  0
   44.6850   28.9170   49.1650 H   0  0  0  0  0  0  0  0  0  0  0  0
   44.8800   28.0120   47.3380 C   0  0  0  0  0  3  0  0  0  0  0  0
   45.2770   28.0960   46.0210 C   0  0  0  0  0  3  0  0  0  0  0  0
  1  2  1  0  0  0  0
  1  3  1  0  0  0  0
  4 10  1  0  0  0  0
  4  9  1  0  0  0  0
  5  6  1  0  0  0  0
  5  4  2  0  0  0  0
  6  7  2  0  0  0  0
  7  8  1  0  0  0  0
  8  1  1  0  0  0  0
  9  8  2  0  0  0  0
 11  5  1  0  0  0  0
 12  6  1  0  0  0  0
 13 16  1  0  0  0  0
 13  1  1  0  0  0  0
 14 15  1  0  0  0  0
 15 22  2  0  0  0  0
 15 16  1  0  0  0  0
 16 17  2  0  0  0  0
 17 19  1  0  0  0  0
 17 18  1  0  0  0  0
 19 20  1  0  0  0  0
 21 19  2  0  0  0  0
 22 21  1  0  0  0  0
M  END
>  <minimizedAffinity>
-3.9475162

>  <minimizedRMSD>
2.2208209

$$$$
