
 OpenBabel03242523303D

 22 23  0  0  0  0  0  0  0  0999 V2000
   45.6990   33.1600   46.8380 C   0  0  0  0  0  0  0  0  0  0  0  0
   44.6840   32.9310   47.2700 H   0  0  0  0  0  0  0  0  0  0  0  0
   46.3010   33.6350   47.6400 H   0  0  0  0  0  0  0  0  0  0  0  0
   44.5550   35.8540   44.5700 C   0  0  0  0  0  0  0  0  0  0  0  0
   45.2580   35.5930   43.4150 C   0  0  0  0  0  0  0  0  0  0  0  0
   46.1070   34.5020   43.4330 C   0  0  0  0  0  0  0  0  0  0  0  0
   46.2300   33.7340   44.5460 N   0  0  0  0  0  0  0  0  0  0  0  0
   45.5030   34.0390   45.6720 C   0  0  0  0  0  0  0  0  0  0  0  0
   44.6890   35.0860   45.6590 N   0  0  0  0  0  0  0  0  0  0  0  0
   43.8410   36.6740   44.7320 H   0  0  0  0  0  0  0  0  0  0  0  0
   45.0790   36.2640   42.6090 H   0  0  0  0  0  0  0  0  0  0  0  0
   46.6570   34.3020   42.5230 H   0  0  0  0  0  0  0  0  0  0  0  0
   46.5300   31.6810   46.2710 S   0  0  0  0  0  0  0  0  0  0  0  0
   45.0970   29.7570   48.5200 Cl  0  0  0  0  0  0  0  0  0  0  0  0
   44.8790   29.3730   46.8410 C   0  0  0  0  0  0  0  0  0  0  0  0
   45.5370   30.2630   46.0270 C   0  0  0  0  0  0  0  0  0  0  0  0
   45.4300   30.0210   44.6450 C   0  0  0  0  0  0  0  0  0  0  0  0
   45.8460   30.5610   43.7830 H   0  0  0  0  0  0  0  0  0  0  0  0
   44.6920   28.9350   44.1560 C   0  0  0  0  0  0  0  0  0  0  0  0
   44.5440   28.6570   43.1300 H   0  0  0  0  0  0  0  0  0  0  0  0
   44.0550   28.0790   45.0320 C   0  0  0  0  0  3  0  0  0  0  0  0
   44.1490   28.3010   46.3890 C   0  0  0  0  0  3  0  0  0  0  0  0
  1  2  1  0  0  0  0
  1  3  1  0  0  0  0
  4 10  1  0  0  0  0
  4  9  1  0  0  0  0
  5  6  1  0  0  0  0
  5  4  2  0  0  0  0
  6  7  2  0  0  0  0
  7  8  1  0  0  0  0
  8  1  1  0  0  0  0
  9  8  2  0  0  0  0
 11  5  1  0  0  0  0
 12  6  1  0  0  0  0
 13  1  1  0  0  0  0
 15 14  1  0  0  0  0
 16 13  1  0  0  0  0
 16 15  2  0  0  0  0
 17 16  1  0  0  0  0
 18 17  1  0  0  0  0
 19 17  2  0  0  0  0
 19 21  1  0  0  0  0
 20 19  1  0  0  0  0
 21 22  2  0  0  0  0
 22 15  1  0  0  0  0
M  END
>  <minimizedAffinity>
-3.96025968

>  <minimizedRMSD>
1.63425803

$$$$
