
 OpenBabel03242519373D

 27 28  0  0  0  0  0  0  0  0999 V2000
   48.3370   32.8090   41.3690 O   0  0  0  0  0  0  0  0  0  0  0  0
   47.2350   33.8710   41.2880 P   0  0  2  0  0  0  0  0  0  0  0  0
   45.8740   33.2990   42.1780 O   0  0  0  0  0  0  0  0  0  0  0  0
   44.4080   35.8540   44.3530 C   0  0  0  0  0  0  0  0  0  0  0  0
   44.8010   35.1870   43.1720 C   0  0  0  0  0  0  0  0  0  0  0  0
   45.4780   33.9710   43.3210 C   0  0  0  0  0  0  0  0  0  0  0  0
   45.7100   33.5160   44.5710 N   0  0  0  0  0  0  0  0  0  0  0  0
   45.3210   34.1760   45.6780 C   0  0  0  0  0  0  0  0  0  0  0  0
   44.6670   35.3490   45.5730 N   0  0  0  0  0  0  0  0  0  0  0  0
   43.8740   36.8110   44.2900 H   0  0  0  0  0  0  0  0  0  0  0  0
   44.5630   35.6450   42.2080 H   0  0  0  0  0  0  0  0  0  0  0  0
   45.6110   33.6270   46.5660 H   0  0  0  0  0  0  0  0  0  0  0  0
   46.7630   34.1910   39.7260 O   0  0  0  0  0  0  0  0  0  0  0  0
   48.4180   34.6120   37.3240 Cl  0  0  0  0  0  0  0  0  0  0  0  0
   47.4290   33.2240   37.6230 C   0  0  0  0  0  0  0  0  0  0  0  0
   46.7000   33.1520   38.7940 C   0  0  0  0  0  0  0  0  0  0  0  0
   45.9020   32.0270   39.0290 C   0  0  0  0  0  0  0  0  0  0  0  0
   45.3170   31.9570   39.9580 H   0  0  0  0  0  0  0  0  0  0  0  0
   45.8240   30.9790   38.1130 C   0  0  0  0  0  0  0  0  0  0  0  0
   45.1690   30.1410   38.3950 H   0  0  0  0  0  0  0  0  0  0  0  0
   46.5500   31.0480   36.9470 C   0  0  0  0  0  3  0  0  0  0  0  0
   47.3170   32.1690   36.7590 C   0  0  0  0  0  3  0  0  0  0  0  0
   47.8030   35.2580   42.0710 O   0  0  0  0  0  0  0  0  0  0  0  0
   49.0000   35.7080   41.5500 C   0  0  0  0  0  0  0  0  0  0  0  0
   49.2900   37.0200   41.8850 F   0  0  0  0  0  0  0  0  0  0  0  0
   50.0180   34.8310   41.8930 F   0  0  0  0  0  0  0  0  0  0  0  0
   48.8680   35.6700   40.1640 F   0  0  0  0  0  0  0  0  0  0  0  0
  2  1  2  6  0  0  0
  2 23  1  0  0  0  0
  2  3  1  0  0  0  0
  3  6  1  0  0  0  0
  4  9  1  0  0  0  0
  5  6  1  0  0  0  0
  5  4  2  0  0  0  0
  6  7  2  0  0  0  0
  7  8  1  0  0  0  0
  8 12  1  0  0  0  0
  9  8  2  0  0  0  0
 10  4  1  0  0  0  0
 11  5  1  0  0  0  0
 13  2  1  0  0  0  0
 14 15  1  0  0  0  0
 15 16  1  0  0  0  0
 16 17  2  0  0  0  0
 16 13  1  0  0  0  0
 17 18  1  0  0  0  0
 19 20  1  0  0  0  0
 19 17  1  0  0  0  0
 21 19  2  0  0  0  0
 22 21  1  0  0  0  0
 22 15  2  0  0  0  0
 24 25  1  0  0  0  0
 24 26  1  0  0  0  0
 24 23  1  0  0  0  0
 27 24  1  0  0  0  0
M  END
>  <minimizedAffinity>
-5.36648321

>  <minimizedRMSD>
0.858838379

$$$$
