
 OpenBabel03242523403D

 37 41  0  0  1  0  0  0  0  0999 V2000
   46.7640   32.6640   45.0270 C   0  0  2  0  0  0  0  0  0  0  0  0
   47.3710   31.5450   44.9490 N   0  0  2  0  0  0  0  0  0  0  0  0
   47.3740   30.3100   44.7320 C   0  0  0  0  0  0  0  0  0  0  0  0
   47.7770   30.2010   46.0400 N   0  0  0  0  0  0  0  0  0  0  0  0
   46.9980   30.9760   46.8710 C   0  0  2  0  0  0  0  0  0  0  0  0
   46.7940   30.4510   48.1810 C   0  0  0  0  0  0  0  0  0  0  0  0
   45.9830   31.1510   48.9870 C   0  0  0  0  0  0  0  0  0  0  0  0
   45.3580   32.3020   48.6420 C   0  0  0  0  0  0  0  0  0  0  0  0
   45.6480   32.7000   47.3340 C   0  0  0  0  0  0  0  0  0  0  0  0
   46.4430   32.1550   46.3300 C   0  0  1  0  0  0  0  0  0  0  0  0
   47.6470   33.4070   45.3920 H   0  0  0  0  0  0  0  0  0  0  0  0
   48.2230   31.7940   44.2830 H   0  0  0  0  0  0  0  0  0  0  0  0
   46.4120   29.7880   44.5380 H   0  0  0  0  0  0  0  0  0  0  0  0
   48.0840   29.7140   44.0760 H   0  0  0  0  0  0  0  0  0  0  0  0
   48.5920   29.5860   46.3690 H   0  0  0  0  0  0  0  0  0  0  0  0
   47.2550   29.5520   48.5280 H   0  0  0  0  0  0  0  0  0  0  0  0
   45.8320   30.7370   50.0010 H   0  0  0  0  0  0  0  0  0  0  0  0
   44.7300   32.8020   49.3240 H   0  0  0  0  0  0  0  0  0  0  0  0
   45.0820   33.6200   47.2040 H   0  0  0  0  0  0  0  0  0  0  0  0
   44.5110   35.5970   45.0200 C   0  0  0  0  0  0  0  0  0  0  0  0
   44.1750   35.5360   43.6500 C   0  0  0  0  0  0  0  0  0  0  0  0
   44.7280   34.5100   42.9100 C   0  0  0  0  0  0  0  0  0  0  0  0
   45.5450   33.6500   43.5640 N   0  0  0  0  0  0  0  0  0  0  0  0
   45.8600   33.7270   44.8920 C   0  0  0  0  0  0  0  0  0  0  0  0
   45.3140   34.6910   45.4960 N   0  0  0  0  0  0  0  0  0  0  0  0
   44.1120   36.3760   45.6550 H   0  0  0  0  0  0  0  0  0  0  0  0
   43.5080   36.3060   43.2890 H   0  0  0  0  0  0  0  0  0  0  0  0
   44.3100   34.4140   41.2110 S   0  0  0  0  0  0  0  0  0  0  0  0
   42.5810   31.7970   41.8860 Cl  0  0  0  0  0  0  0  0  0  0  0  0
   41.7830   33.2460   41.3480 C   0  0  0  0  0  0  0  0  0  0  0  0
   42.5110   34.3930   41.0500 C   0  0  0  0  0  0  0  0  0  0  0  0
   41.8340   35.5280   40.6240 C   0  0  0  0  0  0  0  0  0  0  0  0
   42.4040   36.4370   40.3880 H   0  0  0  0  0  0  0  0  0  0  0  0
   40.4600   35.5360   40.4930 C   0  0  0  0  0  0  0  0  0  0  0  0
   39.9720   36.4380   40.1600 H   0  0  0  0  0  0  0  0  0  0  0  0
   39.7700   34.3760   40.7990 C   0  0  0  0  0  0  0  0  0  0  0  0
   40.4070   33.2360   41.2230 C   0  0  0  0  0  0  0  0  0  0  0  0
  1 11  1  1  0  0  0
  1 10  1  0  0  0  0
  2 12  1  1  0  0  0
  2  1  1  0  0  0  0
  2 10  1  0  0  0  0
  3  2  1  0  0  0  0
  3  4  1  0  0  0  0
  4 15  1  0  0  0  0
  4  5  1  0  0  0  0
  5  6  1  6  0  0  0
  6 16  1  0  0  0  0
  6  7  2  0  0  0  0
  7 17  1  0  0  0  0
  8  7  1  0  0  0  0
  8 18  1  0  0  0  0
  9  8  2  0  0  0  0
 10  5  1  0  0  0  0
 10  9  1  6  0  0  0
 13  3  1  0  0  0  0
 14  3  1  0  0  0  0
 19  9  1  0  0  0  0
 20 25  1  0  0  0  0
 20 26  1  0  0  0  0
 21 20  2  0  0  0  0
 22 23  2  0  0  0  0
 22 21  1  0  0  0  0
 23 24  1  0  0  0  0
 24  1  1  0  0  0  0
 24 25  2  0  0  0  0
 27 21  1  0  0  0  0
 28 22  1  0  0  0  0
 30 29  1  0  0  0  0
 31 28  1  0  0  0  0
 31 30  2  0  0  0  0
 32 31  1  0  0  0  0
 33 32  1  0  0  0  0
 34 32  2  0  0  0  0
 34 36  1  0  0  0  0
 35 34  1  0  0  0  0
 36 37  2  0  0  0  0
 37 30  1  0  0  0  0
M  END
>  <minimizedAffinity>
-6.35693026

>  <minimizedRMSD>
1.30537939

$$$$
