
 OpenBabel03242520033D

 25 27  0  0  0  0  0  0  0  0999 V2000
   38.7250   30.1080   41.5110 C   0  0  0  0  0  0  0  0  0  0  0  0
   39.6450   29.9160   42.5500 C   0  0  0  0  0  0  0  0  0  0  0  0
   39.6710   28.5910   42.8510 C   0  0  0  0  0  0  0  0  0  0  0  0
   38.7990   27.9880   42.0280 N   0  0  0  0  0  0  0  0  0  0  0  0
   38.2280   28.9040   41.2190 N   0  0  0  0  0  0  0  0  0  0  0  0
   40.2570   30.6420   43.0670 H   0  0  0  0  0  0  0  0  0  0  0  0
   40.2170   27.9920   43.5680 H   0  0  0  0  0  0  0  0  0  0  0  0
   37.1070   32.6480   39.4230 C   0  0  0  0  0  0  0  0  0  0  0  0
   37.8170   33.8180   39.7520 C   0  0  0  0  0  0  0  0  0  0  0  0
   38.8660   33.7100   40.7090 C   0  0  0  0  0  0  0  0  0  0  0  0
   39.1180   32.4890   41.2470 N   0  0  0  0  0  0  0  0  0  0  0  0
   38.4100   31.3900   40.9030 C   0  0  0  0  0  0  0  0  0  0  0  0
   37.4080   31.4590   39.9960 N   0  0  0  0  0  0  0  0  0  0  0  0
   36.3000   32.6410   38.7090 H   0  0  0  0  0  0  0  0  0  0  0  0
   37.5580   34.7380   39.2850 H   0  0  0  0  0  0  0  0  0  0  0  0
   39.4210   34.6000   40.9730 H   0  0  0  0  0  0  0  0  0  0  0  0
   36.3390   27.2020   43.5130 Cl  0  0  0  0  0  0  0  0  0  0  0  0
   37.2310   26.1480   42.4430 C   0  0  0  0  0  0  0  0  0  0  0  0
   38.3560   26.6490   41.8210 C   0  0  0  0  0  0  0  0  0  0  0  0
   39.1420   25.9110   40.9550 C   0  0  0  0  0  0  0  0  0  0  0  0
   40.0150   26.3080   40.4750 H   0  0  0  0  0  0  0  0  0  0  0  0
   38.7920   24.5840   40.6840 C   0  0  0  0  0  0  0  0  0  0  0  0
   39.3560   23.9410   40.0190 H   0  0  0  0  0  0  0  0  0  0  0  0
   37.6610   24.1100   41.3230 C   0  0  0  0  0  3  0  0  0  0  0  0
   36.8730   24.8450   42.1910 C   0  0  0  0  0  3  0  0  0  0  0  0
  1  2  1  0  0  0  0
  2  3  2  0  0  0  0
  2  6  1  0  0  0  0
  3  7  1  0  0  0  0
  4  3  1  0  0  0  0
  5  1  2  0  0  0  0
  5  4  1  0  0  0  0
  8  9  2  0  0  0  0
  8 13  1  0  0  0  0
  9 10  1  0  0  0  0
 10 16  1  0  0  0  0
 10 11  2  0  0  0  0
 12 11  1  0  0  0  0
 12  1  1  0  0  0  0
 13 12  2  0  0  0  0
 14  8  1  0  0  0  0
 15  9  1  0  0  0  0
 18 17  1  0  0  0  0
 19  4  1  0  0  0  0
 19 18  2  0  0  0  0
 20 19  1  0  0  0  0
 21 20  1  0  0  0  0
 22 20  2  0  0  0  0
 22 24  1  0  0  0  0
 23 22  1  0  0  0  0
 24 25  2  0  0  0  0
 25 18  1  0  0  0  0
M  END
>  <minimizedAffinity>
-5.25881481

$$$$

 OpenBabel03242520033D

 25 27  0  0  0  0  0  0  0  0999 V2000
   37.5910   30.6710   40.6960 C   0  0  0  0  0  0  0  0  0  0  0  0
   36.1960   30.7970   40.6630 C   0  0  0  0  0  0  0  0  0  0  0  0
   35.6570   29.5560   40.7820 C   0  0  0  0  0  0  0  0  0  0  0  0
   36.6810   28.6940   40.8850 N   0  0  0  0  0  0  0  0  0  0  0  0
   37.8490   29.3680   40.8330 N   0  0  0  0  0  0  0  0  0  0  0  0
   35.5900   31.6870   40.5630 H   0  0  0  0  0  0  0  0  0  0  0  0
   34.6450   29.1730   40.8060 H   0  0  0  0  0  0  0  0  0  0  0  0
   40.7420   32.5340   40.5370 C   0  0  0  0  0  0  0  0  0  0  0  0
   40.3080   33.8680   40.4160 C   0  0  0  0  0  0  0  0  0  0  0  0
   38.9040   34.1080   40.3910 C   0  0  0  0  0  0  0  0  0  0  0  0
   38.0710   33.0410   40.4850 N   0  0  0  0  0  0  0  0  0  0  0  0
   38.5300   31.7750   40.5990 C   0  0  0  0  0  0  0  0  0  0  0  0
   39.8580   31.5130   40.6260 N   0  0  0  0  0  0  0  0  0  0  0  0
   41.7850   32.2640   40.5640 H   0  0  0  0  0  0  0  0  0  0  0  0
   41.0260   34.6490   40.3480 H   0  0  0  0  0  0  0  0  0  0  0  0
   38.5540   35.1270   40.2980 H   0  0  0  0  0  0  0  0  0  0  0  0
   36.9900   27.7130   43.6800 Cl  0  0  0  0  0  0  0  0  0  0  0  0
   36.9610   26.6870   42.2660 C   0  0  0  0  0  0  0  0  0  0  0  0
   36.8110   27.2830   41.0310 C   0  0  0  0  0  0  0  0  0  0  0  0
   36.7740   26.5760   39.8430 C   0  0  0  0  0  0  0  0  0  0  0  0
   36.6560   27.0460   38.8860 H   0  0  0  0  0  0  0  0  0  0  0  0
   36.8930   25.1820   39.8780 C   0  0  0  0  0  0  0  0  0  0  0  0
   36.8740   24.5590   38.9920 H   0  0  0  0  0  0  0  0  0  0  0  0
   37.0440   24.6150   41.1300 C   0  0  0  0  0  3  0  0  0  0  0  0
   37.0820   25.3190   42.3210 C   0  0  0  0  0  3  0  0  0  0  0  0
  1  5  2  0  0  0  0
  2  1  1  0  0  0  0
  2  3  2  0  0  0  0
  3  7  1  0  0  0  0
  3  4  1  0  0  0  0
  4 19  1  0  0  0  0
  5  4  1  0  0  0  0
  6  2  1  0  0  0  0
  8 14  1  0  0  0  0
  8 13  1  0  0  0  0
  9  8  2  0  0  0  0
 10  9  1  0  0  0  0
 10 11  2  0  0  0  0
 11 12  1  0  0  0  0
 12 13  2  0  0  0  0
 12  1  1  0  0  0  0
 15  9  1  0  0  0  0
 16 10  1  0  0  0  0
 18 25  1  0  0  0  0
 18 17  1  0  0  0  0
 19 18  2  0  0  0  0
 20 22  2  0  0  0  0
 20 19  1  0  0  0  0
 21 20  1  0  0  0  0
 22 24  1  0  0  0  0
 23 22  1  0  0  0  0
 24 25  2  0  0  0  0
M  END
>  <minimizedAffinity>
-5.21545839

$$$$

 OpenBabel03242520033D

 25 27  0  0  0  0  0  0  0  0999 V2000
   37.8170   28.0910   41.5620 C   0  0  0  0  0  0  0  0  0  0  0  0
   36.5280   28.0940   41.0160 C   0  0  0  0  0  0  0  0  0  0  0  0
   36.2690   29.3430   40.5500 C   0  0  0  0  0  0  0  0  0  0  0  0
   37.3590   30.0850   40.7990 N   0  0  0  0  0  0  0  0  0  0  0  0
   38.2940   29.3290   41.4100 N   0  0  0  0  0  0  0  0  0  0  0  0
   35.8110   27.2860   40.9440 H   0  0  0  0  0  0  0  0  0  0  0  0
   35.4210   29.8040   40.0600 H   0  0  0  0  0  0  0  0  0  0  0  0
   38.6580   24.6150   42.3620 C   0  0  0  0  0  0  0  0  0  0  0  0
   39.6940   24.7560   43.3050 C   0  0  0  0  0  0  0  0  0  0  0  0
   40.0950   26.0760   43.6580 C   0  0  0  0  0  0  0  0  0  0  0  0
   39.4560   27.1180   43.0660 N   0  0  0  0  0  0  0  0  0  0  0  0
   38.4660   26.9380   42.1640 C   0  0  0  0  0  0  0  0  0  0  0  0
   38.0620   25.6960   41.8070 N   0  0  0  0  0  0  0  0  0  0  0  0
   38.2950   23.6540   42.0400 H   0  0  0  0  0  0  0  0  0  0  0  0
   40.1440   23.8880   43.7240 H   0  0  0  0  0  0  0  0  0  0  0  0
   40.8890   26.2020   44.3810 H   0  0  0  0  0  0  0  0  0  0  0  0
   39.7560   31.0150   42.3020 Cl  0  0  0  0  0  0  0  0  0  0  0  0
   38.8310   32.0060   41.2010 C   0  0  0  0  0  0  0  0  0  0  0  0
   37.7400   31.4400   40.5730 C   0  0  0  0  0  0  0  0  0  0  0  0
   36.9330   32.1230   39.6830 C   0  0  0  0  0  0  0  0  0  0  0  0
   36.0860   31.6760   39.1980 H   0  0  0  0  0  0  0  0  0  0  0  0
   37.2230   33.4610   39.3920 C   0  0  0  0  0  0  0  0  0  0  0  0
   36.6380   34.0630   38.7070 H   0  0  0  0  0  0  0  0  0  0  0  0
   38.3200   34.0000   40.0370 C   0  0  0  0  0  3  0  0  0  0  0  0
   39.1300   33.3190   40.9290 C   0  0  0  0  0  3  0  0  0  0  0  0
  1 12  1  0  0  0  0
  2  1  1  0  0  0  0
  3  4  1  0  0  0  0
  3  2  2  0  0  0  0
  4  5  1  0  0  0  0
  5  1  2  0  0  0  0
  6  2  1  0  0  0  0
  7  3  1  0  0  0  0
  8  9  1  0  0  0  0
  9 10  2  0  0  0  0
  9 15  1  0  0  0  0
 10 16  1  0  0  0  0
 11 10  1  0  0  0  0
 12 11  2  0  0  0  0
 13 12  1  0  0  0  0
 13  8  2  0  0  0  0
 14  8  1  0  0  0  0
 18 17  1  0  0  0  0
 19  4  1  0  0  0  0
 19 18  2  0  0  0  0
 20 19  1  0  0  0  0
 21 20  1  0  0  0  0
 22 20  2  0  0  0  0
 22 24  1  0  0  0  0
 23 22  1  0  0  0  0
 24 25  2  0  0  0  0
 25 18  1  0  0  0  0
M  END
>  <minimizedAffinity>
-5.10689974

$$$$

 OpenBabel03242520033D

 25 27  0  0  0  0  0  0  0  0999 V2000
   38.9120   31.8200   39.7330 C   0  0  0  0  0  0  0  0  0  0  0  0
   37.6520   32.4010   39.9220 C   0  0  0  0  0  0  0  0  0  0  0  0
   36.8900   31.5330   40.6380 C   0  0  0  0  0  0  0  0  0  0  0  0
   37.6520   30.4560   40.8810 N   0  0  0  0  0  0  0  0  0  0  0  0
   38.8730   30.6300   40.3360 N   0  0  0  0  0  0  0  0  0  0  0  0
   37.2820   33.3610   39.5870 H   0  0  0  0  0  0  0  0  0  0  0  0
   35.8740   31.5530   41.0100 H   0  0  0  0  0  0  0  0  0  0  0  0
   41.4610   32.4500   37.1760 C   0  0  0  0  0  0  0  0  0  0  0  0
   42.1050   33.6050   37.6590 C   0  0  0  0  0  0  0  0  0  0  0  0
   41.6400   34.1610   38.8850 C   0  0  0  0  0  0  0  0  0  0  0  0
   40.6060   33.5460   39.5140 N   0  0  0  0  0  0  0  0  0  0  0  0
   40.0150   32.4370   39.0150 C   0  0  0  0  0  0  0  0  0  0  0  0
   40.4340   31.8840   37.8530 N   0  0  0  0  0  0  0  0  0  0  0  0
   41.7500   31.9660   36.2590 H   0  0  0  0  0  0  0  0  0  0  0  0
   42.9090   34.0270   37.1050 H   0  0  0  0  0  0  0  0  0  0  0  0
   42.1230   35.0490   39.2680 H   0  0  0  0  0  0  0  0  0  0  0  0
   36.7890   28.1680   39.1810 Cl  0  0  0  0  0  0  0  0  0  0  0  0
   37.0750   28.0720   40.9010 C   0  0  0  0  0  0  0  0  0  0  0  0
   37.4720   29.2170   41.5610 C   0  0  0  0  0  0  0  0  0  0  0  0
   37.7280   29.2640   42.9200 C   0  0  0  0  0  0  0  0  0  0  0  0
   38.0360   30.1580   43.4260 H   0  0  0  0  0  0  0  0  0  0  0  0
   37.5800   28.0980   43.6800 C   0  0  0  0  0  0  0  0  0  0  0  0
   37.7610   28.0540   44.7470 H   0  0  0  0  0  0  0  0  0  0  0  0
   37.1800   26.9690   42.9900 C   0  0  0  0  0  3  0  0  0  0  0  0
   36.9240   26.9180   41.6310 C   0  0  0  0  0  3  0  0  0  0  0  0
  1  2  1  0  0  0  0
  1  5  2  0  0  0  0
  2  3  2  0  0  0  0
  3  4  1  0  0  0  0
  3  7  1  0  0  0  0
  4 19  1  0  0  0  0
  5  4  1  0  0  0  0
  6  2  1  0  0  0  0
  8  9  2  0  0  0  0
  8 13  1  0  0  0  0
  9 10  1  0  0  0  0
 10 16  1  0  0  0  0
 10 11  2  0  0  0  0
 12 11  1  0  0  0  0
 12  1  1  0  0  0  0
 13 12  2  0  0  0  0
 14  8  1  0  0  0  0
 15  9  1  0  0  0  0
 17 18  1  0  0  0  0
 18 19  2  0  0  0  0
 18 25  1  0  0  0  0
 19 20  1  0  0  0  0
 20 21  1  0  0  0  0
 20 22  2  0  0  0  0
 22 23  1  0  0  0  0
 24 22  1  0  0  0  0
 25 24  2  0  0  0  0
M  END
>  <minimizedAffinity>
-5.07353735

$$$$

 OpenBabel03242520033D

 25 27  0  0  0  0  0  0  0  0999 V2000
   38.0890   29.4670   41.9100 C   0  0  0  0  0  0  0  0  0  0  0  0
   38.0950   29.2570   43.2950 C   0  0  0  0  0  0  0  0  0  0  0  0
   38.0910   27.9180   43.5190 C   0  0  0  0  0  0  0  0  0  0  0  0
   38.0830   27.3220   42.3170 N   0  0  0  0  0  0  0  0  0  0  0  0
   38.0820   28.2570   41.3460 N   0  0  0  0  0  0  0  0  0  0  0  0
   38.1000   29.9820   44.0990 H   0  0  0  0  0  0  0  0  0  0  0  0
   38.0920   27.3030   44.4100 H   0  0  0  0  0  0  0  0  0  0  0  0
   39.1580   32.8120   40.8640 C   0  0  0  0  0  0  0  0  0  0  0  0
   38.0950   33.2330   40.0400 C   0  0  0  0  0  0  0  0  0  0  0  0
   37.0040   32.3370   39.8560 C   0  0  0  0  0  0  0  0  0  0  0  0
   37.0520   31.1340   40.4820 N   0  0  0  0  0  0  0  0  0  0  0  0
   38.0920   30.7690   41.2640 C   0  0  0  0  0  0  0  0  0  0  0  0
   39.1440   31.5970   41.4600 N   0  0  0  0  0  0  0  0  0  0  0  0
   40.0200   33.4270   41.0560 H   0  0  0  0  0  0  0  0  0  0  0  0
   38.1340   34.1940   39.5850 H   0  0  0  0  0  0  0  0  0  0  0  0
   36.1810   32.6460   39.2260 H   0  0  0  0  0  0  0  0  0  0  0  0
   40.7620   26.1090   41.8480 Cl  0  0  0  0  0  0  0  0  0  0  0  0
   39.2430   25.2870   41.5900 C   0  0  0  0  0  0  0  0  0  0  0  0
   38.0760   25.9750   41.8500 C   0  0  0  0  0  0  0  0  0  0  0  0
   36.8160   25.4310   41.6840 C   0  0  0  0  0  0  0  0  0  0  0  0
   35.9130   25.9720   41.8890 H   0  0  0  0  0  0  0  0  0  0  0  0
   36.7000   24.1130   41.2290 C   0  0  0  0  0  0  0  0  0  0  0  0
   35.7500   23.6160   41.0730 H   0  0  0  0  0  0  0  0  0  0  0  0
   37.8870   23.4500   40.9760 C   0  0  0  0  0  3  0  0  0  0  0  0
   39.1490   23.9910   41.1410 C   0  0  0  0  0  3  0  0  0  0  0  0
  1  2  1  0  0  0  0
  2  3  2  0  0  0  0
  2  6  1  0  0  0  0
  3  7  1  0  0  0  0
  4  3  1  0  0  0  0
  5  1  2  0  0  0  0
  5  4  1  0  0  0  0
  8 14  1  0  0  0  0
  8 13  1  0  0  0  0
  9  8  2  0  0  0  0
 10  9  1  0  0  0  0
 10 11  2  0  0  0  0
 11 12  1  0  0  0  0
 12 13  2  0  0  0  0
 12  1  1  0  0  0  0
 15  9  1  0  0  0  0
 16 10  1  0  0  0  0
 18 17  1  0  0  0  0
 18 19  1  0  0  0  0
 19  4  1  0  0  0  0
 20 19  2  0  0  0  0
 20 21  1  0  0  0  0
 22 20  1  0  0  0  0
 23 22  1  0  0  0  0
 24 25  1  0  0  0  0
 24 22  2  0  0  0  0
 25 18  2  0  0  0  0
M  END
>  <minimizedAffinity>
-4.92537308

$$$$

 OpenBabel03242520033D

 25 27  0  0  0  0  0  0  0  0999 V2000
   37.5910   30.6600   40.6220 C   0  0  0  0  0  0  0  0  0  0  0  0
   36.1990   30.8180   40.6370 C   0  0  0  0  0  0  0  0  0  0  0  0
   35.6350   29.5850   40.7220 C   0  0  0  0  0  0  0  0  0  0  0  0
   36.6410   28.6980   40.7580 N   0  0  0  0  0  0  0  0  0  0  0  0
   37.8220   29.3470   40.6980 N   0  0  0  0  0  0  0  0  0  0  0  0
   35.6110   31.7250   40.5910 H   0  0  0  0  0  0  0  0  0  0  0  0
   34.6150   29.2250   40.7610 H   0  0  0  0  0  0  0  0  0  0  0  0
   38.9890   34.0410   40.4200 C   0  0  0  0  0  0  0  0  0  0  0  0
   40.3760   33.8010   40.3860 C   0  0  0  0  0  0  0  0  0  0  0  0
   40.8170   32.4470   40.4340 C   0  0  0  0  0  0  0  0  0  0  0  0
   39.8760   31.4710   40.5100 N   0  0  0  0  0  0  0  0  0  0  0  0
   38.5530   31.7460   40.5410 C   0  0  0  0  0  0  0  0  0  0  0  0
   38.1020   33.0210   40.4970 N   0  0  0  0  0  0  0  0  0  0  0  0
   38.5720   35.0330   40.3880 H   0  0  0  0  0  0  0  0  0  0  0  0
   41.0490   34.6220   40.3260 H   0  0  0  0  0  0  0  0  0  0  0  0
   41.8790   32.2470   40.4090 H   0  0  0  0  0  0  0  0  0  0  0  0
   36.2680   27.2250   38.1970 Cl  0  0  0  0  0  0  0  0  0  0  0  0
   36.5920   26.4680   39.7370 C   0  0  0  0  0  0  0  0  0  0  0  0
   36.7420   27.2790   40.8430 C   0  0  0  0  0  0  0  0  0  0  0  0
   37.0010   26.7970   42.1130 C   0  0  0  0  0  0  0  0  0  0  0  0
   37.1170   27.4340   42.9690 H   0  0  0  0  0  0  0  0  0  0  0  0
   37.1200   25.4150   42.3040 C   0  0  0  0  0  0  0  0  0  0  0  0
   37.3210   24.9610   43.2670 H   0  0  0  0  0  0  0  0  0  0  0  0
   36.9630   24.6300   41.1780 C   0  0  0  0  0  3  0  0  0  0  0  0
   36.7040   25.1090   39.9050 C   0  0  0  0  0  3  0  0  0  0  0  0
  1  2  1  0  0  0  0
  1  5  2  0  0  0  0
  2  3  2  0  0  0  0
  3  4  1  0  0  0  0
  3  7  1  0  0  0  0
  4 19  1  0  0  0  0
  5  4  1  0  0  0  0
  6  2  1  0  0  0  0
  8 13  1  0  0  0  0
  9  8  2  0  0  0  0
  9 10  1  0  0  0  0
 10 11  2  0  0  0  0
 11 12  1  0  0  0  0
 12  1  1  0  0  0  0
 13 12  2  0  0  0  0
 14  8  1  0  0  0  0
 15  9  1  0  0  0  0
 16 10  1  0  0  0  0
 17 18  1  0  0  0  0
 18 25  2  0  0  0  0
 18 19  1  0  0  0  0
 19 20  2  0  0  0  0
 20 22  1  0  0  0  0
 20 21  1  0  0  0  0
 22 23  1  0  0  0  0
 24 22  2  0  0  0  0
 25 24  1  0  0  0  0
M  END
>  <minimizedAffinity>
-4.90514565

$$$$

 OpenBabel03242520033D

 25 27  0  0  0  0  0  0  0  0999 V2000
   37.8580   27.3910   42.0100 C   0  0  0  0  0  0  0  0  0  0  0  0
   37.7030   27.8270   43.3320 C   0  0  0  0  0  0  0  0  0  0  0  0
   37.7870   29.1820   43.3420 C   0  0  0  0  0  0  0  0  0  0  0  0
   37.9870   29.5700   42.0740 N   0  0  0  0  0  0  0  0  0  0  0  0
   38.0290   28.4890   41.2690 N   0  0  0  0  0  0  0  0  0  0  0  0
   37.5440   27.2470   44.2310 H   0  0  0  0  0  0  0  0  0  0  0  0
   37.7290   29.9350   44.1180 H   0  0  0  0  0  0  0  0  0  0  0  0
   38.7750   23.8650   41.6200 C   0  0  0  0  0  0  0  0  0  0  0  0
   37.7690   23.3760   40.7630 C   0  0  0  0  0  0  0  0  0  0  0  0
   36.7700   24.2910   40.3240 C   0  0  0  0  0  0  0  0  0  0  0  0
   36.8450   25.5760   40.7570 N   0  0  0  0  0  0  0  0  0  0  0  0
   37.8280   26.0030   41.5800 C   0  0  0  0  0  0  0  0  0  0  0  0
   38.7930   25.1600   42.0140 N   0  0  0  0  0  0  0  0  0  0  0  0
   39.5670   23.2410   41.9980 H   0  0  0  0  0  0  0  0  0  0  0  0
   37.7810   22.3540   40.4700 H   0  0  0  0  0  0  0  0  0  0  0  0
   35.9900   23.9310   39.6670 H   0  0  0  0  0  0  0  0  0  0  0  0
   40.6010   30.9250   42.5240 Cl  0  0  0  0  0  0  0  0  0  0  0  0
   39.3160   31.5570   41.5240 C   0  0  0  0  0  0  0  0  0  0  0  0
   38.1570   30.8180   41.4070 C   0  0  0  0  0  0  0  0  0  0  0  0
   37.0730   31.2150   40.6450 C   0  0  0  0  0  0  0  0  0  0  0  0
   36.1750   30.6350   40.5590 H   0  0  0  0  0  0  0  0  0  0  0  0
   37.1390   32.4270   39.9490 C   0  0  0  0  0  0  0  0  0  0  0  0
   36.3340   32.8060   39.3320 H   0  0  0  0  0  0  0  0  0  0  0  0
   38.3130   33.1450   40.0870 C   0  0  0  0  0  3  0  0  0  0  0  0
   39.3990   32.7510   40.8480 C   0  0  0  0  0  3  0  0  0  0  0  0
  1  2  1  0  0  0  0
  2  3  2  0  0  0  0
  2  6  1  0  0  0  0
  3  7  1  0  0  0  0
  4  3  1  0  0  0  0
  5  1  2  0  0  0  0
  5  4  1  0  0  0  0
  8 14  1  0  0  0  0
  8 13  1  0  0  0  0
  9  8  2  0  0  0  0
 10 11  2  0  0  0  0
 10  9  1  0  0  0  0
 11 12  1  0  0  0  0
 12  1  1  0  0  0  0
 12 13  2  0  0  0  0
 15  9  1  0  0  0  0
 16 10  1  0  0  0  0
 18 17  1  0  0  0  0
 19 18  1  0  0  0  0
 19  4  1  0  0  0  0
 20 19  2  0  0  0  0
 21 20  1  0  0  0  0
 22 24  2  0  0  0  0
 22 20  1  0  0  0  0
 23 22  1  0  0  0  0
 24 25  1  0  0  0  0
 25 18  2  0  0  0  0
M  END
>  <minimizedAffinity>
-4.88614082

$$$$

 OpenBabel03242520033D

 25 27  0  0  0  0  0  0  0  0999 V2000
   37.7830   30.4040   41.0320 C   0  0  0  0  0  0  0  0  0  0  0  0
   36.4160   30.1330   41.1730 C   0  0  0  0  0  0  0  0  0  0  0  0
   36.2770   28.8240   41.5080 C   0  0  0  0  0  0  0  0  0  0  0  0
   37.5130   28.3050   41.5710 N   0  0  0  0  0  0  0  0  0  0  0  0
   38.4220   29.2590   41.2840 N   0  0  0  0  0  0  0  0  0  0  0  0
   35.5700   30.7960   41.0520 H   0  0  0  0  0  0  0  0  0  0  0  0
   35.4280   28.1850   41.7130 H   0  0  0  0  0  0  0  0  0  0  0  0
   40.2170   33.0810   40.4520 C   0  0  0  0  0  0  0  0  0  0  0  0
   39.4070   34.1470   40.0150 C   0  0  0  0  0  0  0  0  0  0  0  0
   38.0040   33.9200   39.9260 C   0  0  0  0  0  0  0  0  0  0  0  0
   37.5310   32.6940   40.2660 N   0  0  0  0  0  0  0  0  0  0  0  0
   38.3450   31.6970   40.6810 C   0  0  0  0  0  0  0  0  0  0  0  0
   39.6830   31.8800   40.7770 N   0  0  0  0  0  0  0  0  0  0  0  0
   41.2860   33.1680   40.5480 H   0  0  0  0  0  0  0  0  0  0  0  0
   39.8550   35.0790   39.7670 H   0  0  0  0  0  0  0  0  0  0  0  0
   37.3680   34.7290   39.5910 H   0  0  0  0  0  0  0  0  0  0  0  0
   36.6420   26.0920   39.7790 Cl  0  0  0  0  0  0  0  0  0  0  0  0
   37.7500   25.9060   41.1160 C   0  0  0  0  0  0  0  0  0  0  0  0
   38.0630   27.0230   41.8630 C   0  0  0  0  0  0  0  0  0  0  0  0
   38.9260   27.0010   42.9430 C   0  0  0  0  0  0  0  0  0  0  0  0
   39.1660   27.8740   43.5190 H   0  0  0  0  0  0  0  0  0  0  0  0
   39.5210   25.7890   43.3130 C   0  0  0  0  0  0  0  0  0  0  0  0
   40.2060   25.6900   44.1450 H   0  0  0  0  0  0  0  0  0  0  0  0
   39.1860   24.6880   42.5460 C   0  0  0  0  0  3  0  0  0  0  0  0
   38.3230   24.7070   41.4650 C   0  0  0  0  0  3  0  0  0  0  0  0
  1  2  1  0  0  0  0
  1  5  2  0  0  0  0
  2  3  2  0  0  0  0
  3  4  1  0  0  0  0
  3  7  1  0  0  0  0
  4 19  1  0  0  0  0
  5  4  1  0  0  0  0
  6  2  1  0  0  0  0
  8 14  1  0  0  0  0
  8 13  1  0  0  0  0
  9  8  2  0  0  0  0
 10  9  1  0  0  0  0
 10 11  2  0  0  0  0
 11 12  1  0  0  0  0
 12 13  2  0  0  0  0
 12  1  1  0  0  0  0
 15  9  1  0  0  0  0
 16 10  1  0  0  0  0
 17 18  1  0  0  0  0
 18 25  2  0  0  0  0
 18 19  1  0  0  0  0
 19 20  2  0  0  0  0
 20 22  1  0  0  0  0
 20 21  1  0  0  0  0
 22 23  1  0  0  0  0
 24 22  2  0  0  0  0
 25 24  1  0  0  0  0
M  END
>  <minimizedAffinity>
-4.84615803

$$$$

 OpenBabel03242520033D

 25 27  0  0  0  0  0  0  0  0999 V2000
   37.4420   26.7410   41.6870 C   0  0  0  0  0  0  0  0  0  0  0  0
   37.1090   27.0250   43.0180 C   0  0  0  0  0  0  0  0  0  0  0  0
   37.2250   28.3660   43.2050 C   0  0  0  0  0  0  0  0  0  0  0  0
   37.6150   28.8900   42.0330 N   0  0  0  0  0  0  0  0  0  0  0  0
   37.7460   27.9090   41.1170 N   0  0  0  0  0  0  0  0  0  0  0  0
   36.8070   26.3510   43.8080 H   0  0  0  0  0  0  0  0  0  0  0  0
   37.0740   29.0240   44.0500 H   0  0  0  0  0  0  0  0  0  0  0  0
   36.5350   23.9040   39.5530 C   0  0  0  0  0  0  0  0  0  0  0  0
   37.4360   22.9040   39.9680 C   0  0  0  0  0  0  0  0  0  0  0  0
   38.3620   23.2310   40.9990 C   0  0  0  0  0  0  0  0  0  0  0  0
   38.3220   24.4840   41.5200 N   0  0  0  0  0  0  0  0  0  0  0  0
   37.4390   25.4150   41.0920 C   0  0  0  0  0  0  0  0  0  0  0  0
   36.5470   25.1360   40.1140 N   0  0  0  0  0  0  0  0  0  0  0  0
   35.8030   23.7400   38.7800 H   0  0  0  0  0  0  0  0  0  0  0  0
   37.4030   21.9450   39.5080 H   0  0  0  0  0  0  0  0  0  0  0  0
   39.0600   22.4750   41.3280 H   0  0  0  0  0  0  0  0  0  0  0  0
   35.4710   30.1860   40.4220 Cl  0  0  0  0  0  0  0  0  0  0  0  0
   37.0110   30.9190   40.7940 C   0  0  0  0  0  0  0  0  0  0  0  0
   37.9110   30.1990   41.5530 C   0  0  0  0  0  0  0  0  0  0  0  0
   39.1590   30.6740   41.9110 C   0  0  0  0  0  0  0  0  0  0  0  0
   39.8530   30.1080   42.5020 H   0  0  0  0  0  0  0  0  0  0  0  0
   39.5470   31.9510   41.4900 C   0  0  0  0  0  0  0  0  0  0  0  0
   40.5070   32.3930   41.7280 H   0  0  0  0  0  0  0  0  0  0  0  0
   38.6250   32.6470   40.7300 C   0  0  0  0  0  3  0  0  0  0  0  0
   37.3750   32.1750   40.3700 C   0  0  0  0  0  3  0  0  0  0  0  0
  1  2  1  0  0  0  0
  2  3  2  0  0  0  0
  2  6  1  0  0  0  0
  3  7  1  0  0  0  0
  4  3  1  0  0  0  0
  5  1  2  0  0  0  0
  5  4  1  0  0  0  0
  8  9  2  0  0  0  0
  8 13  1  0  0  0  0
  9 10  1  0  0  0  0
 10 16  1  0  0  0  0
 10 11  2  0  0  0  0
 12 11  1  0  0  0  0
 12  1  1  0  0  0  0
 13 12  2  0  0  0  0
 14  8  1  0  0  0  0
 15  9  1  0  0  0  0
 17 18  1  0  0  0  0
 18 19  1  0  0  0  0
 19 20  2  0  0  0  0
 19  4  1  0  0  0  0
 20 21  1  0  0  0  0
 22 23  1  0  0  0  0
 22 20  1  0  0  0  0
 24 22  2  0  0  0  0
 25 24  1  0  0  0  0
 25 18  2  0  0  0  0
M  END
>  <minimizedAffinity>
-4.74515533

$$$$
