
 OpenBabel03242523393D

 37 41  0  0  1  0  0  0  0  0999 V2000
   46.7860   32.6930   44.9690 C   0  0  2  0  0  0  0  0  0  0  0  0
   47.3960   31.5740   44.9040 N   0  0  2  0  0  4  0  0  0  0  0  0
   47.4040   30.3390   44.6930 C   0  0  0  0  0  0  0  0  0  0  0  0
   47.7880   30.2360   46.0070 N   0  0  0  0  0  0  0  0  0  0  0  0
   46.9960   31.0130   46.8230 C   0  0  2  0  0  3  0  0  0  0  0  0
   46.7740   30.4930   48.1320 C   0  0  0  0  0  0  0  0  0  0  0  0
   45.9500   31.1950   48.9230 C   0  0  0  0  0  0  0  0  0  0  0  0
   45.3280   32.3430   48.5650 C   0  0  0  0  0  0  0  0  0  0  0  0
   45.6370   32.7360   47.2590 C   0  0  0  0  0  0  0  0  0  0  0  0
   46.4470   32.1890   46.2690 C   0  0  1  0  0  0  0  0  0  0  0  0
   47.6620   33.4390   45.3430 H   0  0  0  0  0  0  0  0  0  0  0  0
   48.2570   31.8220   44.2500 H   0  0  0  0  0  0  0  0  0  0  0  0
   46.4460   29.8130   44.4870 H   0  0  0  0  0  0  0  0  0  0  0  0
   48.1240   29.7400   44.0490 H   0  0  0  0  0  0  0  0  0  0  0  0
   48.5990   29.6240   46.3500 H   0  0  0  0  0  0  0  0  0  0  0  0
   47.2310   29.5960   48.4900 H   0  0  0  0  0  0  0  0  0  0  0  0
   45.7850   30.7850   49.9360 H   0  0  0  0  0  0  0  0  0  0  0  0
   44.6890   32.8460   49.2350 H   0  0  0  0  0  0  0  0  0  0  0  0
   45.0710   33.6550   47.1170 H   0  0  0  0  0  0  0  0  0  0  0  0
   44.5740   35.6560   44.8800 C   0  0  0  0  0  0  0  0  0  0  0  0
   44.0830   35.4480   43.5730 C   0  0  0  0  0  0  0  0  0  0  0  0
   44.5370   34.3320   42.8980 C   0  0  0  0  0  0  0  0  0  0  0  0
   45.4150   33.5340   43.5490 N   0  0  0  0  0  0  0  0  0  0  0  0
   45.8820   33.7530   44.8160 C   0  0  0  0  0  0  0  0  0  0  0  0
   45.4180   34.7910   45.3630 N   0  0  0  0  0  0  0  0  0  0  0  0
   44.2580   36.5100   45.4630 H   0  0  0  0  0  0  0  0  0  0  0  0
   43.3850   36.1860   43.2040 H   0  0  0  0  0  0  0  0  0  0  0  0
   43.9240   34.0550   41.2800 S   0  0  0  0  0  0  0  0  0  0  0  0
   41.3460   35.9510   41.0690 Cl  0  0  0  0  0  0  0  0  0  0  0  0
   41.1440   34.2390   41.2980 C   0  0  0  0  0  0  0  0  0  0  0  0
   42.2460   33.3970   41.3920 C   0  0  0  0  0  0  0  0  0  0  0  0
   42.0390   32.0350   41.5750 C   0  0  0  0  0  0  0  0  0  0  0  0
   42.9070   31.3650   41.6500 H   0  0  0  0  0  0  0  0  0  0  0  0
   40.7670   31.5090   41.6640 C   0  0  0  0  0  0  0  0  0  0  0  0
   40.6490   30.4470   41.8050 H   0  0  0  0  0  0  0  0  0  0  0  0
   39.6940   32.3790   41.5660 C   0  0  0  0  0  3  0  0  0  0  0  0
   39.8620   33.7310   41.3850 C   0  0  0  0  0  3  0  0  0  0  0  0
  1 11  1  1  0  0  0
  1 10  1  0  0  0  0
  2 12  1  1  0  0  0
  2  1  1  0  0  0  0
  2 10  1  0  0  0  0
  3  2  1  0  0  0  0
  3  4  1  0  0  0  0
  4 15  1  0  0  0  0
  4  5  1  0  0  0  0
  5  6  1  6  0  0  0
  6 16  1  0  0  0  0
  6  7  2  0  0  0  0
  7 17  1  0  0  0  0
  8  7  1  0  0  0  0
  8 18  1  0  0  0  0
  9  8  2  0  0  0  0
 10  5  1  0  0  0  0
 10  9  1  6  0  0  0
 13  3  1  0  0  0  0
 14  3  1  0  0  0  0
 19  9  1  0  0  0  0
 20 25  1  0  0  0  0
 20 26  1  0  0  0  0
 21 20  2  0  0  0  0
 22 23  2  0  0  0  0
 22 21  1  0  0  0  0
 23 24  1  0  0  0  0
 24  1  1  0  0  0  0
 24 25  2  0  0  0  0
 27 21  1  0  0  0  0
 28 31  1  0  0  0  0
 28 22  1  0  0  0  0
 29 30  1  0  0  0  0
 30 37  2  0  0  0  0
 30 31  1  0  0  0  0
 31 32  2  0  0  0  0
 32 33  1  0  0  0  0
 32 34  1  0  0  0  0
 34 35  1  0  0  0  0
 36 34  2  0  0  0  0
 37 36  1  0  0  0  0
M  END
>  <minimizedAffinity>
-6.03020382

>  <minimizedRMSD>
0.806869268

$$$$
