
 OpenBabel03242523393D

 37 41  0  0  1  0  0  0  0  0999 V2000
   46.8160   32.6250   45.0340 C   0  0  2  0  0  0  0  0  0  0  0  0
   47.4260   31.5060   44.9880 N   0  0  2  0  0  4  0  0  0  0  0  0
   47.4340   30.2670   44.7950 C   0  0  0  0  0  0  0  0  0  0  0  0
   47.8120   30.1830   46.1130 N   0  0  0  0  0  0  0  0  0  0  0  0
   47.0160   30.9720   46.9140 C   0  0  2  0  0  3  0  0  0  0  0  0
   46.7880   30.4720   48.2290 C   0  0  0  0  0  0  0  0  0  0  0  0
   45.9610   31.1850   49.0060 C   0  0  0  0  0  0  0  0  0  0  0  0
   45.3410   32.3280   48.6280 C   0  0  0  0  0  0  0  0  0  0  0  0
   45.6560   32.7020   47.3180 C   0  0  0  0  0  0  0  0  0  0  0  0
   46.4700   32.1400   46.3400 C   0  0  1  0  0  0  0  0  0  0  0  0
   47.6910   33.3760   45.4010 H   0  0  0  0  0  0  0  0  0  0  0  0
   48.2900   31.7430   44.3350 H   0  0  0  0  0  0  0  0  0  0  0  0
   46.4770   29.7390   44.5930 H   0  0  0  0  0  0  0  0  0  0  0  0
   48.1570   29.6590   44.1640 H   0  0  0  0  0  0  0  0  0  0  0  0
   48.6210   29.5760   46.4690 H   0  0  0  0  0  0  0  0  0  0  0  0
   47.2440   29.5790   48.6020 H   0  0  0  0  0  0  0  0  0  0  0  0
   45.7910   30.7900   50.0240 H   0  0  0  0  0  0  0  0  0  0  0  0
   44.7000   32.8410   49.2880 H   0  0  0  0  0  0  0  0  0  0  0  0
   45.0910   33.6190   47.1600 H   0  0  0  0  0  0  0  0  0  0  0  0
   44.5410   35.5390   44.9400 C   0  0  0  0  0  0  0  0  0  0  0  0
   44.3030   35.5100   43.5490 C   0  0  0  0  0  0  0  0  0  0  0  0
   44.9170   34.5080   42.8250 C   0  0  0  0  0  0  0  0  0  0  0  0
   45.6940   33.6380   43.5130 N   0  0  0  0  0  0  0  0  0  0  0  0
   45.9130   33.6830   44.8620 C   0  0  0  0  0  0  0  0  0  0  0  0
   45.3160   34.6270   45.4500 N   0  0  0  0  0  0  0  0  0  0  0  0
   44.0900   36.2980   45.5650 H   0  0  0  0  0  0  0  0  0  0  0  0
   43.6560   36.2830   43.1610 H   0  0  0  0  0  0  0  0  0  0  0  0
   44.6210   34.4520   41.0980 S   0  0  0  0  0  0  0  0  0  0  0  0
   43.8670   33.5110   38.1260 Cl  0  0  0  0  0  0  0  0  0  0  0  0
   42.9370   32.9340   39.4770 C   0  0  0  0  0  0  0  0  0  0  0  0
   43.2440   33.3280   40.7750 C   0  0  0  0  0  0  0  0  0  0  0  0
   42.4750   32.8440   41.8250 C   0  0  0  0  0  0  0  0  0  0  0  0
   42.7140   33.1520   42.8530 H   0  0  0  0  0  0  0  0  0  0  0  0
   41.4190   31.9850   41.6030 C   0  0  0  0  0  0  0  0  0  0  0  0
   40.8470   31.6320   42.4460 H   0  0  0  0  0  0  0  0  0  0  0  0
   41.1430   31.6150   40.2980 C   0  0  0  0  0  3  0  0  0  0  0  0
   41.8830   32.0750   39.2360 C   0  0  0  0  0  3  0  0  0  0  0  0
  1 11  1  1  0  0  0
  1 10  1  0  0  0  0
  2 12  1  1  0  0  0
  2  1  1  0  0  0  0
  2 10  1  0  0  0  0
  3  2  1  0  0  0  0
  3  4  1  0  0  0  0
  4 15  1  0  0  0  0
  4  5  1  0  0  0  0
  5  6  1  6  0  0  0
  6 16  1  0  0  0  0
  6  7  2  0  0  0  0
  7 17  1  0  0  0  0
  8  7  1  0  0  0  0
  8 18  1  0  0  0  0
  9  8  2  0  0  0  0
 10  5  1  0  0  0  0
 10  9  1  6  0  0  0
 13  3  1  0  0  0  0
 14  3  1  0  0  0  0
 19  9  1  0  0  0  0
 20 25  1  0  0  0  0
 20 26  1  0  0  0  0
 21 20  2  0  0  0  0
 22 23  2  0  0  0  0
 22 21  1  0  0  0  0
 23 24  1  0  0  0  0
 24  1  1  0  0  0  0
 24 25  2  0  0  0  0
 27 21  1  0  0  0  0
 28 22  1  0  0  0  0
 29 30  1  0  0  0  0
 30 31  1  0  0  0  0
 31 28  1  0  0  0  0
 31 32  2  0  0  0  0
 32 33  1  0  0  0  0
 34 32  1  0  0  0  0
 34 35  1  0  0  0  0
 36 34  2  0  0  0  0
 37 30  2  0  0  0  0
 37 36  1  0  0  0  0
M  END
>  <minimizedAffinity>
-5.47571802

>  <minimizedRMSD>
0.32510069

$$$$
