
 OpenBabel03242520023D

 25 27  0  0  0  0  0  0  0  0999 V2000
   47.6510   33.0480   43.7740 C   0  0  0  0  0  0  0  0  0  0  0  0
   47.5380   34.3320   43.2260 C   0  0  0  0  0  0  0  0  0  0  0  0
   48.2760   34.3710   42.0860 C   0  0  0  0  0  0  0  0  0  0  0  0
   48.8250   33.1560   41.9350 N   0  0  0  0  0  0  0  0  0  0  0  0
   48.4470   32.3570   42.9540 N   0  0  0  0  0  0  0  0  0  0  0  0
   46.9830   35.1860   43.5900 H   0  0  0  0  0  0  0  0  0  0  0  0
   48.4810   35.1350   41.3480 H   0  0  0  0  0  0  0  0  0  0  0  0
   46.6720   30.9360   46.6050 C   0  0  0  0  0  0  0  0  0  0  0  0
   45.7810   31.7640   47.3140 C   0  0  0  0  0  0  0  0  0  0  0  0
   45.5260   33.0650   46.7940 C   0  0  0  0  0  0  0  0  0  0  0  0
   46.1560   33.4300   45.6480 N   0  0  0  0  0  0  0  0  0  0  0  0
   47.0050   32.6030   44.9970 C   0  0  0  0  0  0  0  0  0  0  0  0
   47.2690   31.3610   45.4660 N   0  0  0  0  0  0  0  0  0  0  0  0
   46.9200   29.9400   46.9280 H   0  0  0  0  0  0  0  0  0  0  0  0
   45.3270   31.4030   48.2060 H   0  0  0  0  0  0  0  0  0  0  0  0
   44.8440   33.7120   47.3270 H   0  0  0  0  0  0  0  0  0  0  0  0
   47.6200   32.6610   39.2570 Cl  0  0  0  0  0  0  0  0  0  0  0  0
   49.2600   32.2500   39.6980 C   0  0  0  0  0  0  0  0  0  0  0  0
   49.6830   32.5400   40.9790 C   0  0  0  0  0  0  0  0  0  0  0  0
   50.9550   32.2630   41.4430 C   0  0  0  0  0  0  0  0  0  0  0  0
   51.2770   32.4910   42.4410 H   0  0  0  0  0  0  0  0  0  0  0  0
   51.8760   31.6560   40.5820 C   0  0  0  0  0  0  0  0  0  0  0  0
   52.8900   31.4070   40.8690 H   0  0  0  0  0  0  0  0  0  0  0  0
   51.4220   31.3790   39.3050 C   0  0  0  0  0  3  0  0  0  0  0  0
   50.1500   31.6550   38.8370 C   0  0  0  0  0  3  0  0  0  0  0  0
  1 12  1  0  0  0  0
  2  6  1  0  0  0  0
  2  1  1  0  0  0  0
  3  2  2  0  0  0  0
  4  3  1  0  0  0  0
  4  5  1  0  0  0  0
  5  1  2  0  0  0  0
  7  3  1  0  0  0  0
  8 14  1  0  0  0  0
  8  9  1  0  0  0  0
  9 15  1  0  0  0  0
 10  9  2  0  0  0  0
 10 16  1  0  0  0  0
 11 10  1  0  0  0  0
 12 13  1  0  0  0  0
 12 11  2  0  0  0  0
 13  8  2  0  0  0  0
 17 18  1  0  0  0  0
 18 19  1  0  0  0  0
 19 20  2  0  0  0  0
 19  4  1  0  0  0  0
 20 21  1  0  0  0  0
 22 23  1  0  0  0  0
 22 20  1  0  0  0  0
 24 22  2  0  0  0  0
 25 24  1  0  0  0  0
 25 18  2  0  0  0  0
M  END
>  <minimizedAffinity>
-4.1298275

>  <minimizedRMSD>
8.71437645

$$$$
