
 OpenBabel03242520023D

 25 27  0  0  0  0  0  0  0  0999 V2000
   45.9470   33.5960   45.7350 C   0  0  0  0  0  0  0  0  0  0  0  0
   45.0060   34.6220   45.5810 C   0  0  0  0  0  0  0  0  0  0  0  0
   45.1470   35.1400   44.3340 C   0  0  0  0  0  0  0  0  0  0  0  0
   46.1370   34.4590   43.7380 N   0  0  0  0  0  0  0  0  0  0  0  0
   46.6200   33.5260   44.5850 N   0  0  0  0  0  0  0  0  0  0  0  0
   44.2720   34.9900   46.2850 H   0  0  0  0  0  0  0  0  0  0  0  0
   44.6500   35.9300   43.7860 H   0  0  0  0  0  0  0  0  0  0  0  0
   47.5290   31.6610   48.4150 C   0  0  0  0  0  0  0  0  0  0  0  0
   46.4300   31.2670   49.2020 C   0  0  0  0  0  0  0  0  0  0  0  0
   45.1330   31.6830   48.7870 C   0  0  0  0  0  0  0  0  0  0  0  0
   45.0320   32.4340   47.6610 N   0  0  0  0  0  0  0  0  0  0  0  0
   46.1150   32.7910   46.9330 C   0  0  0  0  0  0  0  0  0  0  0  0
   47.3610   32.4110   47.3010 N   0  0  0  0  0  0  0  0  0  0  0  0
   48.5420   31.3890   48.6580 H   0  0  0  0  0  0  0  0  0  0  0  0
   46.5930   30.6770   50.0730 H   0  0  0  0  0  0  0  0  0  0  0  0
   44.2780   31.3880   49.3810 H   0  0  0  0  0  0  0  0  0  0  0  0
   44.7400   32.9790   41.5640 Cl  0  0  0  0  0  0  0  0  0  0  0  0
   46.2380   33.8540   41.3640 C   0  0  0  0  0  0  0  0  0  0  0  0
   46.7720   34.4950   42.4630 C   0  0  0  0  0  0  0  0  0  0  0  0
   47.9510   35.2170   42.4270 C   0  0  0  0  0  0  0  0  0  0  0  0
   48.3590   35.7130   43.2860 H   0  0  0  0  0  0  0  0  0  0  0  0
   48.6520   35.3130   41.2200 C   0  0  0  0  0  0  0  0  0  0  0  0
   49.5810   35.8590   41.1110 H   0  0  0  0  0  0  0  0  0  0  0  0
   48.0930   34.6600   40.1380 C   0  0  0  0  0  0  0  0  0  0  0  0
   46.9140   33.9360   40.1700 C   0  0  0  0  0  0  0  0  0  0  0  0
  1 12  1  0  0  0  0
  2  1  1  0  0  0  0
  2  6  1  0  0  0  0
  3  2  2  0  0  0  0
  4  3  1  0  0  0  0
  4  5  1  0  0  0  0
  5  1  2  0  0  0  0
  7  3  1  0  0  0  0
  8 14  1  0  0  0  0
  8  9  1  0  0  0  0
  9 15  1  0  0  0  0
 10  9  2  0  0  0  0
 10 16  1  0  0  0  0
 11 10  1  0  0  0  0
 12 13  1  0  0  0  0
 12 11  2  0  0  0  0
 13  8  2  0  0  0  0
 18 17  1  0  0  0  0
 18 19  1  0  0  0  0
 19  4  1  0  0  0  0
 20 19  2  0  0  0  0
 20 21  1  0  0  0  0
 22 20  1  0  0  0  0
 23 22  1  0  0  0  0
 24 25  1  0  0  0  0
 24 22  2  0  0  0  0
 25 18  2  0  0  0  0
M  END
>  <minimizedAffinity>
-5.76728106

>  <minimizedRMSD>
7.47546768

$$$$
