
 OpenBabel03242523403D

 37 41  0  0  1  0  0  0  0  0999 V2000
   36.9580   31.6640   40.1080 C   0  0  2  0  0  0  0  0  0  0  0  0
   37.0380   32.9370   40.1320 N   0  0  2  0  0  4  0  0  0  0  0  0
   37.2370   34.0350   39.5610 C   0  0  0  0  0  0  0  0  0  0  0  0
   38.2930   34.1610   40.4290 N   0  0  0  0  0  0  0  0  0  0  0  0
   39.0480   33.0090   40.4710 C   0  0  2  0  0  3  0  0  0  0  0  0
   40.4430   33.2010   40.6910 C   0  0  0  0  0  0  0  0  0  0  0  0
   41.2090   32.1020   40.6660 C   0  0  0  0  0  0  0  0  0  0  0  0
   40.7510   30.8460   40.4510 C   0  0  0  0  0  0  0  0  0  0  0  0
   39.3680   30.8050   40.2540 C   0  0  0  0  0  0  0  0  0  0  0  0
   38.3820   31.7870   40.2360 C   0  0  1  0  0  0  0  0  0  0  0  0
   36.7450   31.4020   41.2700 H   0  0  0  0  0  0  0  0  0  0  0  0
   36.0800   33.2170   40.6170 H   0  0  0  0  0  0  0  0  0  0  0  0
   37.5580   34.0480   38.4970 H   0  0  0  0  0  0  0  0  0  0  0  0
   36.6040   34.9780   39.6100 H   0  0  0  0  0  0  0  0  0  0  0  0
   38.5030   35.0470   40.9970 H   0  0  0  0  0  0  0  0  0  0  0  0
   40.8790   34.1600   40.8710 H   0  0  0  0  0  0  0  0  0  0  0  0
   42.2900   32.2610   40.8380 H   0  0  0  0  0  0  0  0  0  0  0  0
   41.4090   30.0230   40.4430 H   0  0  0  0  0  0  0  0  0  0  0  0
   39.1530   29.7510   40.0930 H   0  0  0  0  0  0  0  0  0  0  0  0
   36.6730   28.2390   38.7420 C   0  0  0  0  0  0  0  0  0  0  0  0
   36.6280   27.5750   39.9880 C   0  0  0  0  0  0  0  0  0  0  0  0
   36.6760   28.3600   41.1230 C   0  0  0  0  0  0  0  0  0  0  0  0
   36.7630   29.6980   40.9430 N   0  0  0  0  0  0  0  0  0  0  0  0
   36.8080   30.3240   39.7280 C   0  0  0  0  0  0  0  0  0  0  0  0
   36.7580   29.5380   38.7420 N   0  0  0  0  0  0  0  0  0  0  0  0
   36.6390   27.6840   37.8150 H   0  0  0  0  0  0  0  0  0  0  0  0
   36.5590   26.4980   39.9490 H   0  0  0  0  0  0  0  0  0  0  0  0
   36.6070   27.5490   42.6750 S   0  0  0  0  0  0  0  0  0  0  0  0
   36.7960   24.4540   41.8500 Cl  0  0  0  0  0  0  0  0  0  0  0  0
   38.1790   25.2510   42.5400 C   0  0  0  0  0  0  0  0  0  0  0  0
   38.1220   26.5920   42.9050 C   0  0  0  0  0  0  0  0  0  0  0  0
   39.2500   27.1890   43.4520 C   0  0  0  0  0  0  0  0  0  0  0  0
   39.2100   28.2490   43.7420 H   0  0  0  0  0  0  0  0  0  0  0  0
   40.4180   26.4790   43.6380 C   0  0  0  0  0  0  0  0  0  0  0  0
   41.2720   26.9800   44.0660 H   0  0  0  0  0  0  0  0  0  0  0  0
   40.4370   25.1470   43.2630 C   0  0  0  0  0  3  0  0  0  0  0  0
   39.3410   24.5240   42.7180 C   0  0  0  0  0  3  0  0  0  0  0  0
  1  2  1  0  0  0  0
  1 10  1  0  0  0  0
  1 11  1  1  0  0  0
  2 10  1  0  0  0  0
  2 12  1  1  0  0  0
  3 14  1  0  0  0  0
  3  2  1  0  0  0  0
  3  4  1  0  0  0  0
  4  5  1  0  0  0  0
  4 15  1  0  0  0  0
  5  6  1  6  0  0  0
  6 16  1  0  0  0  0
  7  6  2  0  0  0  0
  7 17  1  0  0  0  0
  8  7  1  0  0  0  0
  9  8  2  0  0  0  0
 10  9  1  6  0  0  0
 10  5  1  0  0  0  0
 13  3  1  0  0  0  0
 18  8  1  0  0  0  0
 19  9  1  0  0  0  0
 20 21  1  0  0  0  0
 21 22  2  0  0  0  0
 22 28  1  0  0  0  0
 23 22  1  0  0  0  0
 24  1  1  0  0  0  0
 24 23  2  0  0  0  0
 25 20  2  0  0  0  0
 25 24  1  0  0  0  0
 26 20  1  0  0  0  0
 27 21  1  0  0  0  0
 28 31  1  0  0  0  0
 29 30  1  0  0  0  0
 30 37  2  0  0  0  0
 30 31  1  0  0  0  0
 31 32  2  0  0  0  0
 32 34  1  0  0  0  0
 32 33  1  0  0  0  0
 34 35  1  0  0  0  0
 36 34  2  0  0  0  0
 37 36  1  0  0  0  0
M  END
>  <minimizedAffinity>
-6.62670517

$$$$

 OpenBabel03242523403D

 37 41  0  0  1  0  0  0  0  0999 V2000
   35.5700   29.6760   39.3550 C   0  0  2  0  0  0  0  0  0  0  0  0
   35.8170   30.1940   40.4950 N   0  0  2  0  0  4  0  0  0  0  0  0
   36.6050   30.7290   41.3100 C   0  0  0  0  0  0  0  0  0  0  0  0
   36.3500   29.6320   42.0960 N   0  0  0  0  0  0  0  0  0  0  0  0
   36.4470   28.4640   41.3720 C   0  0  2  0  0  3  0  0  0  0  0  0
   36.9240   27.3340   42.0990 C   0  0  0  0  0  0  0  0  0  0  0  0
   37.0940   26.2020   41.4010 C   0  0  0  0  0  0  0  0  0  0  0  0
   36.8450   26.0670   40.0780 C   0  0  0  0  0  0  0  0  0  0  0  0
   36.3820   27.2500   39.4940 C   0  0  0  0  0  0  0  0  0  0  0  0
   36.1280   28.5210   39.9990 C   0  0  1  0  0  0  0  0  0  0  0  0
   34.4120   29.3450   39.4730 H   0  0  0  0  0  0  0  0  0  0  0  0
   35.0090   30.9500   40.5820 H   0  0  0  0  0  0  0  0  0  0  0  0
   37.6810   30.8240   41.0480 H   0  0  0  0  0  0  0  0  0  0  0  0
   36.4450   31.6700   41.9270 H   0  0  0  0  0  0  0  0  0  0  0  0
   36.1110   29.6830   43.1400 H   0  0  0  0  0  0  0  0  0  0  0  0
   37.1390   27.3610   43.1460 H   0  0  0  0  0  0  0  0  0  0  0  0
   37.4630   25.3320   41.9740 H   0  0  0  0  0  0  0  0  0  0  0  0
   37.0020   25.1470   39.5880 H   0  0  0  0  0  0  0  0  0  0  0  0
   36.2330   26.9900   38.4480 H   0  0  0  0  0  0  0  0  0  0  0  0
   36.0090   28.6180   35.8390 C   0  0  0  0  0  0  0  0  0  0  0  0
   34.6370   28.4560   35.5500 C   0  0  0  0  0  0  0  0  0  0  0  0
   33.7410   28.7410   36.5610 C   0  0  0  0  0  0  0  0  0  0  0  0
   34.2570   29.1540   37.7430 N   0  0  0  0  0  0  0  0  0  0  0  0
   35.5910   29.3030   38.0040 C   0  0  0  0  0  0  0  0  0  0  0  0
   36.3420   29.0240   37.0300 N   0  0  0  0  0  0  0  0  0  0  0  0
   36.7620   28.4120   35.0910 H   0  0  0  0  0  0  0  0  0  0  0  0
   34.3980   28.1170   34.5520 H   0  0  0  0  0  0  0  0  0  0  0  0
   32.0340   28.5560   36.2110 S   0  0  0  0  0  0  0  0  0  0  0  0
   30.5170   30.0430   38.6170 Cl  0  0  0  0  0  0  0  0  0  0  0  0
   30.6430   30.8170   37.0640 C   0  0  0  0  0  0  0  0  0  0  0  0
   31.2960   30.1930   36.0060 C   0  0  0  0  0  0  0  0  0  0  0  0
   31.3740   30.8460   34.7840 C   0  0  0  0  0  0  0  0  0  0  0  0
   31.8880   30.3570   33.9450 H   0  0  0  0  0  0  0  0  0  0  0  0
   30.8180   32.0960   34.6030 C   0  0  0  0  0  0  0  0  0  0  0  0
   30.9000   32.5700   33.6370 H   0  0  0  0  0  0  0  0  0  0  0  0
   30.1760   32.6850   35.6780 C   0  0  0  0  0  3  0  0  0  0  0  0
   30.0810   32.0680   36.9010 C   0  0  0  0  0  3  0  0  0  0  0  0
  1 11  1  1  0  0  0
  1 10  1  0  0  0  0
  1  2  1  0  0  0  0
  2 12  1  1  0  0  0
  2  3  1  0  0  0  0
  3 14  1  0  0  0  0
  3  4  1  0  0  0  0
  4 15  1  0  0  0  0
  5  4  1  0  0  0  0
  5  6  1  6  0  0  0
  6 16  1  0  0  0  0
  7 17  1  0  0  0  0
  7  6  2  0  0  0  0
  8  7  1  0  0  0  0
  9  8  2  0  0  0  0
 10  9  1  6  0  0  0
 10  2  1  0  0  0  0
 10  5  1  0  0  0  0
 13  3  1  0  0  0  0
 18  8  1  0  0  0  0
 19  9  1  0  0  0  0
 20 25  1  0  0  0  0
 21 20  2  0  0  0  0
 21 22  1  0  0  0  0
 22 23  2  0  0  0  0
 23 24  1  0  0  0  0
 24  1  1  0  0  0  0
 25 24  2  0  0  0  0
 26 20  1  0  0  0  0
 27 21  1  0  0  0  0
 28 22  1  0  0  0  0
 30 29  1  0  0  0  0
 31 28  1  0  0  0  0
 31 30  2  0  0  0  0
 32 31  1  0  0  0  0
 33 32  1  0  0  0  0
 34 32  2  0  0  0  0
 34 36  1  0  0  0  0
 35 34  1  0  0  0  0
 36 37  2  0  0  0  0
 37 30  1  0  0  0  0
M  END
>  <minimizedAffinity>
-6.44708109

$$$$

 OpenBabel03242523403D

 37 41  0  0  1  0  0  0  0  0999 V2000
   37.9340   29.6940   42.2730 C   0  0  2  0  0  0  0  0  0  0  0  0
   36.7300   29.8200   41.8710 N   0  0  2  0  0  4  0  0  0  0  0  0
   35.8190   29.5860   41.0430 C   0  0  0  0  0  0  0  0  0  0  0  0
   35.8070   30.9450   40.8480 N   0  0  0  0  0  0  0  0  0  0  0  0
   37.0830   31.4380   40.6800 C   0  0  2  0  0  3  0  0  0  0  0  0
   37.1940   32.5550   39.8020 C   0  0  0  0  0  0  0  0  0  0  0  0
   38.4330   33.0110   39.5670 C   0  0  0  0  0  0  0  0  0  0  0  0
   39.5620   32.4870   40.1000 C   0  0  0  0  0  0  0  0  0  0  0  0
   39.3050   31.4010   40.9410 C   0  0  0  0  0  0  0  0  0  0  0  0
   38.1330   30.7600   41.3340 C   0  0  1  0  0  0  0  0  0  0  0  0
   37.9450   30.3890   43.2640 H   0  0  0  0  0  0  0  0  0  0  0  0
   36.1560   29.5380   42.7770 H   0  0  0  0  0  0  0  0  0  0  0  0
   36.0570   29.0250   40.1130 H   0  0  0  0  0  0  0  0  0  0  0  0
   34.7580   29.2330   41.2460 H   0  0  0  0  0  0  0  0  0  0  0  0
   34.9160   31.5420   40.8260 H   0  0  0  0  0  0  0  0  0  0  0  0
   36.3500   33.0260   39.3450 H   0  0  0  0  0  0  0  0  0  0  0  0
   38.5090   33.8780   38.8850 H   0  0  0  0  0  0  0  0  0  0  0  0
   40.5070   32.8920   39.8720 H   0  0  0  0  0  0  0  0  0  0  0  0
   40.2900   31.0910   41.2850 H   0  0  0  0  0  0  0  0  0  0  0  0
   41.4810   28.9120   42.9710 C   0  0  0  0  0  0  0  0  0  0  0  0
   41.3130   27.5160   43.1000 C   0  0  0  0  0  0  0  0  0  0  0  0
   40.0400   27.0140   42.9170 C   0  0  0  0  0  0  0  0  0  0  0  0
   39.0620   27.9050   42.6270 N   0  0  0  0  0  0  0  0  0  0  0  0
   39.2440   29.2550   42.5080 C   0  0  0  0  0  0  0  0  0  0  0  0
   40.4340   29.6330   42.6890 N   0  0  0  0  0  0  0  0  0  0  0  0
   42.4520   29.3690   43.1020 H   0  0  0  0  0  0  0  0  0  0  0  0
   42.2030   26.9510   43.3360 H   0  0  0  0  0  0  0  0  0  0  0  0
   39.8200   25.2820   43.0620 S   0  0  0  0  0  0  0  0  0  0  0  0
   40.8100   24.8470   40.0410 Cl  0  0  0  0  0  0  0  0  0  0  0  0
   39.1500   24.5410   40.4590 C   0  0  0  0  0  0  0  0  0  0  0  0
   38.6970   24.7210   41.7620 C   0  0  0  0  0  0  0  0  0  0  0  0
   37.3650   24.4650   42.0530 C   0  0  0  0  0  0  0  0  0  0  0  0
   37.0020   24.6060   43.0810 H   0  0  0  0  0  0  0  0  0  0  0  0
   36.4880   24.0360   41.0780 C   0  0  0  0  0  0  0  0  0  0  0  0
   35.4600   23.8480   41.3450 H   0  0  0  0  0  0  0  0  0  0  0  0
   36.9740   23.8680   39.7930 C   0  0  0  0  0  3  0  0  0  0  0  0
   38.2860   24.1120   39.4700 C   0  0  0  0  0  3  0  0  0  0  0  0
  1 24  1  0  0  0  0
  1 11  1  1  0  0  0
  2  1  1  0  0  0  0
  2 12  1  1  0  0  0
  3 14  1  0  0  0  0
  3  2  1  0  0  0  0
  4  3  1  0  0  0  0
  5  6  1  6  0  0  0
  5  4  1  0  0  0  0
  5 10  1  0  0  0  0
  7  6  2  0  0  0  0
  7  8  1  0  0  0  0
  8  9  2  0  0  0  0
  9 19  1  0  0  0  0
 10  9  1  6  0  0  0
 10  2  1  0  0  0  0
 10  1  1  0  0  0  0
 13  3  1  0  0  0  0
 15  4  1  0  0  0  0
 16  6  1  0  0  0  0
 17  7  1  0  0  0  0
 18  8  1  0  0  0  0
 20 21  1  0  0  0  0
 20 26  1  0  0  0  0
 21 27  1  0  0  0  0
 22 28  1  0  0  0  0
 22 21  2  0  0  0  0
 23 22  1  0  0  0  0
 24 23  2  0  0  0  0
 24 25  1  0  0  0  0
 25 20  2  0  0  0  0
 29 30  1  0  0  0  0
 30 31  1  0  0  0  0
 31 32  2  0  0  0  0
 31 28  1  0  0  0  0
 32 33  1  0  0  0  0
 34 35  1  0  0  0  0
 34 32  1  0  0  0  0
 36 34  2  0  0  0  0
 37 36  1  0  0  0  0
 37 30  2  0  0  0  0
M  END
>  <minimizedAffinity>
-6.31906557

$$$$

 OpenBabel03242523403D

 37 41  0  0  1  0  0  0  0  0999 V2000
   37.9610   28.2730   42.4910 C   0  0  2  0  0  0  0  0  0  0  0  0
   39.0340   28.0400   43.1410 N   0  0  2  0  0  4  0  0  0  0  0  0
   40.2730   27.8560   43.1840 C   0  0  0  0  0  0  0  0  0  0  0  0
   39.9520   26.6140   43.6750 N   0  0  0  0  0  0  0  0  0  0  0  0
   38.9710   26.0140   42.9180 C   0  0  2  0  0  3  0  0  0  0  0  0
   39.0570   24.5940   42.8220 C   0  0  0  0  0  0  0  0  0  0  0  0
   38.1560   23.9920   42.0340 C   0  0  0  0  0  0  0  0  0  0  0  0
   37.1880   24.6330   41.3380 C   0  0  0  0  0  0  0  0  0  0  0  0
   37.2190   26.0180   41.5250 C   0  0  0  0  0  0  0  0  0  0  0  0
   38.0370   26.8560   42.2770 C   0  0  1  0  0  0  0  0  0  0  0  0
   37.1220   28.2290   43.3620 H   0  0  0  0  0  0  0  0  0  0  0  0
   38.9900   28.8120   43.9360 H   0  0  0  0  0  0  0  0  0  0  0  0
   40.8510   27.8030   42.2370 H   0  0  0  0  0  0  0  0  0  0  0  0
   41.0320   28.3420   43.8770 H   0  0  0  0  0  0  0  0  0  0  0  0
   40.4130   26.1710   44.5360 H   0  0  0  0  0  0  0  0  0  0  0  0
   39.7900   24.0170   43.3440 H   0  0  0  0  0  0  0  0  0  0  0  0
   38.2300   22.8900   41.9680 H   0  0  0  0  0  0  0  0  0  0  0  0
   36.5100   24.0980   40.7330 H   0  0  0  0  0  0  0  0  0  0  0  0
   36.4010   26.3880   40.9120 H   0  0  0  0  0  0  0  0  0  0  0  0
   35.1920   29.2370   40.2370 C   0  0  0  0  0  0  0  0  0  0  0  0
   35.9890   29.9130   39.2870 C   0  0  0  0  0  0  0  0  0  0  0  0
   37.3510   29.9410   39.5120 C   0  0  0  0  0  0  0  0  0  0  0  0
   37.8040   29.3170   40.6240 N   0  0  0  0  0  0  0  0  0  0  0  0
   37.0160   28.6680   41.5330 C   0  0  0  0  0  0  0  0  0  0  0  0
   35.7860   28.6870   41.2560 N   0  0  0  0  0  0  0  0  0  0  0  0
   34.1190   29.1770   40.1200 H   0  0  0  0  0  0  0  0  0  0  0  0
   35.4610   30.3580   38.4550 H   0  0  0  0  0  0  0  0  0  0  0  0
   38.3520   30.7660   38.3340 S   0  0  0  0  0  0  0  0  0  0  0  0
   37.1450   33.5410   39.4000 Cl  0  0  0  0  0  0  0  0  0  0  0  0
   38.8300   33.1820   39.6390 C   0  0  0  0  0  0  0  0  0  0  0  0
   39.3760   31.9860   39.1860 C   0  0  0  0  0  0  0  0  0  0  0  0
   40.7260   31.7400   39.3980 C   0  0  0  0  0  0  0  0  0  0  0  0
   41.1630   30.7960   39.0420 H   0  0  0  0  0  0  0  0  0  0  0  0
   41.5290   32.6560   40.0460 C   0  0  0  0  0  0  0  0  0  0  0  0
   42.5730   32.4270   40.1910 H   0  0  0  0  0  0  0  0  0  0  0  0
   40.9500   33.8350   40.4820 C   0  0  0  0  0  3  0  0  0  0  0  0
   39.6180   34.1110   40.2900 C   0  0  0  0  0  3  0  0  0  0  0  0
  1  2  1  0  0  0  0
  1 11  1  1  0  0  0
  2  3  1  0  0  0  0
  2 12  1  1  0  0  0
  3  4  1  0  0  0  0
  3 14  1  0  0  0  0
  4 15  1  0  0  0  0
  5  6  1  6  0  0  0
  5  4  1  0  0  0  0
  6 16  1  0  0  0  0
  7  6  2  0  0  0  0
  8  9  2  0  0  0  0
  8  7  1  0  0  0  0
 10  9  1  6  0  0  0
 10  1  1  0  0  0  0
 10  5  1  0  0  0  0
 10  2  1  0  0  0  0
 13  3  1  0  0  0  0
 17  7  1  0  0  0  0
 18  8  1  0  0  0  0
 19  9  1  0  0  0  0
 20 25  1  0  0  0  0
 21 22  1  0  0  0  0
 21 20  2  0  0  0  0
 22 23  2  0  0  0  0
 23 24  1  0  0  0  0
 24  1  1  0  0  0  0
 25 24  2  0  0  0  0
 26 20  1  0  0  0  0
 27 21  1  0  0  0  0
 28 31  1  0  0  0  0
 28 22  1  0  0  0  0
 29 30  1  0  0  0  0
 30 37  1  0  0  0  0
 31 32  1  0  0  0  0
 31 30  2  0  0  0  0
 32 34  2  0  0  0  0
 33 32  1  0  0  0  0
 34 35  1  0  0  0  0
 34 36  1  0  0  0  0
 37 36  2  0  0  0  0
M  END
>  <minimizedAffinity>
-6.2427702

$$$$

 OpenBabel03242523403D

 37 41  0  0  1  0  0  0  0  0999 V2000
   37.1660   31.9590   40.5770 C   0  0  2  0  0  0  0  0  0  0  0  0
   37.3950   33.1830   40.3020 N   0  0  2  0  0  4  0  0  0  0  0  0
   37.3430   34.1600   39.5180 C   0  0  0  0  0  0  0  0  0  0  0  0
   38.7140   34.1340   39.5830 N   0  0  0  0  0  0  0  0  0  0  0  0
   39.2000   32.8560   39.4090 C   0  0  2  0  0  3  0  0  0  0  0  0
   40.4600   32.7670   38.7490 C   0  0  0  0  0  0  0  0  0  0  0  0
   40.9220   31.5320   38.5070 C   0  0  0  0  0  0  0  0  0  0  0  0
   40.2810   30.3880   38.8420 C   0  0  0  0  0  0  0  0  0  0  0  0
   39.0610   30.6240   39.4830 C   0  0  0  0  0  0  0  0  0  0  0  0
   38.3860   31.7870   39.8410 C   0  0  1  0  0  0  0  0  0  0  0  0
   37.6600   31.8490   41.6760 H   0  0  0  0  0  0  0  0  0  0  0  0
   36.9600   33.7000   41.1810 H   0  0  0  0  0  0  0  0  0  0  0  0
   36.9630   34.0130   38.4850 H   0  0  0  0  0  0  0  0  0  0  0  0
   36.9830   35.2160   39.7350 H   0  0  0  0  0  0  0  0  0  0  0  0
   39.3260   35.0010   39.7420 H   0  0  0  0  0  0  0  0  0  0  0  0
   41.0280   33.6240   38.4570 H   0  0  0  0  0  0  0  0  0  0  0  0
   41.9000   31.4730   37.9950 H   0  0  0  0  0  0  0  0  0  0  0  0
   40.6990   29.4470   38.6200 H   0  0  0  0  0  0  0  0  0  0  0  0
   38.6680   29.6300   39.6840 H   0  0  0  0  0  0  0  0  0  0  0  0
   35.7230   28.5630   40.3160 C   0  0  0  0  0  0  0  0  0  0  0  0
   36.3250   28.0450   41.4830 C   0  0  0  0  0  0  0  0  0  0  0  0
   37.1180   28.9040   42.2190 C   0  0  0  0  0  0  0  0  0  0  0  0
   37.2490   30.1690   41.7560 N   0  0  0  0  0  0  0  0  0  0  0  0
   36.6590   30.6520   40.6210 C   0  0  0  0  0  0  0  0  0  0  0  0
   35.9520   29.8070   40.0080 N   0  0  0  0  0  0  0  0  0  0  0  0
   35.0910   27.9430   39.6950 H   0  0  0  0  0  0  0  0  0  0  0  0
   36.1150   27.0090   41.7070 H   0  0  0  0  0  0  0  0  0  0  0  0
   37.8600   28.2780   43.6780 S   0  0  0  0  0  0  0  0  0  0  0  0
   40.5580   29.7680   42.7870 Cl  0  0  0  0  0  0  0  0  0  0  0  0
   40.5090   28.0300   42.8480 C   0  0  0  0  0  0  0  0  0  0  0  0
   39.3520   27.3620   43.2310 C   0  0  0  0  0  0  0  0  0  0  0  0
   39.3560   25.9740   43.2670 C   0  0  0  0  0  0  0  0  0  0  0  0
   38.4440   25.4410   43.5690 H   0  0  0  0  0  0  0  0  0  0  0  0
   40.4830   25.2520   42.9300 C   0  0  0  0  0  0  0  0  0  0  0  0
   40.4460   24.1750   42.9700 H   0  0  0  0  0  0  0  0  0  0  0  0
   41.6160   25.9520   42.5530 C   0  0  0  0  0  3  0  0  0  0  0  0
   41.6470   27.3250   42.5070 C   0  0  0  0  0  3  0  0  0  0  0  0
  1 24  1  0  0  0  0
  1 11  1  1  0  0  0
  2  1  1  0  0  0  0
  2 12  1  1  0  0  0
  3  4  1  0  0  0  0
  3 14  1  0  0  0  0
  3  2  1  0  0  0  0
  4 15  1  0  0  0  0
  5  6  1  6  0  0  0
  5  4  1  0  0  0  0
  5 10  1  0  0  0  0
  7  6  2  0  0  0  0
  7  8  1  0  0  0  0
  8  9  2  0  0  0  0
  9 19  1  0  0  0  0
 10  9  1  6  0  0  0
 10  2  1  0  0  0  0
 10  1  1  0  0  0  0
 13  3  1  0  0  0  0
 16  6  1  0  0  0  0
 17  7  1  0  0  0  0
 18  8  1  0  0  0  0
 20 21  1  0  0  0  0
 21 27  1  0  0  0  0
 21 22  2  0  0  0  0
 22 28  1  0  0  0  0
 23 22  1  0  0  0  0
 24 23  2  0  0  0  0
 25 20  2  0  0  0  0
 25 24  1  0  0  0  0
 26 20  1  0  0  0  0
 29 30  1  0  0  0  0
 30 31  1  0  0  0  0
 31 32  2  0  0  0  0
 31 28  1  0  0  0  0
 32 33  1  0  0  0  0
 34 35  1  0  0  0  0
 34 32  1  0  0  0  0
 36 34  2  0  0  0  0
 37 36  1  0  0  0  0
 37 30  2  0  0  0  0
M  END
>  <minimizedAffinity>
-6.12254477

$$$$

 OpenBabel03242523403D

 37 41  0  0  1  0  0  0  0  0999 V2000
   38.0140   30.6130   37.7010 C   0  0  2  0  0  0  0  0  0  0  0  0
   37.4600   30.1280   36.6600 N   0  0  2  0  0  4  0  0  0  0  0  0
   36.6540   30.2160   35.7030 C   0  0  0  0  0  0  0  0  0  0  0  0
   36.0330   29.1360   36.2830 N   0  0  0  0  0  0  0  0  0  0  0  0
   35.8600   29.3240   37.6360 C   0  0  2  0  0  3  0  0  0  0  0  0
   34.6880   28.7320   38.1900 C   0  0  0  0  0  0  0  0  0  0  0  0
   34.4600   28.9580   39.4910 C   0  0  0  0  0  0  0  0  0  0  0  0
   35.2570   29.6990   40.2970 C   0  0  0  0  0  0  0  0  0  0  0  0
   36.3680   30.2170   39.6250 C   0  0  0  0  0  0  0  0  0  0  0  0
   36.8110   30.1210   38.3090 C   0  0  1  0  0  0  0  0  0  0  0  0
   38.7240   29.7000   38.0590 H   0  0  0  0  0  0  0  0  0  0  0  0
   38.3380   29.8140   36.0590 H   0  0  0  0  0  0  0  0  0  0  0  0
   35.9870   31.1010   35.6310 H   0  0  0  0  0  0  0  0  0  0  0  0
   36.8400   29.9890   34.6050 H   0  0  0  0  0  0  0  0  0  0  0  0
   35.7200   28.2630   35.7450 H   0  0  0  0  0  0  0  0  0  0  0  0
   34.0120   28.1310   37.6200 H   0  0  0  0  0  0  0  0  0  0  0  0
   33.5490   28.4940   39.9110 H   0  0  0  0  0  0  0  0  0  0  0  0
   35.0180   29.8410   41.3130 H   0  0  0  0  0  0  0  0  0  0  0  0
   36.9010   30.7810   40.3870 H   0  0  0  0  0  0  0  0  0  0  0  0
   39.1600   33.1450   40.1420 C   0  0  0  0  0  0  0  0  0  0  0  0
   39.6120   32.2300   41.1180 C   0  0  0  0  0  0  0  0  0  0  0  0
   39.4950   30.8860   40.8260 C   0  0  0  0  0  0  0  0  0  0  0  0
   38.9570   30.5610   39.6270 N   0  0  0  0  0  0  0  0  0  0  0  0
   38.5240   31.4610   38.6940 C   0  0  0  0  0  0  0  0  0  0  0  0
   38.6660   32.6670   39.0360 N   0  0  0  0  0  0  0  0  0  0  0  0
   39.2240   34.2110   40.3080 H   0  0  0  0  0  0  0  0  0  0  0  0
   40.0150   32.6620   42.0230 H   0  0  0  0  0  0  0  0  0  0  0  0
   40.0640   29.7410   42.0240 S   0  0  0  0  0  0  0  0  0  0  0  0
   39.7070   27.0870   40.2570 Cl  0  0  0  0  0  0  0  0  0  0  0  0
   38.6200   27.3990   41.5780 C   0  0  0  0  0  0  0  0  0  0  0  0
   38.7540   28.5420   42.3590 C   0  0  0  0  0  0  0  0  0  0  0  0
   37.8660   28.7520   43.4040 C   0  0  0  0  0  0  0  0  0  0  0  0
   37.9680   29.6540   44.0240 H   0  0  0  0  0  0  0  0  0  0  0  0
   36.8570   27.8510   43.6790 C   0  0  0  0  0  0  0  0  0  0  0  0
   36.1870   28.0510   44.5000 H   0  0  0  0  0  0  0  0  0  0  0  0
   36.7540   26.7250   42.8810 C   0  0  0  0  0  3  0  0  0  0  0  0
   37.6160   26.4850   41.8390 C   0  0  0  0  0  3  0  0  0  0  0  0
  1 11  1  1  0  0  0
  1 10  1  0  0  0  0
  1 24  1  0  0  0  0
  2 12  1  6  0  0  0
  2  1  1  0  0  0  0
  2 10  1  0  0  0  0
  3  4  1  0  0  0  0
  3  2  1  0  0  0  0
  4  5  1  0  0  0  0
  5  6  1  6  0  0  0
  5 10  1  0  0  0  0
  6  7  2  0  0  0  0
  7 17  1  0  0  0  0
  7  8  1  0  0  0  0
  8 18  1  0  0  0  0
  9  8  2  0  0  0  0
  9 19  1  0  0  0  0
 10  9  1  6  0  0  0
 13  3  1  0  0  0  0
 14  3  1  0  0  0  0
 15  4  1  0  0  0  0
 16  6  1  0  0  0  0
 20 26  1  0  0  0  0
 20 21  1  0  0  0  0
 21 27  1  0  0  0  0
 22 21  2  0  0  0  0
 22 28  1  0  0  0  0
 23 22  1  0  0  0  0
 24 25  1  0  0  0  0
 24 23  2  0  0  0  0
 25 20  2  0  0  0  0
 28 31  1  0  0  0  0
 29 30  1  0  0  0  0
 30 37  2  0  0  0  0
 30 31  1  0  0  0  0
 31 32  2  0  0  0  0
 32 34  1  0  0  0  0
 32 33  1  0  0  0  0
 34 35  1  0  0  0  0
 36 34  2  0  0  0  0
 37 36  1  0  0  0  0
M  END
>  <minimizedAffinity>
-6.10005188

$$$$

 OpenBabel03242523403D

 37 41  0  0  1  0  0  0  0  0999 V2000
   39.7490   31.0800   37.7060 C   0  0  2  0  0  0  0  0  0  0  0  0
   40.6190   30.4250   37.0430 N   0  0  2  0  0  4  0  0  0  0  0  0
   41.5930   29.6370   36.9880 C   0  0  0  0  0  0  0  0  0  0  0  0
   42.2650   30.6950   36.4260 N   0  0  0  0  0  0  0  0  0  0  0  0
   42.0720   31.8520   37.1480 C   0  0  2  0  0  3  0  0  0  0  0  0
   43.1760   32.7540   37.1600 C   0  0  0  0  0  0  0  0  0  0  0  0
   43.0400   33.8560   37.9120 C   0  0  0  0  0  0  0  0  0  0  0  0
   41.9430   34.1600   38.6450 C   0  0  0  0  0  0  0  0  0  0  0  0
   40.9400   33.1910   38.5390 C   0  0  0  0  0  0  0  0  0  0  0  0
   40.8480   31.9930   37.8360 C   0  0  1  0  0  0  0  0  0  0  0  0
   39.1750   31.6930   36.8340 H   0  0  0  0  0  0  0  0  0  0  0  0
   39.9900   29.9020   36.2930 H   0  0  0  0  0  0  0  0  0  0  0  0
   42.0660   29.2860   37.9310 H   0  0  0  0  0  0  0  0  0  0  0  0
   41.7220   28.7240   36.3250 H   0  0  0  0  0  0  0  0  0  0  0  0
   42.8660   30.6230   35.5400 H   0  0  0  0  0  0  0  0  0  0  0  0
   44.0740   32.5870   36.6060 H   0  0  0  0  0  0  0  0  0  0  0  0
   43.9000   34.5500   37.9150 H   0  0  0  0  0  0  0  0  0  0  0  0
   41.9010   35.0430   39.2180 H   0  0  0  0  0  0  0  0  0  0  0  0
   40.1400   33.5650   39.1730 H   0  0  0  0  0  0  0  0  0  0  0  0
   37.5670   32.6600   40.2400 C   0  0  0  0  0  0  0  0  0  0  0  0
   36.6160   31.6190   40.3020 C   0  0  0  0  0  0  0  0  0  0  0  0
   36.8380   30.5140   39.5040 C   0  0  0  0  0  0  0  0  0  0  0  0
   37.9500   30.5240   38.7320 N   0  0  0  0  0  0  0  0  0  0  0  0
   38.8590   31.5440   38.6850 C   0  0  0  0  0  0  0  0  0  0  0  0
   38.5850   32.5150   39.4420 N   0  0  0  0  0  0  0  0  0  0  0  0
   37.4530   33.5530   40.8390 H   0  0  0  0  0  0  0  0  0  0  0  0
   35.7840   31.7740   40.9730 H   0  0  0  0  0  0  0  0  0  0  0  0
   35.6720   29.2080   39.5810 S   0  0  0  0  0  0  0  0  0  0  0  0
   36.4600   26.3060   38.4610 Cl  0  0  0  0  0  0  0  0  0  0  0  0
   36.6470   26.6600   40.1540 C   0  0  0  0  0  0  0  0  0  0  0  0
   36.3130   27.9110   40.6630 C   0  0  0  0  0  0  0  0  0  0  0  0
   36.4790   28.1510   42.0200 C   0  0  0  0  0  0  0  0  0  0  0  0
   36.2160   29.1380   42.4270 H   0  0  0  0  0  0  0  0  0  0  0  0
   36.9670   27.1770   42.8660 C   0  0  0  0  0  0  0  0  0  0  0  0
   37.0810   27.4030   43.9140 H   0  0  0  0  0  0  0  0  0  0  0  0
   37.2890   25.9450   42.3230 C   0  0  0  0  0  3  0  0  0  0  0  0
   37.1380   25.6720   40.9860 C   0  0  0  0  0  3  0  0  0  0  0  0
  1 11  1  6  0  0  0
  1 10  1  0  0  0  0
  1 24  1  0  0  0  0
  2 12  1  6  0  0  0
  2  1  1  0  0  0  0
  2 10  1  0  0  0  0
  3  2  1  0  0  0  0
  3 13  1  0  0  0  0
  4  3  1  0  0  0  0
  4  5  1  0  0  0  0
  5  6  1  1  0  0  0
  5 10  1  0  0  0  0
  6  7  2  0  0  0  0
  7 17  1  0  0  0  0
  7  8  1  0  0  0  0
  8 18  1  0  0  0  0
  9  8  2  0  0  0  0
  9 19  1  0  0  0  0
 10  9  1  1  0  0  0
 14  3  1  0  0  0  0
 15  4  1  0  0  0  0
 16  6  1  0  0  0  0
 20 21  1  0  0  0  0
 20 26  1  0  0  0  0
 21 27  1  0  0  0  0
 22 28  1  0  0  0  0
 22 21  2  0  0  0  0
 23 22  1  0  0  0  0
 24 23  2  0  0  0  0
 24 25  1  0  0  0  0
 25 20  2  0  0  0  0
 28 31  1  0  0  0  0
 29 30  1  0  0  0  0
 30 31  2  0  0  0  0
 30 37  1  0  0  0  0
 31 32  1  0  0  0  0
 32 33  1  0  0  0  0
 32 34  2  0  0  0  0
 34 35  1  0  0  0  0
 36 34  1  0  0  0  0
 37 36  2  0  0  0  0
M  END
>  <minimizedAffinity>
-5.97215605

$$$$

 OpenBabel03242523403D

 37 41  0  0  1  0  0  0  0  0999 V2000
   39.3010   30.0880   38.8480 C   0  0  2  0  0  0  0  0  0  0  0  0
   40.4610   30.4790   39.2060 N   0  0  2  0  0  4  0  0  0  0  0  0
   41.3250   30.6880   40.0900 C   0  0  0  0  0  0  0  0  0  0  0  0
   41.2280   32.0030   39.7070 N   0  0  0  0  0  0  0  0  0  0  0  0
   39.9120   32.4010   39.6110 C   0  0  2  0  0  3  0  0  0  0  0  0
   39.6610   33.7630   39.9460 C   0  0  0  0  0  0  0  0  0  0  0  0
   38.3800   34.1580   39.9280 C   0  0  0  0  0  0  0  0  0  0  0  0
   37.3310   33.3600   39.6170 C   0  0  0  0  0  0  0  0  0  0  0  0
   37.7230   32.0540   39.3080 C   0  0  0  0  0  0  0  0  0  0  0  0
   38.9610   31.4210   39.2560 C   0  0  1  0  0  0  0  0  0  0  0  0
   39.3120   30.3140   37.6600 H   0  0  0  0  0  0  0  0  0  0  0  0
   41.1170   29.9060   38.5180 H   0  0  0  0  0  0  0  0  0  0  0  0
   41.0620   30.5350   41.1580 H   0  0  0  0  0  0  0  0  0  0  0  0
   42.4200   30.3830   40.0880 H   0  0  0  0  0  0  0  0  0  0  0  0
   42.0710   32.6370   39.5140 H   0  0  0  0  0  0  0  0  0  0  0  0
   40.4350   34.4550   40.1980 H   0  0  0  0  0  0  0  0  0  0  0  0
   38.1950   35.2160   40.1880 H   0  0  0  0  0  0  0  0  0  0  0  0
   36.3460   33.7330   39.6230 H   0  0  0  0  0  0  0  0  0  0  0  0
   36.7890   31.5410   39.0870 H   0  0  0  0  0  0  0  0  0  0  0  0
   36.0290   28.4720   38.2450 C   0  0  0  0  0  0  0  0  0  0  0  0
   35.8390   28.0020   39.5620 C   0  0  0  0  0  0  0  0  0  0  0  0
   36.8180   28.3040   40.4870 C   0  0  0  0  0  0  0  0  0  0  0  0
   37.8770   29.0260   40.0500 N   0  0  0  0  0  0  0  0  0  0  0  0
   38.0440   29.4710   38.7680 C   0  0  0  0  0  0  0  0  0  0  0  0
   37.1060   29.1550   37.9860 N   0  0  0  0  0  0  0  0  0  0  0  0
   35.3000   28.2710   37.4720 H   0  0  0  0  0  0  0  0  0  0  0  0
   34.9340   27.4380   39.7400 H   0  0  0  0  0  0  0  0  0  0  0  0
   36.5880   27.7370   42.1300 S   0  0  0  0  0  0  0  0  0  0  0  0
   36.7160   24.6380   41.3080 Cl  0  0  0  0  0  0  0  0  0  0  0  0
   38.0170   25.3450   42.2220 C   0  0  0  0  0  0  0  0  0  0  0  0
   37.9840   26.6860   42.5890 C   0  0  0  0  0  0  0  0  0  0  0  0
   39.0430   27.2100   43.3170 C   0  0  0  0  0  0  0  0  0  0  0  0
   39.0230   28.2700   43.6100 H   0  0  0  0  0  0  0  0  0  0  0  0
   40.1210   26.4280   43.6800 C   0  0  0  0  0  0  0  0  0  0  0  0
   40.9240   26.8730   44.2460 H   0  0  0  0  0  0  0  0  0  0  0  0
   40.1170   25.0980   43.2960 C   0  0  0  0  0  3  0  0  0  0  0  0
   39.0870   24.5460   42.5750 C   0  0  0  0  0  3  0  0  0  0  0  0
  1 11  1  6  0  0  0
  1  2  1  0  0  0  0
  1 10  1  0  0  0  0
  2 12  1  6  0  0  0
  2 10  1  0  0  0  0
  2  3  1  0  0  0  0
  3 13  1  0  0  0  0
  4  3  1  0  0  0  0
  5  4  1  0  0  0  0
  5  6  1  1  0  0  0
  6 16  1  0  0  0  0
  7  6  2  0  0  0  0
  7 17  1  0  0  0  0
  8 18  1  0  0  0  0
  8  7  1  0  0  0  0
  9  8  2  0  0  0  0
 10  9  1  1  0  0  0
 10  5  1  0  0  0  0
 14  3  1  0  0  0  0
 15  4  1  0  0  0  0
 19  9  1  0  0  0  0
 20 21  1  0  0  0  0
 21 27  1  0  0  0  0
 21 22  2  0  0  0  0
 22 28  1  0  0  0  0
 23 22  1  0  0  0  0
 24  1  1  0  0  0  0
 24 23  2  0  0  0  0
 25 20  2  0  0  0  0
 25 24  1  0  0  0  0
 26 20  1  0  0  0  0
 28 31  1  0  0  0  0
 29 30  1  0  0  0  0
 30 37  2  0  0  0  0
 30 31  1  0  0  0  0
 31 32  2  0  0  0  0
 32 33  1  0  0  0  0
 32 34  1  0  0  0  0
 34 35  1  0  0  0  0
 36 34  2  0  0  0  0
 37 36  1  0  0  0  0
M  END
>  <minimizedAffinity>
-5.937644

$$$$

 OpenBabel03242523403D

 37 41  0  0  1  0  0  0  0  0999 V2000
   37.0570   31.6890   39.0460 C   0  0  2  0  0  0  0  0  0  0  0  0
   37.0070   32.8420   39.5890 N   0  0  2  0  0  4  0  0  0  0  0  0
   37.1210   34.0900   39.5300 C   0  0  0  0  0  0  0  0  0  0  0  0
   38.1190   33.9240   40.4590 N   0  0  0  0  0  0  0  0  0  0  0  0
   38.9830   32.9150   40.0920 C   0  0  2  0  0  3  0  0  0  0  0  0
   40.3400   33.1010   40.4850 C   0  0  0  0  0  0  0  0  0  0  0  0
   41.2130   32.1680   40.0810 C   0  0  0  0  0  0  0  0  0  0  0  0
   40.8940   31.0810   39.3390 C   0  0  0  0  0  0  0  0  0  0  0  0
   39.5320   31.0240   39.0290 C   0  0  0  0  0  0  0  0  0  0  0  0
   38.4540   31.8520   39.3290 C   0  0  1  0  0  0  0  0  0  0  0  0
   36.8190   30.9580   39.9800 H   0  0  0  0  0  0  0  0  0  0  0  0
   36.0060   32.8270   40.0660 H   0  0  0  0  0  0  0  0  0  0  0  0
   37.4870   34.5610   38.5920 H   0  0  0  0  0  0  0  0  0  0  0  0
   36.3960   34.8800   39.9050 H   0  0  0  0  0  0  0  0  0  0  0  0
   38.2130   34.5110   41.3510 H   0  0  0  0  0  0  0  0  0  0  0  0
   40.6700   33.9300   41.0730 H   0  0  0  0  0  0  0  0  0  0  0  0
   42.2640   32.3200   40.3910 H   0  0  0  0  0  0  0  0  0  0  0  0
   41.6310   30.3850   39.0520 H   0  0  0  0  0  0  0  0  0  0  0  0
   39.4310   30.1160   38.4380 H   0  0  0  0  0  0  0  0  0  0  0  0
   37.2310   29.1040   36.4070 C   0  0  0  0  0  0  0  0  0  0  0  0
   37.0020   27.9970   37.2540 C   0  0  0  0  0  0  0  0  0  0  0  0
   36.7970   28.2600   38.5940 C   0  0  0  0  0  0  0  0  0  0  0  0
   36.8340   29.5570   38.9800 N   0  0  0  0  0  0  0  0  0  0  0  0
   37.0590   30.6160   38.1440 C   0  0  0  0  0  0  0  0  0  0  0  0
   37.2350   30.2920   36.9370 N   0  0  0  0  0  0  0  0  0  0  0  0
   37.3980   28.9670   35.3470 H   0  0  0  0  0  0  0  0  0  0  0  0
   37.0060   27.0260   36.7790 H   0  0  0  0  0  0  0  0  0  0  0  0
   36.4990   26.8970   39.6540 S   0  0  0  0  0  0  0  0  0  0  0  0
   39.6760   26.6660   40.0320 Cl  0  0  0  0  0  0  0  0  0  0  0  0
   38.6740   27.0990   41.3860 C   0  0  0  0  0  0  0  0  0  0  0  0
   37.2940   27.2060   41.2460 C   0  0  0  0  0  0  0  0  0  0  0  0
   36.5310   27.5550   42.3520 C   0  0  0  0  0  0  0  0  0  0  0  0
   35.4400   27.6410   42.2470 H   0  0  0  0  0  0  0  0  0  0  0  0
   37.1150   27.7970   43.5790 C   0  0  0  0  0  0  0  0  0  0  0  0
   36.4870   28.0650   44.4130 H   0  0  0  0  0  0  0  0  0  0  0  0
   38.4900   27.6800   43.6790 C   0  0  0  0  0  3  0  0  0  0  0  0
   39.2760   27.3370   42.6060 C   0  0  0  0  0  3  0  0  0  0  0  0
  1 10  1  0  0  0  0
  1  2  1  0  0  0  0
  1 11  1  1  0  0  0
  2 12  1  1  0  0  0
  3  2  1  0  0  0  0
  3 14  1  0  0  0  0
  3  4  1  0  0  0  0
  4 15  1  0  0  0  0
  5  4  1  0  0  0  0
  5  6  1  6  0  0  0
  6 16  1  0  0  0  0
  7 17  1  0  0  0  0
  7  6  2  0  0  0  0
  8  7  1  0  0  0  0
  9  8  2  0  0  0  0
 10  9  1  6  0  0  0
 10  2  1  0  0  0  0
 10  5  1  0  0  0  0
 13  3  1  0  0  0  0
 18  8  1  0  0  0  0
 19  9  1  0  0  0  0
 20 25  2  0  0  0  0
 20 21  1  0  0  0  0
 21 22  2  0  0  0  0
 22 23  1  0  0  0  0
 22 28  1  0  0  0  0
 24 23  2  0  0  0  0
 24  1  1  0  0  0  0
 25 24  1  0  0  0  0
 26 20  1  0  0  0  0
 27 21  1  0  0  0  0
 28 31  1  0  0  0  0
 29 30  1  0  0  0  0
 30 37  1  0  0  0  0
 31 30  2  0  0  0  0
 31 32  1  0  0  0  0
 32 34  2  0  0  0  0
 33 32  1  0  0  0  0
 34 36  1  0  0  0  0
 34 35  1  0  0  0  0
 37 36  2  0  0  0  0
M  END
>  <minimizedAffinity>
-5.89133692

$$$$
