
 OpenBabel03252506153D

 39 41  0  0  0  0  0  0  0  0999 V2000
   46.3470   32.8320   41.1810 F   0  0  0  0  0  0  0  0  0  0  0  0
   47.5910   33.1180   41.5070 C   0  0  0  0  0  0  0  0  0  0  0  0
   47.8000   33.9670   42.5770 C   0  0  0  0  0  0  0  0  0  0  0  0
   49.0880   34.3410   43.0160 C   0  0  0  0  0  0  0  0  0  0  0  0
   50.2010   33.8300   42.3410 C   0  0  0  0  0  0  0  0  0  0  0  0
   49.9360   32.9940   41.2890 C   0  0  0  0  0  0  0  0  0  0  0  0
   48.7120   32.6250   40.8540 C   0  0  0  0  0  0  0  0  0  0  0  0
   49.1810   35.0210   43.8740 H   0  0  0  0  0  0  0  0  0  0  0  0
   51.1550   34.1490   42.7210 H   0  0  0  0  0  0  0  0  0  0  0  0
   50.8980   32.6680   40.8640 H   0  0  0  0  0  0  0  0  0  0  0  0
   45.3450   34.4650   45.2520 C   0  0  0  0  0  0  0  0  0  0  0  0
   44.5750   35.5460   44.7400 C   0  0  0  0  0  0  0  0  0  0  0  0
   44.9140   36.0960   43.4660 C   0  0  0  0  0  0  0  0  0  0  0  0
   45.9740   35.5330   42.8160 N   0  0  0  0  0  0  0  0  0  0  0  0
   46.6680   34.5270   43.3250 C   0  0  0  0  0  0  0  0  0  0  0  0
   46.3590   33.9930   44.5330 N   0  0  0  0  0  0  0  0  0  0  0  0
   43.7470   35.9900   45.2400 H   0  0  0  0  0  0  0  0  0  0  0  0
   44.3480   36.9080   43.0620 H   0  0  0  0  0  0  0  0  0  0  0  0
   44.9840   33.9570   46.5000 N   0  0  0  0  0  0  0  0  0  0  0  0
   45.0320   34.6900   47.2680 H   0  0  0  0  0  0  0  0  0  0  0  0
   44.6990   32.9560   46.6530 H   0  0  0  0  0  0  0  0  0  0  0  0
   48.5770   31.7830   39.7880 O   0  0  0  0  0  0  0  0  0  0  0  0
   47.6420   33.4410   37.9520 O   0  0  0  0  0  0  0  0  0  0  0  0
   48.4870   32.2130   38.1630 P   0  0  2  0  0  0  0  0  0  0  0  0
   47.8500   30.9110   37.2720 O   0  0  0  0  0  0  0  0  0  0  0  0
   48.9950   31.0800   34.6070 Cl  0  0  0  0  0  0  0  0  0  0  0  0
   47.3100   31.2300   35.0670 C   0  0  0  0  0  0  0  0  0  0  0  0
   46.8170   31.1400   36.3740 C   0  0  0  0  0  0  0  0  0  0  0  0
   45.4620   31.2780   36.5920 C   0  0  0  0  0  0  0  0  0  0  0  0
   45.2020   31.1900   37.6380 H   0  0  0  0  0  0  0  0  0  0  0  0
   44.6240   31.5030   35.5220 C   0  0  0  0  0  0  0  0  0  0  0  0
   43.5720   31.6020   35.7680 H   0  0  0  0  0  0  0  0  0  0  0  0
   45.1050   31.5930   34.2340 C   0  0  0  0  0  0  0  0  0  0  0  0
   46.4470   31.4570   34.0050 C   0  0  0  0  0  0  0  0  0  0  0  0
   50.0200   32.4920   37.4890 O   0  0  0  0  0  0  0  0  0  0  0  0
   50.9050   31.4440   37.8110 C   0  0  0  0  0  0  0  0  0  0  0  0
   51.7690   31.3520   36.7170 F   0  0  0  0  0  0  0  0  0  0  0  0
   51.6720   31.7720   38.9050 F   0  0  0  0  0  0  0  0  0  0  0  0
   50.2820   30.2530   38.0640 F   0  0  0  0  0  0  0  0  0  0  0  0
  1  2  1  0  0  0  0
  2  3  1  0  0  0  0
  3  4  2  0  0  0  0
  3 15  1  0  0  0  0
  4  8  1  0  0  0  0
  5  9  1  0  0  0  0
  5  4  1  0  0  0  0
  6  5  2  0  0  0  0
  7  6  1  0  0  0  0
  7  2  2  0  0  0  0
 10  6  1  0  0  0  0
 11 19  1  0  0  0  0
 12 17  1  0  0  0  0
 12 11  1  0  0  0  0
 13 12  2  0  0  0  0
 14 15  2  0  0  0  0
 14 13  1  0  0  0  0
 15 16  1  0  0  0  0
 16 11  2  0  0  0  0
 18 13  1  0  0  0  0
 19 21  1  0  0  0  0
 19 20  1  0  0  0  0
 22  7  1  0  0  0  0
 24 23  2  6  0  0  0
 24 22  1  0  0  0  0
 25 24  1  0  0  0  0
 26 27  1  0  0  0  0
 27 28  1  0  0  0  0
 28 29  2  0  0  0  0
 28 25  1  0  0  0  0
 29 30  1  0  0  0  0
 31 32  1  0  0  0  0
 31 29  1  0  0  0  0
 33 31  2  0  0  0  0
 34 33  1  0  0  0  0
 34 27  2  0  0  0  0
 35 36  1  0  0  0  0
 35 24  1  0  0  0  0
 36 39  1  0  0  0  0
 36 38  1  0  0  0  0
 37 36  1  0  0  0  0
M  END
>  <minimizedAffinity>
-5.4648304

>  <minimizedRMSD>
2.83156943

$$$$
