
 OpenBabel03252504473D

 27 28  0  0  0  0  0  0  0  0999 V2000
   35.9010   28.4060   40.3670 O   0  0  0  0  0  0  0  0  0  0  0  0
   36.6060   29.4430   41.2450 P   0  0  1  0  0  0  0  0  0  0  0  0
   35.4950   30.6960   41.4850 O   0  0  0  0  0  0  0  0  0  0  0  0
   35.9250   31.5700   41.3910 H   0  0  0  0  0  0  0  0  0  0  0  0
   37.0460   28.6560   42.6670 O   0  0  0  0  0  0  0  0  0  0  0  0
   38.4290   25.3390   42.3710 C   0  0  0  0  0  0  0  0  0  0  0  0
   39.6430   25.4760   43.0520 C   0  0  0  0  0  0  0  0  0  0  0  0
   39.9230   26.7400   43.5900 C   0  0  0  0  0  0  0  0  0  0  0  0
   39.0270   27.7260   43.4230 N   0  0  0  0  0  0  0  0  0  0  0  0
   37.8600   27.5400   42.7510 C   0  0  0  0  0  0  0  0  0  0  0  0
   37.5670   26.3270   42.2230 N   0  0  0  0  0  0  0  0  0  0  0  0
   40.3440   24.6850   43.1780 H   0  0  0  0  0  0  0  0  0  0  0  0
   40.8260   26.9480   44.1290 H   0  0  0  0  0  0  0  0  0  0  0  0
   38.1380   23.9770   41.7970 C   0  0  0  0  0  0  0  0  0  0  0  0
   39.0880   23.5000   41.5230 H   0  0  0  0  0  0  0  0  0  0  0  0
   37.5260   24.1120   40.8700 H   0  0  0  0  0  0  0  0  0  0  0  0
   37.5270   23.4060   42.4980 H   0  0  0  0  0  0  0  0  0  0  0  0
   37.9560   30.0830   40.4670 O   0  0  0  0  0  0  0  0  0  0  0  0
   39.9040   31.2470   42.2810 Cl  0  0  0  0  0  0  0  0  0  0  0  0
   38.9310   32.0800   41.0760 C   0  0  0  0  0  0  0  0  0  0  0  0
   38.0090   31.4510   40.2330 C   0  0  0  0  0  0  0  0  0  0  0  0
   37.2920   32.1940   39.3170 C   0  0  0  0  0  0  0  0  0  0  0  0
   36.6120   31.6130   38.7200 H   0  0  0  0  0  0  0  0  0  0  0  0
   37.4980   33.5620   39.2440 C   0  0  0  0  0  0  0  0  0  0  0  0
   36.9200   34.0920   38.5210 H   0  0  0  0  0  0  0  0  0  0  0  0
   38.4110   34.1610   40.0840 C   0  0  0  0  0  3  0  0  0  0  0  0
   39.1630   33.4590   41.0290 C   0  0  0  0  0  3  0  0  0  0  0  0
  2  1  2  6  0  0  0
  2  3  1  0  0  0  0
  2  5  1  0  0  0  0
  4  3  1  0  0  0  0
  5 10  1  0  0  0  0
  6  7  1  0  0  0  0
  7 12  1  0  0  0  0
  7  8  2  0  0  0  0
  8 13  1  0  0  0  0
  9  8  1  0  0  0  0
 10  9  2  0  0  0  0
 11  6  2  0  0  0  0
 11 10  1  0  0  0  0
 14  6  1  0  0  0  0
 14 17  1  0  0  0  0
 15 14  1  0  0  0  0
 16 14  1  0  0  0  0
 18  2  1  0  0  0  0
 20 19  1  0  0  0  0
 21 18  1  0  0  0  0
 21 20  2  0  0  0  0
 22 21  1  0  0  0  0
 23 22  1  0  0  0  0
 24 22  2  0  0  0  0
 24 26  1  0  0  0  0
 25 24  1  0  0  0  0
 26 27  2  0  0  0  0
 27 20  1  0  0  0  0
M  END
>  <minimizedAffinity>
-5.41206074

$$$$

 OpenBabel03252504473D

 27 28  0  0  0  0  0  0  0  0999 V2000
   38.0290   31.3700   40.6560 O   0  0  0  0  0  0  0  0  0  0  0  0
   37.0760   30.2940   41.1810 P   0  0  1  0  0  0  0  0  0  0  0  0
   35.5510   31.0170   41.2800 O   0  0  0  0  0  0  0  0  0  0  0  0
   35.1010   30.7760   42.1150 H   0  0  0  0  0  0  0  0  0  0  0  0
   37.1420   29.0140   40.0880 O   0  0  0  0  0  0  0  0  0  0  0  0
   34.5970   28.9450   37.5350 C   0  0  0  0  0  0  0  0  0  0  0  0
   35.3640   28.7970   36.3740 C   0  0  0  0  0  0  0  0  0  0  0  0
   36.7530   28.7260   36.5430 C   0  0  0  0  0  0  0  0  0  0  0  0
   37.2580   28.8040   37.7860 N   0  0  0  0  0  0  0  0  0  0  0  0
   36.4670   28.9490   38.8810 C   0  0  0  0  0  0  0  0  0  0  0  0
   35.1210   29.0190   38.7430 N   0  0  0  0  0  0  0  0  0  0  0  0
   34.9500   28.7360   35.3950 H   0  0  0  0  0  0  0  0  0  0  0  0
   37.4270   28.6130   35.7170 H   0  0  0  0  0  0  0  0  0  0  0  0
   33.1050   29.0200   37.3420 C   0  0  0  0  0  0  0  0  0  0  0  0
   32.8980   29.4860   36.3690 H   0  0  0  0  0  0  0  0  0  0  0  0
   32.6810   29.6720   38.1470 H   0  0  0  0  0  0  0  0  0  0  0  0
   32.6670   28.0300   37.4750 H   0  0  0  0  0  0  0  0  0  0  0  0
   37.5190   29.7900   42.7260 O   0  0  0  0  0  0  0  0  0  0  0  0
   36.4950   27.2000   43.5540 Cl  0  0  0  0  0  0  0  0  0  0  0  0
   38.1710   27.6460   43.2650 C   0  0  0  0  0  0  0  0  0  0  0  0
   38.5920   28.9190   42.8650 C   0  0  0  0  0  0  0  0  0  0  0  0
   39.9340   29.1700   42.6640 C   0  0  0  0  0  0  0  0  0  0  0  0
   40.1480   30.1790   42.3590 H   0  0  0  0  0  0  0  0  0  0  0  0
   40.8520   28.1510   42.8600 C   0  0  0  0  0  0  0  0  0  0  0  0
   41.8760   28.3950   42.6920 H   0  0  0  0  0  0  0  0  0  0  0  0
   40.4150   26.9060   43.2540 C   0  0  0  0  0  3  0  0  0  0  0  0
   39.0700   26.5950   43.4730 C   0  0  0  0  0  3  0  0  0  0  0  0
  2  1  2  6  0  0  0
  2  3  1  0  0  0  0
  2 18  1  0  0  0  0
  3  4  1  0  0  0  0
  5  2  1  0  0  0  0
  6 11  1  0  0  0  0
  7  8  1  0  0  0  0
  7  6  2  0  0  0  0
  8  9  2  0  0  0  0
  9 10  1  0  0  0  0
 10  5  1  0  0  0  0
 11 10  2  0  0  0  0
 12  7  1  0  0  0  0
 13  8  1  0  0  0  0
 14 17  1  0  0  0  0
 14  6  1  0  0  0  0
 14 16  1  0  0  0  0
 15 14  1  0  0  0  0
 18 21  1  0  0  0  0
 20 27  1  0  0  0  0
 20 19  1  0  0  0  0
 21 20  2  0  0  0  0
 22 24  2  0  0  0  0
 22 21  1  0  0  0  0
 23 22  1  0  0  0  0
 24 26  1  0  0  0  0
 25 24  1  0  0  0  0
 26 27  2  0  0  0  0
M  END
>  <minimizedAffinity>
-5.16117716

$$$$

 OpenBabel03252504473D

 27 28  0  0  0  0  0  0  0  0999 V2000
   35.3490   28.6610   40.5450 O   0  0  0  0  0  0  0  0  0  0  0  0
   36.4300   29.5670   41.1400 P   0  0  1  0  0  0  0  0  0  0  0  0
   35.7140   31.0850   41.3520 O   0  0  0  0  0  0  0  0  0  0  0  0
   36.3160   31.8010   41.0620 H   0  0  0  0  0  0  0  0  0  0  0  0
   36.9240   28.8510   42.5820 O   0  0  0  0  0  0  0  0  0  0  0  0
   38.1710   25.4750   42.3570 C   0  0  0  0  0  0  0  0  0  0  0  0
   39.3880   25.5770   43.0400 C   0  0  0  0  0  0  0  0  0  0  0  0
   39.7180   26.8390   43.5530 C   0  0  0  0  0  0  0  0  0  0  0  0
   38.8630   27.8570   43.3630 N   0  0  0  0  0  0  0  0  0  0  0  0
   37.6910   27.7040   42.6910 C   0  0  0  0  0  0  0  0  0  0  0  0
   37.3510   26.4940   42.1860 N   0  0  0  0  0  0  0  0  0  0  0  0
   40.0560   24.7600   43.1830 H   0  0  0  0  0  0  0  0  0  0  0  0
   40.6270   27.0200   44.0910 H   0  0  0  0  0  0  0  0  0  0  0  0
   37.8250   24.1150   41.8090 C   0  0  0  0  0  0  0  0  0  0  0  0
   38.7570   23.5940   41.5480 H   0  0  0  0  0  0  0  0  0  0  0  0
   37.2220   24.2560   40.8780 H   0  0  0  0  0  0  0  0  0  0  0  0
   37.1910   23.5840   42.5190 H   0  0  0  0  0  0  0  0  0  0  0  0
   37.7270   29.7440   40.0800 O   0  0  0  0  0  0  0  0  0  0  0  0
   37.3790   31.9010   38.1660 Cl  0  0  0  0  0  0  0  0  0  0  0  0
   38.5710   31.7950   39.4540 C   0  0  0  0  0  0  0  0  0  0  0  0
   38.6800   30.7200   40.3430 C   0  0  0  0  0  0  0  0  0  0  0  0
   39.6520   30.7300   41.3230 C   0  0  0  0  0  0  0  0  0  0  0  0
   39.6470   29.8570   41.9510 H   0  0  0  0  0  0  0  0  0  0  0  0
   40.5110   31.8130   41.4150 C   0  0  0  0  0  0  0  0  0  0  0  0
   41.2450   31.7730   42.1880 H   0  0  0  0  0  0  0  0  0  0  0  0
   40.3860   32.8600   40.5280 C   0  0  0  0  0  3  0  0  0  0  0  0
   39.4230   32.9030   39.5180 C   0  0  0  0  0  3  0  0  0  0  0  0
  2  1  2  6  0  0  0
  2  3  1  0  0  0  0
  2  5  1  0  0  0  0
  4  3  1  0  0  0  0
  5 10  1  0  0  0  0
  6  7  1  0  0  0  0
  7 12  1  0  0  0  0
  7  8  2  0  0  0  0
  8 13  1  0  0  0  0
  9  8  1  0  0  0  0
 10  9  2  0  0  0  0
 11  6  2  0  0  0  0
 11 10  1  0  0  0  0
 14  6  1  0  0  0  0
 14 17  1  0  0  0  0
 15 14  1  0  0  0  0
 16 14  1  0  0  0  0
 18 21  1  0  0  0  0
 18  2  1  0  0  0  0
 19 20  1  0  0  0  0
 20 27  2  0  0  0  0
 20 21  1  0  0  0  0
 21 22  2  0  0  0  0
 22 24  1  0  0  0  0
 22 23  1  0  0  0  0
 24 25  1  0  0  0  0
 26 24  2  0  0  0  0
 27 26  1  0  0  0  0
M  END
>  <minimizedAffinity>
-5.12000132

$$$$

 OpenBabel03252504473D

 27 28  0  0  0  0  0  0  0  0999 V2000
   37.8670   31.9820   40.8000 O   0  0  0  0  0  0  0  0  0  0  0  0
   37.1680   30.6450   41.0570 P   0  0  1  0  0  0  0  0  0  0  0  0
   35.5450   31.0090   41.3660 O   0  0  0  0  0  0  0  0  0  0  0  0
   35.2060   30.4890   42.1230 H   0  0  0  0  0  0  0  0  0  0  0  0
   37.3930   29.7060   39.6770 O   0  0  0  0  0  0  0  0  0  0  0  0
   35.6360   29.2600   36.5610 C   0  0  0  0  0  0  0  0  0  0  0  0
   34.3670   28.8720   37.0040 C   0  0  0  0  0  0  0  0  0  0  0  0
   34.1850   28.7840   38.3910 C   0  0  0  0  0  0  0  0  0  0  0  0
   35.2190   29.0720   39.1980 N   0  0  0  0  0  0  0  0  0  0  0  0
   36.4340   29.4450   38.7140 C   0  0  0  0  0  0  0  0  0  0  0  0
   36.6340   29.5370   37.3780 N   0  0  0  0  0  0  0  0  0  0  0  0
   33.5550   28.6470   36.3520 H   0  0  0  0  0  0  0  0  0  0  0  0
   33.2500   28.4960   38.8300 H   0  0  0  0  0  0  0  0  0  0  0  0
   35.8210   29.3510   35.0690 C   0  0  0  0  0  0  0  0  0  0  0  0
   35.1690   28.6100   34.5870 H   0  0  0  0  0  0  0  0  0  0  0  0
   36.8850   29.0970   34.8320 H   0  0  0  0  0  0  0  0  0  0  0  0
   35.6620   30.3790   34.7400 H   0  0  0  0  0  0  0  0  0  0  0  0
   37.8010   29.8790   42.4170 O   0  0  0  0  0  0  0  0  0  0  0  0
   40.5700   29.0470   42.6930 Cl  0  0  0  0  0  0  0  0  0  0  0  0
   39.1490   28.0170   42.5780 C   0  0  0  0  0  0  0  0  0  0  0  0
   37.8400   28.4910   42.4470 C   0  0  0  0  0  0  0  0  0  0  0  0
   36.7890   27.5990   42.3640 C   0  0  0  0  0  0  0  0  0  0  0  0
   35.8260   28.0690   42.2650 H   0  0  0  0  0  0  0  0  0  0  0  0
   37.0470   26.2390   42.4140 C   0  0  0  0  0  0  0  0  0  0  0  0
   36.2020   25.5920   42.3460 H   0  0  0  0  0  0  0  0  0  0  0  0
   38.3450   25.7960   42.5430 C   0  0  0  0  0  3  0  0  0  0  0  0
   39.4460   26.6510   42.6310 C   0  0  0  0  0  3  0  0  0  0  0  0
  2  1  2  6  0  0  0
  2  3  1  0  0  0  0
  2 18  1  0  0  0  0
  3  4  1  0  0  0  0
  5  2  1  0  0  0  0
  6  7  2  0  0  0  0
  6 11  1  0  0  0  0
  7  8  1  0  0  0  0
  8 13  1  0  0  0  0
  8  9  2  0  0  0  0
 10  9  1  0  0  0  0
 10  5  1  0  0  0  0
 11 10  2  0  0  0  0
 12  7  1  0  0  0  0
 14  6  1  0  0  0  0
 15 14  1  0  0  0  0
 16 14  1  0  0  0  0
 17 14  1  0  0  0  0
 18 21  1  0  0  0  0
 20 27  1  0  0  0  0
 20 19  1  0  0  0  0
 21 20  2  0  0  0  0
 22 24  2  0  0  0  0
 22 21  1  0  0  0  0
 23 22  1  0  0  0  0
 24 26  1  0  0  0  0
 25 24  1  0  0  0  0
 26 27  2  0  0  0  0
M  END
>  <minimizedAffinity>
-5.10468578

$$$$

 OpenBabel03252504473D

 27 28  0  0  0  0  0  0  0  0999 V2000
   37.8240   31.7500   41.0460 O   0  0  0  0  0  0  0  0  0  0  0  0
   37.1030   30.4060   41.1720 P   0  0  1  0  0  0  0  0  0  0  0  0
   35.4510   30.7380   41.0290 O   0  0  0  0  0  0  0  0  0  0  0  0
   34.9330   30.2400   41.6940 H   0  0  0  0  0  0  0  0  0  0  0  0
   37.6970   29.4200   39.9440 O   0  0  0  0  0  0  0  0  0  0  0  0
   36.5660   26.0130   39.6050 C   0  0  0  0  0  0  0  0  0  0  0  0
   35.8610   26.0670   38.3980 C   0  0  0  0  0  0  0  0  0  0  0  0
   35.8140   27.3100   37.7510 C   0  0  0  0  0  0  0  0  0  0  0  0
   36.4380   28.3560   38.3180 N   0  0  0  0  0  0  0  0  0  0  0  0
   37.1100   28.2490   39.4940 C   0  0  0  0  0  0  0  0  0  0  0  0
   37.1690   27.0580   40.1370 N   0  0  0  0  0  0  0  0  0  0  0  0
   35.3710   25.2290   37.9600 H   0  0  0  0  0  0  0  0  0  0  0  0
   35.3000   27.4560   36.8220 H   0  0  0  0  0  0  0  0  0  0  0  0
   36.6090   24.6730   40.2910 C   0  0  0  0  0  0  0  0  0  0  0  0
   35.6830   24.1290   40.0610 H   0  0  0  0  0  0  0  0  0  0  0  0
   36.6550   24.8470   41.3950 H   0  0  0  0  0  0  0  0  0  0  0  0
   37.5250   24.1490   40.0160 H   0  0  0  0  0  0  0  0  0  0  0  0
   37.3690   29.7120   42.6840 O   0  0  0  0  0  0  0  0  0  0  0  0
   36.5720   27.1010   43.6780 Cl  0  0  0  0  0  0  0  0  0  0  0  0
   38.2040   27.6740   43.3600 C   0  0  0  0  0  0  0  0  0  0  0  0
   38.5130   28.9500   42.8790 C   0  0  0  0  0  0  0  0  0  0  0  0
   39.8300   29.3050   42.6620 C   0  0  0  0  0  0  0  0  0  0  0  0
   39.9560   30.3070   42.2920 H   0  0  0  0  0  0  0  0  0  0  0  0
   40.8330   28.3860   42.9240 C   0  0  0  0  0  0  0  0  0  0  0  0
   41.8320   28.7080   42.7400 H   0  0  0  0  0  0  0  0  0  0  0  0
   40.5040   27.1350   43.3970 C   0  0  0  0  0  3  0  0  0  0  0  0
   39.1910   26.7220   43.6360 C   0  0  0  0  0  3  0  0  0  0  0  0
  2  1  2  6  0  0  0
  2 18  1  0  0  0  0
  3  2  1  0  0  0  0
  3  4  1  0  0  0  0
  5  2  1  0  0  0  0
  6 11  1  0  0  0  0
  6 14  1  0  0  0  0
  7  6  2  0  0  0  0
  8  9  2  0  0  0  0
  8  7  1  0  0  0  0
  9 10  1  0  0  0  0
 10  5  1  0  0  0  0
 10 11  2  0  0  0  0
 12  7  1  0  0  0  0
 13  8  1  0  0  0  0
 14 16  1  0  0  0  0
 15 14  1  0  0  0  0
 17 14  1  0  0  0  0
 18 21  1  0  0  0  0
 20 27  1  0  0  0  0
 20 19  1  0  0  0  0
 21 20  2  0  0  0  0
 22 21  1  0  0  0  0
 22 24  2  0  0  0  0
 23 22  1  0  0  0  0
 24 26  1  0  0  0  0
 25 24  1  0  0  0  0
 26 27  2  0  0  0  0
M  END
>  <minimizedAffinity>
-5.05305004

$$$$

 OpenBabel03252504473D

 27 28  0  0  0  0  0  0  0  0999 V2000
   39.1990   30.3890   42.9060 O   0  0  0  0  0  0  0  0  0  0  0  0
   38.2490   29.2650   42.4850 P   0  0  1  0  0  0  0  0  0  0  0  0
   36.6810   29.8690   42.6810 O   0  0  0  0  0  0  0  0  0  0  0  0
   36.0980   29.2030   43.0980 H   0  0  0  0  0  0  0  0  0  0  0  0
   38.6250   28.8840   40.8880 O   0  0  0  0  0  0  0  0  0  0  0  0
   36.9350   29.8460   37.8520 C   0  0  0  0  0  0  0  0  0  0  0  0
   37.4600   31.1230   37.6270 C   0  0  0  0  0  0  0  0  0  0  0  0
   38.3940   31.5920   38.5620 C   0  0  0  0  0  0  0  0  0  0  0  0
   38.7230   30.8040   39.5980 N   0  0  0  0  0  0  0  0  0  0  0  0
   38.1820   29.5690   39.7700 C   0  0  0  0  0  0  0  0  0  0  0  0
   37.2770   29.0940   38.8800 N   0  0  0  0  0  0  0  0  0  0  0  0
   37.1910   31.7370   36.8010 H   0  0  0  0  0  0  0  0  0  0  0  0
   38.8550   32.5570   38.4790 H   0  0  0  0  0  0  0  0  0  0  0  0
   35.9320   29.3520   36.8430 C   0  0  0  0  0  0  0  0  0  0  0  0
   35.3820   30.2140   36.4410 H   0  0  0  0  0  0  0  0  0  0  0  0
   35.2080   28.6810   37.3690 H   0  0  0  0  0  0  0  0  0  0  0  0
   36.4370   28.7440   36.0910 H   0  0  0  0  0  0  0  0  0  0  0  0
   38.4200   27.9180   43.4810 O   0  0  0  0  0  0  0  0  0  0  0  0
   40.8920   26.4040   43.6790 Cl  0  0  0  0  0  0  0  0  0  0  0  0
   39.3580   25.8670   43.0060 C   0  0  0  0  0  0  0  0  0  0  0  0
   38.2040   26.6550   42.9450 C   0  0  0  0  0  0  0  0  0  0  0  0
   37.0460   26.1410   42.3960 C   0  0  0  0  0  0  0  0  0  0  0  0
   36.2190   26.8290   42.3980 H   0  0  0  0  0  0  0  0  0  0  0  0
   37.0430   24.8430   41.9110 C   0  0  0  0  0  0  0  0  0  0  0  0
   36.1250   24.4930   41.4970 H   0  0  0  0  0  0  0  0  0  0  0  0
   38.1920   24.0860   41.9820 C   0  0  0  0  0  3  0  0  0  0  0  0
   39.3910   24.5540   42.5260 C   0  0  0  0  0  3  0  0  0  0  0  0
  2  3  1  0  0  0  0
  2  1  2  1  0  0  0
  2 18  1  0  0  0  0
  3  4  1  0  0  0  0
  5  2  1  0  0  0  0
  6 11  1  0  0  0  0
  7  6  2  0  0  0  0
  7  8  1  0  0  0  0
  8  9  2  0  0  0  0
  9 10  1  0  0  0  0
 10  5  1  0  0  0  0
 11 10  2  0  0  0  0
 12  7  1  0  0  0  0
 13  8  1  0  0  0  0
 14 16  1  0  0  0  0
 14  6  1  0  0  0  0
 15 14  1  0  0  0  0
 17 14  1  0  0  0  0
 20 19  1  0  0  0  0
 21 20  1  0  0  0  0
 21 18  1  0  0  0  0
 22 23  1  0  0  0  0
 22 21  2  0  0  0  0
 24 26  2  0  0  0  0
 24 22  1  0  0  0  0
 25 24  1  0  0  0  0
 26 27  1  0  0  0  0
 27 20  2  0  0  0  0
M  END
>  <minimizedAffinity>
-5.03216553

$$$$

 OpenBabel03252504473D

 27 28  0  0  0  0  0  0  0  0999 V2000
   36.5770   31.4410   38.9720 O   0  0  0  0  0  0  0  0  0  0  0  0
   37.0130   31.0690   40.3920 P   0  0  1  0  0  0  0  0  0  0  0  0
   35.6150   31.1010   41.3420 O   0  0  0  0  0  0  0  0  0  0  0  0
   35.7830   31.5420   42.2000 H   0  0  0  0  0  0  0  0  0  0  0  0
   37.7250   29.5460   40.2970 O   0  0  0  0  0  0  0  0  0  0  0  0
   39.3930   27.2280   42.4980 C   0  0  0  0  0  0  0  0  0  0  0  0
   38.5830   27.2850   43.6370 C   0  0  0  0  0  0  0  0  0  0  0  0
   37.4760   28.1440   43.5790 C   0  0  0  0  0  0  0  0  0  0  0  0
   37.2630   28.8480   42.4550 N   0  0  0  0  0  0  0  0  0  0  0  0
   38.0830   28.7550   41.3750 C   0  0  0  0  0  0  0  0  0  0  0  0
   39.1580   27.9320   41.4070 N   0  0  0  0  0  0  0  0  0  0  0  0
   38.7640   26.7210   44.5210 H   0  0  0  0  0  0  0  0  0  0  0  0
   36.7950   28.2590   44.3990 H   0  0  0  0  0  0  0  0  0  0  0  0
   40.5800   26.3030   42.5710 C   0  0  0  0  0  0  0  0  0  0  0  0
   40.9270   26.2570   43.6120 H   0  0  0  0  0  0  0  0  0  0  0  0
   41.3980   26.7340   41.9410 H   0  0  0  0  0  0  0  0  0  0  0  0
   40.3200   25.3380   42.1340 H   0  0  0  0  0  0  0  0  0  0  0  0
   38.0940   32.2020   41.0120 O   0  0  0  0  0  0  0  0  0  0  0  0
   40.0320   31.0930   42.8710 Cl  0  0  0  0  0  0  0  0  0  0  0  0
   40.3450   31.7890   41.2870 C   0  0  0  0  0  0  0  0  0  0  0  0
   39.3570   32.3060   40.4430 C   0  0  0  0  0  0  0  0  0  0  0  0
   39.7050   32.8320   39.2150 C   0  0  0  0  0  0  0  0  0  0  0  0
   38.8700   33.2010   38.6460 H   0  0  0  0  0  0  0  0  0  0  0  0
   41.0360   32.8400   38.8320 C   0  0  0  0  0  0  0  0  0  0  0  0
   41.2540   33.2570   37.8760 H   0  0  0  0  0  0  0  0  0  0  0  0
   41.9920   32.3260   39.6810 C   0  0  0  0  0  3  0  0  0  0  0  0
   41.6980   31.7820   40.9330 C   0  0  0  0  0  3  0  0  0  0  0  0
  2  1  2  6  0  0  0
  2 18  1  0  0  0  0
  2  3  1  0  0  0  0
  3  4  1  0  0  0  0
  5  2  1  0  0  0  0
  5 10  1  0  0  0  0
  6 14  1  0  0  0  0
  6  7  1  0  0  0  0
  7 12  1  0  0  0  0
  8  7  2  0  0  0  0
  8 13  1  0  0  0  0
  9  8  1  0  0  0  0
 10 11  1  0  0  0  0
 10  9  2  0  0  0  0
 11  6  2  0  0  0  0
 14 15  1  0  0  0  0
 16 14  1  0  0  0  0
 17 14  1  0  0  0  0
 20 19  1  0  0  0  0
 21 18  1  0  0  0  0
 21 20  2  0  0  0  0
 22 21  1  0  0  0  0
 23 22  1  0  0  0  0
 24 22  2  0  0  0  0
 24 26  1  0  0  0  0
 25 24  1  0  0  0  0
 26 27  2  0  0  0  0
 27 20  1  0  0  0  0
M  END
>  <minimizedAffinity>
-4.90106106

$$$$

 OpenBabel03252504473D

 27 28  0  0  0  0  0  0  0  0999 V2000
   35.1800   28.8270   40.2520 O   0  0  0  0  0  0  0  0  0  0  0  0
   36.3230   29.4600   41.0490 P   0  0  1  0  0  0  0  0  0  0  0  0
   35.8230   31.0300   41.4310 O   0  0  0  0  0  0  0  0  0  0  0  0
   36.5480   31.6730   41.2940 H   0  0  0  0  0  0  0  0  0  0  0  0
   36.5680   28.4870   42.4010 O   0  0  0  0  0  0  0  0  0  0  0  0
   39.3820   26.3270   43.0470 C   0  0  0  0  0  0  0  0  0  0  0  0
   38.9500   25.1220   42.4810 C   0  0  0  0  0  0  0  0  0  0  0  0
   37.6780   25.1240   41.8920 C   0  0  0  0  0  0  0  0  0  0  0  0
   36.9620   26.2600   41.9060 N   0  0  0  0  0  0  0  0  0  0  0  0
   37.4290   27.4050   42.4700 C   0  0  0  0  0  0  0  0  0  0  0  0
   38.6550   27.4280   43.0450 N   0  0  0  0  0  0  0  0  0  0  0  0
   39.5300   24.2290   42.4770 H   0  0  0  0  0  0  0  0  0  0  0  0
   37.2570   24.2520   41.4320 H   0  0  0  0  0  0  0  0  0  0  0  0
   40.7500   26.3140   43.6770 C   0  0  0  0  0  0  0  0  0  0  0  0
   40.9450   25.3090   44.0750 H   0  0  0  0  0  0  0  0  0  0  0  0
   40.7490   27.0400   44.5290 H   0  0  0  0  0  0  0  0  0  0  0  0
   41.4880   26.6710   42.9590 H   0  0  0  0  0  0  0  0  0  0  0  0
   37.7250   29.5680   40.1220 O   0  0  0  0  0  0  0  0  0  0  0  0
   37.5600   31.6300   38.0820 Cl  0  0  0  0  0  0  0  0  0  0  0  0
   38.6300   31.5870   39.4770 C   0  0  0  0  0  0  0  0  0  0  0  0
   38.6530   30.5570   40.4230 C   0  0  0  0  0  0  0  0  0  0  0  0
   39.5310   30.6160   41.4860 C   0  0  0  0  0  0  0  0  0  0  0  0
   39.4670   29.7740   42.1530 H   0  0  0  0  0  0  0  0  0  0  0  0
   40.3830   31.7020   41.6030 C   0  0  0  0  0  0  0  0  0  0  0  0
   41.0430   31.7010   42.4410 H   0  0  0  0  0  0  0  0  0  0  0  0
   40.3430   32.7050   40.6590 C   0  0  0  0  0  3  0  0  0  0  0  0
   39.4750   32.6980   39.5640 C   0  0  0  0  0  3  0  0  0  0  0  0
  2  1  2  6  0  0  0
  2  3  1  0  0  0  0
  2  5  1  0  0  0  0
  4  3  1  0  0  0  0
  5 10  1  0  0  0  0
  6 14  1  0  0  0  0
  7  6  2  0  0  0  0
  8  9  2  0  0  0  0
  8  7  1  0  0  0  0
  9 10  1  0  0  0  0
 10 11  2  0  0  0  0
 11  6  1  0  0  0  0
 12  7  1  0  0  0  0
 13  8  1  0  0  0  0
 14 15  1  0  0  0  0
 14 16  1  0  0  0  0
 17 14  1  0  0  0  0
 18 21  1  0  0  0  0
 18  2  1  0  0  0  0
 19 20  1  0  0  0  0
 20 27  2  0  0  0  0
 20 21  1  0  0  0  0
 21 22  2  0  0  0  0
 22 24  1  0  0  0  0
 22 23  1  0  0  0  0
 24 25  1  0  0  0  0
 26 24  2  0  0  0  0
 27 26  1  0  0  0  0
M  END
>  <minimizedAffinity>
-4.84242105

$$$$

 OpenBabel03252504473D

 27 28  0  0  0  0  0  0  0  0999 V2000
   39.5570   28.5730   40.8880 O   0  0  0  0  0  0  0  0  0  0  0  0
   39.9440   28.9440   42.3210 P   0  0  1  0  0  0  0  0  0  0  0  0
   41.6240   28.7740   42.4190 O   0  0  0  0  0  0  0  0  0  0  0  0
   41.8840   28.3280   43.2510 H   0  0  0  0  0  0  0  0  0  0  0  0
   39.4140   30.5220   42.5730 O   0  0  0  0  0  0  0  0  0  0  0  0
   38.4150   32.9570   40.1080 C   0  0  0  0  0  0  0  0  0  0  0  0
   39.6410   33.5420   39.7740 C   0  0  0  0  0  0  0  0  0  0  0  0
   40.7740   33.0500   40.4360 C   0  0  0  0  0  0  0  0  0  0  0  0
   40.6190   32.0640   41.3350 N   0  0  0  0  0  0  0  0  0  0  0  0
   39.4030   31.5300   41.6230 C   0  0  0  0  0  0  0  0  0  0  0  0
   38.2940   31.9890   40.9960 N   0  0  0  0  0  0  0  0  0  0  0  0
   39.7480   34.3230   39.0580 H   0  0  0  0  0  0  0  0  0  0  0  0
   41.7580   33.4310   40.2510 H   0  0  0  0  0  0  0  0  0  0  0  0
   37.2030   33.4930   39.3910 C   0  0  0  0  0  0  0  0  0  0  0  0
   37.3700   34.5550   39.1630 H   0  0  0  0  0  0  0  0  0  0  0  0
   36.3240   33.4100   40.0780 H   0  0  0  0  0  0  0  0  0  0  0  0
   36.9850   32.8710   38.5220 H   0  0  0  0  0  0  0  0  0  0  0  0
   39.2450   27.8900   43.4330 O   0  0  0  0  0  0  0  0  0  0  0  0
   41.1520   25.7100   43.6730 Cl  0  0  0  0  0  0  0  0  0  0  0  0
   39.5080   25.6320   43.0530 C   0  0  0  0  0  0  0  0  0  0  0  0
   38.6430   26.7280   42.9680 C   0  0  0  0  0  0  0  0  0  0  0  0
   37.3680   26.5630   42.4660 C   0  0  0  0  0  0  0  0  0  0  0  0
   36.7870   27.4680   42.4450 H   0  0  0  0  0  0  0  0  0  0  0  0
   36.9590   25.3060   42.0520 C   0  0  0  0  0  0  0  0  0  0  0  0
   35.9650   25.2300   41.6710 H   0  0  0  0  0  0  0  0  0  0  0  0
   37.8280   24.2410   42.1450 C   0  0  0  0  0  3  0  0  0  0  0  0
   39.1280   24.3500   42.6440 C   0  0  0  0  0  3  0  0  0  0  0  0
  2  1  2  6  0  0  0
  2  3  1  0  0  0  0
  2  5  1  0  0  0  0
  2 18  1  0  0  0  0
  3  4  1  0  0  0  0
  6 11  1  0  0  0  0
  7  6  2  0  0  0  0
  7  8  1  0  0  0  0
  8  9  2  0  0  0  0
  9 10  1  0  0  0  0
 10  5  1  0  0  0  0
 11 10  2  0  0  0  0
 12  7  1  0  0  0  0
 13  8  1  0  0  0  0
 14 16  1  0  0  0  0
 14  6  1  0  0  0  0
 15 14  1  0  0  0  0
 17 14  1  0  0  0  0
 20 19  1  0  0  0  0
 21 20  1  0  0  0  0
 21 18  1  0  0  0  0
 22 21  2  0  0  0  0
 23 22  1  0  0  0  0
 24 26  2  0  0  0  0
 24 22  1  0  0  0  0
 25 24  1  0  0  0  0
 26 27  1  0  0  0  0
 27 20  2  0  0  0  0
M  END
>  <minimizedAffinity>
-4.79439402

$$$$
