
 OpenBabel03252506373D

 44 47  0  0  1  0  0  0  0  0999 V2000
   44.5530   35.3620   45.2770 C   0  0  0  0  0  0  0  0  0  0  0  0
   45.1690   35.3790   44.0160 C   0  0  0  0  0  0  0  0  0  0  0  0
   46.0640   34.4120   43.7060 C   0  0  0  0  0  0  0  0  0  0  0  0
   46.3110   33.4730   44.6500 N   0  0  0  0  0  0  0  0  0  0  0  0
   45.7270   33.4610   45.8400 C   0  0  0  0  0  0  0  0  0  0  0  0
   44.8440   34.4000   46.1690 N   0  0  0  0  0  0  0  0  0  0  0  0
   46.0690   32.4200   46.7690 N   0  0  0  0  0  0  0  0  0  0  0  0
   45.3610   32.1490   47.9650 C   0  0  0  0  0  0  0  0  0  0  0  0
   46.4600   31.7540   48.9370 C   0  0  0  0  0  0  0  0  0  0  0  0
   47.7160   31.6590   48.1310 C   0  0  0  0  0  0  0  0  0  0  0  0
   47.1790   31.4910   46.7090 C   0  0  1  0  0  0  0  0  0  0  0  0
   43.8390   36.1470   45.5020 H   0  0  0  0  0  0  0  0  0  0  0  0
   46.5510   34.4010   42.7450 H   0  0  0  0  0  0  0  0  0  0  0  0
   44.5320   31.5270   48.0600 H   0  0  0  0  0  0  0  0  0  0  0  0
   45.0250   33.1590   48.3650 H   0  0  0  0  0  0  0  0  0  0  0  0
   46.2330   30.7040   49.2880 H   0  0  0  0  0  0  0  0  0  0  0  0
   46.5090   32.3570   49.8400 H   0  0  0  0  0  0  0  0  0  0  0  0
   48.3210   30.8020   48.4370 H   0  0  0  0  0  0  0  0  0  0  0  0
   48.2510   32.6370   48.2470 H   0  0  0  0  0  0  0  0  0  0  0  0
   47.9720   31.8190   46.0290 H   0  0  0  0  0  0  0  0  0  0  0  0
   44.8060   36.4420   43.1190 N   0  0  0  0  0  0  0  0  0  0  0  0
   45.6220   36.7700   42.5400 H   0  0  0  0  0  0  0  0  0  0  0  0
   43.8920   36.8830   42.9950 H   0  0  0  0  0  0  0  0  0  0  0  0
   46.6360   29.8140   46.4890 S   0  0  0  0  0  0  0  0  0  0  0  0
   45.2060   30.4710   43.5470 O   0  0  0  0  0  0  0  0  0  0  0  0
   44.7040   29.8790   44.5160 C   0  0  0  0  0  0  0  0  0  0  0  0
   45.0010   29.5730   45.9320 C   0  0  1  0  0  0  0  0  0  0  0  0
   44.4740   28.1640   46.0610 C   0  0  0  0  0  0  0  0  0  0  0  0
   43.0720   28.4140   45.5010 C   0  0  0  0  0  0  0  0  0  0  0  0
   43.4250   29.2420   44.3530 N   0  0  0  0  0  0  0  0  0  0  0  0
   44.1740   30.1530   46.4350 H   0  0  0  0  0  0  0  0  0  0  0  0
   44.4730   27.7790   47.0800 H   0  0  0  0  0  0  0  0  0  0  0  0
   45.0200   27.5380   45.3370 H   0  0  0  0  0  0  0  0  0  0  0  0
   42.6370   27.4730   45.1280 H   0  0  0  0  0  0  0  0  0  0  0  0
   42.4310   28.9340   46.2320 H   0  0  0  0  0  0  0  0  0  0  0  0
   40.6840   29.5680   45.3140 Cl  0  0  0  0  0  0  0  0  0  0  0  0
   41.1790   29.4930   43.6340 C   0  0  0  0  0  0  0  0  0  0  0  0
   42.5120   29.3350   43.2360 C   0  0  0  0  0  0  0  0  0  0  0  0
   42.8780   29.2780   41.9080 C   0  0  0  0  0  0  0  0  0  0  0  0
   43.9310   29.1560   41.6970 H   0  0  0  0  0  0  0  0  0  0  0  0
   41.8730   29.3840   40.9480 C   0  0  0  0  0  0  0  0  0  0  0  0
   42.1750   29.3390   39.9010 H   0  0  0  0  0  0  0  0  0  0  0  0
   40.5520   29.5410   41.3370 C   0  0  0  0  0  0  0  0  0  0  0  0
   40.1880   29.5960   42.6660 C   0  0  0  0  0  0  0  0  0  0  0  0
  1 12  1  0  0  0  0
  1  6  1  0  0  0  0
  2  1  2  0  0  0  0
  3  2  1  0  0  0  0
  3  4  2  0  0  0  0
  4  5  1  0  0  0  0
  5  6  2  0  0  0  0
  5  7  1  0  0  0  0
  7  8  1  0  0  0  0
  8 14  1  0  0  0  0
  8 15  1  0  0  0  0
  8  9  1  0  0  0  0
  9 16  1  0  0  0  0
  9 17  1  0  0  0  0
 10 19  1  0  0  0  0
 10 18  1  0  0  0  0
 10  9  1  0  0  0  0
 11 20  1  6  0  0  0
 11  7  1  0  0  0  0
 11 10  1  0  0  0  0
 13  3  1  0  0  0  0
 21  2  1  0  0  0  0
 22 21  1  0  0  0  0
 23 21  1  0  0  0  0
 24 11  1  0  0  0  0
 25 26  2  0  0  0  0
 26 27  1  0  0  0  0
 27 28  1  0  0  0  0
 27 31  1  1  0  0  0
 27 24  1  0  0  0  0
 28 32  1  0  0  0  0
 29 28  1  0  0  0  0
 29 35  1  0  0  0  0
 30 26  1  0  0  0  0
 30 29  1  0  0  0  0
 33 28  1  0  0  0  0
 34 29  1  0  0  0  0
 37 36  1  0  0  0  0
 38 37  1  0  0  0  0
 38 30  1  0  0  0  0
 39 38  2  0  0  0  0
 40 39  1  0  0  0  0
 41 43  2  0  0  0  0
 41 39  1  0  0  0  0
 42 41  1  0  0  0  0
 43 44  1  0  0  0  0
 44 37  2  0  0  0  0
M  END
>  <minimizedAffinity>
-5.5819273

>  <minimizedRMSD>
0.477395028

$$$$
