
 OpenBabel03252506403D

 44 47  0  0  1  0  0  0  0  0999 V2000
   43.3140   34.1540   37.8730 C   0  0  0  0  0  0  0  0  0  0  0  0
   43.8320   32.9640   37.3380 C   0  0  0  0  0  0  0  0  0  0  0  0
   43.1230   31.8170   37.4700 C   0  0  0  0  0  0  0  0  0  0  0  0
   41.9380   31.8960   38.1220 N   0  0  0  0  0  0  0  0  0  0  0  0
   41.4540   33.0220   38.6250 C   0  0  0  0  0  0  0  0  0  0  0  0
   42.1310   34.1610   38.5080 N   0  0  0  0  0  0  0  0  0  0  0  0
   40.1880   32.9890   39.3040 N   0  0  0  0  0  0  0  0  0  0  0  0
   39.4490   34.1380   39.6780 C   0  0  0  0  0  0  0  0  0  0  0  0
   38.8390   33.7410   41.0110 C   0  0  0  0  0  0  0  0  0  0  0  0
   39.1500   32.2890   41.1960 C   0  0  0  0  0  0  0  0  0  0  0  0
   39.4460   31.8340   39.7670 C   0  0  1  0  0  0  0  0  0  0  0  0
   43.9010   35.0580   37.7540 H   0  0  0  0  0  0  0  0  0  0  0  0
   43.4960   30.8900   37.0690 H   0  0  0  0  0  0  0  0  0  0  0  0
   38.7600   34.6440   39.0830 H   0  0  0  0  0  0  0  0  0  0  0  0
   40.2180   34.9210   39.9780 H   0  0  0  0  0  0  0  0  0  0  0  0
   37.7170   33.8080   40.8980 H   0  0  0  0  0  0  0  0  0  0  0  0
   39.0870   34.3980   41.8410 H   0  0  0  0  0  0  0  0  0  0  0  0
   38.3000   31.7510   41.6230 H   0  0  0  0  0  0  0  0  0  0  0  0
   40.0690   32.2330   41.8350 H   0  0  0  0  0  0  0  0  0  0  0  0
   40.0650   30.9330   39.8420 H   0  0  0  0  0  0  0  0  0  0  0  0
   45.1050   33.0370   36.6740 N   0  0  0  0  0  0  0  0  0  0  0  0
   45.6900   32.1770   36.8390 H   0  0  0  0  0  0  0  0  0  0  0  0
   45.4750   33.7930   36.0950 H   0  0  0  0  0  0  0  0  0  0  0  0
   37.9120   31.6320   38.8940 S   0  0  0  0  0  0  0  0  0  0  0  0
   38.8050   28.4500   39.3490 O   0  0  0  0  0  0  0  0  0  0  0  0
   37.6810   28.9500   39.5130 C   0  0  0  0  0  0  0  0  0  0  0  0
   36.9610   30.2200   39.2720 C   0  0  1  0  0  0  0  0  0  0  0  0
   36.1020   30.3290   40.5090 C   0  0  0  0  0  0  0  0  0  0  0  0
   35.4630   28.9410   40.4410 C   0  0  0  0  0  0  0  0  0  0  0  0
   36.6480   28.1540   40.1210 N   0  0  0  0  0  0  0  0  0  0  0  0
   36.1980   29.8720   38.5160 H   0  0  0  0  0  0  0  0  0  0  0  0
   35.3790   31.1430   40.4800 H   0  0  0  0  0  0  0  0  0  0  0  0
   36.7770   30.3480   41.3800 H   0  0  0  0  0  0  0  0  0  0  0  0
   35.1040   28.6360   41.4380 H   0  0  0  0  0  0  0  0  0  0  0  0
   34.6840   28.8910   39.6610 H   0  0  0  0  0  0  0  0  0  0  0  0
   37.3280   27.7370   42.9330 Cl  0  0  0  0  0  0  0  0  0  0  0  0
   36.9890   26.4770   41.7630 C   0  0  0  0  0  0  0  0  0  0  0  0
   36.6680   26.7410   40.4250 C   0  0  0  0  0  0  0  0  0  0  0  0
   36.4060   25.7330   39.5230 C   0  0  0  0  0  0  0  0  0  0  0  0
   36.1670   26.0330   38.5120 H   0  0  0  0  0  0  0  0  0  0  0  0
   36.4670   24.4160   39.9760 C   0  0  0  0  0  0  0  0  0  0  0  0
   36.2570   23.6280   39.2540 H   0  0  0  0  0  0  0  0  0  0  0  0
   36.7830   24.1500   41.2990 C   0  0  0  0  0  3  0  0  0  0  0  0
   37.0460   25.1590   42.2010 C   0  0  0  0  0  3  0  0  0  0  0  0
  1  6  1  0  0  0  0
  2  3  1  0  0  0  0
  2  1  2  0  0  0  0
  3  4  2  0  0  0  0
  4  5  1  0  0  0  0
  5  7  1  0  0  0  0
  6  5  2  0  0  0  0
  7  8  1  0  0  0  0
  7 11  1  0  0  0  0
  8 15  1  0  0  0  0
  8  9  1  0  0  0  0
  9 10  1  0  0  0  0
  9 17  1  0  0  0  0
 10 18  1  0  0  0  0
 10 19  1  0  0  0  0
 11 20  1  6  0  0  0
 11 10  1  0  0  0  0
 12  1  1  0  0  0  0
 13  3  1  0  0  0  0
 14  8  1  0  0  0  0
 16  9  1  0  0  0  0
 21 22  1  0  0  0  0
 21  2  1  0  0  0  0
 23 21  1  0  0  0  0
 24 27  1  0  0  0  0
 24 11  1  0  0  0  0
 25 26  2  0  0  0  0
 26 30  1  0  0  0  0
 27 31  1  6  0  0  0
 27 26  1  0  0  0  0
 27 28  1  0  0  0  0
 28 33  1  0  0  0  0
 29 28  1  0  0  0  0
 29 34  1  0  0  0  0
 30 38  1  0  0  0  0
 30 29  1  0  0  0  0
 32 28  1  0  0  0  0
 35 29  1  0  0  0  0
 37 44  1  0  0  0  0
 37 36  1  0  0  0  0
 38 37  2  0  0  0  0
 39 41  2  0  0  0  0
 39 38  1  0  0  0  0
 40 39  1  0  0  0  0
 41 43  1  0  0  0  0
 42 41  1  0  0  0  0
 43 44  2  0  0  0  0
M  END
>  <minimizedAffinity>
-6.16147041

$$$$

 OpenBabel03252506403D

 44 47  0  0  1  0  0  0  0  0999 V2000
   36.5880   29.8530   36.4060 C   0  0  0  0  0  0  0  0  0  0  0  0
   37.5190   28.8460   36.1120 C   0  0  0  0  0  0  0  0  0  0  0  0
   38.6690   28.7810   36.8240 C   0  0  0  0  0  0  0  0  0  0  0  0
   38.8490   29.7110   37.7930 N   0  0  0  0  0  0  0  0  0  0  0  0
   37.9660   30.6600   38.0670 C   0  0  0  0  0  0  0  0  0  0  0  0
   36.8290   30.7450   37.3820 N   0  0  0  0  0  0  0  0  0  0  0  0
   38.2620   31.5990   39.1130 N   0  0  0  0  0  0  0  0  0  0  0  0
   37.3240   32.5050   39.6650 C   0  0  0  0  0  0  0  0  0  0  0  0
   38.1560   33.7490   39.9300 C   0  0  0  0  0  0  0  0  0  0  0  0
   39.5770   33.3650   39.6610 C   0  0  0  0  0  0  0  0  0  0  0  0
   39.5290   31.8410   39.7720 C   0  0  1  0  0  0  0  0  0  0  0  0
   35.6750   29.8840   35.8220 H   0  0  0  0  0  0  0  0  0  0  0  0
   39.4010   28.0180   36.6190 H   0  0  0  0  0  0  0  0  0  0  0  0
   36.6750   32.3100   40.4560 H   0  0  0  0  0  0  0  0  0  0  0  0
   36.6570   32.8300   38.8030 H   0  0  0  0  0  0  0  0  0  0  0  0
   38.0940   33.9630   41.0370 H   0  0  0  0  0  0  0  0  0  0  0  0
   37.7970   34.6510   39.4390 H   0  0  0  0  0  0  0  0  0  0  0  0
   40.2530   33.8020   40.4000 H   0  0  0  0  0  0  0  0  0  0  0  0
   39.8070   33.6860   38.6130 H   0  0  0  0  0  0  0  0  0  0  0  0
   40.3840   31.4550   39.2060 H   0  0  0  0  0  0  0  0  0  0  0  0
   37.1900   27.9310   35.0530 N   0  0  0  0  0  0  0  0  0  0  0  0
   38.0360   27.6480   34.4930 H   0  0  0  0  0  0  0  0  0  0  0  0
   36.2740   27.5520   34.8050 H   0  0  0  0  0  0  0  0  0  0  0  0
   39.4870   31.3860   41.4890 S   0  0  0  0  0  0  0  0  0  0  0  0
   39.6010   28.2320   40.4060 O   0  0  0  0  0  0  0  0  0  0  0  0
   38.9020   28.6910   41.3240 C   0  0  0  0  0  0  0  0  0  0  0  0
   38.5310   29.9930   41.9210 C   0  0  1  0  0  0  0  0  0  0  0  0
   38.4980   29.6610   43.3930 C   0  0  0  0  0  0  0  0  0  0  0  0
   37.5720   28.4460   43.3110 C   0  0  0  0  0  0  0  0  0  0  0  0
   38.1630   27.7800   42.1560 N   0  0  0  0  0  0  0  0  0  0  0  0
   37.4280   30.0090   41.6840 H   0  0  0  0  0  0  0  0  0  0  0  0
   38.1110   30.4610   44.0230 H   0  0  0  0  0  0  0  0  0  0  0  0
   39.5020   29.3020   43.6740 H   0  0  0  0  0  0  0  0  0  0  0  0
   37.7130   27.7990   44.1920 H   0  0  0  0  0  0  0  0  0  0  0  0
   36.5220   28.7460   43.1510 H   0  0  0  0  0  0  0  0  0  0  0  0
   40.2050   26.2700   43.6030 Cl  0  0  0  0  0  0  0  0  0  0  0  0
   38.9100   25.5830   42.6420 C   0  0  0  0  0  0  0  0  0  0  0  0
   37.9590   26.3610   41.9700 C   0  0  0  0  0  0  0  0  0  0  0  0
   36.9490   25.7980   41.2200 C   0  0  0  0  0  0  0  0  0  0  0  0
   36.2620   26.4790   40.7390 H   0  0  0  0  0  0  0  0  0  0  0  0
   36.8900   24.4070   41.1410 C   0  0  0  0  0  0  0  0  0  0  0  0
   36.0870   23.9730   40.5460 H   0  0  0  0  0  0  0  0  0  0  0  0
   37.8290   23.6320   41.8050 C   0  0  0  0  0  3  0  0  0  0  0  0
   38.8390   24.1980   42.5540 C   0  0  0  0  0  3  0  0  0  0  0  0
  1  6  1  0  0  0  0
  2  1  2  0  0  0  0
  2  3  1  0  0  0  0
  3  4  2  0  0  0  0
  4  5  1  0  0  0  0
  5  7  1  0  0  0  0
  6  5  2  0  0  0  0
  7  8  1  0  0  0  0
  7 11  1  0  0  0  0
  8  9  1  0  0  0  0
  8 14  1  0  0  0  0
  9 16  1  0  0  0  0
 10 11  1  0  0  0  0
 10  9  1  0  0  0  0
 10 18  1  0  0  0  0
 11 20  1  6  0  0  0
 11 24  1  0  0  0  0
 12  1  1  0  0  0  0
 13  3  1  0  0  0  0
 15  8  1  0  0  0  0
 17  9  1  0  0  0  0
 19 10  1  0  0  0  0
 21  2  1  0  0  0  0
 22 21  1  0  0  0  0
 23 21  1  0  0  0  0
 24 27  1  0  0  0  0
 25 26  2  0  0  0  0
 26 27  1  0  0  0  0
 26 30  1  0  0  0  0
 27 31  1  6  0  0  0
 27 28  1  0  0  0  0
 28 33  1  0  0  0  0
 28 32  1  0  0  0  0
 29 28  1  0  0  0  0
 29 34  1  0  0  0  0
 30 29  1  0  0  0  0
 35 29  1  0  0  0  0
 37 36  1  0  0  0  0
 38 30  1  0  0  0  0
 38 37  2  0  0  0  0
 39 38  1  0  0  0  0
 40 39  1  0  0  0  0
 41 39  2  0  0  0  0
 41 43  1  0  0  0  0
 42 41  1  0  0  0  0
 43 44  2  0  0  0  0
 44 37  1  0  0  0  0
M  END
>  <minimizedAffinity>
-5.91816235

$$$$

 OpenBabel03252506403D

 44 47  0  0  1  0  0  0  0  0999 V2000
   40.1740   32.6600   38.9330 C   0  0  0  0  0  0  0  0  0  0  0  0
   39.9590   31.7490   37.8870 C   0  0  0  0  0  0  0  0  0  0  0  0
   40.2140   30.4350   38.0940 C   0  0  0  0  0  0  0  0  0  0  0  0
   40.6690   30.0790   39.3190 N   0  0  0  0  0  0  0  0  0  0  0  0
   40.8700   30.9430   40.3030 C   0  0  0  0  0  0  0  0  0  0  0  0
   40.6270   32.2390   40.1260 N   0  0  0  0  0  0  0  0  0  0  0  0
   41.3620   30.4560   41.5620 N   0  0  0  0  0  0  0  0  0  0  0  0
   41.3980   31.2170   42.7560 C   0  0  0  0  0  0  0  0  0  0  0  0
   42.6860   30.7610   43.4200 C   0  0  0  0  0  0  0  0  0  0  0  0
   43.1930   29.6150   42.6040 C   0  0  0  0  0  0  0  0  0  0  0  0
   41.9350   29.1600   41.8630 C   0  0  1  0  0  0  0  0  0  0  0  0
   39.9620   33.7060   38.7430 H   0  0  0  0  0  0  0  0  0  0  0  0
   40.0570   29.7140   37.3080 H   0  0  0  0  0  0  0  0  0  0  0  0
   40.6270   31.3060   43.4500 H   0  0  0  0  0  0  0  0  0  0  0  0
   41.6420   32.2820   42.4420 H   0  0  0  0  0  0  0  0  0  0  0  0
   42.4090   30.3300   44.4270 H   0  0  0  0  0  0  0  0  0  0  0  0
   43.3970   31.5560   43.6310 H   0  0  0  0  0  0  0  0  0  0  0  0
   43.5950   28.8210   43.2390 H   0  0  0  0  0  0  0  0  0  0  0  0
   43.9510   30.0330   41.8920 H   0  0  0  0  0  0  0  0  0  0  0  0
   42.2690   28.6250   40.9680 H   0  0  0  0  0  0  0  0  0  0  0  0
   39.4750   32.2770   36.6410 N   0  0  0  0  0  0  0  0  0  0  0  0
   39.8840   31.7750   35.8110 H   0  0  0  0  0  0  0  0  0  0  0  0
   38.8160   33.0430   36.4900 H   0  0  0  0  0  0  0  0  0  0  0  0
   40.9160   28.2200   42.9740 S   0  0  0  0  0  0  0  0  0  0  0  0
   39.9230   26.0250   40.6660 O   0  0  0  0  0  0  0  0  0  0  0  0
   39.2090   26.6850   41.4370 C   0  0  0  0  0  0  0  0  0  0  0  0
   39.3200   27.7880   42.4180 C   0  0  1  0  0  0  0  0  0  0  0  0
   38.3590   27.3440   43.4940 C   0  0  0  0  0  0  0  0  0  0  0  0
   37.1430   27.0970   42.5970 C   0  0  0  0  0  0  0  0  0  0  0  0
   37.8020   26.3950   41.5010 N   0  0  0  0  0  0  0  0  0  0  0  0
   38.7040   28.5760   41.8970 H   0  0  0  0  0  0  0  0  0  0  0  0
   38.1820   28.0870   44.2700 H   0  0  0  0  0  0  0  0  0  0  0  0
   38.7060   26.3660   43.8660 H   0  0  0  0  0  0  0  0  0  0  0  0
   36.4440   26.3990   43.0840 H   0  0  0  0  0  0  0  0  0  0  0  0
   36.6710   28.0440   42.2850 H   0  0  0  0  0  0  0  0  0  0  0  0
   37.0500   27.8160   39.0600 Cl  0  0  0  0  0  0  0  0  0  0  0  0
   36.6340   26.1590   39.4510 C   0  0  0  0  0  0  0  0  0  0  0  0
   37.0250   25.5320   40.6400 C   0  0  0  0  0  0  0  0  0  0  0  0
   36.6850   24.2270   40.9260 C   0  0  0  0  0  0  0  0  0  0  0  0
   37.0330   23.8280   41.8680 H   0  0  0  0  0  0  0  0  0  0  0  0
   35.9290   23.5270   39.9870 C   0  0  0  0  0  0  0  0  0  0  0  0
   35.6670   22.4960   40.2240 H   0  0  0  0  0  0  0  0  0  0  0  0
   35.5390   24.1430   38.8080 C   0  0  0  0  0  3  0  0  0  0  0  0
   35.8790   25.4490   38.5240 C   0  0  0  0  0  3  0  0  0  0  0  0
  1  6  1  0  0  0  0
  2  3  1  0  0  0  0
  2  1  2  0  0  0  0
  3  4  2  0  0  0  0
  4  5  1  0  0  0  0
  5  7  1  0  0  0  0
  6  5  2  0  0  0  0
  7 11  1  0  0  0  0
  7  8  1  0  0  0  0
  8  9  1  0  0  0  0
  8 14  1  0  0  0  0
  9 17  1  0  0  0  0
  9 16  1  0  0  0  0
 10 18  1  0  0  0  0
 10  9  1  0  0  0  0
 11 20  1  6  0  0  0
 11 10  1  0  0  0  0
 11 24  1  0  0  0  0
 12  1  1  0  0  0  0
 13  3  1  0  0  0  0
 15  8  1  0  0  0  0
 19 10  1  0  0  0  0
 21  2  1  0  0  0  0
 22 21  1  0  0  0  0
 23 21  1  0  0  0  0
 25 26  2  0  0  0  0
 26 30  1  0  0  0  0
 26 27  1  0  0  0  0
 27 31  1  6  0  0  0
 27 24  1  0  0  0  0
 27 28  1  0  0  0  0
 28 33  1  0  0  0  0
 28 32  1  0  0  0  0
 29 34  1  0  0  0  0
 29 28  1  0  0  0  0
 30 29  1  0  0  0  0
 35 29  1  0  0  0  0
 36 37  1  0  0  0  0
 37 38  1  0  0  0  0
 38 39  2  0  0  0  0
 38 30  1  0  0  0  0
 39 40  1  0  0  0  0
 41 42  1  0  0  0  0
 41 39  1  0  0  0  0
 43 41  2  0  0  0  0
 44 43  1  0  0  0  0
 44 37  2  0  0  0  0
M  END
>  <minimizedAffinity>
-5.81317711

$$$$

 OpenBabel03252506403D

 44 47  0  0  1  0  0  0  0  0999 V2000
   39.0290   32.5980   39.1580 C   0  0  0  0  0  0  0  0  0  0  0  0
   38.3100   32.9470   40.3120 C   0  0  0  0  0  0  0  0  0  0  0  0
   37.1880   32.2560   40.6250 C   0  0  0  0  0  0  0  0  0  0  0  0
   36.8260   31.2550   39.7870 N   0  0  0  0  0  0  0  0  0  0  0  0
   37.5080   30.9300   38.6990 C   0  0  0  0  0  0  0  0  0  0  0  0
   38.6140   31.5930   38.3710 N   0  0  0  0  0  0  0  0  0  0  0  0
   37.0290   29.8520   37.8780 N   0  0  0  0  0  0  0  0  0  0  0  0
   37.7710   29.2510   36.8330 C   0  0  0  0  0  0  0  0  0  0  0  0
   36.7150   28.9510   35.7830 C   0  0  0  0  0  0  0  0  0  0  0  0
   35.3960   29.2570   36.4190 C   0  0  0  0  0  0  0  0  0  0  0  0
   35.7340   29.2050   37.9100 C   0  0  1  0  0  0  0  0  0  0  0  0
   39.9250   33.1660   38.9300 H   0  0  0  0  0  0  0  0  0  0  0  0
   36.6180   32.5020   41.5050 H   0  0  0  0  0  0  0  0  0  0  0  0
   38.4390   28.4580   36.9330 H   0  0  0  0  0  0  0  0  0  0  0  0
   38.3720   30.0880   36.3520 H   0  0  0  0  0  0  0  0  0  0  0  0
   36.7260   27.8360   35.6070 H   0  0  0  0  0  0  0  0  0  0  0  0
   36.8980   29.4010   34.8100 H   0  0  0  0  0  0  0  0  0  0  0  0
   34.6430   28.5130   36.1510 H   0  0  0  0  0  0  0  0  0  0  0  0
   35.1170   30.2960   36.1050 H   0  0  0  0  0  0  0  0  0  0  0  0
   34.9740   29.8000   38.4290 H   0  0  0  0  0  0  0  0  0  0  0  0
   38.8180   34.0350   41.1030 N   0  0  0  0  0  0  0  0  0  0  0  0
   38.0460   34.6180   41.5190 H   0  0  0  0  0  0  0  0  0  0  0  0
   39.7920   34.2830   41.2890 H   0  0  0  0  0  0  0  0  0  0  0  0
   35.8480   27.5070   38.4190 S   0  0  0  0  0  0  0  0  0  0  0  0
   39.0210   27.1080   39.3700 O   0  0  0  0  0  0  0  0  0  0  0  0
   38.0160   27.1680   40.0970 C   0  0  0  0  0  0  0  0  0  0  0  0
   36.5410   27.1910   39.9880 C   0  0  1  0  0  0  0  0  0  0  0  0
   36.1650   28.1730   41.0720 C   0  0  0  0  0  0  0  0  0  0  0  0
   36.9430   27.5230   42.2190 C   0  0  0  0  0  0  0  0  0  0  0  0
   38.1930   27.2420   41.5230 N   0  0  0  0  0  0  0  0  0  0  0  0
   36.2920   26.2140   40.4950 H   0  0  0  0  0  0  0  0  0  0  0  0
   35.0940   28.2450   41.2580 H   0  0  0  0  0  0  0  0  0  0  0  0
   36.6540   29.1320   40.8330 H   0  0  0  0  0  0  0  0  0  0  0  0
   37.1460   28.2640   43.0100 H   0  0  0  0  0  0  0  0  0  0  0  0
   36.4360   26.6160   42.5880 H   0  0  0  0  0  0  0  0  0  0  0  0
   39.6110   29.7890   41.7310 Cl  0  0  0  0  0  0  0  0  0  0  0  0
   40.1350   28.2650   42.4190 C   0  0  0  0  0  0  0  0  0  0  0  0
   39.4100   27.0750   42.2840 C   0  0  0  0  0  0  0  0  0  0  0  0
   39.8430   25.8870   42.8340 C   0  0  0  0  0  0  0  0  0  0  0  0
   39.2160   25.0210   42.6790 H   0  0  0  0  0  0  0  0  0  0  0  0
   41.0430   25.8940   43.5440 C   0  0  0  0  0  0  0  0  0  0  0  0
   41.3750   24.9490   43.9740 H   0  0  0  0  0  0  0  0  0  0  0  0
   41.7650   27.0700   43.6800 C   0  0  0  0  0  3  0  0  0  0  0  0
   41.3300   28.2560   43.1280 C   0  0  0  0  0  3  0  0  0  0  0  0
  1  2  1  0  0  0  0
  2  3  2  0  0  0  0
  2 21  1  0  0  0  0
  3 13  1  0  0  0  0
  4  3  1  0  0  0  0
  5  4  2  0  0  0  0
  6  5  1  0  0  0  0
  6  1  2  0  0  0  0
  7 11  1  0  0  0  0
  7  5  1  0  0  0  0
  8 14  1  0  0  0  0
  8  7  1  0  0  0  0
  9 10  1  0  0  0  0
  9  8  1  0  0  0  0
 10 11  1  0  0  0  0
 11 24  1  0  0  0  0
 11 20  1  1  0  0  0
 12  1  1  0  0  0  0
 15  8  1  0  0  0  0
 16  9  1  0  0  0  0
 17  9  1  0  0  0  0
 18 10  1  0  0  0  0
 19 10  1  0  0  0  0
 21 23  1  0  0  0  0
 21 22  1  0  0  0  0
 24 27  1  0  0  0  0
 25 26  2  0  0  0  0
 26 30  1  0  0  0  0
 27 26  1  0  0  0  0
 27 31  1  1  0  0  0
 27 28  1  0  0  0  0
 28 32  1  0  0  0  0
 28 29  1  0  0  0  0
 29 35  1  0  0  0  0
 29 34  1  0  0  0  0
 30 29  1  0  0  0  0
 30 38  1  0  0  0  0
 33 28  1  0  0  0  0
 36 37  1  0  0  0  0
 37 44  1  0  0  0  0
 38 37  2  0  0  0  0
 38 39  1  0  0  0  0
 39 41  2  0  0  0  0
 40 39  1  0  0  0  0
 41 43  1  0  0  0  0
 41 42  1  0  0  0  0
 44 43  2  0  0  0  0
M  END
>  <minimizedAffinity>
-5.7747407

$$$$

 OpenBabel03252506403D

 44 47  0  0  1  0  0  0  0  0999 V2000
   43.1380   29.5780   35.6760 C   0  0  0  0  0  0  0  0  0  0  0  0
   42.9320   28.2430   36.0550 C   0  0  0  0  0  0  0  0  0  0  0  0
   42.0910   27.9700   37.0810 C   0  0  0  0  0  0  0  0  0  0  0  0
   41.4920   29.0230   37.6850 N   0  0  0  0  0  0  0  0  0  0  0  0
   41.6900   30.2830   37.3240 C   0  0  0  0  0  0  0  0  0  0  0  0
   42.5100   30.5770   36.3190 N   0  0  0  0  0  0  0  0  0  0  0  0
   41.0060   31.3240   38.0400 N   0  0  0  0  0  0  0  0  0  0  0  0
   40.9380   32.6740   37.6190 C   0  0  0  0  0  0  0  0  0  0  0  0
   41.0120   33.4490   38.9230 C   0  0  0  0  0  0  0  0  0  0  0  0
   40.9320   32.4330   40.0180 C   0  0  0  0  0  0  0  0  0  0  0  0
   40.3050   31.2340   39.3040 C   0  0  1  0  0  0  0  0  0  0  0  0
   43.8150   29.7710   34.8510 H   0  0  0  0  0  0  0  0  0  0  0  0
   41.9140   26.9540   37.3910 H   0  0  0  0  0  0  0  0  0  0  0  0
   40.2270   33.0820   36.9780 H   0  0  0  0  0  0  0  0  0  0  0  0
   41.9420   32.9030   37.1360 H   0  0  0  0  0  0  0  0  0  0  0  0
   40.0690   34.0660   39.0000 H   0  0  0  0  0  0  0  0  0  0  0  0
   41.8310   34.1630   38.9850 H   0  0  0  0  0  0  0  0  0  0  0  0
   40.3060   32.7840   40.8420 H   0  0  0  0  0  0  0  0  0  0  0  0
   41.9850   32.2090   40.3310 H   0  0  0  0  0  0  0  0  0  0  0  0
   40.5780   30.3430   39.8800 H   0  0  0  0  0  0  0  0  0  0  0  0
   43.6400   27.2310   35.3190 N   0  0  0  0  0  0  0  0  0  0  0  0
   43.9440   26.4320   35.9330 H   0  0  0  0  0  0  0  0  0  0  0  0
   43.8640   27.2130   34.3220 H   0  0  0  0  0  0  0  0  0  0  0  0
   38.5610   31.5160   39.1230 S   0  0  0  0  0  0  0  0  0  0  0  0
   39.1960   28.2940   39.7080 O   0  0  0  0  0  0  0  0  0  0  0  0
   38.1080   28.8820   39.8210 C   0  0  0  0  0  0  0  0  0  0  0  0
   37.4940   30.1930   39.5170 C   0  0  1  0  0  0  0  0  0  0  0  0
   36.6120   30.4100   40.7220 C   0  0  0  0  0  0  0  0  0  0  0  0
   35.8710   29.0710   40.6800 C   0  0  0  0  0  0  0  0  0  0  0  0
   37.0020   28.1870   40.4220 N   0  0  0  0  0  0  0  0  0  0  0  0
   36.7290   29.8780   38.7500 H   0  0  0  0  0  0  0  0  0  0  0  0
   35.9540   31.2740   40.6450 H   0  0  0  0  0  0  0  0  0  0  0  0
   37.2620   30.4080   41.6130 H   0  0  0  0  0  0  0  0  0  0  0  0
   35.4630   28.8290   41.6750 H   0  0  0  0  0  0  0  0  0  0  0  0
   35.1130   29.0540   39.8790 H   0  0  0  0  0  0  0  0  0  0  0  0
   36.1910   26.6170   38.0940 Cl  0  0  0  0  0  0  0  0  0  0  0  0
   36.5190   25.9830   39.6940 C   0  0  0  0  0  0  0  0  0  0  0  0
   36.9060   26.7880   40.7720 C   0  0  0  0  0  0  0  0  0  0  0  0
   37.1590   26.2660   42.0230 C   0  0  0  0  0  0  0  0  0  0  0  0
   37.4520   26.9650   42.7930 H   0  0  0  0  0  0  0  0  0  0  0  0
   37.0210   24.8900   42.1970 C   0  0  0  0  0  0  0  0  0  0  0  0
   37.2240   24.4890   43.1900 H   0  0  0  0  0  0  0  0  0  0  0  0
   36.6390   24.0880   41.1330 C   0  0  0  0  0  3  0  0  0  0  0  0
   36.3850   24.6120   39.8830 C   0  0  0  0  0  3  0  0  0  0  0  0
  1  2  2  0  0  0  0
  1  6  1  0  0  0  0
  2  3  1  0  0  0  0
  3 13  1  0  0  0  0
  3  4  2  0  0  0  0
  5  4  1  0  0  0  0
  5  7  1  0  0  0  0
  6  5  2  0  0  0  0
  7 11  1  0  0  0  0
  8  7  1  0  0  0  0
  8  9  1  0  0  0  0
  9 17  1  0  0  0  0
  9 16  1  0  0  0  0
  9 10  1  0  0  0  0
 10 19  1  0  0  0  0
 10 18  1  0  0  0  0
 11 20  1  1  0  0  0
 11 10  1  0  0  0  0
 12  1  1  0  0  0  0
 14  8  1  0  0  0  0
 15  8  1  0  0  0  0
 21 22  1  0  0  0  0
 21  2  1  0  0  0  0
 23 21  1  0  0  0  0
 24 11  1  0  0  0  0
 24 27  1  0  0  0  0
 25 26  2  0  0  0  0
 26 30  1  0  0  0  0
 27 31  1  6  0  0  0
 27 26  1  0  0  0  0
 27 28  1  0  0  0  0
 28 33  1  0  0  0  0
 29 28  1  0  0  0  0
 29 34  1  0  0  0  0
 30 29  1  0  0  0  0
 30 38  1  0  0  0  0
 32 28  1  0  0  0  0
 35 29  1  0  0  0  0
 36 37  1  0  0  0  0
 37 44  2  0  0  0  0
 37 38  1  0  0  0  0
 38 39  2  0  0  0  0
 39 41  1  0  0  0  0
 39 40  1  0  0  0  0
 41 42  1  0  0  0  0
 43 41  2  0  0  0  0
 44 43  1  0  0  0  0
M  END
>  <minimizedAffinity>
-5.73129797

$$$$

 OpenBabel03252506403D

 44 47  0  0  1  0  0  0  0  0999 V2000
   37.6250   26.6990   42.8680 C   0  0  0  0  0  0  0  0  0  0  0  0
   39.0110   26.6700   42.6510 C   0  0  0  0  0  0  0  0  0  0  0  0
   39.5290   27.3480   41.5990 C   0  0  0  0  0  0  0  0  0  0  0  0
   38.6590   28.0230   40.8100 N   0  0  0  0  0  0  0  0  0  0  0  0
   37.3510   28.0470   41.0200 C   0  0  0  0  0  0  0  0  0  0  0  0
   36.8180   27.3900   42.0460 N   0  0  0  0  0  0  0  0  0  0  0  0
   36.5190   28.7920   40.1150 N   0  0  0  0  0  0  0  0  0  0  0  0
   35.1560   29.0970   40.3470 C   0  0  0  0  0  0  0  0  0  0  0  0
   34.5360   28.9950   38.9650 C   0  0  0  0  0  0  0  0  0  0  0  0
   35.6730   28.8090   38.0100 C   0  0  0  0  0  0  0  0  0  0  0  0
   36.8630   29.3320   38.8160 C   0  0  1  0  0  0  0  0  0  0  0  0
   37.2350   26.1490   43.7170 H   0  0  0  0  0  0  0  0  0  0  0  0
   40.5890   27.3420   41.4090 H   0  0  0  0  0  0  0  0  0  0  0  0
   34.7920   29.9250   40.8640 H   0  0  0  0  0  0  0  0  0  0  0  0
   34.7200   28.1940   40.8840 H   0  0  0  0  0  0  0  0  0  0  0  0
   34.0870   30.0030   38.7240 H   0  0  0  0  0  0  0  0  0  0  0  0
   33.7160   28.2850   38.8830 H   0  0  0  0  0  0  0  0  0  0  0  0
   35.5210   29.3870   37.0940 H   0  0  0  0  0  0  0  0  0  0  0  0
   35.7640   27.7080   37.8240 H   0  0  0  0  0  0  0  0  0  0  0  0
   37.7610   28.8740   38.3890 H   0  0  0  0  0  0  0  0  0  0  0  0
   39.8080   25.9070   43.5730 N   0  0  0  0  0  0  0  0  0  0  0  0
   40.6160   25.4280   43.0990 H   0  0  0  0  0  0  0  0  0  0  0  0
   39.6750   25.7920   44.5800 H   0  0  0  0  0  0  0  0  0  0  0  0
   36.8370   31.1080   38.8020 S   0  0  0  0  0  0  0  0  0  0  0  0
   40.1530   30.8610   39.0690 O   0  0  0  0  0  0  0  0  0  0  0  0
   39.4060   31.6670   39.6480 C   0  0  0  0  0  0  0  0  0  0  0  0
   37.9650   31.9300   39.8490 C   0  0  1  0  0  0  0  0  0  0  0  0
   37.9140   33.4370   39.7980 C   0  0  0  0  0  0  0  0  0  0  0  0
   39.0030   33.7160   40.8370 C   0  0  0  0  0  0  0  0  0  0  0  0
   39.9950   32.7400   40.4030 N   0  0  0  0  0  0  0  0  0  0  0  0
   37.8870   31.7540   40.9610 H   0  0  0  0  0  0  0  0  0  0  0  0
   36.9460   33.8610   40.0590 H   0  0  0  0  0  0  0  0  0  0  0  0
   38.3000   33.7490   38.8140 H   0  0  0  0  0  0  0  0  0  0  0  0
   39.4220   34.7250   40.6900 H   0  0  0  0  0  0  0  0  0  0  0  0
   38.6380   33.5390   41.8630 H   0  0  0  0  0  0  0  0  0  0  0  0
   40.6950   31.0880   42.7100 Cl  0  0  0  0  0  0  0  0  0  0  0  0
   41.7800   32.1660   41.8540 C   0  0  0  0  0  0  0  0  0  0  0  0
   41.3840   32.9330   40.7520 C   0  0  0  0  0  0  0  0  0  0  0  0
   42.2560   33.7750   40.0950 C   0  0  0  0  0  0  0  0  0  0  0  0
   41.8600   34.3270   39.2540 H   0  0  0  0  0  0  0  0  0  0  0  0
   43.5690   33.8480   40.5580 C   0  0  0  0  0  0  0  0  0  0  0  0
   44.2490   34.5170   40.0300 H   0  0  0  0  0  0  0  0  0  0  0  0
   43.9650   33.0900   41.6490 C   0  0  0  0  0  3  0  0  0  0  0  0
   43.0920   32.2490   42.3060 C   0  0  0  0  0  3  0  0  0  0  0  0
  1 12  1  0  0  0  0
  2  1  1  0  0  0  0
  2 21  1  0  0  0  0
  3  2  2  0  0  0  0
  4  5  2  0  0  0  0
  4  3  1  0  0  0  0
  5  6  1  0  0  0  0
  6  1  2  0  0  0  0
  7  8  1  0  0  0  0
  7  5  1  0  0  0  0
  8 14  1  0  0  0  0
  8 15  1  0  0  0  0
  9  8  1  0  0  0  0
 10 11  1  0  0  0  0
 10  9  1  0  0  0  0
 11 20  1  6  0  0  0
 11  7  1  0  0  0  0
 13  3  1  0  0  0  0
 16  9  1  0  0  0  0
 17  9  1  0  0  0  0
 18 10  1  0  0  0  0
 19 10  1  0  0  0  0
 21 23  1  0  0  0  0
 22 21  1  0  0  0  0
 24 11  1  0  0  0  0
 24 27  1  0  0  0  0
 25 26  2  0  0  0  0
 26 27  1  0  0  0  0
 26 30  1  0  0  0  0
 27 31  1  1  0  0  0
 28 27  1  0  0  0  0
 28 32  1  0  0  0  0
 28 29  1  0  0  0  0
 29 35  1  0  0  0  0
 30 38  1  0  0  0  0
 30 29  1  0  0  0  0
 33 28  1  0  0  0  0
 34 29  1  0  0  0  0
 37 44  1  0  0  0  0
 37 36  1  0  0  0  0
 38 37  2  0  0  0  0
 39 41  2  0  0  0  0
 39 38  1  0  0  0  0
 40 39  1  0  0  0  0
 41 43  1  0  0  0  0
 42 41  1  0  0  0  0
 43 44  2  0  0  0  0
M  END
>  <minimizedAffinity>
-5.7300477

$$$$

 OpenBabel03252506403D

 44 47  0  0  1  0  0  0  0  0999 V2000
   35.2550   26.9180   36.9850 C   0  0  0  0  0  0  0  0  0  0  0  0
   34.7730   28.1580   37.4330 C   0  0  0  0  0  0  0  0  0  0  0  0
   35.0590   28.5610   38.6940 C   0  0  0  0  0  0  0  0  0  0  0  0
   35.8070   27.7260   39.4540 N   0  0  0  0  0  0  0  0  0  0  0  0
   36.2600   26.5560   39.0260 C   0  0  0  0  0  0  0  0  0  0  0  0
   35.9930   26.1380   37.7920 N   0  0  0  0  0  0  0  0  0  0  0  0
   37.0400   25.7470   39.9210 N   0  0  0  0  0  0  0  0  0  0  0  0
   37.7760   24.6020   39.5300 C   0  0  0  0  0  0  0  0  0  0  0  0
   37.6120   23.6620   40.7120 C   0  0  0  0  0  0  0  0  0  0  0  0
   36.9230   24.4520   41.7800 C   0  0  0  0  0  0  0  0  0  0  0  0
   37.2040   25.8930   41.3530 C   0  0  1  0  0  0  0  0  0  0  0  0
   35.0130   26.6180   35.9710 H   0  0  0  0  0  0  0  0  0  0  0  0
   34.7020   29.5070   39.0630 H   0  0  0  0  0  0  0  0  0  0  0  0
   38.7550   24.5940   39.1750 H   0  0  0  0  0  0  0  0  0  0  0  0
   37.1600   24.0950   38.7200 H   0  0  0  0  0  0  0  0  0  0  0  0
   38.6460   23.4380   41.1070 H   0  0  0  0  0  0  0  0  0  0  0  0
   37.1780   22.6950   40.4700 H   0  0  0  0  0  0  0  0  0  0  0  0
   37.3410   24.2350   42.7670 H   0  0  0  0  0  0  0  0  0  0  0  0
   35.8300   24.2150   41.7050 H   0  0  0  0  0  0  0  0  0  0  0  0
   36.4280   26.5160   41.8090 H   0  0  0  0  0  0  0  0  0  0  0  0
   33.9900   28.9340   36.5110 N   0  0  0  0  0  0  0  0  0  0  0  0
   33.2110   29.4560   36.9900 H   0  0  0  0  0  0  0  0  0  0  0  0
   34.1060   29.0230   35.4990 H   0  0  0  0  0  0  0  0  0  0  0  0
   38.8730   26.3130   41.7950 S   0  0  0  0  0  0  0  0  0  0  0  0
   38.9200   28.8940   39.6810 O   0  0  0  0  0  0  0  0  0  0  0  0
   39.0590   28.9250   40.9140 C   0  0  0  0  0  0  0  0  0  0  0  0
   39.2260   28.0010   42.0570 C   0  0  1  0  0  0  0  0  0  0  0  0
   38.4000   28.6770   43.1250 C   0  0  0  0  0  0  0  0  0  0  0  0
   39.0350   30.0660   43.0300 C   0  0  0  0  0  0  0  0  0  0  0  0
   39.0840   30.2000   41.5780 N   0  0  0  0  0  0  0  0  0  0  0  0
   40.2680   28.2830   42.3870 H   0  0  0  0  0  0  0  0  0  0  0  0
   38.4900   28.2250   44.1120 H   0  0  0  0  0  0  0  0  0  0  0  0
   37.3670   28.7510   42.7480 H   0  0  0  0  0  0  0  0  0  0  0  0
   38.3440   30.8290   43.4250 H   0  0  0  0  0  0  0  0  0  0  0  0
   40.0310   30.0890   43.5040 H   0  0  0  0  0  0  0  0  0  0  0  0
   36.4000   31.1410   40.9070 Cl  0  0  0  0  0  0  0  0  0  0  0  0
   37.8910   32.0230   40.6430 C   0  0  0  0  0  0  0  0  0  0  0  0
   39.1510   31.5180   40.9870 C   0  0  0  0  0  0  0  0  0  0  0  0
   40.3100   32.2300   40.7700 C   0  0  0  0  0  0  0  0  0  0  0  0
   41.2350   31.7590   41.0690 H   0  0  0  0  0  0  0  0  0  0  0  0
   40.2030   33.4920   40.1880 C   0  0  0  0  0  0  0  0  0  0  0  0
   41.1270   34.0470   40.0210 H   0  0  0  0  0  0  0  0  0  0  0  0
   38.9580   33.9970   39.8450 C   0  0  0  0  0  3  0  0  0  0  0  0
   37.7990   33.2830   40.0630 C   0  0  0  0  0  3  0  0  0  0  0  0
  1  2  2  0  0  0  0
  1  6  1  0  0  0  0
  2  3  1  0  0  0  0
  3 13  1  0  0  0  0
  3  4  2  0  0  0  0
  5  4  1  0  0  0  0
  5  7  1  0  0  0  0
  6  5  2  0  0  0  0
  7 11  1  0  0  0  0
  8  7  1  0  0  0  0
  8  9  1  0  0  0  0
  9 16  1  0  0  0  0
  9 10  1  0  0  0  0
 10 18  1  0  0  0  0
 11 10  1  0  0  0  0
 11 24  1  0  0  0  0
 11 20  1  1  0  0  0
 12  1  1  0  0  0  0
 14  8  1  0  0  0  0
 15  8  1  0  0  0  0
 17  9  1  0  0  0  0
 19 10  1  0  0  0  0
 21 22  1  0  0  0  0
 21  2  1  0  0  0  0
 23 21  1  0  0  0  0
 24 27  1  0  0  0  0
 25 26  2  0  0  0  0
 26 30  1  0  0  0  0
 26 27  1  0  0  0  0
 27 31  1  1  0  0  0
 27 28  1  0  0  0  0
 28 32  1  0  0  0  0
 29 28  1  0  0  0  0
 29 34  1  0  0  0  0
 29 35  1  0  0  0  0
 30 29  1  0  0  0  0
 33 28  1  0  0  0  0
 37 36  1  0  0  0  0
 37 38  1  0  0  0  0
 38 30  1  0  0  0  0
 39 38  2  0  0  0  0
 39 40  1  0  0  0  0
 41 39  1  0  0  0  0
 42 41  1  0  0  0  0
 43 44  1  0  0  0  0
 43 41  2  0  0  0  0
 44 37  2  0  0  0  0
M  END
>  <minimizedAffinity>
-5.72697496

$$$$

 OpenBabel03252506403D

 44 47  0  0  1  0  0  0  0  0999 V2000
   37.8920   27.4870   36.7160 C   0  0  0  0  0  0  0  0  0  0  0  0
   37.4750   28.7230   36.1990 C   0  0  0  0  0  0  0  0  0  0  0  0
   37.1610   29.7250   37.0560 C   0  0  0  0  0  0  0  0  0  0  0  0
   37.2720   29.4620   38.3800 N   0  0  0  0  0  0  0  0  0  0  0  0
   37.6670   28.2930   38.8620 C   0  0  0  0  0  0  0  0  0  0  0  0
   37.9820   27.2940   38.0420 N   0  0  0  0  0  0  0  0  0  0  0  0
   37.7440   28.1230   40.2870 N   0  0  0  0  0  0  0  0  0  0  0  0
   38.3650   27.0250   40.9300 C   0  0  0  0  0  0  0  0  0  0  0  0
   37.4740   26.7770   42.1350 C   0  0  0  0  0  0  0  0  0  0  0  0
   36.4940   27.9070   42.1680 C   0  0  0  0  0  0  0  0  0  0  0  0
   37.1960   28.9720   41.3240 C   0  0  1  0  0  0  0  0  0  0  0  0
   38.1390   26.7020   36.0100 H   0  0  0  0  0  0  0  0  0  0  0  0
   36.8380   30.6830   36.6860 H   0  0  0  0  0  0  0  0  0  0  0  0
   39.3720   26.9530   41.1850 H   0  0  0  0  0  0  0  0  0  0  0  0
   38.1570   26.1180   40.2750 H   0  0  0  0  0  0  0  0  0  0  0  0
   38.1170   26.8940   43.0560 H   0  0  0  0  0  0  0  0  0  0  0  0
   37.0580   25.7740   42.1970 H   0  0  0  0  0  0  0  0  0  0  0  0
   36.3200   28.2530   43.1900 H   0  0  0  0  0  0  0  0  0  0  0  0
   35.5620   27.5430   41.6640 H   0  0  0  0  0  0  0  0  0  0  0  0
   36.4170   29.6480   40.9540 H   0  0  0  0  0  0  0  0  0  0  0  0
   37.4030   28.8510   34.7690 N   0  0  0  0  0  0  0  0  0  0  0  0
   36.5940   29.4510   34.4630 H   0  0  0  0  0  0  0  0  0  0  0  0
   38.0210   28.4430   34.0650 H   0  0  0  0  0  0  0  0  0  0  0  0
   38.4660   29.7390   42.3000 S   0  0  0  0  0  0  0  0  0  0  0  0
   41.0740   30.1810   40.2660 O   0  0  0  0  0  0  0  0  0  0  0  0
   40.2920   31.0470   40.6910 C   0  0  0  0  0  0  0  0  0  0  0  0
   39.1890   31.1950   41.6660 C   0  0  1  0  0  0  0  0  0  0  0  0
   38.2470   32.1170   40.9300 C   0  0  0  0  0  0  0  0  0  0  0  0
   39.2570   33.2140   40.5870 C   0  0  0  0  0  0  0  0  0  0  0  0
   40.3700   32.3780   40.1520 N   0  0  0  0  0  0  0  0  0  0  0  0
   39.6640   31.9150   42.3920 H   0  0  0  0  0  0  0  0  0  0  0  0
   37.4080   32.4700   41.5290 H   0  0  0  0  0  0  0  0  0  0  0  0
   37.9600   31.6170   39.9910 H   0  0  0  0  0  0  0  0  0  0  0  0
   38.9060   33.7990   39.7210 H   0  0  0  0  0  0  0  0  0  0  0  0
   39.4960   33.8340   41.4670 H   0  0  0  0  0  0  0  0  0  0  0  0
   42.6910   33.2340   41.7090 Cl  0  0  0  0  0  0  0  0  0  0  0  0
   42.5190   33.3630   39.9690 C   0  0  0  0  0  0  0  0  0  0  0  0
   41.3790   32.9330   39.2790 C   0  0  0  0  0  0  0  0  0  0  0  0
   41.2670   33.0460   37.9100 C   0  0  0  0  0  0  0  0  0  0  0  0
   40.3500   32.6860   37.4650 H   0  0  0  0  0  0  0  0  0  0  0  0
   42.3340   33.6060   37.2090 C   0  0  0  0  0  0  0  0  0  0  0  0
   42.2330   33.6890   36.1270 H   0  0  0  0  0  0  0  0  0  0  0  0
   43.4640   34.0330   37.8880 C   0  0  0  0  0  3  0  0  0  0  0  0
   43.5750   33.9210   39.2580 C   0  0  0  0  0  3  0  0  0  0  0  0
  1  6  1  0  0  0  0
  2  1  2  0  0  0  0
  2  3  1  0  0  0  0
  3  4  2  0  0  0  0
  4  5  1  0  0  0  0
  5  7  1  0  0  0  0
  6  5  2  0  0  0  0
  7  8  1  0  0  0  0
  7 11  1  0  0  0  0
  8 14  1  0  0  0  0
  8  9  1  0  0  0  0
  9 10  1  0  0  0  0
  9 17  1  0  0  0  0
  9 16  1  0  0  0  0
 10 18  1  0  0  0  0
 11 20  1  6  0  0  0
 11 10  1  0  0  0  0
 11 24  1  0  0  0  0
 12  1  1  0  0  0  0
 13  3  1  0  0  0  0
 15  8  1  0  0  0  0
 19 10  1  0  0  0  0
 21  2  1  0  0  0  0
 22 21  1  0  0  0  0
 23 21  1  0  0  0  0
 25 26  2  0  0  0  0
 26 27  1  0  0  0  0
 27 24  1  0  0  0  0
 27 31  1  1  0  0  0
 28 32  1  0  0  0  0
 28 27  1  0  0  0  0
 29 28  1  0  0  0  0
 29 35  1  0  0  0  0
 30 29  1  0  0  0  0
 30 26  1  0  0  0  0
 33 28  1  0  0  0  0
 34 29  1  0  0  0  0
 37 36  1  0  0  0  0
 38 37  1  0  0  0  0
 38 30  1  0  0  0  0
 39 38  2  0  0  0  0
 40 39  1  0  0  0  0
 41 43  2  0  0  0  0
 41 39  1  0  0  0  0
 42 41  1  0  0  0  0
 43 44  1  0  0  0  0
 44 37  2  0  0  0  0
M  END
>  <minimizedAffinity>
-5.69464207

$$$$

 OpenBabel03252506403D

 44 47  0  0  1  0  0  0  0  0999 V2000
   42.9690   30.0180   35.8280 C   0  0  0  0  0  0  0  0  0  0  0  0
   43.0630   28.7140   36.3400 C   0  0  0  0  0  0  0  0  0  0  0  0
   42.6040   28.4610   37.5890 C   0  0  0  0  0  0  0  0  0  0  0  0
   42.0750   29.5020   38.2750 N   0  0  0  0  0  0  0  0  0  0  0  0
   41.9890   30.7310   37.7870 C   0  0  0  0  0  0  0  0  0  0  0  0
   42.4310   31.0050   36.5630 N   0  0  0  0  0  0  0  0  0  0  0  0
   41.4140   31.7620   38.6060 N   0  0  0  0  0  0  0  0  0  0  0  0
   41.0470   33.0470   38.1360 C   0  0  0  0  0  0  0  0  0  0  0  0
   41.3970   33.9560   39.3010 C   0  0  0  0  0  0  0  0  0  0  0  0
   41.7790   33.0560   40.4340 C   0  0  0  0  0  0  0  0  0  0  0  0
   41.1340   31.7300   40.0270 C   0  0  1  0  0  0  0  0  0  0  0  0
   43.3420   30.1950   34.8250 H   0  0  0  0  0  0  0  0  0  0  0  0
   42.6640   27.4700   38.0060 H   0  0  0  0  0  0  0  0  0  0  0  0
   40.1310   33.3070   37.7160 H   0  0  0  0  0  0  0  0  0  0  0  0
   41.8250   33.3290   37.3560 H   0  0  0  0  0  0  0  0  0  0  0  0
   40.4450   34.4730   39.6200 H   0  0  0  0  0  0  0  0  0  0  0  0
   42.0950   34.7550   39.0630 H   0  0  0  0  0  0  0  0  0  0  0  0
   41.3820   33.4220   41.3840 H   0  0  0  0  0  0  0  0  0  0  0  0
   42.8970   32.9800   40.4260 H   0  0  0  0  0  0  0  0  0  0  0  0
   41.6800   30.9380   40.5500 H   0  0  0  0  0  0  0  0  0  0  0  0
   43.6510   27.7130   35.4930 N   0  0  0  0  0  0  0  0  0  0  0  0
   44.2260   27.0180   36.0370 H   0  0  0  0  0  0  0  0  0  0  0  0
   43.5730   27.6150   34.4790 H   0  0  0  0  0  0  0  0  0  0  0  0
   39.3920   31.8040   40.3670 S   0  0  0  0  0  0  0  0  0  0  0  0
   39.1350   28.5390   39.7320 O   0  0  0  0  0  0  0  0  0  0  0  0
   38.8430   29.1290   40.7850 C   0  0  0  0  0  0  0  0  0  0  0  0
   38.7080   30.5060   41.3100 C   0  0  1  0  0  0  0  0  0  0  0  0
   39.2610   30.3600   42.7070 C   0  0  0  0  0  0  0  0  0  0  0  0
   38.4010   29.1730   43.1470 C   0  0  0  0  0  0  0  0  0  0  0  0
   38.5060   28.3520   41.9460 N   0  0  0  0  0  0  0  0  0  0  0  0
   37.6010   30.5270   41.5230 H   0  0  0  0  0  0  0  0  0  0  0  0
   39.1360   31.2430   43.3320 H   0  0  0  0  0  0  0  0  0  0  0  0
   40.3020   30.0070   42.6160 H   0  0  0  0  0  0  0  0  0  0  0  0
   38.8880   28.6360   43.9770 H   0  0  0  0  0  0  0  0  0  0  0  0
   37.3670   29.4840   43.3730 H   0  0  0  0  0  0  0  0  0  0  0  0
   40.9860   26.9670   42.6360 Cl  0  0  0  0  0  0  0  0  0  0  0  0
   39.4290   26.2080   42.3640 C   0  0  0  0  0  0  0  0  0  0  0  0
   38.2740   26.9280   42.0360 C   0  0  0  0  0  0  0  0  0  0  0  0
   37.0600   26.3090   41.8260 C   0  0  0  0  0  0  0  0  0  0  0  0
   36.2240   26.9470   41.5780 H   0  0  0  0  0  0  0  0  0  0  0  0
   37.0030   24.9220   41.9510 C   0  0  0  0  0  0  0  0  0  0  0  0
   36.0380   24.4430   41.7840 H   0  0  0  0  0  0  0  0  0  0  0  0
   38.1440   24.2050   42.2760 C   0  0  0  0  0  3  0  0  0  0  0  0
   39.3580   24.8250   42.4840 C   0  0  0  0  0  3  0  0  0  0  0  0
  1  2  2  0  0  0  0
  1  6  1  0  0  0  0
  2  3  1  0  0  0  0
  3 13  1  0  0  0  0
  3  4  2  0  0  0  0
  5  4  1  0  0  0  0
  5  7  1  0  0  0  0
  6  5  2  0  0  0  0
  7 11  1  0  0  0  0
  8  7  1  0  0  0  0
  8  9  1  0  0  0  0
  9 16  1  0  0  0  0
  9 10  1  0  0  0  0
 10 18  1  0  0  0  0
 11 24  1  0  0  0  0
 11 10  1  0  0  0  0
 11 20  1  1  0  0  0
 12  1  1  0  0  0  0
 14  8  1  0  0  0  0
 15  8  1  0  0  0  0
 17  9  1  0  0  0  0
 19 10  1  0  0  0  0
 21 22  1  0  0  0  0
 21  2  1  0  0  0  0
 23 21  1  0  0  0  0
 24 27  1  0  0  0  0
 25 26  2  0  0  0  0
 26 27  1  0  0  0  0
 26 30  1  0  0  0  0
 27 31  1  1  0  0  0
 27 28  1  0  0  0  0
 28 29  1  0  0  0  0
 28 32  1  0  0  0  0
 29 35  1  0  0  0  0
 29 34  1  0  0  0  0
 30 38  1  0  0  0  0
 30 29  1  0  0  0  0
 33 28  1  0  0  0  0
 37 44  1  0  0  0  0
 37 36  1  0  0  0  0
 38 37  2  0  0  0  0
 39 41  2  0  0  0  0
 39 38  1  0  0  0  0
 40 39  1  0  0  0  0
 41 43  1  0  0  0  0
 42 41  1  0  0  0  0
 43 44  2  0  0  0  0
M  END
>  <minimizedAffinity>
-5.6844058

$$$$
