
 OpenBabel03252505133D

 44 47  0  0  1  0  0  0  0  0999 V2000
   39.9920   35.0540   39.9590 C   0  0  0  0  0  0  0  0  0  0  0  0
   39.0140   34.1220   40.3730 C   0  0  0  0  0  0  0  0  0  0  0  0
   39.3410   32.7480   40.3070 C   0  0  0  0  0  0  0  0  0  0  0  0
   40.5720   32.3980   39.8500 N   0  0  0  0  0  0  0  0  0  0  0  0
   41.4730   33.3110   39.4660 C   0  0  0  0  0  0  0  0  0  0  0  0
   41.1900   34.6470   39.5170 N   0  0  0  0  0  0  0  0  0  0  0  0
   39.7360   36.1040   40.0110 H   0  0  0  0  0  0  0  0  0  0  0  0
   38.0500   34.4550   40.7280 H   0  0  0  0  0  0  0  0  0  0  0  0
   42.8090   32.8700   38.9680 C   0  0  2  0  0  0  0  0  0  0  0  0
   43.6550   32.7260   40.2160 C   0  0  0  0  0  0  0  0  0  0  0  0
   44.6500   33.7720   40.4520 C   0  0  0  0  0  0  0  0  0  0  0  0
   45.5060   33.8220   39.1920 C   0  0  0  0  0  0  0  0  0  0  0  0
   44.7280   34.2850   38.0300 C   0  0  0  0  0  0  0  0  0  0  0  0
   43.3400   33.7570   37.9730 C   0  0  0  0  0  0  0  0  0  0  0  0
   42.6280   31.8640   38.5270 H   0  0  0  0  0  0  0  0  0  0  0  0
   43.0450   32.6100   41.1440 H   0  0  0  0  0  0  0  0  0  0  0  0
   44.1950   31.7500   40.1310 H   0  0  0  0  0  0  0  0  0  0  0  0
   45.2970   33.4780   41.2760 H   0  0  0  0  0  0  0  0  0  0  0  0
   44.2000   34.7840   40.5630 H   0  0  0  0  0  0  0  0  0  0  0  0
   46.2440   34.6140   39.3820 H   0  0  0  0  0  0  0  0  0  0  0  0
   45.9500   32.8250   39.0250 H   0  0  0  0  0  0  0  0  0  0  0  0
   44.9230   34.9230   37.2010 H   0  0  0  0  0  0  0  0  0  0  0  0
   42.4840   34.1320   36.8990 N   0  0  0  0  0  0  0  0  0  0  0  0
   42.0800   35.1100   36.9440 H   0  0  0  0  0  0  0  0  0  0  0  0
   42.3610   33.3770   36.1890 H   0  0  0  0  0  0  0  0  0  0  0  0
   38.3560   31.7650   40.7300 C   0  0  0  0  0  0  0  0  0  0  0  0
   37.1010   31.8540   40.1860 C   0  0  0  0  0  0  0  0  0  0  0  0
   36.1960   30.8630   40.6420 C   0  0  0  0  0  0  0  0  0  0  0  0
   36.6740   29.9400   41.5630 C   0  0  0  0  0  0  0  0  0  0  0  0
   37.9220   29.8580   42.0980 C   0  0  0  0  0  0  0  0  0  0  0  0
   38.7670   30.8360   41.6300 N   0  0  0  0  0  0  0  0  0  0  0  0
   36.8770   32.6230   39.4840 H   0  0  0  0  0  0  0  0  0  0  0  0
   35.2110   30.9460   40.2060 H   0  0  0  0  0  0  0  0  0  0  0  0
   35.8390   29.2950   41.7680 H   0  0  0  0  0  0  0  0  0  0  0  0
   38.3040   28.9260   42.9840 O   0  0  0  0  0  0  0  0  0  0  0  0
   36.9160   26.4550   42.7570 Cl  0  0  0  0  0  0  0  0  0  0  0  0
   38.6330   26.8530   42.9890 C   0  0  0  0  0  0  0  0  0  0  0  0
   39.3050   28.0960   43.1000 C   0  0  0  0  0  0  0  0  0  0  0  0
   40.6540   27.9500   43.2740 C   0  0  0  0  0  0  0  0  0  0  0  0
   41.1320   28.9040   43.3540 H   0  0  0  0  0  0  0  0  0  0  0  0
   41.3850   26.7940   43.3500 C   0  0  0  0  0  0  0  0  0  0  0  0
   42.4480   26.9150   43.4910 H   0  0  0  0  0  0  0  0  0  0  0  0
   40.6830   25.6340   43.2360 C   0  0  0  0  0  3  0  0  0  0  0  0
   39.2980   25.6120   43.0530 C   0  0  0  0  0  3  0  0  0  0  0  0
  1  7  1  0  0  0  0
  1  2  1  0  0  0  0
  2  8  1  0  0  0  0
  3  2  2  0  0  0  0
  3 26  1  0  0  0  0
  4  3  1  0  0  0  0
  5  6  1  0  0  0  0
  5  4  2  0  0  0  0
  6  1  2  0  0  0  0
  9 15  1  6  0  0  0
  9  5  1  0  0  0  0
  9 10  1  0  0  0  0
 10 11  1  0  0  0  0
 10 16  1  0  0  0  0
 11 19  1  0  0  0  0
 11 18  1  0  0  0  0
 12 20  1  0  0  0  0
 12 11  1  0  0  0  0
 13 12  1  0  0  0  0
 14 13  2  0  0  0  0
 14  9  1  0  0  0  0
 17 10  1  0  0  0  0
 21 12  1  0  0  0  0
 22 13  1  0  0  0  0
 23 24  1  0  0  0  0
 23 14  1  0  0  0  0
 25 23  1  0  0  0  0
 26 31  1  0  0  0  0
 27 28  1  0  0  0  0
 27 26  2  0  0  0  0
 28 29  2  0  0  0  0
 29 34  1  0  0  0  0
 29 30  1  0  0  0  0
 30 35  1  0  0  0  0
 31 30  2  0  0  0  0
 32 27  1  0  0  0  0
 33 28  1  0  0  0  0
 35 38  1  0  0  0  0
 36 37  1  0  0  0  0
 37 44  2  0  0  0  0
 37 38  1  0  0  0  0
 38 39  2  0  0  0  0
 39 41  1  0  0  0  0
 39 40  1  0  0  0  0
 41 42  1  0  0  0  0
 43 41  2  0  0  0  0
 44 43  1  0  0  0  0
M  END
>  <minimizedAffinity>
-6.94611645

$$$$

 OpenBabel03252505133D

 44 47  0  0  1  0  0  0  0  0999 V2000
   39.8810   34.9000   40.0230 C   0  0  0  0  0  0  0  0  0  0  0  0
   38.8970   33.9540   40.3800 C   0  0  0  0  0  0  0  0  0  0  0  0
   39.2250   32.5820   40.2660 C   0  0  0  0  0  0  0  0  0  0  0  0
   40.4650   32.2510   39.8190 N   0  0  0  0  0  0  0  0  0  0  0  0
   41.3730   33.1790   39.4890 C   0  0  0  0  0  0  0  0  0  0  0  0
   41.0880   34.5120   39.5880 N   0  0  0  0  0  0  0  0  0  0  0  0
   39.6250   35.9480   40.1120 H   0  0  0  0  0  0  0  0  0  0  0  0
   37.9260   34.2720   40.7300 H   0  0  0  0  0  0  0  0  0  0  0  0
   42.7190   32.7570   38.9990 C   0  0  2  0  0  0  0  0  0  0  0  0
   43.5500   32.5990   40.2550 C   0  0  0  0  0  0  0  0  0  0  0  0
   44.5340   33.6490   40.5210 C   0  0  0  0  0  0  0  0  0  0  0  0
   45.4050   33.7280   39.2720 C   0  0  0  0  0  0  0  0  0  0  0  0
   44.6360   34.2050   38.1090 C   0  0  0  0  0  0  0  0  0  0  0  0
   43.2540   33.6660   38.0260 C   0  0  0  0  0  0  0  0  0  0  0  0
   42.5510   31.7580   38.5390 H   0  0  0  0  0  0  0  0  0  0  0  0
   42.9310   32.4610   41.1730 H   0  0  0  0  0  0  0  0  0  0  0  0
   44.1000   31.6290   40.1600 H   0  0  0  0  0  0  0  0  0  0  0  0
   45.1740   33.3460   41.3470 H   0  0  0  0  0  0  0  0  0  0  0  0
   44.0740   34.6550   40.6440 H   0  0  0  0  0  0  0  0  0  0  0  0
   46.1330   34.5220   39.4850 H   0  0  0  0  0  0  0  0  0  0  0  0
   45.8590   32.7380   39.0940 H   0  0  0  0  0  0  0  0  0  0  0  0
   44.8350   34.8580   37.2940 H   0  0  0  0  0  0  0  0  0  0  0  0
   42.4080   34.0520   36.9490 N   0  0  0  0  0  0  0  0  0  0  0  0
   41.9940   35.0270   37.0060 H   0  0  0  0  0  0  0  0  0  0  0  0
   42.3000   33.3090   36.2240 H   0  0  0  0  0  0  0  0  0  0  0  0
   38.2330   31.5840   40.6290 C   0  0  0  0  0  0  0  0  0  0  0  0
   36.9470   31.7850   40.2010 C   0  0  0  0  0  0  0  0  0  0  0  0
   36.0360   30.7720   40.5900 C   0  0  0  0  0  0  0  0  0  0  0  0
   36.5400   29.7180   41.3420 C   0  0  0  0  0  0  0  0  0  0  0  0
   37.8190   29.5240   41.7630 C   0  0  0  0  0  0  0  0  0  0  0  0
   38.6690   30.5290   41.3650 N   0  0  0  0  0  0  0  0  0  0  0  0
   36.7060   32.6490   39.6260 H   0  0  0  0  0  0  0  0  0  0  0  0
   35.0270   30.9440   40.2470 H   0  0  0  0  0  0  0  0  0  0  0  0
   35.6950   29.0780   41.5240 H   0  0  0  0  0  0  0  0  0  0  0  0
   38.2240   28.4710   42.4860 O   0  0  0  0  0  0  0  0  0  0  0  0
   40.7770   27.6720   43.4520 Cl  0  0  0  0  0  0  0  0  0  0  0  0
   39.3640   26.7540   42.8860 C   0  0  0  0  0  0  0  0  0  0  0  0
   38.0980   27.1740   42.4070 C   0  0  0  0  0  0  0  0  0  0  0  0
   37.2890   26.1230   42.0700 C   0  0  0  0  0  0  0  0  0  0  0  0
   36.3430   26.4720   41.7130 H   0  0  0  0  0  0  0  0  0  0  0  0
   37.5560   24.7810   42.1410 C   0  0  0  0  0  0  0  0  0  0  0  0
   36.7640   24.1230   41.8200 H   0  0  0  0  0  0  0  0  0  0  0  0
   38.7880   24.4420   42.6090 C   0  0  0  0  0  3  0  0  0  0  0  0
   39.7320   25.3970   42.9960 C   0  0  0  0  0  3  0  0  0  0  0  0
  1  7  1  0  0  0  0
  1  2  1  0  0  0  0
  2  8  1  0  0  0  0
  3  2  2  0  0  0  0
  3 26  1  0  0  0  0
  4  3  1  0  0  0  0
  5  6  1  0  0  0  0
  5  4  2  0  0  0  0
  6  1  2  0  0  0  0
  9 15  1  6  0  0  0
  9  5  1  0  0  0  0
  9 10  1  0  0  0  0
 10 11  1  0  0  0  0
 10 16  1  0  0  0  0
 11 19  1  0  0  0  0
 11 18  1  0  0  0  0
 12 20  1  0  0  0  0
 12 11  1  0  0  0  0
 13 12  1  0  0  0  0
 14 13  2  0  0  0  0
 14  9  1  0  0  0  0
 17 10  1  0  0  0  0
 21 12  1  0  0  0  0
 22 13  1  0  0  0  0
 23 24  1  0  0  0  0
 23 14  1  0  0  0  0
 25 23  1  0  0  0  0
 26 31  1  0  0  0  0
 27 28  1  0  0  0  0
 27 26  2  0  0  0  0
 28 29  2  0  0  0  0
 29 34  1  0  0  0  0
 29 30  1  0  0  0  0
 30 35  1  0  0  0  0
 31 30  2  0  0  0  0
 32 27  1  0  0  0  0
 33 28  1  0  0  0  0
 37 44  1  0  0  0  0
 37 36  1  0  0  0  0
 38 35  1  0  0  0  0
 38 37  2  0  0  0  0
 39 41  2  0  0  0  0
 39 38  1  0  0  0  0
 40 39  1  0  0  0  0
 41 43  1  0  0  0  0
 42 41  1  0  0  0  0
 43 44  2  0  0  0  0
M  END
>  <minimizedAffinity>
-6.90713978

$$$$

 OpenBabel03252505133D

 44 47  0  0  1  0  0  0  0  0999 V2000
   36.3290   31.3090   40.6780 C   0  0  0  0  0  0  0  0  0  0  0  0
   37.2800   32.2660   40.2600 C   0  0  0  0  0  0  0  0  0  0  0  0
   38.6490   31.9610   40.4430 C   0  0  0  0  0  0  0  0  0  0  0  0
   38.9760   30.7700   41.0100 N   0  0  0  0  0  0  0  0  0  0  0  0
   38.0450   29.8880   41.3940 C   0  0  0  0  0  0  0  0  0  0  0  0
   36.7130   30.1500   41.2320 N   0  0  0  0  0  0  0  0  0  0  0  0
   35.2830   31.5470   40.5370 H   0  0  0  0  0  0  0  0  0  0  0  0
   36.9650   33.1980   39.8150 H   0  0  0  0  0  0  0  0  0  0  0  0
   38.4600   28.5960   42.0160 C   0  0  2  0  0  0  0  0  0  0  0  0
   38.6370   27.6480   40.8480 C   0  0  0  0  0  0  0  0  0  0  0  0
   37.5910   26.6410   40.6620 C   0  0  0  0  0  0  0  0  0  0  0  0
   37.4950   25.8930   41.9870 C   0  0  0  0  0  0  0  0  0  0  0  0
   37.0020   26.7680   43.0650 C   0  0  0  0  0  0  0  0  0  0  0  0
   37.5380   28.1530   43.0230 C   0  0  0  0  0  0  0  0  0  0  0  0
   39.4520   28.8080   42.4720 H   0  0  0  0  0  0  0  0  0  0  0  0
   38.7870   28.1780   39.8770 H   0  0  0  0  0  0  0  0  0  0  0  0
   39.6060   27.1130   41.0080 H   0  0  0  0  0  0  0  0  0  0  0  0
   37.9070   25.9260   39.9050 H   0  0  0  0  0  0  0  0  0  0  0  0
   36.5860   27.0850   40.4820 H   0  0  0  0  0  0  0  0  0  0  0  0
   36.7050   25.1460   41.8330 H   0  0  0  0  0  0  0  0  0  0  0  0
   38.4830   25.4610   42.2210 H   0  0  0  0  0  0  0  0  0  0  0  0
   36.3370   26.6470   43.8860 H   0  0  0  0  0  0  0  0  0  0  0  0
   37.1360   29.0980   44.0090 N   0  0  0  0  0  0  0  0  0  0  0  0
   36.1620   29.5020   43.8990 H   0  0  0  0  0  0  0  0  0  0  0  0
   37.8690   29.2760   44.7300 H   0  0  0  0  0  0  0  0  0  0  0  0
   39.6510   32.9260   40.0190 C   0  0  0  0  0  0  0  0  0  0  0  0
   39.5120   34.2160   40.4580 C   0  0  0  0  0  0  0  0  0  0  0  0
   40.5250   35.0990   40.0080 C   0  0  0  0  0  0  0  0  0  0  0  0
   41.5180   34.5660   39.1940 C   0  0  0  0  0  0  0  0  0  0  0  0
   41.6500   33.2820   38.7630 C   0  0  0  0  0  0  0  0  0  0  0  0
   40.6470   32.4610   39.2220 N   0  0  0  0  0  0  0  0  0  0  0  0
   38.6920   34.4810   41.0840 H   0  0  0  0  0  0  0  0  0  0  0  0
   40.4020   36.1120   40.3600 H   0  0  0  0  0  0  0  0  0  0  0  0
   42.1690   35.3930   38.9740 H   0  0  0  0  0  0  0  0  0  0  0  0
   42.6470   32.8490   37.9790 O   0  0  0  0  0  0  0  0  0  0  0  0
   45.4260   33.1690   37.4730 Cl  0  0  0  0  0  0  0  0  0  0  0  0
   44.2420   31.9500   36.9520 C   0  0  0  0  0  0  0  0  0  0  0  0
   42.8570   31.8090   37.2170 C   0  0  0  0  0  0  0  0  0  0  0  0
   42.3150   30.7100   36.6100 C   0  0  0  0  0  0  0  0  0  0  0  0
   41.2710   30.6310   36.8290 H   0  0  0  0  0  0  0  0  0  0  0  0
   42.9330   29.7800   35.8160 C   0  0  0  0  0  0  0  0  0  0  0  0
   42.3060   28.9870   35.4400 H   0  0  0  0  0  0  0  0  0  0  0  0
   44.2630   29.9700   35.6000 C   0  0  0  0  0  3  0  0  0  0  0  0
   44.9660   31.0460   36.1490 C   0  0  0  0  0  3  0  0  0  0  0  0
  1  6  1  0  0  0  0
  2  3  1  0  0  0  0
  2  1  2  0  0  0  0
  3  4  2  0  0  0  0
  4  5  1  0  0  0  0
  5  9  1  0  0  0  0
  6  5  2  0  0  0  0
  7  1  1  0  0  0  0
  8  2  1  0  0  0  0
  9 15  1  1  0  0  0
  9 14  1  0  0  0  0
 10 17  1  0  0  0  0
 10  9  1  0  0  0  0
 11 10  1  0  0  0  0
 11 12  1  0  0  0  0
 12 21  1  0  0  0  0
 12 13  1  0  0  0  0
 13 22  1  0  0  0  0
 14 13  2  0  0  0  0
 14 23  1  0  0  0  0
 16 10  1  0  0  0  0
 18 11  1  0  0  0  0
 19 11  1  0  0  0  0
 20 12  1  0  0  0  0
 23 25  1  0  0  0  0
 24 23  1  0  0  0  0
 26  3  1  0  0  0  0
 26 27  1  0  0  0  0
 27 32  1  0  0  0  0
 28 33  1  0  0  0  0
 28 27  2  0  0  0  0
 29 28  1  0  0  0  0
 30 29  2  0  0  0  0
 30 31  1  0  0  0  0
 31 26  2  0  0  0  0
 34 29  1  0  0  0  0
 35 30  1  0  0  0  0
 37 38  1  0  0  0  0
 37 36  1  0  0  0  0
 38 35  1  0  0  0  0
 39 40  1  0  0  0  0
 39 38  2  0  0  0  0
 41 39  1  0  0  0  0
 42 41  1  0  0  0  0
 43 41  2  0  0  0  0
 43 44  1  0  0  0  0
 44 37  2  0  0  0  0
M  END
>  <minimizedAffinity>
-6.84294081

$$$$

 OpenBabel03252505133D

 44 47  0  0  1  0  0  0  0  0999 V2000
   40.4170   33.4730   40.2650 C   0  0  0  0  0  0  0  0  0  0  0  0
   40.9280   32.4340   41.0740 C   0  0  0  0  0  0  0  0  0  0  0  0
   40.2410   31.1980   41.0760 C   0  0  0  0  0  0  0  0  0  0  0  0
   39.1290   31.0760   40.3040 N   0  0  0  0  0  0  0  0  0  0  0  0
   38.6740   32.0850   39.5500 C   0  0  0  0  0  0  0  0  0  0  0  0
   39.3140   33.2920   39.5240 N   0  0  0  0  0  0  0  0  0  0  0  0
   40.9460   34.4160   40.2680 H   0  0  0  0  0  0  0  0  0  0  0  0
   41.8170   32.5850   41.6690 H   0  0  0  0  0  0  0  0  0  0  0  0
   37.4440   31.8970   38.7240 C   0  0  2  0  0  0  0  0  0  0  0  0
   36.5930   30.9300   39.5210 C   0  0  0  0  0  0  0  0  0  0  0  0
   36.5280   29.5560   39.0220 C   0  0  0  0  0  0  0  0  0  0  0  0
   36.0590   29.6630   37.5740 C   0  0  0  0  0  0  0  0  0  0  0  0
   37.0640   30.3330   36.7310 C   0  0  0  0  0  0  0  0  0  0  0  0
   37.7450   31.4800   37.3850 C   0  0  0  0  0  0  0  0  0  0  0  0
   36.9560   32.8970   38.7140 H   0  0  0  0  0  0  0  0  0  0  0  0
   36.8690   30.8950   40.6020 H   0  0  0  0  0  0  0  0  0  0  0  0
   35.5530   31.3440   39.5280 H   0  0  0  0  0  0  0  0  0  0  0  0
   35.7670   29.0060   39.5710 H   0  0  0  0  0  0  0  0  0  0  0  0
   37.5210   29.0560   38.9900 H   0  0  0  0  0  0  0  0  0  0  0  0
   36.0200   28.6260   37.2130 H   0  0  0  0  0  0  0  0  0  0  0  0
   35.0860   30.1830   37.5550 H   0  0  0  0  0  0  0  0  0  0  0  0
   37.4310   30.1910   35.7420 H   0  0  0  0  0  0  0  0  0  0  0  0
   38.7400   32.2100   36.6750 N   0  0  0  0  0  0  0  0  0  0  0  0
   39.6850   31.7400   36.5790 H   0  0  0  0  0  0  0  0  0  0  0  0
   38.4030   33.1370   36.3320 H   0  0  0  0  0  0  0  0  0  0  0  0
   40.7460   30.1090   41.8960 C   0  0  0  0  0  0  0  0  0  0  0  0
   42.0360   30.2020   42.3480 C   0  0  0  0  0  0  0  0  0  0  0  0
   42.4580   29.1080   43.1420 C   0  0  0  0  0  0  0  0  0  0  0  0
   41.5370   28.0920   43.3660 C   0  0  0  0  0  0  0  0  0  0  0  0
   40.2570   28.0060   42.9150 C   0  0  0  0  0  0  0  0  0  0  0  0
   39.8880   29.0870   42.1490 N   0  0  0  0  0  0  0  0  0  0  0  0
   42.6290   31.0500   42.0940 H   0  0  0  0  0  0  0  0  0  0  0  0
   43.4760   29.1940   43.4900 H   0  0  0  0  0  0  0  0  0  0  0  0
   42.0560   27.3770   43.9790 H   0  0  0  0  0  0  0  0  0  0  0  0
   39.4290   26.9850   43.1820 O   0  0  0  0  0  0  0  0  0  0  0  0
   36.6020   27.2920   43.2300 Cl  0  0  0  0  0  0  0  0  0  0  0  0
   37.6630   26.0150   42.5930 C   0  0  0  0  0  0  0  0  0  0  0  0
   39.0740   25.8820   42.5810 C   0  0  0  0  0  0  0  0  0  0  0  0
   39.4870   24.7240   41.9810 C   0  0  0  0  0  0  0  0  0  0  0  0
   40.5550   24.6540   41.9870 H   0  0  0  0  0  0  0  0  0  0  0  0
   38.7260   23.7320   41.4230 C   0  0  0  0  0  0  0  0  0  0  0  0
   39.2680   22.9000   41.0010 H   0  0  0  0  0  0  0  0  0  0  0  0
   37.3790   23.9180   41.4650 C   0  0  0  0  0  3  0  0  0  0  0  0
   36.7960   25.0490   42.0440 C   0  0  0  0  0  3  0  0  0  0  0  0
  1  7  1  0  0  0  0
  1  2  1  0  0  0  0
  2  3  2  0  0  0  0
  2  8  1  0  0  0  0
  3 26  1  0  0  0  0
  4  3  1  0  0  0  0
  5  4  2  0  0  0  0
  6  5  1  0  0  0  0
  6  1  2  0  0  0  0
  9 15  1  6  0  0  0
  9 10  1  0  0  0  0
  9  5  1  0  0  0  0
 10 17  1  0  0  0  0
 10 16  1  0  0  0  0
 11 10  1  0  0  0  0
 11 18  1  0  0  0  0
 12 11  1  0  0  0  0
 13 14  2  0  0  0  0
 13 12  1  0  0  0  0
 14  9  1  0  0  0  0
 19 11  1  0  0  0  0
 20 12  1  0  0  0  0
 21 12  1  0  0  0  0
 22 13  1  0  0  0  0
 23 14  1  0  0  0  0
 24 23  1  0  0  0  0
 25 23  1  0  0  0  0
 26 31  2  0  0  0  0
 26 27  1  0  0  0  0
 27 28  2  0  0  0  0
 28 29  1  0  0  0  0
 28 33  1  0  0  0  0
 29 34  1  0  0  0  0
 30 35  1  0  0  0  0
 30 29  2  0  0  0  0
 31 30  1  0  0  0  0
 32 27  1  0  0  0  0
 37 36  1  0  0  0  0
 38 37  1  0  0  0  0
 38 35  1  0  0  0  0
 39 40  1  0  0  0  0
 39 38  2  0  0  0  0
 41 43  2  0  0  0  0
 41 39  1  0  0  0  0
 42 41  1  0  0  0  0
 43 44  1  0  0  0  0
 44 37  2  0  0  0  0
M  END
>  <minimizedAffinity>
-6.84212017

$$$$

 OpenBabel03252505133D

 44 47  0  0  1  0  0  0  0  0999 V2000
   37.3060   32.3590   39.5750 C   0  0  0  0  0  0  0  0  0  0  0  0
   36.9880   31.2380   40.3730 C   0  0  0  0  0  0  0  0  0  0  0  0
   38.0430   30.3730   40.7480 C   0  0  0  0  0  0  0  0  0  0  0  0
   39.3000   30.6640   40.3210 N   0  0  0  0  0  0  0  0  0  0  0  0
   39.5620   31.7370   39.5640 C   0  0  0  0  0  0  0  0  0  0  0  0
   38.5670   32.5940   39.1840 N   0  0  0  0  0  0  0  0  0  0  0  0
   36.4960   33.0170   39.2900 H   0  0  0  0  0  0  0  0  0  0  0  0
   35.9710   31.0530   40.6840 H   0  0  0  0  0  0  0  0  0  0  0  0
   40.9620   32.0070   39.1200 C   0  0  2  0  0  0  0  0  0  0  0  0
   41.6160   32.6850   40.3060 C   0  0  0  0  0  0  0  0  0  0  0  0
   41.8380   34.1270   40.1900 C   0  0  0  0  0  0  0  0  0  0  0  0
   42.6460   34.3200   38.9110 C   0  0  0  0  0  0  0  0  0  0  0  0
   41.8620   33.9540   37.7190 C   0  0  0  0  0  0  0  0  0  0  0  0
   41.0110   32.7480   37.8920 C   0  0  0  0  0  0  0  0  0  0  0  0
   41.4110   30.9990   38.9770 H   0  0  0  0  0  0  0  0  0  0  0  0
   41.0830   32.4900   41.2670 H   0  0  0  0  0  0  0  0  0  0  0  0
   42.6100   32.1940   40.4520 H   0  0  0  0  0  0  0  0  0  0  0  0
   42.4540   34.4660   41.0200 H   0  0  0  0  0  0  0  0  0  0  0  0
   40.8960   34.7030   40.0530 H   0  0  0  0  0  0  0  0  0  0  0  0
   42.8000   35.4060   38.8360 H   0  0  0  0  0  0  0  0  0  0  0  0
   43.5800   33.7380   38.9910 H   0  0  0  0  0  0  0  0  0  0  0  0
   41.7540   34.3530   36.7390 H   0  0  0  0  0  0  0  0  0  0  0  0
   40.2030   32.2910   36.8130 N   0  0  0  0  0  0  0  0  0  0  0  0
   39.3230   32.8490   36.6190 H   0  0  0  0  0  0  0  0  0  0  0  0
   40.5890   31.4450   36.3400 H   0  0  0  0  0  0  0  0  0  0  0  0
   37.7470   29.2120   41.5720 C   0  0  0  0  0  0  0  0  0  0  0  0
   36.4760   28.7030   41.5150 C   0  0  0  0  0  0  0  0  0  0  0  0
   36.2610   27.5730   42.3410 C   0  0  0  0  0  0  0  0  0  0  0  0
   37.3380   27.1220   43.0940 C   0  0  0  0  0  0  0  0  0  0  0  0
   38.5980   27.6310   43.1450 C   0  0  0  0  0  0  0  0  0  0  0  0
   38.7630   28.7260   42.3300 N   0  0  0  0  0  0  0  0  0  0  0  0
   35.7470   29.1590   40.8850 H   0  0  0  0  0  0  0  0  0  0  0  0
   35.2560   27.1840   42.2870 H   0  0  0  0  0  0  0  0  0  0  0  0
   36.9610   26.2730   43.6370 H   0  0  0  0  0  0  0  0  0  0  0  0
   39.5860   27.1290   43.9000 O   0  0  0  0  0  0  0  0  0  0  0  0
   39.9170   24.4210   43.0990 Cl  0  0  0  0  0  0  0  0  0  0  0  0
   41.0760   25.7280   43.4280 C   0  0  0  0  0  0  0  0  0  0  0  0
   40.8880   27.0750   43.8280 C   0  0  0  0  0  0  0  0  0  0  0  0
   42.0700   27.7500   43.9720 C   0  0  0  0  0  0  0  0  0  0  0  0
   41.8950   28.7610   44.2740 H   0  0  0  0  0  0  0  0  0  0  0  0
   43.3460   27.2890   43.7830 C   0  0  0  0  0  0  0  0  0  0  0  0
   44.1370   28.0020   43.9550 H   0  0  0  0  0  0  0  0  0  0  0  0
   43.4600   25.9890   43.3990 C   0  0  0  0  0  3  0  0  0  0  0  0
   42.3480   25.1630   43.2080 C   0  0  0  0  0  3  0  0  0  0  0  0
  1  2  1  0  0  0  0
  2  8  1  0  0  0  0
  2  3  2  0  0  0  0
  3 26  1  0  0  0  0
  4  3  1  0  0  0  0
  5  4  2  0  0  0  0
  6  5  1  0  0  0  0
  6  1  2  0  0  0  0
  7  1  1  0  0  0  0
  9 15  1  6  0  0  0
  9  5  1  0  0  0  0
  9 10  1  0  0  0  0
 10 17  1  0  0  0  0
 10 16  1  0  0  0  0
 11 10  1  0  0  0  0
 11 18  1  0  0  0  0
 12 21  1  0  0  0  0
 12 11  1  0  0  0  0
 13 14  2  0  0  0  0
 13 12  1  0  0  0  0
 14  9  1  0  0  0  0
 19 11  1  0  0  0  0
 20 12  1  0  0  0  0
 22 13  1  0  0  0  0
 23 14  1  0  0  0  0
 24 23  1  0  0  0  0
 25 23  1  0  0  0  0
 26 31  1  0  0  0  0
 27 26  2  0  0  0  0
 27 28  1  0  0  0  0
 28 29  2  0  0  0  0
 29 30  1  0  0  0  0
 29 34  1  0  0  0  0
 30 35  1  0  0  0  0
 31 30  2  0  0  0  0
 32 27  1  0  0  0  0
 33 28  1  0  0  0  0
 36 37  1  0  0  0  0
 37 38  1  0  0  0  0
 38 35  1  0  0  0  0
 38 39  2  0  0  0  0
 39 40  1  0  0  0  0
 41 42  1  0  0  0  0
 41 39  1  0  0  0  0
 43 41  2  0  0  0  0
 44 43  1  0  0  0  0
 44 37  2  0  0  0  0
M  END
>  <minimizedAffinity>
-6.78884363

$$$$

 OpenBabel03252505133D

 44 47  0  0  1  0  0  0  0  0999 V2000
   34.5670   28.1500   36.0100 C   0  0  0  0  0  0  0  0  0  0  0  0
   35.3340   28.4180   37.1650 C   0  0  0  0  0  0  0  0  0  0  0  0
   34.6880   29.0460   38.2560 C   0  0  0  0  0  0  0  0  0  0  0  0
   33.3710   29.3570   38.1350 N   0  0  0  0  0  0  0  0  0  0  0  0
   32.6770   29.0860   37.0220 C   0  0  0  0  0  0  0  0  0  0  0  0
   33.2700   28.4800   35.9500 N   0  0  0  0  0  0  0  0  0  0  0  0
   35.0660   27.6700   35.1790 H   0  0  0  0  0  0  0  0  0  0  0  0
   36.3790   28.1500   37.2090 H   0  0  0  0  0  0  0  0  0  0  0  0
   31.2320   29.4540   36.9420 C   0  0  2  0  0  0  0  0  0  0  0  0
   31.0900   30.1550   35.6070 C   0  0  0  0  0  0  0  0  0  0  0  0
   30.9380   31.6100   35.6480 C   0  0  0  0  0  0  0  0  0  0  0  0
   29.7430   31.8760   36.5580 C   0  0  0  0  0  0  0  0  0  0  0  0
   30.0250   31.4770   37.9480 C   0  0  0  0  0  0  0  0  0  0  0  0
   30.7990   30.2160   38.0780 C   0  0  0  0  0  0  0  0  0  0  0  0
   30.6950   28.4800   36.9060 H   0  0  0  0  0  0  0  0  0  0  0  0
   31.9150   29.9110   34.8970 H   0  0  0  0  0  0  0  0  0  0  0  0
   30.1820   29.7280   35.1120 H   0  0  0  0  0  0  0  0  0  0  0  0
   30.6810   31.9760   34.6570 H   0  0  0  0  0  0  0  0  0  0  0  0
   31.8060   32.1250   36.1170 H   0  0  0  0  0  0  0  0  0  0  0  0
   29.6450   32.9700   36.5820 H   0  0  0  0  0  0  0  0  0  0  0  0
   28.8620   31.3550   36.1460 H   0  0  0  0  0  0  0  0  0  0  0  0
   29.8040   31.8840   38.9060 H   0  0  0  0  0  0  0  0  0  0  0  0
   31.1380   29.7240   39.3700 N   0  0  0  0  0  0  0  0  0  0  0  0
   31.9270   30.2260   39.8690 H   0  0  0  0  0  0  0  0  0  0  0  0
   30.5530   28.9120   39.6660 H   0  0  0  0  0  0  0  0  0  0  0  0
   35.4510   29.3330   39.4610 C   0  0  0  0  0  0  0  0  0  0  0  0
   35.8250   30.6330   39.6780 C   0  0  0  0  0  0  0  0  0  0  0  0
   36.5620   30.8370   40.8700 C   0  0  0  0  0  0  0  0  0  0  0  0
   36.8140   29.7230   41.6620 C   0  0  0  0  0  0  0  0  0  0  0  0
   36.4390   28.4350   41.4390 C   0  0  0  0  0  0  0  0  0  0  0  0
   35.7270   28.2810   40.2730 N   0  0  0  0  0  0  0  0  0  0  0  0
   35.5570   31.3890   38.9770 H   0  0  0  0  0  0  0  0  0  0  0  0
   36.8510   31.8650   41.0280 H   0  0  0  0  0  0  0  0  0  0  0  0
   37.3760   30.0980   42.4980 H   0  0  0  0  0  0  0  0  0  0  0  0
   36.7210   27.4140   42.2620 O   0  0  0  0  0  0  0  0  0  0  0  0
   39.2660   27.8310   43.4590 Cl  0  0  0  0  0  0  0  0  0  0  0  0
   38.5020   26.4030   42.7260 C   0  0  0  0  0  0  0  0  0  0  0  0
   37.2280   26.2170   42.1320 C   0  0  0  0  0  0  0  0  0  0  0  0
   37.0390   24.9390   41.6840 C   0  0  0  0  0  0  0  0  0  0  0  0
   36.0700   24.8300   41.2430 H   0  0  0  0  0  0  0  0  0  0  0  0
   37.9010   23.8760   41.7440 C   0  0  0  0  0  0  0  0  0  0  0  0
   37.5400   22.9500   41.3250 H   0  0  0  0  0  0  0  0  0  0  0  0
   39.1070   24.1170   42.3250 C   0  0  0  0  0  3  0  0  0  0  0  0
   39.4560   25.3720   42.8330 C   0  0  0  0  0  3  0  0  0  0  0  0
  1  2  1  0  0  0  0
  2  8  1  0  0  0  0
  2  3  2  0  0  0  0
  3 26  1  0  0  0  0
  4  3  1  0  0  0  0
  5  4  2  0  0  0  0
  6  1  2  0  0  0  0
  6  5  1  0  0  0  0
  7  1  1  0  0  0  0
  9 15  1  6  0  0  0
  9  5  1  0  0  0  0
  9 14  1  0  0  0  0
 10 11  1  0  0  0  0
 10  9  1  0  0  0  0
 11 19  1  0  0  0  0
 11 12  1  0  0  0  0
 12 20  1  0  0  0  0
 12 13  1  0  0  0  0
 13 14  2  0  0  0  0
 13 22  1  0  0  0  0
 14 23  1  0  0  0  0
 16 10  1  0  0  0  0
 17 10  1  0  0  0  0
 18 11  1  0  0  0  0
 21 12  1  0  0  0  0
 23 25  1  0  0  0  0
 23 24  1  0  0  0  0
 26 27  2  0  0  0  0
 26 31  1  0  0  0  0
 27 28  1  0  0  0  0
 28 33  1  0  0  0  0
 28 29  2  0  0  0  0
 29 34  1  0  0  0  0
 30 29  1  0  0  0  0
 30 35  1  0  0  0  0
 31 30  2  0  0  0  0
 32 27  1  0  0  0  0
 37 44  1  0  0  0  0
 37 36  1  0  0  0  0
 38 35  1  0  0  0  0
 38 37  2  0  0  0  0
 39 41  2  0  0  0  0
 39 38  1  0  0  0  0
 40 39  1  0  0  0  0
 41 43  1  0  0  0  0
 42 41  1  0  0  0  0
 43 44  2  0  0  0  0
M  END
>  <minimizedAffinity>
-6.7664175

$$$$

 OpenBabel03252505133D

 44 47  0  0  1  0  0  0  0  0999 V2000
   38.4600   34.8380   40.3300 C   0  0  0  0  0  0  0  0  0  0  0  0
   37.8830   33.6420   39.8500 C   0  0  0  0  0  0  0  0  0  0  0  0
   38.7250   32.7270   39.1750 C   0  0  0  0  0  0  0  0  0  0  0  0
   40.0370   33.0470   39.0230 N   0  0  0  0  0  0  0  0  0  0  0  0
   40.5470   34.1930   39.4930 C   0  0  0  0  0  0  0  0  0  0  0  0
   39.7620   35.0980   40.1500 N   0  0  0  0  0  0  0  0  0  0  0  0
   37.8110   35.5350   40.8460 H   0  0  0  0  0  0  0  0  0  0  0  0
   36.8330   33.4370   39.9980 H   0  0  0  0  0  0  0  0  0  0  0  0
   41.9950   34.4960   39.2940 C   0  0  2  0  0  0  0  0  0  0  0  0
   42.2580   34.1680   37.8390 C   0  0  0  0  0  0  0  0  0  0  0  0
   42.9980   32.9340   37.5720 C   0  0  0  0  0  0  0  0  0  0  0  0
   44.2930   33.0470   38.3700 C   0  0  0  0  0  0  0  0  0  0  0  0
   44.0340   33.0360   39.8210 C   0  0  0  0  0  0  0  0  0  0  0  0
   42.8310   33.8040   40.2330 C   0  0  0  0  0  0  0  0  0  0  0  0
   42.0770   35.5950   39.4450 H   0  0  0  0  0  0  0  0  0  0  0  0
   41.3290   34.1570   37.2200 H   0  0  0  0  0  0  0  0  0  0  0  0
   42.8470   35.0200   37.4160 H   0  0  0  0  0  0  0  0  0  0  0  0
   43.2660   32.8920   36.5190 H   0  0  0  0  0  0  0  0  0  0  0  0
   42.4790   32.0250   37.9500 H   0  0  0  0  0  0  0  0  0  0  0  0
   44.8340   32.1120   38.1640 H   0  0  0  0  0  0  0  0  0  0  0  0
   44.8280   33.9560   38.0490 H   0  0  0  0  0  0  0  0  0  0  0  0
   44.5120   32.6020   40.6660 H   0  0  0  0  0  0  0  0  0  0  0  0
   42.4710   33.8700   41.6090 N   0  0  0  0  0  0  0  0  0  0  0  0
   42.0220   33.0010   42.0160 H   0  0  0  0  0  0  0  0  0  0  0  0
   42.7010   34.7870   42.0500 H   0  0  0  0  0  0  0  0  0  0  0  0
   38.1600   31.4840   38.6730 C   0  0  0  0  0  0  0  0  0  0  0  0
   37.6770   31.4820   37.3910 C   0  0  0  0  0  0  0  0  0  0  0  0
   37.1450   30.2390   36.9690 C   0  0  0  0  0  0  0  0  0  0  0  0
   37.1750   29.1920   37.8810 C   0  0  0  0  0  0  0  0  0  0  0  0
   37.6580   29.2010   39.1530 C   0  0  0  0  0  0  0  0  0  0  0  0
   38.1640   30.4250   39.5220 N   0  0  0  0  0  0  0  0  0  0  0  0
   37.7220   32.3700   36.8030 H   0  0  0  0  0  0  0  0  0  0  0  0
   36.7670   30.2520   35.9580 H   0  0  0  0  0  0  0  0  0  0  0  0
   36.7310   28.3600   37.3640 H   0  0  0  0  0  0  0  0  0  0  0  0
   37.6520   28.1380   39.9700 O   0  0  0  0  0  0  0  0  0  0  0  0
   40.3050   27.6200   40.8550 Cl  0  0  0  0  0  0  0  0  0  0  0  0
   38.7420   27.6710   41.7020 C   0  0  0  0  0  0  0  0  0  0  0  0
   37.4280   27.9310   41.2400 C   0  0  0  0  0  0  0  0  0  0  0  0
   36.4970   27.8690   42.2400 C   0  0  0  0  0  0  0  0  0  0  0  0
   35.5180   28.0700   41.8600 H   0  0  0  0  0  0  0  0  0  0  0  0
   36.6880   27.5960   43.5690 C   0  0  0  0  0  0  0  0  0  0  0  0
   35.8020   27.6000   44.1850 H   0  0  0  0  0  0  0  0  0  0  0  0
   37.9710   27.3550   43.9510 C   0  0  0  0  0  3  0  0  0  0  0  0
   39.0390   27.3810   43.0500 C   0  0  0  0  0  3  0  0  0  0  0  0
  1  7  1  0  0  0  0
  2  8  1  0  0  0  0
  2  1  2  0  0  0  0
  3  2  1  0  0  0  0
  4  3  2  0  0  0  0
  4  5  1  0  0  0  0
  5  6  2  0  0  0  0
  6  1  1  0  0  0  0
  9 15  1  1  0  0  0
  9  5  1  0  0  0  0
  9 14  1  0  0  0  0
 10  9  1  0  0  0  0
 11 10  1  0  0  0  0
 11 19  1  0  0  0  0
 11 12  1  0  0  0  0
 12 13  1  0  0  0  0
 13 14  2  0  0  0  0
 13 22  1  0  0  0  0
 14 23  1  0  0  0  0
 16 10  1  0  0  0  0
 17 10  1  0  0  0  0
 18 11  1  0  0  0  0
 20 12  1  0  0  0  0
 21 12  1  0  0  0  0
 23 24  1  0  0  0  0
 23 25  1  0  0  0  0
 26  3  1  0  0  0  0
 26 31  1  0  0  0  0
 27 26  2  0  0  0  0
 28 27  1  0  0  0  0
 28 29  2  0  0  0  0
 29 30  1  0  0  0  0
 30 31  2  0  0  0  0
 30 35  1  0  0  0  0
 32 27  1  0  0  0  0
 33 28  1  0  0  0  0
 34 29  1  0  0  0  0
 35 38  1  0  0  0  0
 36 37  1  0  0  0  0
 37 44  1  0  0  0  0
 38 37  2  0  0  0  0
 38 39  1  0  0  0  0
 39 41  2  0  0  0  0
 40 39  1  0  0  0  0
 41 43  1  0  0  0  0
 41 42  1  0  0  0  0
 44 43  2  0  0  0  0
M  END
>  <minimizedAffinity>
-6.7397809

$$$$

 OpenBabel03252505133D

 44 47  0  0  1  0  0  0  0  0999 V2000
   37.2940   29.6350   38.2800 C   0  0  0  0  0  0  0  0  0  0  0  0
   37.7100   30.9710   38.4660 C   0  0  0  0  0  0  0  0  0  0  0  0
   38.3610   31.2990   39.6790 C   0  0  0  0  0  0  0  0  0  0  0  0
   38.5480   30.3150   40.5970 N   0  0  0  0  0  0  0  0  0  0  0  0
   38.1390   29.0580   40.3850 C   0  0  0  0  0  0  0  0  0  0  0  0
   37.5080   28.7070   39.2240 N   0  0  0  0  0  0  0  0  0  0  0  0
   36.7970   29.3890   37.3510 H   0  0  0  0  0  0  0  0  0  0  0  0
   37.5360   31.7150   37.7020 H   0  0  0  0  0  0  0  0  0  0  0  0
   38.3670   28.0180   41.4310 C   0  0  2  0  0  0  0  0  0  0  0  0
   38.3760   26.7070   40.6710 C   0  0  0  0  0  0  0  0  0  0  0  0
   37.1880   25.8650   40.8110 C   0  0  0  0  0  0  0  0  0  0  0  0
   37.0070   25.6490   42.3100 C   0  0  0  0  0  0  0  0  0  0  0  0
   36.6710   26.9070   42.9980 C   0  0  0  0  0  0  0  0  0  0  0  0
   37.4090   28.0960   42.4960 C   0  0  0  0  0  0  0  0  0  0  0  0
   39.3890   28.2270   41.8180 H   0  0  0  0  0  0  0  0  0  0  0  0
   38.5860   26.8370   39.5830 H   0  0  0  0  0  0  0  0  0  0  0  0
   39.2570   26.1240   41.0420 H   0  0  0  0  0  0  0  0  0  0  0  0
   37.3780   24.8930   40.3610 H   0  0  0  0  0  0  0  0  0  0  0  0
   36.2580   26.3610   40.4540 H   0  0  0  0  0  0  0  0  0  0  0  0
   36.1100   25.0200   42.3980 H   0  0  0  0  0  0  0  0  0  0  0  0
   37.9220   25.1850   42.7130 H   0  0  0  0  0  0  0  0  0  0  0  0
   36.0110   27.1790   43.7870 H   0  0  0  0  0  0  0  0  0  0  0  0
   37.1720   29.3730   43.0780 N   0  0  0  0  0  0  0  0  0  0  0  0
   36.2690   29.8530   42.8010 H   0  0  0  0  0  0  0  0  0  0  0  0
   37.9380   29.6810   43.7170 H   0  0  0  0  0  0  0  0  0  0  0  0
   38.8030   32.6670   39.8970 C   0  0  0  0  0  0  0  0  0  0  0  0
   37.8570   33.6560   39.8350 C   0  0  0  0  0  0  0  0  0  0  0  0
   38.3600   34.9610   40.0600 C   0  0  0  0  0  0  0  0  0  0  0  0
   39.7210   35.0840   40.3120 C   0  0  0  0  0  0  0  0  0  0  0  0
   40.6550   34.0970   40.3730 C   0  0  0  0  0  0  0  0  0  0  0  0
   40.1250   32.8480   40.1490 N   0  0  0  0  0  0  0  0  0  0  0  0
   36.8410   33.4090   39.6310 H   0  0  0  0  0  0  0  0  0  0  0  0
   37.6040   35.7300   40.0070 H   0  0  0  0  0  0  0  0  0  0  0  0
   39.8830   36.1370   40.4500 H   0  0  0  0  0  0  0  0  0  0  0  0
   41.9550   34.3030   40.6280 O   0  0  0  0  0  0  0  0  0  0  0  0
   43.8270   34.7780   42.7150 Cl  0  0  0  0  0  0  0  0  0  0  0  0
   44.0200   34.4390   40.9800 C   0  0  0  0  0  0  0  0  0  0  0  0
   43.0700   34.2060   39.9550 C   0  0  0  0  0  0  0  0  0  0  0  0
   43.6540   33.9830   38.7380 C   0  0  0  0  0  0  0  0  0  0  0  0
   42.9120   33.8100   37.9870 H   0  0  0  0  0  0  0  0  0  0  0  0
   44.9860   33.9640   38.4200 C   0  0  0  0  0  0  0  0  0  0  0  0
   45.2240   33.7670   37.3870 H   0  0  0  0  0  0  0  0  0  0  0  0
   45.8480   34.1950   39.4480 C   0  0  0  0  0  3  0  0  0  0  0  0
   45.4110   34.4400   40.7520 C   0  0  0  0  0  3  0  0  0  0  0  0
  1  2  2  0  0  0  0
  1  6  1  0  0  0  0
  2  3  1  0  0  0  0
  3 26  1  0  0  0  0
  3  4  2  0  0  0  0
  5  4  1  0  0  0  0
  5  9  1  0  0  0  0
  6  5  2  0  0  0  0
  7  1  1  0  0  0  0
  8  2  1  0  0  0  0
  9 15  1  1  0  0  0
  9 14  1  0  0  0  0
 10 11  1  0  0  0  0
 10 17  1  0  0  0  0
 10  9  1  0  0  0  0
 11 12  1  0  0  0  0
 12 20  1  0  0  0  0
 12 21  1  0  0  0  0
 12 13  1  0  0  0  0
 13 22  1  0  0  0  0
 14 13  2  0  0  0  0
 14 23  1  0  0  0  0
 16 10  1  0  0  0  0
 18 11  1  0  0  0  0
 19 11  1  0  0  0  0
 23 25  1  0  0  0  0
 24 23  1  0  0  0  0
 26 31  1  0  0  0  0
 27 26  2  0  0  0  0
 27 28  1  0  0  0  0
 28 29  2  0  0  0  0
 29 30  1  0  0  0  0
 29 34  1  0  0  0  0
 30 35  1  0  0  0  0
 31 30  2  0  0  0  0
 32 27  1  0  0  0  0
 33 28  1  0  0  0  0
 37 36  1  0  0  0  0
 38 35  1  0  0  0  0
 38 37  2  0  0  0  0
 39 38  1  0  0  0  0
 40 39  1  0  0  0  0
 41 39  2  0  0  0  0
 41 43  1  0  0  0  0
 42 41  1  0  0  0  0
 43 44  2  0  0  0  0
 44 37  1  0  0  0  0
M  END
>  <minimizedAffinity>
-6.72406864

$$$$

 OpenBabel03252505133D

 44 47  0  0  1  0  0  0  0  0999 V2000
   38.5660   34.2180   40.1630 C   0  0  0  0  0  0  0  0  0  0  0  0
   37.6830   33.1210   40.2700 C   0  0  0  0  0  0  0  0  0  0  0  0
   38.2310   31.8620   40.6090 C   0  0  0  0  0  0  0  0  0  0  0  0
   39.5720   31.7740   40.8110 N   0  0  0  0  0  0  0  0  0  0  0  0
   40.3780   32.8390   40.7000 C   0  0  0  0  0  0  0  0  0  0  0  0
   39.8810   34.0690   40.3740 N   0  0  0  0  0  0  0  0  0  0  0  0
   38.1410   35.1790   39.9030 H   0  0  0  0  0  0  0  0  0  0  0  0
   36.6240   33.2460   40.0980 H   0  0  0  0  0  0  0  0  0  0  0  0
   41.8450   32.6840   40.9290 C   0  0  2  0  0  0  0  0  0  0  0  0
   42.4270   32.4640   39.5480 C   0  0  0  0  0  0  0  0  0  0  0  0
   42.8450   31.0990   39.2270 C   0  0  0  0  0  0  0  0  0  0  0  0
   43.8250   30.6980   40.3250 C   0  0  0  0  0  0  0  0  0  0  0  0
   43.1570   30.5990   41.6340 C   0  0  0  0  0  0  0  0  0  0  0  0
   42.1430   31.6570   41.8850 C   0  0  0  0  0  0  0  0  0  0  0  0
   42.1750   33.6740   41.3150 H   0  0  0  0  0  0  0  0  0  0  0  0
   41.7570   32.8240   38.7310 H   0  0  0  0  0  0  0  0  0  0  0  0
   43.3240   33.1280   39.4650 H   0  0  0  0  0  0  0  0  0  0  0  0
   43.3910   31.0990   38.2860 H   0  0  0  0  0  0  0  0  0  0  0  0
   42.0100   30.3660   39.2730 H   0  0  0  0  0  0  0  0  0  0  0  0
   44.1260   29.6710   40.0730 H   0  0  0  0  0  0  0  0  0  0  0  0
   44.6590   31.4200   40.3360 H   0  0  0  0  0  0  0  0  0  0  0  0
   43.2250   29.9380   42.4650 H   0  0  0  0  0  0  0  0  0  0  0  0
   41.4250   31.6710   43.1130 N   0  0  0  0  0  0  0  0  0  0  0  0
   40.6550   30.9490   43.2130 H   0  0  0  0  0  0  0  0  0  0  0  0
   41.7550   32.4080   43.7740 H   0  0  0  0  0  0  0  0  0  0  0  0
   37.3470   30.7140   40.7300 C   0  0  0  0  0  0  0  0  0  0  0  0
   36.2230   30.6960   39.9460 C   0  0  0  0  0  0  0  0  0  0  0  0
   35.4110   29.5480   40.1150 C   0  0  0  0  0  0  0  0  0  0  0  0
   35.8370   28.5970   41.0330 C   0  0  0  0  0  0  0  0  0  0  0  0
   36.9550   28.6210   41.8080 C   0  0  0  0  0  0  0  0  0  0  0  0
   37.7140   29.7510   41.6130 N   0  0  0  0  0  0  0  0  0  0  0  0
   36.0240   31.5050   39.2810 H   0  0  0  0  0  0  0  0  0  0  0  0
   34.5290   29.5480   39.4920 H   0  0  0  0  0  0  0  0  0  0  0  0
   35.0880   27.8260   41.0030 H   0  0  0  0  0  0  0  0  0  0  0  0
   37.2970   27.6530   42.6710 O   0  0  0  0  0  0  0  0  0  0  0  0
   36.8430   25.0760   41.5580 Cl  0  0  0  0  0  0  0  0  0  0  0  0
   38.1980   25.7670   42.4770 C   0  0  0  0  0  0  0  0  0  0  0  0
   38.4040   27.0580   43.0240 C   0  0  0  0  0  0  0  0  0  0  0  0
   39.6060   27.1700   43.6670 C   0  0  0  0  0  0  0  0  0  0  0  0
   39.7320   28.1550   44.0680 H   0  0  0  0  0  0  0  0  0  0  0  0
   40.5800   26.2210   43.8320 C   0  0  0  0  0  0  0  0  0  0  0  0
   41.4560   26.5310   44.3790 H   0  0  0  0  0  0  0  0  0  0  0  0
   40.3230   25.0020   43.2840 C   0  0  0  0  0  3  0  0  0  0  0  0
   39.1400   24.7250   42.5930 C   0  0  0  0  0  3  0  0  0  0  0  0
  1  2  2  0  0  0  0
  1  6  1  0  0  0  0
  2  3  1  0  0  0  0
  3 26  1  0  0  0  0
  3  4  2  0  0  0  0
  5  4  1  0  0  0  0
  5  9  1  0  0  0  0
  6  5  2  0  0  0  0
  7  1  1  0  0  0  0
  8  2  1  0  0  0  0
  9 15  1  1  0  0  0
  9 14  1  0  0  0  0
 10  9  1  0  0  0  0
 11 19  1  0  0  0  0
 11 10  1  0  0  0  0
 11 12  1  0  0  0  0
 12 21  1  0  0  0  0
 12 13  1  0  0  0  0
 13 14  2  0  0  0  0
 13 22  1  0  0  0  0
 14 23  1  0  0  0  0
 16 10  1  0  0  0  0
 17 10  1  0  0  0  0
 18 11  1  0  0  0  0
 20 12  1  0  0  0  0
 23 24  1  0  0  0  0
 23 25  1  0  0  0  0
 26 31  1  0  0  0  0
 27 28  1  0  0  0  0
 27 26  2  0  0  0  0
 28 29  2  0  0  0  0
 29 30  1  0  0  0  0
 30 35  1  0  0  0  0
 31 30  2  0  0  0  0
 32 27  1  0  0  0  0
 33 28  1  0  0  0  0
 34 29  1  0  0  0  0
 35 38  1  0  0  0  0
 36 37  1  0  0  0  0
 37 44  2  0  0  0  0
 37 38  1  0  0  0  0
 38 39  2  0  0  0  0
 39 41  1  0  0  0  0
 39 40  1  0  0  0  0
 41 42  1  0  0  0  0
 43 41  2  0  0  0  0
 44 43  1  0  0  0  0
M  END
>  <minimizedAffinity>
-6.65972757

$$$$
