
 OpenBabel03252505113D

 44 47  0  0  1  0  0  0  0  0999 V2000
   44.5770   35.5820   44.5940 C   0  0  0  0  0  0  0  0  0  0  0  0
   45.2410   35.5940   43.3480 C   0  0  0  0  0  0  0  0  0  0  0  0
   46.3230   34.7000   43.1660 C   0  0  0  0  0  0  0  0  0  0  0  0
   46.6650   33.8830   44.1960 N   0  0  0  0  0  0  0  0  0  0  0  0
   46.0110   33.9010   45.3640 C   0  0  0  0  0  0  0  0  0  0  0  0
   44.9620   34.7510   45.5730 N   0  0  0  0  0  0  0  0  0  0  0  0
   43.7510   36.2670   44.7280 H   0  0  0  0  0  0  0  0  0  0  0  0
   44.9270   36.2650   42.5620 H   0  0  0  0  0  0  0  0  0  0  0  0
   46.4330   32.9840   46.4640 C   0  0  2  0  0  0  0  0  0  0  0  0
   46.9490   31.7490   45.7550 C   0  0  0  0  0  0  0  0  0  0  0  0
   46.0830   30.5700   45.7870 C   0  0  0  0  0  0  0  0  0  0  0  0
   45.8040   30.3000   47.2610 C   0  0  0  0  0  0  0  0  0  0  0  0
   45.0060   31.3820   47.8650 C   0  0  0  0  0  0  0  0  0  0  0  0
   45.3810   32.7460   47.4100 C   0  0  0  0  0  0  0  0  0  0  0  0
   47.2820   33.5070   46.9580 H   0  0  0  0  0  0  0  0  0  0  0  0
   47.2340   31.9430   44.6940 H   0  0  0  0  0  0  0  0  0  0  0  0
   47.9190   31.4770   46.2430 H   0  0  0  0  0  0  0  0  0  0  0  0
   46.6250   29.7110   45.3950 H   0  0  0  0  0  0  0  0  0  0  0  0
   45.0930   30.7440   45.3100 H   0  0  0  0  0  0  0  0  0  0  0  0
   45.1500   29.4170   47.2680 H   0  0  0  0  0  0  0  0  0  0  0  0
   46.7650   30.1510   47.7820 H   0  0  0  0  0  0  0  0  0  0  0  0
   44.2050   31.4250   48.5640 H   0  0  0  0  0  0  0  0  0  0  0  0
   44.6830   33.8780   47.9180 N   0  0  0  0  0  0  0  0  0  0  0  0
   43.7130   34.0440   47.5240 H   0  0  0  0  0  0  0  0  0  0  0  0
   45.2290   34.4120   48.6290 H   0  0  0  0  0  0  0  0  0  0  0  0
   47.0240   34.6870   41.8920 C   0  0  0  0  0  0  0  0  0  0  0  0
   48.1700   35.4310   41.7930 C   0  0  0  0  0  0  0  0  0  0  0  0
   48.7990   35.3690   40.5250 C   0  0  0  0  0  0  0  0  0  0  0  0
   48.1960   34.5800   39.5530 C   0  0  0  0  0  0  0  0  0  0  0  0
   47.0570   33.8430   39.6590 C   0  0  0  0  0  0  0  0  0  0  0  0
   46.4790   33.9320   40.9030 N   0  0  0  0  0  0  0  0  0  0  0  0
   48.5160   35.9920   42.6300 H   0  0  0  0  0  0  0  0  0  0  0  0
   49.7000   35.9610   40.4610 H   0  0  0  0  0  0  0  0  0  0  0  0
   48.8270   34.6760   38.6880 H   0  0  0  0  0  0  0  0  0  0  0  0
   46.5430   33.1020   38.6670 O   0  0  0  0  0  0  0  0  0  0  0  0
   43.9800   32.5040   37.5910 Cl  0  0  0  0  0  0  0  0  0  0  0  0
   45.6090   32.5180   36.8800 C   0  0  0  0  0  0  0  0  0  0  0  0
   46.8770   32.8190   37.4370 C   0  0  0  0  0  0  0  0  0  0  0  0
   47.8910   32.7040   36.5260 C   0  0  0  0  0  0  0  0  0  0  0  0
   48.8340   32.9380   36.9760 H   0  0  0  0  0  0  0  0  0  0  0  0
   47.8180   32.3470   35.2060 C   0  0  0  0  0  0  0  0  0  0  0  0
   48.7540   32.3210   34.6700 H   0  0  0  0  0  0  0  0  0  0  0  0
   46.5730   32.0700   34.7310 C   0  0  0  0  0  0  0  0  0  0  0  0
   45.4320   32.1410   35.5340 C   0  0  0  0  0  0  0  0  0  0  0  0
  1  7  1  0  0  0  0
  1  6  1  0  0  0  0
  2  1  2  0  0  0  0
  3  2  1  0  0  0  0
  3  4  2  0  0  0  0
  4  5  1  0  0  0  0
  5  6  2  0  0  0  0
  5  9  1  0  0  0  0
  8  2  1  0  0  0  0
  9 15  1  1  0  0  0
  9 14  1  0  0  0  0
 10 11  1  0  0  0  0
 10 17  1  0  0  0  0
 10  9  1  0  0  0  0
 11 12  1  0  0  0  0
 12 20  1  0  0  0  0
 12 21  1  0  0  0  0
 12 13  1  0  0  0  0
 13 22  1  0  0  0  0
 14 13  2  0  0  0  0
 14 23  1  0  0  0  0
 16 10  1  0  0  0  0
 18 11  1  0  0  0  0
 19 11  1  0  0  0  0
 23 25  1  0  0  0  0
 24 23  1  0  0  0  0
 26  3  1  0  0  0  0
 27 26  1  0  0  0  0
 27 32  1  0  0  0  0
 28 27  2  0  0  0  0
 29 30  2  0  0  0  0
 29 28  1  0  0  0  0
 30 31  1  0  0  0  0
 31 26  2  0  0  0  0
 33 28  1  0  0  0  0
 34 29  1  0  0  0  0
 35 30  1  0  0  0  0
 37 38  1  0  0  0  0
 37 36  1  0  0  0  0
 38 35  1  0  0  0  0
 39 40  1  0  0  0  0
 39 38  2  0  0  0  0
 41 39  1  0  0  0  0
 42 41  1  0  0  0  0
 43 41  2  0  0  0  0
 43 44  1  0  0  0  0
 44 37  2  0  0  0  0
M  END
>  <minimizedAffinity>
-7.45949411

>  <minimizedRMSD>
0.152378917

$$$$
