
 OpenBabel03252504583D

 37 39  0  0  1  0  0  0  0  0999 V2000
   47.8740   33.9720   42.0060 N   0  0  0  0  0  0  0  0  0  0  0  0
   47.8560   34.8870   40.9290 C   0  0  0  0  0  0  0  0  0  0  0  0
   49.0140   35.7620   41.2300 C   0  0  0  0  0  0  0  0  0  0  0  0
   49.6890   35.2480   42.4970 C   0  0  0  0  0  0  0  0  0  0  0  0
   49.1520   33.8100   42.5640 C   0  0  2  0  0  0  0  0  0  0  0  0
   47.3160   35.1160   40.0500 H   0  0  0  0  0  0  0  0  0  0  0  0
   49.4110   36.6150   40.7000 H   0  0  0  0  0  0  0  0  0  0  0  0
   50.7750   35.2420   42.2750 H   0  0  0  0  0  0  0  0  0  0  0  0
   49.3890   35.8420   43.3630 H   0  0  0  0  0  0  0  0  0  0  0  0
   49.1280   33.3840   43.5650 H   0  0  0  0  0  0  0  0  0  0  0  0
   46.7040   33.3830   42.4160 C   0  0  0  0  0  0  0  0  0  0  0  0
   46.9430   32.3280   42.7190 H   0  0  0  0  0  0  0  0  0  0  0  0
   45.9540   33.2140   41.6100 H   0  0  0  0  0  0  0  0  0  0  0  0
   44.5920   35.8020   44.4220 C   0  0  0  0  0  0  0  0  0  0  0  0
   45.2680   35.2410   43.2950 C   0  0  0  0  0  0  0  0  0  0  0  0
   46.0000   34.0680   43.4770 C   0  0  0  0  0  0  0  0  0  0  0  0
   46.0230   33.5340   44.7240 N   0  0  0  0  0  0  0  0  0  0  0  0
   45.3640   34.0910   45.7980 C   0  0  0  0  0  0  0  0  0  0  0  0
   44.6570   35.2120   45.6460 N   0  0  0  0  0  0  0  0  0  0  0  0
   44.0290   36.7070   44.2730 H   0  0  0  0  0  0  0  0  0  0  0  0
   45.2270   35.6900   42.3360 H   0  0  0  0  0  0  0  0  0  0  0  0
   45.4740   33.5500   46.7310 H   0  0  0  0  0  0  0  0  0  0  0  0
   49.9030   33.0760   41.6350 O   0  0  0  0  0  0  0  0  0  0  0  0
   49.2780   30.9530   43.1170 O   0  0  0  0  0  0  0  0  0  0  0  0
   50.2590   31.5110   42.1070 P   0  0  2  0  0  0  0  0  0  0  0  0
   51.7790   31.5710   42.9000 O   0  0  0  0  0  0  0  0  0  0  0  0
   51.7710   32.3340   43.5250 H   0  0  0  0  0  0  0  0  0  0  0  0
   50.4800   30.4930   40.7920 O   0  0  0  0  0  0  0  0  0  0  0  0
   47.8350   28.7760   40.7700 Cl  0  0  0  0  0  0  0  0  0  0  0  0
   49.4490   28.1380   40.8410 C   0  0  0  0  0  0  0  0  0  0  0  0
   50.3970   29.1320   40.8360 C   0  0  0  0  0  0  0  0  0  0  0  0
   51.7310   28.6860   40.8920 C   0  0  0  0  0  0  0  0  0  0  0  0
   52.6890   29.2360   40.9030 H   0  0  0  0  0  0  0  0  0  0  0  0
   52.0560   27.3220   40.9490 C   0  0  0  0  0  0  0  0  0  0  0  0
   53.0380   26.8750   40.9950 H   0  0  0  0  0  0  0  0  0  0  0  0
   51.0530   26.3750   40.9500 C   0  0  0  0  0  3  0  0  0  0  0  0
   49.7420   26.7970   40.8960 C   0  0  0  0  0  3  0  0  0  0  0  0
  1 11  1  0  0  0  0
  1  5  1  0  0  0  0
  2  3  2  0  0  0  0
  2  1  1  0  0  0  0
  3  4  1  0  0  0  0
  4  5  1  0  0  0  0
  4  9  1  0  0  0  0
  5 10  1  1  0  0  0
  6  2  1  0  0  0  0
  7  3  1  0  0  0  0
  8  4  1  0  0  0  0
 11 12  1  0  0  0  0
 11 16  1  0  0  0  0
 13 11  1  0  0  0  0
 14 19  1  0  0  0  0
 15 16  1  0  0  0  0
 15 14  2  0  0  0  0
 16 17  2  0  0  0  0
 17 18  1  0  0  0  0
 18 22  1  0  0  0  0
 19 18  2  0  0  0  0
 20 14  1  0  0  0  0
 21 15  1  0  0  0  0
 23 25  1  0  0  0  0
 23  5  1  0  0  0  0
 25 26  1  0  0  0  0
 25 24  2  1  0  0  0
 26 27  1  0  0  0  0
 28 31  1  0  0  0  0
 28 25  1  0  0  0  0
 29 30  1  0  0  0  0
 30 37  1  0  0  0  0
 31 30  2  0  0  0  0
 31 32  1  0  0  0  0
 32 33  1  0  0  0  0
 32 34  2  0  0  0  0
 34 36  1  0  0  0  0
 34 35  1  0  0  0  0
 37 36  2  0  0  0  0
M  END
>  <minimizedAffinity>
-4.47960758

>  <minimizedRMSD>
0.357989579

$$$$
