
 OpenBabel03252504573D

 37 39  0  0  1  0  0  0  0  0999 V2000
   47.8750   33.9720   42.0100 N   0  0  0  0  0  0  0  0  0  0  0  0
   47.8540   34.8860   40.9330 C   0  0  0  0  0  0  0  0  0  0  0  0
   49.0100   35.7640   41.2320 C   0  0  0  0  0  0  0  0  0  0  0  0
   49.6880   35.2530   42.4990 C   0  0  0  0  0  0  0  0  0  0  0  0
   49.1550   33.8130   42.5660 C   0  0  2  0  0  0  0  0  0  0  0  0
   47.3120   35.1140   40.0550 H   0  0  0  0  0  0  0  0  0  0  0  0
   49.4040   36.6180   40.7010 H   0  0  0  0  0  0  0  0  0  0  0  0
   50.7740   35.2490   42.2740 H   0  0  0  0  0  0  0  0  0  0  0  0
   49.3890   35.8450   43.3640 H   0  0  0  0  0  0  0  0  0  0  0  0
   49.1330   33.3870   43.5670 H   0  0  0  0  0  0  0  0  0  0  0  0
   46.7080   33.3800   42.4230 C   0  0  0  0  0  0  0  0  0  0  0  0
   46.9510   32.3260   42.7280 H   0  0  0  0  0  0  0  0  0  0  0  0
   45.9580   33.2080   41.6170 H   0  0  0  0  0  0  0  0  0  0  0  0
   44.5930   35.7990   44.4260 C   0  0  0  0  0  0  0  0  0  0  0  0
   45.2700   35.2370   43.2990 C   0  0  0  0  0  0  0  0  0  0  0  0
   46.0020   34.0650   43.4830 C   0  0  0  0  0  0  0  0  0  0  0  0
   46.0250   33.5310   44.7290 N   0  0  0  0  0  0  0  0  0  0  0  0
   45.3640   34.0890   45.8030 C   0  0  0  0  0  0  0  0  0  0  0  0
   44.6580   35.2090   45.6510 N   0  0  0  0  0  0  0  0  0  0  0  0
   44.0290   36.7030   44.2760 H   0  0  0  0  0  0  0  0  0  0  0  0
   45.2290   35.6860   42.3410 H   0  0  0  0  0  0  0  0  0  0  0  0
   45.4750   33.5480   46.7370 H   0  0  0  0  0  0  0  0  0  0  0  0
   49.9060   33.0800   41.6360 O   0  0  0  0  0  0  0  0  0  0  0  0
   49.2760   30.9520   43.1080 O   0  0  0  0  0  0  0  0  0  0  0  0
   50.2620   31.5140   42.1050 P   0  0  2  0  0  0  0  0  0  0  0  0
   51.7770   31.5750   42.9080 O   0  0  0  0  0  0  0  0  0  0  0  0
   51.7650   32.3360   43.5340 H   0  0  0  0  0  0  0  0  0  0  0  0
   50.4920   30.5010   40.7890 O   0  0  0  0  0  0  0  0  0  0  0  0
   48.5460   28.1030   41.4230 Cl  0  0  0  0  0  0  0  0  0  0  0  0
   50.2500   27.9620   41.1150 C   0  0  0  0  0  0  0  0  0  0  0  0
   50.8310   29.1830   40.8690 C   0  0  0  0  0  0  0  0  0  0  0  0
   52.2140   29.1440   40.6100 C   0  0  0  0  0  0  0  0  0  0  0  0
   52.9410   29.9440   40.3840 H   0  0  0  0  0  0  0  0  0  0  0  0
   52.9350   27.9400   40.6050 C   0  0  0  0  0  0  0  0  0  0  0  0
   53.9900   27.7990   40.4190 H   0  0  0  0  0  0  0  0  0  0  0  0
   52.2890   26.7500   40.8600 C   0  0  0  0  0  3  0  0  0  0  0  0
   50.9340   26.7710   41.1140 C   0  0  0  0  0  3  0  0  0  0  0  0
  1 11  1  0  0  0  0
  1  5  1  0  0  0  0
  2  3  2  0  0  0  0
  2  1  1  0  0  0  0
  3  4  1  0  0  0  0
  4  5  1  0  0  0  0
  4  9  1  0  0  0  0
  5 10  1  1  0  0  0
  6  2  1  0  0  0  0
  7  3  1  0  0  0  0
  8  4  1  0  0  0  0
 11 12  1  0  0  0  0
 11 16  1  0  0  0  0
 13 11  1  0  0  0  0
 14 19  1  0  0  0  0
 15 16  1  0  0  0  0
 15 14  2  0  0  0  0
 16 17  2  0  0  0  0
 17 18  1  0  0  0  0
 18 22  1  0  0  0  0
 19 18  2  0  0  0  0
 20 14  1  0  0  0  0
 21 15  1  0  0  0  0
 23 25  1  0  0  0  0
 23  5  1  0  0  0  0
 25 26  1  0  0  0  0
 25 24  2  1  0  0  0
 26 27  1  0  0  0  0
 28 31  1  0  0  0  0
 28 25  1  0  0  0  0
 30 29  1  0  0  0  0
 31 30  2  0  0  0  0
 32 31  1  0  0  0  0
 33 32  1  0  0  0  0
 34 32  2  0  0  0  0
 34 36  1  0  0  0  0
 35 34  1  0  0  0  0
 36 37  2  0  0  0  0
 37 30  1  0  0  0  0
M  END
>  <minimizedAffinity>
-4.52725697

>  <minimizedRMSD>
0.307054162

$$$$
