
 OpenBabel03242512193D

 33 35  0  0  0  0  0  0  0  0999 V2000
   36.6510   29.3880   41.3040 C   0  0  0  0  0  0  0  0  0  0  0  0
   36.6480   30.2640   40.2400 C   0  0  0  0  0  0  0  0  0  0  0  0
   36.6550   29.7380   38.9560 C   0  0  0  0  0  0  0  0  0  0  0  0
   36.6660   28.3640   38.7810 C   0  0  0  0  0  0  0  0  0  0  0  0
   36.6690   27.5570   39.8740 C   0  0  0  0  0  0  0  0  0  0  0  0
   36.6620   28.0260   41.1870 C   0  0  0  0  0  0  0  0  0  0  0  0
   36.6520   30.4510   38.1330 H   0  0  0  0  0  0  0  0  0  0  0  0
   36.6720   27.9560   37.7820 H   0  0  0  0  0  0  0  0  0  0  0  0
   36.6790   26.4680   39.7300 H   0  0  0  0  0  0  0  0  0  0  0  0
   36.6370   31.7040   40.5740 C   0  0  0  0  0  0  0  0  0  0  0  0
   36.1130   32.2020   39.7100 H   0  0  0  0  0  0  0  0  0  0  0  0
   36.0810   31.9220   41.4650 H   0  0  0  0  0  0  0  0  0  0  0  0
   38.0490   32.2350   40.5690 C   0  0  0  0  0  0  0  0  0  0  0  0
   38.2670   33.4820   39.9640 C   0  0  0  0  0  0  0  0  0  0  0  0
   39.5640   33.9740   39.9680 C   0  0  0  0  0  0  0  0  0  0  0  0
   40.5330   33.2320   40.5480 N   0  0  0  0  0  0  0  0  0  0  0  0
   40.2930   32.0310   41.1250 C   0  0  0  0  0  0  0  0  0  0  0  0
   39.0530   31.5400   41.1310 N   0  0  0  0  0  0  0  0  0  0  0  0
   37.4420   34.0120   39.5230 H   0  0  0  0  0  0  0  0  0  0  0  0
   39.7920   34.9160   39.5240 H   0  0  0  0  0  0  0  0  0  0  0  0
   41.1490   31.5320   41.5560 H   0  0  0  0  0  0  0  0  0  0  0  0
   36.6450   29.8300   42.6500 O   0  0  0  0  0  0  0  0  0  0  0  0
   37.5620   29.8180   43.0910 H   0  0  0  0  0  0  0  0  0  0  0  0
   36.6630   27.1140   42.2240 O   0  0  0  0  0  0  0  0  0  0  0  0
   36.7510   24.2350   41.4310 Cl  0  0  0  0  0  0  0  0  0  0  0  0
   37.9620   25.1240   42.2920 C   0  0  0  0  0  0  0  0  0  0  0  0
   37.8140   26.4520   42.6040 C   0  0  0  0  0  0  0  0  0  0  0  0
   38.8260   27.0890   43.2930 C   0  0  0  0  0  0  0  0  0  0  0  0
   38.7180   28.1210   43.5390 H   0  0  0  0  0  0  0  0  0  0  0  0
   39.9920   26.4210   43.6790 C   0  0  0  0  0  0  0  0  0  0  0  0
   40.7570   26.9640   44.2170 H   0  0  0  0  0  0  0  0  0  0  0  0
   40.0920   25.0910   43.3420 C   0  0  0  0  0  3  0  0  0  0  0  0
   39.1160   24.4320   42.6650 C   0  0  0  0  0  3  0  0  0  0  0  0
  1 22  1  0  0  0  0
  2 10  1  0  0  0  0
  2  1  2  0  0  0  0
  3  2  1  0  0  0  0
  4  3  2  0  0  0  0
  4  5  1  0  0  0  0
  5  6  2  0  0  0  0
  6  1  1  0  0  0  0
  6 24  1  0  0  0  0
  7  3  1  0  0  0  0
  8  4  1  0  0  0  0
  9  5  1  0  0  0  0
 10 12  1  0  0  0  0
 11 10  1  0  0  0  0
 13 10  1  0  0  0  0
 13 18  1  0  0  0  0
 14 15  1  0  0  0  0
 14 13  2  0  0  0  0
 15 16  2  0  0  0  0
 16 17  1  0  0  0  0
 17 18  2  0  0  0  0
 17 21  1  0  0  0  0
 19 14  1  0  0  0  0
 20 15  1  0  0  0  0
 22 23  1  0  0  0  0
 24 27  1  0  0  0  0
 25 26  1  0  0  0  0
 26 27  2  0  0  0  0
 26 33  1  0  0  0  0
 27 28  1  0  0  0  0
 28 29  1  0  0  0  0
 28 30  2  0  0  0  0
 30 31  1  0  0  0  0
 32 30  1  0  0  0  0
 33 32  2  0  0  0  0
M  END
>  <minimizedAffinity>
-6.13702917

$$$$

 OpenBabel03242512193D

 33 35  0  0  0  0  0  0  0  0999 V2000
   37.1190   29.0760   41.9060 C   0  0  0  0  0  0  0  0  0  0  0  0
   37.5470   30.3170   41.4870 C   0  0  0  0  0  0  0  0  0  0  0  0
   38.8440   30.7030   41.7960 C   0  0  0  0  0  0  0  0  0  0  0  0
   39.6610   29.8400   42.5080 C   0  0  0  0  0  0  0  0  0  0  0  0
   39.1750   28.6310   42.8900 C   0  0  0  0  0  0  0  0  0  0  0  0
   37.8830   28.1880   42.6100 C   0  0  0  0  0  0  0  0  0  0  0  0
   39.1580   31.6880   41.4530 H   0  0  0  0  0  0  0  0  0  0  0  0
   40.6700   30.1420   42.7470 H   0  0  0  0  0  0  0  0  0  0  0  0
   39.8270   27.9510   43.4560 H   0  0  0  0  0  0  0  0  0  0  0  0
   36.5670   31.1320   40.7380 C   0  0  0  0  0  0  0  0  0  0  0  0
   35.5620   30.7000   41.0050 H   0  0  0  0  0  0  0  0  0  0  0  0
   36.5700   32.1630   41.0320 H   0  0  0  0  0  0  0  0  0  0  0  0
   36.7430   30.8990   39.2580 C   0  0  0  0  0  0  0  0  0  0  0  0
   37.5430   31.8120   38.5520 C   0  0  0  0  0  0  0  0  0  0  0  0
   37.7130   31.5930   37.1930 C   0  0  0  0  0  0  0  0  0  0  0  0
   37.1040   30.5240   36.6330 N   0  0  0  0  0  0  0  0  0  0  0  0
   36.3380   29.6600   37.3390 C   0  0  0  0  0  0  0  0  0  0  0  0
   36.1620   29.8540   38.6460 N   0  0  0  0  0  0  0  0  0  0  0  0
   37.9930   32.6390   39.0720 H   0  0  0  0  0  0  0  0  0  0  0  0
   38.3100   32.2500   36.6040 H   0  0  0  0  0  0  0  0  0  0  0  0
   35.9040   28.8440   36.7790 H   0  0  0  0  0  0  0  0  0  0  0  0
   35.8130   28.5950   41.6400 O   0  0  0  0  0  0  0  0  0  0  0  0
   35.1710   28.6920   42.4230 H   0  0  0  0  0  0  0  0  0  0  0  0
   37.4950   26.9370   43.0460 O   0  0  0  0  0  0  0  0  0  0  0  0
   39.9800   25.4040   43.6790 Cl  0  0  0  0  0  0  0  0  0  0  0  0
   38.7930   25.0290   42.4750 C   0  0  0  0  0  0  0  0  0  0  0  0
   37.6830   25.8090   42.2720 C   0  0  0  0  0  0  0  0  0  0  0  0
   36.7840   25.4410   41.2910 C   0  0  0  0  0  0  0  0  0  0  0  0
   35.9190   26.0430   41.1270 H   0  0  0  0  0  0  0  0  0  0  0  0
   36.9720   24.3000   40.5060 C   0  0  0  0  0  0  0  0  0  0  0  0
   36.2390   24.0540   39.7500 H   0  0  0  0  0  0  0  0  0  0  0  0
   38.1000   23.5520   40.7490 C   0  0  0  0  0  3  0  0  0  0  0  0
   39.0070   23.8840   41.7050 C   0  0  0  0  0  3  0  0  0  0  0  0
  1  6  1  0  0  0  0
  2  3  1  0  0  0  0
  2  1  2  0  0  0  0
  3  4  2  0  0  0  0
  4  8  1  0  0  0  0
  4  5  1  0  0  0  0
  5  9  1  0  0  0  0
  6  5  2  0  0  0  0
  6 24  1  0  0  0  0
  7  3  1  0  0  0  0
 10 11  1  0  0  0  0
 10 12  1  0  0  0  0
 10  2  1  0  0  0  0
 13 10  1  0  0  0  0
 14 19  1  0  0  0  0
 14 13  2  0  0  0  0
 15 14  1  0  0  0  0
 16 15  2  0  0  0  0
 16 17  1  0  0  0  0
 17 18  2  0  0  0  0
 18 13  1  0  0  0  0
 20 15  1  0  0  0  0
 21 17  1  0  0  0  0
 22  1  1  0  0  0  0
 22 23  1  0  0  0  0
 26 25  1  0  0  0  0
 27 26  1  0  0  0  0
 27 24  1  0  0  0  0
 28 27  2  0  0  0  0
 29 28  1  0  0  0  0
 30 32  2  0  0  0  0
 30 28  1  0  0  0  0
 31 30  1  0  0  0  0
 32 33  1  0  0  0  0
 33 26  2  0  0  0  0
M  END
>  <minimizedAffinity>
-5.79106617

$$$$

 OpenBabel03242512193D

 33 35  0  0  0  0  0  0  0  0999 V2000
   36.7030   28.0270   41.5540 C   0  0  0  0  0  0  0  0  0  0  0  0
   36.0620   28.2280   40.3510 C   0  0  0  0  0  0  0  0  0  0  0  0
   36.1570   27.2390   39.3830 C   0  0  0  0  0  0  0  0  0  0  0  0
   36.8850   26.0910   39.6490 C   0  0  0  0  0  0  0  0  0  0  0  0
   37.4930   25.9580   40.8560 C   0  0  0  0  0  0  0  0  0  0  0  0
   37.4330   26.9150   41.8670 C   0  0  0  0  0  0  0  0  0  0  0  0
   35.6410   27.4220   38.4410 H   0  0  0  0  0  0  0  0  0  0  0  0
   36.9590   25.3220   38.8940 H   0  0  0  0  0  0  0  0  0  0  0  0
   38.0710   25.0450   41.0620 H   0  0  0  0  0  0  0  0  0  0  0  0
   35.3220   29.5000   40.2050 C   0  0  0  0  0  0  0  0  0  0  0  0
   34.6370   29.3410   39.3250 H   0  0  0  0  0  0  0  0  0  0  0  0
   34.7130   29.7290   41.0570 H   0  0  0  0  0  0  0  0  0  0  0  0
   36.2760   30.5960   39.8010 C   0  0  0  0  0  0  0  0  0  0  0  0
   36.6560   30.6550   38.4510 C   0  0  0  0  0  0  0  0  0  0  0  0
   37.5260   31.6680   38.0770 C   0  0  0  0  0  0  0  0  0  0  0  0
   37.9540   32.5310   39.0240 N   0  0  0  0  0  0  0  0  0  0  0  0
   37.5700   32.4510   40.3200 C   0  0  0  0  0  0  0  0  0  0  0  0
   36.7340   31.4840   40.6990 N   0  0  0  0  0  0  0  0  0  0  0  0
   36.2720   29.9280   37.7570 H   0  0  0  0  0  0  0  0  0  0  0  0
   37.8500   31.7640   37.0660 H   0  0  0  0  0  0  0  0  0  0  0  0
   37.9790   33.1990   40.9840 H   0  0  0  0  0  0  0  0  0  0  0  0
   36.6640   28.9800   42.6020 O   0  0  0  0  0  0  0  0  0  0  0  0
   37.4950   29.5640   42.6580 H   0  0  0  0  0  0  0  0  0  0  0  0
   38.0890   26.6740   43.0590 O   0  0  0  0  0  0  0  0  0  0  0  0
   39.5640   24.0870   43.2990 Cl  0  0  0  0  0  0  0  0  0  0  0  0
   40.2380   25.6820   43.2880 C   0  0  0  0  0  0  0  0  0  0  0  0
   39.4590   26.8050   43.1710 C   0  0  0  0  0  0  0  0  0  0  0  0
   40.0740   28.0410   43.1690 C   0  0  0  0  0  0  0  0  0  0  0  0
   39.4750   28.9190   43.0790 H   0  0  0  0  0  0  0  0  0  0  0  0
   41.4600   28.1780   43.2830 C   0  0  0  0  0  0  0  0  0  0  0  0
   41.8950   29.1690   43.2770 H   0  0  0  0  0  0  0  0  0  0  0  0
   42.1960   27.0210   43.3970 C   0  0  0  0  0  3  0  0  0  0  0  0
   41.6250   25.7880   43.4020 C   0  0  0  0  0  3  0  0  0  0  0  0
  1  6  1  0  0  0  0
  1 22  1  0  0  0  0
  2  1  2  0  0  0  0
  3  4  2  0  0  0  0
  3  2  1  0  0  0  0
  4  5  1  0  0  0  0
  5  9  1  0  0  0  0
  5  6  2  0  0  0  0
  6 24  1  0  0  0  0
  7  3  1  0  0  0  0
  8  4  1  0  0  0  0
 10  2  1  0  0  0  0
 10 12  1  0  0  0  0
 11 10  1  0  0  0  0
 13 10  1  0  0  0  0
 13 18  1  0  0  0  0
 14 13  2  0  0  0  0
 15 14  1  0  0  0  0
 15 16  2  0  0  0  0
 16 17  1  0  0  0  0
 17 18  2  0  0  0  0
 17 21  1  0  0  0  0
 19 14  1  0  0  0  0
 20 15  1  0  0  0  0
 22 23  1  0  0  0  0
 24 27  1  0  0  0  0
 26 25  1  0  0  0  0
 26 33  1  0  0  0  0
 27 26  2  0  0  0  0
 28 27  1  0  0  0  0
 28 30  2  0  0  0  0
 29 28  1  0  0  0  0
 30 32  1  0  0  0  0
 31 30  1  0  0  0  0
 32 33  2  0  0  0  0
M  END
>  <minimizedAffinity>
-5.76071167

$$$$

 OpenBabel03242512193D

 33 35  0  0  0  0  0  0  0  0999 V2000
   37.4500   29.5130   42.1800 C   0  0  0  0  0  0  0  0  0  0  0  0
   36.5850   28.4660   41.9490 C   0  0  0  0  0  0  0  0  0  0  0  0
   35.8070   28.4970   40.8010 C   0  0  0  0  0  0  0  0  0  0  0  0
   35.9180   29.5680   39.9290 C   0  0  0  0  0  0  0  0  0  0  0  0
   36.7910   30.5680   40.2180 C   0  0  0  0  0  0  0  0  0  0  0  0
   37.5990   30.5920   41.3540 C   0  0  0  0  0  0  0  0  0  0  0  0
   35.1320   27.6570   40.6420 H   0  0  0  0  0  0  0  0  0  0  0  0
   35.3110   29.5910   39.0370 H   0  0  0  0  0  0  0  0  0  0  0  0
   36.8750   31.4160   39.5240 H   0  0  0  0  0  0  0  0  0  0  0  0
   36.5690   27.3910   42.9640 C   0  0  0  0  0  0  0  0  0  0  0  0
   37.0190   27.8540   43.8880 H   0  0  0  0  0  0  0  0  0  0  0  0
   35.5780   27.0640   43.2110 H   0  0  0  0  0  0  0  0  0  0  0  0
   37.5100   26.2880   42.5480 C   0  0  0  0  0  0  0  0  0  0  0  0
   36.9390   25.0640   42.1630 C   0  0  0  0  0  0  0  0  0  0  0  0
   37.8030   24.0530   41.7710 C   0  0  0  0  0  0  0  0  0  0  0  0
   39.1310   24.3010   41.7820 N   0  0  0  0  0  0  0  0  0  0  0  0
   39.6550   25.4920   42.1570 C   0  0  0  0  0  0  0  0  0  0  0  0
   38.8400   26.4770   42.5380 N   0  0  0  0  0  0  0  0  0  0  0  0
   35.8700   24.9460   42.1840 H   0  0  0  0  0  0  0  0  0  0  0  0
   37.4300   23.1020   41.4680 H   0  0  0  0  0  0  0  0  0  0  0  0
   40.7320   25.5700   42.1240 H   0  0  0  0  0  0  0  0  0  0  0  0
   38.2840   29.5700   43.3230 O   0  0  0  0  0  0  0  0  0  0  0  0
   37.9230   30.1650   44.0660 H   0  0  0  0  0  0  0  0  0  0  0  0
   38.4530   31.6600   41.5460 O   0  0  0  0  0  0  0  0  0  0  0  0
   38.1590   34.1610   39.9380 Cl  0  0  0  0  0  0  0  0  0  0  0  0
   39.4730   33.0340   39.8950 C   0  0  0  0  0  0  0  0  0  0  0  0
   39.5020   31.9120   40.6840 C   0  0  0  0  0  0  0  0  0  0  0  0
   40.5870   31.0630   40.5900 C   0  0  0  0  0  0  0  0  0  0  0  0
   40.6170   30.1890   41.2000 H   0  0  0  0  0  0  0  0  0  0  0  0
   41.6500   31.3160   39.7180 C   0  0  0  0  0  0  0  0  0  0  0  0
   42.4780   30.6200   39.6800 H   0  0  0  0  0  0  0  0  0  0  0  0
   41.5720   32.4530   38.9490 C   0  0  0  0  0  3  0  0  0  0  0  0
   40.5210   33.3120   39.0150 C   0  0  0  0  0  3  0  0  0  0  0  0
  1 22  1  0  0  0  0
  2  1  1  0  0  0  0
  2 10  1  0  0  0  0
  3  2  2  0  0  0  0
  4  5  2  0  0  0  0
  4  3  1  0  0  0  0
  5  6  1  0  0  0  0
  6 24  1  0  0  0  0
  6  1  2  0  0  0  0
  7  3  1  0  0  0  0
  8  4  1  0  0  0  0
  9  5  1  0  0  0  0
 10 12  1  0  0  0  0
 10 11  1  0  0  0  0
 13 10  1  0  0  0  0
 14 19  1  0  0  0  0
 14 13  2  0  0  0  0
 15 16  2  0  0  0  0
 15 14  1  0  0  0  0
 16 17  1  0  0  0  0
 17 18  2  0  0  0  0
 18 13  1  0  0  0  0
 20 15  1  0  0  0  0
 21 17  1  0  0  0  0
 22 23  1  0  0  0  0
 26 25  1  0  0  0  0
 26 27  1  0  0  0  0
 27 24  1  0  0  0  0
 28 27  2  0  0  0  0
 28 29  1  0  0  0  0
 30 28  1  0  0  0  0
 31 30  1  0  0  0  0
 32 33  1  0  0  0  0
 32 30  2  0  0  0  0
 33 26  2  0  0  0  0
M  END
>  <minimizedAffinity>
-5.57555056

$$$$

 OpenBabel03242512193D

 33 35  0  0  0  0  0  0  0  0999 V2000
   37.7240   30.7830   41.3600 C   0  0  0  0  0  0  0  0  0  0  0  0
   38.8210   31.6160   41.3220 C   0  0  0  0  0  0  0  0  0  0  0  0
   39.9930   31.1880   41.9300 C   0  0  0  0  0  0  0  0  0  0  0  0
   40.0270   29.9500   42.5500 C   0  0  0  0  0  0  0  0  0  0  0  0
   38.9080   29.1790   42.5510 C   0  0  0  0  0  0  0  0  0  0  0  0
   37.7040   29.5540   41.9580 C   0  0  0  0  0  0  0  0  0  0  0  0
   40.8450   31.8640   41.8850 H   0  0  0  0  0  0  0  0  0  0  0  0
   40.9390   29.6180   43.0230 H   0  0  0  0  0  0  0  0  0  0  0  0
   38.9400   28.1980   43.0460 H   0  0  0  0  0  0  0  0  0  0  0  0
   38.6410   32.9080   40.6270 C   0  0  0  0  0  0  0  0  0  0  0  0
   37.6580   32.8150   40.0840 H   0  0  0  0  0  0  0  0  0  0  0  0
   38.5650   33.7390   41.3010 H   0  0  0  0  0  0  0  0  0  0  0  0
   39.6960   33.0590   39.5600 C   0  0  0  0  0  0  0  0  0  0  0  0
   39.6730   32.1440   38.4960 C   0  0  0  0  0  0  0  0  0  0  0  0
   40.6370   32.2880   37.5100 C   0  0  0  0  0  0  0  0  0  0  0  0
   41.5340   33.2910   37.6280 N   0  0  0  0  0  0  0  0  0  0  0  0
   41.5330   34.1610   38.6670 C   0  0  0  0  0  0  0  0  0  0  0  0
   40.6140   34.0380   39.6250 N   0  0  0  0  0  0  0  0  0  0  0  0
   38.9250   31.3710   38.4740 H   0  0  0  0  0  0  0  0  0  0  0  0
   40.6700   31.6240   36.6770 H   0  0  0  0  0  0  0  0  0  0  0  0
   42.3010   34.9210   38.6510 H   0  0  0  0  0  0  0  0  0  0  0  0
   36.4850   31.1330   40.7690 O   0  0  0  0  0  0  0  0  0  0  0  0
   35.7990   31.4880   41.4320 H   0  0  0  0  0  0  0  0  0  0  0  0
   36.6290   28.6880   42.0170 O   0  0  0  0  0  0  0  0  0  0  0  0
   36.3350   28.2050   39.0840 Cl  0  0  0  0  0  0  0  0  0  0  0  0
   36.6260   27.0260   40.3180 C   0  0  0  0  0  0  0  0  0  0  0  0
   36.7440   27.3650   41.6420 C   0  0  0  0  0  0  0  0  0  0  0  0
   36.9760   26.3640   42.5650 C   0  0  0  0  0  0  0  0  0  0  0  0
   37.0700   26.6200   43.5950 H   0  0  0  0  0  0  0  0  0  0  0  0
   37.0930   25.0230   42.1870 C   0  0  0  0  0  0  0  0  0  0  0  0
   37.2750   24.2750   42.9480 H   0  0  0  0  0  0  0  0  0  0  0  0
   36.9660   24.7360   40.8490 C   0  0  0  0  0  3  0  0  0  0  0  0
   36.7380   25.6940   39.9120 C   0  0  0  0  0  3  0  0  0  0  0  0
  1  6  1  0  0  0  0
  2  1  2  0  0  0  0
  2  3  1  0  0  0  0
  3  4  2  0  0  0  0
  4  5  1  0  0  0  0
  4  8  1  0  0  0  0
  5  9  1  0  0  0  0
  6 24  1  0  0  0  0
  6  5  2  0  0  0  0
  7  3  1  0  0  0  0
 10 12  1  0  0  0  0
 10  2  1  0  0  0  0
 11 10  1  0  0  0  0
 13 18  1  0  0  0  0
 13 10  1  0  0  0  0
 14 13  2  0  0  0  0
 15 16  2  0  0  0  0
 15 14  1  0  0  0  0
 16 17  1  0  0  0  0
 17 18  2  0  0  0  0
 19 14  1  0  0  0  0
 20 15  1  0  0  0  0
 21 17  1  0  0  0  0
 22  1  1  0  0  0  0
 22 23  1  0  0  0  0
 25 26  1  0  0  0  0
 26 27  1  0  0  0  0
 27 24  1  0  0  0  0
 27 28  2  0  0  0  0
 28 29  1  0  0  0  0
 30 28  1  0  0  0  0
 30 31  1  0  0  0  0
 32 30  2  0  0  0  0
 33 26  2  0  0  0  0
 33 32  1  0  0  0  0
M  END
>  <minimizedAffinity>
-5.56881571

$$$$

 OpenBabel03242512193D

 33 35  0  0  0  0  0  0  0  0999 V2000
   37.0910   28.3760   42.2000 C   0  0  0  0  0  0  0  0  0  0  0  0
   37.6990   27.2740   42.7610 C   0  0  0  0  0  0  0  0  0  0  0  0
   39.0130   27.3960   43.1890 C   0  0  0  0  0  0  0  0  0  0  0  0
   39.6700   28.6060   43.0430 C   0  0  0  0  0  0  0  0  0  0  0  0
   39.0110   29.6530   42.4810 C   0  0  0  0  0  0  0  0  0  0  0  0
   37.6930   29.5920   42.0320 C   0  0  0  0  0  0  0  0  0  0  0  0
   39.4700   26.5100   43.6290 H   0  0  0  0  0  0  0  0  0  0  0  0
   40.6920   28.6990   43.3760 H   0  0  0  0  0  0  0  0  0  0  0  0
   39.5370   30.6110   42.3660 H   0  0  0  0  0  0  0  0  0  0  0  0
   36.8790   26.0470   42.8530 C   0  0  0  0  0  0  0  0  0  0  0  0
   37.2830   25.4910   43.7450 H   0  0  0  0  0  0  0  0  0  0  0  0
   35.8420   26.2510   43.0360 H   0  0  0  0  0  0  0  0  0  0  0  0
   37.1460   25.1700   41.6550 C   0  0  0  0  0  0  0  0  0  0  0  0
   37.8900   23.9990   41.8680 C   0  0  0  0  0  0  0  0  0  0  0  0
   38.1280   23.1870   40.7690 C   0  0  0  0  0  0  0  0  0  0  0  0
   37.6350   23.5660   39.5690 N   0  0  0  0  0  0  0  0  0  0  0  0
   36.9190   24.7020   39.3940 C   0  0  0  0  0  0  0  0  0  0  0  0
   36.6800   25.4960   40.4380 N   0  0  0  0  0  0  0  0  0  0  0  0
   38.2490   23.7670   42.8550 H   0  0  0  0  0  0  0  0  0  0  0  0
   38.6860   22.2840   40.8670 H   0  0  0  0  0  0  0  0  0  0  0  0
   36.5780   24.8980   38.3880 H   0  0  0  0  0  0  0  0  0  0  0  0
   35.7540   28.3500   41.7330 O   0  0  0  0  0  0  0  0  0  0  0  0
   35.6720   28.2300   40.7260 H   0  0  0  0  0  0  0  0  0  0  0  0
   37.1210   30.7210   41.4780 O   0  0  0  0  0  0  0  0  0  0  0  0
   38.8700   33.1020   41.0330 Cl  0  0  0  0  0  0  0  0  0  0  0  0
   38.0950   32.1280   39.8290 C   0  0  0  0  0  0  0  0  0  0  0  0
   37.3100   31.0510   40.1510 C   0  0  0  0  0  0  0  0  0  0  0  0
   36.7280   30.3250   39.1310 C   0  0  0  0  0  0  0  0  0  0  0  0
   36.1160   29.4870   39.3730 H   0  0  0  0  0  0  0  0  0  0  0  0
   36.9180   30.6570   37.7860 C   0  0  0  0  0  0  0  0  0  0  0  0
   36.4400   30.0570   37.0230 H   0  0  0  0  0  0  0  0  0  0  0  0
   37.7140   31.7450   37.5160 C   0  0  0  0  0  3  0  0  0  0  0  0
   38.3030   32.4830   38.4940 C   0  0  0  0  0  3  0  0  0  0  0  0
  1  2  1  0  0  0  0
  2 10  1  0  0  0  0
  2  3  2  0  0  0  0
  3  7  1  0  0  0  0
  4  3  1  0  0  0  0
  4  8  1  0  0  0  0
  5  4  2  0  0  0  0
  6  1  2  0  0  0  0
  6  5  1  0  0  0  0
  9  5  1  0  0  0  0
 10 12  1  0  0  0  0
 10 11  1  0  0  0  0
 13 14  1  0  0  0  0
 13 10  1  0  0  0  0
 14 19  1  0  0  0  0
 15 20  1  0  0  0  0
 15 14  2  0  0  0  0
 16 15  1  0  0  0  0
 17 16  2  0  0  0  0
 17 18  1  0  0  0  0
 18 13  2  0  0  0  0
 21 17  1  0  0  0  0
 22  1  1  0  0  0  0
 23 22  1  0  0  0  0
 24  6  1  0  0  0  0
 26 27  1  0  0  0  0
 26 25  1  0  0  0  0
 27 24  1  0  0  0  0
 28 29  1  0  0  0  0
 28 27  2  0  0  0  0
 30 28  1  0  0  0  0
 31 30  1  0  0  0  0
 32 30  2  0  0  0  0
 32 33  1  0  0  0  0
 33 26  2  0  0  0  0
M  END
>  <minimizedAffinity>
-5.53422451

$$$$

 OpenBabel03242512193D

 33 35  0  0  0  0  0  0  0  0999 V2000
   37.0490   29.1810   41.9090 C   0  0  0  0  0  0  0  0  0  0  0  0
   37.9990   28.8220   42.8400 C   0  0  0  0  0  0  0  0  0  0  0  0
   39.1600   29.5770   42.9180 C   0  0  0  0  0  0  0  0  0  0  0  0
   39.3310   30.6570   42.0680 C   0  0  0  0  0  0  0  0  0  0  0  0
   38.3540   30.9560   41.1720 C   0  0  0  0  0  0  0  0  0  0  0  0
   37.1670   30.2360   41.0470 C   0  0  0  0  0  0  0  0  0  0  0  0
   39.8950   29.2730   43.6620 H   0  0  0  0  0  0  0  0  0  0  0  0
   40.2350   31.2430   42.1290 H   0  0  0  0  0  0  0  0  0  0  0  0
   38.4950   31.8130   40.5000 H   0  0  0  0  0  0  0  0  0  0  0  0
   37.6840   27.6460   43.6800 C   0  0  0  0  0  0  0  0  0  0  0  0
   38.4280   27.6840   44.5260 H   0  0  0  0  0  0  0  0  0  0  0  0
   36.7010   27.6880   44.1050 H   0  0  0  0  0  0  0  0  0  0  0  0
   37.9850   26.3820   42.9130 C   0  0  0  0  0  0  0  0  0  0  0  0
   39.3320   26.0030   42.7980 C   0  0  0  0  0  0  0  0  0  0  0  0
   39.6080   24.8360   42.1020 C   0  0  0  0  0  0  0  0  0  0  0  0
   38.5750   24.1390   41.5790 N   0  0  0  0  0  0  0  0  0  0  0  0
   37.2850   24.5290   41.7060 C   0  0  0  0  0  0  0  0  0  0  0  0
   36.9990   25.6480   42.3720 N   0  0  0  0  0  0  0  0  0  0  0  0
   40.0970   26.6140   43.2430 H   0  0  0  0  0  0  0  0  0  0  0  0
   40.6110   24.4960   41.9810 H   0  0  0  0  0  0  0  0  0  0  0  0
   36.5470   23.8880   41.2450 H   0  0  0  0  0  0  0  0  0  0  0  0
   35.8320   28.4710   41.7540 O   0  0  0  0  0  0  0  0  0  0  0  0
   35.8370   27.8130   40.9780 H   0  0  0  0  0  0  0  0  0  0  0  0
   36.2400   30.6300   40.1020 O   0  0  0  0  0  0  0  0  0  0  0  0
   37.8460   32.1830   38.1180 Cl  0  0  0  0  0  0  0  0  0  0  0  0
   36.9420   30.7340   37.8330 C   0  0  0  0  0  0  0  0  0  0  0  0
   36.2370   30.1020   38.8270 C   0  0  0  0  0  0  0  0  0  0  0  0
   35.5420   28.9510   38.5170 C   0  0  0  0  0  0  0  0  0  0  0  0
   34.9920   28.4540   39.2840 H   0  0  0  0  0  0  0  0  0  0  0  0
   35.5370   28.4140   37.2270 C   0  0  0  0  0  0  0  0  0  0  0  0
   34.9760   27.5090   37.0340 H   0  0  0  0  0  0  0  0  0  0  0  0
   36.2590   29.0840   36.2670 C   0  0  0  0  0  3  0  0  0  0  0  0
   36.9550   30.2200   36.5350 C   0  0  0  0  0  3  0  0  0  0  0  0
  1  2  1  0  0  0  0
  2  3  2  0  0  0  0
  2 10  1  0  0  0  0
  3  7  1  0  0  0  0
  4  8  1  0  0  0  0
  4  3  1  0  0  0  0
  5  4  2  0  0  0  0
  6  5  1  0  0  0  0
  6  1  2  0  0  0  0
  9  5  1  0  0  0  0
 10 12  1  0  0  0  0
 10 11  1  0  0  0  0
 13 10  1  0  0  0  0
 14 13  1  0  0  0  0
 14 19  1  0  0  0  0
 15 14  2  0  0  0  0
 16 17  2  0  0  0  0
 16 15  1  0  0  0  0
 17 18  1  0  0  0  0
 18 13  2  0  0  0  0
 20 15  1  0  0  0  0
 21 17  1  0  0  0  0
 22  1  1  0  0  0  0
 23 22  1  0  0  0  0
 24  6  1  0  0  0  0
 26 25  1  0  0  0  0
 26 27  1  0  0  0  0
 27 24  1  0  0  0  0
 28 27  2  0  0  0  0
 28 29  1  0  0  0  0
 30 28  1  0  0  0  0
 31 30  1  0  0  0  0
 32 33  1  0  0  0  0
 32 30  2  0  0  0  0
 33 26  2  0  0  0  0
M  END
>  <minimizedAffinity>
-5.52617693

$$$$

 OpenBabel03242512193D

 33 35  0  0  0  0  0  0  0  0999 V2000
   37.7050   28.9930   39.2120 C   0  0  0  0  0  0  0  0  0  0  0  0
   36.8130   30.0420   39.1550 C   0  0  0  0  0  0  0  0  0  0  0  0
   35.7180   30.0200   40.0070 C   0  0  0  0  0  0  0  0  0  0  0  0
   35.5530   28.9570   40.8790 C   0  0  0  0  0  0  0  0  0  0  0  0
   36.4700   27.9550   40.8820 C   0  0  0  0  0  0  0  0  0  0  0  0
   37.5890   27.9220   40.0520 C   0  0  0  0  0  0  0  0  0  0  0  0
   35.0290   30.8610   39.9430 H   0  0  0  0  0  0  0  0  0  0  0  0
   34.7000   28.9400   41.5400 H   0  0  0  0  0  0  0  0  0  0  0  0
   36.3340   27.1130   41.5760 H   0  0  0  0  0  0  0  0  0  0  0  0
   37.1140   31.1080   38.1760 C   0  0  0  0  0  0  0  0  0  0  0  0
   37.7380   30.6090   37.3810 H   0  0  0  0  0  0  0  0  0  0  0  0
   36.2360   31.5020   37.7030 H   0  0  0  0  0  0  0  0  0  0  0  0
   38.0030   32.1460   38.8150 C   0  0  0  0  0  0  0  0  0  0  0  0
   37.3760   33.2030   39.4930 C   0  0  0  0  0  0  0  0  0  0  0  0
   38.1920   34.1520   40.0890 C   0  0  0  0  0  0  0  0  0  0  0  0
   39.5320   34.0060   39.9840 N   0  0  0  0  0  0  0  0  0  0  0  0
   40.1100   32.9750   39.3230 C   0  0  0  0  0  0  0  0  0  0  0  0
   39.3410   32.0530   38.7430 N   0  0  0  0  0  0  0  0  0  0  0  0
   36.3010   33.2490   39.5310 H   0  0  0  0  0  0  0  0  0  0  0  0
   37.7750   34.9770   40.6180 H   0  0  0  0  0  0  0  0  0  0  0  0
   41.1900   32.9670   39.3080 H   0  0  0  0  0  0  0  0  0  0  0  0
   38.8520   28.9270   38.3820 O   0  0  0  0  0  0  0  0  0  0  0  0
   38.7370   28.3260   37.5690 H   0  0  0  0  0  0  0  0  0  0  0  0
   38.4590   26.8520   40.1420 O   0  0  0  0  0  0  0  0  0  0  0  0
   37.9110   24.1020   41.1720 Cl  0  0  0  0  0  0  0  0  0  0  0  0
   38.9290   25.3070   41.8870 C   0  0  0  0  0  0  0  0  0  0  0  0
   39.1080   26.5440   41.3210 C   0  0  0  0  0  0  0  0  0  0  0  0
   39.9360   27.4490   41.9540 C   0  0  0  0  0  0  0  0  0  0  0  0
   40.0800   28.4130   41.5210 H   0  0  0  0  0  0  0  0  0  0  0  0
   40.5930   27.1400   43.1490 C   0  0  0  0  0  0  0  0  0  0  0  0
   41.2320   27.8840   43.6060 H   0  0  0  0  0  0  0  0  0  0  0  0
   40.3810   25.8870   43.6740 C   0  0  0  0  0  3  0  0  0  0  0  0
   39.5730   24.9710   43.0790 C   0  0  0  0  0  3  0  0  0  0  0  0
  1  6  1  0  0  0  0
  2  1  2  0  0  0  0
  2  3  1  0  0  0  0
  3  4  2  0  0  0  0
  4  5  1  0  0  0  0
  4  8  1  0  0  0  0
  5  9  1  0  0  0  0
  6 24  1  0  0  0  0
  6  5  2  0  0  0  0
  7  3  1  0  0  0  0
 10 13  1  0  0  0  0
 10  2  1  0  0  0  0
 11 10  1  0  0  0  0
 12 10  1  0  0  0  0
 13 14  1  0  0  0  0
 14 19  1  0  0  0  0
 14 15  2  0  0  0  0
 15 20  1  0  0  0  0
 16 15  1  0  0  0  0
 17 16  2  0  0  0  0
 18 13  2  0  0  0  0
 18 17  1  0  0  0  0
 21 17  1  0  0  0  0
 22  1  1  0  0  0  0
 23 22  1  0  0  0  0
 24 27  1  0  0  0  0
 25 26  1  0  0  0  0
 26 33  1  0  0  0  0
 27 26  2  0  0  0  0
 27 28  1  0  0  0  0
 28 30  2  0  0  0  0
 29 28  1  0  0  0  0
 30 31  1  0  0  0  0
 30 32  1  0  0  0  0
 33 32  2  0  0  0  0
M  END
>  <minimizedAffinity>
-5.38154268

$$$$

 OpenBabel03242512193D

 33 35  0  0  0  0  0  0  0  0999 V2000
   36.4330   28.4820   41.0000 C   0  0  0  0  0  0  0  0  0  0  0  0
   36.0300   28.8950   39.7490 C   0  0  0  0  0  0  0  0  0  0  0  0
   36.0200   27.9630   38.7200 C   0  0  0  0  0  0  0  0  0  0  0  0
   36.4120   26.6600   38.9770 C   0  0  0  0  0  0  0  0  0  0  0  0
   36.7990   26.3200   40.2340 C   0  0  0  0  0  0  0  0  0  0  0  0
   36.8290   27.2100   41.3060 C   0  0  0  0  0  0  0  0  0  0  0  0
   35.6970   28.3150   37.7420 H   0  0  0  0  0  0  0  0  0  0  0  0
   36.4050   25.9360   38.1760 H   0  0  0  0  0  0  0  0  0  0  0  0
   37.1100   25.2840   40.4320 H   0  0  0  0  0  0  0  0  0  0  0  0
   35.6400   30.3150   39.6200 C   0  0  0  0  0  0  0  0  0  0  0  0
   35.0200   30.3650   38.6800 H   0  0  0  0  0  0  0  0  0  0  0  0
   35.0300   30.6560   40.4330 H   0  0  0  0  0  0  0  0  0  0  0  0
   36.8660   31.1540   39.3580 C   0  0  0  0  0  0  0  0  0  0  0  0
   37.1680   32.1620   40.2870 C   0  0  0  0  0  0  0  0  0  0  0  0
   38.3000   32.9280   40.0520 C   0  0  0  0  0  0  0  0  0  0  0  0
   39.0390   32.6620   38.9530 N   0  0  0  0  0  0  0  0  0  0  0  0
   38.7240   31.6820   38.0730 C   0  0  0  0  0  0  0  0  0  0  0  0
   37.6390   30.9360   38.2810 N   0  0  0  0  0  0  0  0  0  0  0  0
   36.5270   32.3120   41.1380 H   0  0  0  0  0  0  0  0  0  0  0  0
   38.5810   33.7070   40.7220 H   0  0  0  0  0  0  0  0  0  0  0  0
   39.3920   31.5660   37.2320 H   0  0  0  0  0  0  0  0  0  0  0  0
   36.4760   29.3600   42.1110 O   0  0  0  0  0  0  0  0  0  0  0  0
   37.4060   29.7190   42.3150 H   0  0  0  0  0  0  0  0  0  0  0  0
   37.2380   26.7540   42.5450 O   0  0  0  0  0  0  0  0  0  0  0  0
   39.4220   28.7140   43.1060 Cl  0  0  0  0  0  0  0  0  0  0  0  0
   39.5600   26.9910   42.9950 C   0  0  0  0  0  0  0  0  0  0  0  0
   38.4820   26.1850   42.7320 C   0  0  0  0  0  0  0  0  0  0  0  0
   38.6750   24.8200   42.6600 C   0  0  0  0  0  0  0  0  0  0  0  0
   37.8420   24.1870   42.4560 H   0  0  0  0  0  0  0  0  0  0  0  0
   39.9330   24.2410   42.8490 C   0  0  0  0  0  0  0  0  0  0  0  0
   40.0340   23.1650   42.7830 H   0  0  0  0  0  0  0  0  0  0  0  0
   40.9810   25.0920   43.1100 C   0  0  0  0  0  3  0  0  0  0  0  0
   40.8280   26.4400   43.1880 C   0  0  0  0  0  3  0  0  0  0  0  0
  1  6  1  0  0  0  0
  1 22  1  0  0  0  0
  2  1  2  0  0  0  0
  3  4  2  0  0  0  0
  3  2  1  0  0  0  0
  4  5  1  0  0  0  0
  5  9  1  0  0  0  0
  5  6  2  0  0  0  0
  6 24  1  0  0  0  0
  7  3  1  0  0  0  0
  8  4  1  0  0  0  0
 10  2  1  0  0  0  0
 10 12  1  0  0  0  0
 11 10  1  0  0  0  0
 13 10  1  0  0  0  0
 13 14  1  0  0  0  0
 14 19  1  0  0  0  0
 15 14  2  0  0  0  0
 15 20  1  0  0  0  0
 16 15  1  0  0  0  0
 17 18  1  0  0  0  0
 17 16  2  0  0  0  0
 18 13  2  0  0  0  0
 21 17  1  0  0  0  0
 22 23  1  0  0  0  0
 24 27  1  0  0  0  0
 26 25  1  0  0  0  0
 26 33  1  0  0  0  0
 27 26  2  0  0  0  0
 28 27  1  0  0  0  0
 28 30  2  0  0  0  0
 29 28  1  0  0  0  0
 30 32  1  0  0  0  0
 31 30  1  0  0  0  0
 32 33  2  0  0  0  0
M  END
>  <minimizedAffinity>
-5.36532736

$$$$
