
 OpenBabel03252504463D

 27 28  0  0  0  0  0  0  0  0999 V2000
   45.4230   30.8900   49.4830 O   0  0  0  0  0  0  0  0  0  0  0  0
   45.7320   31.0090   47.9890 P   0  0  1  0  0  0  0  0  0  0  0  0
   44.4650   30.2340   47.1790 O   0  0  0  0  0  0  0  0  0  0  0  0
   44.8040   29.6740   46.4510 H   0  0  0  0  0  0  0  0  0  0  0  0
   45.8400   32.6540   47.6450 O   0  0  0  0  0  0  0  0  0  0  0  0
   45.3150   34.6670   44.7000 C   0  0  0  0  0  0  0  0  0  0  0  0
   46.2680   34.1400   43.8220 C   0  0  0  0  0  0  0  0  0  0  0  0
   47.0590   33.0900   44.3100 C   0  0  0  0  0  0  0  0  0  0  0  0
   46.8600   32.6610   45.5670 N   0  0  0  0  0  0  0  0  0  0  0  0
   45.9180   33.2090   46.3790 C   0  0  0  0  0  0  0  0  0  0  0  0
   45.1420   34.2240   45.9300 N   0  0  0  0  0  0  0  0  0  0  0  0
   46.4150   34.4900   42.8280 H   0  0  0  0  0  0  0  0  0  0  0  0
   47.8170   32.6180   43.7160 H   0  0  0  0  0  0  0  0  0  0  0  0
   44.4700   35.7940   44.1670 C   0  0  0  0  0  0  0  0  0  0  0  0
   45.0640   36.3660   43.4400 H   0  0  0  0  0  0  0  0  0  0  0  0
   44.2070   36.4680   45.0200 H   0  0  0  0  0  0  0  0  0  0  0  0
   43.5320   35.3980   43.7760 H   0  0  0  0  0  0  0  0  0  0  0  0
   47.1660   30.2170   47.5990 O   0  0  0  0  0  0  0  0  0  0  0  0
   48.6660   27.7430   47.8620 Cl  0  0  0  0  0  0  0  0  0  0  0  0
   49.0740   29.3190   48.5280 C   0  0  0  0  0  0  0  0  0  0  0  0
   48.3000   30.4710   48.3580 C   0  0  0  0  0  0  0  0  0  0  0  0
   48.7070   31.6640   48.9220 C   0  0  0  0  0  0  0  0  0  0  0  0
   48.0400   32.4860   48.7310 H   0  0  0  0  0  0  0  0  0  0  0  0
   49.8840   31.7040   49.6510 C   0  0  0  0  0  0  0  0  0  0  0  0
   50.1550   32.6480   50.0660 H   0  0  0  0  0  0  0  0  0  0  0  0
   50.6300   30.5560   49.8050 C   0  0  0  0  0  0  0  0  0  0  0  0
   50.2670   29.3220   49.2580 C   0  0  0  0  0  0  0  0  0  0  0  0
  2  1  2  1  0  0  0
  3  2  1  0  0  0  0
  4  3  1  0  0  0  0
  5  2  1  0  0  0  0
  6 11  1  0  0  0  0
  7  8  1  0  0  0  0
  7  6  2  0  0  0  0
  8  9  2  0  0  0  0
  9 10  1  0  0  0  0
 10  5  1  0  0  0  0
 11 10  2  0  0  0  0
 12  7  1  0  0  0  0
 13  8  1  0  0  0  0
 14  6  1  0  0  0  0
 14 16  1  0  0  0  0
 15 14  1  0  0  0  0
 17 14  1  0  0  0  0
 18  2  1  0  0  0  0
 18 21  1  0  0  0  0
 19 20  1  0  0  0  0
 20 27  1  0  0  0  0
 21 20  2  0  0  0  0
 21 22  1  0  0  0  0
 22 24  2  0  0  0  0
 23 22  1  0  0  0  0
 24 26  1  0  0  0  0
 24 25  1  0  0  0  0
 27 26  2  0  0  0  0
M  END
>  <minimizedAffinity>
-5.04448986

>  <minimizedRMSD>
1.45249248

$$$$
