
 OpenBabel03252506373D

 44 47  0  0  1  0  0  0  0  0999 V2000
   44.5090   35.4780   44.9260 C   0  0  0  0  0  0  0  0  0  0  0  0
   45.2880   35.4720   43.7590 C   0  0  0  0  0  0  0  0  0  0  0  0
   46.2740   34.5520   43.6280 C   0  0  0  0  0  0  0  0  0  0  0  0
   46.4460   33.6820   44.6510 N   0  0  0  0  0  0  0  0  0  0  0  0
   45.7080   33.6920   45.7510 C   0  0  0  0  0  0  0  0  0  0  0  0
   44.7340   34.5840   45.9040 N   0  0  0  0  0  0  0  0  0  0  0  0
   45.9830   32.7250   46.7780 N   0  0  0  0  0  0  0  0  0  0  0  0
   45.1370   32.4690   47.8850 C   0  0  0  0  0  0  0  0  0  0  0  0
   46.1150   32.1990   49.0150 C   0  0  0  0  0  0  0  0  0  0  0  0
   47.4730   32.1480   48.3890 C   0  0  0  0  0  0  0  0  0  0  0  0
   47.1440   31.8720   46.9210 C   0  0  1  0  0  0  0  0  0  0  0  0
   43.7260   36.2240   45.0070 H   0  0  0  0  0  0  0  0  0  0  0  0
   46.8860   34.5250   42.7420 H   0  0  0  0  0  0  0  0  0  0  0  0
   44.3410   31.7980   47.9060 H   0  0  0  0  0  0  0  0  0  0  0  0
   44.6900   33.4740   48.1760 H   0  0  0  0  0  0  0  0  0  0  0  0
   45.9060   31.1560   49.3960 H   0  0  0  0  0  0  0  0  0  0  0  0
   46.0060   32.8500   49.8800 H   0  0  0  0  0  0  0  0  0  0  0  0
   48.0810   31.3500   48.8230 H   0  0  0  0  0  0  0  0  0  0  0  0
   47.9270   33.1640   48.5160 H   0  0  0  0  0  0  0  0  0  0  0  0
   48.0010   32.2170   46.3330 H   0  0  0  0  0  0  0  0  0  0  0  0
   44.9870   36.4600   42.7590 N   0  0  0  0  0  0  0  0  0  0  0  0
   45.8530   36.8120   42.2750 H   0  0  0  0  0  0  0  0  0  0  0  0
   44.0740   36.8310   42.4900 H   0  0  0  0  0  0  0  0  0  0  0  0
   46.7370   30.1530   46.7330 S   0  0  0  0  0  0  0  0  0  0  0  0
   45.2800   30.5360   43.7560 O   0  0  0  0  0  0  0  0  0  0  0  0
   44.8140   29.9720   44.7580 C   0  0  0  0  0  0  0  0  0  0  0  0
   45.1240   29.7700   46.1910 C   0  0  1  0  0  0  0  0  0  0  0  0
   44.6910   28.3400   46.4040 C   0  0  0  0  0  0  0  0  0  0  0  0
   43.2780   28.4630   45.8290 C   0  0  0  0  0  0  0  0  0  0  0  0
   43.5810   29.2420   44.6340 N   0  0  0  0  0  0  0  0  0  0  0  0
   44.2590   30.3240   46.6580 H   0  0  0  0  0  0  0  0  0  0  0  0
   44.7110   28.0170   47.4440 H   0  0  0  0  0  0  0  0  0  0  0  0
   45.2810   27.7100   45.7180 H   0  0  0  0  0  0  0  0  0  0  0  0
   42.9080   27.4740   45.5130 H   0  0  0  0  0  0  0  0  0  0  0  0
   42.6010   28.9820   46.5270 H   0  0  0  0  0  0  0  0  0  0  0  0
   40.8380   28.8850   45.5760 Cl  0  0  0  0  0  0  0  0  0  0  0  0
   41.3350   29.0380   43.9030 C   0  0  0  0  0  0  0  0  0  0  0  0
   42.6690   29.2080   43.5130 C   0  0  0  0  0  0  0  0  0  0  0  0
   43.0350   29.3260   42.1890 C   0  0  0  0  0  0  0  0  0  0  0  0
   44.0900   29.4540   41.9850 H   0  0  0  0  0  0  0  0  0  0  0  0
   42.0310   29.2720   41.2240 C   0  0  0  0  0  0  0  0  0  0  0  0
   42.3340   29.3660   40.1820 H   0  0  0  0  0  0  0  0  0  0  0  0
   40.7090   29.1040   41.6050 C   0  0  0  0  0  3  0  0  0  0  0  0
   40.3430   28.9860   42.9290 C   0  0  0  0  0  3  0  0  0  0  0  0
  1 12  1  0  0  0  0
  1  6  1  0  0  0  0
  2  1  2  0  0  0  0
  3  2  1  0  0  0  0
  3  4  2  0  0  0  0
  4  5  1  0  0  0  0
  5  6  2  0  0  0  0
  5  7  1  0  0  0  0
  7 11  1  0  0  0  0
  7  8  1  0  0  0  0
  8 14  1  0  0  0  0
  8 15  1  0  0  0  0
  8  9  1  0  0  0  0
  9 16  1  0  0  0  0
  9 17  1  0  0  0  0
 10 19  1  0  0  0  0
 10 18  1  0  0  0  0
 10  9  1  0  0  0  0
 11 20  1  6  0  0  0
 11 10  1  0  0  0  0
 13  3  1  0  0  0  0
 21  2  1  0  0  0  0
 22 21  1  0  0  0  0
 23 21  1  0  0  0  0
 24 11  1  0  0  0  0
 25 26  2  0  0  0  0
 26 27  1  0  0  0  0
 27 28  1  0  0  0  0
 27 31  1  1  0  0  0
 27 24  1  0  0  0  0
 28 32  1  0  0  0  0
 29 28  1  0  0  0  0
 29 35  1  0  0  0  0
 30 26  1  0  0  0  0
 30 29  1  0  0  0  0
 33 28  1  0  0  0  0
 34 29  1  0  0  0  0
 37 36  1  0  0  0  0
 38 37  1  0  0  0  0
 38 30  1  0  0  0  0
 39 38  2  0  0  0  0
 40 39  1  0  0  0  0
 41 43  2  0  0  0  0
 41 39  1  0  0  0  0
 42 41  1  0  0  0  0
 43 44  1  0  0  0  0
 44 37  2  0  0  0  0
M  END
>  <minimizedAffinity>
-5.48007441

>  <minimizedRMSD>
0.652604699

$$$$
