
 OpenBabel03252506363D

 44 47  0  0  1  0  0  0  0  0999 V2000
   44.5010   35.5940   45.1100 C   0  0  0  0  0  0  0  0  0  0  0  0
   45.1290   35.5640   43.8550 C   0  0  0  0  0  0  0  0  0  0  0  0
   46.0220   34.5810   43.5870 C   0  0  0  0  0  0  0  0  0  0  0  0
   46.2540   33.6740   44.5660 N   0  0  0  0  0  0  0  0  0  0  0  0
   45.6580   33.7070   45.7490 C   0  0  0  0  0  0  0  0  0  0  0  0
   44.7770   34.6610   46.0360 N   0  0  0  0  0  0  0  0  0  0  0  0
   45.9840   32.6950   46.7160 N   0  0  0  0  0  0  0  0  0  0  0  0
   45.2640   32.4710   47.9140 C   0  0  0  0  0  0  0  0  0  0  0  0
   46.3500   32.1030   48.9100 C   0  0  0  0  0  0  0  0  0  0  0  0
   47.6130   31.9720   48.1200 C   0  0  0  0  0  0  0  0  0  0  0  0
   47.0890   31.7590   46.7000 C   0  0  1  0  0  0  0  0  0  0  0  0
   43.7900   36.3900   45.3000 H   0  0  0  0  0  0  0  0  0  0  0  0
   46.5180   34.5340   42.6320 H   0  0  0  0  0  0  0  0  0  0  0  0
   44.4290   31.8580   48.0220 H   0  0  0  0  0  0  0  0  0  0  0  0
   44.9300   33.4960   48.2760 H   0  0  0  0  0  0  0  0  0  0  0  0
   46.1130   31.0670   49.2950 H   0  0  0  0  0  0  0  0  0  0  0  0
   46.3950   32.7370   49.7930 H   0  0  0  0  0  0  0  0  0  0  0  0
   48.2100   31.1230   48.4620 H   0  0  0  0  0  0  0  0  0  0  0  0
   48.1530   32.9500   48.2080 H   0  0  0  0  0  0  0  0  0  0  0  0
   47.8910   32.0590   46.0170 H   0  0  0  0  0  0  0  0  0  0  0  0
   44.7820   36.5970   42.9180 N   0  0  0  0  0  0  0  0  0  0  0  0
   45.6060   36.9000   42.3370 H   0  0  0  0  0  0  0  0  0  0  0  0
   43.8720   37.0380   42.7700 H   0  0  0  0  0  0  0  0  0  0  0  0
   46.5370   30.0790   46.5320 S   0  0  0  0  0  0  0  0  0  0  0  0
   46.3270   29.6520   43.2300 O   0  0  0  0  0  0  0  0  0  0  0  0
   45.4160   29.5400   44.0660 C   0  0  0  0  0  0  0  0  0  0  0  0
   45.1600   29.7910   45.5010 C   0  0  1  0  0  0  0  0  0  0  0  0
   44.3070   28.6030   45.8760 C   0  0  0  0  0  0  0  0  0  0  0  0
   43.2600   28.7410   44.7690 C   0  0  0  0  0  0  0  0  0  0  0  0
   44.1470   29.0130   43.6430 N   0  0  0  0  0  0  0  0  0  0  0  0
   44.3750   30.5970   45.4220 H   0  0  0  0  0  0  0  0  0  0  0  0
   43.8880   28.6530   46.8800 H   0  0  0  0  0  0  0  0  0  0  0  0
   44.8970   27.6940   45.6710 H   0  0  0  0  0  0  0  0  0  0  0  0
   42.7620   27.7750   44.5920 H   0  0  0  0  0  0  0  0  0  0  0  0
   42.5570   29.5650   44.9780 H   0  0  0  0  0  0  0  0  0  0  0  0
   43.0940   31.4520   42.4260 Cl  0  0  0  0  0  0  0  0  0  0  0  0
   43.1750   29.8770   41.6620 C   0  0  0  0  0  0  0  0  0  0  0  0
   43.6910   28.7420   42.2980 C   0  0  0  0  0  0  0  0  0  0  0  0
   43.7450   27.5140   41.6750 C   0  0  0  0  0  0  0  0  0  0  0  0
   44.1610   26.6960   42.2470 H   0  0  0  0  0  0  0  0  0  0  0  0
   43.2640   27.4190   40.3710 C   0  0  0  0  0  0  0  0  0  0  0  0
   43.3110   26.4430   39.8890 H   0  0  0  0  0  0  0  0  0  0  0  0
   42.7510   28.5400   39.7360 C   0  0  0  0  0  3  0  0  0  0  0  0
   42.6980   29.7680   40.3590 C   0  0  0  0  0  3  0  0  0  0  0  0
  1 12  1  0  0  0  0
  1  6  1  0  0  0  0
  2  1  2  0  0  0  0
  3  2  1  0  0  0  0
  3  4  2  0  0  0  0
  4  5  1  0  0  0  0
  5  6  2  0  0  0  0
  5  7  1  0  0  0  0
  7  8  1  0  0  0  0
  8 14  1  0  0  0  0
  8 15  1  0  0  0  0
  8  9  1  0  0  0  0
  9 16  1  0  0  0  0
  9 17  1  0  0  0  0
 10 19  1  0  0  0  0
 10 18  1  0  0  0  0
 10  9  1  0  0  0  0
 11 20  1  6  0  0  0
 11  7  1  0  0  0  0
 11 10  1  0  0  0  0
 13  3  1  0  0  0  0
 21  2  1  0  0  0  0
 22 21  1  0  0  0  0
 23 21  1  0  0  0  0
 24 11  1  0  0  0  0
 25 26  2  0  0  0  0
 26 27  1  0  0  0  0
 27 31  1  1  0  0  0
 27 28  1  0  0  0  0
 27 24  1  0  0  0  0
 28 32  1  0  0  0  0
 29 35  1  0  0  0  0
 29 28  1  0  0  0  0
 30 26  1  0  0  0  0
 30 29  1  0  0  0  0
 33 28  1  0  0  0  0
 34 29  1  0  0  0  0
 37 38  1  0  0  0  0
 37 36  1  0  0  0  0
 38 30  1  0  0  0  0
 39 40  1  0  0  0  0
 39 38  2  0  0  0  0
 41 39  1  0  0  0  0
 42 41  1  0  0  0  0
 43 44  1  0  0  0  0
 43 41  2  0  0  0  0
 44 37  2  0  0  0  0
M  END
>  <minimizedAffinity>
-5.16378307

>  <minimizedRMSD>
0.853755414

$$$$
