
 OpenBabel03242523103D

 46 50  0  0  1  0  0  0  0  0999 V2000
   45.1340   36.0240   43.5040 C   0  0  0  0  0  0  0  0  0  0  0  0
   45.8980   34.8640   43.3690 C   0  0  0  0  0  0  0  0  0  0  0  0
   45.9610   33.9880   44.4050 C   0  0  0  0  0  0  0  0  0  0  0  0
   45.2600   34.3100   45.5140 N   0  0  0  0  0  0  0  0  0  0  0  0
   44.5260   35.4090   45.6670 C   0  0  0  0  0  0  0  0  0  0  0  0
   44.4680   36.2570   44.6630 N   0  0  0  0  0  0  0  0  0  0  0  0
   45.0780   36.7290   42.6850 H   0  0  0  0  0  0  0  0  0  0  0  0
   43.9520   35.7050   46.5350 H   0  0  0  0  0  0  0  0  0  0  0  0
   46.5390   34.6620   42.1460 N   0  0  0  0  0  0  0  0  0  0  0  0
   47.8710   35.0080   41.9020 C   0  0  0  0  0  0  0  0  0  0  0  0
   48.4110   34.5310   40.5700 C   0  0  0  0  0  0  0  0  0  0  0  0
   47.9990   33.2760   40.1710 N   0  0  0  0  0  0  0  0  0  0  0  0
   46.6690   32.9400   40.3690 C   0  0  0  0  0  0  0  0  0  0  0  0
   45.9100   34.0820   40.9950 C   0  0  0  0  0  0  0  0  0  0  0  0
   47.9540   36.1280   41.8820 H   0  0  0  0  0  0  0  0  0  0  0  0
   48.5940   34.7120   42.7110 H   0  0  0  0  0  0  0  0  0  0  0  0
   48.1350   35.2880   39.7900 H   0  0  0  0  0  0  0  0  0  0  0  0
   49.5250   34.5520   40.6570 H   0  0  0  0  0  0  0  0  0  0  0  0
   48.6630   32.5580   39.8910 H   0  0  0  0  0  0  0  0  0  0  0  0
   46.4390   32.0120   40.9330 H   0  0  0  0  0  0  0  0  0  0  0  0
   46.1770   32.7690   39.3710 H   0  0  0  0  0  0  0  0  0  0  0  0
   45.6700   34.8620   40.2300 H   0  0  0  0  0  0  0  0  0  0  0  0
   44.9280   33.6810   41.3320 H   0  0  0  0  0  0  0  0  0  0  0  0
   46.6740   32.3820   45.9800 C   0  0  0  0  0  0  0  0  0  0  0  0
   46.6360   32.7760   44.6220 C   0  0  0  0  0  0  0  0  0  0  0  0
   47.2760   31.8680   43.8030 C   0  0  0  0  0  0  0  0  0  0  0  0
   47.8870   30.7140   44.1980 C   0  0  0  0  0  0  0  0  0  0  0  0
   47.8860   30.3870   45.5320 C   0  0  0  0  0  0  0  0  0  0  0  0
   47.2720   31.2330   46.4260 C   0  0  0  0  0  0  0  0  0  0  0  0
   48.5590   29.1890   45.6420 O   0  0  0  0  0  0  0  0  0  0  0  0
   48.9760   28.7750   44.3520 C   0  0  2  0  0  0  0  0  0  0  0  0
   48.5380   29.7780   43.4390 O   0  0  0  0  0  0  0  0  0  0  0  0
   46.2640   32.8720   46.8650 H   0  0  0  0  0  0  0  0  0  0  0  0
   47.2550   32.1570   42.7990 H   0  0  0  0  0  0  0  0  0  0  0  0
   47.3290   30.8880   47.4420 H   0  0  0  0  0  0  0  0  0  0  0  0
   50.0750   28.6750   44.3090 H   0  0  0  0  0  0  0  0  0  0  0  0
   48.3360   27.6100   44.0430 O   0  0  0  0  0  0  0  0  0  0  0  0
   45.2720   28.2690   44.1540 Cl  0  0  0  0  0  0  0  0  0  0  0  0
   46.0620   26.8430   44.7790 C   0  0  0  0  0  0  0  0  0  0  0  0
   47.4230   26.8100   44.5950 C   0  0  0  0  0  0  0  0  0  0  0  0
   48.0410   25.6560   45.1040 C   0  0  0  0  0  0  0  0  0  0  0  0
   49.1160   25.4070   45.0750 H   0  0  0  0  0  0  0  0  0  0  0  0
   47.3390   24.6420   45.7350 C   0  0  0  0  0  0  0  0  0  0  0  0
   47.7650   23.7390   46.1420 H   0  0  0  0  0  0  0  0  0  0  0  0
   45.9840   24.7650   45.8720 C   0  0  0  0  0  3  0  0  0  0  0  0
   45.3310   25.8640   45.3970 C   0  0  0  0  0  3  0  0  0  0  0  0
  1  6  1  0  0  0  0
  2  1  2  0  0  0  0
  2  3  1  0  0  0  0
  3 25  1  0  0  0  0
  3  4  2  0  0  0  0
  4  5  1  0  0  0  0
  5  8  1  0  0  0  0
  6  5  2  0  0  0  0
  7  1  1  0  0  0  0
  9  2  1  0  0  0  0
 10  9  1  0  0  0  0
 10 16  1  0  0  0  0
 11 18  1  0  0  0  0
 11 10  1  0  0  0  0
 12 13  1  0  0  0  0
 12 11  1  0  0  0  0
 13 20  1  0  0  0  0
 13 14  1  0  0  0  0
 14 23  1  0  0  0  0
 14  9  1  0  0  0  0
 15 10  1  0  0  0  0
 17 11  1  0  0  0  0
 19 12  1  0  0  0  0
 21 13  1  0  0  0  0
 22 14  1  0  0  0  0
 24 29  1  0  0  0  0
 24 33  1  0  0  0  0
 25 24  2  0  0  0  0
 26 27  2  0  0  0  0
 26 25  1  0  0  0  0
 27 28  1  0  0  0  0
 28 30  1  0  0  0  0
 28 29  2  0  0  0  0
 29 35  1  0  0  0  0
 31 36  1  6  0  0  0
 31 30  1  0  0  0  0
 32 27  1  0  0  0  0
 32 31  1  0  0  0  0
 34 26  1  0  0  0  0
 37 31  1  0  0  0  0
 37 40  1  0  0  0  0
 38 39  1  0  0  0  0
 39 46  1  0  0  0  0
 40 39  2  0  0  0  0
 40 41  1  0  0  0  0
 41 43  2  0  0  0  0
 42 41  1  0  0  0  0
 43 45  1  0  0  0  0
 43 44  1  0  0  0  0
 46 45  2  0  0  0  0
M  END
>  <minimizedAffinity>
-4.79635239

>  <minimizedRMSD>
2.65215445

$$$$
