
 OpenBabel03252505273D

 24 25  0  0  0  0  0  0  0  0999 V2000
   46.7860   31.9990   48.6920 O   0  0  0  0  0  0  0  0  0  0  0  0
   45.8360   32.2070   47.5060 P   0  0  1  0  0  0  0  0  0  0  0  0
   44.4170   32.9690   47.9640 O   0  0  0  0  0  0  0  0  0  0  0  0
   44.5990   33.7370   48.5420 H   0  0  0  0  0  0  0  0  0  0  0  0
   46.6920   33.1270   46.3780 O   0  0  0  0  0  0  0  0  0  0  0  0
   44.5020   35.4720   44.8510 C   0  0  0  0  0  0  0  0  0  0  0  0
   44.9510   35.5710   43.5140 C   0  0  0  0  0  0  0  0  0  0  0  0
   46.0570   34.7760   43.1760 C   0  0  0  0  0  0  0  0  0  0  0  0
   46.6220   33.9780   44.1180 N   0  0  0  0  0  0  0  0  0  0  0  0
   46.1520   33.9210   45.3870 C   0  0  0  0  0  0  0  0  0  0  0  0
   45.0930   34.6710   45.7410 N   0  0  0  0  0  0  0  0  0  0  0  0
   43.6470   36.0830   45.1180 H   0  0  0  0  0  0  0  0  0  0  0  0
   44.5020   36.1990   42.7780 H   0  0  0  0  0  0  0  0  0  0  0  0
   46.4610   34.8010   42.1570 H   0  0  0  0  0  0  0  0  0  0  0  0
   45.4450   30.6670   46.9330 O   0  0  0  0  0  0  0  0  0  0  0  0
   44.8340   28.0000   48.1930 Cl  0  0  0  0  0  0  0  0  0  0  0  0
   46.2990   28.4490   47.3630 C   0  0  0  0  0  0  0  0  0  0  0  0
   46.4460   29.7100   46.8320 C   0  0  0  0  0  0  0  0  0  0  0  0
   47.6490   29.9490   46.1980 C   0  0  0  0  0  0  0  0  0  0  0  0
   47.8460   30.9160   45.7520 H   0  0  0  0  0  0  0  0  0  0  0  0
   48.6700   29.0290   46.0740 C   0  0  0  0  0  0  0  0  0  0  0  0
   49.5920   29.2750   45.5650 H   0  0  0  0  0  0  0  0  0  0  0  0
   48.4790   27.7600   46.6290 C   0  0  0  0  0  3  0  0  0  0  0  0
   47.2840   27.4680   47.2790 C   0  0  0  0  0  3  0  0  0  0  0  0
  2  3  1  0  0  0  0
  2  1  2  1  0  0  0
  3  4  1  0  0  0  0
  5  2  1  0  0  0  0
  6 12  1  0  0  0  0
  6 11  1  0  0  0  0
  7  6  2  0  0  0  0
  8  7  1  0  0  0  0
  8  9  2  0  0  0  0
  9 10  1  0  0  0  0
 10 11  2  0  0  0  0
 10  5  1  0  0  0  0
 13  7  1  0  0  0  0
 14  8  1  0  0  0  0
 15  2  1  0  0  0  0
 17 16  1  0  0  0  0
 18 15  1  0  0  0  0
 18 17  2  0  0  0  0
 19 18  1  0  0  0  0
 20 19  1  0  0  0  0
 21 19  2  0  0  0  0
 21 23  1  0  0  0  0
 22 21  1  0  0  0  0
 23 24  2  0  0  0  0
 24 17  1  0  0  0  0
M  END
>  <minimizedAffinity>
-4.57641411

>  <minimizedRMSD>
2.99197316

$$$$
