
 OpenBabel03242516363D

 44 47  0  0  1  0  0  0  0  0999 V2000
   37.1530   30.0010   40.6690 O   0  0  0  0  0  0  0  0  0  0  0  0
   37.5710   32.3180   40.4170 C   0  0  2  0  0  0  0  0  0  0  0  0
   38.5910   31.8830   39.3320 C   0  0  1  0  0  0  0  0  0  0  0  0
   37.7670   31.8750   38.2460 O   0  0  0  0  0  0  0  0  0  0  0  0
   36.6600   31.1070   38.6610 C   0  0  0  0  0  0  0  0  0  0  0  0
   36.6190   31.1660   40.2050 C   0  0  1  0  0  0  0  0  0  0  0  0
   38.0320   32.3440   41.4000 H   0  0  0  0  0  0  0  0  0  0  0  0
   38.8920   30.8360   39.6110 H   0  0  0  0  0  0  0  0  0  0  0  0
   36.8430   30.0710   38.3140 H   0  0  0  0  0  0  0  0  0  0  0  0
   35.7480   31.5150   38.2240 H   0  0  0  0  0  0  0  0  0  0  0  0
   35.6160   31.3930   40.5980 H   0  0  0  0  0  0  0  0  0  0  0  0
   41.6750   33.9210   38.4440 C   0  0  0  0  0  0  0  0  0  0  0  0
   40.7240   32.9090   38.3270 C   0  0  0  0  0  0  0  0  0  0  0  0
   39.7150   32.8210   39.2560 C   0  0  0  0  0  0  0  0  0  0  0  0
   39.7090   33.7510   40.2610 N   0  0  0  0  0  0  0  0  0  0  0  0
   40.6370   34.7220   40.3580 C   0  0  0  0  0  0  0  0  0  0  0  0
   41.6170   34.8040   39.4510 N   0  0  0  0  0  0  0  0  0  0  0  0
   42.4400   33.9250   37.6730 H   0  0  0  0  0  0  0  0  0  0  0  0
   40.6680   32.1460   37.5630 H   0  0  0  0  0  0  0  0  0  0  0  0
   40.5850   35.4400   41.1830 H   0  0  0  0  0  0  0  0  0  0  0  0
   36.9010   33.4510   40.0260 O   0  0  0  0  0  0  0  0  0  0  0  0
   37.4720   34.0540   39.5130 H   0  0  0  0  0  0  0  0  0  0  0  0
   36.9530   28.7150   42.6340 C   0  0  1  0  0  0  0  0  0  0  0  0
   37.6190   30.0290   41.9810 C   0  0  1  0  0  0  0  0  0  0  0  0
   38.8980   29.6310   42.0190 O   0  0  0  0  0  0  0  0  0  0  0  0
   38.8130   28.4560   41.2280 C   0  0  0  0  0  0  0  0  0  0  0  0
   37.8040   27.6380   42.0240 C   0  0  1  0  0  0  0  0  0  0  0  0
   35.9040   28.7000   42.4060 H   0  0  0  0  0  0  0  0  0  0  0  0
   37.2010   30.7850   42.6300 H   0  0  0  0  0  0  0  0  0  0  0  0
   39.7670   27.9080   41.2330 H   0  0  0  0  0  0  0  0  0  0  0  0
   38.4140   28.6310   40.2330 H   0  0  0  0  0  0  0  0  0  0  0  0
   37.1760   27.0350   41.3330 H   0  0  0  0  0  0  0  0  0  0  0  0
   37.2900   28.7900   43.9920 O   0  0  0  0  0  0  0  0  0  0  0  0
   36.6820   28.2880   44.5580 H   0  0  0  0  0  0  0  0  0  0  0  0
   38.4720   26.8970   42.9610 O   0  0  0  0  0  0  0  0  0  0  0  0
   39.4140   24.4200   41.2290 Cl  0  0  0  0  0  0  0  0  0  0  0  0
   40.3590   25.2870   42.3920 C   0  0  0  0  0  0  0  0  0  0  0  0
   39.6910   26.3240   42.9970 C   0  0  0  0  0  0  0  0  0  0  0  0
   40.4480   27.0320   43.9410 C   0  0  0  0  0  0  0  0  0  0  0  0
   40.1820   27.8840   44.5640 H   0  0  0  0  0  0  0  0  0  0  0  0
   41.7670   26.7110   44.2400 C   0  0  0  0  0  0  0  0  0  0  0  0
   42.4360   27.1810   44.9380 H   0  0  0  0  0  0  0  0  0  0  0  0
   42.3740   25.6420   43.5790 C   0  0  0  0  0  3  0  0  0  0  0  0
   41.6600   24.9300   42.6500 C   0  0  0  0  0  3  0  0  0  0  0  0
  1 24  1  0  0  0  0
  2  7  1  1  0  0  0
  3  8  1  1  0  0  0
  3  2  1  0  0  0  0
  4  5  1  0  0  0  0
  4  3  1  0  0  0  0
  5  6  1  0  0  0  0
  6  2  1  0  0  0  0
  6 11  1  1  0  0  0
  6  1  1  0  0  0  0
  9  5  1  0  0  0  0
 10  5  1  0  0  0  0
 12 17  1  0  0  0  0
 13 12  2  0  0  0  0
 13 14  1  0  0  0  0
 14  3  1  0  0  0  0
 14 15  2  0  0  0  0
 15 16  1  0  0  0  0
 16 20  1  0  0  0  0
 17 16  2  0  0  0  0
 18 12  1  0  0  0  0
 19 13  1  0  0  0  0
 21  2  1  0  0  0  0
 22 21  1  0  0  0  0
 23 28  1  6  0  0  0
 23 33  1  0  0  0  0
 24 25  1  0  0  0  0
 24 29  1  1  0  0  0
 24 23  1  0  0  0  0
 26 30  1  0  0  0  0
 26 25  1  0  0  0  0
 26 27  1  0  0  0  0
 27 32  1  6  0  0  0
 27 23  1  0  0  0  0
 27 35  1  0  0  0  0
 31 26  1  0  0  0  0
 33 34  1  0  0  0  0
 35 38  1  0  0  0  0
 36 37  1  0  0  0  0
 37 44  2  0  0  0  0
 37 38  1  0  0  0  0
 38 39  2  0  0  0  0
 39 41  1  0  0  0  0
 39 40  1  0  0  0  0
 41 42  1  0  0  0  0
 43 41  2  0  0  0  0
 44 43  1  0  0  0  0
M  END
>  <minimizedAffinity>
-6.55943584

$$$$

 OpenBabel03242516363D

 44 47  0  0  1  0  0  0  0  0999 V2000
   38.9450   31.7830   39.7360 O   0  0  0  0  0  0  0  0  0  0  0  0
   40.2200   33.6290   40.4930 C   0  0  2  0  0  0  0  0  0  0  0  0
   41.4460   32.6990   40.2890 C   0  0  1  0  0  0  0  0  0  0  0  0
   41.7280   32.9900   38.9880 O   0  0  0  0  0  0  0  0  0  0  0  0
   40.4910   32.8430   38.3280 C   0  0  0  0  0  0  0  0  0  0  0  0
   39.3840   33.0270   39.3910 C   0  0  1  0  0  0  0  0  0  0  0  0
   39.8020   33.5130   41.4890 H   0  0  0  0  0  0  0  0  0  0  0  0
   41.0430   31.6530   40.3860 H   0  0  0  0  0  0  0  0  0  0  0  0
   40.4700   31.8160   37.9140 H   0  0  0  0  0  0  0  0  0  0  0  0
   40.4080   33.5900   37.5370 H   0  0  0  0  0  0  0  0  0  0  0  0
   38.5880   33.7140   39.0650 H   0  0  0  0  0  0  0  0  0  0  0  0
   44.0190   32.7880   43.0860 C   0  0  0  0  0  0  0  0  0  0  0  0
   42.9500   32.3010   42.3370 C   0  0  0  0  0  0  0  0  0  0  0  0
   42.5130   33.0120   41.2450 C   0  0  0  0  0  0  0  0  0  0  0  0
   43.1680   34.1800   40.9570 N   0  0  0  0  0  0  0  0  0  0  0  0
   44.1990   34.6350   41.6930 C   0  0  0  0  0  0  0  0  0  0  0  0
   44.6220   33.9400   42.7550 N   0  0  0  0  0  0  0  0  0  0  0  0
   44.3070   32.1720   43.9330 H   0  0  0  0  0  0  0  0  0  0  0  0
   42.3900   31.3920   42.5060 H   0  0  0  0  0  0  0  0  0  0  0  0
   44.6870   35.5760   41.4180 H   0  0  0  0  0  0  0  0  0  0  0  0
   40.5140   34.9110   40.1000 O   0  0  0  0  0  0  0  0  0  0  0  0
   41.4410   35.1480   40.2910 H   0  0  0  0  0  0  0  0  0  0  0  0
   36.7700   31.0090   40.2110 C   0  0  1  0  0  0  0  0  0  0  0  0
   38.0760   31.7280   40.8220 C   0  0  1  0  0  0  0  0  0  0  0  0
   38.4540   30.7530   41.6610 O   0  0  0  0  0  0  0  0  0  0  0  0
   38.6410   29.6940   40.7350 C   0  0  0  0  0  0  0  0  0  0  0  0
   37.2500   29.5880   40.1230 C   0  0  1  0  0  0  0  0  0  0  0  0
   36.4980   31.4930   39.2910 H   0  0  0  0  0  0  0  0  0  0  0  0
   37.6350   32.6620   41.1400 H   0  0  0  0  0  0  0  0  0  0  0  0
   38.8510   28.7480   41.2560 H   0  0  0  0  0  0  0  0  0  0  0  0
   39.3520   29.9270   39.9480 H   0  0  0  0  0  0  0  0  0  0  0  0
   37.3270   29.3020   39.0520 H   0  0  0  0  0  0  0  0  0  0  0  0
   35.8240   31.0640   41.2420 O   0  0  0  0  0  0  0  0  0  0  0  0
   34.9120   31.0020   40.9190 H   0  0  0  0  0  0  0  0  0  0  0  0
   36.4970   28.7280   40.8760 O   0  0  0  0  0  0  0  0  0  0  0  0
   36.9850   27.7860   43.8590 Cl  0  0  0  0  0  0  0  0  0  0  0  0
   36.8900   26.7740   42.4580 C   0  0  0  0  0  0  0  0  0  0  0  0
   36.6690   27.4560   41.2860 C   0  0  0  0  0  0  0  0  0  0  0  0
   36.5910   26.6440   40.1450 C   0  0  0  0  0  0  0  0  0  0  0  0
   36.4270   26.9070   39.1020 H   0  0  0  0  0  0  0  0  0  0  0  0
   36.7260   25.2620   40.1950 C   0  0  0  0  0  0  0  0  0  0  0  0
   36.6840   24.5490   39.3930 H   0  0  0  0  0  0  0  0  0  0  0  0
   36.9490   24.6450   41.4280 C   0  0  0  0  0  3  0  0  0  0  0  0
   37.0300   25.4110   42.5610 C   0  0  0  0  0  3  0  0  0  0  0  0
  1 24  1  0  0  0  0
  2  7  1  1  0  0  0
  3  8  1  1  0  0  0
  3  2  1  0  0  0  0
  3 14  1  0  0  0  0
  4  3  1  0  0  0  0
  5  4  1  0  0  0  0
  5  6  1  0  0  0  0
  6 11  1  6  0  0  0
  6  1  1  0  0  0  0
  6  2  1  0  0  0  0
  9  5  1  0  0  0  0
 10  5  1  0  0  0  0
 12 18  1  0  0  0  0
 13 19  1  0  0  0  0
 13 12  2  0  0  0  0
 14 13  1  0  0  0  0
 15 14  2  0  0  0  0
 15 16  1  0  0  0  0
 16 17  2  0  0  0  0
 17 12  1  0  0  0  0
 20 16  1  0  0  0  0
 21 22  1  0  0  0  0
 21  2  1  0  0  0  0
 23 28  1  6  0  0  0
 23 24  1  0  0  0  0
 23 33  1  0  0  0  0
 24 29  1  1  0  0  0
 24 25  1  0  0  0  0
 26 30  1  0  0  0  0
 26 25  1  0  0  0  0
 27 32  1  6  0  0  0
 27 23  1  0  0  0  0
 27 26  1  0  0  0  0
 27 35  1  0  0  0  0
 31 26  1  0  0  0  0
 34 33  1  0  0  0  0
 35 38  1  0  0  0  0
 37 44  1  0  0  0  0
 37 36  1  0  0  0  0
 38 37  2  0  0  0  0
 39 41  2  0  0  0  0
 39 38  1  0  0  0  0
 40 39  1  0  0  0  0
 41 43  1  0  0  0  0
 42 41  1  0  0  0  0
 43 44  2  0  0  0  0
M  END
>  <minimizedAffinity>
-6.25687695

$$$$

 OpenBabel03242516363D

 44 47  0  0  1  0  0  0  0  0999 V2000
   38.0040   30.2070   40.9390 O   0  0  0  0  0  0  0  0  0  0  0  0
   38.7840   32.4390   40.8190 C   0  0  2  0  0  0  0  0  0  0  0  0
   39.2250   32.0690   39.3780 C   0  0  1  0  0  0  0  0  0  0  0  0
   38.0830   32.3920   38.7080 O   0  0  0  0  0  0  0  0  0  0  0  0
   37.0650   31.7350   39.4290 C   0  0  0  0  0  0  0  0  0  0  0  0
   37.5980   31.5060   40.8620 C   0  0  1  0  0  0  0  0  0  0  0  0
   39.5630   32.2070   41.5390 H   0  0  0  0  0  0  0  0  0  0  0  0
   39.3780   30.9550   39.3920 H   0  0  0  0  0  0  0  0  0  0  0  0
   36.8860   30.7690   38.9180 H   0  0  0  0  0  0  0  0  0  0  0  0
   36.1660   32.3520   39.4350 H   0  0  0  0  0  0  0  0  0  0  0  0
   36.8780   31.8020   41.6390 H   0  0  0  0  0  0  0  0  0  0  0  0
   42.1360   33.7500   37.6020 C   0  0  0  0  0  0  0  0  0  0  0  0
   41.0150   32.9360   37.7470 C   0  0  0  0  0  0  0  0  0  0  0  0
   40.4180   32.8230   38.9800 C   0  0  0  0  0  0  0  0  0  0  0  0
   40.9760   33.5320   40.0110 N   0  0  0  0  0  0  0  0  0  0  0  0
   42.0600   34.3140   39.8510 C   0  0  0  0  0  0  0  0  0  0  0  0
   42.6380   34.4210   38.6490 N   0  0  0  0  0  0  0  0  0  0  0  0
   42.5510   33.7880   36.5990 H   0  0  0  0  0  0  0  0  0  0  0  0
   40.5240   32.3510   36.9810 H   0  0  0  0  0  0  0  0  0  0  0  0
   42.4650   34.8600   40.7100 H   0  0  0  0  0  0  0  0  0  0  0  0
   38.2750   33.7130   40.8570 O   0  0  0  0  0  0  0  0  0  0  0  0
   38.7360   34.3090   40.2370 H   0  0  0  0  0  0  0  0  0  0  0  0
   36.5300   28.5560   41.7510 C   0  0  1  0  0  0  0  0  0  0  0  0
   37.7310   29.5580   42.1400 C   0  0  1  0  0  0  0  0  0  0  0  0
   38.6730   28.6370   42.3850 O   0  0  0  0  0  0  0  0  0  0  0  0
   38.7180   27.9910   41.1220 C   0  0  0  0  0  0  0  0  0  0  0  0
   37.2820   27.5010   40.9900 C   0  0  1  0  0  0  0  0  0  0  0  0
   35.7740   29.1010   41.2170 H   0  0  0  0  0  0  0  0  0  0  0  0
   37.2390   30.1390   42.9060 H   0  0  0  0  0  0  0  0  0  0  0  0
   39.3720   27.1060   41.1560 H   0  0  0  0  0  0  0  0  0  0  0  0
   38.9350   28.6640   40.2980 H   0  0  0  0  0  0  0  0  0  0  0  0
   36.9660   27.5350   39.9250 H   0  0  0  0  0  0  0  0  0  0  0  0
   36.1390   27.9880   42.9700 O   0  0  0  0  0  0  0  0  0  0  0  0
   35.2270   27.6550   42.9540 H   0  0  0  0  0  0  0  0  0  0  0  0
   37.1790   26.2620   41.5630 O   0  0  0  0  0  0  0  0  0  0  0  0
   39.4300   24.2880   42.5930 Cl  0  0  0  0  0  0  0  0  0  0  0  0
   38.2590   23.9670   41.3590 C   0  0  0  0  0  0  0  0  0  0  0  0
   37.4000   25.0100   41.1150 C   0  0  0  0  0  0  0  0  0  0  0  0
   36.4480   24.7590   40.1160 C   0  0  0  0  0  0  0  0  0  0  0  0
   35.6560   25.3930   39.7210 H   0  0  0  0  0  0  0  0  0  0  0  0
   36.3800   23.5530   39.4290 C   0  0  0  0  0  0  0  0  0  0  0  0
   35.6980   23.2550   38.6530 H   0  0  0  0  0  0  0  0  0  0  0  0
   37.2920   22.5420   39.7370 C   0  0  0  0  0  3  0  0  0  0  0  0
   38.2340   22.7570   40.7090 C   0  0  0  0  0  3  0  0  0  0  0  0
  1 24  1  0  0  0  0
  2 21  1  0  0  0  0
  2  6  1  0  0  0  0
  2  7  1  1  0  0  0
  3  8  1  6  0  0  0
  3  2  1  0  0  0  0
  4  3  1  0  0  0  0
  4  5  1  0  0  0  0
  5 10  1  0  0  0  0
  5  6  1  0  0  0  0
  6  1  1  0  0  0  0
  6 11  1  1  0  0  0
  9  5  1  0  0  0  0
 12 13  2  0  0  0  0
 12 17  1  0  0  0  0
 13 14  1  0  0  0  0
 14  3  1  0  0  0  0
 14 15  2  0  0  0  0
 16 15  1  0  0  0  0
 16 20  1  0  0  0  0
 17 16  2  0  0  0  0
 18 12  1  0  0  0  0
 19 13  1  0  0  0  0
 22 21  1  0  0  0  0
 23 28  1  6  0  0  0
 23 24  1  0  0  0  0
 23 33  1  0  0  0  0
 24 25  1  0  0  0  0
 24 29  1  1  0  0  0
 26 30  1  0  0  0  0
 26 25  1  0  0  0  0
 27 32  1  6  0  0  0
 27 26  1  0  0  0  0
 27 35  1  0  0  0  0
 27 23  1  0  0  0  0
 31 26  1  0  0  0  0
 34 33  1  0  0  0  0
 37 36  1  0  0  0  0
 38 37  1  0  0  0  0
 38 35  1  0  0  0  0
 39 38  2  0  0  0  0
 40 39  1  0  0  0  0
 41 43  2  0  0  0  0
 41 39  1  0  0  0  0
 42 41  1  0  0  0  0
 43 44  1  0  0  0  0
 44 37  2  0  0  0  0
M  END
>  <minimizedAffinity>
-6.19057226

$$$$

 OpenBabel03242516363D

 44 47  0  0  1  0  0  0  0  0999 V2000
   37.7200   31.0980   40.6780 O   0  0  0  0  0  0  0  0  0  0  0  0
   38.6410   33.1590   39.9610 C   0  0  2  0  0  0  0  0  0  0  0  0
   39.4320   32.3000   38.9390 C   0  0  1  0  0  0  0  0  0  0  0  0
   38.5360   32.2990   37.9120 O   0  0  0  0  0  0  0  0  0  0  0  0
   37.3220   31.9120   38.5150 C   0  0  0  0  0  0  0  0  0  0  0  0
   37.4320   32.2560   40.0190 C   0  0  1  0  0  0  0  0  0  0  0  0
   39.1800   33.2460   40.8990 H   0  0  0  0  0  0  0  0  0  0  0  0
   39.5060   31.2780   39.4040 H   0  0  0  0  0  0  0  0  0  0  0  0
   37.2280   30.8180   38.3690 H   0  0  0  0  0  0  0  0  0  0  0  0
   36.4950   32.4460   38.0460 H   0  0  0  0  0  0  0  0  0  0  0  0
   36.5480   32.7870   40.4020 H   0  0  0  0  0  0  0  0  0  0  0  0
   42.6820   33.5470   37.4100 C   0  0  0  0  0  0  0  0  0  0  0  0
   41.4750   32.8540   37.4780 C   0  0  0  0  0  0  0  0  0  0  0  0
   40.7320   32.9050   38.6340 C   0  0  0  0  0  0  0  0  0  0  0  0
   41.2360   33.6490   39.6680 N   0  0  0  0  0  0  0  0  0  0  0  0
   42.4040   34.3120   39.5830 C   0  0  0  0  0  0  0  0  0  0  0  0
   43.1240   34.2600   38.4560 N   0  0  0  0  0  0  0  0  0  0  0  0
   43.2110   33.4580   36.4660 H   0  0  0  0  0  0  0  0  0  0  0  0
   41.0200   32.2500   36.7050 H   0  0  0  0  0  0  0  0  0  0  0  0
   42.7610   34.8930   40.4400 H   0  0  0  0  0  0  0  0  0  0  0  0
   38.2200   34.3320   39.3850 O   0  0  0  0  0  0  0  0  0  0  0  0
   38.8680   34.6750   38.7410 H   0  0  0  0  0  0  0  0  0  0  0  0
   36.0390   29.4670   40.4130 C   0  0  1  0  0  0  0  0  0  0  0  0
   36.6790   30.5490   41.4210 C   0  0  1  0  0  0  0  0  0  0  0  0
   37.1690   29.6950   42.3300 O   0  0  0  0  0  0  0  0  0  0  0  0
   38.0460   28.9400   41.5090 C   0  0  0  0  0  0  0  0  0  0  0  0
   37.0750   28.3800   40.4770 C   0  0  1  0  0  0  0  0  0  0  0  0
   35.8720   29.9300   39.4580 H   0  0  0  0  0  0  0  0  0  0  0  0
   35.8150   31.1770   41.5840 H   0  0  0  0  0  0  0  0  0  0  0  0
   38.4710   28.0900   42.0640 H   0  0  0  0  0  0  0  0  0  0  0  0
   38.7890   29.5450   40.9970 H   0  0  0  0  0  0  0  0  0  0  0  0
   37.5750   28.3050   39.4870 H   0  0  0  0  0  0  0  0  0  0  0  0
   34.9020   28.9960   41.0800 O   0  0  0  0  0  0  0  0  0  0  0  0
   34.2390   28.6250   40.4770 H   0  0  0  0  0  0  0  0  0  0  0  0
   36.5690   27.1950   40.9380 O   0  0  0  0  0  0  0  0  0  0  0  0
   35.9020   25.7540   38.1990 Cl  0  0  0  0  0  0  0  0  0  0  0  0
   36.6430   25.0380   39.5900 C   0  0  0  0  0  0  0  0  0  0  0  0
   36.8130   25.9030   40.6430 C   0  0  0  0  0  0  0  0  0  0  0  0
   37.4120   25.3310   41.7750 C   0  0  0  0  0  0  0  0  0  0  0  0
   37.6650   25.7710   42.7380 H   0  0  0  0  0  0  0  0  0  0  0  0
   37.8020   23.9980   41.8260 C   0  0  0  0  0  0  0  0  0  0  0  0
   38.2660   23.4600   42.6330 H   0  0  0  0  0  0  0  0  0  0  0  0
   37.5940   23.1840   40.7110 C   0  0  0  0  0  3  0  0  0  0  0  0
   37.0110   23.7140   39.5890 C   0  0  0  0  0  3  0  0  0  0  0  0
  1 24  1  0  0  0  0
  2  6  1  0  0  0  0
  2  7  1  1  0  0  0
  3  8  1  1  0  0  0
  3  2  1  0  0  0  0
  4  5  1  0  0  0  0
  4  3  1  0  0  0  0
  5  6  1  0  0  0  0
  6 11  1  1  0  0  0
  6  1  1  0  0  0  0
  9  5  1  0  0  0  0
 10  5  1  0  0  0  0
 12 13  2  0  0  0  0
 12 17  1  0  0  0  0
 13 14  1  0  0  0  0
 14  3  1  0  0  0  0
 14 15  2  0  0  0  0
 16 15  1  0  0  0  0
 16 20  1  0  0  0  0
 17 16  2  0  0  0  0
 18 12  1  0  0  0  0
 19 13  1  0  0  0  0
 21  2  1  0  0  0  0
 22 21  1  0  0  0  0
 23 28  1  6  0  0  0
 23 27  1  0  0  0  0
 23 33  1  0  0  0  0
 23 24  1  0  0  0  0
 24 29  1  1  0  0  0
 24 25  1  0  0  0  0
 26 30  1  0  0  0  0
 26 25  1  0  0  0  0
 27 32  1  6  0  0  0
 27 35  1  0  0  0  0
 27 26  1  0  0  0  0
 31 26  1  0  0  0  0
 34 33  1  0  0  0  0
 36 37  1  0  0  0  0
 37 38  1  0  0  0  0
 38 35  1  0  0  0  0
 38 39  2  0  0  0  0
 39 41  1  0  0  0  0
 39 40  1  0  0  0  0
 41 42  1  0  0  0  0
 43 41  2  0  0  0  0
 44 37  2  0  0  0  0
 44 43  1  0  0  0  0
M  END
>  <minimizedAffinity>
-6.08796263

$$$$

 OpenBabel03242516363D

 44 47  0  0  1  0  0  0  0  0999 V2000
   39.0180   30.9310   40.9830 O   0  0  0  0  0  0  0  0  0  0  0  0
   40.8750   32.3980   40.9030 C   0  0  2  0  0  0  0  0  0  0  0  0
   40.7440   32.2690   39.3620 C   0  0  1  0  0  0  0  0  0  0  0  0
   39.8770   33.2940   39.1290 O   0  0  0  0  0  0  0  0  0  0  0  0
   38.8290   33.0710   40.0440 C   0  0  0  0  0  0  0  0  0  0  0  0
   39.4060   32.2200   41.1980 C   0  0  1  0  0  0  0  0  0  0  0  0
   41.5120   31.6170   41.3080 H   0  0  0  0  0  0  0  0  0  0  0  0
   40.2450   31.2770   39.1890 H   0  0  0  0  0  0  0  0  0  0  0  0
   38.0430   32.5120   39.5000 H   0  0  0  0  0  0  0  0  0  0  0  0
   38.4520   34.0280   40.4080 H   0  0  0  0  0  0  0  0  0  0  0  0
   39.1420   32.6120   42.1930 H   0  0  0  0  0  0  0  0  0  0  0  0
   44.0720   31.7870   37.5870 C   0  0  0  0  0  0  0  0  0  0  0  0
   42.8780   31.4200   38.2050 C   0  0  0  0  0  0  0  0  0  0  0  0
   42.0510   32.3950   38.7080 C   0  0  0  0  0  0  0  0  0  0  0  0
   42.4610   33.6950   38.5690 N   0  0  0  0  0  0  0  0  0  0  0  0
   43.6180   34.0310   37.9690 C   0  0  0  0  0  0  0  0  0  0  0  0
   44.4210   33.0780   37.4810 N   0  0  0  0  0  0  0  0  0  0  0  0
   44.6720   30.9620   37.2160 H   0  0  0  0  0  0  0  0  0  0  0  0
   42.4950   30.4190   38.3490 H   0  0  0  0  0  0  0  0  0  0  0  0
   43.8970   35.0860   37.8840 H   0  0  0  0  0  0  0  0  0  0  0  0
   41.1880   33.6870   41.2570 O   0  0  0  0  0  0  0  0  0  0  0  0
   41.7730   34.1130   40.6030 H   0  0  0  0  0  0  0  0  0  0  0  0
   37.2590   29.8440   42.1150 C   0  0  1  0  0  0  0  0  0  0  0  0
   38.8410   30.1540   42.1240 C   0  0  1  0  0  0  0  0  0  0  0  0
   39.2790   28.9070   41.8990 O   0  0  0  0  0  0  0  0  0  0  0  0
   38.6510   28.6490   40.6520 C   0  0  0  0  0  0  0  0  0  0  0  0
   37.1830   28.8160   41.0220 C   0  0  1  0  0  0  0  0  0  0  0  0
   36.7210   30.7610   41.9650 H   0  0  0  0  0  0  0  0  0  0  0  0
   38.9200   30.6600   43.0750 H   0  0  0  0  0  0  0  0  0  0  0  0
   38.8020   27.6030   40.3450 H   0  0  0  0  0  0  0  0  0  0  0  0
   38.9020   29.3720   39.8820 H   0  0  0  0  0  0  0  0  0  0  0  0
   36.6230   29.2480   40.1640 H   0  0  0  0  0  0  0  0  0  0  0  0
   37.0250   29.1800   43.3250 O   0  0  0  0  0  0  0  0  0  0  0  0
   36.1030   29.2490   43.6190 H   0  0  0  0  0  0  0  0  0  0  0  0
   36.6930   27.6150   41.4590 O   0  0  0  0  0  0  0  0  0  0  0  0
   36.1860   26.4480   38.5600 Cl  0  0  0  0  0  0  0  0  0  0  0  0
   36.7580   25.5740   39.9410 C   0  0  0  0  0  0  0  0  0  0  0  0
   36.8850   26.3380   41.0750 C   0  0  0  0  0  0  0  0  0  0  0  0
   37.3480   25.6380   42.1990 C   0  0  0  0  0  0  0  0  0  0  0  0
   37.5400   25.9810   43.2140 H   0  0  0  0  0  0  0  0  0  0  0  0
   37.6520   24.2830   42.1680 C   0  0  0  0  0  0  0  0  0  0  0  0
   38.0100   23.6520   42.9610 H   0  0  0  0  0  0  0  0  0  0  0  0
   37.4950   23.5770   40.9730 C   0  0  0  0  0  3  0  0  0  0  0  0
   37.0450   24.2330   39.8570 C   0  0  0  0  0  3  0  0  0  0  0  0
  1  6  1  0  0  0  0
  1 24  1  0  0  0  0
  2  6  1  0  0  0  0
  2 21  1  0  0  0  0
  2  7  1  1  0  0  0
  3  8  1  6  0  0  0
  3  2  1  0  0  0  0
  4  3  1  0  0  0  0
  4  5  1  0  0  0  0
  5 10  1  0  0  0  0
  5  6  1  0  0  0  0
  6 11  1  1  0  0  0
  9  5  1  0  0  0  0
 12 13  1  0  0  0  0
 13 19  1  0  0  0  0
 13 14  2  0  0  0  0
 14  3  1  0  0  0  0
 15 14  1  0  0  0  0
 16 15  2  0  0  0  0
 17 12  2  0  0  0  0
 17 16  1  0  0  0  0
 18 12  1  0  0  0  0
 20 16  1  0  0  0  0
 22 21  1  0  0  0  0
 23 28  1  6  0  0  0
 23 24  1  0  0  0  0
 23 33  1  0  0  0  0
 24 29  1  1  0  0  0
 25 24  1  0  0  0  0
 26 27  1  0  0  0  0
 26 25  1  0  0  0  0
 27 32  1  6  0  0  0
 27 35  1  0  0  0  0
 27 23  1  0  0  0  0
 30 26  1  0  0  0  0
 31 26  1  0  0  0  0
 33 34  1  0  0  0  0
 36 37  1  0  0  0  0
 37 38  1  0  0  0  0
 38 35  1  0  0  0  0
 38 39  2  0  0  0  0
 39 40  1  0  0  0  0
 41 39  1  0  0  0  0
 41 42  1  0  0  0  0
 43 41  2  0  0  0  0
 44 37  2  0  0  0  0
 44 43  1  0  0  0  0
M  END
>  <minimizedAffinity>
-5.89832497

$$$$

 OpenBabel03242516363D

 44 47  0  0  1  0  0  0  0  0999 V2000
   39.2400   31.4240   39.8980 O   0  0  0  0  0  0  0  0  0  0  0  0
   40.1780   33.5920   40.0670 C   0  0  2  0  0  0  0  0  0  0  0  0
   41.4990   32.9120   39.6190 C   0  0  1  0  0  0  0  0  0  0  0  0
   41.3630   33.0350   38.2690 O   0  0  0  0  0  0  0  0  0  0  0  0
   40.0730   32.5310   38.0070 C   0  0  0  0  0  0  0  0  0  0  0  0
   39.2610   32.6560   39.3160 C   0  0  1  0  0  0  0  0  0  0  0  0
   40.0670   33.5570   41.1470 H   0  0  0  0  0  0  0  0  0  0  0  0
   41.4010   31.8360   39.9340 H   0  0  0  0  0  0  0  0  0  0  0  0
   40.1980   31.4670   37.7230 H   0  0  0  0  0  0  0  0  0  0  0  0
   39.6140   33.1040   37.2000 H   0  0  0  0  0  0  0  0  0  0  0  0
   38.2670   33.1020   39.1620 H   0  0  0  0  0  0  0  0  0  0  0  0
   44.0330   34.7760   41.7540 C   0  0  0  0  0  0  0  0  0  0  0  0
   42.8010   34.2270   41.4050 C   0  0  0  0  0  0  0  0  0  0  0  0
   42.6640   33.5910   40.1940 C   0  0  0  0  0  0  0  0  0  0  0  0
   43.7710   33.5380   39.3890 N   0  0  0  0  0  0  0  0  0  0  0  0
   44.9530   34.0750   39.7430 C   0  0  0  0  0  0  0  0  0  0  0  0
   45.0820   34.6930   40.9230 N   0  0  0  0  0  0  0  0  0  0  0  0
   44.0630   35.2620   42.7250 H   0  0  0  0  0  0  0  0  0  0  0  0
   41.8910   34.2320   41.9890 H   0  0  0  0  0  0  0  0  0  0  0  0
   45.8070   34.0030   39.0600 H   0  0  0  0  0  0  0  0  0  0  0  0
   40.0420   34.8230   39.4770 O   0  0  0  0  0  0  0  0  0  0  0  0
   40.9010   35.2740   39.3700 H   0  0  0  0  0  0  0  0  0  0  0  0
   37.5840   30.1410   40.9790 C   0  0  1  0  0  0  0  0  0  0  0  0
   38.6300   31.3550   41.1480 C   0  0  1  0  0  0  0  0  0  0  0  0
   39.4560   30.7720   42.0270 O   0  0  0  0  0  0  0  0  0  0  0  0
   39.8570   29.6390   41.2720 C   0  0  0  0  0  0  0  0  0  0  0  0
   38.5150   28.9630   41.0210 C   0  0  1  0  0  0  0  0  0  0  0  0
   37.0170   30.2860   40.0780 H   0  0  0  0  0  0  0  0  0  0  0  0
   37.9430   32.1510   41.3980 H   0  0  0  0  0  0  0  0  0  0  0  0
   40.4670   28.9560   41.8820 H   0  0  0  0  0  0  0  0  0  0  0  0
   40.3050   29.8920   40.3160 H   0  0  0  0  0  0  0  0  0  0  0  0
   38.5180   28.4740   40.0230 H   0  0  0  0  0  0  0  0  0  0  0  0
   36.8560   30.1370   42.1750 O   0  0  0  0  0  0  0  0  0  0  0  0
   35.9850   29.7180   42.0830 H   0  0  0  0  0  0  0  0  0  0  0  0
   38.2440   28.1110   42.0580 O   0  0  0  0  0  0  0  0  0  0  0  0
   36.8680   25.6250   40.6620 Cl  0  0  0  0  0  0  0  0  0  0  0  0
   38.1140   25.5780   41.8630 C   0  0  0  0  0  0  0  0  0  0  0  0
   38.5250   26.8150   42.2940 C   0  0  0  0  0  0  0  0  0  0  0  0
   39.5340   26.7860   43.2680 C   0  0  0  0  0  0  0  0  0  0  0  0
   40.0420   27.6000   43.7820 H   0  0  0  0  0  0  0  0  0  0  0  0
   40.0730   25.6020   43.7570 C   0  0  0  0  0  0  0  0  0  0  0  0
   40.8420   25.4630   44.4950 H   0  0  0  0  0  0  0  0  0  0  0  0
   39.5990   24.3840   43.2660 C   0  0  0  0  0  3  0  0  0  0  0  0
   38.6140   24.3790   42.3130 C   0  0  0  0  0  3  0  0  0  0  0  0
  1 24  1  0  0  0  0
  2  7  1  1  0  0  0
  3  8  1  1  0  0  0
  3  2  1  0  0  0  0
  3 14  1  0  0  0  0
  4  3  1  0  0  0  0
  5  4  1  0  0  0  0
  5  6  1  0  0  0  0
  6 11  1  6  0  0  0
  6  1  1  0  0  0  0
  6  2  1  0  0  0  0
  9  5  1  0  0  0  0
 10  5  1  0  0  0  0
 12 18  1  0  0  0  0
 13 12  1  0  0  0  0
 13 19  1  0  0  0  0
 14 13  2  0  0  0  0
 15 16  2  0  0  0  0
 15 14  1  0  0  0  0
 16 17  1  0  0  0  0
 17 12  2  0  0  0  0
 20 16  1  0  0  0  0
 21  2  1  0  0  0  0
 22 21  1  0  0  0  0
 23 28  1  6  0  0  0
 23 27  1  0  0  0  0
 23 24  1  0  0  0  0
 23 33  1  0  0  0  0
 24 29  1  1  0  0  0
 24 25  1  0  0  0  0
 26 30  1  0  0  0  0
 26 25  1  0  0  0  0
 27 32  1  6  0  0  0
 27 26  1  0  0  0  0
 27 35  1  0  0  0  0
 31 26  1  0  0  0  0
 34 33  1  0  0  0  0
 35 38  1  0  0  0  0
 36 37  1  0  0  0  0
 37 38  2  0  0  0  0
 37 44  1  0  0  0  0
 38 39  1  0  0  0  0
 39 41  2  0  0  0  0
 39 40  1  0  0  0  0
 41 42  1  0  0  0  0
 43 41  1  0  0  0  0
 44 43  2  0  0  0  0
M  END
>  <minimizedAffinity>
-5.89558744

$$$$

 OpenBabel03242516363D

 44 47  0  0  1  0  0  0  0  0999 V2000
   37.5780   30.0740   40.7930 O   0  0  0  0  0  0  0  0  0  0  0  0
   37.8070   32.3930   40.3720 C   0  0  2  0  0  0  0  0  0  0  0  0
   38.8100   31.9600   39.2700 C   0  0  1  0  0  0  0  0  0  0  0  0
   37.9440   31.8180   38.2270 O   0  0  0  0  0  0  0  0  0  0  0  0
   36.9170   31.0010   38.7440 C   0  0  0  0  0  0  0  0  0  0  0  0
   36.9380   31.1620   40.2810 C   0  0  1  0  0  0  0  0  0  0  0  0
   38.3070   32.5190   41.3280 H   0  0  0  0  0  0  0  0  0  0  0  0
   39.2020   30.9590   39.6020 H   0  0  0  0  0  0  0  0  0  0  0  0
   37.1630   29.9600   38.4560 H   0  0  0  0  0  0  0  0  0  0  0  0
   35.9590   31.3110   38.3250 H   0  0  0  0  0  0  0  0  0  0  0  0
   35.9380   31.3420   40.7050 H   0  0  0  0  0  0  0  0  0  0  0  0
   41.2020   34.9100   39.4490 C   0  0  0  0  0  0  0  0  0  0  0  0
   40.1170   34.1100   39.8010 C   0  0  0  0  0  0  0  0  0  0  0  0
   39.8560   32.9700   39.0790 C   0  0  0  0  0  0  0  0  0  0  0  0
   40.6960   32.6860   38.0360 N   0  0  0  0  0  0  0  0  0  0  0  0
   41.7410   33.4700   37.7100 C   0  0  0  0  0  0  0  0  0  0  0  0
   41.9910   34.5800   38.4150 N   0  0  0  0  0  0  0  0  0  0  0  0
   41.3430   35.7930   40.0650 H   0  0  0  0  0  0  0  0  0  0  0  0
   39.4160   34.2740   40.6080 H   0  0  0  0  0  0  0  0  0  0  0  0
   42.3820   33.1950   36.8660 H   0  0  0  0  0  0  0  0  0  0  0  0
   37.0370   33.4440   39.9400 O   0  0  0  0  0  0  0  0  0  0  0  0
   37.5380   34.0500   39.3630 H   0  0  0  0  0  0  0  0  0  0  0  0
   37.7600   28.4170   42.4600 C   0  0  1  0  0  0  0  0  0  0  0  0
   37.6260   29.9990   42.1830 C   0  0  1  0  0  0  0  0  0  0  0  0
   38.8380   30.3710   42.6180 O   0  0  0  0  0  0  0  0  0  0  0  0
   39.6560   29.6020   41.7490 C   0  0  0  0  0  0  0  0  0  0  0  0
   39.1970   28.1890   42.0850 C   0  0  1  0  0  0  0  0  0  0  0  0
   37.0160   27.8940   41.8890 H   0  0  0  0  0  0  0  0  0  0  0  0
   36.7060   30.1970   42.7130 H   0  0  0  0  0  0  0  0  0  0  0  0
   40.7170   29.6860   42.0310 H   0  0  0  0  0  0  0  0  0  0  0  0
   39.4670   29.7900   40.6970 H   0  0  0  0  0  0  0  0  0  0  0  0
   39.2330   27.5530   41.1750 H   0  0  0  0  0  0  0  0  0  0  0  0
   37.6710   28.2970   43.8520 O   0  0  0  0  0  0  0  0  0  0  0  0
   37.3810   27.4150   44.1350 H   0  0  0  0  0  0  0  0  0  0  0  0
   39.9460   27.7140   43.1270 O   0  0  0  0  0  0  0  0  0  0  0  0
   42.5440   29.4240   43.7180 Cl  0  0  0  0  0  0  0  0  0  0  0  0
   42.4690   27.7130   43.4640 C   0  0  0  0  0  0  0  0  0  0  0  0
   41.2030   27.2370   43.2280 C   0  0  0  0  0  0  0  0  0  0  0  0
   41.1320   25.8510   43.0210 C   0  0  0  0  0  0  0  0  0  0  0  0
   40.2760   25.2110   42.8150 H   0  0  0  0  0  0  0  0  0  0  0  0
   42.2510   25.0280   43.0530 C   0  0  0  0  0  0  0  0  0  0  0  0
   42.3120   23.9640   42.9100 H   0  0  0  0  0  0  0  0  0  0  0  0
   43.5040   25.5920   43.3010 C   0  0  0  0  0  3  0  0  0  0  0  0
   43.6060   26.9430   43.5070 C   0  0  0  0  0  3  0  0  0  0  0  0
  1 24  1  0  0  0  0
  2  7  1  1  0  0  0
  3  8  1  1  0  0  0
  3  2  1  0  0  0  0
  4  5  1  0  0  0  0
  4  3  1  0  0  0  0
  5  6  1  0  0  0  0
  6  2  1  0  0  0  0
  6 11  1  1  0  0  0
  6  1  1  0  0  0  0
  9  5  1  0  0  0  0
 10  5  1  0  0  0  0
 12 13  1  0  0  0  0
 12 18  1  0  0  0  0
 13 19  1  0  0  0  0
 14  3  1  0  0  0  0
 14 13  2  0  0  0  0
 15 14  1  0  0  0  0
 16 15  2  0  0  0  0
 16 17  1  0  0  0  0
 17 12  2  0  0  0  0
 20 16  1  0  0  0  0
 21  2  1  0  0  0  0
 22 21  1  0  0  0  0
 23 28  1  6  0  0  0
 23 33  1  0  0  0  0
 24 23  1  0  0  0  0
 24 25  1  0  0  0  0
 24 29  1  1  0  0  0
 26 30  1  0  0  0  0
 26 27  1  0  0  0  0
 26 25  1  0  0  0  0
 27 32  1  6  0  0  0
 27 23  1  0  0  0  0
 27 35  1  0  0  0  0
 31 26  1  0  0  0  0
 33 34  1  0  0  0  0
 35 38  1  0  0  0  0
 37 44  1  0  0  0  0
 37 36  1  0  0  0  0
 38 37  2  0  0  0  0
 39 41  2  0  0  0  0
 39 38  1  0  0  0  0
 40 39  1  0  0  0  0
 41 43  1  0  0  0  0
 42 41  1  0  0  0  0
 43 44  2  0  0  0  0
M  END
>  <minimizedAffinity>
-5.81580591

$$$$

 OpenBabel03242516363D

 44 47  0  0  1  0  0  0  0  0999 V2000
   37.8820   30.6750   39.7780 O   0  0  0  0  0  0  0  0  0  0  0  0
   39.5590   32.3040   39.4000 C   0  0  2  0  0  0  0  0  0  0  0  0
   39.9800   31.4030   38.2080 C   0  0  1  0  0  0  0  0  0  0  0  0
   39.1880   31.9400   37.2370 O   0  0  0  0  0  0  0  0  0  0  0  0
   37.9020   31.9560   37.8150 C   0  0  0  0  0  0  0  0  0  0  0  0
   38.0920   31.9510   39.3490 C   0  0  1  0  0  0  0  0  0  0  0  0
   40.0610   32.0010   40.3150 H   0  0  0  0  0  0  0  0  0  0  0  0
   39.6320   30.3690   38.4800 H   0  0  0  0  0  0  0  0  0  0  0  0
   37.3900   31.0330   37.4810 H   0  0  0  0  0  0  0  0  0  0  0  0
   37.3650   32.8470   37.4850 H   0  0  0  0  0  0  0  0  0  0  0  0
   37.4760   32.7080   39.8590 H   0  0  0  0  0  0  0  0  0  0  0  0
   43.5170   31.3990   36.8130 C   0  0  0  0  0  0  0  0  0  0  0  0
   42.1380   31.1940   36.8260 C   0  0  0  0  0  0  0  0  0  0  0  0
   41.4220   31.4960   37.9590 C   0  0  0  0  0  0  0  0  0  0  0  0
   42.1230   31.9880   39.0280 N   0  0  0  0  0  0  0  0  0  0  0  0
   43.4550   32.1800   38.9970 C   0  0  0  0  0  0  0  0  0  0  0  0
   44.1490   31.8840   37.8910 N   0  0  0  0  0  0  0  0  0  0  0  0
   44.0120   31.1370   35.8830 H   0  0  0  0  0  0  0  0  0  0  0  0
   41.5240   30.8110   36.0220 H   0  0  0  0  0  0  0  0  0  0  0  0
   43.9660   32.5770   39.8810 H   0  0  0  0  0  0  0  0  0  0  0  0
   39.6510   33.6310   39.0620 O   0  0  0  0  0  0  0  0  0  0  0  0
   40.4000   33.8030   38.4610 H   0  0  0  0  0  0  0  0  0  0  0  0
   36.7450   29.7050   41.6010 C   0  0  1  0  0  0  0  0  0  0  0  0
   38.0960   30.4500   41.1350 C   0  0  1  0  0  0  0  0  0  0  0  0
   38.9430   29.4240   41.2990 O   0  0  0  0  0  0  0  0  0  0  0  0
   38.3570   28.4790   40.4170 C   0  0  0  0  0  0  0  0  0  0  0  0
   36.9650   28.3380   41.0190 C   0  0  1  0  0  0  0  0  0  0  0  0
   35.8960   30.2590   41.2450 H   0  0  0  0  0  0  0  0  0  0  0  0
   38.0580   31.3130   41.7830 H   0  0  0  0  0  0  0  0  0  0  0  0
   38.8580   27.5030   40.4980 H   0  0  0  0  0  0  0  0  0  0  0  0
   38.2620   28.8400   39.3970 H   0  0  0  0  0  0  0  0  0  0  0  0
   36.2190   28.1680   40.2130 H   0  0  0  0  0  0  0  0  0  0  0  0
   36.8690   29.5890   42.9900 O   0  0  0  0  0  0  0  0  0  0  0  0
   36.0140   29.4960   43.4380 H   0  0  0  0  0  0  0  0  0  0  0  0
   36.9900   27.3560   41.9720 O   0  0  0  0  0  0  0  0  0  0  0  0
   39.5990   27.0120   43.7320 Cl  0  0  0  0  0  0  0  0  0  0  0  0
   38.8230   25.7880   42.7840 C   0  0  0  0  0  0  0  0  0  0  0  0
   37.7010   26.2210   42.1190 C   0  0  0  0  0  0  0  0  0  0  0  0
   37.0660   25.2360   41.3490 C   0  0  0  0  0  0  0  0  0  0  0  0
   36.1740   25.2930   40.7270 H   0  0  0  0  0  0  0  0  0  0  0  0
   37.5320   23.9300   41.2650 C   0  0  0  0  0  0  0  0  0  0  0  0
   37.1280   23.1020   40.7110 H   0  0  0  0  0  0  0  0  0  0  0  0
   38.6810   23.5710   41.9730 C   0  0  0  0  0  3  0  0  0  0  0  0
   39.3240   24.5100   42.7360 C   0  0  0  0  0  3  0  0  0  0  0  0
  1 24  1  0  0  0  0
  2  7  1  1  0  0  0
  3  8  1  1  0  0  0
  3  2  1  0  0  0  0
  4  5  1  0  0  0  0
  4  3  1  0  0  0  0
  5  6  1  0  0  0  0
  6  2  1  0  0  0  0
  6  1  1  0  0  0  0
  6 11  1  1  0  0  0
  9  5  1  0  0  0  0
 10  5  1  0  0  0  0
 12 13  2  0  0  0  0
 12 17  1  0  0  0  0
 13 14  1  0  0  0  0
 14  3  1  0  0  0  0
 14 15  2  0  0  0  0
 16 15  1  0  0  0  0
 16 20  1  0  0  0  0
 17 16  2  0  0  0  0
 18 12  1  0  0  0  0
 19 13  1  0  0  0  0
 21  2  1  0  0  0  0
 22 21  1  0  0  0  0
 23 28  1  6  0  0  0
 23 33  1  0  0  0  0
 24 25  1  0  0  0  0
 24 23  1  0  0  0  0
 24 29  1  1  0  0  0
 26 30  1  0  0  0  0
 26 27  1  0  0  0  0
 26 25  1  0  0  0  0
 27 32  1  6  0  0  0
 27 23  1  0  0  0  0
 27 35  1  0  0  0  0
 31 26  1  0  0  0  0
 33 34  1  0  0  0  0
 35 38  1  0  0  0  0
 37 36  1  0  0  0  0
 38 37  2  0  0  0  0
 39 38  1  0  0  0  0
 40 39  1  0  0  0  0
 41 39  2  0  0  0  0
 41 43  1  0  0  0  0
 42 41  1  0  0  0  0
 43 44  2  0  0  0  0
 44 37  1  0  0  0  0
M  END
>  <minimizedAffinity>
-5.81558895

$$$$

 OpenBabel03242516363D

 44 47  0  0  1  0  0  0  0  0999 V2000
   38.7680   31.1650   40.3590 O   0  0  0  0  0  0  0  0  0  0  0  0
   36.4680   30.6260   40.1990 C   0  0  2  0  0  0  0  0  0  0  0  0
   36.9610   29.1820   39.9150 C   0  0  1  0  0  0  0  0  0  0  0  0
   37.0200   28.7150   41.1950 O   0  0  0  0  0  0  0  0  0  0  0  0
   37.7630   29.6950   41.8840 C   0  0  0  0  0  0  0  0  0  0  0  0
   37.6260   31.0130   41.0860 C   0  0  1  0  0  0  0  0  0  0  0  0
   36.3950   31.2010   39.2800 H   0  0  0  0  0  0  0  0  0  0  0  0
   37.9940   29.3000   39.4860 H   0  0  0  0  0  0  0  0  0  0  0  0
   38.8160   29.3510   41.8930 H   0  0  0  0  0  0  0  0  0  0  0  0
   37.3740   29.8030   42.8970 H   0  0  0  0  0  0  0  0  0  0  0  0
   37.3770   31.8750   41.7240 H   0  0  0  0  0  0  0  0  0  0  0  0
   35.0070   26.6860   37.8160 C   0  0  0  0  0  0  0  0  0  0  0  0
   36.0260   27.1510   38.6450 C   0  0  0  0  0  0  0  0  0  0  0  0
   36.0320   28.4690   39.0330 C   0  0  0  0  0  0  0  0  0  0  0  0
   35.0160   29.2610   38.5680 N   0  0  0  0  0  0  0  0  0  0  0  0
   34.0390   28.7950   37.7680 C   0  0  0  0  0  0  0  0  0  0  0  0
   34.0370   27.5100   37.3930 N   0  0  0  0  0  0  0  0  0  0  0  0
   35.0700   25.6350   37.5530 H   0  0  0  0  0  0  0  0  0  0  0  0
   36.8550   26.5840   39.0470 H   0  0  0  0  0  0  0  0  0  0  0  0
   33.2500   29.4720   37.4250 H   0  0  0  0  0  0  0  0  0  0  0  0
   35.3540   30.6090   41.0000 O   0  0  0  0  0  0  0  0  0  0  0  0
   34.7800   29.8430   40.8110 H   0  0  0  0  0  0  0  0  0  0  0  0
   39.2920   33.4600   40.4850 C   0  0  1  0  0  0  0  0  0  0  0  0
   38.8040   32.2710   39.5130 C   0  0  1  0  0  0  0  0  0  0  0  0
   39.8900   32.2100   38.7290 O   0  0  0  0  0  0  0  0  0  0  0  0
   40.8800   31.9190   39.7040 C   0  0  0  0  0  0  0  0  0  0  0  0
   40.7510   33.1260   40.6240 C   0  0  1  0  0  0  0  0  0  0  0  0
   38.6990   33.4510   41.3800 H   0  0  0  0  0  0  0  0  0  0  0  0
   37.8530   32.6740   39.1990 H   0  0  0  0  0  0  0  0  0  0  0  0
   41.8860   31.9420   39.2600 H   0  0  0  0  0  0  0  0  0  0  0  0
   40.6730   31.0200   40.2760 H   0  0  0  0  0  0  0  0  0  0  0  0
   40.9490   32.8240   41.6750 H   0  0  0  0  0  0  0  0  0  0  0  0
   39.2050   34.6140   39.6970 O   0  0  0  0  0  0  0  0  0  0  0  0
   39.1190   35.4240   40.2250 H   0  0  0  0  0  0  0  0  0  0  0  0
   41.5670   34.1250   40.1670 O   0  0  0  0  0  0  0  0  0  0  0  0
   42.6250   33.9100   37.1900 Cl  0  0  0  0  0  0  0  0  0  0  0  0
   43.5860   34.1010   38.6180 C   0  0  0  0  0  0  0  0  0  0  0  0
   42.8570   34.1660   39.7800 C   0  0  0  0  0  0  0  0  0  0  0  0
   43.6280   34.3200   40.9420 C   0  0  0  0  0  0  0  0  0  0  0  0
   43.3250   34.3990   41.9840 H   0  0  0  0  0  0  0  0  0  0  0  0
   45.0150   34.4010   40.9190 C   0  0  0  0  0  0  0  0  0  0  0  0
   45.6990   34.5190   41.7390 H   0  0  0  0  0  0  0  0  0  0  0  0
   45.6810   34.3270   39.6940 C   0  0  0  0  0  3  0  0  0  0  0  0
   44.9560   34.1760   38.5400 C   0  0  0  0  0  3  0  0  0  0  0  0
  1  6  1  0  0  0  0
  2  7  1  6  0  0  0
  2 21  1  0  0  0  0
  2  6  1  0  0  0  0
  3  8  1  6  0  0  0
  3  2  1  0  0  0  0
  3  4  1  0  0  0  0
  4  5  1  0  0  0  0
  5  9  1  0  0  0  0
  5 10  1  0  0  0  0
  6 11  1  1  0  0  0
  6  5  1  0  0  0  0
 12 13  1  0  0  0  0
 13 14  2  0  0  0  0
 13 19  1  0  0  0  0
 14  3  1  0  0  0  0
 15 14  1  0  0  0  0
 16 15  2  0  0  0  0
 17 16  1  0  0  0  0
 17 12  2  0  0  0  0
 18 12  1  0  0  0  0
 20 16  1  0  0  0  0
 22 21  1  0  0  0  0
 23 27  1  0  0  0  0
 23 28  1  1  0  0  0
 24 29  1  6  0  0  0
 24  1  1  0  0  0  0
 24 23  1  0  0  0  0
 25 24  1  0  0  0  0
 25 26  1  0  0  0  0
 26 31  1  0  0  0  0
 26 27  1  0  0  0  0
 27 32  1  1  0  0  0
 30 26  1  0  0  0  0
 33 34  1  0  0  0  0
 33 23  1  0  0  0  0
 35 27  1  0  0  0  0
 36 37  1  0  0  0  0
 37 38  1  0  0  0  0
 38 35  1  0  0  0  0
 38 39  2  0  0  0  0
 39 40  1  0  0  0  0
 41 39  1  0  0  0  0
 41 42  1  0  0  0  0
 43 41  2  0  0  0  0
 44 37  2  0  0  0  0
 44 43  1  0  0  0  0
M  END
>  <minimizedAffinity>
-5.80765581

$$$$
