
 OpenBabel03242523103D

 46 50  0  0  1  0  0  0  0  0999 V2000
   45.1430   36.0260   43.5190 C   0  0  0  0  0  0  0  0  0  0  0  0
   45.9400   34.9040   43.2850 C   0  0  0  0  0  0  0  0  0  0  0  0
   46.0580   33.9600   44.2550 C   0  0  0  0  0  0  0  0  0  0  0  0
   45.3760   34.1800   45.4000 N   0  0  0  0  0  0  0  0  0  0  0  0
   44.6100   35.2410   45.6470 C   0  0  0  0  0  0  0  0  0  0  0  0
   44.5000   36.1540   44.7070 N   0  0  0  0  0  0  0  0  0  0  0  0
   45.0440   36.7830   42.7530 H   0  0  0  0  0  0  0  0  0  0  0  0
   44.0490   35.4550   46.5470 H   0  0  0  0  0  0  0  0  0  0  0  0
   46.5570   34.8100   42.0360 N   0  0  0  0  0  0  0  0  0  0  0  0
   47.8590   35.2460   41.7780 C   0  0  0  0  0  0  0  0  0  0  0  0
   48.3860   34.8770   40.4080 C   0  0  0  0  0  0  0  0  0  0  0  0
   48.0340   33.6260   39.9460 N   0  0  0  0  0  0  0  0  0  0  0  0
   46.7310   33.2030   40.1580 C   0  0  0  0  0  0  0  0  0  0  0  0
   45.9280   34.2620   40.8700 C   0  0  0  0  0  0  0  0  0  0  0  0
   47.8790   36.3680   41.8230 H   0  0  0  0  0  0  0  0  0  0  0  0
   48.6200   34.9460   42.5500 H   0  0  0  0  0  0  0  0  0  0  0  0
   48.0460   35.6610   39.6810 H   0  0  0  0  0  0  0  0  0  0  0  0
   49.4990   34.9580   40.4670 H   0  0  0  0  0  0  0  0  0  0  0  0
   48.7290   32.9650   39.6070 H   0  0  0  0  0  0  0  0  0  0  0  0
   46.5700   32.2330   40.6730 H   0  0  0  0  0  0  0  0  0  0  0  0
   46.2210   33.0620   39.1650 H   0  0  0  0  0  0  0  0  0  0  0  0
   45.6230   35.0690   40.1580 H   0  0  0  0  0  0  0  0  0  0  0  0
   44.9800   33.7860   41.2070 H   0  0  0  0  0  0  0  0  0  0  0  0
   46.5040   32.0470   45.5600 C   0  0  0  0  0  0  0  0  0  0  0  0
   46.7770   32.7600   44.3700 C   0  0  0  0  0  0  0  0  0  0  0  0
   47.6990   32.1070   43.5760 C   0  0  0  0  0  0  0  0  0  0  0  0
   48.3040   30.9170   43.8540 C   0  0  0  0  0  0  0  0  0  0  0  0
   47.9930   30.2720   45.0260 C   0  0  0  0  0  0  0  0  0  0  0  0
   47.0840   30.8480   45.8820 C   0  0  0  0  0  0  0  0  0  0  0  0
   48.7370   29.1120   45.0440 O   0  0  0  0  0  0  0  0  0  0  0  0
   49.5140   29.0450   43.8590 C   0  0  2  0  0  0  0  0  0  0  0  0
   49.2240   30.2230   43.1130 O   0  0  0  0  0  0  0  0  0  0  0  0
   45.8310   32.2870   46.3850 H   0  0  0  0  0  0  0  0  0  0  0  0
   47.9080   32.6330   42.6980 H   0  0  0  0  0  0  0  0  0  0  0  0
   46.9120   30.2660   46.7690 H   0  0  0  0  0  0  0  0  0  0  0  0
   50.5910   29.0020   44.1010 H   0  0  0  0  0  0  0  0  0  0  0  0
   49.1020   27.9670   43.1320 O   0  0  0  0  0  0  0  0  0  0  0  0
   50.0400   28.5150   40.1900 Cl  0  0  0  0  0  0  0  0  0  0  0  0
   50.1350   27.0030   41.0580 C   0  0  0  0  0  0  0  0  0  0  0  0
   49.6490   27.0420   42.3420 C   0  0  0  0  0  0  0  0  0  0  0  0
   49.7330   25.8170   43.0250 C   0  0  0  0  0  0  0  0  0  0  0  0
   49.4100   25.6040   44.0580 H   0  0  0  0  0  0  0  0  0  0  0  0
   50.2620   24.6700   42.4500 C   0  0  0  0  0  0  0  0  0  0  0  0
   50.3490   23.7090   42.9300 H   0  0  0  0  0  0  0  0  0  0  0  0
   50.7210   24.7310   41.1650 C   0  0  0  0  0  3  0  0  0  0  0  0
   50.6640   25.8940   40.4540 C   0  0  0  0  0  3  0  0  0  0  0  0
  1  6  1  0  0  0  0
  2  1  2  0  0  0  0
  2  3  1  0  0  0  0
  3 25  1  0  0  0  0
  3  4  2  0  0  0  0
  4  5  1  0  0  0  0
  5  8  1  0  0  0  0
  6  5  2  0  0  0  0
  7  1  1  0  0  0  0
  9  2  1  0  0  0  0
 10 15  1  0  0  0  0
 10  9  1  0  0  0  0
 10 16  1  0  0  0  0
 11 18  1  0  0  0  0
 11 10  1  0  0  0  0
 12 13  1  0  0  0  0
 12 11  1  0  0  0  0
 13 20  1  0  0  0  0
 13 14  1  0  0  0  0
 14 23  1  0  0  0  0
 14  9  1  0  0  0  0
 17 11  1  0  0  0  0
 19 12  1  0  0  0  0
 21 13  1  0  0  0  0
 22 14  1  0  0  0  0
 24 29  1  0  0  0  0
 24 33  1  0  0  0  0
 25 24  2  0  0  0  0
 26 27  2  0  0  0  0
 26 25  1  0  0  0  0
 27 28  1  0  0  0  0
 28 30  1  0  0  0  0
 28 29  2  0  0  0  0
 29 35  1  0  0  0  0
 31 36  1  1  0  0  0
 31 30  1  0  0  0  0
 32 27  1  0  0  0  0
 32 31  1  0  0  0  0
 34 26  1  0  0  0  0
 37 31  1  0  0  0  0
 38 39  1  0  0  0  0
 39 40  1  0  0  0  0
 40 41  2  0  0  0  0
 40 37  1  0  0  0  0
 41 42  1  0  0  0  0
 43 44  1  0  0  0  0
 43 41  1  0  0  0  0
 45 43  2  0  0  0  0
 46 39  2  0  0  0  0
 46 45  1  0  0  0  0
M  END
>  <minimizedAffinity>
-4.67588282

>  <minimizedRMSD>
0.404098809

$$$$
