
 OpenBabel03252505273D

 24 25  0  0  0  0  0  0  0  0999 V2000
   46.8870   31.3550   48.3700 O   0  0  0  0  0  0  0  0  0  0  0  0
   45.8930   31.8560   47.3140 P   0  0  1  0  0  0  0  0  0  0  0  0
   44.4480   32.3530   47.9990 O   0  0  0  0  0  0  0  0  0  0  0  0
   44.6050   32.9180   48.7830 H   0  0  0  0  0  0  0  0  0  0  0  0
   46.6630   33.1270   46.5130 O   0  0  0  0  0  0  0  0  0  0  0  0
   44.4990   35.4360   44.8970 C   0  0  0  0  0  0  0  0  0  0  0  0
   44.9630   35.4960   43.5630 C   0  0  0  0  0  0  0  0  0  0  0  0
   46.0700   34.6880   43.2600 C   0  0  0  0  0  0  0  0  0  0  0  0
   46.6220   33.9150   44.2300 N   0  0  0  0  0  0  0  0  0  0  0  0
   46.1370   33.8950   45.4940 C   0  0  0  0  0  0  0  0  0  0  0  0
   45.0780   34.6580   45.8160 N   0  0  0  0  0  0  0  0  0  0  0  0
   43.6440   36.0570   45.1370 H   0  0  0  0  0  0  0  0  0  0  0  0
   44.5240   36.1050   42.8050 H   0  0  0  0  0  0  0  0  0  0  0  0
   46.4850   34.6830   42.2450 H   0  0  0  0  0  0  0  0  0  0  0  0
   45.5700   30.5440   46.3020 O   0  0  0  0  0  0  0  0  0  0  0  0
   48.2090   29.2400   45.6630 Cl  0  0  0  0  0  0  0  0  0  0  0  0
   46.8970   28.5430   46.5730 C   0  0  0  0  0  0  0  0  0  0  0  0
   45.7380   29.2550   46.7930 C   0  0  0  0  0  0  0  0  0  0  0  0
   44.7710   28.6000   47.5260 C   0  0  0  0  0  0  0  0  0  0  0  0
   43.8290   29.0900   47.7440 H   0  0  0  0  0  0  0  0  0  0  0  0
   44.8960   27.3230   48.0320 C   0  0  0  0  0  0  0  0  0  0  0  0
   44.1000   26.8610   48.6010 H   0  0  0  0  0  0  0  0  0  0  0  0
   46.0890   26.6360   47.7850 C   0  0  0  0  0  3  0  0  0  0  0  0
   47.0970   27.2520   47.0510 C   0  0  0  0  0  3  0  0  0  0  0  0
  2  3  1  0  0  0  0
  2  1  2  1  0  0  0
  3  4  1  0  0  0  0
  5  2  1  0  0  0  0
  6 12  1  0  0  0  0
  6 11  1  0  0  0  0
  7  6  2  0  0  0  0
  8  7  1  0  0  0  0
  8  9  2  0  0  0  0
  9 10  1  0  0  0  0
 10 11  2  0  0  0  0
 10  5  1  0  0  0  0
 13  7  1  0  0  0  0
 14  8  1  0  0  0  0
 15 18  1  0  0  0  0
 15  2  1  0  0  0  0
 16 17  1  0  0  0  0
 17 18  2  0  0  0  0
 17 24  1  0  0  0  0
 18 19  1  0  0  0  0
 19 20  1  0  0  0  0
 19 21  2  0  0  0  0
 21 22  1  0  0  0  0
 23 21  1  0  0  0  0
 24 23  2  0  0  0  0
M  END
>  <minimizedAffinity>
-4.47799206

>  <minimizedRMSD>
2.13856769

$$$$
