
 OpenBabel03252506213D

 35 37  0  0  0  0  0  0  0  0999 V2000
   44.9970   35.9160   42.7970 C   0  0  0  0  0  0  0  0  0  0  0  0
   43.8930   35.8710   41.9410 C   0  0  0  0  0  0  0  0  0  0  0  0
   43.9200   34.9360   40.8970 C   0  0  0  0  0  0  0  0  0  0  0  0
   45.0040   34.1270   40.7680 N   0  0  0  0  0  0  0  0  0  0  0  0
   46.0510   34.2040   41.6190 C   0  0  0  0  0  0  0  0  0  0  0  0
   46.0520   35.0980   42.6360 N   0  0  0  0  0  0  0  0  0  0  0  0
   43.0350   36.5150   42.0470 H   0  0  0  0  0  0  0  0  0  0  0  0
   43.1200   34.8290   40.1940 H   0  0  0  0  0  0  0  0  0  0  0  0
   48.6620   35.5340   40.8970 Cl  0  0  0  0  0  0  0  0  0  0  0  0
   48.4140   33.8360   41.0740 C   0  0  0  0  0  0  0  0  0  0  0  0
   47.1910   33.2870   41.4070 C   0  0  0  0  0  0  0  0  0  0  0  0
   46.9550   31.9410   41.5560 C   0  0  0  0  0  0  0  0  0  0  0  0
   48.0160   31.1080   41.3580 C   0  0  0  0  0  0  0  0  0  0  0  0
   49.2850   31.5340   41.0220 C   0  0  0  0  0  0  0  0  0  0  0  0
   49.4260   32.9080   40.8930 C   0  0  0  0  0  0  0  0  0  0  0  0
   45.9670   31.5950   41.8190 H   0  0  0  0  0  0  0  0  0  0  0  0
   47.8690   30.0350   41.4670 H   0  0  0  0  0  0  0  0  0  0  0  0
   50.1170   30.8700   40.8670 H   0  0  0  0  0  0  0  0  0  0  0  0
   50.4100   33.2810   40.6300 H   0  0  0  0  0  0  0  0  0  0  0  0
   44.9930   36.8910   43.9020 C   0  0  0  0  0  3  0  0  0  0  0  0
   45.4030   38.1090   43.6450 C   0  0  0  0  0  3  0  0  0  0  0  0
   45.4200   39.1390   44.7310 C   0  0  0  0  0  0  0  0  0  0  0  0
   44.9490   38.7330   45.6500 H   0  0  0  0  0  0  0  0  0  0  0  0
   46.4830   39.4100   44.8910 H   0  0  0  0  0  0  0  0  0  0  0  0
   44.6280   40.2620   44.2890 N   0  0  0  0  0  0  0  0  0  0  0  0
   44.0490   40.2250   43.4190 H   0  0  0  0  0  0  0  0  0  0  0  0
   44.5920   39.9120   47.2260 Cl  0  0  0  0  0  0  0  0  0  0  0  0
   44.5940   41.4730   46.4260 C   0  0  0  0  0  0  0  0  0  0  0  0
   44.6120   41.4890   45.0480 C   0  0  0  0  0  0  0  0  0  0  0  0
   44.6160   42.6980   44.3550 C   0  0  0  0  0  0  0  0  0  0  0  0
   44.6300   42.7070   43.2730 H   0  0  0  0  0  0  0  0  0  0  0  0
   44.6010   43.8740   45.0790 C   0  0  0  0  0  0  0  0  0  0  0  0
   44.6030   44.8470   44.5720 H   0  0  0  0  0  0  0  0  0  0  0  0
   44.5820   43.8450   46.4660 C   0  0  0  0  0  3  0  0  0  0  0  0
   44.5790   42.6460   47.1780 C   0  0  0  0  0  3  0  0  0  0  0  0
  1 20  1  0  0  0  0
  2  7  1  0  0  0  0
  2  1  2  0  0  0  0
  3  2  1  0  0  0  0
  4  3  2  0  0  0  0
  4  5  1  0  0  0  0
  5  6  2  0  0  0  0
  6  1  1  0  0  0  0
  8  3  1  0  0  0  0
  9 10  1  0  0  0  0
 10 11  1  0  0  0  0
 11 12  2  0  0  0  0
 11  5  1  0  0  0  0
 12 16  1  0  0  0  0
 13 17  1  0  0  0  0
 13 12  1  0  0  0  0
 14 13  2  0  0  0  0
 15 14  1  0  0  0  0
 15 10  2  0  0  0  0
 18 14  1  0  0  0  0
 19 15  1  0  0  0  0
 21 20  2  0  0  0  0
 21 22  1  0  0  0  0
 22 24  1  0  0  0  0
 22 23  1  0  0  0  0
 25 22  1  0  0  0  0
 25 29  1  0  0  0  0
 26 25  1  0  0  0  0
 28 35  1  0  0  0  0
 28 27  1  0  0  0  0
 29 28  2  0  0  0  0
 30 29  1  0  0  0  0
 30 32  2  0  0  0  0
 31 30  1  0  0  0  0
 32 34  1  0  0  0  0
 33 32  1  0  0  0  0
 34 35  2  0  0  0  0
M  END
>  <minimizedAffinity>
-2.90468025

>  <minimizedRMSD>
0.681758404

$$$$
