
 OpenBabel03242523133D

 46 50  0  0  1  0  0  0  0  0999 V2000
   44.0840   31.8340   37.6060 C   0  0  0  0  0  0  0  0  0  0  0  0
   42.9680   31.9560   38.4350 C   0  0  0  0  0  0  0  0  0  0  0  0
   41.8140   31.3280   38.0910 C   0  0  0  0  0  0  0  0  0  0  0  0
   41.8330   30.6110   36.9450 N   0  0  0  0  0  0  0  0  0  0  0  0
   42.8840   30.4800   36.1390 C   0  0  0  0  0  0  0  0  0  0  0  0
   43.9990   31.0910   36.4740 N   0  0  0  0  0  0  0  0  0  0  0  0
   45.0070   32.3310   37.8710 H   0  0  0  0  0  0  0  0  0  0  0  0
   42.9420   29.9190   35.2150 H   0  0  0  0  0  0  0  0  0  0  0  0
   43.1200   32.7090   39.6010 N   0  0  0  0  0  0  0  0  0  0  0  0
   42.6260   34.0070   39.7560 C   0  0  0  0  0  0  0  0  0  0  0  0
   42.7420   34.5610   41.1610 C   0  0  0  0  0  0  0  0  0  0  0  0
   42.5000   33.6640   42.1810 N   0  0  0  0  0  0  0  0  0  0  0  0
   43.0240   32.3870   42.0560 C   0  0  0  0  0  0  0  0  0  0  0  0
   43.8030   32.2450   40.7730 C   0  0  0  0  0  0  0  0  0  0  0  0
   43.2220   34.7000   39.1030 H   0  0  0  0  0  0  0  0  0  0  0  0
   41.5710   34.1590   39.3950 H   0  0  0  0  0  0  0  0  0  0  0  0
   43.7660   35.0030   41.2770 H   0  0  0  0  0  0  0  0  0  0  0  0
   42.0180   35.4100   41.2250 H   0  0  0  0  0  0  0  0  0  0  0  0
   41.8320   33.8640   42.9220 H   0  0  0  0  0  0  0  0  0  0  0  0
   42.3320   31.5240   42.1460 H   0  0  0  0  0  0  0  0  0  0  0  0
   43.7720   32.2110   42.8780 H   0  0  0  0  0  0  0  0  0  0  0  0
   44.8100   32.7230   40.8700 H   0  0  0  0  0  0  0  0  0  0  0  0
   43.9990   31.1600   40.6250 H   0  0  0  0  0  0  0  0  0  0  0  0
   39.5080   31.7260   37.7950 C   0  0  0  0  0  0  0  0  0  0  0  0
   40.5300   31.2610   38.6540 C   0  0  0  0  0  0  0  0  0  0  0  0
   40.0300   30.8370   39.8690 C   0  0  0  0  0  0  0  0  0  0  0  0
   38.7200   30.8410   40.2490 C   0  0  0  0  0  0  0  0  0  0  0  0
   37.7750   31.3030   39.3660 C   0  0  0  0  0  0  0  0  0  0  0  0
   38.1790   31.7490   38.1290 C   0  0  0  0  0  0  0  0  0  0  0  0
   36.5570   31.1920   40.0020 O   0  0  0  0  0  0  0  0  0  0  0  0
   36.7620   30.6490   41.2960 C   0  0  2  0  0  0  0  0  0  0  0  0
   38.1640   30.4390   41.4340 O   0  0  0  0  0  0  0  0  0  0  0  0
   39.5700   32.1210   36.7790 H   0  0  0  0  0  0  0  0  0  0  0  0
   40.7820   30.4970   40.5100 H   0  0  0  0  0  0  0  0  0  0  0  0
   37.3650   32.0900   37.5160 H   0  0  0  0  0  0  0  0  0  0  0  0
   36.4010   31.3460   42.0740 H   0  0  0  0  0  0  0  0  0  0  0  0
   36.1410   29.4360   41.3590 O   0  0  0  0  0  0  0  0  0  0  0  0
   36.9570   28.0530   44.0540 Cl  0  0  0  0  0  0  0  0  0  0  0  0
   36.8800   27.3120   42.4750 C   0  0  0  0  0  0  0  0  0  0  0  0
   36.4900   28.1520   41.4610 C   0  0  0  0  0  0  0  0  0  0  0  0
   36.4340   27.5380   40.1980 C   0  0  0  0  0  0  0  0  0  0  0  0
   36.1500   28.0070   39.2400 H   0  0  0  0  0  0  0  0  0  0  0  0
   36.7450   26.2030   39.9960 C   0  0  0  0  0  0  0  0  0  0  0  0
   36.7180   25.6870   39.0500 H   0  0  0  0  0  0  0  0  0  0  0  0
   37.1230   25.4460   41.0690 C   0  0  0  0  0  3  0  0  0  0  0  0
   37.1960   25.9880   42.3180 C   0  0  0  0  0  3  0  0  0  0  0  0
  1  7  1  0  0  0  0
  1  2  1  0  0  0  0
  2  9  1  0  0  0  0
  3  2  2  0  0  0  0
  3 25  1  0  0  0  0
  4  3  1  0  0  0  0
  5  6  1  0  0  0  0
  5  4  2  0  0  0  0
  6  1  2  0  0  0  0
  8  5  1  0  0  0  0
  9 10  1  0  0  0  0
  9 14  1  0  0  0  0
 10 11  1  0  0  0  0
 11 18  1  0  0  0  0
 11 17  1  0  0  0  0
 11 12  1  0  0  0  0
 12 19  1  0  0  0  0
 13 20  1  0  0  0  0
 13 12  1  0  0  0  0
 13 21  1  0  0  0  0
 14 22  1  0  0  0  0
 14 13  1  0  0  0  0
 15 10  1  0  0  0  0
 16 10  1  0  0  0  0
 23 14  1  0  0  0  0
 24 29  2  0  0  0  0
 24 25  1  0  0  0  0
 25 26  2  0  0  0  0
 26 27  1  0  0  0  0
 26 34  1  0  0  0  0
 27 32  1  0  0  0  0
 28 30  1  0  0  0  0
 28 27  2  0  0  0  0
 29 28  1  0  0  0  0
 30 31  1  0  0  0  0
 31 37  1  0  0  0  0
 31 32  1  0  0  0  0
 31 36  1  1  0  0  0
 33 24  1  0  0  0  0
 35 29  1  0  0  0  0
 37 40  1  0  0  0  0
 39 38  1  0  0  0  0
 40 39  2  0  0  0  0
 41 40  1  0  0  0  0
 42 41  1  0  0  0  0
 43 41  2  0  0  0  0
 43 45  1  0  0  0  0
 44 43  1  0  0  0  0
 45 46  2  0  0  0  0
 46 39  1  0  0  0  0
M  END
>  <minimizedAffinity>
-6.62041569

$$$$

 OpenBabel03242523133D

 46 50  0  0  1  0  0  0  0  0999 V2000
   41.3030   32.8950   37.6830 C   0  0  0  0  0  0  0  0  0  0  0  0
   41.0120   32.1980   38.8560 C   0  0  0  0  0  0  0  0  0  0  0  0
   41.8780   31.2470   39.2950 C   0  0  0  0  0  0  0  0  0  0  0  0
   42.9850   31.0450   38.5470 N   0  0  0  0  0  0  0  0  0  0  0  0
   43.2850   31.6970   37.4260 C   0  0  0  0  0  0  0  0  0  0  0  0
   42.4440   32.6150   37.0030 N   0  0  0  0  0  0  0  0  0  0  0  0
   40.6200   33.6530   37.3250 H   0  0  0  0  0  0  0  0  0  0  0  0
   44.1570   31.5660   36.7990 H   0  0  0  0  0  0  0  0  0  0  0  0
   39.8400   32.5450   39.5300 N   0  0  0  0  0  0  0  0  0  0  0  0
   39.6800   33.7320   40.2480 C   0  0  0  0  0  0  0  0  0  0  0  0
   38.2700   33.9850   40.7410 C   0  0  0  0  0  0  0  0  0  0  0  0
   37.2590   33.6280   39.8730 N   0  0  0  0  0  0  0  0  0  0  0  0
   37.3880   32.4300   39.1890 C   0  0  0  0  0  0  0  0  0  0  0  0
   38.6640   31.7250   39.5710 C   0  0  0  0  0  0  0  0  0  0  0  0
   40.3220   33.6860   41.1690 H   0  0  0  0  0  0  0  0  0  0  0  0
   40.0500   34.6570   39.7250 H   0  0  0  0  0  0  0  0  0  0  0  0
   38.1410   33.4490   41.7180 H   0  0  0  0  0  0  0  0  0  0  0  0
   38.2070   35.0780   40.9650 H   0  0  0  0  0  0  0  0  0  0  0  0
   36.5220   34.2800   39.6130 H   0  0  0  0  0  0  0  0  0  0  0  0
   37.3110   32.4450   38.0820 H   0  0  0  0  0  0  0  0  0  0  0  0
   36.5600   31.7340   39.5010 H   0  0  0  0  0  0  0  0  0  0  0  0
   38.5550   31.2240   40.5650 H   0  0  0  0  0  0  0  0  0  0  0  0
   38.8190   30.9020   38.8370 H   0  0  0  0  0  0  0  0  0  0  0  0
   42.0260   30.9950   41.6360 C   0  0  0  0  0  0  0  0  0  0  0  0
   41.8870   30.3580   40.3810 C   0  0  0  0  0  0  0  0  0  0  0  0
   41.7860   28.9870   40.5070 C   0  0  0  0  0  0  0  0  0  0  0  0
   41.8110   28.2780   41.6720 C   0  0  0  0  0  0  0  0  0  0  0  0
   41.9460   28.9580   42.8580 C   0  0  0  0  0  0  0  0  0  0  0  0
   42.0550   30.3290   42.8320 C   0  0  0  0  0  0  0  0  0  0  0  0
   41.9370   28.0080   43.8570 O   0  0  0  0  0  0  0  0  0  0  0  0
   41.7900   26.7250   43.2710 C   0  0  2  0  0  0  0  0  0  0  0  0
   41.7190   26.9250   41.8620 O   0  0  0  0  0  0  0  0  0  0  0  0
   42.1260   32.0550   41.8780 H   0  0  0  0  0  0  0  0  0  0  0  0
   41.6880   28.5100   39.5820 H   0  0  0  0  0  0  0  0  0  0  0  0
   42.1570   30.7630   43.8100 H   0  0  0  0  0  0  0  0  0  0  0  0
   42.6510   26.0800   43.5220 H   0  0  0  0  0  0  0  0  0  0  0  0
   40.6050   26.1930   43.6860 O   0  0  0  0  0  0  0  0  0  0  0  0
   38.4300   28.4330   43.3800 Cl  0  0  0  0  0  0  0  0  0  0  0  0
   38.2730   26.7500   42.9400 C   0  0  0  0  0  0  0  0  0  0  0  0
   39.3870   25.9840   43.1840 C   0  0  0  0  0  0  0  0  0  0  0  0
   39.2420   24.6340   42.8240 C   0  0  0  0  0  0  0  0  0  0  0  0
   39.9940   23.8310   42.9230 H   0  0  0  0  0  0  0  0  0  0  0  0
   38.0780   24.1220   42.2730 C   0  0  0  0  0  0  0  0  0  0  0  0
   37.9170   23.0960   41.9810 H   0  0  0  0  0  0  0  0  0  0  0  0
   37.0210   24.9640   42.0680 C   0  0  0  0  0  3  0  0  0  0  0  0
   37.1040   26.2840   42.3990 C   0  0  0  0  0  3  0  0  0  0  0  0
  1  2  1  0  0  0  0
  2  3  2  0  0  0  0
  2  9  1  0  0  0  0
  3 25  1  0  0  0  0
  4  3  1  0  0  0  0
  5  4  2  0  0  0  0
  6  5  1  0  0  0  0
  6  1  2  0  0  0  0
  7  1  1  0  0  0  0
  8  5  1  0  0  0  0
  9 14  1  0  0  0  0
  9 10  1  0  0  0  0
 10 11  1  0  0  0  0
 10 15  1  0  0  0  0
 11 18  1  0  0  0  0
 11 17  1  0  0  0  0
 12 11  1  0  0  0  0
 13 21  1  0  0  0  0
 13 14  1  0  0  0  0
 13 12  1  0  0  0  0
 14 22  1  0  0  0  0
 16 10  1  0  0  0  0
 19 12  1  0  0  0  0
 20 13  1  0  0  0  0
 23 14  1  0  0  0  0
 24 33  1  0  0  0  0
 24 29  1  0  0  0  0
 25 26  1  0  0  0  0
 25 24  2  0  0  0  0
 26 27  2  0  0  0  0
 27 32  1  0  0  0  0
 27 28  1  0  0  0  0
 28 30  1  0  0  0  0
 29 28  2  0  0  0  0
 29 35  1  0  0  0  0
 31 36  1  1  0  0  0
 31 37  1  0  0  0  0
 31 30  1  0  0  0  0
 32 31  1  0  0  0  0
 34 26  1  0  0  0  0
 39 40  1  0  0  0  0
 39 38  1  0  0  0  0
 40 37  1  0  0  0  0
 41 42  1  0  0  0  0
 41 40  2  0  0  0  0
 43 41  1  0  0  0  0
 44 43  1  0  0  0  0
 45 43  2  0  0  0  0
 45 46  1  0  0  0  0
 46 39  2  0  0  0  0
M  END
>  <minimizedAffinity>
-6.20150995

$$$$

 OpenBabel03242523133D

 46 50  0  0  1  0  0  0  0  0999 V2000
   41.4210   33.5390   40.0340 C   0  0  0  0  0  0  0  0  0  0  0  0
   40.6640   32.4140   40.3610 C   0  0  0  0  0  0  0  0  0  0  0  0
   41.0490   31.6350   41.4050 C   0  0  0  0  0  0  0  0  0  0  0  0
   42.1620   32.0190   42.0680 N   0  0  0  0  0  0  0  0  0  0  0  0
   42.9010   33.0870   41.7760 C   0  0  0  0  0  0  0  0  0  0  0  0
   42.5260   33.8370   40.7630 N   0  0  0  0  0  0  0  0  0  0  0  0
   41.1230   34.1650   39.2030 H   0  0  0  0  0  0  0  0  0  0  0  0
   43.7960   33.4280   42.2780 H   0  0  0  0  0  0  0  0  0  0  0  0
   39.5230   32.1690   39.5950 N   0  0  0  0  0  0  0  0  0  0  0  0
   39.4430   31.1780   38.6140 C   0  0  0  0  0  0  0  0  0  0  0  0
   38.0570   30.9690   38.0410 C   0  0  0  0  0  0  0  0  0  0  0  0
   37.0170   31.0520   38.9420 N   0  0  0  0  0  0  0  0  0  0  0  0
   37.0650   32.0600   39.8920 C   0  0  0  0  0  0  0  0  0  0  0  0
   38.2990   32.9070   39.7190 C   0  0  0  0  0  0  0  0  0  0  0  0
   40.0920   31.4770   37.7460 H   0  0  0  0  0  0  0  0  0  0  0  0
   39.8640   30.1780   38.9150 H   0  0  0  0  0  0  0  0  0  0  0  0
   37.9060   31.7120   37.2140 H   0  0  0  0  0  0  0  0  0  0  0  0
   38.0640   29.9570   37.5640 H   0  0  0  0  0  0  0  0  0  0  0  0
   36.3190   30.3160   39.0240 H   0  0  0  0  0  0  0  0  0  0  0  0
   36.9770   31.7790   40.9620 H   0  0  0  0  0  0  0  0  0  0  0  0
   36.1990   32.7610   39.7320 H   0  0  0  0  0  0  0  0  0  0  0  0
   38.1700   33.6210   38.8680 H   0  0  0  0  0  0  0  0  0  0  0  0
   38.3950   33.5410   40.6300 H   0  0  0  0  0  0  0  0  0  0  0  0
   39.2210   30.5450   42.4210 C   0  0  0  0  0  0  0  0  0  0  0  0
   40.5590   30.4500   41.9760 C   0  0  0  0  0  0  0  0  0  0  0  0
   41.0900   29.1950   42.2010 C   0  0  0  0  0  0  0  0  0  0  0  0
   40.4490   28.1380   42.7770 C   0  0  0  0  0  0  0  0  0  0  0  0
   39.1480   28.2950   43.1860 C   0  0  0  0  0  0  0  0  0  0  0  0
   38.5340   29.5120   43.0040 C   0  0  0  0  0  0  0  0  0  0  0  0
   38.7570   27.0870   43.7210 O   0  0  0  0  0  0  0  0  0  0  0  0
   39.8380   26.1740   43.6340 C   0  0  2  0  0  0  0  0  0  0  0  0
   40.9200   26.8770   43.0290 O   0  0  0  0  0  0  0  0  0  0  0  0
   38.5270   31.3870   42.3870 H   0  0  0  0  0  0  0  0  0  0  0  0
   42.0820   29.1210   41.8780 H   0  0  0  0  0  0  0  0  0  0  0  0
   37.5190   29.5310   43.3580 H   0  0  0  0  0  0  0  0  0  0  0  0
   40.1290   25.8160   44.6380 H   0  0  0  0  0  0  0  0  0  0  0  0
   39.4770   25.1530   42.8040 O   0  0  0  0  0  0  0  0  0  0  0  0
   40.3640   25.9500   39.9020 Cl  0  0  0  0  0  0  0  0  0  0  0  0
   38.8450   25.2310   40.3750 C   0  0  0  0  0  0  0  0  0  0  0  0
   38.7170   24.9830   41.7210 C   0  0  0  0  0  0  0  0  0  0  0  0
   37.4890   24.4050   42.0830 C   0  0  0  0  0  0  0  0  0  0  0  0
   37.1590   24.1180   43.0970 H   0  0  0  0  0  0  0  0  0  0  0  0
   36.4950   24.1120   41.1630 C   0  0  0  0  0  0  0  0  0  0  0  0
   35.5380   23.6700   41.3890 H   0  0  0  0  0  0  0  0  0  0  0  0
   36.7150   24.3950   39.8440 C   0  0  0  0  0  3  0  0  0  0  0  0
   37.8880   24.9570   39.4350 C   0  0  0  0  0  3  0  0  0  0  0  0
  1  2  2  0  0  0  0
  1  6  1  0  0  0  0
  2  3  1  0  0  0  0
  3 25  1  0  0  0  0
  3  4  2  0  0  0  0
  5  4  1  0  0  0  0
  5  8  1  0  0  0  0
  6  5  2  0  0  0  0
  7  1  1  0  0  0  0
  9 14  1  0  0  0  0
  9  2  1  0  0  0  0
 10 16  1  0  0  0  0
 10  9  1  0  0  0  0
 11 10  1  0  0  0  0
 11 12  1  0  0  0  0
 12 19  1  0  0  0  0
 12 13  1  0  0  0  0
 13 20  1  0  0  0  0
 14 13  1  0  0  0  0
 14 23  1  0  0  0  0
 15 10  1  0  0  0  0
 17 11  1  0  0  0  0
 18 11  1  0  0  0  0
 21 13  1  0  0  0  0
 22 14  1  0  0  0  0
 24 29  1  0  0  0  0
 25 26  1  0  0  0  0
 25 24  2  0  0  0  0
 26 27  2  0  0  0  0
 27 32  1  0  0  0  0
 27 28  1  0  0  0  0
 28 30  1  0  0  0  0
 29 28  2  0  0  0  0
 29 35  1  0  0  0  0
 31 30  1  0  0  0  0
 31 36  1  1  0  0  0
 32 31  1  0  0  0  0
 33 24  1  0  0  0  0
 34 26  1  0  0  0  0
 37 31  1  0  0  0  0
 38 39  1  0  0  0  0
 39 40  1  0  0  0  0
 40 41  2  0  0  0  0
 40 37  1  0  0  0  0
 41 42  1  0  0  0  0
 43 44  1  0  0  0  0
 43 41  1  0  0  0  0
 45 43  2  0  0  0  0
 46 45  1  0  0  0  0
 46 39  2  0  0  0  0
M  END
>  <minimizedAffinity>
-6.1646719

$$$$

 OpenBabel03242523133D

 46 50  0  0  1  0  0  0  0  0999 V2000
   40.9700   33.6200   39.2260 C   0  0  0  0  0  0  0  0  0  0  0  0
   40.4500   32.3560   39.5060 C   0  0  0  0  0  0  0  0  0  0  0  0
   39.3240   32.2530   40.2590 C   0  0  0  0  0  0  0  0  0  0  0  0
   38.7750   33.4110   40.6880 N   0  0  0  0  0  0  0  0  0  0  0  0
   39.2510   34.6280   40.4350 C   0  0  0  0  0  0  0  0  0  0  0  0
   40.3430   34.7240   39.7070 N   0  0  0  0  0  0  0  0  0  0  0  0
   41.8670   33.7130   38.6280 H   0  0  0  0  0  0  0  0  0  0  0  0
   38.8450   35.5770   40.7580 H   0  0  0  0  0  0  0  0  0  0  0  0
   41.1190   31.2580   38.9640 N   0  0  0  0  0  0  0  0  0  0  0  0
   42.1780   30.6020   39.5980 C   0  0  0  0  0  0  0  0  0  0  0  0
   42.6290   29.3280   38.9150 C   0  0  0  0  0  0  0  0  0  0  0  0
   41.6250   28.5440   38.3850 N   0  0  0  0  0  0  0  0  0  0  0  0
   40.5930   29.1830   37.7150 C   0  0  0  0  0  0  0  0  0  0  0  0
   40.8060   30.6750   37.6910 C   0  0  0  0  0  0  0  0  0  0  0  0
   43.0730   31.2810   39.6000 H   0  0  0  0  0  0  0  0  0  0  0  0
   42.0160   30.3880   40.6910 H   0  0  0  0  0  0  0  0  0  0  0  0
   43.3620   29.6030   38.1120 H   0  0  0  0  0  0  0  0  0  0  0  0
   43.1970   28.7460   39.6810 H   0  0  0  0  0  0  0  0  0  0  0  0
   41.5450   27.5540   38.6060 H   0  0  0  0  0  0  0  0  0  0  0  0
   39.5510   28.9800   38.0390 H   0  0  0  0  0  0  0  0  0  0  0  0
   40.6000   28.8650   36.6350 H   0  0  0  0  0  0  0  0  0  0  0  0
   41.5690   30.9510   36.9210 H   0  0  0  0  0  0  0  0  0  0  0  0
   39.8530   31.1390   37.3490 H   0  0  0  0  0  0  0  0  0  0  0  0
   37.5600   30.7400   39.8560 C   0  0  0  0  0  0  0  0  0  0  0  0
   38.5680   31.1760   40.7470 C   0  0  0  0  0  0  0  0  0  0  0  0
   38.5850   30.4340   41.9110 C   0  0  0  0  0  0  0  0  0  0  0  0
   37.7570   29.3940   42.2180 C   0  0  0  0  0  0  0  0  0  0  0  0
   36.8000   29.0170   41.3070 C   0  0  0  0  0  0  0  0  0  0  0  0
   36.7060   29.7010   40.1180 C   0  0  0  0  0  0  0  0  0  0  0  0
   36.1210   27.9580   41.8690 O   0  0  0  0  0  0  0  0  0  0  0  0
   36.6740   27.6810   43.1450 C   0  0  2  0  0  0  0  0  0  0  0  0
   37.7220   28.6240   43.3500 O   0  0  0  0  0  0  0  0  0  0  0  0
   37.2900   31.1100   38.8650 H   0  0  0  0  0  0  0  0  0  0  0  0
   39.3250   30.7560   42.5750 H   0  0  0  0  0  0  0  0  0  0  0  0
   35.9270   29.3300   39.4770 H   0  0  0  0  0  0  0  0  0  0  0  0
   35.9080   27.7830   43.9340 H   0  0  0  0  0  0  0  0  0  0  0  0
   37.2250   26.4330   43.1150 O   0  0  0  0  0  0  0  0  0  0  0  0
   40.1210   26.8140   41.9720 Cl  0  0  0  0  0  0  0  0  0  0  0  0
   38.9890   25.5490   41.5620 C   0  0  0  0  0  0  0  0  0  0  0  0
   37.7820   25.6210   42.2150 C   0  0  0  0  0  0  0  0  0  0  0  0
   36.8850   24.5960   41.8740 C   0  0  0  0  0  0  0  0  0  0  0  0
   35.8630   24.4450   42.2640 H   0  0  0  0  0  0  0  0  0  0  0  0
   37.1910   23.6010   40.9580 C   0  0  0  0  0  0  0  0  0  0  0  0
   36.5390   22.7950   40.6620 H   0  0  0  0  0  0  0  0  0  0  0  0
   38.4190   23.6140   40.3590 C   0  0  0  0  0  3  0  0  0  0  0  0
   39.3310   24.5850   40.6520 C   0  0  0  0  0  3  0  0  0  0  0  0
  1  2  2  0  0  0  0
  1  6  1  0  0  0  0
  2  3  1  0  0  0  0
  3  4  2  0  0  0  0
  3 25  1  0  0  0  0
  5  4  1  0  0  0  0
  5  8  1  0  0  0  0
  6  5  2  0  0  0  0
  7  1  1  0  0  0  0
  9  2  1  0  0  0  0
  9 10  1  0  0  0  0
 10 15  1  0  0  0  0
 10 16  1  0  0  0  0
 11 10  1  0  0  0  0
 11 18  1  0  0  0  0
 12 19  1  0  0  0  0
 12 11  1  0  0  0  0
 13 20  1  0  0  0  0
 13 12  1  0  0  0  0
 14 13  1  0  0  0  0
 14  9  1  0  0  0  0
 17 11  1  0  0  0  0
 21 13  1  0  0  0  0
 22 14  1  0  0  0  0
 23 14  1  0  0  0  0
 24 29  2  0  0  0  0
 24 25  1  0  0  0  0
 25 26  2  0  0  0  0
 26 27  1  0  0  0  0
 26 34  1  0  0  0  0
 27 32  1  0  0  0  0
 28 30  1  0  0  0  0
 28 27  2  0  0  0  0
 29 28  1  0  0  0  0
 30 31  1  0  0  0  0
 31 32  1  0  0  0  0
 31 36  1  1  0  0  0
 33 24  1  0  0  0  0
 35 29  1  0  0  0  0
 37 31  1  0  0  0  0
 39 38  1  0  0  0  0
 39 40  1  0  0  0  0
 40 37  1  0  0  0  0
 41 40  2  0  0  0  0
 41 42  1  0  0  0  0
 43 41  1  0  0  0  0
 44 43  1  0  0  0  0
 45 46  1  0  0  0  0
 45 43  2  0  0  0  0
 46 39  2  0  0  0  0
M  END
>  <minimizedAffinity>
-6.13567066

$$$$

 OpenBabel03242523133D

 46 50  0  0  1  0  0  0  0  0999 V2000
   37.3410   33.5200   39.6290 C   0  0  0  0  0  0  0  0  0  0  0  0
   37.7000   32.2040   39.9240 C   0  0  0  0  0  0  0  0  0  0  0  0
   38.9030   31.9590   40.5060 C   0  0  0  0  0  0  0  0  0  0  0  0
   39.6800   33.0330   40.7660 N   0  0  0  0  0  0  0  0  0  0  0  0
   39.3610   34.2960   40.4940 C   0  0  0  0  0  0  0  0  0  0  0  0
   38.1960   34.5300   39.9290 N   0  0  0  0  0  0  0  0  0  0  0  0
   36.3860   33.7250   39.1650 H   0  0  0  0  0  0  0  0  0  0  0  0
   39.9510   35.1820   40.6840 H   0  0  0  0  0  0  0  0  0  0  0  0
   36.7720   31.2070   39.6200 N   0  0  0  0  0  0  0  0  0  0  0  0
   36.5840   30.6860   38.3370 C   0  0  0  0  0  0  0  0  0  0  0  0
   35.6600   29.4880   38.2730 C   0  0  0  0  0  0  0  0  0  0  0  0
   35.7720   28.5880   39.3120 N   0  0  0  0  0  0  0  0  0  0  0  0
   35.9140   29.0960   40.5940 C   0  0  0  0  0  0  0  0  0  0  0  0
   35.8970   30.6030   40.5830 C   0  0  0  0  0  0  0  0  0  0  0  0
   36.1080   31.4750   37.6940 H   0  0  0  0  0  0  0  0  0  0  0  0
   37.5310   30.4410   37.7820 H   0  0  0  0  0  0  0  0  0  0  0  0
   34.6050   29.8650   38.2070 H   0  0  0  0  0  0  0  0  0  0  0  0
   35.8770   28.9750   37.3040 H   0  0  0  0  0  0  0  0  0  0  0  0
   35.9100   27.5930   39.1460 H   0  0  0  0  0  0  0  0  0  0  0  0
   36.7800   28.7570   41.2010 H   0  0  0  0  0  0  0  0  0  0  0  0
   35.0240   28.7930   41.2130 H   0  0  0  0  0  0  0  0  0  0  0  0
   34.8510   30.9840   40.4740 H   0  0  0  0  0  0  0  0  0  0  0  0
   36.2370   30.9440   41.5870 H   0  0  0  0  0  0  0  0  0  0  0  0
   40.1870   30.8920   42.1730 C   0  0  0  0  0  0  0  0  0  0  0  0
   39.5800   30.7940   40.8990 C   0  0  0  0  0  0  0  0  0  0  0  0
   39.7900   29.5580   40.3220 C   0  0  0  0  0  0  0  0  0  0  0  0
   40.4870   28.5190   40.8670 C   0  0  0  0  0  0  0  0  0  0  0  0
   41.0500   28.6780   42.1090 C   0  0  0  0  0  0  0  0  0  0  0  0
   40.8950   29.8780   42.7630 C   0  0  0  0  0  0  0  0  0  0  0  0
   41.6800   27.4900   42.4080 O   0  0  0  0  0  0  0  0  0  0  0  0
   41.4960   26.5870   41.3300 C   0  0  2  0  0  0  0  0  0  0  0  0
   40.7310   27.2760   40.3460 O   0  0  0  0  0  0  0  0  0  0  0  0
   40.2050   31.7240   42.8800 H   0  0  0  0  0  0  0  0  0  0  0  0
   39.3480   29.4810   39.3780 H   0  0  0  0  0  0  0  0  0  0  0  0
   41.3730   29.9000   43.7250 H   0  0  0  0  0  0  0  0  0  0  0  0
   42.4700   26.2780   40.9090 H   0  0  0  0  0  0  0  0  0  0  0  0
   40.7630   25.5260   41.7750 O   0  0  0  0  0  0  0  0  0  0  0  0
   38.4550   26.8750   43.4160 Cl  0  0  0  0  0  0  0  0  0  0  0  0
   38.3150   25.5110   42.3350 C   0  0  0  0  0  0  0  0  0  0  0  0
   39.4920   25.1220   41.7420 C   0  0  0  0  0  0  0  0  0  0  0  0
   39.3600   24.0240   40.8750 C   0  0  0  0  0  0  0  0  0  0  0  0
   40.1590   23.5360   40.2900 H   0  0  0  0  0  0  0  0  0  0  0  0
   38.1500   23.3910   40.6410 C   0  0  0  0  0  0  0  0  0  0  0  0
   37.9970   22.5470   39.9880 H   0  0  0  0  0  0  0  0  0  0  0  0
   37.0320   23.8510   41.2780 C   0  0  0  0  0  3  0  0  0  0  0  0
   37.1000   24.9130   42.1310 C   0  0  0  0  0  3  0  0  0  0  0  0
  1  2  2  0  0  0  0
  1  6  1  0  0  0  0
  2  3  1  0  0  0  0
  3  4  2  0  0  0  0
  3 25  1  0  0  0  0
  5  8  1  0  0  0  0
  5  4  1  0  0  0  0
  6  5  2  0  0  0  0
  7  1  1  0  0  0  0
  9  2  1  0  0  0  0
  9 14  1  0  0  0  0
 10  9  1  0  0  0  0
 11 10  1  0  0  0  0
 11 12  1  0  0  0  0
 12 13  1  0  0  0  0
 13 20  1  0  0  0  0
 13 21  1  0  0  0  0
 14 13  1  0  0  0  0
 14 23  1  0  0  0  0
 15 10  1  0  0  0  0
 16 10  1  0  0  0  0
 17 11  1  0  0  0  0
 18 11  1  0  0  0  0
 19 12  1  0  0  0  0
 22 14  1  0  0  0  0
 24 29  1  0  0  0  0
 24 33  1  0  0  0  0
 25 24  2  0  0  0  0
 26 27  2  0  0  0  0
 26 25  1  0  0  0  0
 27 28  1  0  0  0  0
 28 30  1  0  0  0  0
 28 29  2  0  0  0  0
 29 35  1  0  0  0  0
 31 36  1  6  0  0  0
 31 37  1  0  0  0  0
 31 30  1  0  0  0  0
 32 27  1  0  0  0  0
 32 31  1  0  0  0  0
 34 26  1  0  0  0  0
 39 38  1  0  0  0  0
 40 37  1  0  0  0  0
 40 39  2  0  0  0  0
 41 40  1  0  0  0  0
 42 41  1  0  0  0  0
 43 41  2  0  0  0  0
 43 45  1  0  0  0  0
 44 43  1  0  0  0  0
 45 46  2  0  0  0  0
 46 39  1  0  0  0  0
M  END
>  <minimizedAffinity>
-6.01144314

$$$$

 OpenBabel03242523133D

 46 50  0  0  1  0  0  0  0  0999 V2000
   37.3200   32.4910   38.8950 C   0  0  0  0  0  0  0  0  0  0  0  0
   37.4970   31.1570   39.2640 C   0  0  0  0  0  0  0  0  0  0  0  0
   38.2330   30.8660   40.3680 C   0  0  0  0  0  0  0  0  0  0  0  0
   38.7470   31.9150   41.0460 N   0  0  0  0  0  0  0  0  0  0  0  0
   38.5920   33.1950   40.7160 C   0  0  0  0  0  0  0  0  0  0  0  0
   37.8810   33.4740   39.6450 N   0  0  0  0  0  0  0  0  0  0  0  0
   36.7360   32.7340   38.0170 H   0  0  0  0  0  0  0  0  0  0  0  0
   38.9860   34.0630   41.2290 H   0  0  0  0  0  0  0  0  0  0  0  0
   36.8750   30.1900   38.4730 N   0  0  0  0  0  0  0  0  0  0  0  0
   35.6330   29.6240   38.7720 C   0  0  0  0  0  0  0  0  0  0  0  0
   35.0680   28.7350   37.6840 C   0  0  0  0  0  0  0  0  0  0  0  0
   35.2710   29.1690   36.3900 N   0  0  0  0  0  0  0  0  0  0  0  0
   36.5150   29.6910   36.0730 C   0  0  0  0  0  0  0  0  0  0  0  0
   37.4360   29.6580   37.2650 C   0  0  0  0  0  0  0  0  0  0  0  0
   35.7450   28.9660   39.6760 H   0  0  0  0  0  0  0  0  0  0  0  0
   34.8410   30.3580   39.0860 H   0  0  0  0  0  0  0  0  0  0  0  0
   35.4980   27.7080   37.8140 H   0  0  0  0  0  0  0  0  0  0  0  0
   33.9720   28.6510   37.8850 H   0  0  0  0  0  0  0  0  0  0  0  0
   34.5030   29.2580   35.7280 H   0  0  0  0  0  0  0  0  0  0  0  0
   36.5600   30.7040   35.6200 H   0  0  0  0  0  0  0  0  0  0  0  0
   37.0060   29.0360   35.3000 H   0  0  0  0  0  0  0  0  0  0  0  0
   37.8340   28.6250   37.4260 H   0  0  0  0  0  0  0  0  0  0  0  0
   38.3210   30.2860   37.0160 H   0  0  0  0  0  0  0  0  0  0  0  0
   38.3730   29.6470   42.3830 C   0  0  0  0  0  0  0  0  0  0  0  0
   38.6310   29.6740   40.9930 C   0  0  0  0  0  0  0  0  0  0  0  0
   39.2200   28.5050   40.5540 C   0  0  0  0  0  0  0  0  0  0  0  0
   39.5370   27.4230   41.3220 C   0  0  0  0  0  0  0  0  0  0  0  0
   39.2580   27.4590   42.6660 C   0  0  0  0  0  0  0  0  0  0  0  0
   38.6710   28.5850   43.1950 C   0  0  0  0  0  0  0  0  0  0  0  0
   39.6740   26.2520   43.1860 O   0  0  0  0  0  0  0  0  0  0  0  0
   40.2140   25.4630   42.1390 C   0  0  2  0  0  0  0  0  0  0  0  0
   40.1220   26.2420   40.9500 O   0  0  0  0  0  0  0  0  0  0  0  0
   37.9200   30.4030   43.0280 H   0  0  0  0  0  0  0  0  0  0  0  0
   39.4170   28.5210   39.5280 H   0  0  0  0  0  0  0  0  0  0  0  0
   38.4960   28.5130   44.2530 H   0  0  0  0  0  0  0  0  0  0  0  0
   41.2690   25.2070   42.3470 H   0  0  0  0  0  0  0  0  0  0  0  0
   39.4320   24.3560   41.9850 O   0  0  0  0  0  0  0  0  0  0  0  0
   36.5410   25.4510   42.5100 Cl  0  0  0  0  0  0  0  0  0  0  0  0
   37.0210   24.3030   41.2860 C   0  0  0  0  0  0  0  0  0  0  0  0
   38.3600   23.9950   41.2780 C   0  0  0  0  0  0  0  0  0  0  0  0
   38.7290   23.0700   40.2870 C   0  0  0  0  0  0  0  0  0  0  0  0
   39.7390   22.6730   40.0860 H   0  0  0  0  0  0  0  0  0  0  0  0
   37.8210   22.5170   39.3970 C   0  0  0  0  0  0  0  0  0  0  0  0
   38.0520   21.8050   38.6220 H   0  0  0  0  0  0  0  0  0  0  0  0
   36.5070   22.8860   39.4840 C   0  0  0  0  0  3  0  0  0  0  0  0
   36.0920   23.7800   40.4270 C   0  0  0  0  0  3  0  0  0  0  0  0
  1  2  2  0  0  0  0
  1  6  1  0  0  0  0
  2  3  1  0  0  0  0
  3 25  1  0  0  0  0
  3  4  2  0  0  0  0
  5  4  1  0  0  0  0
  5  8  1  0  0  0  0
  6  5  2  0  0  0  0
  7  1  1  0  0  0  0
  9 10  1  0  0  0  0
  9  2  1  0  0  0  0
 10 16  1  0  0  0  0
 10 15  1  0  0  0  0
 11 17  1  0  0  0  0
 11 18  1  0  0  0  0
 11 10  1  0  0  0  0
 12 11  1  0  0  0  0
 13 12  1  0  0  0  0
 13 14  1  0  0  0  0
 14 22  1  0  0  0  0
 14  9  1  0  0  0  0
 19 12  1  0  0  0  0
 20 13  1  0  0  0  0
 21 13  1  0  0  0  0
 23 14  1  0  0  0  0
 24 33  1  0  0  0  0
 24 29  1  0  0  0  0
 25 24  2  0  0  0  0
 26 25  1  0  0  0  0
 26 27  2  0  0  0  0
 27 28  1  0  0  0  0
 28 30  1  0  0  0  0
 28 29  2  0  0  0  0
 29 35  1  0  0  0  0
 31 36  1  1  0  0  0
 31 30  1  0  0  0  0
 32 27  1  0  0  0  0
 32 31  1  0  0  0  0
 34 26  1  0  0  0  0
 37 31  1  0  0  0  0
 39 38  1  0  0  0  0
 40 39  1  0  0  0  0
 40 37  1  0  0  0  0
 41 40  2  0  0  0  0
 42 41  1  0  0  0  0
 43 45  2  0  0  0  0
 43 41  1  0  0  0  0
 44 43  1  0  0  0  0
 45 46  1  0  0  0  0
 46 39  2  0  0  0  0
M  END
>  <minimizedAffinity>
-6.00302601

$$$$

 OpenBabel03242523133D

 46 50  0  0  1  0  0  0  0  0999 V2000
   38.8120   23.2960   40.3990 C   0  0  0  0  0  0  0  0  0  0  0  0
   38.7960   24.6370   40.7830 C   0  0  0  0  0  0  0  0  0  0  0  0
   37.7420   25.4170   40.4270 C   0  0  0  0  0  0  0  0  0  0  0  0
   36.7620   24.8210   39.7140 N   0  0  0  0  0  0  0  0  0  0  0  0
   36.7530   23.5440   39.3370 C   0  0  0  0  0  0  0  0  0  0  0  0
   37.7760   22.7920   39.6810 N   0  0  0  0  0  0  0  0  0  0  0  0
   39.6470   22.6670   40.6780 H   0  0  0  0  0  0  0  0  0  0  0  0
   35.9910   23.0290   38.7670 H   0  0  0  0  0  0  0  0  0  0  0  0
   39.8730   25.0950   41.5430 N   0  0  0  0  0  0  0  0  0  0  0  0
   39.9700   24.9360   42.9280 C   0  0  0  0  0  0  0  0  0  0  0  0
   41.3040   25.3430   43.5170 C   0  0  0  0  0  0  0  0  0  0  0  0
   42.4150   25.0220   42.7640 N   0  0  0  0  0  0  0  0  0  0  0  0
   42.3440   25.2180   41.3940 C   0  0  0  0  0  0  0  0  0  0  0  0
   41.0050   25.7860   40.9970 C   0  0  0  0  0  0  0  0  0  0  0  0
   39.2040   25.5950   43.4200 H   0  0  0  0  0  0  0  0  0  0  0  0
   39.7060   23.9100   43.3070 H   0  0  0  0  0  0  0  0  0  0  0  0
   41.2790   26.4480   43.7080 H   0  0  0  0  0  0  0  0  0  0  0  0
   41.3710   24.8470   44.5170 H   0  0  0  0  0  0  0  0  0  0  0  0
   43.2010   24.5120   43.1600 H   0  0  0  0  0  0  0  0  0  0  0  0
   42.5750   24.3620   40.7270 H   0  0  0  0  0  0  0  0  0  0  0  0
   43.0980   25.9980   41.0920 H   0  0  0  0  0  0  0  0  0  0  0  0
   40.9590   26.8800   41.2260 H   0  0  0  0  0  0  0  0  0  0  0  0
   40.9280   25.7080   39.8890 H   0  0  0  0  0  0  0  0  0  0  0  0
   36.7730   27.0430   41.8340 C   0  0  0  0  0  0  0  0  0  0  0  0
   37.4220   26.7710   40.6080 C   0  0  0  0  0  0  0  0  0  0  0  0
   37.6010   27.9140   39.8540 C   0  0  0  0  0  0  0  0  0  0  0  0
   37.2200   29.1780   40.2000 C   0  0  0  0  0  0  0  0  0  0  0  0
   36.5960   29.3750   41.4070 C   0  0  0  0  0  0  0  0  0  0  0  0
   36.3730   28.2930   42.2270 C   0  0  0  0  0  0  0  0  0  0  0  0
   36.3300   30.7240   41.4950 O   0  0  0  0  0  0  0  0  0  0  0  0
   36.8040   31.3640   40.3220 C   0  0  2  0  0  0  0  0  0  0  0  0
   37.3660   30.3460   39.4990 O   0  0  0  0  0  0  0  0  0  0  0  0
   36.4900   26.3670   42.6440 H   0  0  0  0  0  0  0  0  0  0  0  0
   38.0760   27.7180   38.9440 H   0  0  0  0  0  0  0  0  0  0  0  0
   35.8780   28.5530   43.1450 H   0  0  0  0  0  0  0  0  0  0  0  0
   35.9770   31.8700   39.7920 H   0  0  0  0  0  0  0  0  0  0  0  0
   37.8000   32.2270   40.6720 O   0  0  0  0  0  0  0  0  0  0  0  0
   39.6770   30.7350   42.6930 Cl  0  0  0  0  0  0  0  0  0  0  0  0
   40.1670   31.7330   41.3470 C   0  0  0  0  0  0  0  0  0  0  0  0
   39.1320   32.2700   40.6200 C   0  0  0  0  0  0  0  0  0  0  0  0
   39.5450   33.0700   39.5420 C   0  0  0  0  0  0  0  0  0  0  0  0
   38.9010   33.6030   38.8200 H   0  0  0  0  0  0  0  0  0  0  0  0
   40.8790   33.2980   39.2400 C   0  0  0  0  0  0  0  0  0  0  0  0
   41.2460   33.9030   38.4270 H   0  0  0  0  0  0  0  0  0  0  0  0
   41.8380   32.7200   40.0240 C   0  0  0  0  0  3  0  0  0  0  0  0
   41.4960   31.9340   41.0840 C   0  0  0  0  0  3  0  0  0  0  0  0
  1  7  1  0  0  0  0
  1  2  1  0  0  0  0
  2  9  1  0  0  0  0
  3 25  1  0  0  0  0
  3  2  2  0  0  0  0
  4  3  1  0  0  0  0
  5  6  1  0  0  0  0
  5  4  2  0  0  0  0
  6  1  2  0  0  0  0
  8  5  1  0  0  0  0
  9 10  1  0  0  0  0
 10 16  1  0  0  0  0
 10 15  1  0  0  0  0
 10 11  1  0  0  0  0
 11 17  1  0  0  0  0
 11 18  1  0  0  0  0
 12 19  1  0  0  0  0
 12 11  1  0  0  0  0
 13 12  1  0  0  0  0
 14 22  1  0  0  0  0
 14 13  1  0  0  0  0
 14  9  1  0  0  0  0
 20 13  1  0  0  0  0
 21 13  1  0  0  0  0
 23 14  1  0  0  0  0
 24 29  1  0  0  0  0
 24 33  1  0  0  0  0
 25 24  2  0  0  0  0
 26 27  2  0  0  0  0
 26 25  1  0  0  0  0
 27 28  1  0  0  0  0
 28 30  1  0  0  0  0
 28 29  2  0  0  0  0
 29 35  1  0  0  0  0
 31 36  1  6  0  0  0
 31 37  1  0  0  0  0
 31 30  1  0  0  0  0
 32 27  1  0  0  0  0
 32 31  1  0  0  0  0
 34 26  1  0  0  0  0
 39 38  1  0  0  0  0
 40 37  1  0  0  0  0
 40 39  2  0  0  0  0
 41 40  1  0  0  0  0
 42 41  1  0  0  0  0
 43 41  2  0  0  0  0
 43 45  1  0  0  0  0
 44 43  1  0  0  0  0
 45 46  2  0  0  0  0
 46 39  1  0  0  0  0
M  END
>  <minimizedAffinity>
-5.97800827

$$$$

 OpenBabel03242523133D

 46 50  0  0  1  0  0  0  0  0999 V2000
   36.5080   27.7540   41.6880 C   0  0  0  0  0  0  0  0  0  0  0  0
   37.0520   28.7510   40.8770 C   0  0  0  0  0  0  0  0  0  0  0  0
   37.8910   29.6680   41.4250 C   0  0  0  0  0  0  0  0  0  0  0  0
   38.1470   29.5410   42.7460 N   0  0  0  0  0  0  0  0  0  0  0  0
   37.6410   28.6000   43.5400 C   0  0  0  0  0  0  0  0  0  0  0  0
   36.8270   27.7150   43.0060 N   0  0  0  0  0  0  0  0  0  0  0  0
   35.8380   27.0200   41.2610 H   0  0  0  0  0  0  0  0  0  0  0  0
   37.8180   28.4630   44.5980 H   0  0  0  0  0  0  0  0  0  0  0  0
   36.7120   28.7280   39.5230 N   0  0  0  0  0  0  0  0  0  0  0  0
   35.4940   29.1930   39.0200 C   0  0  0  0  0  0  0  0  0  0  0  0
   35.4150   29.2420   37.5090 C   0  0  0  0  0  0  0  0  0  0  0  0
   36.5640   29.6460   36.8610 N   0  0  0  0  0  0  0  0  0  0  0  0
   37.7730   29.1540   37.3250 C   0  0  0  0  0  0  0  0  0  0  0  0
   37.5660   28.2200   38.4900 C   0  0  0  0  0  0  0  0  0  0  0  0
   34.6780   28.4930   39.3470 H   0  0  0  0  0  0  0  0  0  0  0  0
   35.1600   30.1860   39.4310 H   0  0  0  0  0  0  0  0  0  0  0  0
   35.1080   28.2270   37.1430 H   0  0  0  0  0  0  0  0  0  0  0  0
   34.5770   29.9390   37.2610 H   0  0  0  0  0  0  0  0  0  0  0  0
   36.5560   30.3970   36.1750 H   0  0  0  0  0  0  0  0  0  0  0  0
   38.5690   29.8810   37.5930 H   0  0  0  0  0  0  0  0  0  0  0  0
   38.2510   28.5260   36.5220 H   0  0  0  0  0  0  0  0  0  0  0  0
   37.2180   27.2180   38.1330 H   0  0  0  0  0  0  0  0  0  0  0  0
   38.5630   28.0420   38.9530 H   0  0  0  0  0  0  0  0  0  0  0  0
   37.7520   31.9320   40.7790 C   0  0  0  0  0  0  0  0  0  0  0  0
   38.5730   30.7910   40.9300 C   0  0  0  0  0  0  0  0  0  0  0  0
   39.8780   31.0390   40.5550 C   0  0  0  0  0  0  0  0  0  0  0  0
   40.3730   32.2220   40.0900 C   0  0  0  0  0  0  0  0  0  0  0  0
   39.5240   33.2950   39.9700 C   0  0  0  0  0  0  0  0  0  0  0  0
   38.2030   33.1420   40.3190 C   0  0  0  0  0  0  0  0  0  0  0  0
   40.2810   34.3410   39.4880 O   0  0  0  0  0  0  0  0  0  0  0  0
   41.6180   33.9000   39.3140 C   0  0  2  0  0  0  0  0  0  0  0  0
   41.6500   32.5300   39.7020 O   0  0  0  0  0  0  0  0  0  0  0  0
   36.6890   32.0660   40.9870 H   0  0  0  0  0  0  0  0  0  0  0  0
   40.4870   30.1970   40.6600 H   0  0  0  0  0  0  0  0  0  0  0  0
   37.6240   34.0380   40.1860 H   0  0  0  0  0  0  0  0  0  0  0  0
   41.9300   34.0070   38.2600 H   0  0  0  0  0  0  0  0  0  0  0  0
   42.4190   34.6030   40.1660 O   0  0  0  0  0  0  0  0  0  0  0  0
   45.0500   33.6960   38.7200 Cl  0  0  0  0  0  0  0  0  0  0  0  0
   44.8570   34.0590   40.4170 C   0  0  0  0  0  0  0  0  0  0  0  0
   43.5880   34.4350   40.7860 C   0  0  0  0  0  0  0  0  0  0  0  0
   43.4510   34.7230   42.1540 C   0  0  0  0  0  0  0  0  0  0  0  0
   42.5350   35.0440   42.6810 H   0  0  0  0  0  0  0  0  0  0  0  0
   44.5040   34.6350   43.0510 C   0  0  0  0  0  0  0  0  0  0  0  0
   44.4510   34.8440   44.1070 H   0  0  0  0  0  0  0  0  0  0  0  0
   45.7320   34.2510   42.5890 C   0  0  0  0  0  3  0  0  0  0  0  0
   45.9230   33.9590   41.2710 C   0  0  0  0  0  3  0  0  0  0  0  0
  1  6  1  0  0  0  0
  2  3  1  0  0  0  0
  2  1  2  0  0  0  0
  3  4  2  0  0  0  0
  4  5  1  0  0  0  0
  5  8  1  0  0  0  0
  6  5  2  0  0  0  0
  7  1  1  0  0  0  0
  9  2  1  0  0  0  0
 10 15  1  0  0  0  0
 10 16  1  0  0  0  0
 10  9  1  0  0  0  0
 11 10  1  0  0  0  0
 12 13  1  0  0  0  0
 12 11  1  0  0  0  0
 13 20  1  0  0  0  0
 13 14  1  0  0  0  0
 14 23  1  0  0  0  0
 14  9  1  0  0  0  0
 17 11  1  0  0  0  0
 18 11  1  0  0  0  0
 19 12  1  0  0  0  0
 21 13  1  0  0  0  0
 22 14  1  0  0  0  0
 24 25  1  0  0  0  0
 24 33  1  0  0  0  0
 25  3  1  0  0  0  0
 26 34  1  0  0  0  0
 26 25  2  0  0  0  0
 27 26  1  0  0  0  0
 28 27  2  0  0  0  0
 28 29  1  0  0  0  0
 29 24  2  0  0  0  0
 30 28  1  0  0  0  0
 31 36  1  6  0  0  0
 31 30  1  0  0  0  0
 31 32  1  0  0  0  0
 31 37  1  0  0  0  0
 32 27  1  0  0  0  0
 35 29  1  0  0  0  0
 37 40  1  0  0  0  0
 38 39  1  0  0  0  0
 39 40  2  0  0  0  0
 39 46  1  0  0  0  0
 40 41  1  0  0  0  0
 41 42  1  0  0  0  0
 41 43  2  0  0  0  0
 43 44  1  0  0  0  0
 45 43  1  0  0  0  0
 46 45  2  0  0  0  0
M  END
>  <minimizedAffinity>
-5.96904802

$$$$

 OpenBabel03242523133D

 46 50  0  0  1  0  0  0  0  0999 V2000
   36.5940   27.9290   41.5140 C   0  0  0  0  0  0  0  0  0  0  0  0
   37.4260   28.8680   40.9030 C   0  0  0  0  0  0  0  0  0  0  0  0
   38.2560   29.6190   41.6720 C   0  0  0  0  0  0  0  0  0  0  0  0
   38.2180   29.3930   43.0030 N   0  0  0  0  0  0  0  0  0  0  0  0
   37.4340   28.5050   43.6100 C   0  0  0  0  0  0  0  0  0  0  0  0
   36.6300   27.7800   42.8630 N   0  0  0  0  0  0  0  0  0  0  0  0
   35.9280   27.3270   40.9110 H   0  0  0  0  0  0  0  0  0  0  0  0
   37.3710   28.2930   44.6690 H   0  0  0  0  0  0  0  0  0  0  0  0
   37.3680   28.9590   39.5110 N   0  0  0  0  0  0  0  0  0  0  0  0
   36.4840   29.7950   38.8240 C   0  0  0  0  0  0  0  0  0  0  0  0
   36.7220   29.8710   37.3300 C   0  0  0  0  0  0  0  0  0  0  0  0
   38.0430   29.8840   36.9340 N   0  0  0  0  0  0  0  0  0  0  0  0
   38.9190   29.0260   37.5800 C   0  0  0  0  0  0  0  0  0  0  0  0
   38.2030   28.2050   38.6220 C   0  0  0  0  0  0  0  0  0  0  0  0
   35.4410   29.3960   38.9480 H   0  0  0  0  0  0  0  0  0  0  0  0
   36.4080   30.8410   39.2310 H   0  0  0  0  0  0  0  0  0  0  0  0
   36.1870   29.0120   36.8480 H   0  0  0  0  0  0  0  0  0  0  0  0
   36.2140   30.8030   36.9790 H   0  0  0  0  0  0  0  0  0  0  0  0
   38.4080   30.6000   36.3090 H   0  0  0  0  0  0  0  0  0  0  0  0
   39.8350   29.4550   38.0380 H   0  0  0  0  0  0  0  0  0  0  0  0
   39.3210   28.2790   36.8390 H   0  0  0  0  0  0  0  0  0  0  0  0
   37.6320   27.3720   38.1410 H   0  0  0  0  0  0  0  0  0  0  0  0
   38.9810   27.7140   39.2480 H   0  0  0  0  0  0  0  0  0  0  0  0
   40.3880   30.5230   42.1210 C   0  0  0  0  0  0  0  0  0  0  0  0
   39.1750   30.6460   41.4050 C   0  0  0  0  0  0  0  0  0  0  0  0
   39.1670   31.7610   40.5910 C   0  0  0  0  0  0  0  0  0  0  0  0
   40.1770   32.6670   40.4520 C   0  0  0  0  0  0  0  0  0  0  0  0
   41.3310   32.4890   41.1740 C   0  0  0  0  0  0  0  0  0  0  0  0
   41.4310   31.4050   42.0150 C   0  0  0  0  0  0  0  0  0  0  0  0
   42.1660   33.5340   40.8410 O   0  0  0  0  0  0  0  0  0  0  0  0
   41.5110   34.3640   39.8960 C   0  0  2  0  0  0  0  0  0  0  0  0
   40.2280   33.7890   39.6680 O   0  0  0  0  0  0  0  0  0  0  0  0
   40.7080   29.7620   42.8360 H   0  0  0  0  0  0  0  0  0  0  0  0
   38.2700   31.8590   40.0630 H   0  0  0  0  0  0  0  0  0  0  0  0
   42.3720   31.3580   42.5330 H   0  0  0  0  0  0  0  0  0  0  0  0
   41.4050   35.3920   40.2870 H   0  0  0  0  0  0  0  0  0  0  0  0
   42.2110   34.3230   38.7260 O   0  0  0  0  0  0  0  0  0  0  0  0
   41.2350   31.8010   37.1360 Cl  0  0  0  0  0  0  0  0  0  0  0  0
   42.8840   32.3360   37.3460 C   0  0  0  0  0  0  0  0  0  0  0  0
   43.0290   33.4790   38.0940 C   0  0  0  0  0  0  0  0  0  0  0  0
   44.3620   33.8940   38.2520 C   0  0  0  0  0  0  0  0  0  0  0  0
   44.7250   34.7770   38.8080 H   0  0  0  0  0  0  0  0  0  0  0  0
   45.4340   33.2090   37.7030 C   0  0  0  0  0  0  0  0  0  0  0  0
   46.4720   33.4850   37.7960 H   0  0  0  0  0  0  0  0  0  0  0  0
   45.1890   32.0800   36.9740 C   0  0  0  0  0  3  0  0  0  0  0  0
   43.9150   31.6300   36.7870 C   0  0  0  0  0  3  0  0  0  0  0  0
  1  6  1  0  0  0  0
  2  1  2  0  0  0  0
  2  3  1  0  0  0  0
  3  4  2  0  0  0  0
  4  5  1  0  0  0  0
  5  8  1  0  0  0  0
  6  5  2  0  0  0  0
  7  1  1  0  0  0  0
  9  2  1  0  0  0  0
 10 15  1  0  0  0  0
 10 16  1  0  0  0  0
 10  9  1  0  0  0  0
 11 10  1  0  0  0  0
 12 11  1  0  0  0  0
 12 13  1  0  0  0  0
 13 20  1  0  0  0  0
 13 14  1  0  0  0  0
 14 23  1  0  0  0  0
 14  9  1  0  0  0  0
 17 11  1  0  0  0  0
 18 11  1  0  0  0  0
 19 12  1  0  0  0  0
 21 13  1  0  0  0  0
 22 14  1  0  0  0  0
 24 33  1  0  0  0  0
 25  3  1  0  0  0  0
 25 24  2  0  0  0  0
 26 25  1  0  0  0  0
 27 26  2  0  0  0  0
 27 28  1  0  0  0  0
 28 29  2  0  0  0  0
 29 24  1  0  0  0  0
 29 35  1  0  0  0  0
 30 28  1  0  0  0  0
 31 36  1  1  0  0  0
 31 30  1  0  0  0  0
 32 31  1  0  0  0  0
 32 27  1  0  0  0  0
 34 26  1  0  0  0  0
 37 31  1  0  0  0  0
 38 39  1  0  0  0  0
 39 40  1  0  0  0  0
 40 41  2  0  0  0  0
 40 37  1  0  0  0  0
 41 42  1  0  0  0  0
 43 44  1  0  0  0  0
 43 41  1  0  0  0  0
 45 43  2  0  0  0  0
 46 45  1  0  0  0  0
 46 39  2  0  0  0  0
M  END
>  <minimizedAffinity>
-5.93251371

$$$$
