
 OpenBabel03252505283D

 24 25  0  0  0  0  0  0  0  0999 V2000
   35.5210   29.1300   41.0360 O   0  0  0  0  0  0  0  0  0  0  0  0
   36.8680   28.8400   41.7090 P   0  0  1  0  0  0  0  0  0  0  0  0
   36.9900   29.5700   43.2100 O   0  0  0  0  0  0  0  0  0  0  0  0
   36.1770   29.4310   43.7380 H   0  0  0  0  0  0  0  0  0  0  0  0
   36.9760   27.1590   41.8320 O   0  0  0  0  0  0  0  0  0  0  0  0
   39.9390   26.5050   43.6800 C   0  0  0  0  0  0  0  0  0  0  0  0
   40.2220   25.1400   43.4430 C   0  0  0  0  0  0  0  0  0  0  0  0
   39.3230   24.4630   42.6040 C   0  0  0  0  0  0  0  0  0  0  0  0
   38.2630   25.1290   42.0800 N   0  0  0  0  0  0  0  0  0  0  0  0
   38.0380   26.4390   42.3400 C   0  0  0  0  0  0  0  0  0  0  0  0
   38.8810   27.1160   43.1400 N   0  0  0  0  0  0  0  0  0  0  0  0
   40.6310   27.0340   44.3260 H   0  0  0  0  0  0  0  0  0  0  0  0
   41.0580   24.6220   43.8580 H   0  0  0  0  0  0  0  0  0  0  0  0
   39.4780   23.4020   42.3750 H   0  0  0  0  0  0  0  0  0  0  0  0
   38.0550   29.5000   40.7060 O   0  0  0  0  0  0  0  0  0  0  0  0
   39.8910   31.1500   42.4340 Cl  0  0  0  0  0  0  0  0  0  0  0  0
   38.8370   31.7380   41.1770 C   0  0  0  0  0  0  0  0  0  0  0  0
   38.0460   30.8670   40.4600 C   0  0  0  0  0  0  0  0  0  0  0  0
   37.2540   31.4480   39.4910 C   0  0  0  0  0  0  0  0  0  0  0  0
   36.6010   30.8350   38.8820 H   0  0  0  0  0  0  0  0  0  0  0  0
   37.2130   32.8000   39.2130 C   0  0  0  0  0  0  0  0  0  0  0  0
   36.5700   33.1980   38.4390 H   0  0  0  0  0  0  0  0  0  0  0  0
   38.0320   33.6470   39.9650 C   0  0  0  0  0  3  0  0  0  0  0  0
   38.8500   33.1120   40.9540 C   0  0  0  0  0  3  0  0  0  0  0  0
  2  1  2  6  0  0  0
  2  5  1  0  0  0  0
  2  3  1  0  0  0  0
  3  4  1  0  0  0  0
  5 10  1  0  0  0  0
  6 12  1  0  0  0  0
  7  6  1  0  0  0  0
  7 13  1  0  0  0  0
  8  7  2  0  0  0  0
  9 10  2  0  0  0  0
  9  8  1  0  0  0  0
 10 11  1  0  0  0  0
 11  6  2  0  0  0  0
 14  8  1  0  0  0  0
 15  2  1  0  0  0  0
 17 16  1  0  0  0  0
 18 15  1  0  0  0  0
 18 17  2  0  0  0  0
 19 18  1  0  0  0  0
 20 19  1  0  0  0  0
 21 19  2  0  0  0  0
 21 23  1  0  0  0  0
 22 21  1  0  0  0  0
 23 24  2  0  0  0  0
 24 17  1  0  0  0  0
M  END
>  <minimizedAffinity>
-5.1121397

$$$$

 OpenBabel03252505283D

 24 25  0  0  0  0  0  0  0  0999 V2000
   37.9510   30.5910   40.0900 O   0  0  0  0  0  0  0  0  0  0  0  0
   36.9190   30.0110   41.0650 P   0  0  1  0  0  0  0  0  0  0  0  0
   35.5610   30.9810   41.1920 O   0  0  0  0  0  0  0  0  0  0  0  0
   35.2450   31.2650   40.3100 H   0  0  0  0  0  0  0  0  0  0  0  0
   36.5260   28.4790   40.4740 O   0  0  0  0  0  0  0  0  0  0  0  0
   33.8860   28.7260   38.1100 C   0  0  0  0  0  0  0  0  0  0  0  0
   34.1920   27.7640   37.1200 C   0  0  0  0  0  0  0  0  0  0  0  0
   35.3690   27.0260   37.3240 C   0  0  0  0  0  0  0  0  0  0  0  0
   36.1290   27.2650   38.4240 N   0  0  0  0  0  0  0  0  0  0  0  0
   35.7880   28.2000   39.3430 C   0  0  0  0  0  0  0  0  0  0  0  0
   34.6670   28.9230   39.1750 N   0  0  0  0  0  0  0  0  0  0  0  0
   32.9780   29.2980   37.9590 H   0  0  0  0  0  0  0  0  0  0  0  0
   33.5910   27.5800   36.2590 H   0  0  0  0  0  0  0  0  0  0  0  0
   35.6710   26.2620   36.5980 H   0  0  0  0  0  0  0  0  0  0  0  0
   37.6690   29.9570   42.5770 O   0  0  0  0  0  0  0  0  0  0  0  0
   36.5520   27.3830   43.6740 Cl  0  0  0  0  0  0  0  0  0  0  0  0
   38.2260   27.7310   43.3360 C   0  0  0  0  0  0  0  0  0  0  0  0
   38.5990   28.9580   42.8330 C   0  0  0  0  0  0  0  0  0  0  0  0
   39.9510   29.1170   42.6060 C   0  0  0  0  0  0  0  0  0  0  0  0
   40.3290   30.0520   42.2100 H   0  0  0  0  0  0  0  0  0  0  0  0
   40.9100   28.1530   42.8450 C   0  0  0  0  0  0  0  0  0  0  0  0
   41.9570   28.3370   42.6460 H   0  0  0  0  0  0  0  0  0  0  0  0
   40.4860   26.9230   43.3560 C   0  0  0  0  0  3  0  0  0  0  0  0
   39.1330   26.7100   43.6030 C   0  0  0  0  0  3  0  0  0  0  0  0
  2  1  2  6  0  0  0
  2  3  1  0  0  0  0
  2 15  1  0  0  0  0
  4  3  1  0  0  0  0
  5  2  1  0  0  0  0
  6 11  1  0  0  0  0
  7  8  1  0  0  0  0
  7  6  2  0  0  0  0
  8  9  2  0  0  0  0
  9 10  1  0  0  0  0
 10  5  1  0  0  0  0
 11 10  2  0  0  0  0
 12  6  1  0  0  0  0
 13  7  1  0  0  0  0
 14  8  1  0  0  0  0
 15 18  1  0  0  0  0
 17 24  1  0  0  0  0
 17 16  1  0  0  0  0
 18 17  2  0  0  0  0
 19 18  1  0  0  0  0
 19 21  2  0  0  0  0
 20 19  1  0  0  0  0
 21 23  1  0  0  0  0
 22 21  1  0  0  0  0
 23 24  2  0  0  0  0
M  END
>  <minimizedAffinity>
-4.97163439

$$$$

 OpenBabel03252505283D

 24 25  0  0  0  0  0  0  0  0999 V2000
   38.2120   31.3370   41.0810 O   0  0  0  0  0  0  0  0  0  0  0  0
   37.0800   30.3100   41.2150 P   0  0  1  0  0  0  0  0  0  0  0  0
   35.5810   31.0430   41.3480 O   0  0  0  0  0  0  0  0  0  0  0  0
   35.4750   31.7550   40.6850 H   0  0  0  0  0  0  0  0  0  0  0  0
   37.1670   29.3360   39.8390 O   0  0  0  0  0  0  0  0  0  0  0  0
   33.9430   28.8360   38.4340 C   0  0  0  0  0  0  0  0  0  0  0  0
   34.1390   28.9120   37.0360 C   0  0  0  0  0  0  0  0  0  0  0  0
   35.4560   29.1470   36.6120 C   0  0  0  0  0  0  0  0  0  0  0  0
   36.4430   29.2850   37.5350 N   0  0  0  0  0  0  0  0  0  0  0  0
   36.2000   29.2020   38.8650 C   0  0  0  0  0  0  0  0  0  0  0  0
   34.9480   28.9790   39.3020 N   0  0  0  0  0  0  0  0  0  0  0  0
   32.9270   28.6540   38.7680 H   0  0  0  0  0  0  0  0  0  0  0  0
   33.3590   28.8030   36.3170 H   0  0  0  0  0  0  0  0  0  0  0  0
   35.6840   29.2190   35.5420 H   0  0  0  0  0  0  0  0  0  0  0  0
   37.3770   29.4570   42.6410 O   0  0  0  0  0  0  0  0  0  0  0  0
   40.3380   28.9320   42.8230 Cl  0  0  0  0  0  0  0  0  0  0  0  0
   39.0800   27.7420   42.6320 C   0  0  0  0  0  0  0  0  0  0  0  0
   37.7580   28.1230   42.5630 C   0  0  0  0  0  0  0  0  0  0  0  0
   36.8530   27.0930   42.4110 C   0  0  0  0  0  0  0  0  0  0  0  0
   35.7920   27.3060   42.3480 H   0  0  0  0  0  0  0  0  0  0  0  0
   37.1860   25.7560   42.3290 C   0  0  0  0  0  0  0  0  0  0  0  0
   36.4290   24.9920   42.2100 H   0  0  0  0  0  0  0  0  0  0  0  0
   38.5390   25.4150   42.4030 C   0  0  0  0  0  3  0  0  0  0  0  0
   39.4940   26.4150   42.5560 C   0  0  0  0  0  3  0  0  0  0  0  0
  2  1  2  6  0  0  0
  2  3  1  0  0  0  0
  2 15  1  0  0  0  0
  4  3  1  0  0  0  0
  5  2  1  0  0  0  0
  6 12  1  0  0  0  0
  6 11  1  0  0  0  0
  7  6  2  0  0  0  0
  8  7  1  0  0  0  0
  8  9  2  0  0  0  0
  9 10  1  0  0  0  0
 10 11  2  0  0  0  0
 10  5  1  0  0  0  0
 13  7  1  0  0  0  0
 14  8  1  0  0  0  0
 17 16  1  0  0  0  0
 18 17  1  0  0  0  0
 18 15  1  0  0  0  0
 19 18  2  0  0  0  0
 20 19  1  0  0  0  0
 21 23  2  0  0  0  0
 21 19  1  0  0  0  0
 22 21  1  0  0  0  0
 23 24  1  0  0  0  0
 24 17  2  0  0  0  0
M  END
>  <minimizedAffinity>
-4.909235

$$$$

 OpenBabel03252505283D

 24 25  0  0  0  0  0  0  0  0999 V2000
   38.8790   32.1310   41.1680 O   0  0  0  0  0  0  0  0  0  0  0  0
   37.5920   31.8420   40.3870 P   0  0  1  0  0  0  0  0  0  0  0  0
   36.7850   33.2480   39.9650 O   0  0  0  0  0  0  0  0  0  0  0  0
   37.4020   33.9130   39.5990 H   0  0  0  0  0  0  0  0  0  0  0  0
   38.0600   30.9700   39.0190 O   0  0  0  0  0  0  0  0  0  0  0  0
   41.1300   29.8290   37.6400 C   0  0  0  0  0  0  0  0  0  0  0  0
   41.7520   30.9900   37.1270 C   0  0  0  0  0  0  0  0  0  0  0  0
   41.0420   32.1910   37.2880 C   0  0  0  0  0  0  0  0  0  0  0  0
   39.8340   32.1770   37.9080 N   0  0  0  0  0  0  0  0  0  0  0  0
   39.2830   31.0340   38.3830 C   0  0  0  0  0  0  0  0  0  0  0  0
   39.9390   29.8680   38.2430 N   0  0  0  0  0  0  0  0  0  0  0  0
   41.6740   28.8990   37.5200 H   0  0  0  0  0  0  0  0  0  0  0  0
   42.7010   30.9940   36.6410 H   0  0  0  0  0  0  0  0  0  0  0  0
   41.4620   33.1320   36.9150 H   0  0  0  0  0  0  0  0  0  0  0  0
   36.5950   30.9540   41.4200 O   0  0  0  0  0  0  0  0  0  0  0  0
   35.3410   28.7590   39.7820 Cl  0  0  0  0  0  0  0  0  0  0  0  0
   36.4650   28.5620   41.0980 C   0  0  0  0  0  0  0  0  0  0  0  0
   36.9630   29.6600   41.7650 C   0  0  0  0  0  0  0  0  0  0  0  0
   37.8450   29.3810   42.7890 C   0  0  0  0  0  0  0  0  0  0  0  0
   38.2840   30.1870   43.3640 H   0  0  0  0  0  0  0  0  0  0  0  0
   38.2390   28.1130   43.1660 C   0  0  0  0  0  0  0  0  0  0  0  0
   38.9360   27.9560   43.9790 H   0  0  0  0  0  0  0  0  0  0  0  0
   37.7090   27.0270   42.4620 C   0  0  0  0  0  3  0  0  0  0  0  0
   36.8150   27.2540   41.4200 C   0  0  0  0  0  3  0  0  0  0  0  0
  2  1  2  1  0  0  0
  2 15  1  0  0  0  0
  3  2  1  0  0  0  0
  4  3  1  0  0  0  0
  5  2  1  0  0  0  0
  6 11  1  0  0  0  0
  7  8  1  0  0  0  0
  7  6  2  0  0  0  0
  8  9  2  0  0  0  0
  9 10  1  0  0  0  0
 10  5  1  0  0  0  0
 11 10  2  0  0  0  0
 12  6  1  0  0  0  0
 13  7  1  0  0  0  0
 14  8  1  0  0  0  0
 15 18  1  0  0  0  0
 16 17  1  0  0  0  0
 17 24  2  0  0  0  0
 17 18  1  0  0  0  0
 18 19  2  0  0  0  0
 19 21  1  0  0  0  0
 19 20  1  0  0  0  0
 21 22  1  0  0  0  0
 23 21  2  0  0  0  0
 24 23  1  0  0  0  0
M  END
>  <minimizedAffinity>
-4.83379316

$$$$

 OpenBabel03252505283D

 24 25  0  0  0  0  0  0  0  0999 V2000
   36.8010   31.5000   38.9440 O   0  0  0  0  0  0  0  0  0  0  0  0
   37.0740   31.1640   40.4150 P   0  0  1  0  0  0  0  0  0  0  0  0
   35.6680   31.1280   41.3220 O   0  0  0  0  0  0  0  0  0  0  0  0
   34.9630   30.6270   40.8630 H   0  0  0  0  0  0  0  0  0  0  0  0
   37.8440   29.6610   40.4150 O   0  0  0  0  0  0  0  0  0  0  0  0
   39.5180   27.2930   42.4680 C   0  0  0  0  0  0  0  0  0  0  0  0
   38.7360   27.2130   43.6430 C   0  0  0  0  0  0  0  0  0  0  0  0
   37.5940   28.0290   43.6780 C   0  0  0  0  0  0  0  0  0  0  0  0
   37.3080   28.8280   42.6190 N   0  0  0  0  0  0  0  0  0  0  0  0
   38.0930   28.8660   41.5150 C   0  0  0  0  0  0  0  0  0  0  0  0
   39.1940   28.0960   41.4510 N   0  0  0  0  0  0  0  0  0  0  0  0
   40.4010   26.6640   42.4340 H   0  0  0  0  0  0  0  0  0  0  0  0
   38.9660   26.5820   44.4720 H   0  0  0  0  0  0  0  0  0  0  0  0
   36.9390   28.0200   44.5580 H   0  0  0  0  0  0  0  0  0  0  0  0
   38.0540   32.4020   41.0130 O   0  0  0  0  0  0  0  0  0  0  0  0
   40.1370   31.1680   42.8060 Cl  0  0  0  0  0  0  0  0  0  0  0  0
   40.4180   31.9780   41.2890 C   0  0  0  0  0  0  0  0  0  0  0  0
   39.3660   32.4990   40.5670 C   0  0  0  0  0  0  0  0  0  0  0  0
   39.7100   33.1160   39.3830 C   0  0  0  0  0  0  0  0  0  0  0  0
   38.9430   33.5530   38.7540 H   0  0  0  0  0  0  0  0  0  0  0  0
   40.9980   33.2360   38.9010 C   0  0  0  0  0  0  0  0  0  0  0  0
   41.2070   33.7330   37.9630 H   0  0  0  0  0  0  0  0  0  0  0  0
   42.0350   32.6930   39.6660 C   0  0  0  0  0  3  0  0  0  0  0  0
   41.7420   32.0590   40.8690 C   0  0  0  0  0  3  0  0  0  0  0  0
  2  1  2  6  0  0  0
  2  5  1  0  0  0  0
  2 15  1  0  0  0  0
  2  3  1  0  0  0  0
  4  3  1  0  0  0  0
  5 10  1  0  0  0  0
  6  7  1  0  0  0  0
  7  8  2  0  0  0  0
  7 13  1  0  0  0  0
  8 14  1  0  0  0  0
  9  8  1  0  0  0  0
 10  9  2  0  0  0  0
 11 10  1  0  0  0  0
 11  6  2  0  0  0  0
 12  6  1  0  0  0  0
 17 16  1  0  0  0  0
 18 15  1  0  0  0  0
 18 17  2  0  0  0  0
 19 18  1  0  0  0  0
 20 19  1  0  0  0  0
 21 19  2  0  0  0  0
 21 23  1  0  0  0  0
 22 21  1  0  0  0  0
 23 24  2  0  0  0  0
 24 17  1  0  0  0  0
M  END
>  <minimizedAffinity>
-4.82725048

$$$$

 OpenBabel03252505283D

 24 25  0  0  0  0  0  0  0  0999 V2000
   39.1600   30.3640   42.9150 O   0  0  0  0  0  0  0  0  0  0  0  0
   38.2020   29.2620   42.4460 P   0  0  1  0  0  0  0  0  0  0  0  0
   36.5990   29.7350   42.5570 O   0  0  0  0  0  0  0  0  0  0  0  0
   36.4710   30.6360   42.1960 H   0  0  0  0  0  0  0  0  0  0  0  0
   38.6310   28.9180   40.8490 O   0  0  0  0  0  0  0  0  0  0  0  0
   35.8110   28.9910   38.6900 C   0  0  0  0  0  0  0  0  0  0  0  0
   36.2560   29.6700   37.5330 C   0  0  0  0  0  0  0  0  0  0  0  0
   37.5920   30.1000   37.5480 C   0  0  0  0  0  0  0  0  0  0  0  0
   38.3640   29.8510   38.6370 N   0  0  0  0  0  0  0  0  0  0  0  0
   37.8870   29.1940   39.7210 C   0  0  0  0  0  0  0  0  0  0  0  0
   36.6110   28.7700   39.7370 N   0  0  0  0  0  0  0  0  0  0  0  0
   34.7800   28.6550   38.6840 H   0  0  0  0  0  0  0  0  0  0  0  0
   35.6440   29.8620   36.6800 H   0  0  0  0  0  0  0  0  0  0  0  0
   38.0080   30.6330   36.6850 H   0  0  0  0  0  0  0  0  0  0  0  0
   38.4360   27.9510   43.4840 O   0  0  0  0  0  0  0  0  0  0  0  0
   40.8900   26.2140   43.6750 Cl  0  0  0  0  0  0  0  0  0  0  0  0
   39.3450   25.7630   43.0080 C   0  0  0  0  0  0  0  0  0  0  0  0
   38.3020   26.6620   42.9830 C   0  0  0  0  0  0  0  0  0  0  0  0
   37.1280   26.1920   42.4320 C   0  0  0  0  0  0  0  0  0  0  0  0
   36.2580   26.8350   42.3730 H   0  0  0  0  0  0  0  0  0  0  0  0
   36.9500   24.9210   41.9230 C   0  0  0  0  0  0  0  0  0  0  0  0
   36.0040   24.6090   41.5020 H   0  0  0  0  0  0  0  0  0  0  0  0
   38.0360   24.0410   41.9680 C   0  0  0  0  0  3  0  0  0  0  0  0
   39.2420   24.4660   42.5150 C   0  0  0  0  0  3  0  0  0  0  0  0
  2  3  1  0  0  0  0
  2  1  2  1  0  0  0
  2 15  1  0  0  0  0
  4  3  1  0  0  0  0
  5  2  1  0  0  0  0
  6 11  1  0  0  0  0
  7  8  1  0  0  0  0
  7  6  2  0  0  0  0
  8  9  2  0  0  0  0
  9 10  1  0  0  0  0
 10 11  2  0  0  0  0
 10  5  1  0  0  0  0
 12  6  1  0  0  0  0
 13  7  1  0  0  0  0
 14  8  1  0  0  0  0
 17 16  1  0  0  0  0
 18 17  1  0  0  0  0
 18 15  1  0  0  0  0
 19 18  2  0  0  0  0
 20 19  1  0  0  0  0
 21 23  2  0  0  0  0
 21 19  1  0  0  0  0
 22 21  1  0  0  0  0
 23 24  1  0  0  0  0
 24 17  2  0  0  0  0
M  END
>  <minimizedAffinity>
-4.76221418

$$$$

 OpenBabel03252505283D

 24 25  0  0  0  0  0  0  0  0999 V2000
   35.4870   28.6110   40.4410 O   0  0  0  0  0  0  0  0  0  0  0  0
   36.4560   29.6000   41.1020 P   0  0  1  0  0  0  0  0  0  0  0  0
   35.7550   31.1010   41.3400 O   0  0  0  0  0  0  0  0  0  0  0  0
   34.8580   31.0160   41.7230 H   0  0  0  0  0  0  0  0  0  0  0  0
   36.9140   28.8960   42.5680 O   0  0  0  0  0  0  0  0  0  0  0  0
   38.3900   25.6670   42.4400 C   0  0  0  0  0  0  0  0  0  0  0  0
   39.6670   25.8280   43.0250 C   0  0  0  0  0  0  0  0  0  0  0  0
   39.9830   27.1230   43.4650 C   0  0  0  0  0  0  0  0  0  0  0  0
   39.0780   28.1220   43.3120 N   0  0  0  0  0  0  0  0  0  0  0  0
   37.8660   27.9130   42.7450 C   0  0  0  0  0  0  0  0  0  0  0  0
   37.5340   26.6840   42.3130 N   0  0  0  0  0  0  0  0  0  0  0  0
   38.1390   24.6690   42.0990 H   0  0  0  0  0  0  0  0  0  0  0  0
   40.3740   25.0370   43.1420 H   0  0  0  0  0  0  0  0  0  0  0  0
   40.9570   27.3230   43.9290 H   0  0  0  0  0  0  0  0  0  0  0  0
   37.7500   29.7870   40.0340 O   0  0  0  0  0  0  0  0  0  0  0  0
   37.2950   32.1730   38.2510 Cl  0  0  0  0  0  0  0  0  0  0  0  0
   38.5310   32.0030   39.4670 C   0  0  0  0  0  0  0  0  0  0  0  0
   38.6260   30.8500   40.2150 C   0  0  0  0  0  0  0  0  0  0  0  0
   39.6430   30.8310   41.1470 C   0  0  0  0  0  0  0  0  0  0  0  0
   39.7880   29.9610   41.7770 H   0  0  0  0  0  0  0  0  0  0  0  0
   40.5350   31.8620   41.3610 C   0  0  0  0  0  0  0  0  0  0  0  0
   41.3140   31.7890   42.1080 H   0  0  0  0  0  0  0  0  0  0  0  0
   40.4030   33.0130   40.5790 C   0  0  0  0  0  3  0  0  0  0  0  0
   39.3930   33.0840   39.6250 C   0  0  0  0  0  3  0  0  0  0  0  0
  2  1  2  6  0  0  0
  2  3  1  0  0  0  0
  2  5  1  0  0  0  0
  3  4  1  0  0  0  0
  5 10  1  0  0  0  0
  6  7  1  0  0  0  0
  7 13  1  0  0  0  0
  7  8  2  0  0  0  0
  8 14  1  0  0  0  0
  9  8  1  0  0  0  0
 10  9  2  0  0  0  0
 11  6  2  0  0  0  0
 11 10  1  0  0  0  0
 12  6  1  0  0  0  0
 15 18  1  0  0  0  0
 15  2  1  0  0  0  0
 16 17  1  0  0  0  0
 17 24  2  0  0  0  0
 17 18  1  0  0  0  0
 18 19  2  0  0  0  0
 19 21  1  0  0  0  0
 19 20  1  0  0  0  0
 21 22  1  0  0  0  0
 23 21  2  0  0  0  0
 24 23  1  0  0  0  0
M  END
>  <minimizedAffinity>
-4.69263697

$$$$

 OpenBabel03252505283D

 24 25  0  0  0  0  0  0  0  0999 V2000
   35.4280   28.8020   40.9910 O   0  0  0  0  0  0  0  0  0  0  0  0
   36.8990   28.5530   41.3490 P   0  0  1  0  0  0  0  0  0  0  0  0
   37.7580   27.9160   40.0610 O   0  0  0  0  0  0  0  0  0  0  0  0
   37.5650   28.4000   39.2330 H   0  0  0  0  0  0  0  0  0  0  0  0
   37.5240   30.0490   41.8240 O   0  0  0  0  0  0  0  0  0  0  0  0
   40.1040   31.3840   39.7800 C   0  0  0  0  0  0  0  0  0  0  0  0
   39.6380   32.6610   39.3920 C   0  0  0  0  0  0  0  0  0  0  0  0
   38.3750   33.0290   39.8840 C   0  0  0  0  0  0  0  0  0  0  0  0
   37.6880   32.1690   40.6790 N   0  0  0  0  0  0  0  0  0  0  0  0
   38.1830   30.9560   41.0200 C   0  0  0  0  0  0  0  0  0  0  0  0
   39.3900   30.5740   40.5650 N   0  0  0  0  0  0  0  0  0  0  0  0
   41.0790   31.0940   39.4040 H   0  0  0  0  0  0  0  0  0  0  0  0
   40.1830   33.3320   38.7680 H   0  0  0  0  0  0  0  0  0  0  0  0
   37.9480   34.0060   39.6250 H   0  0  0  0  0  0  0  0  0  0  0  0
   36.9010   27.4160   42.5970 O   0  0  0  0  0  0  0  0  0  0  0  0
   36.8030   24.5340   41.7270 Cl  0  0  0  0  0  0  0  0  0  0  0  0
   38.1450   25.3470   42.4850 C   0  0  0  0  0  0  0  0  0  0  0  0
   38.0530   26.6770   42.8330 C   0  0  0  0  0  0  0  0  0  0  0  0
   39.1780   27.2120   43.4260 C   0  0  0  0  0  0  0  0  0  0  0  0
   39.1900   28.2520   43.7310 H   0  0  0  0  0  0  0  0  0  0  0  0
   40.3430   26.5160   43.6800 C   0  0  0  0  0  0  0  0  0  0  0  0
   41.1940   26.9900   44.1490 H   0  0  0  0  0  0  0  0  0  0  0  0
   40.3910   25.1680   43.3100 C   0  0  0  0  0  3  0  0  0  0  0  0
   39.2840   24.5800   42.7080 C   0  0  0  0  0  3  0  0  0  0  0  0
  2  1  2  6  0  0  0
  2  5  1  0  0  0  0
  2 15  1  0  0  0  0
  3  2  1  0  0  0  0
  4  3  1  0  0  0  0
  6 11  1  0  0  0  0
  7  6  2  0  0  0  0
  7  8  1  0  0  0  0
  8  9  2  0  0  0  0
  9 10  1  0  0  0  0
 10  5  1  0  0  0  0
 11 10  2  0  0  0  0
 12  6  1  0  0  0  0
 13  7  1  0  0  0  0
 14  8  1  0  0  0  0
 15 18  1  0  0  0  0
 16 17  1  0  0  0  0
 17 24  2  0  0  0  0
 17 18  1  0  0  0  0
 18 19  2  0  0  0  0
 19 21  1  0  0  0  0
 19 20  1  0  0  0  0
 21 22  1  0  0  0  0
 23 21  2  0  0  0  0
 24 23  1  0  0  0  0
M  END
>  <minimizedAffinity>
-4.66565418

$$$$

 OpenBabel03252505283D

 24 25  0  0  0  0  0  0  0  0999 V2000
   41.2560   28.9600   42.1120 O   0  0  0  0  0  0  0  0  0  0  0  0
   39.9260   29.6920   42.3300 P   0  0  1  0  0  0  0  0  0  0  0  0
   40.1420   31.1810   43.0640 O   0  0  0  0  0  0  0  0  0  0  0  0
   40.8740   31.6780   42.6460 H   0  0  0  0  0  0  0  0  0  0  0  0
   39.2270   29.8560   40.8010 O   0  0  0  0  0  0  0  0  0  0  0  0
   37.0550   31.7870   38.7580 C   0  0  0  0  0  0  0  0  0  0  0  0
   37.2310   33.1200   39.1980 C   0  0  0  0  0  0  0  0  0  0  0  0
   38.1480   33.3060   40.2440 C   0  0  0  0  0  0  0  0  0  0  0  0
   38.7980   32.2330   40.7640 N   0  0  0  0  0  0  0  0  0  0  0  0
   38.5920   30.9760   40.3050 C   0  0  0  0  0  0  0  0  0  0  0  0
   37.7190   30.7650   39.3040 N   0  0  0  0  0  0  0  0  0  0  0  0
   36.3480   31.6370   37.9500 H   0  0  0  0  0  0  0  0  0  0  0  0
   36.7170   33.9580   38.7840 H   0  0  0  0  0  0  0  0  0  0  0  0
   38.3370   34.3120   40.6370 H   0  0  0  0  0  0  0  0  0  0  0  0
   39.0120   28.7220   43.3660 O   0  0  0  0  0  0  0  0  0  0  0  0
   36.5760   27.9180   41.7860 Cl  0  0  0  0  0  0  0  0  0  0  0  0
   37.8280   26.8610   42.3780 C   0  0  0  0  0  0  0  0  0  0  0  0
   38.8930   27.3660   43.0920 C   0  0  0  0  0  0  0  0  0  0  0  0
   39.8210   26.4340   43.5080 C   0  0  0  0  0  0  0  0  0  0  0  0
   40.6900   26.7470   44.0750 H   0  0  0  0  0  0  0  0  0  0  0  0
   39.7440   25.0780   43.2580 C   0  0  0  0  0  0  0  0  0  0  0  0
   40.5050   24.3950   43.6110 H   0  0  0  0  0  0  0  0  0  0  0  0
   38.6460   24.6100   42.5310 C   0  0  0  0  0  3  0  0  0  0  0  0
   37.6810   25.5080   42.0870 C   0  0  0  0  0  3  0  0  0  0  0  0
  2  1  2  6  0  0  0
  2  3  1  0  0  0  0
  2 15  1  0  0  0  0
  4  3  1  0  0  0  0
  5  2  1  0  0  0  0
  6  7  2  0  0  0  0
  6 11  1  0  0  0  0
  7  8  1  0  0  0  0
  8 14  1  0  0  0  0
  8  9  2  0  0  0  0
 10  9  1  0  0  0  0
 10  5  1  0  0  0  0
 11 10  2  0  0  0  0
 12  6  1  0  0  0  0
 13  7  1  0  0  0  0
 16 17  1  0  0  0  0
 17 18  1  0  0  0  0
 18 15  1  0  0  0  0
 18 19  2  0  0  0  0
 19 20  1  0  0  0  0
 21 19  1  0  0  0  0
 21 22  1  0  0  0  0
 23 21  2  0  0  0  0
 24 17  2  0  0  0  0
 24 23  1  0  0  0  0
M  END
>  <minimizedAffinity>
-4.64491606

$$$$
