
 OpenBabel03252505273D

 24 25  0  0  0  0  0  0  0  0999 V2000
   45.6890   32.2000   49.5070 O   0  0  0  0  0  0  0  0  0  0  0  0
   46.2050   31.3850   48.3150 P   0  0  1  0  0  0  0  0  0  0  0  0
   47.3360   30.2410   48.7800 O   0  0  0  0  0  0  0  0  0  0  0  0
   47.0380   29.7510   49.5730 H   0  0  0  0  0  0  0  0  0  0  0  0
   44.8470   30.6600   47.6210 O   0  0  0  0  0  0  0  0  0  0  0  0
   44.9750   27.1100   47.6700 C   0  0  0  0  0  0  0  0  0  0  0  0
   44.6240   26.7150   46.3580 C   0  0  0  0  0  0  0  0  0  0  0  0
   44.3420   27.7550   45.4580 C   0  0  0  0  0  0  0  0  0  0  0  0
   44.4160   29.0440   45.8780 N   0  0  0  0  0  0  0  0  0  0  0  0
   44.7580   29.3670   47.1480 C   0  0  0  0  0  0  0  0  0  0  0  0
   45.0340   28.3930   48.0340 N   0  0  0  0  0  0  0  0  0  0  0  0
   45.1950   26.3110   48.3690 H   0  0  0  0  0  0  0  0  0  0  0  0
   44.5680   25.7000   46.0340 H   0  0  0  0  0  0  0  0  0  0  0  0
   44.0620   27.5250   44.4230 H   0  0  0  0  0  0  0  0  0  0  0  0
   46.9630   32.4820   47.2780 O   0  0  0  0  0  0  0  0  0  0  0  0
   44.9440   34.4520   46.2200 Cl  0  0  0  0  0  0  0  0  0  0  0  0
   45.8070   33.2500   45.3000 C   0  0  0  0  0  0  0  0  0  0  0  0
   46.7070   32.4080   45.9150 C   0  0  0  0  0  0  0  0  0  0  0  0
   47.3290   31.4990   45.0840 C   0  0  0  0  0  0  0  0  0  0  0  0
   48.0520   30.7990   45.4880 H   0  0  0  0  0  0  0  0  0  0  0  0
   47.1060   31.3900   43.7270 C   0  0  0  0  0  0  0  0  0  0  0  0
   47.6250   30.6550   43.1270 H   0  0  0  0  0  0  0  0  0  0  0  0
   46.1840   32.2640   43.1450 C   0  0  0  0  0  3  0  0  0  0  0  0
   45.5290   33.2020   43.9370 C   0  0  0  0  0  3  0  0  0  0  0  0
  2  3  1  0  0  0  0
  2  1  2  1  0  0  0
  3  4  1  0  0  0  0
  5  2  1  0  0  0  0
  6 11  1  0  0  0  0
  6 12  1  0  0  0  0
  7  6  2  0  0  0  0
  8  9  2  0  0  0  0
  8  7  1  0  0  0  0
  9 10  1  0  0  0  0
 10  5  1  0  0  0  0
 10 11  2  0  0  0  0
 13  7  1  0  0  0  0
 14  8  1  0  0  0  0
 15  2  1  0  0  0  0
 17 18  1  0  0  0  0
 17 16  1  0  0  0  0
 18 15  1  0  0  0  0
 19 20  1  0  0  0  0
 19 18  2  0  0  0  0
 21 19  1  0  0  0  0
 22 21  1  0  0  0  0
 23 21  2  0  0  0  0
 23 24  1  0  0  0  0
 24 17  2  0  0  0  0
M  END
>  <minimizedAffinity>
-3.85618138

>  <minimizedRMSD>
5.91225243

$$$$
