
 OpenBabel03252507163D

 27 29  0  0  0  0  0  0  0  0999 V2000
   44.8730   35.8790   44.0880 C   0  0  0  0  0  0  0  0  0  0  0  0
   45.5620   34.8020   43.4990 C   0  0  0  0  0  0  0  0  0  0  0  0
   45.8330   33.6900   44.2640 C   0  0  0  0  0  0  0  0  0  0  0  0
   45.4350   33.6610   45.5460 N   0  0  0  0  0  0  0  0  0  0  0  0
   44.7690   34.6990   46.1220 C   0  0  0  0  0  0  0  0  0  0  0  0
   44.5030   35.7830   45.3810 N   0  0  0  0  0  0  0  0  0  0  0  0
   44.6440   36.7730   43.5070 H   0  0  0  0  0  0  0  0  0  0  0  0
   44.4580   34.6450   47.1720 H   0  0  0  0  0  0  0  0  0  0  0  0
   46.5490   32.5810   43.6410 C   0  0  0  0  0  0  0  0  0  0  0  0
   45.8580   31.5000   43.1470 C   0  0  0  0  0  0  0  0  0  0  0  0
   46.5650   30.4750   42.5690 C   0  0  0  0  0  0  0  0  0  0  0  0
   47.9440   30.4690   42.4530 C   0  0  0  0  0  0  0  0  0  0  0  0
   48.5840   31.5810   42.9670 C   0  0  0  0  0  0  0  0  0  0  0  0
   47.8790   32.5750   43.5300 N   0  0  0  0  0  0  0  0  0  0  0  0
   44.7860   31.4140   43.1910 H   0  0  0  0  0  0  0  0  0  0  0  0
   46.0790   29.5770   42.1520 H   0  0  0  0  0  0  0  0  0  0  0  0
   48.5460   29.6960   42.0120 H   0  0  0  0  0  0  0  0  0  0  0  0
   49.6630   31.7410   42.9610 H   0  0  0  0  0  0  0  0  0  0  0  0
   45.9530   34.9110   42.1220 C   0  0  0  0  0  0  0  0  0  0  0  0
   47.1010   35.3940   41.8570 O   0  0  0  0  0  0  0  0  0  0  0  0
   45.0250   34.4700   41.1140 N   0  0  0  0  0  0  0  0  0  0  0  0
   45.1380   33.4460   40.0920 C   0  0  0  0  0  2  0  0  0  0  0  0
   43.9410   32.4920   40.1850 C   0  0  0  0  0  2  0  0  0  0  0  0
   42.6770   33.2600   39.8550 C   0  0  0  0  0  3  0  0  0  0  0  0
   41.8650   32.9640   40.5610 H   0  0  0  0  0  0  0  0  0  0  0  0
   42.9550   34.7490   39.8930 C   0  0  0  0  0  2  0  0  0  0  0  0
   43.7460   35.1520   41.0950 C   0  0  0  0  0  2  0  0  0  0  0  0
  1  6  1  0  0  0  0
  2  1  2  0  0  0  0
  2  3  1  0  0  0  0
  3  4  2  0  0  0  0
  4  5  1  0  0  0  0
  5  8  1  0  0  0  0
  6  5  2  0  0  0  0
  7  1  1  0  0  0  0
  9  3  1  0  0  0  0
 10 15  1  0  0  0  0
 10  9  2  0  0  0  0
 11 10  1  0  0  0  0
 12 11  2  0  0  0  0
 12 13  1  0  0  0  0
 13 14  2  0  0  0  0
 14  9  1  0  0  0  0
 16 11  1  0  0  0  0
 17 12  1  0  0  0  0
 18 13  1  0  0  0  0
 19  2  1  0  0  0  0
 20 19  2  0  0  0  0
 21 19  1  0  0  0  0
 22 23  1  0  0  0  0
 22 21  1  0  0  0  0
 24 26  1  0  0  0  0
 24 23  1  0  0  0  0
 24 25  1  0  0  0  0
 26 27  1  0  0  0  0
 27 21  1  0  0  0  0
M  END
>  <minimizedAffinity>
-4.61280966

>  <minimizedRMSD>
0.920017958

$$$$
