
 OpenBabel03252507153D

 27 29  0  0  0  0  0  0  0  0999 V2000
   44.4330   35.7330   43.5550 C   0  0  0  0  0  0  0  0  0  0  0  0
   45.0910   34.5800   43.0890 C   0  0  0  0  0  0  0  0  0  0  0  0
   45.5920   33.6850   44.0080 C   0  0  0  0  0  0  0  0  0  0  0  0
   45.4410   33.9350   45.3180 N   0  0  0  0  0  0  0  0  0  0  0  0
   44.8060   35.0490   45.7750 C   0  0  0  0  0  0  0  0  0  0  0  0
   44.3170   35.9220   44.8840 N   0  0  0  0  0  0  0  0  0  0  0  0
   44.0260   36.4600   42.8500 H   0  0  0  0  0  0  0  0  0  0  0  0
   44.6990   35.2250   46.8520 H   0  0  0  0  0  0  0  0  0  0  0  0
   46.2730   32.4930   43.5120 C   0  0  0  0  0  0  0  0  0  0  0  0
   45.5720   31.3300   43.3040 C   0  0  0  0  0  0  0  0  0  0  0  0
   46.2450   30.2290   42.8380 C   0  0  0  0  0  0  0  0  0  0  0  0
   47.6020   30.2240   42.5620 C   0  0  0  0  0  0  0  0  0  0  0  0
   48.2540   31.4210   42.7900 C   0  0  0  0  0  0  0  0  0  0  0  0
   47.5810   32.4880   43.2460 N   0  0  0  0  0  0  0  0  0  0  0  0
   44.5150   31.2360   43.4900 H   0  0  0  0  0  0  0  0  0  0  0  0
   45.7500   29.2620   42.6480 H   0  0  0  0  0  0  0  0  0  0  0  0
   48.1780   29.3940   42.1970 H   0  0  0  0  0  0  0  0  0  0  0  0
   49.3190   31.5940   42.6270 H   0  0  0  0  0  0  0  0  0  0  0  0
   45.2110   34.3850   41.6710 C   0  0  0  0  0  0  0  0  0  0  0  0
   46.3350   34.6230   41.1230 O   0  0  0  0  0  0  0  0  0  0  0  0
   44.0540   33.9320   40.9460 N   0  0  0  0  0  0  0  0  0  0  0  0
   43.4270   32.6270   40.8650 C   0  0  0  0  0  2  0  0  0  0  0  0
   41.9320   32.7530   41.1860 C   0  0  0  0  0  2  0  0  0  0  0  0
   41.2710   33.5920   40.1120 C   0  0  0  0  0  3  0  0  0  0  0  0
   40.5490   34.3010   40.5830 H   0  0  0  0  0  0  0  0  0  0  0  0
   42.3260   34.3080   39.2940 C   0  0  0  0  0  2  0  0  0  0  0  0
   43.3790   34.9380   40.1480 C   0  0  0  0  0  2  0  0  0  0  0  0
  1  6  1  0  0  0  0
  2  1  2  0  0  0  0
  2  3  1  0  0  0  0
  3  4  2  0  0  0  0
  4  5  1  0  0  0  0
  5  8  1  0  0  0  0
  6  5  2  0  0  0  0
  7  1  1  0  0  0  0
  9  3  1  0  0  0  0
 10 15  1  0  0  0  0
 10  9  1  0  0  0  0
 11 10  2  0  0  0  0
 12 13  2  0  0  0  0
 12 11  1  0  0  0  0
 13 14  1  0  0  0  0
 14  9  2  0  0  0  0
 16 11  1  0  0  0  0
 17 12  1  0  0  0  0
 18 13  1  0  0  0  0
 19  2  1  0  0  0  0
 20 19  2  0  0  0  0
 21 19  1  0  0  0  0
 22 21  1  0  0  0  0
 22 23  1  0  0  0  0
 24 25  1  0  0  0  0
 24 23  1  0  0  0  0
 26 24  1  0  0  0  0
 26 27  1  0  0  0  0
 27 21  1  0  0  0  0
M  END
>  <minimizedAffinity>
-4.34316349

>  <minimizedRMSD>
1.35274827

$$$$
