
 OpenBabel03242510503D

 20 21  0  0  0  0  0  0  0  0999 V2000
   44.6840   36.5370   43.8950 C   0  0  0  0  0  0  0  0  0  0  0  0
   45.5150   36.2830   42.7960 C   0  0  0  0  0  0  0  0  0  0  0  0
   46.2260   35.0840   42.8030 C   0  0  0  0  0  0  0  0  0  0  0  0
   46.0890   34.2290   43.8490 N   0  0  0  0  0  0  0  0  0  0  0  0
   45.2840   34.4990   44.8890 C   0  0  0  0  0  0  0  0  0  0  0  0
   44.5810   35.6700   44.8970 N   0  0  0  0  0  0  0  0  0  0  0  0
   46.1920   32.5720   46.0060 C   0  0  0  0  0  0  0  0  0  0  0  0
   47.1460   32.4480   45.2170 O   0  0  0  0  0  0  0  0  0  0  0  0
   45.1810   33.5680   45.9510 N   0  0  0  0  0  0  0  0  0  0  0  0
   44.1500   37.4560   43.8710 H   0  0  0  0  0  0  0  0  0  0  0  0
   45.6470   36.9390   41.9500 H   0  0  0  0  0  0  0  0  0  0  0  0
   46.8940   34.7930   42.0030 H   0  0  0  0  0  0  0  0  0  0  0  0
   44.3980   33.6740   46.5930 H   0  0  0  0  0  0  0  0  0  0  0  0
   46.0360   31.6490   47.1090 N   0  0  0  0  0  0  0  0  0  0  0  0
   46.4110   30.2710   47.2280 C   0  0  0  0  0  0  0  0  0  0  0  0
   45.1360   29.5320   47.6600 C   0  0  0  0  0  0  0  0  0  0  0  0
   45.0730   29.8040   49.1700 C   0  0  0  0  0  0  0  0  0  0  0  0
   44.0610   29.5800   49.5500 H   0  0  0  0  0  0  0  0  0  0  0  0
   45.5560   31.2040   49.4750 C   0  0  0  0  0  0  0  0  0  0  0  0
   45.3940   32.1480   48.3380 C   0  0  0  0  0  0  0  0  0  0  0  0
  1  6  1  0  0  0  0
  2  3  1  0  0  0  0
  2  1  2  0  0  0  0
  3  4  2  0  0  0  0
  4  5  1  0  0  0  0
  5  6  2  0  0  0  0
  5  9  1  0  0  0  0
  7 14  1  0  0  0  0
  8  7  2  0  0  0  0
  9  7  1  0  0  0  0
  9 13  1  0  0  0  0
 10  1  1  0  0  0  0
 11  2  1  0  0  0  0
 12  3  1  0  0  0  0
 14 15  1  0  0  0  0
 14 20  1  0  0  0  0
 15 16  1  0  0  0  0
 16 17  1  0  0  0  0
 17 19  1  0  0  0  0
 17 18  1  0  0  0  0
 20 19  1  0  0  0  0
M  END
>  <minimizedAffinity>
-5.23046875

>  <minimizedRMSD>
1.20622659

$$$$
