
 OpenBabel03252507163D

 27 29  0  0  0  0  0  0  0  0999 V2000
   45.2680   36.1120   43.1090 C   0  0  0  0  0  0  0  0  0  0  0  0
   45.8150   34.8250   42.9410 C   0  0  0  0  0  0  0  0  0  0  0  0
   45.7420   33.9320   43.9860 C   0  0  0  0  0  0  0  0  0  0  0  0
   45.1550   34.3080   45.1330 N   0  0  0  0  0  0  0  0  0  0  0  0
   44.6250   35.5510   45.3020 C   0  0  0  0  0  0  0  0  0  0  0  0
   44.6940   36.4230   44.2880 N   0  0  0  0  0  0  0  0  0  0  0  0
   45.3110   36.8410   42.3000 H   0  0  0  0  0  0  0  0  0  0  0  0
   44.1520   35.8280   46.2520 H   0  0  0  0  0  0  0  0  0  0  0  0
   46.3130   32.6020   43.7990 C   0  0  0  0  0  0  0  0  0  0  0  0
   45.5040   31.5400   43.4680 C   0  0  0  0  0  0  0  0  0  0  0  0
   46.0760   30.3040   43.3000 C   0  0  0  0  0  0  0  0  0  0  0  0
   47.4310   30.0640   43.4460 C   0  0  0  0  0  0  0  0  0  0  0  0
   48.1930   31.1670   43.7790 C   0  0  0  0  0  0  0  0  0  0  0  0
   47.6200   32.3700   43.9390 N   0  0  0  0  0  0  0  0  0  0  0  0
   44.4390   31.6280   43.3330 H   0  0  0  0  0  0  0  0  0  0  0  0
   45.4910   29.4070   43.0360 H   0  0  0  0  0  0  0  0  0  0  0  0
   47.9300   29.1190   43.3270 H   0  0  0  0  0  0  0  0  0  0  0  0
   49.2740   31.1590   43.9320 H   0  0  0  0  0  0  0  0  0  0  0  0
   46.4260   34.5000   41.6830 C   0  0  0  0  0  0  0  0  0  0  0  0
   47.6700   34.7250   41.5410 O   0  0  0  0  0  0  0  0  0  0  0  0
   45.5970   33.9380   40.6490 N   0  0  0  0  0  0  0  0  0  0  0  0
   45.9100   33.5130   39.2980 C   0  0  0  0  0  2  0  0  0  0  0  0
   45.4170   32.0770   39.0830 C   0  0  0  0  0  2  0  0  0  0  0  0
   43.9040   32.0600   39.1760 C   0  0  0  0  0  3  0  0  0  0  0  0
   43.5750   31.1670   39.7590 H   0  0  0  0  0  0  0  0  0  0  0  0
   43.4120   33.3560   39.7880 C   0  0  0  0  0  2  0  0  0  0  0  0
   44.2010   33.7530   40.9940 C   0  0  0  0  0  2  0  0  0  0  0  0
  1  6  1  0  0  0  0
  2  1  2  0  0  0  0
  2  3  1  0  0  0  0
  3  4  2  0  0  0  0
  4  5  1  0  0  0  0
  5  8  1  0  0  0  0
  6  5  2  0  0  0  0
  7  1  1  0  0  0  0
  9 14  1  0  0  0  0
  9  3  1  0  0  0  0
 10  9  2  0  0  0  0
 11 12  2  0  0  0  0
 11 10  1  0  0  0  0
 12 13  1  0  0  0  0
 13 18  1  0  0  0  0
 13 14  2  0  0  0  0
 15 10  1  0  0  0  0
 16 11  1  0  0  0  0
 17 12  1  0  0  0  0
 19  2  1  0  0  0  0
 20 19  2  0  0  0  0
 21 27  1  0  0  0  0
 21 19  1  0  0  0  0
 22 21  1  0  0  0  0
 23 24  1  0  0  0  0
 23 22  1  0  0  0  0
 24 25  1  0  0  0  0
 24 26  1  0  0  0  0
 26 27  1  0  0  0  0
M  END
>  <minimizedAffinity>
-4.28198147

>  <minimizedRMSD>
0.292302966

$$$$
