
 OpenBabel03242520463D

 20 21  0  0  0  0  0  0  0  0999 V2000
   37.1910   32.5580   39.1920 C   0  0  0  0  0  0  0  0  0  0  0  0
   36.6740   31.6080   40.0750 C   0  0  0  0  0  0  0  0  0  0  0  0
   36.8240   30.2410   39.8040 C   0  0  0  0  0  0  0  0  0  0  0  0
   37.4850   29.9070   38.6620 N   0  0  0  0  0  0  0  0  0  0  0  0
   37.9760   30.8370   37.8250 C   0  0  0  0  0  0  0  0  0  0  0  0
   37.8260   32.1430   38.0930 N   0  0  0  0  0  0  0  0  0  0  0  0
   37.0330   33.9320   39.4740 N   0  0  0  0  0  0  0  0  0  0  0  0
   36.1570   31.9720   40.9670 H   0  0  0  0  0  0  0  0  0  0  0  0
   38.4850   30.4620   36.9440 H   0  0  0  0  0  0  0  0  0  0  0  0
   37.6540   34.6100   39.9840 H   0  0  0  0  0  0  0  0  0  0  0  0
   36.1060   34.0420   39.0110 H   0  0  0  0  0  0  0  0  0  0  0  0
   36.2680   29.3240   40.7540 C   0  0  0  0  0  0  0  0  0  0  0  0
   35.0370   29.0030   40.7640 O   0  0  0  0  0  0  0  0  0  0  0  0
   36.8730   28.6030   41.8270 N   0  0  0  0  0  0  0  0  0  0  0  0
   38.1570   29.2500   42.0220 C   0  0  0  0  0  2  0  0  0  0  0  0
   38.9140   28.5760   43.1520 C   0  0  0  0  0  2  0  0  0  0  0  0
   39.0210   27.1070   42.8170 C   0  0  0  0  0  3  0  0  0  0  0  0
   39.7400   26.5710   43.4460 H   0  0  0  0  0  0  0  0  0  0  0  0
   37.6430   26.4780   42.8010 C   0  0  0  0  0  2  0  0  0  0  0  0
   36.5460   27.4850   42.6910 C   0  0  0  0  0  2  0  0  0  0  0  0
  1  7  1  0  0  0  0
  1  2  1  0  0  0  0
  2  8  1  0  0  0  0
  3  2  2  0  0  0  0
  3 12  1  0  0  0  0
  4  3  1  0  0  0  0
  5  6  1  0  0  0  0
  5  4  2  0  0  0  0
  6  1  2  0  0  0  0
  7 10  1  0  0  0  0
  9  5  1  0  0  0  0
 11  7  1  0  0  0  0
 12 13  2  0  0  0  0
 12 14  1  0  0  0  0
 14 15  1  0  0  0  0
 14 20  1  0  0  0  0
 15 16  1  0  0  0  0
 17 16  1  0  0  0  0
 17 18  1  0  0  0  0
 19 17  1  0  0  0  0
 20 19  1  0  0  0  0
M  END
>  <minimizedAffinity>
-4.907897

$$$$

 OpenBabel03242520463D

 20 21  0  0  0  0  0  0  0  0999 V2000
   37.8360   33.0550   39.7320 C   0  0  0  0  0  0  0  0  0  0  0  0
   37.3180   31.7610   39.8210 C   0  0  0  0  0  0  0  0  0  0  0  0
   38.1730   30.6770   40.0610 C   0  0  0  0  0  0  0  0  0  0  0  0
   39.4980   30.9540   40.1980 N   0  0  0  0  0  0  0  0  0  0  0  0
   39.9770   32.2070   40.1100 C   0  0  0  0  0  0  0  0  0  0  0  0
   39.1500   33.2380   39.8790 N   0  0  0  0  0  0  0  0  0  0  0  0
   36.9660   34.1400   39.4900 N   0  0  0  0  0  0  0  0  0  0  0  0
   36.2390   31.6360   39.6970 H   0  0  0  0  0  0  0  0  0  0  0  0
   41.0490   32.3160   40.2340 H   0  0  0  0  0  0  0  0  0  0  0  0
   36.4620   34.7850   40.1490 H   0  0  0  0  0  0  0  0  0  0  0  0
   36.9940   34.0830   38.4490 H   0  0  0  0  0  0  0  0  0  0  0  0
   37.5710   29.3790   40.1400 C   0  0  0  0  0  0  0  0  0  0  0  0
   37.0730   28.7870   39.1290 O   0  0  0  0  0  0  0  0  0  0  0  0
   37.3870   28.4950   41.2460 N   0  0  0  0  0  0  0  0  0  0  0  0
   37.6200   29.3230   42.4150 C   0  0  0  0  0  2  0  0  0  0  0  0
   37.4500   28.4980   43.6780 C   0  0  0  0  0  2  0  0  0  0  0  0
   38.3820   27.3140   43.5790 C   0  0  0  0  0  3  0  0  0  0  0  0
   38.5080   26.7810   44.5290 H   0  0  0  0  0  0  0  0  0  0  0  0
   37.9600   26.4180   42.4340 C   0  0  0  0  0  2  0  0  0  0  0  0
   37.0530   27.1010   41.4640 C   0  0  0  0  0  2  0  0  0  0  0  0
  1  2  2  0  0  0  0
  1  6  1  0  0  0  0
  2  3  1  0  0  0  0
  3 12  1  0  0  0  0
  3  4  2  0  0  0  0
  5  4  1  0  0  0  0
  5  9  1  0  0  0  0
  6  5  2  0  0  0  0
  7  1  1  0  0  0  0
  7 10  1  0  0  0  0
  8  2  1  0  0  0  0
 11  7  1  0  0  0  0
 12 14  1  0  0  0  0
 13 12  2  0  0  0  0
 14 20  1  0  0  0  0
 14 15  1  0  0  0  0
 15 16  1  0  0  0  0
 17 16  1  0  0  0  0
 17 18  1  0  0  0  0
 19 17  1  0  0  0  0
 20 19  1  0  0  0  0
M  END
>  <minimizedAffinity>
-4.82813978

$$$$

 OpenBabel03242520463D

 20 21  0  0  0  0  0  0  0  0999 V2000
   37.3870   31.2970   37.8720 C   0  0  0  0  0  0  0  0  0  0  0  0
   36.8940   30.2830   38.6960 C   0  0  0  0  0  0  0  0  0  0  0  0
   36.5730   30.5570   40.0330 C   0  0  0  0  0  0  0  0  0  0  0  0
   36.7660   31.8340   40.4640 N   0  0  0  0  0  0  0  0  0  0  0  0
   37.2410   32.7960   39.6550 C   0  0  0  0  0  0  0  0  0  0  0  0
   37.5450   32.5230   38.3770 N   0  0  0  0  0  0  0  0  0  0  0  0
   37.7070   31.0090   36.5270 N   0  0  0  0  0  0  0  0  0  0  0  0
   36.7730   29.2880   38.2610 H   0  0  0  0  0  0  0  0  0  0  0  0
   37.3560   33.7780   40.1000 H   0  0  0  0  0  0  0  0  0  0  0  0
   37.1350   31.0800   35.6480 H   0  0  0  0  0  0  0  0  0  0  0  0
   38.6890   30.7070   36.7020 H   0  0  0  0  0  0  0  0  0  0  0  0
   36.0730   29.4690   40.8190 C   0  0  0  0  0  0  0  0  0  0  0  0
   34.8930   29.0110   40.6910 O   0  0  0  0  0  0  0  0  0  0  0  0
   36.6900   28.6900   41.8430 N   0  0  0  0  0  0  0  0  0  0  0  0
   37.8690   29.4490   42.2160 C   0  0  0  0  0  2  0  0  0  0  0  0
   38.6270   28.7260   43.3150 C   0  0  0  0  0  2  0  0  0  0  0  0
   38.9360   27.3340   42.8170 C   0  0  0  0  0  3  0  0  0  0  0  0
   39.6730   26.8070   43.4340 H   0  0  0  0  0  0  0  0  0  0  0  0
   37.6510   26.5590   42.6150 C   0  0  0  0  0  2  0  0  0  0  0  0
   36.4470   27.4400   42.5370 C   0  0  0  0  0  2  0  0  0  0  0  0
  1  6  2  0  0  0  0
  1  2  1  0  0  0  0
  2  3  2  0  0  0  0
  3  4  1  0  0  0  0
  3 12  1  0  0  0  0
  5  9  1  0  0  0  0
  5  4  2  0  0  0  0
  6  5  1  0  0  0  0
  7 11  1  0  0  0  0
  7  1  1  0  0  0  0
  8  2  1  0  0  0  0
 10  7  1  0  0  0  0
 12 14  1  0  0  0  0
 13 12  2  0  0  0  0
 14 15  1  0  0  0  0
 14 20  1  0  0  0  0
 15 16  1  0  0  0  0
 17 16  1  0  0  0  0
 17 18  1  0  0  0  0
 19 17  1  0  0  0  0
 20 19  1  0  0  0  0
M  END
>  <minimizedAffinity>
-4.77090788

$$$$

 OpenBabel03242520463D

 20 21  0  0  0  0  0  0  0  0999 V2000
   39.5880   32.3550   38.4330 C   0  0  0  0  0  0  0  0  0  0  0  0
   38.6500   31.5360   39.0640 C   0  0  0  0  0  0  0  0  0  0  0  0
   38.4070   31.6730   40.4380 C   0  0  0  0  0  0  0  0  0  0  0  0
   39.1200   32.6260   41.0980 N   0  0  0  0  0  0  0  0  0  0  0  0
   40.0180   33.4060   40.4720 C   0  0  0  0  0  0  0  0  0  0  0  0
   40.2440   33.2650   39.1570 N   0  0  0  0  0  0  0  0  0  0  0  0
   39.8250   32.2070   37.0490 N   0  0  0  0  0  0  0  0  0  0  0  0
   38.1260   30.7970   38.4510 H   0  0  0  0  0  0  0  0  0  0  0  0
   40.5300   34.1330   41.0920 H   0  0  0  0  0  0  0  0  0  0  0  0
   39.3960   32.6860   36.2180 H   0  0  0  0  0  0  0  0  0  0  0  0
   40.5600   31.4720   37.1330 H   0  0  0  0  0  0  0  0  0  0  0  0
   37.4310   30.7980   41.0170 C   0  0  0  0  0  0  0  0  0  0  0  0
   36.1790   31.0070   40.9290 O   0  0  0  0  0  0  0  0  0  0  0  0
   37.5800   29.5920   41.7650 N   0  0  0  0  0  0  0  0  0  0  0  0
   38.9770   29.5770   42.1570 C   0  0  0  0  0  2  0  0  0  0  0  0
   39.2750   28.3320   42.9740 C   0  0  0  0  0  2  0  0  0  0  0  0
   38.8650   27.1350   42.1490 C   0  0  0  0  0  3  0  0  0  0  0  0
   39.2440   26.1860   42.5440 H   0  0  0  0  0  0  0  0  0  0  0  0
   37.3660   27.1460   41.9320 C   0  0  0  0  0  2  0  0  0  0  0  0
   36.7500   28.4810   42.1900 C   0  0  0  0  0  2  0  0  0  0  0  0
  1  2  2  0  0  0  0
  1  6  1  0  0  0  0
  2  3  1  0  0  0  0
  3 12  1  0  0  0  0
  3  4  2  0  0  0  0
  5  9  1  0  0  0  0
  5  4  1  0  0  0  0
  6  5  2  0  0  0  0
  7 11  1  0  0  0  0
  7  1  1  0  0  0  0
  8  2  1  0  0  0  0
 10  7  1  0  0  0  0
 12 14  1  0  0  0  0
 13 12  2  0  0  0  0
 14 15  1  0  0  0  0
 14 20  1  0  0  0  0
 15 16  1  0  0  0  0
 17 18  1  0  0  0  0
 17 16  1  0  0  0  0
 19 17  1  0  0  0  0
 19 20  1  0  0  0  0
M  END
>  <minimizedAffinity>
-4.76173925

$$$$

 OpenBabel03242520463D

 20 21  0  0  0  0  0  0  0  0999 V2000
   39.1070   31.7200   37.6830 C   0  0  0  0  0  0  0  0  0  0  0  0
   39.3610   31.3680   39.0100 C   0  0  0  0  0  0  0  0  0  0  0  0
   38.3430   30.8110   39.7970 C   0  0  0  0  0  0  0  0  0  0  0  0
   37.1290   30.6400   39.2050 N   0  0  0  0  0  0  0  0  0  0  0  0
   36.9050   30.9850   37.9260 C   0  0  0  0  0  0  0  0  0  0  0  0
   37.8860   31.5180   37.1810 N   0  0  0  0  0  0  0  0  0  0  0  0
   40.1390   32.2810   36.9000 N   0  0  0  0  0  0  0  0  0  0  0  0
   40.3670   31.5430   39.3990 H   0  0  0  0  0  0  0  0  0  0  0  0
   35.9020   30.8060   37.5530 H   0  0  0  0  0  0  0  0  0  0  0  0
   40.8430   31.8350   36.2590 H   0  0  0  0  0  0  0  0  0  0  0  0
   39.9670   33.2730   37.1710 H   0  0  0  0  0  0  0  0  0  0  0  0
   38.6760   30.4740   41.1490 C   0  0  0  0  0  0  0  0  0  0  0  0
   39.2530   31.2860   41.9400 O   0  0  0  0  0  0  0  0  0  0  0  0
   38.4750   29.2720   41.8930 N   0  0  0  0  0  0  0  0  0  0  0  0
   38.1640   28.2710   40.8900 C   0  0  0  0  0  2  0  0  0  0  0  0
   37.9280   26.9260   41.5530 C   0  0  0  0  0  2  0  0  0  0  0  0
   36.8400   27.1090   42.5840 C   0  0  0  0  0  3  0  0  0  0  0  0
   36.4340   26.1630   42.9580 H   0  0  0  0  0  0  0  0  0  0  0  0
   37.3160   28.0390   43.6800 C   0  0  0  0  0  2  0  0  0  0  0  0
   38.5050   28.8490   43.2800 C   0  0  0  0  0  2  0  0  0  0  0  0
  1  2  1  0  0  0  0
  2  8  1  0  0  0  0
  2  3  2  0  0  0  0
  3 12  1  0  0  0  0
  4  3  1  0  0  0  0
  5  4  2  0  0  0  0
  6  1  2  0  0  0  0
  6  5  1  0  0  0  0
  7 11  1  0  0  0  0
  7  1  1  0  0  0  0
  9  5  1  0  0  0  0
 10  7  1  0  0  0  0
 12 14  1  0  0  0  0
 12 13  2  0  0  0  0
 14 20  1  0  0  0  0
 15 16  1  0  0  0  0
 15 14  1  0  0  0  0
 16 17  1  0  0  0  0
 17 18  1  0  0  0  0
 17 19  1  0  0  0  0
 20 19  1  0  0  0  0
M  END
>  <minimizedAffinity>
-4.72488832

$$$$

 OpenBabel03242520463D

 20 21  0  0  0  0  0  0  0  0999 V2000
   37.6770   31.2480   37.1920 C   0  0  0  0  0  0  0  0  0  0  0  0
   37.5880   31.1540   38.5820 C   0  0  0  0  0  0  0  0  0  0  0  0
   36.7500   30.1980   39.1710 C   0  0  0  0  0  0  0  0  0  0  0  0
   36.0490   29.3910   38.3290 N   0  0  0  0  0  0  0  0  0  0  0  0
   36.1480   29.4960   36.9930 C   0  0  0  0  0  0  0  0  0  0  0  0
   36.9540   30.4150   36.4390 N   0  0  0  0  0  0  0  0  0  0  0  0
   38.5250   32.2160   36.6100 N   0  0  0  0  0  0  0  0  0  0  0  0
   38.1890   31.8470   39.1780 H   0  0  0  0  0  0  0  0  0  0  0  0
   35.5470   28.8030   36.4150 H   0  0  0  0  0  0  0  0  0  0  0  0
   39.5270   32.1620   36.3000 H   0  0  0  0  0  0  0  0  0  0  0  0
   37.8260   32.9890   36.5940 H   0  0  0  0  0  0  0  0  0  0  0  0
   36.7090   30.1600   40.6020 C   0  0  0  0  0  0  0  0  0  0  0  0
   36.2390   31.1110   41.3040 O   0  0  0  0  0  0  0  0  0  0  0  0
   37.1360   29.1600   41.5270 N   0  0  0  0  0  0  0  0  0  0  0  0
   37.9800   28.2770   40.7440 C   0  0  0  0  0  2  0  0  0  0  0  0
   38.5120   27.1550   41.6170 C   0  0  0  0  0  2  0  0  0  0  0  0
   37.3250   26.4610   42.2420 C   0  0  0  0  0  3  0  0  0  0  0  0
   37.5790   25.5010   42.7060 H   0  0  0  0  0  0  0  0  0  0  0  0
   36.6020   27.4110   43.1740 C   0  0  0  0  0  2  0  0  0  0  0  0
   36.9490   28.8430   42.9300 C   0  0  0  0  0  2  0  0  0  0  0  0
  1  2  1  0  0  0  0
  2  3  2  0  0  0  0
  2  8  1  0  0  0  0
  3 12  1  0  0  0  0
  4  3  1  0  0  0  0
  5  4  2  0  0  0  0
  6  5  1  0  0  0  0
  6  1  2  0  0  0  0
  7  1  1  0  0  0  0
  9  5  1  0  0  0  0
 10  7  1  0  0  0  0
 11  7  1  0  0  0  0
 12 13  2  0  0  0  0
 12 14  1  0  0  0  0
 14 20  1  0  0  0  0
 15 14  1  0  0  0  0
 15 16  1  0  0  0  0
 16 17  1  0  0  0  0
 17 18  1  0  0  0  0
 17 19  1  0  0  0  0
 20 19  1  0  0  0  0
M  END
>  <minimizedAffinity>
-4.71841002

$$$$

 OpenBabel03242520463D

 20 21  0  0  0  0  0  0  0  0999 V2000
   36.9490   30.4750   41.3670 C   0  0  0  0  0  0  0  0  0  0  0  0
   37.1590   29.1870   41.8620 C   0  0  0  0  0  0  0  0  0  0  0  0
   38.4600   28.6710   41.9520 C   0  0  0  0  0  0  0  0  0  0  0  0
   39.4740   29.4800   41.5390 N   0  0  0  0  0  0  0  0  0  0  0  0
   39.2510   30.7170   41.0660 C   0  0  0  0  0  0  0  0  0  0  0  0
   38.0030   31.2020   40.9840 N   0  0  0  0  0  0  0  0  0  0  0  0
   35.6360   30.9840   41.2810 N   0  0  0  0  0  0  0  0  0  0  0  0
   36.2820   28.6110   42.1690 H   0  0  0  0  0  0  0  0  0  0  0  0
   40.1300   31.2770   40.7650 H   0  0  0  0  0  0  0  0  0  0  0  0
   35.0660   31.5520   41.9580 H   0  0  0  0  0  0  0  0  0  0  0  0
   35.4270   30.6110   40.3300 H   0  0  0  0  0  0  0  0  0  0  0  0
   38.5990   27.3420   42.4700 C   0  0  0  0  0  0  0  0  0  0  0  0
   38.9340   27.1030   43.6730 O   0  0  0  0  0  0  0  0  0  0  0  0
   38.4200   26.0700   41.8480 N   0  0  0  0  0  0  0  0  0  0  0  0
   38.4020   26.3590   40.4260 C   0  0  0  0  0  2  0  0  0  0  0  0
   38.2190   25.0760   39.6360 C   0  0  0  0  0  2  0  0  0  0  0  0
   36.9590   24.4080   40.1340 C   0  0  0  0  0  3  0  0  0  0  0  0
   36.6110   23.5990   39.4820 H   0  0  0  0  0  0  0  0  0  0  0  0
   37.1310   23.9910   41.5800 C   0  0  0  0  0  2  0  0  0  0  0  0
   38.2660   24.6870   42.2550 C   0  0  0  0  0  2  0  0  0  0  0  0
  1  2  1  0  0  0  0
  2  3  2  0  0  0  0
  2  8  1  0  0  0  0
  3 12  1  0  0  0  0
  4  3  1  0  0  0  0
  5  4  2  0  0  0  0
  6  5  1  0  0  0  0
  6  1  2  0  0  0  0
  7  1  1  0  0  0  0
  7 10  1  0  0  0  0
  9  5  1  0  0  0  0
 11  7  1  0  0  0  0
 12 13  2  0  0  0  0
 14 20  1  0  0  0  0
 14 12  1  0  0  0  0
 15 14  1  0  0  0  0
 16 17  1  0  0  0  0
 16 15  1  0  0  0  0
 17 19  1  0  0  0  0
 18 17  1  0  0  0  0
 19 20  1  0  0  0  0
M  END
>  <minimizedAffinity>
-4.6105566

$$$$

 OpenBabel03242520463D

 20 21  0  0  0  0  0  0  0  0999 V2000
   39.6260   32.0630   38.4040 C   0  0  0  0  0  0  0  0  0  0  0  0
   39.8020   30.7880   38.9440 C   0  0  0  0  0  0  0  0  0  0  0  0
   39.7600   30.6010   40.3330 C   0  0  0  0  0  0  0  0  0  0  0  0
   39.5430   31.7060   41.0980 N   0  0  0  0  0  0  0  0  0  0  0  0
   39.3750   32.9250   40.5580 C   0  0  0  0  0  0  0  0  0  0  0  0
   39.4180   33.0930   39.2280 N   0  0  0  0  0  0  0  0  0  0  0  0
   39.6710   32.2400   37.0040 N   0  0  0  0  0  0  0  0  0  0  0  0
   39.9720   29.9610   38.2510 H   0  0  0  0  0  0  0  0  0  0  0  0
   39.2090   33.7360   41.2580 H   0  0  0  0  0  0  0  0  0  0  0  0
   38.9090   32.2310   36.2790 H   0  0  0  0  0  0  0  0  0  0  0  0
   40.7020   32.3800   36.9360 H   0  0  0  0  0  0  0  0  0  0  0  0
   39.9490   29.2660   40.8160 C   0  0  0  0  0  0  0  0  0  0  0  0
   41.0250   28.6120   40.6330 O   0  0  0  0  0  0  0  0  0  0  0  0
   39.0820   28.4020   41.5510 N   0  0  0  0  0  0  0  0  0  0  0  0
   37.7710   29.0120   41.4280 C   0  0  0  0  0  2  0  0  0  0  0  0
   36.7390   28.1830   42.1700 C   0  0  0  0  0  2  0  0  0  0  0  0
   37.2090   28.0400   43.5980 C   0  0  0  0  0  3  0  0  0  0  0  0
   36.4340   27.6580   44.2730 H   0  0  0  0  0  0  0  0  0  0  0  0
   38.4970   27.2450   43.6420 C   0  0  0  0  0  2  0  0  0  0  0  0
   39.1840   27.1760   42.3190 C   0  0  0  0  0  2  0  0  0  0  0  0
  1  2  2  0  0  0  0
  1  6  1  0  0  0  0
  2  3  1  0  0  0  0
  3 12  1  0  0  0  0
  3  4  2  0  0  0  0
  5  4  1  0  0  0  0
  5  9  1  0  0  0  0
  6  5  2  0  0  0  0
  7  1  1  0  0  0  0
  8  2  1  0  0  0  0
 10  7  1  0  0  0  0
 11  7  1  0  0  0  0
 12 14  1  0  0  0  0
 13 12  2  0  0  0  0
 14 20  1  0  0  0  0
 15 14  1  0  0  0  0
 15 16  1  0  0  0  0
 16 17  1  0  0  0  0
 17 19  1  0  0  0  0
 17 18  1  0  0  0  0
 20 19  1  0  0  0  0
M  END
>  <minimizedAffinity>
-4.49426413

$$$$

 OpenBabel03242520463D

 20 21  0  0  0  0  0  0  0  0999 V2000
   34.3750   28.7620   37.6470 C   0  0  0  0  0  0  0  0  0  0  0  0
   34.7930   29.0010   38.9580 C   0  0  0  0  0  0  0  0  0  0  0  0
   36.0320   29.6090   39.2020 C   0  0  0  0  0  0  0  0  0  0  0  0
   36.7800   29.9430   38.1150 N   0  0  0  0  0  0  0  0  0  0  0  0
   36.3600   29.7060   36.8610 C   0  0  0  0  0  0  0  0  0  0  0  0
   35.1720   29.1230   36.6380 N   0  0  0  0  0  0  0  0  0  0  0  0
   33.1260   28.1490   37.4130 N   0  0  0  0  0  0  0  0  0  0  0  0
   34.1240   28.6970   39.7680 H   0  0  0  0  0  0  0  0  0  0  0  0
   37.0330   30.0120   36.0680 H   0  0  0  0  0  0  0  0  0  0  0  0
   32.1720   28.5590   37.2500 H   0  0  0  0  0  0  0  0  0  0  0  0
   33.4680   27.1650   37.4570 H   0  0  0  0  0  0  0  0  0  0  0  0
   36.3940   29.8210   40.5720 C   0  0  0  0  0  0  0  0  0  0  0  0
   36.1920   30.9230   41.1760 O   0  0  0  0  0  0  0  0  0  0  0  0
   37.0100   28.9550   41.5240 N   0  0  0  0  0  0  0  0  0  0  0  0
   37.5510   27.8670   40.7310 C   0  0  0  0  0  2  0  0  0  0  0  0
   38.2470   26.8620   41.6310 C   0  0  0  0  0  2  0  0  0  0  0  0
   37.2480   26.4140   42.6720 C   0  0  0  0  0  3  0  0  0  0  0  0
   37.5710   25.5270   43.2280 H   0  0  0  0  0  0  0  0  0  0  0  0
   36.8690   27.5800   43.5600 C   0  0  0  0  0  2  0  0  0  0  0  0
   37.2100   28.9040   42.9600 C   0  0  0  0  0  2  0  0  0  0  0  0
  1  2  1  0  0  0  0
  2  3  2  0  0  0  0
  2  8  1  0  0  0  0
  3 12  1  0  0  0  0
  4  3  1  0  0  0  0
  5  4  2  0  0  0  0
  6  5  1  0  0  0  0
  6  1  2  0  0  0  0
  7 11  1  0  0  0  0
  7  1  1  0  0  0  0
  9  5  1  0  0  0  0
 10  7  1  0  0  0  0
 12 13  2  0  0  0  0
 12 14  1  0  0  0  0
 14 20  1  0  0  0  0
 15 14  1  0  0  0  0
 15 16  1  0  0  0  0
 16 17  1  0  0  0  0
 17 18  1  0  0  0  0
 17 19  1  0  0  0  0
 20 19  1  0  0  0  0
M  END
>  <minimizedAffinity>
-4.46672869

$$$$
