
 OpenBabel03252507153D

 27 29  0  0  0  0  0  0  0  0999 V2000
   45.2330   36.2120   43.4240 C   0  0  0  0  0  0  0  0  0  0  0  0
   45.8360   34.9820   43.1000 C   0  0  0  0  0  0  0  0  0  0  0  0
   45.8020   33.9620   44.0230 C   0  0  0  0  0  0  0  0  0  0  0  0
   45.1970   34.1650   45.2050 N   0  0  0  0  0  0  0  0  0  0  0  0
   44.6120   35.3520   45.5250 C   0  0  0  0  0  0  0  0  0  0  0  0
   44.6430   36.3470   44.6290 N   0  0  0  0  0  0  0  0  0  0  0  0
   45.2450   37.0390   42.7130 H   0  0  0  0  0  0  0  0  0  0  0  0
   44.1260   35.4860   46.4990 H   0  0  0  0  0  0  0  0  0  0  0  0
   46.4310   32.6920   43.6750 C   0  0  0  0  0  0  0  0  0  0  0  0
   45.6630   31.6210   43.2850 C   0  0  0  0  0  0  0  0  0  0  0  0
   46.2900   30.4430   42.9650 C   0  0  0  0  0  0  0  0  0  0  0  0
   47.6620   30.2710   43.0120 C   0  0  0  0  0  0  0  0  0  0  0  0
   48.3820   31.3810   43.4110 C   0  0  0  0  0  0  0  0  0  0  0  0
   47.7550   32.5260   43.7210 N   0  0  0  0  0  0  0  0  0  0  0  0
   44.5890   31.6580   43.2170 H   0  0  0  0  0  0  0  0  0  0  0  0
   45.7390   29.5430   42.6450 H   0  0  0  0  0  0  0  0  0  0  0  0
   48.2040   29.3740   42.7740 H   0  0  0  0  0  0  0  0  0  0  0  0
   49.4690   31.4220   43.5040 H   0  0  0  0  0  0  0  0  0  0  0  0
   46.4630   34.8450   41.8150 C   0  0  0  0  0  0  0  0  0  0  0  0
   47.6440   35.2970   41.6690 O   0  0  0  0  0  0  0  0  0  0  0  0
   45.7220   34.2050   40.7610 N   0  0  0  0  0  0  0  0  0  0  0  0
   46.1610   33.4200   39.6230 C   0  0  0  0  0  2  0  0  0  0  0  0
   45.4090   32.0830   39.6000 C   0  0  0  0  0  2  0  0  0  0  0  0
   43.9360   32.3540   39.3650 C   0  0  0  0  0  3  0  0  0  0  0  0
   43.3240   31.6990   40.0300 H   0  0  0  0  0  0  0  0  0  0  0  0
   43.6430   33.8240   39.5820 C   0  0  0  0  0  2  0  0  0  0  0  0
   44.2810   34.3570   40.8250 C   0  0  0  0  0  2  0  0  0  0  0  0
  1  6  1  0  0  0  0
  2  1  2  0  0  0  0
  2  3  1  0  0  0  0
  3  4  2  0  0  0  0
  4  5  1  0  0  0  0
  5  8  1  0  0  0  0
  6  5  2  0  0  0  0
  7  1  1  0  0  0  0
  9 14  1  0  0  0  0
  9  3  1  0  0  0  0
 10  9  2  0  0  0  0
 11 12  2  0  0  0  0
 11 10  1  0  0  0  0
 12 13  1  0  0  0  0
 13 18  1  0  0  0  0
 13 14  2  0  0  0  0
 15 10  1  0  0  0  0
 16 11  1  0  0  0  0
 17 12  1  0  0  0  0
 19  2  1  0  0  0  0
 20 19  2  0  0  0  0
 21 27  1  0  0  0  0
 21 19  1  0  0  0  0
 22 21  1  0  0  0  0
 23 22  1  0  0  0  0
 24 26  1  0  0  0  0
 24 23  1  0  0  0  0
 24 25  1  0  0  0  0
 26 27  1  0  0  0  0
M  END
>  <minimizedAffinity>
-4.60466003

>  <minimizedRMSD>
0.217803121

$$$$
