
 OpenBabel03252507163D

 27 29  0  0  0  0  0  0  0  0999 V2000
   44.8210   35.9530   43.4460 C   0  0  0  0  0  0  0  0  0  0  0  0
   45.4690   34.7480   43.1160 C   0  0  0  0  0  0  0  0  0  0  0  0
   45.7120   33.8310   44.1140 C   0  0  0  0  0  0  0  0  0  0  0  0
   45.3270   34.1090   45.3700 N   0  0  0  0  0  0  0  0  0  0  0  0
   44.7000   35.2730   45.6950 C   0  0  0  0  0  0  0  0  0  0  0  0
   44.4620   36.1680   44.7270 N   0  0  0  0  0  0  0  0  0  0  0  0
   44.6140   36.6980   42.6760 H   0  0  0  0  0  0  0  0  0  0  0  0
   44.3980   35.4700   46.7310 H   0  0  0  0  0  0  0  0  0  0  0  0
   46.3850   32.5860   43.7600 C   0  0  0  0  0  0  0  0  0  0  0  0
   45.6650   31.4230   43.6220 C   0  0  0  0  0  0  0  0  0  0  0  0
   46.3320   30.2710   43.2880 C   0  0  0  0  0  0  0  0  0  0  0  0
   47.6990   30.2140   43.0800 C   0  0  0  0  0  0  0  0  0  0  0  0
   48.3700   31.4120   43.2330 C   0  0  0  0  0  0  0  0  0  0  0  0
   47.7040   32.5300   43.5590 N   0  0  0  0  0  0  0  0  0  0  0  0
   44.5990   31.3680   43.7630 H   0  0  0  0  0  0  0  0  0  0  0  0
   45.8220   29.3020   43.1610 H   0  0  0  0  0  0  0  0  0  0  0  0
   48.2710   29.3420   42.8180 H   0  0  0  0  0  0  0  0  0  0  0  0
   49.4460   31.5480   43.1070 H   0  0  0  0  0  0  0  0  0  0  0  0
   45.8490   34.5260   41.7490 C   0  0  0  0  0  0  0  0  0  0  0  0
   47.0080   34.8980   41.3770 O   0  0  0  0  0  0  0  0  0  0  0  0
   44.8980   33.8950   40.8720 N   0  0  0  0  0  0  0  0  0  0  0  0
   44.8370   32.5490   40.3370 C   0  0  0  0  0  2  0  0  0  0  0  0
   43.4590   31.9410   40.6270 C   0  0  0  0  0  2  0  0  0  0  0  0
   42.4080   32.7280   39.8710 C   0  0  0  0  0  3  0  0  0  0  0  0
   41.5180   32.8880   40.5260 H   0  0  0  0  0  0  0  0  0  0  0  0
   42.9970   34.0340   39.3800 C   0  0  0  0  0  2  0  0  0  0  0  0
   43.7980   34.7320   40.4320 C   0  0  0  0  0  2  0  0  0  0  0  0
  1  6  1  0  0  0  0
  2  1  2  0  0  0  0
  2  3  1  0  0  0  0
  3  4  2  0  0  0  0
  4  5  1  0  0  0  0
  5  8  1  0  0  0  0
  6  5  2  0  0  0  0
  7  1  1  0  0  0  0
  9  3  1  0  0  0  0
 10  9  1  0  0  0  0
 10 15  1  0  0  0  0
 11 10  2  0  0  0  0
 12 13  2  0  0  0  0
 12 11  1  0  0  0  0
 13 14  1  0  0  0  0
 14  9  2  0  0  0  0
 16 11  1  0  0  0  0
 17 12  1  0  0  0  0
 18 13  1  0  0  0  0
 19  2  1  0  0  0  0
 20 19  2  0  0  0  0
 21 19  1  0  0  0  0
 22 23  1  0  0  0  0
 22 21  1  0  0  0  0
 24 25  1  0  0  0  0
 24 23  1  0  0  0  0
 26 24  1  0  0  0  0
 26 27  1  0  0  0  0
 27 21  1  0  0  0  0
M  END
>  <minimizedAffinity>
-4.37669277

>  <minimizedRMSD>
0.698672473

$$$$
