
 OpenBabel03252507153D

 27 29  0  0  0  0  0  0  0  0999 V2000
   44.8870   35.9610   43.2650 C   0  0  0  0  0  0  0  0  0  0  0  0
   45.5440   34.7570   42.9480 C   0  0  0  0  0  0  0  0  0  0  0  0
   45.7640   33.8380   43.9490 C   0  0  0  0  0  0  0  0  0  0  0  0
   45.3480   34.1120   45.1960 N   0  0  0  0  0  0  0  0  0  0  0  0
   44.7130   35.2740   45.5090 C   0  0  0  0  0  0  0  0  0  0  0  0
   44.4970   36.1710   44.5370 N   0  0  0  0  0  0  0  0  0  0  0  0
   44.6990   36.7080   42.4930 H   0  0  0  0  0  0  0  0  0  0  0  0
   44.3850   35.4690   46.5370 H   0  0  0  0  0  0  0  0  0  0  0  0
   46.4460   32.5930   43.6080 C   0  0  0  0  0  0  0  0  0  0  0  0
   45.7230   31.4510   43.3600 C   0  0  0  0  0  0  0  0  0  0  0  0
   46.3990   30.3000   43.0420 C   0  0  0  0  0  0  0  0  0  0  0  0
   47.7780   30.2240   42.9560 C   0  0  0  0  0  0  0  0  0  0  0  0
   48.4520   31.4020   43.2150 C   0  0  0  0  0  0  0  0  0  0  0  0
   47.7760   32.5200   43.5240 N   0  0  0  0  0  0  0  0  0  0  0  0
   44.6480   31.4110   43.4020 H   0  0  0  0  0  0  0  0  0  0  0  0
   45.8870   29.3460   42.8310 H   0  0  0  0  0  0  0  0  0  0  0  0
   48.3570   29.3510   42.7120 H   0  0  0  0  0  0  0  0  0  0  0  0
   49.5360   31.5220   43.1920 H   0  0  0  0  0  0  0  0  0  0  0  0
   45.9570   34.5390   41.5900 C   0  0  0  0  0  0  0  0  0  0  0  0
   47.0880   34.9940   41.2230 O   0  0  0  0  0  0  0  0  0  0  0  0
   45.0700   33.8180   40.7160 N   0  0  0  0  0  0  0  0  0  0  0  0
   43.6400   33.9260   40.5030 C   0  0  0  0  0  2  0  0  0  0  0  0
   43.3540   34.0980   39.0060 C   0  0  0  0  0  2  0  0  0  0  0  0
   43.7800   32.8370   38.2790 C   0  0  0  0  0  3  0  0  0  0  0  0
   44.2990   33.1120   37.3290 H   0  0  0  0  0  0  0  0  0  0  0  0
   44.6510   31.9910   39.1840 C   0  0  0  0  0  2  0  0  0  0  0  0
   45.6920   32.7980   39.8930 C   0  0  0  0  0  2  0  0  0  0  0  0
  1  6  1  0  0  0  0
  2  1  2  0  0  0  0
  2  3  1  0  0  0  0
  3  4  2  0  0  0  0
  4  5  1  0  0  0  0
  5  8  1  0  0  0  0
  6  5  2  0  0  0  0
  7  1  1  0  0  0  0
  9  3  1  0  0  0  0
 10 15  1  0  0  0  0
 10  9  2  0  0  0  0
 11 10  1  0  0  0  0
 12 11  2  0  0  0  0
 12 13  1  0  0  0  0
 13 14  2  0  0  0  0
 14  9  1  0  0  0  0
 16 11  1  0  0  0  0
 17 12  1  0  0  0  0
 18 13  1  0  0  0  0
 19  2  1  0  0  0  0
 20 19  2  0  0  0  0
 21 19  1  0  0  0  0
 22 21  1  0  0  0  0
 23 22  1  0  0  0  0
 24 23  1  0  0  0  0
 24 26  1  0  0  0  0
 25 24  1  0  0  0  0
 26 27  1  0  0  0  0
 27 21  1  0  0  0  0
M  END
>  <minimizedAffinity>
-4.37993431

>  <minimizedRMSD>
0.569904387

$$$$
