
 OpenBabel03242520003D

 28 30  0  0  0  0  0  0  0  0999 V2000
   44.5730   33.0930   41.2140 Br  0  0  0  0  0  0  0  0  0  0  0  0
   46.2460   33.9770   41.0220 C   0  0  0  0  0  0  0  0  0  0  0  0
   46.7880   34.7550   42.0130 C   0  0  0  0  0  0  0  0  0  0  0  0
   48.0070   35.3750   41.7670 C   0  0  0  0  0  0  0  0  0  0  0  0
   48.6940   35.2360   40.5660 C   0  0  0  0  0  0  0  0  0  0  0  0
   48.1370   34.4420   39.5610 C   0  0  0  0  0  0  0  0  0  0  0  0
   46.9210   33.8400   39.8370 C   0  0  0  0  0  0  0  0  0  0  0  0
   48.3660   35.9690   42.5960 H   0  0  0  0  0  0  0  0  0  0  0  0
   49.6390   35.7440   40.4350 H   0  0  0  0  0  0  0  0  0  0  0  0
   48.6580   34.3210   38.6140 H   0  0  0  0  0  0  0  0  0  0  0  0
   44.4830   35.9410   44.7610 C   0  0  0  0  0  0  0  0  0  0  0  0
   45.1640   35.8800   43.5320 C   0  0  0  0  0  0  0  0  0  0  0  0
   46.0560   34.8720   43.2600 C   0  0  0  0  0  0  0  0  0  0  0  0
   46.2060   33.9680   44.2710 N   0  0  0  0  0  0  0  0  0  0  0  0
   45.5630   34.0220   45.4360 C   0  0  0  0  0  0  0  0  0  0  0  0
   44.7080   34.9990   45.6810 N   0  0  0  0  0  0  0  0  0  0  0  0
   43.8010   36.7680   44.8870 H   0  0  0  0  0  0  0  0  0  0  0  0
   44.9800   36.6430   42.7900 H   0  0  0  0  0  0  0  0  0  0  0  0
   45.7690   33.2440   46.1560 H   0  0  0  0  0  0  0  0  0  0  0  0
   46.4090   33.0080   38.7740 C   0  0  0  0  0  0  0  0  0  0  0  0
   45.3360   33.3400   38.1390 O   0  0  0  0  0  0  0  0  0  0  0  0
   46.7950   31.7880   38.1580 N   0  0  0  0  0  0  0  0  0  0  0  0
   46.2050   30.6500   38.8370 C   0  0  0  0  0  0  0  0  0  0  0  0
   47.0510   29.3990   38.6730 C   0  0  0  0  0  0  0  0  0  0  0  0
   46.9920   28.8860   37.2500 C   0  0  0  0  0  0  0  0  0  0  0  0
   47.8640   28.3040   36.9500 H   0  0  0  0  0  0  0  0  0  0  0  0
   46.7870   30.1040   36.3780 C   0  0  0  0  0  0  0  0  0  0  0  0
   47.5820   31.2390   37.0470 C   0  0  0  0  0  0  0  0  0  0  0  0
  2  1  1  0  0  0  0
  2  3  1  0  0  0  0
  3 13  1  0  0  0  0
  4  3  2  0  0  0  0
  4  8  1  0  0  0  0
  5  4  1  0  0  0  0
  6  7  1  0  0  0  0
  6  5  2  0  0  0  0
  7  2  2  0  0  0  0
  9  5  1  0  0  0  0
 10  6  1  0  0  0  0
 11 17  1  0  0  0  0
 11 16  1  0  0  0  0
 12 11  2  0  0  0  0
 13 12  1  0  0  0  0
 13 14  2  0  0  0  0
 14 15  1  0  0  0  0
 15 16  2  0  0  0  0
 15 19  1  0  0  0  0
 18 12  1  0  0  0  0
 20  7  1  0  0  0  0
 21 20  2  0  0  0  0
 22 20  1  0  0  0  0
 22 23  1  0  0  0  0
 24 23  1  0  0  0  0
 25 24  1  0  0  0  0
 26 25  1  0  0  0  0
 27 28  1  0  0  0  0
 27 25  1  0  0  0  0
 28 22  1  0  0  0  0
M  END
>  <minimizedAffinity>
-5.50840521

>  <minimizedRMSD>
1.38564241

$$$$
