
 OpenBabel03252507153D

 27 29  0  0  0  0  0  0  0  0999 V2000
   44.3660   35.7940   43.4100 C   0  0  0  0  0  0  0  0  0  0  0  0
   44.8030   34.5770   42.8530 C   0  0  0  0  0  0  0  0  0  0  0  0
   45.2740   33.5940   43.6950 C   0  0  0  0  0  0  0  0  0  0  0  0
   45.3040   33.8200   45.0180 N   0  0  0  0  0  0  0  0  0  0  0  0
   44.8830   34.9950   45.5620 C   0  0  0  0  0  0  0  0  0  0  0  0
   44.4250   35.9550   44.7460 N   0  0  0  0  0  0  0  0  0  0  0  0
   43.9890   36.5910   42.7680 H   0  0  0  0  0  0  0  0  0  0  0  0
   44.9210   35.1490   46.6470 H   0  0  0  0  0  0  0  0  0  0  0  0
   45.7240   32.3370   43.1050 C   0  0  0  0  0  0  0  0  0  0  0  0
   44.8470   31.2890   42.9530 C   0  0  0  0  0  0  0  0  0  0  0  0
   45.3060   30.1220   42.3950 C   0  0  0  0  0  0  0  0  0  0  0  0
   46.6120   29.9400   41.9740 C   0  0  0  0  0  0  0  0  0  0  0  0
   47.4470   31.0270   42.1520 C   0  0  0  0  0  0  0  0  0  0  0  0
   46.9830   32.1610   42.6990 N   0  0  0  0  0  0  0  0  0  0  0  0
   43.8130   31.3360   43.2500 H   0  0  0  0  0  0  0  0  0  0  0  0
   44.6620   29.2410   42.2420 H   0  0  0  0  0  0  0  0  0  0  0  0
   47.0240   29.0510   41.5320 H   0  0  0  0  0  0  0  0  0  0  0  0
   48.5030   31.0570   41.8770 H   0  0  0  0  0  0  0  0  0  0  0  0
   44.7390   34.4140   41.4280 C   0  0  0  0  0  0  0  0  0  0  0  0
   45.8310   34.3280   40.7810 O   0  0  0  0  0  0  0  0  0  0  0  0
   43.4410   34.3560   40.8080 N   0  0  0  0  0  0  0  0  0  0  0  0
   42.7120   35.3330   40.0230 C   0  0  0  0  0  2  0  0  0  0  0  0
   42.2640   34.6990   38.6990 C   0  0  0  0  0  2  0  0  0  0  0  0
   41.2720   33.5930   38.9990 C   0  0  0  0  0  3  0  0  0  0  0  0
   41.4890   32.7110   38.3490 H   0  0  0  0  0  0  0  0  0  0  0  0
   41.3180   33.2450   40.4720 C   0  0  0  0  0  2  0  0  0  0  0  0
   42.7150   33.1120   40.9840 C   0  0  0  0  0  2  0  0  0  0  0  0
  1  6  1  0  0  0  0
  2  1  2  0  0  0  0
  2  3  1  0  0  0  0
  3  4  2  0  0  0  0
  4  5  1  0  0  0  0
  5  8  1  0  0  0  0
  6  5  2  0  0  0  0
  7  1  1  0  0  0  0
  9  3  1  0  0  0  0
 10  9  1  0  0  0  0
 10 15  1  0  0  0  0
 11 10  2  0  0  0  0
 12 13  2  0  0  0  0
 12 11  1  0  0  0  0
 13 14  1  0  0  0  0
 14  9  2  0  0  0  0
 16 11  1  0  0  0  0
 17 12  1  0  0  0  0
 18 13  1  0  0  0  0
 19  2  1  0  0  0  0
 20 19  2  0  0  0  0
 21 27  1  0  0  0  0
 21 19  1  0  0  0  0
 22 21  1  0  0  0  0
 23 24  1  0  0  0  0
 23 22  1  0  0  0  0
 24 26  1  0  0  0  0
 25 24  1  0  0  0  0
 26 27  1  0  0  0  0
M  END
>  <minimizedAffinity>
-4.40824175

>  <minimizedRMSD>
2.0613389

$$$$
