
 OpenBabel03252507153D

 27 29  0  0  0  0  0  0  0  0999 V2000
   45.2720   35.9250   43.0680 C   0  0  0  0  0  0  0  0  0  0  0  0
   45.7330   34.5950   43.0350 C   0  0  0  0  0  0  0  0  0  0  0  0
   45.6140   33.8240   44.1700 C   0  0  0  0  0  0  0  0  0  0  0  0
   45.0640   34.3570   45.2720 N   0  0  0  0  0  0  0  0  0  0  0  0
   44.6170   35.6420   45.3100 C   0  0  0  0  0  0  0  0  0  0  0  0
   44.7310   36.3960   44.2090 N   0  0  0  0  0  0  0  0  0  0  0  0
   45.3530   36.5600   42.1850 H   0  0  0  0  0  0  0  0  0  0  0  0
   44.1720   36.0480   46.2270 H   0  0  0  0  0  0  0  0  0  0  0  0
   46.0960   32.4470   44.1230 C   0  0  0  0  0  0  0  0  0  0  0  0
   45.2610   31.4330   43.7190 C   0  0  0  0  0  0  0  0  0  0  0  0
   45.7490   30.1500   43.6880 C   0  0  0  0  0  0  0  0  0  0  0  0
   47.0450   29.8190   44.0430 C   0  0  0  0  0  0  0  0  0  0  0  0
   47.8380   30.8780   44.4410 C   0  0  0  0  0  0  0  0  0  0  0  0
   47.3460   32.1260   44.4650 N   0  0  0  0  0  0  0  0  0  0  0  0
   44.2380   31.5920   43.4240 H   0  0  0  0  0  0  0  0  0  0  0  0
   45.1380   29.2870   43.3750 H   0  0  0  0  0  0  0  0  0  0  0  0
   47.4780   28.8350   44.0380 H   0  0  0  0  0  0  0  0  0  0  0  0
   48.8800   30.7970   44.7530 H   0  0  0  0  0  0  0  0  0  0  0  0
   46.3090   34.1000   41.8170 C   0  0  0  0  0  0  0  0  0  0  0  0
   47.5760   34.1190   41.6970 O   0  0  0  0  0  0  0  0  0  0  0  0
   45.4220   33.6080   40.7960 N   0  0  0  0  0  0  0  0  0  0  0  0
   44.0200   33.2410   40.8420 C   0  0  0  0  0  2  0  0  0  0  0  0
   43.2560   33.9840   39.7380 C   0  0  0  0  0  2  0  0  0  0  0  0
   43.7590   33.5060   38.3900 C   0  0  0  0  0  3  0  0  0  0  0  0
   43.8730   34.3790   37.7030 H   0  0  0  0  0  0  0  0  0  0  0  0
   45.0560   32.7430   38.5650 C   0  0  0  0  0  2  0  0  0  0  0  0
   46.0110   33.4400   39.4800 C   0  0  0  0  0  2  0  0  0  0  0  0
  1  6  1  0  0  0  0
  2  1  2  0  0  0  0
  2  3  1  0  0  0  0
  3  4  2  0  0  0  0
  4  5  1  0  0  0  0
  5  8  1  0  0  0  0
  6  5  2  0  0  0  0
  7  1  1  0  0  0  0
  9  3  1  0  0  0  0
  9 14  1  0  0  0  0
 10  9  2  0  0  0  0
 11 10  1  0  0  0  0
 11 12  2  0  0  0  0
 12 13  1  0  0  0  0
 13 14  2  0  0  0  0
 13 18  1  0  0  0  0
 15 10  1  0  0  0  0
 16 11  1  0  0  0  0
 17 12  1  0  0  0  0
 19  2  1  0  0  0  0
 20 19  2  0  0  0  0
 21 22  1  0  0  0  0
 21 19  1  0  0  0  0
 23 22  1  0  0  0  0
 24 26  1  0  0  0  0
 24 23  1  0  0  0  0
 25 24  1  0  0  0  0
 26 27  1  0  0  0  0
 27 21  1  0  0  0  0
M  END
>  <minimizedAffinity>
-4.30352879

>  <minimizedRMSD>
0.667865157

$$$$
