
 OpenBabel03252507163D

 27 29  0  0  0  0  0  0  0  0999 V2000
   45.0990   36.0760   43.3030 C   0  0  0  0  0  0  0  0  0  0  0  0
   45.7180   34.8440   43.0190 C   0  0  0  0  0  0  0  0  0  0  0  0
   45.7950   33.8960   44.0140 C   0  0  0  0  0  0  0  0  0  0  0  0
   45.2810   34.1690   45.2240 N   0  0  0  0  0  0  0  0  0  0  0  0
   44.6810   35.3590   45.5050 C   0  0  0  0  0  0  0  0  0  0  0  0
   44.6040   36.2840   44.5390 N   0  0  0  0  0  0  0  0  0  0  0  0
   45.0230   36.8470   42.5350 H   0  0  0  0  0  0  0  0  0  0  0  0
   44.2700   35.5510   46.5030 H   0  0  0  0  0  0  0  0  0  0  0  0
   46.4400   32.6230   43.7080 C   0  0  0  0  0  0  0  0  0  0  0  0
   45.6820   31.5170   43.4050 C   0  0  0  0  0  0  0  0  0  0  0  0
   46.3230   30.3370   43.1220 C   0  0  0  0  0  0  0  0  0  0  0  0
   47.7000   30.1970   43.1240 C   0  0  0  0  0  0  0  0  0  0  0  0
   48.4090   31.3410   43.4360 C   0  0  0  0  0  0  0  0  0  0  0  0
   47.7680   32.4880   43.7100 N   0  0  0  0  0  0  0  0  0  0  0  0
   44.6060   31.5280   43.3780 H   0  0  0  0  0  0  0  0  0  0  0  0
   45.7820   29.4100   42.8710 H   0  0  0  0  0  0  0  0  0  0  0  0
   48.2530   29.3000   42.9110 H   0  0  0  0  0  0  0  0  0  0  0  0
   49.4970   31.4100   43.4830 H   0  0  0  0  0  0  0  0  0  0  0  0
   46.2430   34.6300   41.7010 C   0  0  0  0  0  0  0  0  0  0  0  0
   47.4110   35.0630   41.4380 O   0  0  0  0  0  0  0  0  0  0  0  0
   45.4210   33.9370   40.7440 N   0  0  0  0  0  0  0  0  0  0  0  0
   44.0040   33.6280   40.7470 C   0  0  0  0  0  2  0  0  0  0  0  0
   43.3690   34.1120   39.4380 C   0  0  0  0  0  2  0  0  0  0  0  0
   43.9560   33.3200   38.2870 C   0  0  0  0  0  3  0  0  0  0  0  0
   44.1650   34.0040   37.4310 H   0  0  0  0  0  0  0  0  0  0  0  0
   45.1970   32.5850   38.7490 C   0  0  0  0  0  2  0  0  0  0  0  0
   46.1060   33.4520   39.5610 C   0  0  0  0  0  2  0  0  0  0  0  0
  1  6  1  0  0  0  0
  2  1  2  0  0  0  0
  2  3  1  0  0  0  0
  3  4  2  0  0  0  0
  4  5  1  0  0  0  0
  5  8  1  0  0  0  0
  6  5  2  0  0  0  0
  7  1  1  0  0  0  0
  9 14  1  0  0  0  0
  9  3  1  0  0  0  0
 10  9  2  0  0  0  0
 11 12  2  0  0  0  0
 11 10  1  0  0  0  0
 12 13  1  0  0  0  0
 13 18  1  0  0  0  0
 13 14  2  0  0  0  0
 15 10  1  0  0  0  0
 16 11  1  0  0  0  0
 17 12  1  0  0  0  0
 19  2  1  0  0  0  0
 20 19  2  0  0  0  0
 21 22  1  0  0  0  0
 21 19  1  0  0  0  0
 23 22  1  0  0  0  0
 24 26  1  0  0  0  0
 24 23  1  0  0  0  0
 25 24  1  0  0  0  0
 26 27  1  0  0  0  0
 27 21  1  0  0  0  0
M  END
>  <minimizedAffinity>
-4.60366678

>  <minimizedRMSD>
0.288021326

$$$$
