
 OpenBabel03242520013D

 28 30  0  0  0  0  0  0  0  0999 V2000
   36.5490   26.6770   39.3010 Br  0  0  0  0  0  0  0  0  0  0  0  0
   36.5650   28.4650   39.9490 C   0  0  0  0  0  0  0  0  0  0  0  0
   36.2030   29.5360   39.1720 C   0  0  0  0  0  0  0  0  0  0  0  0
   36.2670   30.8050   39.7330 C   0  0  0  0  0  0  0  0  0  0  0  0
   36.6800   31.0300   41.0410 C   0  0  0  0  0  0  0  0  0  0  0  0
   37.0480   29.9360   41.8280 C   0  0  0  0  0  0  0  0  0  0  0  0
   36.9730   28.6850   41.2380 C   0  0  0  0  0  0  0  0  0  0  0  0
   35.9660   31.5940   39.0570 H   0  0  0  0  0  0  0  0  0  0  0  0
   36.7100   32.0420   41.4210 H   0  0  0  0  0  0  0  0  0  0  0  0
   37.3740   30.0910   42.8530 H   0  0  0  0  0  0  0  0  0  0  0  0
   34.0940   28.7730   36.1310 C   0  0  0  0  0  0  0  0  0  0  0  0
   34.4590   29.0240   37.4660 C   0  0  0  0  0  0  0  0  0  0  0  0
   35.7640   29.2710   37.8140 C   0  0  0  0  0  0  0  0  0  0  0  0
   36.6380   29.2480   36.7670 N   0  0  0  0  0  0  0  0  0  0  0  0
   36.2960   29.0100   35.5010 C   0  0  0  0  0  0  0  0  0  0  0  0
   35.0360   28.7750   35.1850 N   0  0  0  0  0  0  0  0  0  0  0  0
   33.0460   28.5900   35.9510 H   0  0  0  0  0  0  0  0  0  0  0  0
   33.6960   29.0220   38.2300 H   0  0  0  0  0  0  0  0  0  0  0  0
   37.0840   29.0200   34.7620 H   0  0  0  0  0  0  0  0  0  0  0  0
   37.3360   27.5910   42.1070 C   0  0  0  0  0  0  0  0  0  0  0  0
   36.4680   27.0680   42.9050 O   0  0  0  0  0  0  0  0  0  0  0  0
   38.5150   26.8390   42.3610 N   0  0  0  0  0  0  0  0  0  0  0  0
   39.3100   27.4520   43.4080 C   0  0  0  0  0  2  0  0  0  0  0  0
   40.7840   27.1140   43.2630 C   0  0  0  0  0  2  0  0  0  0  0  0
   41.0410   25.6580   43.5890 C   0  0  0  0  0  3  0  0  0  0  0  0
   41.9260   25.2430   43.1060 H   0  0  0  0  0  0  0  0  0  0  0  0
   39.7790   24.9180   43.2060 C   0  0  0  0  0  2  0  0  0  0  0  0
   39.2380   25.6290   41.9540 C   0  0  0  0  0  2  0  0  0  0  0  0
  1  2  1  0  0  0  0
  2  7  1  0  0  0  0
  3  4  1  0  0  0  0
  3  2  2  0  0  0  0
  4  5  2  0  0  0  0
  5  9  1  0  0  0  0
  5  6  1  0  0  0  0
  6 10  1  0  0  0  0
  7  6  2  0  0  0  0
  7 20  1  0  0  0  0
  8  4  1  0  0  0  0
 11 12  1  0  0  0  0
 12 13  2  0  0  0  0
 12 18  1  0  0  0  0
 13  3  1  0  0  0  0
 14 13  1  0  0  0  0
 15 14  2  0  0  0  0
 16 15  1  0  0  0  0
 16 11  2  0  0  0  0
 17 11  1  0  0  0  0
 19 15  1  0  0  0  0
 20 22  1  0  0  0  0
 20 21  2  0  0  0  0
 22 23  1  0  0  0  0
 24 23  1  0  0  0  0
 24 25  1  0  0  0  0
 26 25  1  0  0  0  0
 27 25  1  0  0  0  0
 28 22  1  0  0  0  0
 28 27  1  0  0  0  0
M  END
>  <minimizedAffinity>
-5.37665892

$$$$

 OpenBabel03242520013D

 28 30  0  0  0  0  0  0  0  0999 V2000
   40.7610   30.0910   39.0700 Br  0  0  0  0  0  0  0  0  0  0  0  0
   39.3960   31.3750   39.3950 C   0  0  0  0  0  0  0  0  0  0  0  0
   39.6360   32.7260   39.3900 C   0  0  0  0  0  0  0  0  0  0  0  0
   38.5750   33.5810   39.6580 C   0  0  0  0  0  0  0  0  0  0  0  0
   37.2890   33.1250   39.9270 C   0  0  0  0  0  0  0  0  0  0  0  0
   37.0510   31.7490   39.9310 C   0  0  0  0  0  0  0  0  0  0  0  0
   38.1300   30.9240   39.6610 C   0  0  0  0  0  0  0  0  0  0  0  0
   38.8460   34.6280   39.6350 H   0  0  0  0  0  0  0  0  0  0  0  0
   36.5050   33.8410   40.1290 H   0  0  0  0  0  0  0  0  0  0  0  0
   36.0530   31.3720   40.1400 H   0  0  0  0  0  0  0  0  0  0  0  0
   43.2370   33.8280   39.7010 C   0  0  0  0  0  0  0  0  0  0  0  0
   41.9450   33.3930   40.0490 C   0  0  0  0  0  0  0  0  0  0  0  0
   40.9840   33.1730   39.0930 C   0  0  0  0  0  0  0  0  0  0  0  0
   41.3990   33.4120   37.8150 N   0  0  0  0  0  0  0  0  0  0  0  0
   42.6210   33.8230   37.4810 C   0  0  0  0  0  0  0  0  0  0  0  0
   43.5330   34.0300   38.4150 N   0  0  0  0  0  0  0  0  0  0  0  0
   43.9260   33.9740   40.5180 H   0  0  0  0  0  0  0  0  0  0  0  0
   41.7080   33.2310   41.0900 H   0  0  0  0  0  0  0  0  0  0  0  0
   42.8260   33.9760   36.4320 H   0  0  0  0  0  0  0  0  0  0  0  0
   37.8180   29.5140   39.6490 C   0  0  0  0  0  0  0  0  0  0  0  0
   37.4190   28.9380   38.5660 O   0  0  0  0  0  0  0  0  0  0  0  0
   37.8270   28.4600   40.6010 N   0  0  0  0  0  0  0  0  0  0  0  0
   36.5510   28.3620   41.2850 C   0  0  0  0  0  2  0  0  0  0  0  0
   36.7040   27.7630   42.6730 C   0  0  0  0  0  2  0  0  0  0  0  0
   37.0460   26.2910   42.5940 C   0  0  0  0  0  3  0  0  0  0  0  0
   37.5850   25.9120   43.4620 H   0  0  0  0  0  0  0  0  0  0  0  0
   37.8290   26.1150   41.3120 C   0  0  0  0  0  2  0  0  0  0  0  0
   38.6700   27.3940   41.1540 C   0  0  0  0  0  2  0  0  0  0  0  0
  1  2  1  0  0  0  0
  2  7  1  0  0  0  0
  3  2  2  0  0  0  0
  3  4  1  0  0  0  0
  4  5  2  0  0  0  0
  5  6  1  0  0  0  0
  5  9  1  0  0  0  0
  6 10  1  0  0  0  0
  7  6  2  0  0  0  0
  8  4  1  0  0  0  0
 11 12  1  0  0  0  0
 11 17  1  0  0  0  0
 12 18  1  0  0  0  0
 13  3  1  0  0  0  0
 13 12  2  0  0  0  0
 14 13  1  0  0  0  0
 15 14  2  0  0  0  0
 15 16  1  0  0  0  0
 16 11  2  0  0  0  0
 19 15  1  0  0  0  0
 20  7  1  0  0  0  0
 20 22  1  0  0  0  0
 21 20  2  0  0  0  0
 22 28  1  0  0  0  0
 22 23  1  0  0  0  0
 23 24  1  0  0  0  0
 25 24  1  0  0  0  0
 25 26  1  0  0  0  0
 27 25  1  0  0  0  0
 28 27  1  0  0  0  0
M  END
>  <minimizedAffinity>
-5.3152647

$$$$

 OpenBabel03242520013D

 28 30  0  0  0  0  0  0  0  0999 V2000
   39.6240   27.0660   39.9500 Br  0  0  0  0  0  0  0  0  0  0  0  0
   38.5150   27.3840   41.4620 C   0  0  0  0  0  0  0  0  0  0  0  0
   37.5540   26.4960   41.8730 C   0  0  0  0  0  0  0  0  0  0  0  0
   36.7820   26.8300   42.9790 C   0  0  0  0  0  0  0  0  0  0  0  0
   36.9470   28.0210   43.6800 C   0  0  0  0  0  0  0  0  0  0  0  0
   37.9260   28.9210   43.2570 C   0  0  0  0  0  0  0  0  0  0  0  0
   38.6770   28.5570   42.1510 C   0  0  0  0  0  0  0  0  0  0  0  0
   36.0490   26.0790   43.2390 H   0  0  0  0  0  0  0  0  0  0  0  0
   36.3130   28.2240   44.5330 H   0  0  0  0  0  0  0  0  0  0  0  0
   38.0700   29.8570   43.7910 H   0  0  0  0  0  0  0  0  0  0  0  0
   37.9160   22.9310   40.6750 C   0  0  0  0  0  0  0  0  0  0  0  0
   38.0940   24.1030   41.4320 C   0  0  0  0  0  0  0  0  0  0  0  0
   37.4140   25.2580   41.1310 C   0  0  0  0  0  0  0  0  0  0  0  0
   36.5760   25.1520   40.0580 N   0  0  0  0  0  0  0  0  0  0  0  0
   36.4050   24.0440   39.3390 C   0  0  0  0  0  0  0  0  0  0  0  0
   37.0690   22.9430   39.6430 N   0  0  0  0  0  0  0  0  0  0  0  0
   38.4920   22.0730   40.9840 H   0  0  0  0  0  0  0  0  0  0  0  0
   38.7800   24.0920   42.2660 H   0  0  0  0  0  0  0  0  0  0  0  0
   35.7120   24.0890   38.5120 H   0  0  0  0  0  0  0  0  0  0  0  0
   39.6940   29.5120   41.7780 C   0  0  0  0  0  0  0  0  0  0  0  0
   40.8550   29.4920   42.3410 O   0  0  0  0  0  0  0  0  0  0  0  0
   39.7900   30.5920   40.8590 N   0  0  0  0  0  0  0  0  0  0  0  0
   39.3640   31.8370   41.4710 C   0  0  0  0  0  2  0  0  0  0  0  0
   38.8330   32.8160   40.4370 C   0  0  0  0  0  2  0  0  0  0  0  0
   39.9520   33.3470   39.5670 C   0  0  0  0  0  3  0  0  0  0  0  0
   39.6300   33.6760   38.5790 H   0  0  0  0  0  0  0  0  0  0  0  0
   40.9820   32.2420   39.4950 C   0  0  0  0  0  2  0  0  0  0  0  0
   40.1860   30.9250   39.4860 C   0  0  0  0  0  2  0  0  0  0  0  0
  1  2  1  0  0  0  0
  2  3  2  0  0  0  0
  2  7  1  0  0  0  0
  3  4  1  0  0  0  0
  4  8  1  0  0  0  0
  4  5  2  0  0  0  0
  5  9  1  0  0  0  0
  6  5  1  0  0  0  0
  6 10  1  0  0  0  0
  7  6  2  0  0  0  0
 11 17  1  0  0  0  0
 11 12  1  0  0  0  0
 12 18  1  0  0  0  0
 13 12  2  0  0  0  0
 13  3  1  0  0  0  0
 14 13  1  0  0  0  0
 15 16  1  0  0  0  0
 15 14  2  0  0  0  0
 16 11  2  0  0  0  0
 19 15  1  0  0  0  0
 20  7  1  0  0  0  0
 20 21  2  0  0  0  0
 22 23  1  0  0  0  0
 22 20  1  0  0  0  0
 24 23  1  0  0  0  0
 25 24  1  0  0  0  0
 26 25  1  0  0  0  0
 27 25  1  0  0  0  0
 28 27  1  0  0  0  0
 28 22  1  0  0  0  0
M  END
>  <minimizedAffinity>
-5.22161961

$$$$

 OpenBabel03242520013D

 28 30  0  0  0  0  0  0  0  0999 V2000
   38.3570   28.2700   39.1950 Br  0  0  0  0  0  0  0  0  0  0  0  0
   37.7700   28.0730   40.9930 C   0  0  0  0  0  0  0  0  0  0  0  0
   37.6510   29.1360   41.8520 C   0  0  0  0  0  0  0  0  0  0  0  0
   37.2320   28.8850   43.1520 C   0  0  0  0  0  0  0  0  0  0  0  0
   36.9310   27.6080   43.6130 C   0  0  0  0  0  0  0  0  0  0  0  0
   37.0540   26.5290   42.7350 C   0  0  0  0  0  0  0  0  0  0  0  0
   37.4740   26.8140   41.4460 C   0  0  0  0  0  0  0  0  0  0  0  0
   37.1640   29.7740   43.7650 H   0  0  0  0  0  0  0  0  0  0  0  0
   36.6110   27.4760   44.6370 H   0  0  0  0  0  0  0  0  0  0  0  0
   36.8240   25.5230   43.0750 H   0  0  0  0  0  0  0  0  0  0  0  0
   37.4130   32.5300   40.2090 C   0  0  0  0  0  0  0  0  0  0  0  0
   37.0550   31.2550   40.6830 C   0  0  0  0  0  0  0  0  0  0  0  0
   37.9600   30.4580   41.3400 C   0  0  0  0  0  0  0  0  0  0  0  0
   39.1980   31.0130   41.4810 N   0  0  0  0  0  0  0  0  0  0  0  0
   39.5420   32.2200   41.0340 C   0  0  0  0  0  0  0  0  0  0  0  0
   38.6580   32.9730   40.4030 N   0  0  0  0  0  0  0  0  0  0  0  0
   36.6380   33.0860   39.7040 H   0  0  0  0  0  0  0  0  0  0  0  0
   36.0480   30.8990   40.5250 H   0  0  0  0  0  0  0  0  0  0  0  0
   40.5570   32.5470   41.2090 H   0  0  0  0  0  0  0  0  0  0  0  0
   37.5550   25.6650   40.5750 C   0  0  0  0  0  0  0  0  0  0  0  0
   38.6920   25.1110   40.3200 O   0  0  0  0  0  0  0  0  0  0  0  0
   36.6310   24.8810   39.8320 N   0  0  0  0  0  0  0  0  0  0  0  0
   36.4410   25.4210   38.4990 C   0  0  0  0  0  2  0  0  0  0  0  0
   35.0720   25.0680   37.9420 C   0  0  0  0  0  2  0  0  0  0  0  0
   34.9820   23.5920   37.6170 C   0  0  0  0  0  3  0  0  0  0  0  0
   33.9680   23.1920   37.6430 H   0  0  0  0  0  0  0  0  0  0  0  0
   35.8980   22.8950   38.5990 C   0  0  0  0  0  2  0  0  0  0  0  0
   35.7840   23.6860   39.9150 C   0  0  0  0  0  2  0  0  0  0  0  0
  1  2  1  0  0  0  0
  2  7  2  0  0  0  0
  2  3  1  0  0  0  0
  3  4  2  0  0  0  0
  4  5  1  0  0  0  0
  4  8  1  0  0  0  0
  5  9  1  0  0  0  0
  6 10  1  0  0  0  0
  6  5  2  0  0  0  0
  7  6  1  0  0  0  0
 11 16  2  0  0  0  0
 11 12  1  0  0  0  0
 12 13  2  0  0  0  0
 13 14  1  0  0  0  0
 13  3  1  0  0  0  0
 15 19  1  0  0  0  0
 15 14  2  0  0  0  0
 16 15  1  0  0  0  0
 17 11  1  0  0  0  0
 18 12  1  0  0  0  0
 20  7  1  0  0  0  0
 21 20  2  0  0  0  0
 22 28  1  0  0  0  0
 22 20  1  0  0  0  0
 23 22  1  0  0  0  0
 24 23  1  0  0  0  0
 25 26  1  0  0  0  0
 25 24  1  0  0  0  0
 25 27  1  0  0  0  0
 27 28  1  0  0  0  0
M  END
>  <minimizedAffinity>
-5.19561768

$$$$

 OpenBabel03242520013D

 28 30  0  0  0  0  0  0  0  0999 V2000
   39.9070   27.9880   41.7470 Br  0  0  0  0  0  0  0  0  0  0  0  0
   38.2060   28.7330   41.3370 C   0  0  0  0  0  0  0  0  0  0  0  0
   37.1140   27.9600   41.0320 C   0  0  0  0  0  0  0  0  0  0  0  0
   35.9200   28.6010   40.7270 C   0  0  0  0  0  0  0  0  0  0  0  0
   35.7900   29.9860   40.7210 C   0  0  0  0  0  0  0  0  0  0  0  0
   36.9040   30.7680   41.0320 C   0  0  0  0  0  0  0  0  0  0  0  0
   38.0780   30.0980   41.3300 C   0  0  0  0  0  0  0  0  0  0  0  0
   35.1100   27.9230   40.4990 H   0  0  0  0  0  0  0  0  0  0  0  0
   34.8330   30.4260   40.4740 H   0  0  0  0  0  0  0  0  0  0  0  0
   36.8230   31.8520   41.0320 H   0  0  0  0  0  0  0  0  0  0  0  0
   37.2720   24.3530   42.1460 C   0  0  0  0  0  0  0  0  0  0  0  0
   37.1000   25.7490   42.1820 C   0  0  0  0  0  0  0  0  0  0  0  0
   37.2770   26.5190   41.0580 C   0  0  0  0  0  0  0  0  0  0  0  0
   37.6230   25.8120   39.9430 N   0  0  0  0  0  0  0  0  0  0  0  0
   37.7870   24.4910   39.9050 C   0  0  0  0  0  0  0  0  0  0  0  0
   37.6130   23.7660   40.9960 N   0  0  0  0  0  0  0  0  0  0  0  0
   37.1120   23.8300   43.0760 H   0  0  0  0  0  0  0  0  0  0  0  0
   36.8250   26.2220   43.1130 H   0  0  0  0  0  0  0  0  0  0  0  0
   38.0620   24.0490   38.9580 H   0  0  0  0  0  0  0  0  0  0  0  0
   39.1880   30.9560   41.6730 C   0  0  0  0  0  0  0  0  0  0  0  0
   39.5180   31.1440   42.9060 O   0  0  0  0  0  0  0  0  0  0  0  0
   40.1290   31.7420   40.9540 N   0  0  0  0  0  0  0  0  0  0  0  0
   39.6290   33.0870   40.7400 C   0  0  0  0  0  2  0  0  0  0  0  0
   40.2310   33.7160   39.4940 C   0  0  0  0  0  2  0  0  0  0  0  0
   41.6960   34.0350   39.7010 C   0  0  0  0  0  3  0  0  0  0  0  0
   42.2800   34.0620   38.7800 H   0  0  0  0  0  0  0  0  0  0  0  0
   42.2130   33.0000   40.6760 C   0  0  0  0  0  2  0  0  0  0  0  0
   41.4620   31.6980   40.3440 C   0  0  0  0  0  2  0  0  0  0  0  0
  2  1  1  0  0  0  0
  3 13  1  0  0  0  0
  3  2  2  0  0  0  0
  4  3  1  0  0  0  0
  5  4  2  0  0  0  0
  5  6  1  0  0  0  0
  6  7  2  0  0  0  0
  7  2  1  0  0  0  0
  7 20  1  0  0  0  0
  8  4  1  0  0  0  0
  9  5  1  0  0  0  0
 10  6  1  0  0  0  0
 11 12  1  0  0  0  0
 11 17  1  0  0  0  0
 12 18  1  0  0  0  0
 13 12  2  0  0  0  0
 14 13  1  0  0  0  0
 15 14  2  0  0  0  0
 15 16  1  0  0  0  0
 16 11  2  0  0  0  0
 19 15  1  0  0  0  0
 20 21  2  0  0  0  0
 22 20  1  0  0  0  0
 23 22  1  0  0  0  0
 24 25  1  0  0  0  0
 24 23  1  0  0  0  0
 25 27  1  0  0  0  0
 26 25  1  0  0  0  0
 28 27  1  0  0  0  0
 28 22  1  0  0  0  0
M  END
>  <minimizedAffinity>
-5.18438005

$$$$

 OpenBabel03242520013D

 28 30  0  0  0  0  0  0  0  0999 V2000
   39.6630   29.7650   41.8190 Br  0  0  0  0  0  0  0  0  0  0  0  0
   37.9640   29.9170   40.9780 C   0  0  0  0  0  0  0  0  0  0  0  0
   37.6200   30.9900   40.1950 C   0  0  0  0  0  0  0  0  0  0  0  0
   36.3470   31.0160   39.6410 C   0  0  0  0  0  0  0  0  0  0  0  0
   35.4150   30.0050   39.8470 C   0  0  0  0  0  0  0  0  0  0  0  0
   35.7700   28.9150   40.6440 C   0  0  0  0  0  0  0  0  0  0  0  0
   37.0460   28.9200   41.1820 C   0  0  0  0  0  0  0  0  0  0  0  0
   36.1550   31.8930   39.0380 H   0  0  0  0  0  0  0  0  0  0  0  0
   34.4390   30.0830   39.3880 H   0  0  0  0  0  0  0  0  0  0  0  0
   35.0560   28.1140   40.8180 H   0  0  0  0  0  0  0  0  0  0  0  0
   39.6580   34.1610   40.4600 C   0  0  0  0  0  0  0  0  0  0  0  0
   38.6670   33.1940   40.7060 C   0  0  0  0  0  0  0  0  0  0  0  0
   38.6160   32.0240   39.9880 C   0  0  0  0  0  0  0  0  0  0  0  0
   39.5940   31.9030   39.0440 N   0  0  0  0  0  0  0  0  0  0  0  0
   40.5350   32.8170   38.8080 C   0  0  0  0  0  0  0  0  0  0  0  0
   40.5670   33.9360   39.5090 N   0  0  0  0  0  0  0  0  0  0  0  0
   39.6200   35.0480   41.0730 H   0  0  0  0  0  0  0  0  0  0  0  0
   37.9320   33.3770   41.4760 H   0  0  0  0  0  0  0  0  0  0  0  0
   41.2540   32.6020   38.0310 H   0  0  0  0  0  0  0  0  0  0  0  0
   37.3680   27.7560   41.9730 C   0  0  0  0  0  0  0  0  0  0  0  0
   37.4770   27.8410   43.2560 O   0  0  0  0  0  0  0  0  0  0  0  0
   37.6270   26.3830   41.7090 N   0  0  0  0  0  0  0  0  0  0  0  0
   39.0390   26.1560   41.4670 C   0  0  0  0  0  2  0  0  0  0  0  0
   39.2680   24.9460   40.5780 C   0  0  0  0  0  2  0  0  0  0  0  0
   38.9420   23.6630   41.3140 C   0  0  0  0  0  3  0  0  0  0  0  0
   38.6560   22.8370   40.6620 H   0  0  0  0  0  0  0  0  0  0  0  0
   37.8520   24.0170   42.3010 C   0  0  0  0  0  2  0  0  0  0  0  0
   36.9770   25.0720   41.6020 C   0  0  0  0  0  2  0  0  0  0  0  0
  2  7  1  0  0  0  0
  2  1  1  0  0  0  0
  3  2  2  0  0  0  0
  4  5  2  0  0  0  0
  4  3  1  0  0  0  0
  5  6  1  0  0  0  0
  6 10  1  0  0  0  0
  6  7  2  0  0  0  0
  7 20  1  0  0  0  0
  8  4  1  0  0  0  0
  9  5  1  0  0  0  0
 11 12  1  0  0  0  0
 11 17  1  0  0  0  0
 12 18  1  0  0  0  0
 13  3  1  0  0  0  0
 13 12  2  0  0  0  0
 14 13  1  0  0  0  0
 15 14  2  0  0  0  0
 15 16  1  0  0  0  0
 16 11  2  0  0  0  0
 19 15  1  0  0  0  0
 20 21  2  0  0  0  0
 22 20  1  0  0  0  0
 23 22  1  0  0  0  0
 24 25  1  0  0  0  0
 24 23  1  0  0  0  0
 25 27  1  0  0  0  0
 26 25  1  0  0  0  0
 28 22  1  0  0  0  0
 28 27  1  0  0  0  0
M  END
>  <minimizedAffinity>
-5.16846704

$$$$

 OpenBabel03242520013D

 28 30  0  0  0  0  0  0  0  0999 V2000
   37.3790   27.9930   39.0000 Br  0  0  0  0  0  0  0  0  0  0  0  0
   37.5210   27.9270   40.8950 C   0  0  0  0  0  0  0  0  0  0  0  0
   37.6340   26.7480   41.5870 C   0  0  0  0  0  0  0  0  0  0  0  0
   37.7130   26.8050   42.9730 C   0  0  0  0  0  0  0  0  0  0  0  0
   37.6830   28.0030   43.6800 C   0  0  0  0  0  0  0  0  0  0  0  0
   37.5680   29.2000   42.9710 C   0  0  0  0  0  0  0  0  0  0  0  0
   37.4910   29.1080   41.5910 C   0  0  0  0  0  0  0  0  0  0  0  0
   37.8000   25.8350   43.4420 H   0  0  0  0  0  0  0  0  0  0  0  0
   37.7470   27.9820   44.7590 H   0  0  0  0  0  0  0  0  0  0  0  0
   37.5430   30.1470   43.5050 H   0  0  0  0  0  0  0  0  0  0  0  0
   36.6760   23.5490   39.8210 C   0  0  0  0  0  0  0  0  0  0  0  0
   36.5740   24.7350   40.5690 C   0  0  0  0  0  0  0  0  0  0  0  0
   37.6750   25.5160   40.8230 C   0  0  0  0  0  0  0  0  0  0  0  0
   38.8370   25.0360   40.2920 N   0  0  0  0  0  0  0  0  0  0  0  0
   38.9370   23.9130   39.5820 C   0  0  0  0  0  0  0  0  0  0  0  0
   37.8670   23.1750   39.3480 N   0  0  0  0  0  0  0  0  0  0  0  0
   35.7590   23.0000   39.6710 H   0  0  0  0  0  0  0  0  0  0  0  0
   35.6100   25.0360   40.9500 H   0  0  0  0  0  0  0  0  0  0  0  0
   39.9170   23.6410   39.2150 H   0  0  0  0  0  0  0  0  0  0  0  0
   37.4030   30.3770   40.9090 C   0  0  0  0  0  0  0  0  0  0  0  0
   36.2840   30.7810   40.4110 O   0  0  0  0  0  0  0  0  0  0  0  0
   38.3040   31.4310   40.5950 N   0  0  0  0  0  0  0  0  0  0  0  0
   38.9480   31.2030   39.3150 C   0  0  0  0  0  2  0  0  0  0  0  0
   40.3090   31.8740   39.2450 C   0  0  0  0  0  2  0  0  0  0  0  0
   40.1690   33.3800   39.1780 C   0  0  0  0  0  3  0  0  0  0  0  0
   41.0330   33.9250   39.5600 H   0  0  0  0  0  0  0  0  0  0  0  0
   38.9020   33.7130   39.9330 C   0  0  0  0  0  2  0  0  0  0  0  0
   38.8280   32.7070   41.0950 C   0  0  0  0  0  2  0  0  0  0  0  0
  1  2  1  0  0  0  0
  2  3  2  0  0  0  0
  2  7  1  0  0  0  0
  3  4  1  0  0  0  0
  4  8  1  0  0  0  0
  4  5  2  0  0  0  0
  5  9  1  0  0  0  0
  6 10  1  0  0  0  0
  6  5  1  0  0  0  0
  7  6  2  0  0  0  0
 11 12  1  0  0  0  0
 12 13  2  0  0  0  0
 12 18  1  0  0  0  0
 13  3  1  0  0  0  0
 14 13  1  0  0  0  0
 15 14  2  0  0  0  0
 16 15  1  0  0  0  0
 16 11  2  0  0  0  0
 17 11  1  0  0  0  0
 19 15  1  0  0  0  0
 20  7  1  0  0  0  0
 21 20  2  0  0  0  0
 22 20  1  0  0  0  0
 22 28  1  0  0  0  0
 23 22  1  0  0  0  0
 24 23  1  0  0  0  0
 25 24  1  0  0  0  0
 25 26  1  0  0  0  0
 25 27  1  0  0  0  0
 27 28  1  0  0  0  0
M  END
>  <minimizedAffinity>
-5.11418629

$$$$

 OpenBabel03242520013D

 28 30  0  0  0  0  0  0  0  0999 V2000
   40.5990   30.5040   41.7580 Br  0  0  0  0  0  0  0  0  0  0  0  0
   39.0710   31.2150   40.8760 C   0  0  0  0  0  0  0  0  0  0  0  0
   37.8550   30.5800   40.8760 C   0  0  0  0  0  0  0  0  0  0  0  0
   36.8050   31.1730   40.1850 C   0  0  0  0  0  0  0  0  0  0  0  0
   36.9390   32.3760   39.5010 C   0  0  0  0  0  0  0  0  0  0  0  0
   38.1780   33.0190   39.5050 C   0  0  0  0  0  0  0  0  0  0  0  0
   39.2040   32.4010   40.2020 C   0  0  0  0  0  0  0  0  0  0  0  0
   35.8830   30.6110   40.2340 H   0  0  0  0  0  0  0  0  0  0  0  0
   36.0840   32.7870   38.9820 H   0  0  0  0  0  0  0  0  0  0  0  0
   38.3030   33.9600   38.9760 H   0  0  0  0  0  0  0  0  0  0  0  0
   37.7370   26.9160   41.7910 C   0  0  0  0  0  0  0  0  0  0  0  0
   37.8550   28.0920   41.0290 C   0  0  0  0  0  0  0  0  0  0  0  0
   37.7430   29.3330   41.6080 C   0  0  0  0  0  0  0  0  0  0  0  0
   37.5120   29.3050   42.9530 N   0  0  0  0  0  0  0  0  0  0  0  0
   37.3990   28.1930   43.6780 C   0  0  0  0  0  0  0  0  0  0  0  0
   37.5100   27.0090   43.1040 N   0  0  0  0  0  0  0  0  0  0  0  0
   37.8390   25.9870   41.2520 H   0  0  0  0  0  0  0  0  0  0  0  0
   38.0380   28.0150   39.9680 H   0  0  0  0  0  0  0  0  0  0  0  0
   37.2160   28.3060   44.7370 H   0  0  0  0  0  0  0  0  0  0  0  0
   40.4530   33.1240   40.1960 C   0  0  0  0  0  0  0  0  0  0  0  0
   40.6360   34.1280   40.9850 O   0  0  0  0  0  0  0  0  0  0  0  0
   41.6800   33.0340   39.4850 N   0  0  0  0  0  0  0  0  0  0  0  0
   41.6390   33.8230   38.2680 C   0  0  0  0  0  2  0  0  0  0  0  0
   42.5780   33.2710   37.2100 C   0  0  0  0  0  2  0  0  0  0  0  0
   44.0240   33.5000   37.5950 C   0  0  0  0  0  3  0  0  0  0  0  0
   44.7200   32.7850   37.1540 H   0  0  0  0  0  0  0  0  0  0  0  0
   44.0600   33.4770   39.1070 C   0  0  0  0  0  2  0  0  0  0  0  0
   43.0170   32.4310   39.5360 C   0  0  0  0  0  2  0  0  0  0  0  0
  2  3  1  0  0  0  0
  2  1  1  0  0  0  0
  3 13  1  0  0  0  0
  4  8  1  0  0  0  0
  4  3  2  0  0  0  0
  5  6  2  0  0  0  0
  5  4  1  0  0  0  0
  6  7  1  0  0  0  0
  7  2  2  0  0  0  0
  9  5  1  0  0  0  0
 10  6  1  0  0  0  0
 11 16  1  0  0  0  0
 12 13  1  0  0  0  0
 12 11  2  0  0  0  0
 13 14  2  0  0  0  0
 14 15  1  0  0  0  0
 15 19  1  0  0  0  0
 16 15  2  0  0  0  0
 17 11  1  0  0  0  0
 18 12  1  0  0  0  0
 20  7  1  0  0  0  0
 20 21  2  0  0  0  0
 22 28  1  0  0  0  0
 22 20  1  0  0  0  0
 23 22  1  0  0  0  0
 24 25  1  0  0  0  0
 24 23  1  0  0  0  0
 25 27  1  0  0  0  0
 26 25  1  0  0  0  0
 27 28  1  0  0  0  0
M  END
>  <minimizedAffinity>
-5.07042551

$$$$

 OpenBabel03242520013D

 28 30  0  0  0  0  0  0  0  0999 V2000
   37.3480   29.0640   40.3410 Br  0  0  0  0  0  0  0  0  0  0  0  0
   38.8200   28.7560   41.5050 C   0  0  0  0  0  0  0  0  0  0  0  0
   39.8390   29.6610   41.6630 C   0  0  0  0  0  0  0  0  0  0  0  0
   40.8800   29.3340   42.5230 C   0  0  0  0  0  0  0  0  0  0  0  0
   40.9270   28.1350   43.2260 C   0  0  0  0  0  0  0  0  0  0  0  0
   39.8870   27.2180   43.0620 C   0  0  0  0  0  0  0  0  0  0  0  0
   38.8660   27.5740   42.1970 C   0  0  0  0  0  0  0  0  0  0  0  0
   41.6410   30.0980   42.5920 H   0  0  0  0  0  0  0  0  0  0  0  0
   41.7650   27.9380   43.8810 H   0  0  0  0  0  0  0  0  0  0  0  0
   39.9050   26.2740   43.6020 H   0  0  0  0  0  0  0  0  0  0  0  0
   40.2000   32.3370   39.0200 C   0  0  0  0  0  0  0  0  0  0  0  0
   40.3120   31.1040   39.6860 C   0  0  0  0  0  0  0  0  0  0  0  0
   39.7570   30.9090   40.9270 C   0  0  0  0  0  0  0  0  0  0  0  0
   39.1080   32.0000   41.4280 N   0  0  0  0  0  0  0  0  0  0  0  0
   39.0000   33.1700   40.8010 C   0  0  0  0  0  0  0  0  0  0  0  0
   39.5400   33.3380   39.6070 N   0  0  0  0  0  0  0  0  0  0  0  0
   40.6670   32.3980   38.0490 H   0  0  0  0  0  0  0  0  0  0  0  0
   40.8470   30.2950   39.2100 H   0  0  0  0  0  0  0  0  0  0  0  0
   38.4590   33.9570   41.3050 H   0  0  0  0  0  0  0  0  0  0  0  0
   37.8040   26.6010   42.0900 C   0  0  0  0  0  0  0  0  0  0  0  0
   36.8080   26.6210   42.9090 O   0  0  0  0  0  0  0  0  0  0  0  0
   37.5120   25.5010   41.2390 N   0  0  0  0  0  0  0  0  0  0  0  0
   38.0880   24.2740   41.7550 C   0  0  0  0  0  2  0  0  0  0  0  0
   38.3770   23.2790   40.6440 C   0  0  0  0  0  2  0  0  0  0  0  0
   37.0930   22.7180   40.0700 C   0  0  0  0  0  3  0  0  0  0  0  0
   37.1800   22.3720   39.0400 H   0  0  0  0  0  0  0  0  0  0  0  0
   36.0590   23.8110   40.2220 C   0  0  0  0  0  2  0  0  0  0  0  0
   36.8100   25.1360   40.0030 C   0  0  0  0  0  2  0  0  0  0  0  0
  1  2  1  0  0  0  0
  2  3  2  0  0  0  0
  2  7  1  0  0  0  0
  3  4  1  0  0  0  0
  4  8  1  0  0  0  0
  4  5  2  0  0  0  0
  5  9  1  0  0  0  0
  6  5  1  0  0  0  0
  6 10  1  0  0  0  0
  7  6  2  0  0  0  0
 11 16  2  0  0  0  0
 11 12  1  0  0  0  0
 12 13  2  0  0  0  0
 13 14  1  0  0  0  0
 13  3  1  0  0  0  0
 15 19  1  0  0  0  0
 15 14  2  0  0  0  0
 16 15  1  0  0  0  0
 17 11  1  0  0  0  0
 18 12  1  0  0  0  0
 20  7  1  0  0  0  0
 20 21  2  0  0  0  0
 22 23  1  0  0  0  0
 22 20  1  0  0  0  0
 24 23  1  0  0  0  0
 25 27  1  0  0  0  0
 25 24  1  0  0  0  0
 26 25  1  0  0  0  0
 28 27  1  0  0  0  0
 28 22  1  0  0  0  0
M  END
>  <minimizedAffinity>
-5.06984043

$$$$
