
 OpenBabel03252503593D

 32 35  0  0  0  0  0  0  0  0999 V2000
   46.6790   34.9850   42.6400 C   0  0  0  0  0  0  0  0  0  0  0  0
   45.7960   36.0660   42.6610 C   0  0  0  0  0  0  0  0  0  0  0  0
   44.8690   36.1190   43.6970 C   0  0  0  0  0  0  0  0  0  0  0  0
   44.8670   35.1320   44.6230 N   0  0  0  0  0  0  0  0  0  0  0  0
   45.7380   34.1010   44.5660 C   0  0  0  0  0  0  0  0  0  0  0  0
   46.6540   34.0230   43.5680 N   0  0  0  0  0  0  0  0  0  0  0  0
   45.8180   36.8520   41.9020 H   0  0  0  0  0  0  0  0  0  0  0  0
   44.1490   36.9210   43.7900 H   0  0  0  0  0  0  0  0  0  0  0  0
   46.0390   31.7450   45.1650 C   0  0  0  0  0  0  0  0  0  0  0  0
   45.7380   33.0280   45.5700 C   0  0  0  0  0  0  0  0  0  0  0  0
   45.4440   33.2810   46.9040 C   0  0  0  0  0  0  0  0  0  0  0  0
   45.4610   32.2280   47.8020 C   0  0  0  0  0  0  0  0  0  0  0  0
   45.2280   32.1490   49.1190 N   0  0  0  0  0  0  0  0  0  0  0  0
   45.3670   30.8890   49.5600 C   0  0  0  0  0  0  0  0  0  0  0  0
   45.7080   30.0940   48.4770 C   0  0  0  0  0  0  0  0  0  0  0  0
   45.7650   30.9360   47.3850 C   0  0  0  0  0  0  0  0  0  0  0  0
   46.0540   30.7000   46.0620 C   0  0  0  0  0  0  0  0  0  0  0  0
   46.2790   31.4690   44.1410 H   0  0  0  0  0  0  0  0  0  0  0  0
   45.2100   34.2860   47.2160 H   0  0  0  0  0  0  0  0  0  0  0  0
   44.9700   32.9890   49.7120 H   0  0  0  0  0  0  0  0  0  0  0  0
   45.2180   30.6290   50.5990 H   0  0  0  0  0  0  0  0  0  0  0  0
   45.8860   29.0230   48.5290 H   0  0  0  0  0  0  0  0  0  0  0  0
   46.2870   29.6780   45.7760 H   0  0  0  0  0  0  0  0  0  0  0  0
   47.6140   34.9970   41.5350 C   0  0  0  0  0  0  0  0  0  0  0  0
   48.7040   35.6770   41.5120 O   0  0  0  0  0  0  0  0  0  0  0  0
   47.3190   34.2010   40.3820 N   0  0  0  0  0  0  0  0  0  0  0  0
   45.9960   33.6550   40.1570 C   0  0  0  0  0  0  0  0  0  0  0  0
   46.0770   32.5170   39.1560 C   0  0  0  0  0  0  0  0  0  0  0  0
   46.5520   33.0640   37.8240 C   0  0  0  0  0  0  0  0  0  0  0  0
   45.7020   33.6450   37.3730 H   0  0  0  0  0  0  0  0  0  0  0  0
   47.7240   33.9950   37.9860 C   0  0  0  0  0  0  0  0  0  0  0  0
   48.3250   33.9000   39.3830 C   0  0  0  0  0  0  0  0  0  0  0  0
  1  2  2  0  0  0  0
  1  6  1  0  0  0  0
  2  3  1  0  0  0  0
  3  8  1  0  0  0  0
  3  4  2  0  0  0  0
  5  4  1  0  0  0  0
  5 10  1  0  0  0  0
  6  5  2  0  0  0  0
  7  2  1  0  0  0  0
  9 10  2  0  0  0  0
  9 17  1  0  0  0  0
 10 11  1  0  0  0  0
 11 19  1  0  0  0  0
 11 12  2  0  0  0  0
 12 13  1  0  0  0  0
 13 14  1  0  0  0  0
 13 20  1  0  0  0  0
 14 21  1  0  0  0  0
 15 22  1  0  0  0  0
 15 14  2  0  0  0  0
 16 12  1  0  0  0  0
 16 15  1  0  0  0  0
 17 16  2  0  0  0  0
 18  9  1  0  0  0  0
 23 17  1  0  0  0  0
 24  1  1  0  0  0  0
 25 24  2  0  0  0  0
 26 24  1  0  0  0  0
 27 26  1  0  0  0  0
 28 27  1  0  0  0  0
 29 31  1  0  0  0  0
 29 28  1  0  0  0  0
 30 29  1  0  0  0  0
 31 32  1  0  0  0  0
 32 26  1  0  0  0  0
M  END
>  <minimizedAffinity>
-6.40509558

>  <minimizedRMSD>
0.563216567

$$$$
