
 OpenBabel03252507153D

 27 29  0  0  0  0  0  0  0  0999 V2000
   45.3560   35.7800   42.9990 C   0  0  0  0  0  0  0  0  0  0  0  0
   45.8130   34.4500   43.0570 C   0  0  0  0  0  0  0  0  0  0  0  0
   45.6530   33.7440   44.2280 C   0  0  0  0  0  0  0  0  0  0  0  0
   45.0690   34.3400   45.2800 N   0  0  0  0  0  0  0  0  0  0  0  0
   44.6260   35.6260   45.2300 C   0  0  0  0  0  0  0  0  0  0  0  0
   44.7790   36.3160   44.0920 N   0  0  0  0  0  0  0  0  0  0  0  0
   45.4690   36.3640   42.0850 H   0  0  0  0  0  0  0  0  0  0  0  0
   44.1530   36.0840   46.1070 H   0  0  0  0  0  0  0  0  0  0  0  0
   46.1310   32.3660   44.2760 C   0  0  0  0  0  0  0  0  0  0  0  0
   45.3210   31.3360   43.8630 C   0  0  0  0  0  0  0  0  0  0  0  0
   45.8040   30.0520   43.9220 C   0  0  0  0  0  0  0  0  0  0  0  0
   47.0720   29.7350   44.3770 C   0  0  0  0  0  0  0  0  0  0  0  0
   47.8410   30.8110   44.7780 C   0  0  0  0  0  0  0  0  0  0  0  0
   47.3540   32.0590   44.7140 N   0  0  0  0  0  0  0  0  0  0  0  0
   44.3200   31.4830   43.4940 H   0  0  0  0  0  0  0  0  0  0  0  0
   45.2110   29.1770   43.6090 H   0  0  0  0  0  0  0  0  0  0  0  0
   47.5000   28.7510   44.4450 H   0  0  0  0  0  0  0  0  0  0  0  0
   48.8600   30.7430   45.1620 H   0  0  0  0  0  0  0  0  0  0  0  0
   46.4270   33.8850   41.8880 C   0  0  0  0  0  0  0  0  0  0  0  0
   47.6900   33.7300   41.8850 O   0  0  0  0  0  0  0  0  0  0  0  0
   45.5810   33.5240   40.7810 N   0  0  0  0  0  0  0  0  0  0  0  0
   45.8350   33.4900   39.3540 C   0  0  0  0  0  2  0  0  0  0  0  0
   45.4510   32.1140   38.7950 C   0  0  0  0  0  2  0  0  0  0  0  0
   43.9560   31.9230   38.9480 C   0  0  0  0  0  3  0  0  0  0  0  0
   43.7450   30.8830   39.2940 H   0  0  0  0  0  0  0  0  0  0  0  0
   43.3990   32.9650   39.8970 C   0  0  0  0  0  2  0  0  0  0  0  0
   44.2310   33.1210   41.1280 C   0  0  0  0  0  2  0  0  0  0  0  0
  1  2  2  0  0  0  0
  1  6  1  0  0  0  0
  2  3  1  0  0  0  0
  3  9  1  0  0  0  0
  3  4  2  0  0  0  0
  5  4  1  0  0  0  0
  5  8  1  0  0  0  0
  6  5  2  0  0  0  0
  7  1  1  0  0  0  0
  9 14  1  0  0  0  0
 10 11  1  0  0  0  0
 10  9  2  0  0  0  0
 11 12  2  0  0  0  0
 12 17  1  0  0  0  0
 12 13  1  0  0  0  0
 13 18  1  0  0  0  0
 14 13  2  0  0  0  0
 15 10  1  0  0  0  0
 16 11  1  0  0  0  0
 19  2  1  0  0  0  0
 20 19  2  0  0  0  0
 21 27  1  0  0  0  0
 21 19  1  0  0  0  0
 22 21  1  0  0  0  0
 23 24  1  0  0  0  0
 23 22  1  0  0  0  0
 24 25  1  0  0  0  0
 24 26  1  0  0  0  0
 26 27  1  0  0  0  0
M  END
>  <minimizedAffinity>
-3.94238687

>  <minimizedRMSD>
0.848014534

$$$$
