
 OpenBabel03252508503D

 26 28  0  0  0  0  0  0  0  0999 V2000
   45.9490   34.1530   41.0450 C   0  0  0  0  0  0  0  0  0  0  0  0
   46.5310   34.7970   42.1460 C   0  0  0  0  0  0  0  0  0  0  0  0
   47.8750   35.1870   42.0060 C   0  0  0  0  0  0  0  0  0  0  0  0
   48.5190   34.9200   40.8290 N   0  0  0  0  0  0  0  0  0  0  0  0
   47.9140   34.3060   39.8210 C   0  0  0  0  0  0  0  0  0  0  0  0
   46.6270   33.9180   39.9190 N   0  0  0  0  0  0  0  0  0  0  0  0
   48.3220   35.6860   42.8590 H   0  0  0  0  0  0  0  0  0  0  0  0
   48.4170   34.0970   38.9010 H   0  0  0  0  0  0  0  0  0  0  0  0
   45.7590   35.0310   43.3470 C   0  0  0  0  0  0  0  0  0  0  0  0
   45.0640   36.2130   43.5730 C   0  0  0  0  0  0  0  0  0  0  0  0
   44.4830   36.0150   44.8040 C   0  0  0  0  0  0  0  0  0  0  0  0
   44.8030   34.7980   45.2950 N   0  0  0  0  0  0  0  0  0  0  0  0
   45.5710   34.2340   44.3940 N   0  0  0  0  0  0  0  0  0  0  0  0
   44.9980   37.0720   42.9350 H   0  0  0  0  0  0  0  0  0  0  0  0
   43.8510   36.7040   45.3490 H   0  0  0  0  0  0  0  0  0  0  0  0
   44.5100   34.3760   46.2020 H   0  0  0  0  0  0  0  0  0  0  0  0
   44.6340   33.7600   41.1570 O   0  0  0  0  0  0  0  0  0  0  0  0
   43.5440   34.4250   40.6610 C   0  0  0  0  0  0  0  0  0  0  0  0
   43.3640   35.6820   40.5670 O   0  0  0  0  0  0  0  0  0  0  0  0
   42.2910   33.9570   40.1030 N   0  0  0  0  0  0  0  0  0  0  0  0
   41.8250   32.6890   40.6290 C   0  0  0  0  0  2  0  0  0  0  0  0
   42.2170   31.6510   39.5690 C   0  0  0  0  0  2  0  0  0  0  0  0
   42.0560   32.3360   38.2090 C   0  0  0  0  0  3  0  0  0  0  0  0
   43.0260   32.7900   37.9660 H   0  0  0  0  0  0  0  0  0  0  0  0
   40.9580   33.3900   38.2440 C   0  0  0  0  0  2  0  0  0  0  0  0
   41.4380   34.5760   39.0940 C   0  0  0  0  0  2  0  0  0  0  0  0
  1 17  1  0  0  0  0
  1  2  1  0  0  0  0
  2  9  1  0  0  0  0
  3  2  2  0  0  0  0
  3  7  1  0  0  0  0
  4  3  1  0  0  0  0
  5  6  1  0  0  0  0
  5  4  2  0  0  0  0
  6  1  2  0  0  0  0
  8  5  1  0  0  0  0
  9 10  1  0  0  0  0
  9 13  2  0  0  0  0
 10 11  2  0  0  0  0
 11 12  1  0  0  0  0
 11 15  1  0  0  0  0
 12 16  1  0  0  0  0
 13 12  1  0  0  0  0
 14 10  1  0  0  0  0
 18 17  1  0  0  0  0
 19 18  2  0  0  0  0
 20 21  1  0  0  0  0
 20 18  1  0  0  0  0
 22 21  1  0  0  0  0
 23 25  1  0  0  0  0
 23 22  1  0  0  0  0
 24 23  1  0  0  0  0
 25 26  1  0  0  0  0
 26 20  1  0  0  0  0
M  END
>  <minimizedAffinity>
-5.46612358

>  <minimizedRMSD>
0.699649394

$$$$
