
 OpenBabel03252503313D

 39 41  0  0  1  0  0  0  0  0999 V2000
   45.4510   34.2290   42.1670 C   0  0  0  0  0  0  0  0  0  0  0  0
   46.5070   35.0560   41.6870 C   0  0  0  0  0  0  0  0  0  0  0  0
   47.8120   34.6630   42.0440 C   0  0  0  0  0  0  0  0  0  0  0  0
   47.9590   33.5610   42.7930 N   0  0  0  0  0  0  0  0  0  0  0  0
   46.9220   32.8080   43.2250 C   0  0  0  0  0  0  0  0  0  0  0  0
   45.6580   33.1530   42.9030 N   0  0  0  0  0  0  0  0  0  0  0  0
   43.7880   34.2360   40.5090 C   0  0  0  0  0  0  0  0  0  0  0  0
   44.7080   33.7550   39.7640 O   0  0  0  0  0  0  0  0  0  0  0  0
   44.0920   34.5610   41.8460 N   0  0  0  0  0  0  0  0  0  0  0  0
   42.5100   34.4090   39.9230 N   0  0  0  0  0  0  0  0  0  0  0  0
   42.3610   34.3570   38.4580 C   0  0  0  0  0  0  0  0  0  0  0  0
   41.2280   35.3080   38.2200 C   0  0  0  0  0  0  0  0  0  0  0  0
   40.7320   35.7180   39.5770 C   0  0  0  0  0  0  0  0  0  0  0  0
   41.2110   34.6160   40.4940 C   0  0  1  0  0  0  0  0  0  0  0  0
   46.2770   35.9410   41.0770 H   0  0  0  0  0  0  0  0  0  0  0  0
   47.1090   31.9300   43.8260 H   0  0  0  0  0  0  0  0  0  0  0  0
   43.3440   34.9880   42.4450 H   0  0  0  0  0  0  0  0  0  0  0  0
   41.9680   33.3230   38.2700 H   0  0  0  0  0  0  0  0  0  0  0  0
   43.2800   34.5680   37.9210 H   0  0  0  0  0  0  0  0  0  0  0  0
   41.6530   36.1600   37.6430 H   0  0  0  0  0  0  0  0  0  0  0  0
   40.4260   34.8990   37.5710 H   0  0  0  0  0  0  0  0  0  0  0  0
   41.4850   36.5380   39.8610 H   0  0  0  0  0  0  0  0  0  0  0  0
   39.8210   36.2040   39.6860 H   0  0  0  0  0  0  0  0  0  0  0  0
   41.1160   35.0350   41.4850 H   0  0  0  0  0  0  0  0  0  0  0  0
   39.7580   32.7670   41.5350 C   0  0  0  0  0  0  0  0  0  0  0  0
   39.7050   33.5560   42.4920 O   0  0  0  0  0  0  0  0  0  0  0  0
   40.4480   33.3760   40.4140 N   0  0  0  0  0  0  0  0  0  0  0  0
   40.4030   32.8980   39.4600 H   0  0  0  0  0  0  0  0  0  0  0  0
   39.2460   31.4700   41.4850 N   0  0  0  0  0  0  0  0  0  0  0  0
   38.0290   31.2830   40.7180 C   0  0  0  0  0  0  0  0  0  0  0  0
   37.3060   30.0100   41.0050 C   0  0  0  0  0  0  0  0  0  0  0  0
   37.7720   29.4320   42.3090 C   0  0  0  0  0  0  0  0  0  0  0  0
   37.1910   28.5480   42.6270 H   0  0  0  0  0  0  0  0  0  0  0  0
   39.2450   29.0930   42.1140 C   0  0  0  0  0  0  0  0  0  0  0  0
   39.9720   30.4220   42.2020 C   0  0  0  0  0  0  0  0  0  0  0  0
   48.8730   35.5320   41.5380 C   0  0  0  0  0  0  0  0  0  0  0  0
   50.0990   34.9960   41.9120 F   0  0  0  0  0  0  0  0  0  0  0  0
   48.7770   36.7430   42.2400 F   0  0  0  0  0  0  0  0  0  0  0  0
   48.8530   35.6990   40.1880 F   0  0  0  0  0  0  0  0  0  0  0  0
  1  6  1  0  0  0  0
  2  3  1  0  0  0  0
  2  1  2  0  0  0  0
  3  4  2  0  0  0  0
  4  5  1  0  0  0  0
  5 16  1  0  0  0  0
  6  5  2  0  0  0  0
  7  9  1  0  0  0  0
  8  7  2  0  0  0  0
  9  1  1  0  0  0  0
  9 17  1  0  0  0  0
 10 14  1  0  0  0  0
 10  7  1  0  0  0  0
 11 10  1  0  0  0  0
 12 11  1  0  0  0  0
 12 13  1  0  0  0  0
 13 23  1  0  0  0  0
 13 22  1  0  0  0  0
 13 14  1  0  0  0  0
 14 24  1  1  0  0  0
 15  2  1  0  0  0  0
 18 11  1  0  0  0  0
 19 11  1  0  0  0  0
 20 12  1  0  0  0  0
 21 12  1  0  0  0  0
 25 26  2  0  0  0  0
 27 14  1  0  0  0  0
 27 25  1  0  0  0  0
 28 27  1  0  0  0  0
 29 25  1  0  0  0  0
 29 35  1  0  0  0  0
 30 31  1  0  0  0  0
 30 29  1  0  0  0  0
 31 32  1  0  0  0  0
 32 33  1  0  0  0  0
 34 35  1  0  0  0  0
 34 32  1  0  0  0  0
 36 37  1  0  0  0  0
 36  3  1  0  0  0  0
 36 38  1  0  0  0  0
 39 36  1  0  0  0  0
M  END
>  <minimizedAffinity>
-7.23005199

>  <minimizedRMSD>
1.39630127

$$$$
