
 OpenBabel03252508503D

 26 28  0  0  0  0  0  0  0  0999 V2000
   45.9100   34.1030   41.0480 C   0  0  0  0  0  0  0  0  0  0  0  0
   46.5000   34.7730   42.1290 C   0  0  0  0  0  0  0  0  0  0  0  0
   47.8370   35.1750   41.9620 C   0  0  0  0  0  0  0  0  0  0  0  0
   48.4670   34.8950   40.7810 N   0  0  0  0  0  0  0  0  0  0  0  0
   47.8550   34.2570   39.7930 C   0  0  0  0  0  0  0  0  0  0  0  0
   46.5740   33.8560   39.9170 N   0  0  0  0  0  0  0  0  0  0  0  0
   48.2910   35.6940   42.8000 H   0  0  0  0  0  0  0  0  0  0  0  0
   48.3460   34.0370   38.8700 H   0  0  0  0  0  0  0  0  0  0  0  0
   45.7430   35.0200   43.3370 C   0  0  0  0  0  0  0  0  0  0  0  0
   45.0500   36.2040   43.5590 C   0  0  0  0  0  0  0  0  0  0  0  0
   44.4840   36.0180   44.8000 C   0  0  0  0  0  0  0  0  0  0  0  0
   44.8110   34.8070   45.2990 N   0  0  0  0  0  0  0  0  0  0  0  0
   45.5680   34.2340   44.3950 N   0  0  0  0  0  0  0  0  0  0  0  0
   44.9750   37.0550   42.9130 H   0  0  0  0  0  0  0  0  0  0  0  0
   43.8590   36.7130   45.3450 H   0  0  0  0  0  0  0  0  0  0  0  0
   44.5300   34.3940   46.2140 H   0  0  0  0  0  0  0  0  0  0  0  0
   44.6010   33.6980   41.1870 O   0  0  0  0  0  0  0  0  0  0  0  0
   43.4960   34.3460   40.7020 C   0  0  0  0  0  0  0  0  0  0  0  0
   43.3330   35.5960   40.5190 O   0  0  0  0  0  0  0  0  0  0  0  0
   42.2040   33.8630   40.2550 N   0  0  0  0  0  0  0  0  0  0  0  0
   41.8970   32.4990   40.6360 C   0  0  0  0  0  2  0  0  0  0  0  0
   42.1890   31.6610   39.3840 C   0  0  0  0  0  2  0  0  0  0  0  0
   41.7880   32.5200   38.1830 C   0  0  0  0  0  3  0  0  0  0  0  0
   42.6830   33.0820   37.8830 H   0  0  0  0  0  0  0  0  0  0  0  0
   40.6480   33.4670   38.5310 C   0  0  0  0  0  2  0  0  0  0  0  0
   41.1750   34.5510   39.4810 C   0  0  0  0  0  2  0  0  0  0  0  0
  1 17  1  0  0  0  0
  1  2  1  0  0  0  0
  2  9  1  0  0  0  0
  3  2  2  0  0  0  0
  3  7  1  0  0  0  0
  4  3  1  0  0  0  0
  5  6  1  0  0  0  0
  5  4  2  0  0  0  0
  6  1  2  0  0  0  0
  8  5  1  0  0  0  0
  9 10  1  0  0  0  0
  9 13  2  0  0  0  0
 10 11  2  0  0  0  0
 11 12  1  0  0  0  0
 11 15  1  0  0  0  0
 12 16  1  0  0  0  0
 13 12  1  0  0  0  0
 14 10  1  0  0  0  0
 18 17  1  0  0  0  0
 19 18  2  0  0  0  0
 20 21  1  0  0  0  0
 20 18  1  0  0  0  0
 22 21  1  0  0  0  0
 23 25  1  0  0  0  0
 23 22  1  0  0  0  0
 24 23  1  0  0  0  0
 25 26  1  0  0  0  0
 26 20  1  0  0  0  0
M  END
>  <minimizedAffinity>
-5.45367527

>  <minimizedRMSD>
0.82856375

$$$$
