
 OpenBabel03242512053D

 18 19  0  0  0  0  0  0  0  0999 V2000
   37.1720   29.8060   38.6990 C   0  0  0  0  0  0  0  0  0  0  0  0
   36.7160   30.2230   39.9500 C   0  0  0  0  0  0  0  0  0  0  0  0
   36.7420   31.5820   40.2170 C   0  0  0  0  0  0  0  0  0  0  0  0
   37.2040   32.4270   39.2630 N   0  0  0  0  0  0  0  0  0  0  0  0
   37.6410   31.9980   38.0570 C   0  0  0  0  0  0  0  0  0  0  0  0
   37.6210   30.6740   37.7830 N   0  0  0  0  0  0  0  0  0  0  0  0
   37.1640   28.7500   38.4610 H   0  0  0  0  0  0  0  0  0  0  0  0
   36.3970   31.9580   41.1790 H   0  0  0  0  0  0  0  0  0  0  0  0
   38.0010   32.7090   37.3240 H   0  0  0  0  0  0  0  0  0  0  0  0
   36.2480   29.2570   40.8890 C   0  0  0  0  0  0  0  0  0  0  0  0
   35.0550   28.8660   40.7950 O   0  0  0  0  0  0  0  0  0  0  0  0
   37.0780   28.7260   41.9160 N   0  0  0  0  0  0  0  0  0  0  0  0
   38.4680   29.1420   42.0720 C   0  0  0  0  0  2  0  0  0  0  0  0
   39.1410   28.2890   43.0980 C   0  0  0  0  0  2  0  0  0  0  0  0
   38.8760   26.8130   42.9210 C   0  0  0  0  0  3  0  0  0  0  0  0
   39.1530   26.3230   43.8840 H   0  0  0  0  0  0  0  0  0  0  0  0
   37.4380   26.5020   42.6360 C   0  0  0  0  0  2  0  0  0  0  0  0
   36.5770   27.7440   42.8570 C   0  0  0  0  0  2  0  0  0  0  0  0
  1  2  1  0  0  0  0
  2  3  2  0  0  0  0
  2 10  1  0  0  0  0
  3  8  1  0  0  0  0
  4  3  1  0  0  0  0
  5  4  2  0  0  0  0
  6  5  1  0  0  0  0
  6  1  2  0  0  0  0
  7  1  1  0  0  0  0
  9  5  1  0  0  0  0
 10 12  1  0  0  0  0
 11 10  2  0  0  0  0
 12 13  1  0  0  0  0
 12 18  1  0  0  0  0
 13 14  1  0  0  0  0
 15 14  1  0  0  0  0
 15 16  1  0  0  0  0
 17 18  1  0  0  0  0
 17 15  1  0  0  0  0
M  END
>  <minimizedAffinity>
-4.22323322

$$$$

 OpenBabel03242512053D

 18 19  0  0  0  0  0  0  0  0999 V2000
   35.7570   29.0520   40.9570 C   0  0  0  0  0  0  0  0  0  0  0  0
   36.8450   28.6360   41.7250 C   0  0  0  0  0  0  0  0  0  0  0  0
   37.8680   29.5480   41.9270 C   0  0  0  0  0  0  0  0  0  0  0  0
   37.7630   30.7820   41.3770 N   0  0  0  0  0  0  0  0  0  0  0  0
   36.6960   31.1620   40.6360 C   0  0  0  0  0  0  0  0  0  0  0  0
   35.6910   30.2820   40.4310 N   0  0  0  0  0  0  0  0  0  0  0  0
   34.9420   28.3620   40.7820 H   0  0  0  0  0  0  0  0  0  0  0  0
   38.7390   29.2710   42.5190 H   0  0  0  0  0  0  0  0  0  0  0  0
   36.6530   32.1590   40.2150 H   0  0  0  0  0  0  0  0  0  0  0  0
   36.8650   27.3150   42.2630 C   0  0  0  0  0  0  0  0  0  0  0  0
   36.3660   27.1300   43.4040 O   0  0  0  0  0  0  0  0  0  0  0  0
   37.4250   26.2120   41.5590 N   0  0  0  0  0  0  0  0  0  0  0  0
   38.0170   26.3670   40.2340 C   0  0  0  0  0  2  0  0  0  0  0  0
   38.3460   25.0250   39.6660 C   0  0  0  0  0  2  0  0  0  0  0  0
   37.2300   24.0190   39.8110 C   0  0  0  0  0  3  0  0  0  0  0  0
   37.6840   23.0140   39.6460 H   0  0  0  0  0  0  0  0  0  0  0  0
   36.6000   24.0300   41.1710 C   0  0  0  0  0  2  0  0  0  0  0  0
   37.4320   24.8800   42.1300 C   0  0  0  0  0  2  0  0  0  0  0  0
  1  2  1  0  0  0  0
  2  3  2  0  0  0  0
  2 10  1  0  0  0  0
  3  8  1  0  0  0  0
  4  3  1  0  0  0  0
  5  4  2  0  0  0  0
  6  5  1  0  0  0  0
  6  1  2  0  0  0  0
  7  1  1  0  0  0  0
  9  5  1  0  0  0  0
 10 11  2  0  0  0  0
 12 18  1  0  0  0  0
 12 10  1  0  0  0  0
 13 12  1  0  0  0  0
 14 15  1  0  0  0  0
 14 13  1  0  0  0  0
 15 17  1  0  0  0  0
 16 15  1  0  0  0  0
 17 18  1  0  0  0  0
M  END
>  <minimizedAffinity>
-4.12374115

$$$$

 OpenBabel03242512053D

 18 19  0  0  0  0  0  0  0  0999 V2000
   36.4350   29.7810   38.2350 C   0  0  0  0  0  0  0  0  0  0  0  0
   35.8020   29.6180   39.4680 C   0  0  0  0  0  0  0  0  0  0  0  0
   34.5220   29.0860   39.4610 C   0  0  0  0  0  0  0  0  0  0  0  0
   33.9580   28.7550   38.2750 N   0  0  0  0  0  0  0  0  0  0  0  0
   34.5930   28.9230   37.0920 C   0  0  0  0  0  0  0  0  0  0  0  0
   35.8410   29.4400   37.0830 N   0  0  0  0  0  0  0  0  0  0  0  0
   37.4350   30.1940   38.2080 H   0  0  0  0  0  0  0  0  0  0  0  0
   33.9860   28.9400   40.3970 H   0  0  0  0  0  0  0  0  0  0  0  0
   34.1030   28.6440   36.1670 H   0  0  0  0  0  0  0  0  0  0  0  0
   36.4790   29.9960   40.6650 C   0  0  0  0  0  0  0  0  0  0  0  0
   36.2880   31.1570   41.1140 O   0  0  0  0  0  0  0  0  0  0  0  0
   37.3530   29.1140   41.3600 N   0  0  0  0  0  0  0  0  0  0  0  0
   37.6120   27.7580   40.8860 C   0  0  0  0  0  2  0  0  0  0  0  0
   38.4070   27.0080   41.9040 C   0  0  0  0  0  2  0  0  0  0  0  0
   37.8790   27.1600   43.3100 C   0  0  0  0  0  3  0  0  0  0  0  0
   38.6970   26.8320   43.9940 H   0  0  0  0  0  0  0  0  0  0  0  0
   37.5190   28.5730   43.6560 C   0  0  0  0  0  2  0  0  0  0  0  0
   38.0280   29.5250   42.5750 C   0  0  0  0  0  2  0  0  0  0  0  0
  1  2  1  0  0  0  0
  2 10  1  0  0  0  0
  3  2  2  0  0  0  0
  3  8  1  0  0  0  0
  4  3  1  0  0  0  0
  5  4  2  0  0  0  0
  6  5  1  0  0  0  0
  6  1  2  0  0  0  0
  7  1  1  0  0  0  0
  9  5  1  0  0  0  0
 10 11  2  0  0  0  0
 10 12  1  0  0  0  0
 12 18  1  0  0  0  0
 13 12  1  0  0  0  0
 13 14  1  0  0  0  0
 14 15  1  0  0  0  0
 15 17  1  0  0  0  0
 15 16  1  0  0  0  0
 18 17  1  0  0  0  0
M  END
>  <minimizedAffinity>
-4.11849213

$$$$

 OpenBabel03242512053D

 18 19  0  0  0  0  0  0  0  0999 V2000
   37.6970   32.5920   40.3090 C   0  0  0  0  0  0  0  0  0  0  0  0
   38.1670   31.2960   40.0980 C   0  0  0  0  0  0  0  0  0  0  0  0
   39.5160   31.1450   39.8190 C   0  0  0  0  0  0  0  0  0  0  0  0
   40.3010   32.2490   39.7670 N   0  0  0  0  0  0  0  0  0  0  0  0
   39.8210   33.4960   39.9760 C   0  0  0  0  0  0  0  0  0  0  0  0
   38.5070   33.6580   40.2490 N   0  0  0  0  0  0  0  0  0  0  0  0
   36.6480   32.7430   40.5290 H   0  0  0  0  0  0  0  0  0  0  0  0
   39.9320   30.1530   39.6460 H   0  0  0  0  0  0  0  0  0  0  0  0
   40.4840   34.3500   39.9250 H   0  0  0  0  0  0  0  0  0  0  0  0
   37.2630   30.1960   40.1740 C   0  0  0  0  0  0  0  0  0  0  0  0
   36.5650   29.9290   39.1600 O   0  0  0  0  0  0  0  0  0  0  0  0
   37.1260   29.3990   41.3450 N   0  0  0  0  0  0  0  0  0  0  0  0
   37.9090   29.6610   42.5490 C   0  0  0  0  0  2  0  0  0  0  0  0
   37.6990   28.5630   43.5390 C   0  0  0  0  0  2  0  0  0  0  0  0
   37.7980   27.1820   42.9370 C   0  0  0  0  0  3  0  0  0  0  0  0
   37.3320   26.4820   43.6690 H   0  0  0  0  0  0  0  0  0  0  0  0
   37.0680   27.0530   41.6350 C   0  0  0  0  0  2  0  0  0  0  0  0
   36.1990   28.2860   41.3940 C   0  0  0  0  0  2  0  0  0  0  0  0
  1  7  1  0  0  0  0
  2 10  1  0  0  0  0
  2  1  2  0  0  0  0
  3  2  1  0  0  0  0
  4  3  2  0  0  0  0
  4  5  1  0  0  0  0
  5  6  2  0  0  0  0
  6  1  1  0  0  0  0
  8  3  1  0  0  0  0
  9  5  1  0  0  0  0
 10 12  1  0  0  0  0
 11 10  2  0  0  0  0
 12 18  1  0  0  0  0
 12 13  1  0  0  0  0
 13 14  1  0  0  0  0
 15 14  1  0  0  0  0
 15 16  1  0  0  0  0
 17 15  1  0  0  0  0
 18 17  1  0  0  0  0
M  END
>  <minimizedAffinity>
-4.05220461

$$$$

 OpenBabel03242512053D

 18 19  0  0  0  0  0  0  0  0999 V2000
   38.5320   25.4890   42.5070 C   0  0  0  0  0  0  0  0  0  0  0  0
   38.4160   26.8470   42.8060 C   0  0  0  0  0  0  0  0  0  0  0  0
   39.5010   27.4600   43.4130 C   0  0  0  0  0  0  0  0  0  0  0  0
   40.6050   26.7210   43.6800 N   0  0  0  0  0  0  0  0  0  0  0  0
   40.6930   25.4050   43.3780 C   0  0  0  0  0  0  0  0  0  0  0  0
   39.6420   24.7940   42.7870 N   0  0  0  0  0  0  0  0  0  0  0  0
   37.7010   24.9820   42.0330 H   0  0  0  0  0  0  0  0  0  0  0  0
   39.4600   28.5180   43.6670 H   0  0  0  0  0  0  0  0  0  0  0  0
   41.5950   24.8530   43.6100 H   0  0  0  0  0  0  0  0  0  0  0  0
   37.2120   27.5400   42.4860 C   0  0  0  0  0  0  0  0  0  0  0  0
   36.2400   27.4410   43.2810 O   0  0  0  0  0  0  0  0  0  0  0  0
   37.0750   28.3320   41.3110 N   0  0  0  0  0  0  0  0  0  0  0  0
   38.1680   28.4830   40.3550 C   0  0  0  0  0  2  0  0  0  0  0  0
   37.8090   29.5100   39.3330 C   0  0  0  0  0  2  0  0  0  0  0  0
   37.2290   30.7720   39.9250 C   0  0  0  0  0  3  0  0  0  0  0  0
   36.7270   31.3140   39.0900 H   0  0  0  0  0  0  0  0  0  0  0  0
   36.2090   30.5090   40.9910 C   0  0  0  0  0  2  0  0  0  0  0  0
   35.8390   29.0270   41.0110 C   0  0  0  0  0  2  0  0  0  0  0  0
  1  6  2  0  0  0  0
  1  2  1  0  0  0  0
  2  3  2  0  0  0  0
  3  8  1  0  0  0  0
  3  4  1  0  0  0  0
  5  9  1  0  0  0  0
  5  4  2  0  0  0  0
  6  5  1  0  0  0  0
  7  1  1  0  0  0  0
 10  2  1  0  0  0  0
 10 11  2  0  0  0  0
 12 10  1  0  0  0  0
 13 12  1  0  0  0  0
 14 15  1  0  0  0  0
 14 13  1  0  0  0  0
 15 17  1  0  0  0  0
 16 15  1  0  0  0  0
 17 18  1  0  0  0  0
 18 12  1  0  0  0  0
M  END
>  <minimizedAffinity>
-4.02528286

$$$$

 OpenBabel03242512053D

 18 19  0  0  0  0  0  0  0  0999 V2000
   37.0380   26.2720   42.2630 C   0  0  0  0  0  0  0  0  0  0  0  0
   37.8620   27.3370   41.8970 C   0  0  0  0  0  0  0  0  0  0  0  0
   39.1260   27.0290   41.4180 C   0  0  0  0  0  0  0  0  0  0  0  0
   39.4930   25.7280   41.3300 N   0  0  0  0  0  0  0  0  0  0  0  0
   38.6750   24.7120   41.6910 C   0  0  0  0  0  0  0  0  0  0  0  0
   37.4400   24.9970   42.1600 N   0  0  0  0  0  0  0  0  0  0  0  0
   36.0460   26.4800   42.6410 H   0  0  0  0  0  0  0  0  0  0  0  0
   39.8060   27.8250   41.1190 H   0  0  0  0  0  0  0  0  0  0  0  0
   39.0090   23.6860   41.6030 H   0  0  0  0  0  0  0  0  0  0  0  0
   37.3860   28.6750   42.0260 C   0  0  0  0  0  0  0  0  0  0  0  0
   37.5320   29.2530   43.1350 O   0  0  0  0  0  0  0  0  0  0  0  0
   36.7590   29.3690   40.9540 N   0  0  0  0  0  0  0  0  0  0  0  0
   36.5630   28.7500   39.6470 C   0  0  0  0  0  2  0  0  0  0  0  0
   36.0610   29.7650   38.6740 C   0  0  0  0  0  2  0  0  0  0  0  0
   36.8240   31.0670   38.7150 C   0  0  0  0  0  3  0  0  0  0  0  0
   36.1900   31.8240   38.1970 H   0  0  0  0  0  0  0  0  0  0  0  0
   37.0880   31.5530   40.1080 C   0  0  0  0  0  2  0  0  0  0  0  0
   36.2850   30.7300   41.1130 C   0  0  0  0  0  2  0  0  0  0  0  0
  1  7  1  0  0  0  0
  2 10  1  0  0  0  0
  2  1  2  0  0  0  0
  3  2  1  0  0  0  0
  4  3  2  0  0  0  0
  4  5  1  0  0  0  0
  5  6  2  0  0  0  0
  6  1  1  0  0  0  0
  8  3  1  0  0  0  0
  9  5  1  0  0  0  0
 10 11  2  0  0  0  0
 12 18  1  0  0  0  0
 12 10  1  0  0  0  0
 13 12  1  0  0  0  0
 14 15  1  0  0  0  0
 14 13  1  0  0  0  0
 15 17  1  0  0  0  0
 16 15  1  0  0  0  0
 17 18  1  0  0  0  0
M  END
>  <minimizedAffinity>
-4.01472092

$$$$

 OpenBabel03242512053D

 18 19  0  0  0  0  0  0  0  0999 V2000
   38.5600   27.7950   41.4880 C   0  0  0  0  0  0  0  0  0  0  0  0
   38.3750   28.8730   42.3550 C   0  0  0  0  0  0  0  0  0  0  0  0
   37.4960   28.6970   43.4110 C   0  0  0  0  0  0  0  0  0  0  0  0
   36.8690   27.5040   43.5490 N   0  0  0  0  0  0  0  0  0  0  0  0
   37.0650   26.4730   42.6950 C   0  0  0  0  0  0  0  0  0  0  0  0
   37.9200   26.6310   41.6590 N   0  0  0  0  0  0  0  0  0  0  0  0
   39.2400   27.9020   40.6530 H   0  0  0  0  0  0  0  0  0  0  0  0
   37.3180   29.5080   44.1150 H   0  0  0  0  0  0  0  0  0  0  0  0
   36.5420   25.5360   42.8420 H   0  0  0  0  0  0  0  0  0  0  0  0
   39.0820   30.0910   42.1270 C   0  0  0  0  0  0  0  0  0  0  0  0
   40.2180   30.2250   42.6540 O   0  0  0  0  0  0  0  0  0  0  0  0
   38.5510   31.1450   41.3330 N   0  0  0  0  0  0  0  0  0  0  0  0
   37.2400   31.0450   40.7000 C   0  0  0  0  0  2  0  0  0  0  0  0
   37.0280   32.2060   39.7840 C   0  0  0  0  0  2  0  0  0  0  0  0
   38.2100   32.4890   38.8880 C   0  0  0  0  0  3  0  0  0  0  0  0
   38.0690   33.5220   38.4920 H   0  0  0  0  0  0  0  0  0  0  0  0
   39.5220   32.4410   39.6100 C   0  0  0  0  0  2  0  0  0  0  0  0
   39.2920   32.3730   41.1180 C   0  0  0  0  0  2  0  0  0  0  0  0
  1  6  2  0  0  0  0
  1  2  1  0  0  0  0
  2  3  2  0  0  0  0
  3  4  1  0  0  0  0
  3  8  1  0  0  0  0
  5  9  1  0  0  0  0
  5  4  2  0  0  0  0
  6  5  1  0  0  0  0
  7  1  1  0  0  0  0
 10  2  1  0  0  0  0
 10 11  2  0  0  0  0
 12 10  1  0  0  0  0
 13 12  1  0  0  0  0
 14 13  1  0  0  0  0
 15 17  1  0  0  0  0
 15 14  1  0  0  0  0
 16 15  1  0  0  0  0
 17 18  1  0  0  0  0
 18 12  1  0  0  0  0
M  END
>  <minimizedAffinity>
-3.9425354

$$$$

 OpenBabel03242512053D

 18 19  0  0  0  0  0  0  0  0999 V2000
   39.5710   28.8230   41.5870 C   0  0  0  0  0  0  0  0  0  0  0  0
   38.4550   29.6300   41.8130 C   0  0  0  0  0  0  0  0  0  0  0  0
   37.6110   29.2720   42.8530 C   0  0  0  0  0  0  0  0  0  0  0  0
   37.9080   28.1730   43.5880 N   0  0  0  0  0  0  0  0  0  0  0  0
   38.9970   27.4070   43.3490 C   0  0  0  0  0  0  0  0  0  0  0  0
   39.8290   27.7430   42.3380 N   0  0  0  0  0  0  0  0  0  0  0  0
   40.2490   29.0760   40.7830 H   0  0  0  0  0  0  0  0  0  0  0  0
   36.7270   29.8690   43.0690 H   0  0  0  0  0  0  0  0  0  0  0  0
   39.1950   26.5370   43.9610 H   0  0  0  0  0  0  0  0  0  0  0  0
   38.2270   30.7680   40.9850 C   0  0  0  0  0  0  0  0  0  0  0  0
   38.7880   31.8520   41.2970 O   0  0  0  0  0  0  0  0  0  0  0  0
   37.3970   30.7190   39.8300 N   0  0  0  0  0  0  0  0  0  0  0  0
   36.7220   29.4910   39.4210 C   0  0  0  0  0  2  0  0  0  0  0  0
   36.0830   29.6850   38.0850 C   0  0  0  0  0  2  0  0  0  0  0  0
   36.9890   30.3460   37.0750 C   0  0  0  0  0  3  0  0  0  0  0  0
   36.3320   30.7110   36.2500 H   0  0  0  0  0  0  0  0  0  0  0  0
   37.7360   31.5200   37.6310 C   0  0  0  0  0  2  0  0  0  0  0  0
   37.1840   31.8920   39.0060 C   0  0  0  0  0  2  0  0  0  0  0  0
  1  2  2  0  0  0  0
  1  6  1  0  0  0  0
  2  3  1  0  0  0  0
  3  8  1  0  0  0  0
  3  4  2  0  0  0  0
  5  4  1  0  0  0  0
  5  9  1  0  0  0  0
  6  5  2  0  0  0  0
  7  1  1  0  0  0  0
 10 11  2  0  0  0  0
 10  2  1  0  0  0  0
 12 10  1  0  0  0  0
 13 12  1  0  0  0  0
 14 13  1  0  0  0  0
 15 17  1  0  0  0  0
 15 14  1  0  0  0  0
 16 15  1  0  0  0  0
 17 18  1  0  0  0  0
 18 12  1  0  0  0  0
M  END
>  <minimizedAffinity>
-3.90465331

$$$$

 OpenBabel03242512053D

 18 19  0  0  0  0  0  0  0  0999 V2000
   37.4200   28.6020   43.2420 C   0  0  0  0  0  0  0  0  0  0  0  0
   38.4350   28.7560   42.2980 C   0  0  0  0  0  0  0  0  0  0  0  0
   38.7650   27.6500   41.5300 C   0  0  0  0  0  0  0  0  0  0  0  0
   38.0940   26.4910   41.7320 N   0  0  0  0  0  0  0  0  0  0  0  0
   37.1120   26.3670   42.6540 C   0  0  0  0  0  0  0  0  0  0  0  0
   36.7800   27.4370   43.4110 N   0  0  0  0  0  0  0  0  0  0  0  0
   37.1400   29.4480   43.8570 H   0  0  0  0  0  0  0  0  0  0  0  0
   39.5500   27.7200   40.7790 H   0  0  0  0  0  0  0  0  0  0  0  0
   36.6010   25.4200   42.7820 H   0  0  0  0  0  0  0  0  0  0  0  0
   39.0840   30.0190   42.1580 C   0  0  0  0  0  0  0  0  0  0  0  0
   40.1840   30.1890   42.7470 O   0  0  0  0  0  0  0  0  0  0  0  0
   38.5350   31.0790   41.3840 N   0  0  0  0  0  0  0  0  0  0  0  0
   37.2640   30.9380   40.6810 C   0  0  0  0  0  2  0  0  0  0  0  0
   37.0330   32.1270   39.8070 C   0  0  0  0  0  2  0  0  0  0  0  0
   38.2400   32.5130   38.9850 C   0  0  0  0  0  3  0  0  0  0  0  0
   38.0610   33.5540   38.6270 H   0  0  0  0  0  0  0  0  0  0  0  0
   39.5160   32.5010   39.7690 C   0  0  0  0  0  2  0  0  0  0  0  0
   39.2170   32.3520   41.2600 C   0  0  0  0  0  2  0  0  0  0  0  0
  1  6  1  0  0  0  0
  1  7  1  0  0  0  0
  2  1  2  0  0  0  0
  3  4  2  0  0  0  0
  3  2  1  0  0  0  0
  4  5  1  0  0  0  0
  5  9  1  0  0  0  0
  5  6  2  0  0  0  0
  8  3  1  0  0  0  0
 10  2  1  0  0  0  0
 10 11  2  0  0  0  0
 12 10  1  0  0  0  0
 13 12  1  0  0  0  0
 14 13  1  0  0  0  0
 15 17  1  0  0  0  0
 15 14  1  0  0  0  0
 16 15  1  0  0  0  0
 17 18  1  0  0  0  0
 18 12  1  0  0  0  0
M  END
>  <minimizedAffinity>
-3.87582254

$$$$
