
 OpenBabel03252508503D

 26 28  0  0  0  0  0  0  0  0999 V2000
   45.9270   34.1600   41.0330 C   0  0  0  0  0  0  0  0  0  0  0  0
   46.5200   34.7910   42.1360 C   0  0  0  0  0  0  0  0  0  0  0  0
   47.8690   35.1630   41.9960 C   0  0  0  0  0  0  0  0  0  0  0  0
   48.5070   34.8930   40.8160 N   0  0  0  0  0  0  0  0  0  0  0  0
   47.8920   34.2930   39.8060 C   0  0  0  0  0  0  0  0  0  0  0  0
   46.6000   33.9220   39.9040 N   0  0  0  0  0  0  0  0  0  0  0  0
   48.3250   35.6510   42.8500 H   0  0  0  0  0  0  0  0  0  0  0  0
   48.3900   34.0820   38.8840 H   0  0  0  0  0  0  0  0  0  0  0  0
   45.7540   35.0290   43.3400 C   0  0  0  0  0  0  0  0  0  0  0  0
   45.0770   36.2200   43.5740 C   0  0  0  0  0  0  0  0  0  0  0  0
   44.4950   36.0230   44.8060 C   0  0  0  0  0  0  0  0  0  0  0  0
   44.7970   34.7990   45.2880 N   0  0  0  0  0  0  0  0  0  0  0  0
   45.5550   34.2290   44.3820 N   0  0  0  0  0  0  0  0  0  0  0  0
   45.0230   37.0840   42.9410 H   0  0  0  0  0  0  0  0  0  0  0  0
   43.8740   36.7190   45.3550 H   0  0  0  0  0  0  0  0  0  0  0  0
   44.4990   34.3750   46.1930 H   0  0  0  0  0  0  0  0  0  0  0  0
   44.6070   33.7860   41.1450 O   0  0  0  0  0  0  0  0  0  0  0  0
   43.5260   34.4650   40.6490 C   0  0  0  0  0  0  0  0  0  0  0  0
   43.3150   35.7210   40.6550 O   0  0  0  0  0  0  0  0  0  0  0  0
   42.3190   34.0180   39.9840 N   0  0  0  0  0  0  0  0  0  0  0  0
   41.3340   33.4050   40.8540 C   0  0  0  0  0  2  0  0  0  0  0  0
   41.5160   31.8940   40.6590 C   0  0  0  0  0  2  0  0  0  0  0  0
   41.8760   31.6870   39.1850 C   0  0  0  0  0  3  0  0  0  0  0  0
   42.9710   31.7170   39.1190 H   0  0  0  0  0  0  0  0  0  0  0  0
   41.2500   32.7580   38.3040 C   0  0  0  0  0  2  0  0  0  0  0  0
   41.9550   34.0960   38.5730 C   0  0  0  0  0  2  0  0  0  0  0  0
  1 17  1  0  0  0  0
  1  2  1  0  0  0  0
  2  9  1  0  0  0  0
  3  2  2  0  0  0  0
  3  7  1  0  0  0  0
  4  3  1  0  0  0  0
  5  6  1  0  0  0  0
  5  4  2  0  0  0  0
  6  1  2  0  0  0  0
  8  5  1  0  0  0  0
  9 10  1  0  0  0  0
  9 13  2  0  0  0  0
 10 11  2  0  0  0  0
 11 12  1  0  0  0  0
 11 15  1  0  0  0  0
 12 16  1  0  0  0  0
 13 12  1  0  0  0  0
 14 10  1  0  0  0  0
 18 19  2  0  0  0  0
 18 17  1  0  0  0  0
 20 18  1  0  0  0  0
 20 21  1  0  0  0  0
 22 21  1  0  0  0  0
 23 22  1  0  0  0  0
 24 23  1  0  0  0  0
 25 26  1  0  0  0  0
 25 23  1  0  0  0  0
 26 20  1  0  0  0  0
M  END
>  <minimizedAffinity>
-5.43532515

>  <minimizedRMSD>
0.630468071

$$$$
