
 OpenBabel03252508503D

 26 28  0  0  0  0  0  0  0  0999 V2000
   45.9310   34.2240   41.0430 C   0  0  0  0  0  0  0  0  0  0  0  0
   46.5300   34.8120   42.1670 C   0  0  0  0  0  0  0  0  0  0  0  0
   47.8930   35.1360   42.0520 C   0  0  0  0  0  0  0  0  0  0  0  0
   48.5380   34.8650   40.8770 N   0  0  0  0  0  0  0  0  0  0  0  0
   47.9170   34.3070   39.8480 C   0  0  0  0  0  0  0  0  0  0  0  0
   46.6110   33.9820   39.9200 N   0  0  0  0  0  0  0  0  0  0  0  0
   48.3540   35.5910   42.9230 H   0  0  0  0  0  0  0  0  0  0  0  0
   48.4210   34.0940   38.9290 H   0  0  0  0  0  0  0  0  0  0  0  0
   45.7540   35.0560   43.3630 C   0  0  0  0  0  0  0  0  0  0  0  0
   45.0860   36.2530   43.5920 C   0  0  0  0  0  0  0  0  0  0  0  0
   44.4910   36.0600   44.8180 C   0  0  0  0  0  0  0  0  0  0  0  0
   44.7770   34.8320   45.3020 N   0  0  0  0  0  0  0  0  0  0  0  0
   45.5380   34.2570   44.4030 N   0  0  0  0  0  0  0  0  0  0  0  0
   45.0460   37.1180   42.9600 H   0  0  0  0  0  0  0  0  0  0  0  0
   43.8720   36.7610   45.3630 H   0  0  0  0  0  0  0  0  0  0  0  0
   44.4670   34.4110   46.2040 H   0  0  0  0  0  0  0  0  0  0  0  0
   44.5960   33.8970   41.1290 O   0  0  0  0  0  0  0  0  0  0  0  0
   43.5560   34.5720   40.5470 C   0  0  0  0  0  0  0  0  0  0  0  0
   43.0250   35.6690   40.9160 O   0  0  0  0  0  0  0  0  0  0  0  0
   42.7460   34.2890   39.3790 N   0  0  0  0  0  0  0  0  0  0  0  0
   41.7240   35.2750   39.0920 C   0  0  0  0  0  2  0  0  0  0  0  0
   40.4240   34.6710   39.6370 C   0  0  0  0  0  2  0  0  0  0  0  0
   40.5100   33.1620   39.3950 C   0  0  0  0  0  3  0  0  0  0  0  0
   40.9620   32.7230   40.2950 H   0  0  0  0  0  0  0  0  0  0  0  0
   41.3400   32.8420   38.1600 C   0  0  0  0  0  2  0  0  0  0  0  0
   42.8130   33.1580   38.4580 C   0  0  0  0  0  2  0  0  0  0  0  0
  1 17  1  0  0  0  0
  1  2  1  0  0  0  0
  2  9  1  0  0  0  0
  3  2  2  0  0  0  0
  3  7  1  0  0  0  0
  4  3  1  0  0  0  0
  5  6  1  0  0  0  0
  5  4  2  0  0  0  0
  6  1  2  0  0  0  0
  8  5  1  0  0  0  0
  9 10  1  0  0  0  0
  9 13  2  0  0  0  0
 10 11  2  0  0  0  0
 11 12  1  0  0  0  0
 11 15  1  0  0  0  0
 12 16  1  0  0  0  0
 13 12  1  0  0  0  0
 14 10  1  0  0  0  0
 18 19  2  0  0  0  0
 18 17  1  0  0  0  0
 20 18  1  0  0  0  0
 21 20  1  0  0  0  0
 21 22  1  0  0  0  0
 23 22  1  0  0  0  0
 23 24  1  0  0  0  0
 25 26  1  0  0  0  0
 25 23  1  0  0  0  0
 26 20  1  0  0  0  0
M  END
>  <minimizedAffinity>
-5.73372889

>  <minimizedRMSD>
0.557236314

$$$$
