
 OpenBabel03252508503D

 26 28  0  0  0  0  0  0  0  0999 V2000
   45.9450   34.1900   41.0370 C   0  0  0  0  0  0  0  0  0  0  0  0
   46.5350   34.8040   42.1510 C   0  0  0  0  0  0  0  0  0  0  0  0
   47.8890   35.1620   42.0250 C   0  0  0  0  0  0  0  0  0  0  0  0
   48.5340   34.8940   40.8490 N   0  0  0  0  0  0  0  0  0  0  0  0
   47.9220   34.3090   39.8290 C   0  0  0  0  0  0  0  0  0  0  0  0
   46.6250   33.9530   39.9120 N   0  0  0  0  0  0  0  0  0  0  0  0
   48.3430   35.6380   42.8880 H   0  0  0  0  0  0  0  0  0  0  0  0
   48.4260   34.0990   38.9100 H   0  0  0  0  0  0  0  0  0  0  0  0
   45.7600   35.0420   43.3490 C   0  0  0  0  0  0  0  0  0  0  0  0
   45.0710   36.2290   43.5740 C   0  0  0  0  0  0  0  0  0  0  0  0
   44.4850   36.0330   44.8030 C   0  0  0  0  0  0  0  0  0  0  0  0
   44.7950   34.8130   45.2930 N   0  0  0  0  0  0  0  0  0  0  0  0
   45.5630   34.2450   44.3940 N   0  0  0  0  0  0  0  0  0  0  0  0
   45.0130   37.0880   42.9360 H   0  0  0  0  0  0  0  0  0  0  0  0
   43.8550   36.7250   45.3460 H   0  0  0  0  0  0  0  0  0  0  0  0
   44.4960   34.3920   46.1990 H   0  0  0  0  0  0  0  0  0  0  0  0
   44.6190   33.8300   41.1340 O   0  0  0  0  0  0  0  0  0  0  0  0
   43.5600   34.4710   40.5490 C   0  0  0  0  0  0  0  0  0  0  0  0
   43.1510   35.6610   40.7480 O   0  0  0  0  0  0  0  0  0  0  0  0
   42.5920   34.0440   39.5580 N   0  0  0  0  0  0  0  0  0  0  0  0
   41.2900   34.6690   39.6670 C   0  0  0  0  0  2  0  0  0  0  0  0
   40.4090   33.6350   40.3800 C   0  0  0  0  0  2  0  0  0  0  0  0
   40.8650   32.2600   39.8850 C   0  0  0  0  0  3  0  0  0  0  0  0
   41.6430   31.9160   40.5780 H   0  0  0  0  0  0  0  0  0  0  0  0
   41.4000   32.3310   38.4610 C   0  0  0  0  0  2  0  0  0  0  0  0
   42.7420   33.0780   38.4730 C   0  0  0  0  0  2  0  0  0  0  0  0
  1 17  1  0  0  0  0
  1  2  1  0  0  0  0
  2  9  1  0  0  0  0
  3  2  2  0  0  0  0
  3  7  1  0  0  0  0
  4  3  1  0  0  0  0
  5  6  1  0  0  0  0
  5  4  2  0  0  0  0
  6  1  2  0  0  0  0
  8  5  1  0  0  0  0
  9 10  1  0  0  0  0
  9 13  2  0  0  0  0
 10 11  2  0  0  0  0
 11 12  1  0  0  0  0
 11 15  1  0  0  0  0
 12 16  1  0  0  0  0
 13 12  1  0  0  0  0
 14 10  1  0  0  0  0
 18 19  2  0  0  0  0
 18 17  1  0  0  0  0
 20 21  1  0  0  0  0
 20 18  1  0  0  0  0
 21 22  1  0  0  0  0
 23 22  1  0  0  0  0
 23 24  1  0  0  0  0
 25 26  1  0  0  0  0
 25 23  1  0  0  0  0
 26 20  1  0  0  0  0
M  END
>  <minimizedAffinity>
-5.47288465

>  <minimizedRMSD>
0.358198106

$$$$
