
 OpenBabel03252508503D

 26 28  0  0  0  0  0  0  0  0999 V2000
   45.9370   34.1640   41.0440 C   0  0  0  0  0  0  0  0  0  0  0  0
   46.5250   34.8000   42.1470 C   0  0  0  0  0  0  0  0  0  0  0  0
   47.8720   35.1800   42.0060 C   0  0  0  0  0  0  0  0  0  0  0  0
   48.5120   34.9130   40.8270 N   0  0  0  0  0  0  0  0  0  0  0  0
   47.9020   34.3070   39.8180 C   0  0  0  0  0  0  0  0  0  0  0  0
   46.6120   33.9280   39.9160 N   0  0  0  0  0  0  0  0  0  0  0  0
   48.3240   35.6730   42.8600 H   0  0  0  0  0  0  0  0  0  0  0  0
   48.4020   34.0980   38.8970 H   0  0  0  0  0  0  0  0  0  0  0  0
   45.7570   35.0360   43.3490 C   0  0  0  0  0  0  0  0  0  0  0  0
   45.0730   36.2230   43.5820 C   0  0  0  0  0  0  0  0  0  0  0  0
   44.4910   36.0240   44.8130 C   0  0  0  0  0  0  0  0  0  0  0  0
   44.7990   34.8010   45.2960 N   0  0  0  0  0  0  0  0  0  0  0  0
   45.5600   34.2350   44.3920 N   0  0  0  0  0  0  0  0  0  0  0  0
   45.0160   37.0860   42.9490 H   0  0  0  0  0  0  0  0  0  0  0  0
   43.8670   36.7170   45.3610 H   0  0  0  0  0  0  0  0  0  0  0  0
   44.5020   34.3770   46.2010 H   0  0  0  0  0  0  0  0  0  0  0  0
   44.6200   33.7810   41.1560 O   0  0  0  0  0  0  0  0  0  0  0  0
   43.5350   34.4520   40.6570 C   0  0  0  0  0  0  0  0  0  0  0  0
   43.3300   35.7090   40.6300 O   0  0  0  0  0  0  0  0  0  0  0  0
   42.3150   33.9920   40.0230 N   0  0  0  0  0  0  0  0  0  0  0  0
   42.2610   34.1880   38.5880 C   0  0  0  0  0  2  0  0  0  0  0  0
   41.4080   35.4470   38.3900 C   0  0  0  0  0  2  0  0  0  0  0  0
   40.3310   35.4180   39.4770 C   0  0  0  0  0  3  0  0  0  0  0  0
   40.7370   35.9620   40.3400 H   0  0  0  0  0  0  0  0  0  0  0  0
   39.9640   33.9910   39.8590 C   0  0  0  0  0  2  0  0  0  0  0  0
   41.1410   33.3650   40.6220 C   0  0  0  0  0  2  0  0  0  0  0  0
  1 17  1  0  0  0  0
  1  2  1  0  0  0  0
  2  9  1  0  0  0  0
  3  2  2  0  0  0  0
  3  7  1  0  0  0  0
  4  3  1  0  0  0  0
  5  6  1  0  0  0  0
  5  4  2  0  0  0  0
  6  1  2  0  0  0  0
  8  5  1  0  0  0  0
  9 10  1  0  0  0  0
  9 13  2  0  0  0  0
 10 11  2  0  0  0  0
 11 12  1  0  0  0  0
 11 15  1  0  0  0  0
 12 16  1  0  0  0  0
 13 12  1  0  0  0  0
 14 10  1  0  0  0  0
 18 17  1  0  0  0  0
 19 18  2  0  0  0  0
 20 26  1  0  0  0  0
 20 18  1  0  0  0  0
 21 20  1  0  0  0  0
 22 21  1  0  0  0  0
 22 23  1  0  0  0  0
 23 25  1  0  0  0  0
 23 24  1  0  0  0  0
 25 26  1  0  0  0  0
M  END
>  <minimizedAffinity>
-6.02652216

>  <minimizedRMSD>
0.608449817

$$$$
