
 OpenBabel03252508503D

 26 28  0  0  0  0  0  0  0  0999 V2000
   45.4290   34.0230   41.3050 C   0  0  0  0  0  0  0  0  0  0  0  0
   46.1540   34.5660   42.3760 C   0  0  0  0  0  0  0  0  0  0  0  0
   47.5020   34.8780   42.1250 C   0  0  0  0  0  0  0  0  0  0  0  0
   48.0130   34.6380   40.8800 N   0  0  0  0  0  0  0  0  0  0  0  0
   47.2770   34.1210   39.9060 C   0  0  0  0  0  0  0  0  0  0  0  0
   45.9810   33.8100   40.1080 N   0  0  0  0  0  0  0  0  0  0  0  0
   48.0610   35.2980   42.9550 H   0  0  0  0  0  0  0  0  0  0  0  0
   47.6750   33.9330   38.9320 H   0  0  0  0  0  0  0  0  0  0  0  0
   45.5160   34.7810   43.6560 C   0  0  0  0  0  0  0  0  0  0  0  0
   44.9410   35.9950   44.0130 C   0  0  0  0  0  0  0  0  0  0  0  0
   44.4600   35.7630   45.2820 C   0  0  0  0  0  0  0  0  0  0  0  0
   44.7240   34.4960   45.6700 N   0  0  0  0  0  0  0  0  0  0  0  0
   45.3590   33.9350   44.6700 N   0  0  0  0  0  0  0  0  0  0  0  0
   44.8870   36.8950   43.4340 H   0  0  0  0  0  0  0  0  0  0  0  0
   43.9380   36.4610   45.9220 H   0  0  0  0  0  0  0  0  0  0  0  0
   44.4820   34.0410   46.5760 H   0  0  0  0  0  0  0  0  0  0  0  0
   44.1070   33.7100   41.5250 O   0  0  0  0  0  0  0  0  0  0  0  0
   43.0260   34.4980   41.2280 C   0  0  0  0  0  0  0  0  0  0  0  0
   42.9550   35.7690   41.2260 O   0  0  0  0  0  0  0  0  0  0  0  0
   41.6680   34.1770   40.8370 N   0  0  0  0  0  0  0  0  0  0  0  0
   41.5510   33.1480   39.8230 C   0  0  0  0  0  2  0  0  0  0  0  0
   41.3180   33.9070   38.5110 C   0  0  0  0  0  2  0  0  0  0  0  0
   40.4590   35.1260   38.8600 C   0  0  0  0  0  3  0  0  0  0  0  0
   41.1520   35.9480   39.0850 H   0  0  0  0  0  0  0  0  0  0  0  0
   39.5490   34.8430   40.0470 C   0  0  0  0  0  2  0  0  0  0  0  0
   40.4080   34.7400   41.3150 C   0  0  0  0  0  2  0  0  0  0  0  0
  1 17  1  0  0  0  0
  1  2  1  0  0  0  0
  2  9  1  0  0  0  0
  3  2  2  0  0  0  0
  3  7  1  0  0  0  0
  4  3  1  0  0  0  0
  5  6  1  0  0  0  0
  5  4  2  0  0  0  0
  6  1  2  0  0  0  0
  8  5  1  0  0  0  0
  9 10  1  0  0  0  0
  9 13  2  0  0  0  0
 10 11  2  0  0  0  0
 11 12  1  0  0  0  0
 11 15  1  0  0  0  0
 12 16  1  0  0  0  0
 13 12  1  0  0  0  0
 14 10  1  0  0  0  0
 18 17  1  0  0  0  0
 19 18  2  0  0  0  0
 20 18  1  0  0  0  0
 20 26  1  0  0  0  0
 21 20  1  0  0  0  0
 22 23  1  0  0  0  0
 22 21  1  0  0  0  0
 23 24  1  0  0  0  0
 23 25  1  0  0  0  0
 25 26  1  0  0  0  0
M  END
>  <minimizedAffinity>
-5.86172962

>  <minimizedRMSD>
1.41776145

$$$$
