
 OpenBabel03252502293D

 33 35  0  0  0  0  0  0  0  0999 V2000
   37.4990   31.6860   39.9340 C   0  0  0  0  0  0  0  0  0  0  0  0
   37.2210   33.0050   39.5630 C   0  0  0  0  0  0  0  0  0  0  0  0
   38.0950   34.0040   39.9790 C   0  0  0  0  0  0  0  0  0  0  0  0
   39.1900   33.6820   40.7260 C   0  0  0  0  0  0  0  0  0  0  0  0
   39.4790   32.3960   41.0980 C   0  0  0  0  0  0  0  0  0  0  0  0
   38.5900   31.4050   40.6730 C   0  0  0  0  0  0  0  0  0  0  0  0
   36.3530   33.2610   38.9710 H   0  0  0  0  0  0  0  0  0  0  0  0
   37.9270   35.0410   39.7200 H   0  0  0  0  0  0  0  0  0  0  0  0
   39.9220   34.4060   41.0900 H   0  0  0  0  0  0  0  0  0  0  0  0
   40.3100   32.0250   41.6850 H   0  0  0  0  0  0  0  0  0  0  0  0
   38.7200   29.2500   42.1570 C   0  0  0  0  0  0  0  0  0  0  0  0
   38.4700   29.6630   43.2810 O   0  0  0  0  0  0  0  0  0  0  0  0
   38.7670   30.0310   40.9820 N   0  0  0  0  0  0  0  0  0  0  0  0
   38.9840   29.5520   40.0540 H   0  0  0  0  0  0  0  0  0  0  0  0
   38.9830   27.8560   42.0440 N   0  0  0  0  0  0  0  0  0  0  0  0
   38.0420   27.1910   41.1580 C   0  0  0  0  0  2  0  0  0  0  0  0
   38.7830   26.0080   40.5490 C   0  0  0  0  0  2  0  0  0  0  0  0
   39.0680   25.0090   41.6470 C   0  0  0  0  0  3  0  0  0  0  0  0
   39.9960   24.4480   41.3600 H   0  0  0  0  0  0  0  0  0  0  0  0
   39.3620   25.6980   42.9590 C   0  0  0  0  0  2  0  0  0  0  0  0
   40.0100   27.0530   42.6610 C   0  0  0  0  0  2  0  0  0  0  0  0
   35.4480   29.3160   37.8280 C   0  0  0  0  0  0  0  0  0  0  0  0
   36.4120   30.2900   38.1510 C   0  0  0  0  0  0  0  0  0  0  0  0
   36.5420   30.6860   39.4660 C   0  0  0  0  0  0  0  0  0  0  0  0
   35.7250   30.1060   40.3790 N   0  0  0  0  0  0  0  0  0  0  0  0
   34.8050   29.1700   40.0520 C   0  0  0  0  0  0  0  0  0  0  0  0
   34.6690   28.7750   38.7700 N   0  0  0  0  0  0  0  0  0  0  0  0
   37.0490   30.7380   37.4150 H   0  0  0  0  0  0  0  0  0  0  0  0
   34.1720   28.7330   40.8170 H   0  0  0  0  0  0  0  0  0  0  0  0
   35.2950   28.8780   36.4210 C   0  0  0  0  0  0  0  0  0  0  0  0
   36.2040   29.5970   35.6510 F   0  0  0  0  0  0  0  0  0  0  0  0
   34.0280   29.2990   36.0020 F   0  0  0  0  0  0  0  0  0  0  0  0
   35.4950   27.5340   36.2450 F   0  0  0  0  0  0  0  0  0  0  0  0
  1  6  1  0  0  0  0
  2  1  2  0  0  0  0
  2  3  1  0  0  0  0
  3  4  2  0  0  0  0
  4  9  1  0  0  0  0
  4  5  1  0  0  0  0
  5 10  1  0  0  0  0
  6 13  1  0  0  0  0
  6  5  2  0  0  0  0
  7  2  1  0  0  0  0
  8  3  1  0  0  0  0
 11 12  2  0  0  0  0
 13 11  1  0  0  0  0
 14 13  1  0  0  0  0
 15 11  1  0  0  0  0
 15 21  1  0  0  0  0
 16 15  1  0  0  0  0
 17 16  1  0  0  0  0
 17 18  1  0  0  0  0
 18 20  1  0  0  0  0
 19 18  1  0  0  0  0
 21 20  1  0  0  0  0
 22 23  2  0  0  0  0
 22 27  1  0  0  0  0
 23 24  1  0  0  0  0
 24  1  1  0  0  0  0
 24 25  2  0  0  0  0
 26 25  1  0  0  0  0
 26 29  1  0  0  0  0
 27 26  2  0  0  0  0
 28 23  1  0  0  0  0
 30 22  1  0  0  0  0
 31 30  1  0  0  0  0
 32 30  1  0  0  0  0
 33 30  1  0  0  0  0
M  END
>  <minimizedAffinity>
-5.98442745

$$$$

 OpenBabel03252502293D

 33 35  0  0  0  0  0  0  0  0999 V2000
   35.5310   29.0900   38.2740 C   0  0  0  0  0  0  0  0  0  0  0  0
   34.2450   28.5710   38.0890 C   0  0  0  0  0  0  0  0  0  0  0  0
   33.7490   28.4830   36.7930 C   0  0  0  0  0  0  0  0  0  0  0  0
   34.5150   28.8980   35.7430 C   0  0  0  0  0  0  0  0  0  0  0  0
   35.7750   29.4090   35.9020 C   0  0  0  0  0  0  0  0  0  0  0  0
   36.2580   29.4900   37.2120 C   0  0  0  0  0  0  0  0  0  0  0  0
   33.6380   28.2420   38.9220 H   0  0  0  0  0  0  0  0  0  0  0  0
   32.7610   28.0900   36.5950 H   0  0  0  0  0  0  0  0  0  0  0  0
   34.1980   28.8620   34.6980 H   0  0  0  0  0  0  0  0  0  0  0  0
   36.4680   29.7670   35.1520 H   0  0  0  0  0  0  0  0  0  0  0  0
   38.1070   31.2760   37.7140 C   0  0  0  0  0  0  0  0  0  0  0  0
   37.5020   32.3370   37.6500 O   0  0  0  0  0  0  0  0  0  0  0  0
   37.5470   29.9950   37.5250 N   0  0  0  0  0  0  0  0  0  0  0  0
   38.1770   29.1390   37.6200 H   0  0  0  0  0  0  0  0  0  0  0  0
   39.4970   31.3620   38.0080 N   0  0  0  0  0  0  0  0  0  0  0  0
   39.8420   30.6580   39.2310 C   0  0  0  0  0  2  0  0  0  0  0  0
   41.2820   30.1890   39.0680 C   0  0  0  0  0  2  0  0  0  0  0  0
   42.1800   31.4050   39.0440 C   0  0  0  0  0  3  0  0  0  0  0  0
   43.0850   31.1430   38.4370 H   0  0  0  0  0  0  0  0  0  0  0  0
   41.5110   32.5710   38.3540 C   0  0  0  0  0  2  0  0  0  0  0  0
   40.5580   32.0220   37.2880 C   0  0  0  0  0  2  0  0  0  0  0  0
   36.6790   28.2470   41.7700 C   0  0  0  0  0  0  0  0  0  0  0  0
   36.2380   28.0510   40.4470 C   0  0  0  0  0  0  0  0  0  0  0  0
   35.9910   29.1540   39.6570 C   0  0  0  0  0  0  0  0  0  0  0  0
   36.1900   30.3760   40.2100 N   0  0  0  0  0  0  0  0  0  0  0  0
   36.6150   30.5480   41.4830 C   0  0  0  0  0  0  0  0  0  0  0  0
   36.8600   29.4760   42.2630 N   0  0  0  0  0  0  0  0  0  0  0  0
   36.0860   27.0760   40.0290 H   0  0  0  0  0  0  0  0  0  0  0  0
   36.7610   31.5450   41.8820 H   0  0  0  0  0  0  0  0  0  0  0  0
   36.9500   27.0720   42.6320 C   0  0  0  0  0  0  0  0  0  0  0  0
   36.0320   27.0930   43.6770 F   0  0  0  0  0  0  0  0  0  0  0  0
   38.2010   27.2830   43.2220 F   0  0  0  0  0  0  0  0  0  0  0  0
   36.8690   25.8790   41.9650 F   0  0  0  0  0  0  0  0  0  0  0  0
  1 24  1  0  0  0  0
  2  1  1  0  0  0  0
  2  7  1  0  0  0  0
  3  2  2  0  0  0  0
  4  5  2  0  0  0  0
  4  3  1  0  0  0  0
  5  6  1  0  0  0  0
  6 13  1  0  0  0  0
  6  1  2  0  0  0  0
  8  3  1  0  0  0  0
  9  4  1  0  0  0  0
 10  5  1  0  0  0  0
 11 15  1  0  0  0  0
 12 11  2  0  0  0  0
 13 14  1  0  0  0  0
 13 11  1  0  0  0  0
 15 16  1  0  0  0  0
 17 16  1  0  0  0  0
 18 17  1  0  0  0  0
 19 18  1  0  0  0  0
 20 18  1  0  0  0  0
 21 15  1  0  0  0  0
 21 20  1  0  0  0  0
 22 27  1  0  0  0  0
 22 30  1  0  0  0  0
 23 22  2  0  0  0  0
 24 25  2  0  0  0  0
 24 23  1  0  0  0  0
 25 26  1  0  0  0  0
 26 29  1  0  0  0  0
 26 27  2  0  0  0  0
 28 23  1  0  0  0  0
 30 32  1  0  0  0  0
 30 31  1  0  0  0  0
 33 30  1  0  0  0  0
M  END
>  <minimizedAffinity>
-5.97065639

$$$$

 OpenBabel03252502293D

 33 35  0  0  0  0  0  0  0  0999 V2000
   35.5050   28.1100   38.4510 C   0  0  0  0  0  0  0  0  0  0  0  0
   34.6200   28.3840   37.4040 C   0  0  0  0  0  0  0  0  0  0  0  0
   34.1560   27.3200   36.6380 C   0  0  0  0  0  0  0  0  0  0  0  0
   34.5660   26.0500   36.9200 C   0  0  0  0  0  0  0  0  0  0  0  0
   35.4310   25.7610   37.9410 C   0  0  0  0  0  0  0  0  0  0  0  0
   35.8880   26.8420   38.7000 C   0  0  0  0  0  0  0  0  0  0  0  0
   34.2950   29.3910   37.1800 H   0  0  0  0  0  0  0  0  0  0  0  0
   33.4700   27.4760   35.8160 H   0  0  0  0  0  0  0  0  0  0  0  0
   34.2470   25.1630   36.3670 H   0  0  0  0  0  0  0  0  0  0  0  0
   35.8230   24.8020   38.2550 H   0  0  0  0  0  0  0  0  0  0  0  0
   37.8640   25.8320   40.0920 C   0  0  0  0  0  0  0  0  0  0  0  0
   38.2970   24.9450   39.3700 O   0  0  0  0  0  0  0  0  0  0  0  0
   36.7850   26.6900   39.7890 N   0  0  0  0  0  0  0  0  0  0  0  0
   36.5070   27.4370   40.4990 H   0  0  0  0  0  0  0  0  0  0  0  0
   38.5180   25.9970   41.3450 N   0  0  0  0  0  0  0  0  0  0  0  0
   39.0910   27.3240   41.4930 C   0  0  0  0  0  2  0  0  0  0  0  0
   39.0810   27.6360   42.9840 C   0  0  0  0  0  2  0  0  0  0  0  0
   40.0540   26.7060   43.6720 C   0  0  0  0  0  3  0  0  0  0  0  0
   39.6950   26.5590   44.7230 H   0  0  0  0  0  0  0  0  0  0  0  0
   40.0700   25.3420   43.0200 C   0  0  0  0  0  2  0  0  0  0  0  0
   38.6810   25.0680   42.4370 C   0  0  0  0  0  2  0  0  0  0  0  0
   36.9510   31.4330   39.5110 C   0  0  0  0  0  0  0  0  0  0  0  0
   36.5620   30.3780   38.6640 C   0  0  0  0  0  0  0  0  0  0  0  0
   35.9540   29.2700   39.2150 C   0  0  0  0  0  0  0  0  0  0  0  0
   35.7650   29.2640   40.5580 N   0  0  0  0  0  0  0  0  0  0  0  0
   36.1420   30.2870   41.3590 C   0  0  0  0  0  0  0  0  0  0  0  0
   36.7380   31.3750   40.8300 N   0  0  0  0  0  0  0  0  0  0  0  0
   36.7210   30.4010   37.6040 H   0  0  0  0  0  0  0  0  0  0  0  0
   35.9700   30.2380   42.4280 H   0  0  0  0  0  0  0  0  0  0  0  0
   37.6050   32.6310   38.9340 C   0  0  0  0  0  0  0  0  0  0  0  0
   36.9090   33.7500   39.3800 F   0  0  0  0  0  0  0  0  0  0  0  0
   37.3950   32.5810   37.5510 F   0  0  0  0  0  0  0  0  0  0  0  0
   38.9280   32.7410   39.2690 F   0  0  0  0  0  0  0  0  0  0  0  0
  1  6  1  0  0  0  0
  1 24  1  0  0  0  0
  2  1  2  0  0  0  0
  3  4  2  0  0  0  0
  3  2  1  0  0  0  0
  4  5  1  0  0  0  0
  5 10  1  0  0  0  0
  5  6  2  0  0  0  0
  6 13  1  0  0  0  0
  7  2  1  0  0  0  0
  8  3  1  0  0  0  0
  9  4  1  0  0  0  0
 11 15  1  0  0  0  0
 12 11  2  0  0  0  0
 13 11  1  0  0  0  0
 13 14  1  0  0  0  0
 15 16  1  0  0  0  0
 15 21  1  0  0  0  0
 16 17  1  0  0  0  0
 17 18  1  0  0  0  0
 18 19  1  0  0  0  0
 20 18  1  0  0  0  0
 21 20  1  0  0  0  0
 22 27  1  0  0  0  0
 23 24  1  0  0  0  0
 23 22  2  0  0  0  0
 24 25  2  0  0  0  0
 25 26  1  0  0  0  0
 26 29  1  0  0  0  0
 27 26  2  0  0  0  0
 28 23  1  0  0  0  0
 30 33  1  0  0  0  0
 30 31  1  0  0  0  0
 30 22  1  0  0  0  0
 32 30  1  0  0  0  0
M  END
>  <minimizedAffinity>
-5.89252615

$$$$

 OpenBabel03252502293D

 33 35  0  0  0  0  0  0  0  0999 V2000
   36.4800   29.3650   37.1090 C   0  0  0  0  0  0  0  0  0  0  0  0
   36.0040   29.7050   35.8390 C   0  0  0  0  0  0  0  0  0  0  0  0
   35.0300   28.8960   35.2620 C   0  0  0  0  0  0  0  0  0  0  0  0
   34.5640   27.8060   35.9370 C   0  0  0  0  0  0  0  0  0  0  0  0
   35.0170   27.4570   37.1810 C   0  0  0  0  0  0  0  0  0  0  0  0
   35.9960   28.2800   37.7460 C   0  0  0  0  0  0  0  0  0  0  0  0
   36.3730   30.5690   35.3030 H   0  0  0  0  0  0  0  0  0  0  0  0
   34.6280   29.1140   34.2820 H   0  0  0  0  0  0  0  0  0  0  0  0
   33.8020   27.1240   35.5540 H   0  0  0  0  0  0  0  0  0  0  0  0
   34.7250   26.6230   37.8060 H   0  0  0  0  0  0  0  0  0  0  0  0
   36.1650   28.3040   40.3600 C   0  0  0  0  0  0  0  0  0  0  0  0
   35.1270   28.8500   40.7070 O   0  0  0  0  0  0  0  0  0  0  0  0
   36.5540   28.0400   39.0290 N   0  0  0  0  0  0  0  0  0  0  0  0
   37.4810   27.5440   38.8530 H   0  0  0  0  0  0  0  0  0  0  0  0
   37.0450   27.9060   41.4050 N   0  0  0  0  0  0  0  0  0  0  0  0
   37.2870   26.4730   41.4010 C   0  0  0  0  0  2  0  0  0  0  0  0
   38.6800   26.2680   41.9790 C   0  0  0  0  0  2  0  0  0  0  0  0
   38.6530   26.6610   43.4390 C   0  0  0  0  0  3  0  0  0  0  0  0
   39.6840   27.0060   43.7140 H   0  0  0  0  0  0  0  0  0  0  0  0
   37.7230   27.8270   43.6800 C   0  0  0  0  0  2  0  0  0  0  0  0
   37.6980   28.6960   42.4190 C   0  0  0  0  0  2  0  0  0  0  0  0
   38.3060   32.1540   38.8810 C   0  0  0  0  0  0  0  0  0  0  0  0
   37.2310   31.3770   38.4110 C   0  0  0  0  0  0  0  0  0  0  0  0
   37.5000   30.2540   37.6570 C   0  0  0  0  0  0  0  0  0  0  0  0
   38.8020   29.9620   37.4120 N   0  0  0  0  0  0  0  0  0  0  0  0
   39.8250   30.7190   37.8720 C   0  0  0  0  0  0  0  0  0  0  0  0
   39.5720   31.8190   38.6100 N   0  0  0  0  0  0  0  0  0  0  0  0
   36.2080   31.6250   38.6150 H   0  0  0  0  0  0  0  0  0  0  0  0
   40.8500   30.4470   37.6510 H   0  0  0  0  0  0  0  0  0  0  0  0
   38.0340   33.3640   39.6930 C   0  0  0  0  0  0  0  0  0  0  0  0
   39.1750   34.1590   39.6630 F   0  0  0  0  0  0  0  0  0  0  0  0
   37.9020   32.9400   41.0200 F   0  0  0  0  0  0  0  0  0  0  0  0
   36.9540   34.0820   39.2520 F   0  0  0  0  0  0  0  0  0  0  0  0
  1 24  1  0  0  0  0
  1  6  1  0  0  0  0
  2  1  2  0  0  0  0
  3  2  1  0  0  0  0
  3  4  2  0  0  0  0
  4  5  1  0  0  0  0
  5  6  2  0  0  0  0
  5 10  1  0  0  0  0
  6 13  1  0  0  0  0
  7  2  1  0  0  0  0
  8  3  1  0  0  0  0
  9  4  1  0  0  0  0
 11 12  2  0  0  0  0
 11 15  1  0  0  0  0
 13 11  1  0  0  0  0
 14 13  1  0  0  0  0
 15 21  1  0  0  0  0
 16 15  1  0  0  0  0
 16 17  1  0  0  0  0
 17 18  1  0  0  0  0
 18 20  1  0  0  0  0
 18 19  1  0  0  0  0
 21 20  1  0  0  0  0
 22 30  1  0  0  0  0
 23 28  1  0  0  0  0
 23 22  2  0  0  0  0
 24 23  1  0  0  0  0
 25 24  2  0  0  0  0
 25 26  1  0  0  0  0
 26 27  2  0  0  0  0
 27 22  1  0  0  0  0
 29 26  1  0  0  0  0
 30 32  1  0  0  0  0
 31 30  1  0  0  0  0
 33 30  1  0  0  0  0
M  END
>  <minimizedAffinity>
-5.88782549

$$$$

 OpenBabel03252502293D

 33 35  0  0  0  0  0  0  0  0999 V2000
   36.9200   26.8280   41.0310 C   0  0  0  0  0  0  0  0  0  0  0  0
   37.0700   26.1950   42.2680 C   0  0  0  0  0  0  0  0  0  0  0  0
   36.9820   24.8080   42.3150 C   0  0  0  0  0  0  0  0  0  0  0  0
   36.7560   24.1030   41.1690 C   0  0  0  0  0  0  0  0  0  0  0  0
   36.6070   24.7040   39.9480 C   0  0  0  0  0  0  0  0  0  0  0  0
   36.6980   26.0980   39.9190 C   0  0  0  0  0  0  0  0  0  0  0  0
   37.2490   26.7550   43.1780 H   0  0  0  0  0  0  0  0  0  0  0  0
   37.0890   24.2690   43.2460 H   0  0  0  0  0  0  0  0  0  0  0  0
   36.6740   23.0150   41.1220 H   0  0  0  0  0  0  0  0  0  0  0  0
   36.4260   24.2520   38.9810 H   0  0  0  0  0  0  0  0  0  0  0  0
   35.6560   26.8810   37.6470 C   0  0  0  0  0  0  0  0  0  0  0  0
   34.6640   26.1750   37.5310 O   0  0  0  0  0  0  0  0  0  0  0  0
   36.5680   26.8520   38.7240 N   0  0  0  0  0  0  0  0  0  0  0  0
   37.3920   27.5290   38.7180 H   0  0  0  0  0  0  0  0  0  0  0  0
   35.8950   27.8060   36.5930 N   0  0  0  0  0  0  0  0  0  0  0  0
   35.9050   29.1810   37.0630 C   0  0  0  0  0  2  0  0  0  0  0  0
   36.8360   29.9490   36.1340 C   0  0  0  0  0  2  0  0  0  0  0  0
   36.2020   30.0040   34.7630 C   0  0  0  0  0  3  0  0  0  0  0  0
   37.0300   30.0760   34.0110 H   0  0  0  0  0  0  0  0  0  0  0  0
   35.4400   28.7360   34.4550 C   0  0  0  0  0  2  0  0  0  0  0  0
   36.1180   27.5730   35.1870 C   0  0  0  0  0  2  0  0  0  0  0  0
   38.1410   30.3860   41.3600 C   0  0  0  0  0  0  0  0  0  0  0  0
   38.1710   28.9780   41.3760 C   0  0  0  0  0  0  0  0  0  0  0  0
   37.0240   28.2840   41.0520 C   0  0  0  0  0  0  0  0  0  0  0  0
   35.9230   29.0090   40.7330 N   0  0  0  0  0  0  0  0  0  0  0  0
   35.9110   30.3620   40.7210 C   0  0  0  0  0  0  0  0  0  0  0  0
   37.0270   31.0500   41.0370 N   0  0  0  0  0  0  0  0  0  0  0  0
   39.0520   28.4230   41.6310 H   0  0  0  0  0  0  0  0  0  0  0  0
   35.0070   30.8990   40.4590 H   0  0  0  0  0  0  0  0  0  0  0  0
   39.3650   31.1470   41.7060 C   0  0  0  0  0  0  0  0  0  0  0  0
   39.5840   30.9990   43.0710 F   0  0  0  0  0  0  0  0  0  0  0  0
   39.0660   32.5010   41.5140 F   0  0  0  0  0  0  0  0  0  0  0  0
   40.4720   30.7410   41.0090 F   0  0  0  0  0  0  0  0  0  0  0  0
  1 24  1  0  0  0  0
  1  2  1  0  0  0  0
  2  3  2  0  0  0  0
  2  7  1  0  0  0  0
  3  8  1  0  0  0  0
  4  3  1  0  0  0  0
  5  4  2  0  0  0  0
  6  5  1  0  0  0  0
  6  1  2  0  0  0  0
  9  4  1  0  0  0  0
 10  5  1  0  0  0  0
 11 13  1  0  0  0  0
 12 11  2  0  0  0  0
 13  6  1  0  0  0  0
 14 13  1  0  0  0  0
 15 16  1  0  0  0  0
 15 11  1  0  0  0  0
 17 16  1  0  0  0  0
 18 17  1  0  0  0  0
 19 18  1  0  0  0  0
 20 18  1  0  0  0  0
 20 21  1  0  0  0  0
 21 15  1  0  0  0  0
 22 23  1  0  0  0  0
 22 30  1  0  0  0  0
 23 28  1  0  0  0  0
 24 23  2  0  0  0  0
 25 24  1  0  0  0  0
 26 25  2  0  0  0  0
 26 27  1  0  0  0  0
 27 22  2  0  0  0  0
 29 26  1  0  0  0  0
 30 31  1  0  0  0  0
 32 30  1  0  0  0  0
 33 30  1  0  0  0  0
M  END
>  <minimizedAffinity>
-5.8260107

$$$$

 OpenBabel03252502293D

 33 35  0  0  0  0  0  0  0  0999 V2000
   36.8180   28.6680   39.9010 C   0  0  0  0  0  0  0  0  0  0  0  0
   35.6660   28.0720   39.3780 C   0  0  0  0  0  0  0  0  0  0  0  0
   35.1240   28.5970   38.2090 C   0  0  0  0  0  0  0  0  0  0  0  0
   35.7190   29.6650   37.6050 C   0  0  0  0  0  0  0  0  0  0  0  0
   36.8470   30.2630   38.1010 C   0  0  0  0  0  0  0  0  0  0  0  0
   37.3770   29.7230   39.2760 C   0  0  0  0  0  0  0  0  0  0  0  0
   35.1940   27.2240   39.8570 H   0  0  0  0  0  0  0  0  0  0  0  0
   34.2340   28.1740   37.7630 H   0  0  0  0  0  0  0  0  0  0  0  0
   35.3560   30.1340   36.6870 H   0  0  0  0  0  0  0  0  0  0  0  0
   37.4010   31.1070   37.7110 H   0  0  0  0  0  0  0  0  0  0  0  0
   39.1480   31.5090   40.0080 C   0  0  0  0  0  0  0  0  0  0  0  0
   38.7150   32.5500   39.5340 O   0  0  0  0  0  0  0  0  0  0  0  0
   38.5440   30.2380   39.8990 N   0  0  0  0  0  0  0  0  0  0  0  0
   39.0130   29.4040   40.3690 H   0  0  0  0  0  0  0  0  0  0  0  0
   40.3700   31.6080   40.7310 N   0  0  0  0  0  0  0  0  0  0  0  0
   40.2250   31.1830   42.1130 C   0  0  0  0  0  2  0  0  0  0  0  0
   41.5810   30.6380   42.5420 C   0  0  0  0  0  2  0  0  0  0  0  0
   42.5650   31.7850   42.5820 C   0  0  0  0  0  3  0  0  0  0  0  0
   43.5830   31.3630   42.3810 H   0  0  0  0  0  0  0  0  0  0  0  0
   42.2840   32.7910   41.4900 C   0  0  0  0  0  2  0  0  0  0  0  0
   41.6710   32.0530   40.2960 C   0  0  0  0  0  2  0  0  0  0  0  0
   38.3040   26.3250   42.4620 C   0  0  0  0  0  0  0  0  0  0  0  0
   37.8350   26.7870   41.2170 C   0  0  0  0  0  0  0  0  0  0  0  0
   37.3350   28.0690   41.1280 C   0  0  0  0  0  0  0  0  0  0  0  0
   37.3240   28.8170   42.2590 N   0  0  0  0  0  0  0  0  0  0  0  0
   37.7800   28.3590   43.4480 C   0  0  0  0  0  0  0  0  0  0  0  0
   38.2710   27.1080   43.5460 N   0  0  0  0  0  0  0  0  0  0  0  0
   37.8510   26.1800   40.3340 H   0  0  0  0  0  0  0  0  0  0  0  0
   37.7520   28.9940   44.3260 H   0  0  0  0  0  0  0  0  0  0  0  0
   38.8450   24.9510   42.5750 C   0  0  0  0  0  0  0  0  0  0  0  0
   39.5760   24.6860   41.4220 F   0  0  0  0  0  0  0  0  0  0  0  0
   37.7500   24.0800   42.5380 F   0  0  0  0  0  0  0  0  0  0  0  0
   39.6350   24.7680   43.6790 F   0  0  0  0  0  0  0  0  0  0  0  0
  1 24  1  0  0  0  0
  2  7  1  0  0  0  0
  2  1  1  0  0  0  0
  3  2  2  0  0  0  0
  4  5  2  0  0  0  0
  4  3  1  0  0  0  0
  5  6  1  0  0  0  0
  6 13  1  0  0  0  0
  6  1  2  0  0  0  0
  8  3  1  0  0  0  0
  9  4  1  0  0  0  0
 10  5  1  0  0  0  0
 11 15  1  0  0  0  0
 12 11  2  0  0  0  0
 13 11  1  0  0  0  0
 13 14  1  0  0  0  0
 15 16  1  0  0  0  0
 16 17  1  0  0  0  0
 17 18  1  0  0  0  0
 19 18  1  0  0  0  0
 20 18  1  0  0  0  0
 21 15  1  0  0  0  0
 21 20  1  0  0  0  0
 22 30  1  0  0  0  0
 22 27  1  0  0  0  0
 23 22  2  0  0  0  0
 24 23  1  0  0  0  0
 24 25  2  0  0  0  0
 25 26  1  0  0  0  0
 26 27  2  0  0  0  0
 26 29  1  0  0  0  0
 28 23  1  0  0  0  0
 30 33  1  0  0  0  0
 31 30  1  0  0  0  0
 32 30  1  0  0  0  0
M  END
>  <minimizedAffinity>
-5.76905537

$$$$

 OpenBabel03252502293D

 33 35  0  0  0  0  0  0  0  0999 V2000
   35.9080   27.8580   38.1600 C   0  0  0  0  0  0  0  0  0  0  0  0
   35.1500   26.7630   37.7330 C   0  0  0  0  0  0  0  0  0  0  0  0
   34.1910   26.9690   36.7470 C   0  0  0  0  0  0  0  0  0  0  0  0
   34.0110   28.2160   36.2250 C   0  0  0  0  0  0  0  0  0  0  0  0
   34.7420   29.3010   36.6290 C   0  0  0  0  0  0  0  0  0  0  0  0
   35.7020   29.0760   37.6200 C   0  0  0  0  0  0  0  0  0  0  0  0
   35.2930   25.7740   38.1470 H   0  0  0  0  0  0  0  0  0  0  0  0
   33.5780   26.1570   36.3810 H   0  0  0  0  0  0  0  0  0  0  0  0
   33.2800   28.4600   35.4500 H   0  0  0  0  0  0  0  0  0  0  0  0
   34.6880   30.3280   36.2900 H   0  0  0  0  0  0  0  0  0  0  0  0
   36.5860   30.8560   39.3260 C   0  0  0  0  0  0  0  0  0  0  0  0
   35.8320   30.7340   40.2820 O   0  0  0  0  0  0  0  0  0  0  0  0
   36.5330   30.1060   38.1320 N   0  0  0  0  0  0  0  0  0  0  0  0
   37.2580   30.2970   37.3730 H   0  0  0  0  0  0  0  0  0  0  0  0
   37.6000   31.8470   39.4490 N   0  0  0  0  0  0  0  0  0  0  0  0
   38.9350   31.2810   39.3470 C   0  0  0  0  0  2  0  0  0  0  0  0
   39.8250   32.3720   38.7670 C   0  0  0  0  0  2  0  0  0  0  0  0
   39.9430   33.4820   39.7870 C   0  0  0  0  0  3  0  0  0  0  0  0
   40.1210   34.4370   39.2270 H   0  0  0  0  0  0  0  0  0  0  0  0
   38.6570   33.6610   40.5600 C   0  0  0  0  0  2  0  0  0  0  0  0
   37.4870   33.2700   39.6520 C   0  0  0  0  0  2  0  0  0  0  0  0
   37.6350   26.9500   41.3920 C   0  0  0  0  0  0  0  0  0  0  0  0
   36.5870   27.1950   40.4850 C   0  0  0  0  0  0  0  0  0  0  0  0
   36.8970   27.5740   39.1950 C   0  0  0  0  0  0  0  0  0  0  0  0
   38.2100   27.6880   38.8750 N   0  0  0  0  0  0  0  0  0  0  0  0
   39.2060   27.4470   39.7580 C   0  0  0  0  0  0  0  0  0  0  0  0
   38.9140   27.0770   41.0210 N   0  0  0  0  0  0  0  0  0  0  0  0
   35.5550   27.1000   40.7570 H   0  0  0  0  0  0  0  0  0  0  0  0
   40.2420   27.5520   39.4570 H   0  0  0  0  0  0  0  0  0  0  0  0
   37.3200   26.5420   42.7810 C   0  0  0  0  0  0  0  0  0  0  0  0
   36.5070   27.5240   43.3370 F   0  0  0  0  0  0  0  0  0  0  0  0
   38.5200   26.5920   43.5000 F   0  0  0  0  0  0  0  0  0  0  0  0
   36.7010   25.3230   42.8620 F   0  0  0  0  0  0  0  0  0  0  0  0
  1 24  1  0  0  0  0
  2  7  1  0  0  0  0
  2  1  1  0  0  0  0
  3  2  2  0  0  0  0
  4  5  2  0  0  0  0
  4  3  1  0  0  0  0
  5  6  1  0  0  0  0
  6 13  1  0  0  0  0
  6  1  2  0  0  0  0
  8  3  1  0  0  0  0
  9  4  1  0  0  0  0
 10  5  1  0  0  0  0
 11 15  1  0  0  0  0
 11 12  2  0  0  0  0
 13 11  1  0  0  0  0
 14 13  1  0  0  0  0
 15 21  1  0  0  0  0
 16 15  1  0  0  0  0
 17 16  1  0  0  0  0
 17 18  1  0  0  0  0
 18 20  1  0  0  0  0
 19 18  1  0  0  0  0
 21 20  1  0  0  0  0
 22 30  1  0  0  0  0
 23 28  1  0  0  0  0
 23 22  2  0  0  0  0
 24 23  1  0  0  0  0
 25 24  2  0  0  0  0
 25 26  1  0  0  0  0
 26 27  2  0  0  0  0
 27 22  1  0  0  0  0
 29 26  1  0  0  0  0
 30 33  1  0  0  0  0
 30 31  1  0  0  0  0
 30 32  1  0  0  0  0
M  END
>  <minimizedAffinity>
-5.68737411

$$$$

 OpenBabel03252502293D

 33 35  0  0  0  0  0  0  0  0999 V2000
   38.4900   28.0950   42.0140 C   0  0  0  0  0  0  0  0  0  0  0  0
   39.2270   28.0740   43.2010 C   0  0  0  0  0  0  0  0  0  0  0  0
   39.6710   26.8450   43.6790 C   0  0  0  0  0  0  0  0  0  0  0  0
   39.3850   25.7040   42.9900 C   0  0  0  0  0  0  0  0  0  0  0  0
   38.6640   25.7040   41.8250 C   0  0  0  0  0  0  0  0  0  0  0  0
   38.2250   26.9470   41.3600 C   0  0  0  0  0  0  0  0  0  0  0  0
   39.4540   28.9790   43.7490 H   0  0  0  0  0  0  0  0  0  0  0  0
   40.2450   26.7720   44.5930 H   0  0  0  0  0  0  0  0  0  0  0  0
   39.6970   24.7030   43.2980 H   0  0  0  0  0  0  0  0  0  0  0  0
   38.3780   24.8690   41.1980 H   0  0  0  0  0  0  0  0  0  0  0  0
   36.5820   26.2870   39.4290 C   0  0  0  0  0  0  0  0  0  0  0  0
   36.2320   25.1540   39.7280 O   0  0  0  0  0  0  0  0  0  0  0  0
   37.4730   27.0970   40.1650 N   0  0  0  0  0  0  0  0  0  0  0  0
   37.6920   28.0780   39.8070 H   0  0  0  0  0  0  0  0  0  0  0  0
   36.0320   26.8180   38.2290 N   0  0  0  0  0  0  0  0  0  0  0  0
   35.2680   28.0310   38.4670 C   0  0  0  0  0  2  0  0  0  0  0  0
   35.3680   28.8620   37.1950 C   0  0  0  0  0  2  0  0  0  0  0  0
   34.6290   28.1390   36.0930 C   0  0  0  0  0  3  0  0  0  0  0  0
   35.1070   28.4280   35.1200 H   0  0  0  0  0  0  0  0  0  0  0  0
   34.7730   26.6400   36.2230 C   0  0  0  0  0  2  0  0  0  0  0  0
   36.1270   26.3380   36.8720 C   0  0  0  0  0  2  0  0  0  0  0  0
   38.3580   31.6970   40.8880 C   0  0  0  0  0  0  0  0  0  0  0  0
   38.9040   30.4710   41.3130 C   0  0  0  0  0  0  0  0  0  0  0  0
   38.0540   29.4150   41.5670 C   0  0  0  0  0  0  0  0  0  0  0  0
   36.7260   29.6250   41.3900 N   0  0  0  0  0  0  0  0  0  0  0  0
   36.2160   30.8090   40.9790 C   0  0  0  0  0  0  0  0  0  0  0  0
   37.0390   31.8470   40.7280 N   0  0  0  0  0  0  0  0  0  0  0  0
   39.9580   30.3250   41.4480 H   0  0  0  0  0  0  0  0  0  0  0  0
   35.1470   30.9300   40.8510 H   0  0  0  0  0  0  0  0  0  0  0  0
   39.2580   32.8410   40.6100 C   0  0  0  0  0  0  0  0  0  0  0  0
   39.3250   33.0020   39.2300 F   0  0  0  0  0  0  0  0  0  0  0  0
   40.5420   32.4530   41.0090 F   0  0  0  0  0  0  0  0  0  0  0  0
   38.8480   34.0090   41.1960 F   0  0  0  0  0  0  0  0  0  0  0  0
  1  2  1  0  0  0  0
  2  3  2  0  0  0  0
  2  7  1  0  0  0  0
  3  8  1  0  0  0  0
  4  9  1  0  0  0  0
  4  3  1  0  0  0  0
  5  4  2  0  0  0  0
  6  5  1  0  0  0  0
  6  1  2  0  0  0  0
 10  5  1  0  0  0  0
 11 12  2  0  0  0  0
 11 13  1  0  0  0  0
 13  6  1  0  0  0  0
 14 13  1  0  0  0  0
 15 16  1  0  0  0  0
 15 11  1  0  0  0  0
 17 16  1  0  0  0  0
 18 20  1  0  0  0  0
 18 17  1  0  0  0  0
 19 18  1  0  0  0  0
 20 21  1  0  0  0  0
 21 15  1  0  0  0  0
 22 23  1  0  0  0  0
 23 28  1  0  0  0  0
 23 24  2  0  0  0  0
 24  1  1  0  0  0  0
 25 24  1  0  0  0  0
 26 25  2  0  0  0  0
 27 22  2  0  0  0  0
 27 26  1  0  0  0  0
 29 26  1  0  0  0  0
 30 22  1  0  0  0  0
 30 32  1  0  0  0  0
 30 33  1  0  0  0  0
 31 30  1  0  0  0  0
M  END
>  <minimizedAffinity>
-5.65724087

$$$$

 OpenBabel03252502293D

 33 35  0  0  0  0  0  0  0  0999 V2000
   37.3290   30.7580   38.9710 C   0  0  0  0  0  0  0  0  0  0  0  0
   37.2870   32.0960   38.5650 C   0  0  0  0  0  0  0  0  0  0  0  0
   37.7710   33.0650   39.4370 C   0  0  0  0  0  0  0  0  0  0  0  0
   38.2710   32.6970   40.6510 C   0  0  0  0  0  0  0  0  0  0  0  0
   38.3210   31.3940   41.0670 C   0  0  0  0  0  0  0  0  0  0  0  0
   37.8300   30.4330   40.1790 C   0  0  0  0  0  0  0  0  0  0  0  0
   36.8900   32.3870   37.6010 H   0  0  0  0  0  0  0  0  0  0  0  0
   37.7610   34.1140   39.1730 H   0  0  0  0  0  0  0  0  0  0  0  0
   38.6690   33.3960   41.3910 H   0  0  0  0  0  0  0  0  0  0  0  0
   38.6910   30.9870   42.0000 H   0  0  0  0  0  0  0  0  0  0  0  0
   36.9030   28.1450   41.0560 C   0  0  0  0  0  0  0  0  0  0  0  0
   35.7810   28.4260   41.4530 O   0  0  0  0  0  0  0  0  0  0  0  0
   37.8230   29.0450   40.4760 N   0  0  0  0  0  0  0  0  0  0  0  0
   38.7710   28.6760   40.1550 H   0  0  0  0  0  0  0  0  0  0  0  0
   37.2990   26.7850   41.1990 N   0  0  0  0  0  0  0  0  0  0  0  0
   37.6150   26.1690   39.9220 C   0  0  0  0  0  2  0  0  0  0  0  0
   38.6560   25.0950   40.2060 C   0  0  0  0  0  2  0  0  0  0  0  0
   38.0040   24.0020   41.0210 C   0  0  0  0  0  3  0  0  0  0  0  0
   38.8040   23.5220   41.6430 H   0  0  0  0  0  0  0  0  0  0  0  0
   36.9820   24.5650   41.9820 C   0  0  0  0  0  2  0  0  0  0  0  0
   37.4220   25.9750   42.3860 C   0  0  0  0  0  2  0  0  0  0  0  0
   35.0920   28.5350   36.8940 C   0  0  0  0  0  0  0  0  0  0  0  0
   35.4690   29.4890   37.8590 C   0  0  0  0  0  0  0  0  0  0  0  0
   36.8060   29.7920   38.0090 C   0  0  0  0  0  0  0  0  0  0  0  0
   37.6880   29.1440   37.2080 N   0  0  0  0  0  0  0  0  0  0  0  0
   37.3100   28.2310   36.2840 C   0  0  0  0  0  0  0  0  0  0  0  0
   36.0060   27.9280   36.1300 N   0  0  0  0  0  0  0  0  0  0  0  0
   34.7560   29.9900   38.4840 H   0  0  0  0  0  0  0  0  0  0  0  0
   38.0510   27.7380   35.6660 H   0  0  0  0  0  0  0  0  0  0  0  0
   33.6600   28.1990   36.7200 C   0  0  0  0  0  0  0  0  0  0  0  0
   32.9240   29.0260   37.5610 F   0  0  0  0  0  0  0  0  0  0  0  0
   33.4860   26.9020   37.2160 F   0  0  0  0  0  0  0  0  0  0  0  0
   33.2220   28.3390   35.4290 F   0  0  0  0  0  0  0  0  0  0  0  0
  1  6  1  0  0  0  0
  2  1  2  0  0  0  0
  2  3  1  0  0  0  0
  3  4  2  0  0  0  0
  4  5  1  0  0  0  0
  4  9  1  0  0  0  0
  5 10  1  0  0  0  0
  6 13  1  0  0  0  0
  6  5  2  0  0  0  0
  7  2  1  0  0  0  0
  8  3  1  0  0  0  0
 11 15  1  0  0  0  0
 11 12  2  0  0  0  0
 13 11  1  0  0  0  0
 14 13  1  0  0  0  0
 15 21  1  0  0  0  0
 16 17  1  0  0  0  0
 16 15  1  0  0  0  0
 17 18  1  0  0  0  0
 18 19  1  0  0  0  0
 18 20  1  0  0  0  0
 20 21  1  0  0  0  0
 22 23  1  0  0  0  0
 23 24  2  0  0  0  0
 23 28  1  0  0  0  0
 24  1  1  0  0  0  0
 25 24  1  0  0  0  0
 26 25  2  0  0  0  0
 27 26  1  0  0  0  0
 27 22  2  0  0  0  0
 29 26  1  0  0  0  0
 30 22  1  0  0  0  0
 30 32  1  0  0  0  0
 30 31  1  0  0  0  0
 33 30  1  0  0  0  0
M  END
>  <minimizedAffinity>
-5.62080097

$$$$
