
 OpenBabel03252503333D

 39 41  0  0  1  0  0  0  0  0999 V2000
   40.0530   27.8540   41.9270 C   0  0  0  0  0  0  0  0  0  0  0  0
   38.8480   27.1810   41.5750 C   0  0  0  0  0  0  0  0  0  0  0  0
   38.5390   26.0300   42.3260 C   0  0  0  0  0  0  0  0  0  0  0  0
   39.3860   25.6620   43.2980 N   0  0  0  0  0  0  0  0  0  0  0  0
   40.5210   26.3360   43.5940 C   0  0  0  0  0  0  0  0  0  0  0  0
   40.8490   27.4420   42.8960 N   0  0  0  0  0  0  0  0  0  0  0  0
   39.6630   30.1460   41.5980 C   0  0  0  0  0  0  0  0  0  0  0  0
   38.7320   29.9790   42.4580 O   0  0  0  0  0  0  0  0  0  0  0  0
   40.4380   29.0350   41.2090 N   0  0  0  0  0  0  0  0  0  0  0  0
   39.8470   31.4550   41.0920 N   0  0  0  0  0  0  0  0  0  0  0  0
   38.8020   32.4750   41.2970 C   0  0  0  0  0  0  0  0  0  0  0  0
   38.9360   33.3180   40.0650 C   0  0  0  0  0  0  0  0  0  0  0  0
   40.1350   32.7960   39.3290 C   0  0  0  0  0  0  0  0  0  0  0  0
   40.9330   32.0690   40.3870 C   0  0  1  0  0  0  0  0  0  0  0  0
   38.2210   27.5680   40.7580 H   0  0  0  0  0  0  0  0  0  0  0  0
   41.1620   25.9850   44.3910 H   0  0  0  0  0  0  0  0  0  0  0  0
   41.1780   29.1670   40.4780 H   0  0  0  0  0  0  0  0  0  0  0  0
   39.1910   33.0820   42.1560 H   0  0  0  0  0  0  0  0  0  0  0  0
   37.8180   32.0560   41.4820 H   0  0  0  0  0  0  0  0  0  0  0  0
   37.9900   33.1870   39.4940 H   0  0  0  0  0  0  0  0  0  0  0  0
   38.9940   34.4070   40.2710 H   0  0  0  0  0  0  0  0  0  0  0  0
   39.6920   31.8930   38.7750 H   0  0  0  0  0  0  0  0  0  0  0  0
   40.5640   33.3420   38.5560 H   0  0  0  0  0  0  0  0  0  0  0  0
   41.6270   31.4610   39.8250 H   0  0  0  0  0  0  0  0  0  0  0  0
   43.1130   33.1010   41.2830 C   0  0  0  0  0  0  0  0  0  0  0  0
   43.5930   32.6050   40.2510 O   0  0  0  0  0  0  0  0  0  0  0  0
   41.6720   32.9350   41.3000 N   0  0  0  0  0  0  0  0  0  0  0  0
   41.1000   33.4740   42.0210 H   0  0  0  0  0  0  0  0  0  0  0  0
   43.8060   33.7380   42.3110 N   0  0  0  0  0  0  0  0  0  0  0  0
   43.7050   35.1850   42.3620 C   0  0  0  0  0  2  0  0  0  0  0  0
   44.7460   35.8490   43.1990 C   0  0  0  0  0  2  0  0  0  0  0  0
   45.8930   34.9110   43.4400 C   0  0  0  0  0  3  0  0  0  0  0  0
   46.7440   35.3870   43.9590 H   0  0  0  0  0  0  0  0  0  0  0  0
   45.3220   33.7510   44.2460 C   0  0  0  0  0  2  0  0  0  0  0  0
   44.5670   32.9030   43.2410 C   0  0  0  0  0  2  0  0  0  0  0  0
   37.2970   25.3620   41.9410 C   0  0  0  0  0  0  0  0  0  0  0  0
   36.3450   25.5980   42.9260 F   0  0  0  0  0  0  0  0  0  0  0  0
   37.5420   23.9820   41.9960 F   0  0  0  0  0  0  0  0  0  0  0  0
   36.8030   25.7650   40.7390 F   0  0  0  0  0  0  0  0  0  0  0  0
  1  6  1  0  0  0  0
  2  1  2  0  0  0  0
  2  3  1  0  0  0  0
  3  4  2  0  0  0  0
  4  5  1  0  0  0  0
  5 16  1  0  0  0  0
  6  5  2  0  0  0  0
  7  8  2  0  0  0  0
  9  7  1  0  0  0  0
  9  1  1  0  0  0  0
 10 11  1  0  0  0  0
 10  7  1  0  0  0  0
 11 19  1  0  0  0  0
 11 18  1  0  0  0  0
 12 21  1  0  0  0  0
 12 11  1  0  0  0  0
 13 12  1  0  0  0  0
 13 14  1  0  0  0  0
 14 24  1  6  0  0  0
 14 10  1  0  0  0  0
 14 27  1  0  0  0  0
 15  2  1  0  0  0  0
 17  9  1  0  0  0  0
 20 12  1  0  0  0  0
 22 13  1  0  0  0  0
 23 13  1  0  0  0  0
 25 27  1  0  0  0  0
 25 29  1  0  0  0  0
 26 25  2  0  0  0  0
 27 28  1  0  0  0  0
 29 30  1  0  0  0  0
 29 35  1  0  0  0  0
 30 31  1  0  0  0  0
 31 32  1  0  0  0  0
 32 33  1  0  0  0  0
 32 34  1  0  0  0  0
 35 34  1  0  0  0  0
 36 38  1  0  0  0  0
 36  3  1  0  0  0  0
 36 37  1  0  0  0  0
 39 36  1  0  0  0  0
M  END
>  <minimizedAffinity>
-6.49323654

$$$$

 OpenBabel03252503333D

 39 41  0  0  1  0  0  0  0  0999 V2000
   38.8340   30.0450   39.8550 C   0  0  0  0  0  0  0  0  0  0  0  0
   37.6080   29.9720   39.1340 C   0  0  0  0  0  0  0  0  0  0  0  0
   36.8160   28.8310   39.3710 C   0  0  0  0  0  0  0  0  0  0  0  0
   37.2670   27.9180   40.2410 N   0  0  0  0  0  0  0  0  0  0  0  0
   38.4420   28.0320   40.9020 C   0  0  0  0  0  0  0  0  0  0  0  0
   39.2270   29.1110   40.7010 N   0  0  0  0  0  0  0  0  0  0  0  0
   39.1980   32.3150   40.3330 C   0  0  0  0  0  0  0  0  0  0  0  0
   38.0820   32.2320   40.9490 O   0  0  0  0  0  0  0  0  0  0  0  0
   39.6980   31.1760   39.6690 N   0  0  0  0  0  0  0  0  0  0  0  0
   39.8610   33.5660   40.3640 N   0  0  0  0  0  0  0  0  0  0  0  0
   39.1300   34.7730   40.7900 C   0  0  0  0  0  0  0  0  0  0  0  0
   39.7870   35.8460   39.9760 C   0  0  0  0  0  0  0  0  0  0  0  0
   40.9290   35.1870   39.2580 C   0  0  0  0  0  0  0  0  0  0  0  0
   41.2120   33.9460   40.0720 C   0  0  1  0  0  0  0  0  0  0  0  0
   37.3300   30.7800   38.4410 H   0  0  0  0  0  0  0  0  0  0  0  0
   38.7480   27.2580   41.5920 H   0  0  0  0  0  0  0  0  0  0  0  0
   40.5970   31.2560   39.1360 H   0  0  0  0  0  0  0  0  0  0  0  0
   39.4580   34.9180   41.8530 H   0  0  0  0  0  0  0  0  0  0  0  0
   38.0530   34.6870   40.6850 H   0  0  0  0  0  0  0  0  0  0  0  0
   39.0060   36.2310   39.2810 H   0  0  0  0  0  0  0  0  0  0  0  0
   40.0990   36.7310   40.5680 H   0  0  0  0  0  0  0  0  0  0  0  0
   40.3930   34.7060   38.3630 H   0  0  0  0  0  0  0  0  0  0  0  0
   41.6660   35.7560   38.7970 H   0  0  0  0  0  0  0  0  0  0  0  0
   41.8180   33.3340   39.4210 H   0  0  0  0  0  0  0  0  0  0  0  0
   43.3350   33.9060   41.5240 C   0  0  0  0  0  0  0  0  0  0  0  0
   43.8910   33.6750   40.4380 O   0  0  0  0  0  0  0  0  0  0  0  0
   41.9260   34.1820   41.3230 N   0  0  0  0  0  0  0  0  0  0  0  0
   41.3590   34.5860   42.1320 H   0  0  0  0  0  0  0  0  0  0  0  0
   43.9270   33.9130   42.7870 N   0  0  0  0  0  0  0  0  0  0  0  0
   44.1640   35.2140   43.3850 C   0  0  0  0  0  2  0  0  0  0  0  0
   45.1320   35.2070   44.5190 C   0  0  0  0  0  2  0  0  0  0  0  0
   45.9470   33.9470   44.4960 C   0  0  0  0  0  3  0  0  0  0  0  0
   46.7580   33.9390   45.2470 H   0  0  0  0  0  0  0  0  0  0  0  0
   44.9610   32.8070   44.7240 C   0  0  0  0  0  2  0  0  0  0  0  0
   44.2560   32.6230   43.3940 C   0  0  0  0  0  2  0  0  0  0  0  0
   35.5650   28.7870   38.6160 C   0  0  0  0  0  0  0  0  0  0  0  0
   34.5100   28.9850   39.4980 F   0  0  0  0  0  0  0  0  0  0  0  0
   35.4120   27.4690   38.1590 F   0  0  0  0  0  0  0  0  0  0  0  0
   35.4900   29.7070   37.6160 F   0  0  0  0  0  0  0  0  0  0  0  0
  1  6  1  0  0  0  0
  2  3  1  0  0  0  0
  2  1  2  0  0  0  0
  3  4  2  0  0  0  0
  4  5  1  0  0  0  0
  5 16  1  0  0  0  0
  6  5  2  0  0  0  0
  7 10  1  0  0  0  0
  7  8  2  0  0  0  0
  9  1  1  0  0  0  0
  9  7  1  0  0  0  0
 10 11  1  0  0  0  0
 11 18  1  0  0  0  0
 12 21  1  0  0  0  0
 12 11  1  0  0  0  0
 13 12  1  0  0  0  0
 13 14  1  0  0  0  0
 14 24  1  6  0  0  0
 14 10  1  0  0  0  0
 14 27  1  0  0  0  0
 15  2  1  0  0  0  0
 17  9  1  0  0  0  0
 19 11  1  0  0  0  0
 20 12  1  0  0  0  0
 22 13  1  0  0  0  0
 23 13  1  0  0  0  0
 25 29  1  0  0  0  0
 26 25  2  0  0  0  0
 27 25  1  0  0  0  0
 27 28  1  0  0  0  0
 29 30  1  0  0  0  0
 29 35  1  0  0  0  0
 30 31  1  0  0  0  0
 32 31  1  0  0  0  0
 32 34  1  0  0  0  0
 32 33  1  0  0  0  0
 35 34  1  0  0  0  0
 36  3  1  0  0  0  0
 36 37  1  0  0  0  0
 38 36  1  0  0  0  0
 39 36  1  0  0  0  0
M  END
>  <minimizedAffinity>
-6.4772377

$$$$

 OpenBabel03252503333D

 39 41  0  0  1  0  0  0  0  0999 V2000
   40.1530   31.1050   40.2050 C   0  0  0  0  0  0  0  0  0  0  0  0
   39.9250   32.3940   40.7660 C   0  0  0  0  0  0  0  0  0  0  0  0
   40.0930   33.4880   39.8950 C   0  0  0  0  0  0  0  0  0  0  0  0
   40.4460   33.2380   38.6260 N   0  0  0  0  0  0  0  0  0  0  0  0
   40.6520   31.9930   38.1400 C   0  0  0  0  0  0  0  0  0  0  0  0
   40.5010   30.9210   38.9450 N   0  0  0  0  0  0  0  0  0  0  0  0
   38.6440   29.6410   41.2500 C   0  0  0  0  0  0  0  0  0  0  0  0
   37.7530   30.4170   40.7630 O   0  0  0  0  0  0  0  0  0  0  0  0
   40.0030   29.9390   41.0280 N   0  0  0  0  0  0  0  0  0  0  0  0
   38.1900   28.5210   41.9880 N   0  0  0  0  0  0  0  0  0  0  0  0
   36.7900   28.4630   42.4460 C   0  0  0  0  0  0  0  0  0  0  0  0
   36.9080   27.6950   43.7280 C   0  0  0  0  0  0  0  0  0  0  0  0
   38.3400   27.2590   43.8250 C   0  0  0  0  0  0  0  0  0  0  0  0
   38.8420   27.3130   42.4010 C   0  0  1  0  0  0  0  0  0  0  0  0
   39.6370   32.4890   41.8240 H   0  0  0  0  0  0  0  0  0  0  0  0
   40.9360   31.8600   37.1050 H   0  0  0  0  0  0  0  0  0  0  0  0
   40.7330   29.3190   41.4570 H   0  0  0  0  0  0  0  0  0  0  0  0
   36.2970   27.7850   41.7010 H   0  0  0  0  0  0  0  0  0  0  0  0
   36.3160   29.4370   42.5160 H   0  0  0  0  0  0  0  0  0  0  0  0
   36.6160   28.3990   44.5400 H   0  0  0  0  0  0  0  0  0  0  0  0
   36.1910   26.8530   43.8140 H   0  0  0  0  0  0  0  0  0  0  0  0
   38.8440   28.2050   44.2370 H   0  0  0  0  0  0  0  0  0  0  0  0
   38.6310   26.5350   44.5120 H   0  0  0  0  0  0  0  0  0  0  0  0
   39.9180   27.2830   42.4960 H   0  0  0  0  0  0  0  0  0  0  0  0
   39.1410   24.9830   41.3530 C   0  0  0  0  0  0  0  0  0  0  0  0
   40.0650   24.8970   42.1770 O   0  0  0  0  0  0  0  0  0  0  0  0
   38.3980   26.2120   41.5520 N   0  0  0  0  0  0  0  0  0  0  0  0
   37.4630   26.3360   41.0520 H   0  0  0  0  0  0  0  0  0  0  0  0
   38.8140   24.0620   40.3580 N   0  0  0  0  0  0  0  0  0  0  0  0
   37.6420   23.2400   40.5960 C   0  0  0  0  0  2  0  0  0  0  0  0
   37.5510   22.0270   39.7310 C   0  0  0  0  0  2  0  0  0  0  0  0
   38.8910   21.7200   39.1280 C   0  0  0  0  0  3  0  0  0  0  0  0
   38.9090   20.7670   38.5690 H   0  0  0  0  0  0  0  0  0  0  0  0
   39.2260   22.9040   38.2290 C   0  0  0  0  0  2  0  0  0  0  0  0
   39.6700   24.0040   39.1730 C   0  0  0  0  0  2  0  0  0  0  0  0
   39.8510   34.7960   40.5010 C   0  0  0  0  0  0  0  0  0  0  0  0
   39.5960   35.7120   39.4880 F   0  0  0  0  0  0  0  0  0  0  0  0
   41.0660   35.2120   41.0680 F   0  0  0  0  0  0  0  0  0  0  0  0
   38.8200   34.8130   41.3880 F   0  0  0  0  0  0  0  0  0  0  0  0
  1  2  1  0  0  0  0
  1  9  1  0  0  0  0
  2 15  1  0  0  0  0
  3 36  1  0  0  0  0
  3  2  2  0  0  0  0
  4  3  1  0  0  0  0
  5  4  2  0  0  0  0
  5  6  1  0  0  0  0
  6  1  2  0  0  0  0
  7 10  1  0  0  0  0
  8  7  2  0  0  0  0
  9  7  1  0  0  0  0
  9 17  1  0  0  0  0
 10 14  1  0  0  0  0
 10 11  1  0  0  0  0
 11 19  1  0  0  0  0
 11 12  1  0  0  0  0
 12 21  1  0  0  0  0
 12 13  1  0  0  0  0
 12 20  1  0  0  0  0
 13 22  1  0  0  0  0
 13 23  1  0  0  0  0
 14 24  1  6  0  0  0
 14 13  1  0  0  0  0
 16  5  1  0  0  0  0
 18 11  1  0  0  0  0
 25 27  1  0  0  0  0
 25 26  2  0  0  0  0
 27 14  1  0  0  0  0
 28 27  1  0  0  0  0
 29 30  1  0  0  0  0
 29 25  1  0  0  0  0
 31 30  1  0  0  0  0
 32 31  1  0  0  0  0
 33 32  1  0  0  0  0
 34 32  1  0  0  0  0
 34 35  1  0  0  0  0
 35 29  1  0  0  0  0
 36 38  1  0  0  0  0
 36 39  1  0  0  0  0
 37 36  1  0  0  0  0
M  END
>  <minimizedAffinity>
-6.38281584

$$$$

 OpenBabel03252503333D

 39 41  0  0  1  0  0  0  0  0999 V2000
   42.5790   32.1940   42.3760 C   0  0  0  0  0  0  0  0  0  0  0  0
   43.1000   33.4660   42.0030 C   0  0  0  0  0  0  0  0  0  0  0  0
   44.4790   33.6580   42.2190 C   0  0  0  0  0  0  0  0  0  0  0  0
   45.1840   32.6480   42.7470 N   0  0  0  0  0  0  0  0  0  0  0  0
   44.6410   31.4560   43.0850 C   0  0  0  0  0  0  0  0  0  0  0  0
   43.3250   31.2350   42.8930 N   0  0  0  0  0  0  0  0  0  0  0  0
   40.8860   31.6840   40.8310 C   0  0  0  0  0  0  0  0  0  0  0  0
   41.8230   31.7790   39.9670 O   0  0  0  0  0  0  0  0  0  0  0  0
   41.1830   31.9190   42.1880 N   0  0  0  0  0  0  0  0  0  0  0  0
   39.5990   31.3430   40.3500 N   0  0  0  0  0  0  0  0  0  0  0  0
   39.3050   31.4360   38.9090 C   0  0  0  0  0  0  0  0  0  0  0  0
   37.8510   31.7970   38.9030 C   0  0  0  0  0  0  0  0  0  0  0  0
   37.4010   31.7440   40.3340 C   0  0  0  0  0  0  0  0  0  0  0  0
   38.4220   30.8600   41.0120 C   0  0  1  0  0  0  0  0  0  0  0  0
   42.4330   34.2290   41.5760 H   0  0  0  0  0  0  0  0  0  0  0  0
   45.2660   30.6810   43.5080 H   0  0  0  0  0  0  0  0  0  0  0  0
   40.4050   31.8750   42.8900 H   0  0  0  0  0  0  0  0  0  0  0  0
   39.3820   30.3740   38.5560 H   0  0  0  0  0  0  0  0  0  0  0  0
   39.9650   32.1110   38.3740 H   0  0  0  0  0  0  0  0  0  0  0  0
   37.7860   32.8200   38.4700 H   0  0  0  0  0  0  0  0  0  0  0  0
   37.2340   31.1660   38.2310 H   0  0  0  0  0  0  0  0  0  0  0  0
   37.7490   32.7660   40.7250 H   0  0  0  0  0  0  0  0  0  0  0  0
   36.3900   31.7470   40.5750 H   0  0  0  0  0  0  0  0  0  0  0  0
   38.2780   31.0470   42.0660 H   0  0  0  0  0  0  0  0  0  0  0  0
   37.6140   28.5000   41.6390 C   0  0  0  0  0  0  0  0  0  0  0  0
   36.9970   29.1110   42.5260 O   0  0  0  0  0  0  0  0  0  0  0  0
   38.2720   29.4340   40.7450 N   0  0  0  0  0  0  0  0  0  0  0  0
   38.6780   29.0690   39.8280 H   0  0  0  0  0  0  0  0  0  0  0  0
   37.6980   27.1180   41.4740 N   0  0  0  0  0  0  0  0  0  0  0  0
   36.9100   26.5440   40.3990 C   0  0  0  0  0  2  0  0  0  0  0  0
   36.7120   25.0690   40.4970 C   0  0  0  0  0  2  0  0  0  0  0  0
   37.0050   24.5980   41.8910 C   0  0  0  0  0  3  0  0  0  0  0  0
   36.7660   23.5310   42.0510 H   0  0  0  0  0  0  0  0  0  0  0  0
   38.4840   24.8810   42.1250 C   0  0  0  0  0  2  0  0  0  0  0  0
   38.5650   26.3730   42.3880 C   0  0  0  0  0  2  0  0  0  0  0  0
   44.9830   34.9730   41.8270 C   0  0  0  0  0  0  0  0  0  0  0  0
   45.8250   35.4400   42.8290 F   0  0  0  0  0  0  0  0  0  0  0  0
   43.8860   35.8490   41.8390 F   0  0  0  0  0  0  0  0  0  0  0  0
   45.6520   34.9780   40.6430 F   0  0  0  0  0  0  0  0  0  0  0  0
  1  6  1  0  0  0  0
  2  3  1  0  0  0  0
  2  1  2  0  0  0  0
  3  4  2  0  0  0  0
  4  5  1  0  0  0  0
  5 16  1  0  0  0  0
  6  5  2  0  0  0  0
  7  9  1  0  0  0  0
  8  7  2  0  0  0  0
  9  1  1  0  0  0  0
  9 17  1  0  0  0  0
 10  7  1  0  0  0  0
 10 14  1  0  0  0  0
 11 10  1  0  0  0  0
 12 11  1  0  0  0  0
 12 13  1  0  0  0  0
 13 23  1  0  0  0  0
 13 22  1  0  0  0  0
 13 14  1  0  0  0  0
 14 24  1  1  0  0  0
 15  2  1  0  0  0  0
 18 11  1  0  0  0  0
 19 11  1  0  0  0  0
 20 12  1  0  0  0  0
 21 12  1  0  0  0  0
 25 26  2  0  0  0  0
 27 14  1  0  0  0  0
 27 25  1  0  0  0  0
 28 27  1  0  0  0  0
 29 25  1  0  0  0  0
 29 35  1  0  0  0  0
 30 31  1  0  0  0  0
 30 29  1  0  0  0  0
 31 32  1  0  0  0  0
 32 33  1  0  0  0  0
 32 34  1  0  0  0  0
 34 35  1  0  0  0  0
 36 38  1  0  0  0  0
 36  3  1  0  0  0  0
 36 37  1  0  0  0  0
 39 36  1  0  0  0  0
M  END
>  <minimizedAffinity>
-6.23447132

$$$$

 OpenBabel03252503333D

 39 41  0  0  1  0  0  0  0  0999 V2000
   39.2250   31.6130   40.9280 C   0  0  0  0  0  0  0  0  0  0  0  0
   39.1770   32.9700   40.4970 C   0  0  0  0  0  0  0  0  0  0  0  0
   40.3940   33.6770   40.5430 C   0  0  0  0  0  0  0  0  0  0  0  0
   41.4850   33.0330   40.9790 N   0  0  0  0  0  0  0  0  0  0  0  0
   41.4790   31.7400   41.3790 C   0  0  0  0  0  0  0  0  0  0  0  0
   40.3320   31.0300   41.3480 N   0  0  0  0  0  0  0  0  0  0  0  0
   37.6900   30.4330   39.5990 C   0  0  0  0  0  0  0  0  0  0  0  0
   38.4160   30.8360   38.6280 O   0  0  0  0  0  0  0  0  0  0  0  0
   38.0270   30.8230   40.9100 N   0  0  0  0  0  0  0  0  0  0  0  0
   36.5830   29.6100   39.2770 N   0  0  0  0  0  0  0  0  0  0  0  0
   36.1150   29.5210   37.8820 C   0  0  0  0  0  0  0  0  0  0  0  0
   34.6420   29.3050   38.0550 C   0  0  0  0  0  0  0  0  0  0  0  0
   34.4110   29.1500   39.5300 C   0  0  0  0  0  0  0  0  0  0  0  0
   35.7620   28.7480   40.0770 C   0  0  1  0  0  0  0  0  0  0  0  0
   38.2260   33.4040   40.1550 H   0  0  0  0  0  0  0  0  0  0  0  0
   42.3950   31.2790   41.7210 H   0  0  0  0  0  0  0  0  0  0  0  0
   37.4090   30.5190   41.7020 H   0  0  0  0  0  0  0  0  0  0  0  0
   36.5500   28.5520   37.5210 H   0  0  0  0  0  0  0  0  0  0  0  0
   36.4040   30.3710   37.2730 H   0  0  0  0  0  0  0  0  0  0  0  0
   34.1440   30.2080   37.6340 H   0  0  0  0  0  0  0  0  0  0  0  0
   34.2400   28.4590   37.4610 H   0  0  0  0  0  0  0  0  0  0  0  0
   34.3870   30.2440   39.8770 H   0  0  0  0  0  0  0  0  0  0  0  0
   33.5100   28.7810   39.8920 H   0  0  0  0  0  0  0  0  0  0  0  0
   35.6780   28.9130   41.1400 H   0  0  0  0  0  0  0  0  0  0  0  0
   36.9940   26.5770   40.6950 C   0  0  0  0  0  0  0  0  0  0  0  0
   37.1630   27.1590   41.7780 O   0  0  0  0  0  0  0  0  0  0  0  0
   36.1360   27.3600   39.8270 N   0  0  0  0  0  0  0  0  0  0  0  0
   35.7440   26.9070   38.9440 H   0  0  0  0  0  0  0  0  0  0  0  0
   37.5250   25.3450   40.3110 N   0  0  0  0  0  0  0  0  0  0  0  0
   36.6110   24.2190   40.3050 C   0  0  0  0  0  2  0  0  0  0  0  0
   37.2760   22.8830   40.2800 C   0  0  0  0  0  2  0  0  0  0  0  0
   38.7120   23.0120   40.6970 C   0  0  0  0  0  3  0  0  0  0  0  0
   39.2230   22.0390   40.8060 H   0  0  0  0  0  0  0  0  0  0  0  0
   39.3790   23.8790   39.6350 C   0  0  0  0  0  2  0  0  0  0  0  0
   38.9430   25.2960   39.9510 C   0  0  0  0  0  2  0  0  0  0  0  0
   40.3120   35.0660   40.0960 C   0  0  0  0  0  0  0  0  0  0  0  0
   41.0730   35.2040   38.9410 F   0  0  0  0  0  0  0  0  0  0  0  0
   40.9710   35.8440   41.0600 F   0  0  0  0  0  0  0  0  0  0  0  0
   39.0440   35.4930   39.8470 F   0  0  0  0  0  0  0  0  0  0  0  0
  1  6  1  0  0  0  0
  2  3  1  0  0  0  0
  2  1  2  0  0  0  0
  3  4  2  0  0  0  0
  4  5  1  0  0  0  0
  5 16  1  0  0  0  0
  6  5  2  0  0  0  0
  7  9  1  0  0  0  0
  8  7  2  0  0  0  0
  9  1  1  0  0  0  0
  9 17  1  0  0  0  0
 10  7  1  0  0  0  0
 10 14  1  0  0  0  0
 11 12  1  0  0  0  0
 11 10  1  0  0  0  0
 12 13  1  0  0  0  0
 13 22  1  0  0  0  0
 13 23  1  0  0  0  0
 13 14  1  0  0  0  0
 14 24  1  1  0  0  0
 15  2  1  0  0  0  0
 18 11  1  0  0  0  0
 19 11  1  0  0  0  0
 20 12  1  0  0  0  0
 21 12  1  0  0  0  0
 25 26  2  0  0  0  0
 27 14  1  0  0  0  0
 27 25  1  0  0  0  0
 28 27  1  0  0  0  0
 29 25  1  0  0  0  0
 30 29  1  0  0  0  0
 31 30  1  0  0  0  0
 31 32  1  0  0  0  0
 32 33  1  0  0  0  0
 34 35  1  0  0  0  0
 34 32  1  0  0  0  0
 35 29  1  0  0  0  0
 36  3  1  0  0  0  0
 36 38  1  0  0  0  0
 37 36  1  0  0  0  0
 39 36  1  0  0  0  0
M  END
>  <minimizedAffinity>
-6.21703434

$$$$

 OpenBabel03252503333D

 39 41  0  0  1  0  0  0  0  0999 V2000
   39.5090   27.2680   41.2170 C   0  0  0  0  0  0  0  0  0  0  0  0
   38.3720   26.4510   40.9580 C   0  0  0  0  0  0  0  0  0  0  0  0
   38.2630   25.2780   41.7300 C   0  0  0  0  0  0  0  0  0  0  0  0
   39.2190   25.0240   42.6340 N   0  0  0  0  0  0  0  0  0  0  0  0
   40.2830   25.8330   42.8430 C   0  0  0  0  0  0  0  0  0  0  0  0
   40.4210   26.9650   42.1220 N   0  0  0  0  0  0  0  0  0  0  0  0
   38.8200   29.4930   40.9190 C   0  0  0  0  0  0  0  0  0  0  0  0
   37.9840   29.2230   41.8470 O   0  0  0  0  0  0  0  0  0  0  0  0
   39.6930   28.4810   40.4720 N   0  0  0  0  0  0  0  0  0  0  0  0
   38.8050   30.8110   40.4010 N   0  0  0  0  0  0  0  0  0  0  0  0
   37.6620   31.6980   40.6850 C   0  0  0  0  0  0  0  0  0  0  0  0
   37.6000   32.5400   39.4470 C   0  0  0  0  0  0  0  0  0  0  0  0
   38.7940   32.1610   38.6210 C   0  0  0  0  0  0  0  0  0  0  0  0
   39.7520   31.5460   39.6150 C   0  0  1  0  0  0  0  0  0  0  0  0
   37.6430   26.7530   40.1910 H   0  0  0  0  0  0  0  0  0  0  0  0
   41.0200   25.5700   43.5880 H   0  0  0  0  0  0  0  0  0  0  0  0
   40.3540   28.6950   39.6870 H   0  0  0  0  0  0  0  0  0  0  0  0
   38.0380   32.3560   41.5120 H   0  0  0  0  0  0  0  0  0  0  0  0
   36.7530   31.1650   40.9440 H   0  0  0  0  0  0  0  0  0  0  0  0
   36.6360   32.2910   38.9490 H   0  0  0  0  0  0  0  0  0  0  0  0
   37.5400   33.6300   39.6480 H   0  0  0  0  0  0  0  0  0  0  0  0
   38.4230   31.2060   38.1020 H   0  0  0  0  0  0  0  0  0  0  0  0
   39.0940   32.7480   37.8180 H   0  0  0  0  0  0  0  0  0  0  0  0
   40.4700   31.0210   39.0020 H   0  0  0  0  0  0  0  0  0  0  0  0
   41.8270   32.9090   40.2870 C   0  0  0  0  0  0  0  0  0  0  0  0
   42.2500   32.5250   39.1850 O   0  0  0  0  0  0  0  0  0  0  0  0
   40.4470   32.5020   40.4690 N   0  0  0  0  0  0  0  0  0  0  0  0
   39.8890   32.9210   41.2770 H   0  0  0  0  0  0  0  0  0  0  0  0
   42.5300   33.6310   41.2520 N   0  0  0  0  0  0  0  0  0  0  0  0
   42.2000   35.0380   41.3760 C   0  0  0  0  0  2  0  0  0  0  0  0
   43.2140   35.8480   42.1110 C   0  0  0  0  0  2  0  0  0  0  0  0
   44.5210   35.1120   42.1710 C   0  0  0  0  0  3  0  0  0  0  0  0
   45.3400   35.7130   42.6050 H   0  0  0  0  0  0  0  0  0  0  0  0
   44.2540   33.8540   42.9900 C   0  0  0  0  0  2  0  0  0  0  0  0
   43.5290   32.9150   42.0460 C   0  0  0  0  0  2  0  0  0  0  0  0
   37.0850   24.4620   41.4400 C   0  0  0  0  0  0  0  0  0  0  0  0
   36.2050   24.5600   42.5110 F   0  0  0  0  0  0  0  0  0  0  0  0
   37.5080   23.1240   41.4390 F   0  0  0  0  0  0  0  0  0  0  0  0
   36.4370   24.8130   40.2960 F   0  0  0  0  0  0  0  0  0  0  0  0
  1  6  1  0  0  0  0
  2  1  2  0  0  0  0
  2  3  1  0  0  0  0
  3  4  2  0  0  0  0
  4  5  1  0  0  0  0
  5 16  1  0  0  0  0
  6  5  2  0  0  0  0
  7  8  2  0  0  0  0
  9  7  1  0  0  0  0
  9  1  1  0  0  0  0
 10 11  1  0  0  0  0
 10  7  1  0  0  0  0
 11 19  1  0  0  0  0
 11 18  1  0  0  0  0
 12 21  1  0  0  0  0
 12 11  1  0  0  0  0
 13 12  1  0  0  0  0
 13 14  1  0  0  0  0
 14 24  1  6  0  0  0
 14 10  1  0  0  0  0
 14 27  1  0  0  0  0
 15  2  1  0  0  0  0
 17  9  1  0  0  0  0
 20 12  1  0  0  0  0
 22 13  1  0  0  0  0
 23 13  1  0  0  0  0
 25 27  1  0  0  0  0
 25 29  1  0  0  0  0
 26 25  2  0  0  0  0
 27 28  1  0  0  0  0
 29 30  1  0  0  0  0
 29 35  1  0  0  0  0
 30 31  1  0  0  0  0
 31 32  1  0  0  0  0
 32 33  1  0  0  0  0
 32 34  1  0  0  0  0
 35 34  1  0  0  0  0
 36  3  1  0  0  0  0
 36 37  1  0  0  0  0
 38 36  1  0  0  0  0
 39 36  1  0  0  0  0
M  END
>  <minimizedAffinity>
-6.1045332

$$$$

 OpenBabel03252503333D

 39 41  0  0  1  0  0  0  0  0999 V2000
   38.9010   30.0430   39.4070 C   0  0  0  0  0  0  0  0  0  0  0  0
   39.0570   31.3300   39.9970 C   0  0  0  0  0  0  0  0  0  0  0  0
   38.4070   32.3940   39.3420 C   0  0  0  0  0  0  0  0  0  0  0  0
   37.7020   32.1210   38.2360 N   0  0  0  0  0  0  0  0  0  0  0  0
   37.5850   30.8780   37.7140 C   0  0  0  0  0  0  0  0  0  0  0  0
   38.1940   29.8340   38.3130 N   0  0  0  0  0  0  0  0  0  0  0  0
   38.8450   28.4970   41.1740 C   0  0  0  0  0  0  0  0  0  0  0  0
   37.8270   29.1680   41.5580 O   0  0  0  0  0  0  0  0  0  0  0  0
   39.5330   28.9060   40.0140 N   0  0  0  0  0  0  0  0  0  0  0  0
   39.2110   27.3750   41.9570 N   0  0  0  0  0  0  0  0  0  0  0  0
   38.6530   27.2120   43.3120 C   0  0  0  0  0  0  0  0  0  0  0  0
   39.7670   26.5160   44.0320 C   0  0  0  0  0  0  0  0  0  0  0  0
   40.8120   26.2150   42.9980 C   0  0  0  0  0  0  0  0  0  0  0  0
   40.0580   26.2500   41.6880 C   0  0  1  0  0  0  0  0  0  0  0  0
   39.6590   31.4460   40.9110 H   0  0  0  0  0  0  0  0  0  0  0  0
   37.0010   30.7250   36.8170 H   0  0  0  0  0  0  0  0  0  0  0  0
   40.3880   28.3750   39.7210 H   0  0  0  0  0  0  0  0  0  0  0  0
   37.8330   26.4600   43.1690 H   0  0  0  0  0  0  0  0  0  0  0  0
   38.3070   28.1410   43.7530 H   0  0  0  0  0  0  0  0  0  0  0  0
   40.1250   27.2270   44.8110 H   0  0  0  0  0  0  0  0  0  0  0  0
   39.4450   25.6170   44.5970 H   0  0  0  0  0  0  0  0  0  0  0  0
   41.3620   27.2210   42.9240 H   0  0  0  0  0  0  0  0  0  0  0  0
   41.5870   25.5530   43.2000 H   0  0  0  0  0  0  0  0  0  0  0  0
   40.8320   26.3220   40.9380 H   0  0  0  0  0  0  0  0  0  0  0  0
   38.7010   24.7270   40.1210 C   0  0  0  0  0  0  0  0  0  0  0  0
   39.2380   25.4130   39.2370 O   0  0  0  0  0  0  0  0  0  0  0  0
   39.2320   25.0770   41.4250 N   0  0  0  0  0  0  0  0  0  0  0  0
   39.0130   24.4460   42.2570 H   0  0  0  0  0  0  0  0  0  0  0  0
   37.7250   23.7460   39.9480 N   0  0  0  0  0  0  0  0  0  0  0  0
   38.1620   22.3680   40.0680 C   0  0  0  0  0  2  0  0  0  0  0  0
   37.2150   21.3660   39.4990 C   0  0  0  0  0  2  0  0  0  0  0  0
   36.2500   22.0380   38.5670 C   0  0  0  0  0  3  0  0  0  0  0  0
   35.5960   21.3280   38.0290 H   0  0  0  0  0  0  0  0  0  0  0  0
   35.4410   23.0030   39.4250 C   0  0  0  0  0  2  0  0  0  0  0  0
   36.3590   24.1860   39.6630 C   0  0  0  0  0  2  0  0  0  0  0  0
   38.5860   33.7010   39.9720 C   0  0  0  0  0  0  0  0  0  0  0  0
   38.6930   33.5180   41.3460 F   0  0  0  0  0  0  0  0  0  0  0  0
   37.3870   34.4070   39.7930 F   0  0  0  0  0  0  0  0  0  0  0  0
   39.6750   34.3840   39.5270 F   0  0  0  0  0  0  0  0  0  0  0  0
  1  2  1  0  0  0  0
  1  9  1  0  0  0  0
  2 15  1  0  0  0  0
  3 36  1  0  0  0  0
  3  2  2  0  0  0  0
  4  3  1  0  0  0  0
  5  4  2  0  0  0  0
  5  6  1  0  0  0  0
  6  1  2  0  0  0  0
  7  8  2  0  0  0  0
  7 10  1  0  0  0  0
  9  7  1  0  0  0  0
 10 11  1  0  0  0  0
 11 19  1  0  0  0  0
 11 12  1  0  0  0  0
 12 21  1  0  0  0  0
 12 20  1  0  0  0  0
 13 23  1  0  0  0  0
 13 12  1  0  0  0  0
 14 24  1  6  0  0  0
 14 10  1  0  0  0  0
 14 13  1  0  0  0  0
 16  5  1  0  0  0  0
 17  9  1  0  0  0  0
 18 11  1  0  0  0  0
 22 13  1  0  0  0  0
 25 27  1  0  0  0  0
 26 25  2  0  0  0  0
 27 14  1  0  0  0  0
 27 28  1  0  0  0  0
 29 30  1  0  0  0  0
 29 25  1  0  0  0  0
 31 30  1  0  0  0  0
 32 34  1  0  0  0  0
 32 31  1  0  0  0  0
 33 32  1  0  0  0  0
 34 35  1  0  0  0  0
 35 29  1  0  0  0  0
 36 37  1  0  0  0  0
 38 36  1  0  0  0  0
 39 36  1  0  0  0  0
M  END
>  <minimizedAffinity>
-6.03278923

$$$$

 OpenBabel03252503333D

 39 41  0  0  1  0  0  0  0  0999 V2000
   40.1040   30.8570   39.7450 C   0  0  0  0  0  0  0  0  0  0  0  0
   40.3990   32.1020   40.3720 C   0  0  0  0  0  0  0  0  0  0  0  0
   40.5680   33.2040   39.5100 C   0  0  0  0  0  0  0  0  0  0  0  0
   40.4410   33.0020   38.1920 N   0  0  0  0  0  0  0  0  0  0  0  0
   40.1600   31.7970   37.6450 C   0  0  0  0  0  0  0  0  0  0  0  0
   39.9910   30.7190   38.4380 N   0  0  0  0  0  0  0  0  0  0  0  0
   38.6620   29.7020   41.1940 C   0  0  0  0  0  0  0  0  0  0  0  0
   37.8970   30.7130   41.0310 O   0  0  0  0  0  0  0  0  0  0  0  0
   39.9170   29.6860   40.5540 N   0  0  0  0  0  0  0  0  0  0  0  0
   38.1820   28.6570   42.0200 N   0  0  0  0  0  0  0  0  0  0  0  0
   37.0230   28.8900   42.9010 C   0  0  0  0  0  0  0  0  0  0  0  0
   37.3240   27.9960   44.0650 C   0  0  0  0  0  0  0  0  0  0  0  0
   38.5550   27.2220   43.6920 C   0  0  0  0  0  0  0  0  0  0  0  0
   38.5950   27.2930   42.1830 C   0  0  1  0  0  0  0  0  0  0  0  0
   40.4810   32.1600   41.4670 H   0  0  0  0  0  0  0  0  0  0  0  0
   40.0710   31.7020   36.5720 H   0  0  0  0  0  0  0  0  0  0  0  0
   40.5570   28.8720   40.7170 H   0  0  0  0  0  0  0  0  0  0  0  0
   36.1690   28.4260   42.3410 H   0  0  0  0  0  0  0  0  0  0  0  0
   36.8610   29.9380   43.1350 H   0  0  0  0  0  0  0  0  0  0  0  0
   37.4860   28.6660   44.9390 H   0  0  0  0  0  0  0  0  0  0  0  0
   36.4760   27.3450   44.3620 H   0  0  0  0  0  0  0  0  0  0  0  0
   39.3860   27.9760   43.9370 H   0  0  0  0  0  0  0  0  0  0  0  0
   38.8450   26.3870   44.2380 H   0  0  0  0  0  0  0  0  0  0  0  0
   39.6020   26.9980   41.9290 H   0  0  0  0  0  0  0  0  0  0  0  0
   37.8110   25.9290   40.1480 C   0  0  0  0  0  0  0  0  0  0  0  0
   38.9640   26.1520   39.7450 O   0  0  0  0  0  0  0  0  0  0  0  0
   37.6450   26.4190   41.5020 N   0  0  0  0  0  0  0  0  0  0  0  0
   36.7770   26.1300   42.0520 H   0  0  0  0  0  0  0  0  0  0  0  0
   36.7820   25.3010   39.4460 N   0  0  0  0  0  0  0  0  0  0  0  0
   36.4730   23.9370   39.8330 C   0  0  0  0  0  2  0  0  0  0  0  0
   35.6690   23.1770   38.8310 C   0  0  0  0  0  2  0  0  0  0  0  0
   35.7360   23.8540   37.4930 C   0  0  0  0  0  3  0  0  0  0  0  0
   35.2520   23.2740   36.6870 H   0  0  0  0  0  0  0  0  0  0  0  0
   35.0760   25.2150   37.6790 C   0  0  0  0  0  2  0  0  0  0  0  0
   36.1110   26.0620   38.3930 C   0  0  0  0  0  2  0  0  0  0  0  0
   40.8690   34.4660   40.1840 C   0  0  0  0  0  0  0  0  0  0  0  0
   39.7330   34.8850   40.8660 F   0  0  0  0  0  0  0  0  0  0  0  0
   41.0640   35.4270   39.1790 F   0  0  0  0  0  0  0  0  0  0  0  0
   41.9110   34.3930   41.0560 F   0  0  0  0  0  0  0  0  0  0  0  0
  1  2  1  0  0  0  0
  1  9  1  0  0  0  0
  2 15  1  0  0  0  0
  3 36  1  0  0  0  0
  3  2  2  0  0  0  0
  4  3  1  0  0  0  0
  5  4  2  0  0  0  0
  5  6  1  0  0  0  0
  6  1  2  0  0  0  0
  7 10  1  0  0  0  0
  8  7  2  0  0  0  0
  9 17  1  0  0  0  0
  9  7  1  0  0  0  0
 10 14  1  0  0  0  0
 10 11  1  0  0  0  0
 11 19  1  0  0  0  0
 11 12  1  0  0  0  0
 12 21  1  0  0  0  0
 12 20  1  0  0  0  0
 13 22  1  0  0  0  0
 13 12  1  0  0  0  0
 13 23  1  0  0  0  0
 14 24  1  6  0  0  0
 14 13  1  0  0  0  0
 16  5  1  0  0  0  0
 18 11  1  0  0  0  0
 25 27  1  0  0  0  0
 26 25  2  0  0  0  0
 27 28  1  0  0  0  0
 27 14  1  0  0  0  0
 29 30  1  0  0  0  0
 29 25  1  0  0  0  0
 31 30  1  0  0  0  0
 32 34  1  0  0  0  0
 32 31  1  0  0  0  0
 33 32  1  0  0  0  0
 34 35  1  0  0  0  0
 35 29  1  0  0  0  0
 36 37  1  0  0  0  0
 36 39  1  0  0  0  0
 38 36  1  0  0  0  0
M  END
>  <minimizedAffinity>
-6.03175354

$$$$

 OpenBabel03252503333D

 39 41  0  0  1  0  0  0  0  0999 V2000
   37.6180   31.2360   40.4520 C   0  0  0  0  0  0  0  0  0  0  0  0
   37.6780   32.6150   40.1030 C   0  0  0  0  0  0  0  0  0  0  0  0
   38.7760   33.3360   40.6130 C   0  0  0  0  0  0  0  0  0  0  0  0
   39.6660   32.6810   41.3720 N   0  0  0  0  0  0  0  0  0  0  0  0
   39.5640   31.3660   41.6750 C   0  0  0  0  0  0  0  0  0  0  0  0
   38.5260   30.6440   41.2050 N   0  0  0  0  0  0  0  0  0  0  0  0
   36.6900   30.1180   38.6070 C   0  0  0  0  0  0  0  0  0  0  0  0
   37.6960   30.5890   37.9770 O   0  0  0  0  0  0  0  0  0  0  0  0
   36.5300   30.4320   39.9720 N   0  0  0  0  0  0  0  0  0  0  0  0
   35.7950   29.3010   37.8740 N   0  0  0  0  0  0  0  0  0  0  0  0
   35.8510   29.2900   36.4010 C   0  0  0  0  0  0  0  0  0  0  0  0
   34.4190   29.0440   36.0310 C   0  0  0  0  0  0  0  0  0  0  0  0
   33.6900   28.7960   37.3190 C   0  0  0  0  0  0  0  0  0  0  0  0
   34.7750   28.3810   38.2860 C   0  0  1  0  0  0  0  0  0  0  0  0
   36.8930   33.0570   39.4710 H   0  0  0  0  0  0  0  0  0  0  0  0
   40.3160   30.8980   42.2940 H   0  0  0  0  0  0  0  0  0  0  0  0
   35.6850   30.0720   40.4770 H   0  0  0  0  0  0  0  0  0  0  0  0
   36.4180   28.3510   36.1660 H   0  0  0  0  0  0  0  0  0  0  0  0
   36.3060   30.1800   35.9780 H   0  0  0  0  0  0  0  0  0  0  0  0
   34.0710   29.9640   35.5090 H   0  0  0  0  0  0  0  0  0  0  0  0
   34.2810   28.2300   35.2900 H   0  0  0  0  0  0  0  0  0  0  0  0
   33.5080   29.8670   37.6920 H   0  0  0  0  0  0  0  0  0  0  0  0
   32.7320   28.3940   37.3200 H   0  0  0  0  0  0  0  0  0  0  0  0
   34.3170   28.4800   39.2590 H   0  0  0  0  0  0  0  0  0  0  0  0
   36.2000   26.3630   39.0040 C   0  0  0  0  0  0  0  0  0  0  0  0
   36.3410   27.0260   40.0450 O   0  0  0  0  0  0  0  0  0  0  0  0
   35.2610   27.0160   38.1130 N   0  0  0  0  0  0  0  0  0  0  0  0
   34.8900   26.4760   37.2700 H   0  0  0  0  0  0  0  0  0  0  0  0
   36.8260   25.1590   38.6830 N   0  0  0  0  0  0  0  0  0  0  0  0
   36.0110   23.9620   38.7710 C   0  0  0  0  0  2  0  0  0  0  0  0
   36.7860   22.6870   38.8110 C   0  0  0  0  0  2  0  0  0  0  0  0
   38.2140   22.9620   39.1810 C   0  0  0  0  0  3  0  0  0  0  0  0
   38.8080   22.0430   39.3360 H   0  0  0  0  0  0  0  0  0  0  0  0
   38.7830   23.8120   38.0510 C   0  0  0  0  0  2  0  0  0  0  0  0
   38.2340   25.2050   38.2900 C   0  0  0  0  0  2  0  0  0  0  0  0
   38.8090   34.7480   40.2380 C   0  0  0  0  0  0  0  0  0  0  0  0
   39.9420   34.9740   39.4650 F   0  0  0  0  0  0  0  0  0  0  0  0
   39.0230   35.4780   41.4170 F   0  0  0  0  0  0  0  0  0  0  0  0
   37.7110   35.1630   39.5500 F   0  0  0  0  0  0  0  0  0  0  0  0
  1  6  1  0  0  0  0
  2  1  2  0  0  0  0
  2  3  1  0  0  0  0
  3  4  2  0  0  0  0
  4  5  1  0  0  0  0
  5 16  1  0  0  0  0
  6  5  2  0  0  0  0
  7  9  1  0  0  0  0
  8  7  2  0  0  0  0
  9  1  1  0  0  0  0
  9 17  1  0  0  0  0
 10 14  1  0  0  0  0
 10  7  1  0  0  0  0
 11 10  1  0  0  0  0
 12 11  1  0  0  0  0
 12 13  1  0  0  0  0
 13 23  1  0  0  0  0
 13 22  1  0  0  0  0
 13 14  1  0  0  0  0
 14 24  1  1  0  0  0
 15  2  1  0  0  0  0
 18 11  1  0  0  0  0
 19 11  1  0  0  0  0
 20 12  1  0  0  0  0
 21 12  1  0  0  0  0
 25 26  2  0  0  0  0
 27 14  1  0  0  0  0
 27 25  1  0  0  0  0
 28 27  1  0  0  0  0
 29 30  1  0  0  0  0
 29 25  1  0  0  0  0
 30 31  1  0  0  0  0
 31 32  1  0  0  0  0
 32 33  1  0  0  0  0
 34 35  1  0  0  0  0
 34 32  1  0  0  0  0
 35 29  1  0  0  0  0
 36  3  1  0  0  0  0
 36 38  1  0  0  0  0
 37 36  1  0  0  0  0
 39 36  1  0  0  0  0
M  END
>  <minimizedAffinity>
-5.95096445

$$$$
