
 OpenBabel03242512043D

 18 19  0  0  0  0  0  0  0  0999 V2000
   45.4970   36.0750   43.1610 C   0  0  0  0  0  0  0  0  0  0  0  0
   46.3760   34.9960   43.0590 C   0  0  0  0  0  0  0  0  0  0  0  0
   46.3350   34.0450   44.0660 C   0  0  0  0  0  0  0  0  0  0  0  0
   45.4560   34.2070   45.0840 N   0  0  0  0  0  0  0  0  0  0  0  0
   44.6130   35.2630   45.1600 C   0  0  0  0  0  0  0  0  0  0  0  0
   44.6420   36.1990   44.1850 N   0  0  0  0  0  0  0  0  0  0  0  0
   45.5050   36.8350   42.3900 H   0  0  0  0  0  0  0  0  0  0  0  0
   47.0010   33.1840   44.0320 H   0  0  0  0  0  0  0  0  0  0  0  0
   43.9270   35.3530   45.9920 H   0  0  0  0  0  0  0  0  0  0  0  0
   47.2650   34.9120   41.9480 C   0  0  0  0  0  0  0  0  0  0  0  0
   48.4150   35.4110   42.0680 O   0  0  0  0  0  0  0  0  0  0  0  0
   46.8990   34.2900   40.7210 N   0  0  0  0  0  0  0  0  0  0  0  0
   45.5800   33.6970   40.5240 C   0  0  0  0  0  0  0  0  0  0  0  0
   45.5450   32.9570   39.2270 C   0  0  0  0  0  0  0  0  0  0  0  0
   46.7450   32.0660   39.0090 C   0  0  0  0  0  0  0  0  0  0  0  0
   46.7650   31.8210   37.9210 H   0  0  0  0  0  0  0  0  0  0  0  0
   48.0420   32.7270   39.3640 C   0  0  0  0  0  0  0  0  0  0  0  0
   47.8240   34.2190   39.6080 C   0  0  0  0  0  0  0  0  0  0  0  0
  1  6  1  0  0  0  0
  2  1  2  0  0  0  0
  2  3  1  0  0  0  0
  3  4  2  0  0  0  0
  4  5  1  0  0  0  0
  5  9  1  0  0  0  0
  6  5  2  0  0  0  0
  7  1  1  0  0  0  0
  8  3  1  0  0  0  0
 10 11  2  0  0  0  0
 10  2  1  0  0  0  0
 12 10  1  0  0  0  0
 13 12  1  0  0  0  0
 14 13  1  0  0  0  0
 15 14  1  0  0  0  0
 15 17  1  0  0  0  0
 16 15  1  0  0  0  0
 17 18  1  0  0  0  0
 18 12  1  0  0  0  0
M  END
>  <minimizedAffinity>
-4.2009263

>  <minimizedRMSD>
0.587885559

$$$$
