
 OpenBabel03252508503D

 26 28  0  0  0  0  0  0  0  0999 V2000
   45.7920   34.1190   41.0790 C   0  0  0  0  0  0  0  0  0  0  0  0
   46.4220   34.7570   42.1580 C   0  0  0  0  0  0  0  0  0  0  0  0
   47.7730   35.1010   41.9800 C   0  0  0  0  0  0  0  0  0  0  0  0
   48.3790   34.7990   40.7910 N   0  0  0  0  0  0  0  0  0  0  0  0
   47.7300   34.1940   39.8060 C   0  0  0  0  0  0  0  0  0  0  0  0
   46.4340   33.8490   39.9400 N   0  0  0  0  0  0  0  0  0  0  0  0
   48.2580   35.5950   42.8160 H   0  0  0  0  0  0  0  0  0  0  0  0
   48.2020   33.9570   38.8770 H   0  0  0  0  0  0  0  0  0  0  0  0
   45.6870   35.0300   43.3740 C   0  0  0  0  0  0  0  0  0  0  0  0
   45.0430   36.2400   43.6050 C   0  0  0  0  0  0  0  0  0  0  0  0
   44.4840   36.0740   44.8520 C   0  0  0  0  0  0  0  0  0  0  0  0
   44.7680   34.8500   45.3460 N   0  0  0  0  0  0  0  0  0  0  0  0
   45.4930   34.2500   44.4320 N   0  0  0  0  0  0  0  0  0  0  0  0
   44.9950   37.0960   42.9610 H   0  0  0  0  0  0  0  0  0  0  0  0
   43.8920   36.7920   45.4040 H   0  0  0  0  0  0  0  0  0  0  0  0
   44.4810   34.4470   46.2630 H   0  0  0  0  0  0  0  0  0  0  0  0
   44.4680   33.7720   41.2280 O   0  0  0  0  0  0  0  0  0  0  0  0
   43.3880   34.4760   40.7660 C   0  0  0  0  0  0  0  0  0  0  0  0
   43.2980   35.7270   40.5470 O   0  0  0  0  0  0  0  0  0  0  0  0
   42.0500   34.0650   40.3870 N   0  0  0  0  0  0  0  0  0  0  0  0
   41.6890   34.3540   39.0130 C   0  0  0  0  0  0  0  0  0  0  0  0
   40.8390   35.6280   39.0840 C   0  0  0  0  0  0  0  0  0  0  0  0
   40.0230   35.5360   40.3770 C   0  0  0  0  0  0  0  0  0  0  0  0
   40.6190   36.0190   41.1620 H   0  0  0  0  0  0  0  0  0  0  0  0
   39.7210   34.0890   40.7410 C   0  0  0  0  0  0  0  0  0  0  0  0
   41.0210   33.4070   41.1890 C   0  0  0  0  0  0  0  0  0  0  0  0
  1 17  1  0  0  0  0
  1  2  1  0  0  0  0
  2  9  1  0  0  0  0
  3  2  2  0  0  0  0
  3  7  1  0  0  0  0
  4  3  1  0  0  0  0
  5  6  1  0  0  0  0
  5  4  2  0  0  0  0
  6  1  2  0  0  0  0
  8  5  1  0  0  0  0
  9 10  1  0  0  0  0
  9 13  2  0  0  0  0
 10 11  2  0  0  0  0
 11 12  1  0  0  0  0
 11 15  1  0  0  0  0
 12 16  1  0  0  0  0
 13 12  1  0  0  0  0
 14 10  1  0  0  0  0
 18 17  1  0  0  0  0
 19 18  2  0  0  0  0
 20 18  1  0  0  0  0
 20 26  1  0  0  0  0
 21 22  1  0  0  0  0
 21 20  1  0  0  0  0
 22 23  1  0  0  0  0
 23 25  1  0  0  0  0
 23 24  1  0  0  0  0
 25 26  1  0  0  0  0
M  END
>  <minimizedAffinity>
-6.1058774

>  <minimizedRMSD>
0.944740653

$$$$
