
 OpenBabel03252508503D

 26 28  0  0  0  0  0  0  0  0999 V2000
   45.7230   34.0990   41.2010 C   0  0  0  0  0  0  0  0  0  0  0  0
   46.3630   34.6710   42.3100 C   0  0  0  0  0  0  0  0  0  0  0  0
   47.7070   35.0460   42.1320 C   0  0  0  0  0  0  0  0  0  0  0  0
   48.2940   34.8360   40.9150 N   0  0  0  0  0  0  0  0  0  0  0  0
   47.6360   34.2900   39.9030 C   0  0  0  0  0  0  0  0  0  0  0  0
   46.3470   33.9180   40.0350 N   0  0  0  0  0  0  0  0  0  0  0  0
   48.2000   35.4890   42.9920 H   0  0  0  0  0  0  0  0  0  0  0  0
   48.0940   34.1250   38.9510 H   0  0  0  0  0  0  0  0  0  0  0  0
   45.6480   34.8490   43.5540 C   0  0  0  0  0  0  0  0  0  0  0  0
   45.0290   36.0450   43.8990 C   0  0  0  0  0  0  0  0  0  0  0  0
   44.4810   35.7790   45.1340 C   0  0  0  0  0  0  0  0  0  0  0  0
   44.7480   34.5110   45.5140 N   0  0  0  0  0  0  0  0  0  0  0  0
   45.4510   33.9810   44.5420 N   0  0  0  0  0  0  0  0  0  0  0  0
   44.9900   36.9540   43.3340 H   0  0  0  0  0  0  0  0  0  0  0  0
   43.9090   36.4560   45.7550 H   0  0  0  0  0  0  0  0  0  0  0  0
   44.4630   34.0340   46.3960 H   0  0  0  0  0  0  0  0  0  0  0  0
   44.4070   33.7230   41.3480 O   0  0  0  0  0  0  0  0  0  0  0  0
   43.3080   34.4400   40.9550 C   0  0  0  0  0  0  0  0  0  0  0  0
   42.9840   35.6270   41.2840 O   0  0  0  0  0  0  0  0  0  0  0  0
   42.2000   34.1180   40.0790 N   0  0  0  0  0  0  0  0  0  0  0  0
   42.5160   34.1250   38.6660 C   0  0  0  0  0  2  0  0  0  0  0  0
   42.0010   35.4750   38.1500 C   0  0  0  0  0  2  0  0  0  0  0  0
   40.7200   35.7790   38.9300 C   0  0  0  0  0  3  0  0  0  0  0  0
   41.0180   36.3550   39.8170 H   0  0  0  0  0  0  0  0  0  0  0  0
   39.9970   34.5020   39.3320 C   0  0  0  0  0  2  0  0  0  0  0  0
   40.8170   33.7900   40.4170 C   0  0  0  0  0  2  0  0  0  0  0  0
  1 17  1  0  0  0  0
  1  2  1  0  0  0  0
  2  9  1  0  0  0  0
  3  2  2  0  0  0  0
  3  7  1  0  0  0  0
  4  3  1  0  0  0  0
  5  6  1  0  0  0  0
  5  4  2  0  0  0  0
  6  1  2  0  0  0  0
  8  5  1  0  0  0  0
  9 10  1  0  0  0  0
  9 13  2  0  0  0  0
 10 11  2  0  0  0  0
 11 12  1  0  0  0  0
 11 15  1  0  0  0  0
 12 16  1  0  0  0  0
 13 12  1  0  0  0  0
 14 10  1  0  0  0  0
 18 19  2  0  0  0  0
 18 17  1  0  0  0  0
 20 26  1  0  0  0  0
 20 18  1  0  0  0  0
 21 20  1  0  0  0  0
 22 21  1  0  0  0  0
 22 23  1  0  0  0  0
 23 25  1  0  0  0  0
 23 24  1  0  0  0  0
 25 26  1  0  0  0  0
M  END
>  <minimizedAffinity>
-5.8671484

>  <minimizedRMSD>
0.827194035

$$$$
