
 OpenBabel03242512333D

 18 19  0  0  0  0  0  0  0  0999 V2000
   46.3680   34.8850   43.1480 C   0  0  0  0  0  0  0  0  0  0  0  0
   45.4270   35.9300   43.2700 C   0  0  0  0  0  0  0  0  0  0  0  0
   44.6070   35.9550   44.3940 C   0  0  0  0  0  0  0  0  0  0  0  0
   44.7710   34.9580   45.3080 N   0  0  0  0  0  0  0  0  0  0  0  0
   45.6730   33.9810   45.1600 C   0  0  0  0  0  0  0  0  0  0  0  0
   46.4680   33.9410   44.0890 N   0  0  0  0  0  0  0  0  0  0  0  0
   45.2970   36.7160   42.5530 H   0  0  0  0  0  0  0  0  0  0  0  0
   43.8760   36.7430   44.5180 H   0  0  0  0  0  0  0  0  0  0  0  0
   45.7660   33.2160   45.9070 H   0  0  0  0  0  0  0  0  0  0  0  0
   47.1500   34.9650   41.9570 C   0  0  0  0  0  0  0  0  0  0  0  0
   48.2060   35.6650   41.8230 O   0  0  0  0  0  0  0  0  0  0  0  0
   46.8730   34.2690   40.7270 N   0  0  0  0  0  0  0  0  0  0  0  0
   47.9800   34.2630   39.8360 C   0  0  0  0  0  0  0  0  0  0  0  0
   47.8250   33.3470   38.6530 C   0  0  0  0  0  0  0  0  0  0  0  0
   46.3740   33.1910   38.2370 C   0  0  0  0  0  0  0  0  0  0  0  0
   46.3450   32.5520   37.3530 H   0  0  0  0  0  0  0  0  0  0  0  0
   45.6990   32.5580   39.4600 C   0  0  0  0  0  0  0  0  0  0  0  0
   45.6000   33.6710   40.4860 C   0  0  0  0  0  0  0  0  0  0  0  0
  1  2  2  0  0  0  0
  1  6  1  0  0  0  0
  2  3  1  0  0  0  0
  3  8  1  0  0  0  0
  3  4  2  0  0  0  0
  5  4  1  0  0  0  0
  5  9  1  0  0  0  0
  6  5  2  0  0  0  0
  7  2  1  0  0  0  0
 10  1  1  0  0  0  0
 11 10  2  0  0  0  0
 12 10  1  0  0  0  0
 13 12  1  0  0  0  0
 14 13  1  0  0  0  0
 15 14  1  0  0  0  0
 15 17  1  0  0  0  0
 16 15  1  0  0  0  0
 17 18  1  0  0  0  0
 18 12  1  0  0  0  0
M  END
>  <minimizedAffinity>
-4.47041178

>  <minimizedRMSD>
0.36243695

$$$$
