
 OpenBabel03242513113D

 18 19  0  0  0  0  0  0  0  0999 V2000
   44.6110   36.0150   44.5100 C   0  0  0  0  0  0  0  0  0  0  0  0
   45.3490   35.8820   43.3300 C   0  0  0  0  0  0  0  0  0  0  0  0
   46.1770   34.7580   43.2430 C   0  0  0  0  0  0  0  0  0  0  0  0
   46.2050   33.8930   44.2860 N   0  0  0  0  0  0  0  0  0  0  0  0
   45.4830   34.0510   45.4010 C   0  0  0  0  0  0  0  0  0  0  0  0
   44.6800   35.1300   45.5050 N   0  0  0  0  0  0  0  0  0  0  0  0
   43.9490   36.8790   44.6250 H   0  0  0  0  0  0  0  0  0  0  0  0
   45.2770   36.6020   42.5540 H   0  0  0  0  0  0  0  0  0  0  0  0
   46.7740   34.6020   42.3500 H   0  0  0  0  0  0  0  0  0  0  0  0
   45.5130   33.1250   46.5180 C   0  0  0  0  0  0  0  0  0  0  0  0
   44.9930   33.4030   47.6390 O   0  0  0  0  0  0  0  0  0  0  0  0
   46.1440   31.8590   46.3660 N   0  0  0  0  0  0  0  0  0  0  0  0
   47.0340   31.6080   45.2330 C   0  0  0  0  0  2  0  0  0  0  0  0
   47.6060   30.2020   45.3780 C   0  0  0  0  0  2  0  0  0  0  0  0
   48.2480   30.0020   46.7140 C   0  0  0  0  0  3  0  0  0  0  0  0
   48.5480   28.9250   46.7590 H   0  0  0  0  0  0  0  0  0  0  0  0
   47.2540   30.2560   47.8220 C   0  0  0  0  0  2  0  0  0  0  0  0
   45.9280   30.7870   47.3190 C   0  0  0  0  0  2  0  0  0  0  0  0
  1  7  1  0  0  0  0
  1  6  1  0  0  0  0
  2  1  2  0  0  0  0
  3  2  1  0  0  0  0
  3  4  2  0  0  0  0
  4  5  1  0  0  0  0
  5  6  2  0  0  0  0
  5 10  1  0  0  0  0
  8  2  1  0  0  0  0
  9  3  1  0  0  0  0
 10 11  2  0  0  0  0
 12 10  1  0  0  0  0
 12 18  1  0  0  0  0
 13 14  1  0  0  0  0
 13 12  1  0  0  0  0
 14 15  1  0  0  0  0
 15 16  1  0  0  0  0
 15 17  1  0  0  0  0
 18 17  1  0  0  0  0
M  END
>  <minimizedAffinity>
-4.3468585

>  <minimizedRMSD>
0.906849325

$$$$
