
 OpenBabel03242519493D

 48 51  0  0  1  0  0  0  0  0999 V2000
   45.1890   28.7020   48.0210 C   0  0  0  0  0  0  0  0  0  0  0  0
   45.4320   28.5090   49.0250 H   0  0  0  0  0  0  0  0  0  0  0  0
   43.9540   28.7140   48.2190 H   0  0  0  0  0  0  0  0  0  0  0  0
   45.2300   27.5930   46.9620 C   0  0  0  0  0  0  0  0  0  0  0  0
   45.7630   26.7310   47.4140 H   0  0  0  0  0  0  0  0  0  0  0  0
   45.7650   27.8970   46.0730 H   0  0  0  0  0  0  0  0  0  0  0  0
   43.1680   27.9650   45.7320 C   0  0  0  0  0  0  0  0  0  0  0  0
   43.8620   27.1660   46.6560 C   0  0  0  0  0  0  0  0  0  0  0  0
   43.1290   26.1110   47.1460 C   0  0  0  0  0  0  0  0  0  0  0  0
   41.8450   25.8170   46.8010 C   0  0  0  0  0  0  0  0  0  0  0  0
   41.1790   26.6190   45.8880 C   0  0  0  0  0  0  0  0  0  0  0  0
   41.8630   27.7230   45.3390 C   0  0  0  0  0  0  0  0  0  0  0  0
   43.7000   25.5180   47.8570 H   0  0  0  0  0  0  0  0  0  0  0  0
   41.3790   24.9500   47.2650 H   0  0  0  0  0  0  0  0  0  0  0  0
   40.1610   26.3540   45.6410 H   0  0  0  0  0  0  0  0  0  0  0  0
   43.6480   29.0820   45.0790 O   0  0  0  0  0  0  0  0  0  0  0  0
   44.1900   29.7500   45.6110 H   0  0  0  0  0  0  0  0  0  0  0  0
   41.1240   28.4220   44.4690 O   0  0  0  0  0  0  0  0  0  0  0  0
   37.8410   28.2630   40.8710 H   0  0  0  0  0  0  0  0  0  0  0  0
   38.7770   28.6380   41.1590 N   0  0  0  0  0  0  0  0  0  0  0  0
   39.8240   27.6430   41.1650 C   0  0  0  0  0  2  0  0  0  0  0  0
   40.3750   27.3760   42.5250 C   0  0  0  0  0  2  0  0  0  0  0  0
   41.0430   28.6160   43.1290 C   0  0  0  0  0  3  0  0  0  0  0  0
   40.0410   29.7500   42.8850 C   0  0  0  0  0  2  0  0  0  0  0  0
   38.6850   29.2340   42.4800 C   0  0  0  0  0  2  0  0  0  0  0  0
   45.2810   29.9280   47.4990 O   0  0  0  0  0  0  0  0  0  0  0  0
   46.2400   32.0510   47.0100 C   0  0  2  0  0  0  0  0  0  0  0  0
   46.5530   32.1000   45.5820 C   0  0  1  0  0  0  0  0  0  0  0  0
   46.2540   30.7160   45.1280 O   0  0  0  0  0  0  0  0  0  0  0  0
   47.0750   30.0600   46.0350 C   0  0  0  0  0  0  0  0  0  0  0  0
   46.4160   30.6260   47.4170 C   0  0  2  0  0  0  0  0  0  0  0  0
   46.8240   32.7590   47.6180 H   0  0  0  0  0  0  0  0  0  0  0  0
   47.6470   32.1520   45.3750 H   0  0  0  0  0  0  0  0  0  0  0  0
   48.1080   30.3950   46.0130 H   0  0  0  0  0  0  0  0  0  0  0  0
   46.8810   28.9910   46.0090 H   0  0  0  0  0  0  0  0  0  0  0  0
   47.2660   30.3440   48.0620 H   0  0  0  0  0  0  0  0  0  0  0  0
   44.9310   35.2170   44.6100 C   0  0  0  0  0  0  0  0  0  0  0  0
   44.4120   34.9450   43.3500 C   0  0  0  0  0  0  0  0  0  0  0  0
   44.6050   33.6600   42.8090 C   0  0  0  0  0  0  0  0  0  0  0  0
   45.2850   32.7430   43.5330 N   0  0  0  0  0  0  0  0  0  0  0  0
   45.7810   33.0250   44.7560 C   0  0  0  0  0  0  0  0  0  0  0  0
   45.6100   34.2620   45.3060 N   0  0  0  0  0  0  0  0  0  0  0  0
   43.8850   35.7590   42.8640 H   0  0  0  0  0  0  0  0  0  0  0  0
   44.1950   33.4770   41.8370 H   0  0  0  0  0  0  0  0  0  0  0  0
   44.7680   36.4730   45.1950 O   0  0  0  0  0  0  0  0  0  0  0  0
   43.8980   36.9550   45.2840 H   0  0  0  0  0  0  0  0  0  0  0  0
   44.8270   32.3640   47.1780 O   0  0  0  0  0  0  0  0  0  0  0  0
   44.3830   31.6220   46.6960 H   0  0  0  0  0  0  0  0  0  0  0  0
  1  3  1  0  0  0  0
  1  2  1  0  0  0  0
  4  5  1  0  0  0  0
  4  1  1  0  0  0  0
  6  4  1  0  0  0  0
  7  8  1  0  0  0  0
  8  4  1  0  0  0  0
  8  9  2  0  0  0  0
  9 13  1  0  0  0  0
 10  9  1  0  0  0  0
 10 14  1  0  0  0  0
 11 10  2  0  0  0  0
 12  7  2  0  0  0  0
 12 11  1  0  0  0  0
 15 11  1  0  0  0  0
 16 17  1  0  0  0  0
 16  7  1  0  0  0  0
 18 12  1  0  0  0  0
 19 20  1  0  0  0  0
 20 21  1  0  0  0  0
 20 25  1  0  0  0  0
 21 22  1  0  0  0  0
 22 23  1  0  0  0  0
 23 18  1  0  0  0  0
 24 23  1  0  0  0  0
 25 24  1  0  0  0  0
 26  1  1  0  0  0  0
 27 47  1  0  0  0  0
 27 31  1  0  0  0  0
 27 32  1  1  0  0  0
 28 33  1  6  0  0  0
 28 27  1  0  0  0  0
 29 28  1  0  0  0  0
 29 30  1  0  0  0  0
 30 31  1  0  0  0  0
 31 26  1  0  0  0  0
 31 36  1  1  0  0  0
 34 30  1  0  0  0  0
 35 30  1  0  0  0  0
 37 45  1  0  0  0  0
 37 42  1  0  0  0  0
 38 37  2  0  0  0  0
 39 38  1  0  0  0  0
 39 40  2  0  0  0  0
 40 41  1  0  0  0  0
 41 42  2  0  0  0  0
 41 28  1  0  0  0  0
 43 38  1  0  0  0  0
 44 39  1  0  0  0  0
 45 46  1  0  0  0  0
 48 47  1  0  0  0  0
M  END
>  <minimizedAffinity>
-5.5454216

>  <minimizedRMSD>
1.37339568

$$$$
