
 OpenBabel03242519493D

 48 51  0  0  1  0  0  0  0  0999 V2000
   45.1460   29.1600   47.9800 C   0  0  0  0  0  0  0  0  0  0  0  0
   45.2020   29.0060   49.0170 H   0  0  0  0  0  0  0  0  0  0  0  0
   43.8960   29.2140   47.9560 H   0  0  0  0  0  0  0  0  0  0  0  0
   45.3340   28.0050   46.9890 C   0  0  0  0  0  0  0  0  0  0  0  0
   45.9480   27.2340   47.5000 H   0  0  0  0  0  0  0  0  0  0  0  0
   45.8530   28.3150   46.0930 H   0  0  0  0  0  0  0  0  0  0  0  0
   43.2450   28.1110   45.7540 C   0  0  0  0  0  0  0  0  0  0  0  0
   44.0300   27.4110   46.6860 C   0  0  0  0  0  0  0  0  0  0  0  0
   43.4300   26.2790   47.1840 C   0  0  0  0  0  0  0  0  0  0  0  0
   42.1920   25.8270   46.8410 C   0  0  0  0  0  0  0  0  0  0  0  0
   41.4350   26.5330   45.9200 C   0  0  0  0  0  0  0  0  0  0  0  0
   41.9800   27.7080   45.3620 C   0  0  0  0  0  0  0  0  0  0  0  0
   44.0680   25.7660   47.9010 H   0  0  0  0  0  0  0  0  0  0  0  0
   41.8350   24.9130   47.3120 H   0  0  0  0  0  0  0  0  0  0  0  0
   40.4570   26.1440   45.6750 H   0  0  0  0  0  0  0  0  0  0  0  0
   43.5860   29.2720   45.0920 O   0  0  0  0  0  0  0  0  0  0  0  0
   44.0410   30.0060   45.6180 H   0  0  0  0  0  0  0  0  0  0  0  0
   41.1630   28.3030   44.4860 O   0  0  0  0  0  0  0  0  0  0  0  0
   37.8370   28.3220   40.9240 H   0  0  0  0  0  0  0  0  0  0  0  0
   38.7950   28.6450   41.2000 N   0  0  0  0  0  0  0  0  0  0  0  0
   39.7850   27.5930   41.1960 C   0  0  0  0  0  2  0  0  0  0  0  0
   40.3370   27.2980   42.5510 C   0  0  0  0  0  2  0  0  0  0  0  0
   41.0780   28.5000   43.1460 C   0  0  0  0  0  3  0  0  0  0  0  0
   40.1360   29.6880   42.9110 C   0  0  0  0  0  2  0  0  0  0  0  0
   38.7500   29.2450   42.5210 C   0  0  0  0  0  2  0  0  0  0  0  0
   45.3700   30.3590   47.4350 O   0  0  0  0  0  0  0  0  0  0  0  0
   46.2680   32.5580   47.2820 C   0  0  2  0  0  0  0  0  0  0  0  0
   47.0700   32.6470   46.0630 C   0  0  1  0  0  0  0  0  0  0  0  0
   47.0660   31.2490   45.5590 O   0  0  0  0  0  0  0  0  0  0  0  0
   47.5550   30.6530   46.7140 C   0  0  0  0  0  0  0  0  0  0  0  0
   46.3990   31.1480   47.7540 C   0  0  2  0  0  0  0  0  0  0  0  0
   46.5340   33.3060   48.0470 H   0  0  0  0  0  0  0  0  0  0  0  0
   48.1570   32.7910   46.2630 H   0  0  0  0  0  0  0  0  0  0  0  0
   48.4960   31.0710   47.0600 H   0  0  0  0  0  0  0  0  0  0  0  0
   47.4700   29.5720   46.6410 H   0  0  0  0  0  0  0  0  0  0  0  0
   46.9780   30.9300   48.6680 H   0  0  0  0  0  0  0  0  0  0  0  0
   44.9190   35.0800   44.4060 C   0  0  0  0  0  0  0  0  0  0  0  0
   45.5080   35.2550   43.1610 C   0  0  0  0  0  0  0  0  0  0  0  0
   46.6690   34.5180   42.8600 C   0  0  0  0  0  0  0  0  0  0  0  0
   47.1640   33.6720   43.7910 N   0  0  0  0  0  0  0  0  0  0  0  0
   46.5770   33.5150   44.9960 C   0  0  0  0  0  0  0  0  0  0  0  0
   45.4510   34.2170   45.3160 N   0  0  0  0  0  0  0  0  0  0  0  0
   45.0230   35.9610   42.4960 H   0  0  0  0  0  0  0  0  0  0  0  0
   47.1030   34.6710   41.8930 H   0  0  0  0  0  0  0  0  0  0  0  0
   43.7660   35.7850   44.7570 O   0  0  0  0  0  0  0  0  0  0  0  0
   42.9370   35.8370   44.2040 H   0  0  0  0  0  0  0  0  0  0  0  0
   44.8690   32.7530   46.9240 O   0  0  0  0  0  0  0  0  0  0  0  0
   44.6900   31.9820   46.3290 H   0  0  0  0  0  0  0  0  0  0  0  0
  1  2  1  0  0  0  0
  3  1  1  0  0  0  0
  4  5  1  0  0  0  0
  4  1  1  0  0  0  0
  6  4  1  0  0  0  0
  7  8  1  0  0  0  0
  8  4  1  0  0  0  0
  8  9  2  0  0  0  0
  9 13  1  0  0  0  0
 10  9  1  0  0  0  0
 10 14  1  0  0  0  0
 11 10  2  0  0  0  0
 12  7  2  0  0  0  0
 12 11  1  0  0  0  0
 15 11  1  0  0  0  0
 16 17  1  0  0  0  0
 16  7  1  0  0  0  0
 18 12  1  0  0  0  0
 19 20  1  0  0  0  0
 20 25  1  0  0  0  0
 21 20  1  0  0  0  0
 21 22  1  0  0  0  0
 22 23  1  0  0  0  0
 23 18  1  0  0  0  0
 24 23  1  0  0  0  0
 25 24  1  0  0  0  0
 26 31  1  0  0  0  0
 26  1  1  0  0  0  0
 27 31  1  0  0  0  0
 27 32  1  1  0  0  0
 28 33  1  1  0  0  0
 28 27  1  0  0  0  0
 29 28  1  0  0  0  0
 29 30  1  0  0  0  0
 30 34  1  0  0  0  0
 30 31  1  0  0  0  0
 31 36  1  1  0  0  0
 35 30  1  0  0  0  0
 37 45  1  0  0  0  0
 37 42  1  0  0  0  0
 38 37  2  0  0  0  0
 39 38  1  0  0  0  0
 39 40  2  0  0  0  0
 40 41  1  0  0  0  0
 41 42  2  0  0  0  0
 41 28  1  0  0  0  0
 43 38  1  0  0  0  0
 44 39  1  0  0  0  0
 46 45  1  0  0  0  0
 47 27  1  0  0  0  0
 48 47  1  0  0  0  0
M  END
>  <minimizedAffinity>
-6.02250862

>  <minimizedRMSD>
0.971641064

$$$$
