
 OpenBabel03242513113D

 18 19  0  0  0  0  0  0  0  0999 V2000
   45.1300   35.6290   43.5380 C   0  0  0  0  0  0  0  0  0  0  0  0
   46.1600   35.1820   42.7050 C   0  0  0  0  0  0  0  0  0  0  0  0
   46.9600   34.1520   43.2090 C   0  0  0  0  0  0  0  0  0  0  0  0
   46.6860   33.6660   44.4450 N   0  0  0  0  0  0  0  0  0  0  0  0
   45.6890   34.1160   45.2160 C   0  0  0  0  0  0  0  0  0  0  0  0
   44.9080   35.1120   44.7470 N   0  0  0  0  0  0  0  0  0  0  0  0
   44.4770   36.4330   43.1870 H   0  0  0  0  0  0  0  0  0  0  0  0
   46.3170   35.6120   41.7480 H   0  0  0  0  0  0  0  0  0  0  0  0
   47.7760   33.7640   42.6070 H   0  0  0  0  0  0  0  0  0  0  0  0
   45.3960   33.5960   46.5380 C   0  0  0  0  0  0  0  0  0  0  0  0
   44.4990   34.1000   47.2770 O   0  0  0  0  0  0  0  0  0  0  0  0
   46.1310   32.4850   47.0370 N   0  0  0  0  0  0  0  0  0  0  0  0
   47.3650   32.6940   47.7940 C   0  0  0  0  0  2  0  0  0  0  0  0
   47.8800   31.3330   48.2490 C   0  0  0  0  0  2  0  0  0  0  0  0
   46.8350   30.5640   48.9890 C   0  0  0  0  0  3  0  0  0  0  0  0
   47.2740   29.5550   49.1940 H   0  0  0  0  0  0  0  0  0  0  0  0
   45.6110   30.3730   48.1250 C   0  0  0  0  0  2  0  0  0  0  0  0
   45.6860   31.1220   46.8130 C   0  0  0  0  0  2  0  0  0  0  0  0
  1  6  1  0  0  0  0
  2  3  1  0  0  0  0
  2  1  2  0  0  0  0
  3  4  2  0  0  0  0
  4  5  1  0  0  0  0
  5 10  1  0  0  0  0
  6  5  2  0  0  0  0
  7  1  1  0  0  0  0
  8  2  1  0  0  0  0
  9  3  1  0  0  0  0
 10 12  1  0  0  0  0
 10 11  2  0  0  0  0
 12 13  1  0  0  0  0
 13 14  1  0  0  0  0
 14 15  1  0  0  0  0
 15 16  1  0  0  0  0
 17 15  1  0  0  0  0
 18 12  1  0  0  0  0
 18 17  1  0  0  0  0
M  END
>  <minimizedAffinity>
-4.2653966

>  <minimizedRMSD>
1.46097815

$$$$
