
 OpenBabel03242519493D

 48 51  0  0  1  0  0  0  0  0999 V2000
   45.1460   29.1540   47.9590 C   0  0  0  0  0  0  0  0  0  0  0  0
   45.2150   28.9850   48.9930 H   0  0  0  0  0  0  0  0  0  0  0  0
   43.8960   29.2080   47.9510 H   0  0  0  0  0  0  0  0  0  0  0  0
   45.3210   28.0130   46.9490 C   0  0  0  0  0  0  0  0  0  0  0  0
   45.9360   27.2320   47.4440 H   0  0  0  0  0  0  0  0  0  0  0  0
   45.8350   28.3350   46.0540 H   0  0  0  0  0  0  0  0  0  0  0  0
   43.2310   28.1370   45.7180 C   0  0  0  0  0  0  0  0  0  0  0  0
   44.0130   27.4290   46.6470 C   0  0  0  0  0  0  0  0  0  0  0  0
   43.4060   26.2990   47.1420 C   0  0  0  0  0  0  0  0  0  0  0  0
   42.1640   25.8570   46.8000 C   0  0  0  0  0  0  0  0  0  0  0  0
   41.4110   26.5720   45.8830 C   0  0  0  0  0  0  0  0  0  0  0  0
   41.9630   27.7450   45.3270 C   0  0  0  0  0  0  0  0  0  0  0  0
   44.0420   25.7800   47.8560 H   0  0  0  0  0  0  0  0  0  0  0  0
   41.8020   24.9450   47.2680 H   0  0  0  0  0  0  0  0  0  0  0  0
   40.4290   26.1900   45.6380 H   0  0  0  0  0  0  0  0  0  0  0  0
   43.5790   29.2990   45.0590 O   0  0  0  0  0  0  0  0  0  0  0  0
   44.0400   30.0280   45.5870 H   0  0  0  0  0  0  0  0  0  0  0  0
   41.1480   28.3480   44.4550 O   0  0  0  0  0  0  0  0  0  0  0  0
   37.8100   28.2660   40.9040 H   0  0  0  0  0  0  0  0  0  0  0  0
   38.7610   28.6150   41.1760 N   0  0  0  0  0  0  0  0  0  0  0  0
   39.7790   27.5890   41.1730 C   0  0  0  0  0  2  0  0  0  0  0  0
   40.3410   27.3140   42.5270 C   0  0  0  0  0  2  0  0  0  0  0  0
   41.0540   28.5370   43.1150 C   0  0  0  0  0  3  0  0  0  0  0  0
   40.0810   29.6990   42.8770 C   0  0  0  0  0  2  0  0  0  0  0  0
   38.7060   29.2200   42.4950 C   0  0  0  0  0  2  0  0  0  0  0  0
   45.3630   30.3610   47.4280 O   0  0  0  0  0  0  0  0  0  0  0  0
   46.2670   32.5570   47.2790 C   0  0  2  0  0  0  0  0  0  0  0  0
   47.0680   32.6460   46.0590 C   0  0  1  0  0  0  0  0  0  0  0  0
   47.0610   31.2490   45.5530 O   0  0  0  0  0  0  0  0  0  0  0  0
   47.5480   30.6490   46.7070 C   0  0  0  0  0  0  0  0  0  0  0  0
   46.3940   31.1470   47.7480 C   0  0  2  0  0  0  0  0  0  0  0  0
   46.5350   33.3030   48.0440 H   0  0  0  0  0  0  0  0  0  0  0  0
   48.1560   32.7870   46.2590 H   0  0  0  0  0  0  0  0  0  0  0  0
   48.4910   31.0650   47.0530 H   0  0  0  0  0  0  0  0  0  0  0  0
   47.4610   29.5690   46.6320 H   0  0  0  0  0  0  0  0  0  0  0  0
   46.9730   30.9250   48.6610 H   0  0  0  0  0  0  0  0  0  0  0  0
   44.9200   35.0830   44.4050 C   0  0  0  0  0  0  0  0  0  0  0  0
   45.5120   35.2620   43.1610 C   0  0  0  0  0  0  0  0  0  0  0  0
   46.6740   34.5260   42.8600 C   0  0  0  0  0  0  0  0  0  0  0  0
   47.1670   33.6770   43.7900 N   0  0  0  0  0  0  0  0  0  0  0  0
   46.5780   33.5170   44.9940 C   0  0  0  0  0  0  0  0  0  0  0  0
   45.4500   34.2170   45.3130 N   0  0  0  0  0  0  0  0  0  0  0  0
   45.0270   35.9690   42.4970 H   0  0  0  0  0  0  0  0  0  0  0  0
   47.1100   34.6820   41.8950 H   0  0  0  0  0  0  0  0  0  0  0  0
   43.7660   35.7860   44.7560 O   0  0  0  0  0  0  0  0  0  0  0  0
   42.9380   35.8390   44.2010 H   0  0  0  0  0  0  0  0  0  0  0  0
   44.8680   32.7570   46.9220 O   0  0  0  0  0  0  0  0  0  0  0  0
   44.6870   31.9870   46.3250 H   0  0  0  0  0  0  0  0  0  0  0  0
  1  2  1  0  0  0  0
  3  1  1  0  0  0  0
  4  5  1  0  0  0  0
  4  1  1  0  0  0  0
  6  4  1  0  0  0  0
  7  8  1  0  0  0  0
  8  4  1  0  0  0  0
  8  9  2  0  0  0  0
  9 13  1  0  0  0  0
 10  9  1  0  0  0  0
 10 14  1  0  0  0  0
 11 10  2  0  0  0  0
 12  7  2  0  0  0  0
 12 11  1  0  0  0  0
 15 11  1  0  0  0  0
 16 17  1  0  0  0  0
 16  7  1  0  0  0  0
 18 12  1  0  0  0  0
 19 20  1  0  0  0  0
 20 25  1  0  0  0  0
 21 20  1  0  0  0  0
 21 22  1  0  0  0  0
 22 23  1  0  0  0  0
 23 18  1  0  0  0  0
 24 23  1  0  0  0  0
 25 24  1  0  0  0  0
 26 31  1  0  0  0  0
 26  1  1  0  0  0  0
 27 31  1  0  0  0  0
 27 32  1  1  0  0  0
 28 33  1  1  0  0  0
 28 27  1  0  0  0  0
 29 28  1  0  0  0  0
 29 30  1  0  0  0  0
 30 34  1  0  0  0  0
 30 31  1  0  0  0  0
 31 36  1  1  0  0  0
 35 30  1  0  0  0  0
 37 45  1  0  0  0  0
 37 42  1  0  0  0  0
 38 37  2  0  0  0  0
 39 38  1  0  0  0  0
 39 40  2  0  0  0  0
 40 41  1  0  0  0  0
 41 42  2  0  0  0  0
 41 28  1  0  0  0  0
 43 38  1  0  0  0  0
 44 39  1  0  0  0  0
 46 45  1  0  0  0  0
 47 27  1  0  0  0  0
 48 47  1  0  0  0  0
M  END
>  <minimizedAffinity>
-6.02097464

>  <minimizedRMSD>
0.930647552

$$$$
