
 OpenBabel03252502563D

 35 37  0  0  0  0  0  0  0  0999 V2000
   45.5610   29.9240   44.7410 Br  0  0  0  0  0  0  0  0  0  0  0  0
   45.6470   30.5290   46.5780 C   0  0  0  0  0  0  0  0  0  0  0  0
   46.3380   31.6800   46.7800 C   0  0  0  0  0  0  0  0  0  0  0  0
   46.3890   32.1030   48.1160 C   0  0  0  0  0  0  0  0  0  0  0  0
   45.7850   31.4080   49.1530 C   0  0  0  0  0  0  0  0  0  0  0  0
   45.1070   30.2520   48.8550 C   0  0  0  0  0  0  0  0  0  0  0  0
   45.0240   29.7910   47.5620 C   0  0  0  0  0  0  0  0  0  0  0  0
   46.9160   33.0070   48.3770 H   0  0  0  0  0  0  0  0  0  0  0  0
   45.8470   31.7620   50.1610 H   0  0  0  0  0  0  0  0  0  0  0  0
   44.6330   29.7040   49.6580 H   0  0  0  0  0  0  0  0  0  0  0  0
   47.0240   32.5170   45.7900 C   0  0  0  0  0  0  0  0  0  0  0  0
   47.2450   31.8320   44.9200 H   0  0  0  0  0  0  0  0  0  0  0  0
   48.0050   32.8130   46.1750 H   0  0  0  0  0  0  0  0  0  0  0  0
   44.5390   35.2790   45.4810 C   0  0  0  0  0  0  0  0  0  0  0  0
   44.7530   35.7000   44.1640 C   0  0  0  0  0  0  0  0  0  0  0  0
   45.7200   35.0520   43.4160 C   0  0  0  0  0  0  0  0  0  0  0  0
   46.4270   34.0360   43.9740 N   0  0  0  0  0  0  0  0  0  0  0  0
   46.2050   33.6360   45.2640 C   0  0  0  0  0  0  0  0  0  0  0  0
   45.2640   34.2750   45.9730 N   0  0  0  0  0  0  0  0  0  0  0  0
   43.8140   35.7140   46.1470 H   0  0  0  0  0  0  0  0  0  0  0  0
   44.1540   36.5170   43.7820 H   0  0  0  0  0  0  0  0  0  0  0  0
   45.9060   35.3580   42.3950 H   0  0  0  0  0  0  0  0  0  0  0  0
   44.3320   28.6150   47.2670 O   0  0  0  0  0  0  0  0  0  0  0  0
   44.0300   26.0460   47.0810 O   0  0  0  0  0  0  0  0  0  0  0  0
   44.8660   27.0880   47.8200 P   0  0  2  0  0  0  0  0  0  0  0  0
   44.5410   26.9820   49.4530 O   0  0  0  0  0  0  0  0  0  0  0  0
   45.2370   27.4320   50.0060 H   0  0  0  0  0  0  0  0  0  0  0  0
   46.4700   26.8120   47.4820 O   0  0  0  0  0  0  0  0  0  0  0  0
   46.6000   22.6580   48.7140 H   0  0  0  0  0  0  0  0  0  0  0  0
   45.7200   23.1790   48.8020 N   0  0  0  0  0  0  0  0  0  0  0  0
   45.1830   23.6720   47.5490 C   0  0  0  0  0  0  0  0  0  0  0  0
   46.0920   24.6230   46.8360 C   0  0  0  0  0  0  0  0  0  0  0  0
   46.9070   25.5100   47.7060 C   0  0  0  0  0  0  0  0  0  0  0  0
   46.9610   25.1710   49.1500 C   0  0  0  0  0  0  0  0  0  0  0  0
   45.8260   24.3450   49.6580 C   0  0  0  0  0  0  0  0  0  0  0  0
  1  2  1  0  0  0  0
  2  3  2  0  0  0  0
  2  7  1  0  0  0  0
  3  4  1  0  0  0  0
  4  8  1  0  0  0  0
  4  5  2  0  0  0  0
  5  9  1  0  0  0  0
  6  5  1  0  0  0  0
  6 10  1  0  0  0  0
  7  6  2  0  0  0  0
 11 13  1  0  0  0  0
 11  3  1  0  0  0  0
 12 11  1  0  0  0  0
 14 19  1  0  0  0  0
 14 20  1  0  0  0  0
 15 14  2  0  0  0  0
 16 17  2  0  0  0  0
 16 15  1  0  0  0  0
 17 18  1  0  0  0  0
 18 11  1  0  0  0  0
 18 19  2  0  0  0  0
 21 15  1  0  0  0  0
 22 16  1  0  0  0  0
 23  7  1  0  0  0  0
 23 25  1  0  0  0  0
 25 24  2  6  0  0  0
 25 26  1  0  0  0  0
 26 27  1  0  0  0  0
 28 33  1  0  0  0  0
 28 25  1  0  0  0  0
 29 30  1  0  0  0  0
 30 35  1  0  0  0  0
 31 30  1  0  0  0  0
 32 31  1  0  0  0  0
 32 33  1  0  0  0  0
 33 34  1  0  0  0  0
 34 35  1  0  0  0  0
M  END
>  <minimizedAffinity>
-5.64060688

>  <minimizedRMSD>
0.75047332

$$$$
