
 OpenBabel03242523533D

 41 44  0  0  1  0  0  0  0  0999 V2000
   36.7930   30.1130   41.2990 C   0  0  1  0  0  0  0  0  0  0  0  0
   36.4090   28.9860   40.3350 C   0  0  1  0  0  0  0  0  0  0  0  0
   36.6330   29.4170   39.0150 O   0  0  0  0  0  0  0  0  0  0  0  0
   36.3800   30.7790   38.8340 C   0  0  0  0  0  0  0  0  0  0  0  0
   37.4070   31.6320   39.5420 C   0  0  2  0  0  0  0  0  0  0  0  0
   38.0150   30.7690   40.6710 C   0  0  1  0  0  0  0  0  0  0  0  0
   37.0370   29.6680   42.2970 H   0  0  0  0  0  0  0  0  0  0  0  0
   35.3890   28.6230   40.4790 H   0  0  0  0  0  0  0  0  0  0  0  0
   35.3400   31.0680   39.1030 H   0  0  0  0  0  0  0  0  0  0  0  0
   36.4820   30.9560   37.7550 H   0  0  0  0  0  0  0  0  0  0  0  0
   38.1980   32.0040   38.8630 H   0  0  0  0  0  0  0  0  0  0  0  0
   38.5960   30.0090   40.1380 H   0  0  0  0  0  0  0  0  0  0  0  0
   35.7550   31.0370   41.4030 O   0  0  0  0  0  0  0  0  0  0  0  0
   35.2710   30.9090   42.2490 H   0  0  0  0  0  0  0  0  0  0  0  0
   36.7500   32.6640   40.2250 O   0  0  0  0  0  0  0  0  0  0  0  0
   36.3850   33.3450   39.6250 H   0  0  0  0  0  0  0  0  0  0  0  0
   37.3570   27.9750   40.5330 O   0  0  0  0  0  0  0  0  0  0  0  0
   37.0880   26.6820   40.7150 C   0  0  0  0  0  0  0  0  0  0  0  0
   36.5560   25.9070   39.6880 C   0  0  0  0  0  0  0  0  0  0  0  0
   36.2970   24.5650   39.9350 C   0  0  0  0  0  0  0  0  0  0  0  0
   36.5720   24.0350   41.1870 N   0  0  0  0  0  0  0  0  0  0  0  0
   37.0820   24.8150   42.1450 C   0  0  0  0  0  0  0  0  0  0  0  0
   37.3420   26.1250   41.9230 N   0  0  0  0  0  0  0  0  0  0  0  0
   36.3360   26.3010   38.7100 H   0  0  0  0  0  0  0  0  0  0  0  0
   37.2870   24.3740   43.1140 H   0  0  0  0  0  0  0  0  0  0  0  0
   35.7130   23.6900   38.8510 C   0  0  0  0  0  0  0  0  0  0  0  0
   35.8870   22.1970   39.0060 C   0  0  0  0  0  0  0  0  0  0  0  0
   34.5310   22.9130   39.1270 C   0  0  0  0  0  0  0  0  0  0  0  0
   36.0400   24.0350   37.8500 H   0  0  0  0  0  0  0  0  0  0  0  0
   36.0820   21.5620   38.1370 H   0  0  0  0  0  0  0  0  0  0  0  0
   36.2980   21.8930   39.9910 H   0  0  0  0  0  0  0  0  0  0  0  0
   33.8280   22.6210   38.3260 H   0  0  0  0  0  0  0  0  0  0  0  0
   34.0720   22.9950   40.1300 H   0  0  0  0  0  0  0  0  0  0  0  0
   38.7310   31.5440   41.5500 O   0  0  0  0  0  0  0  0  0  0  0  0
   41.9430   33.3290   43.0340 H   0  0  0  0  0  0  0  0  0  0  0  0
   42.4710   32.6350   42.4820 N   0  0  0  0  0  0  0  0  0  0  0  0
   42.1510   32.6470   41.0620 C   0  0  0  0  0  2  0  0  0  0  0  0
   40.6570   32.6660   40.9620 C   0  0  0  0  0  2  0  0  0  0  0  0
   40.0850   31.3660   41.5250 C   0  0  0  0  0  3  0  0  0  0  0  0
   40.6960   30.9650   42.8220 C   0  0  0  0  0  2  0  0  0  0  0  0
   42.1410   31.3230   42.9640 C   0  0  0  0  0  2  0  0  0  0  0  0
  1 13  1  0  0  0  0
  1  7  1  1  0  0  0
  2  8  1  1  0  0  0
  2 17  1  0  0  0  0
  2  1  1  0  0  0  0
  3  2  1  0  0  0  0
  4  3  1  0  0  0  0
  4  9  1  0  0  0  0
  4  5  1  0  0  0  0
  5 11  1  6  0  0  0
  5 15  1  0  0  0  0
  5  6  1  0  0  0  0
  6 12  1  6  0  0  0
  6  1  1  0  0  0  0
  6 34  1  0  0  0  0
 10  4  1  0  0  0  0
 13 14  1  0  0  0  0
 16 15  1  0  0  0  0
 17 18  1  0  0  0  0
 18 23  1  0  0  0  0
 19 20  1  0  0  0  0
 19 18  2  0  0  0  0
 20 21  2  0  0  0  0
 21 22  1  0  0  0  0
 22 25  1  0  0  0  0
 23 22  2  0  0  0  0
 24 19  1  0  0  0  0
 26 27  1  0  0  0  0
 26 28  1  0  0  0  0
 26 20  1  0  0  0  0
 27 28  1  0  0  0  0
 27 31  1  0  0  0  0
 28 33  1  0  0  0  0
 29 26  1  0  0  0  0
 30 27  1  0  0  0  0
 32 28  1  0  0  0  0
 36 41  1  0  0  0  0
 36 35  1  0  0  0  0
 37 36  1  0  0  0  0
 38 37  1  0  0  0  0
 38 39  1  0  0  0  0
 39 34  1  0  0  0  0
 39 40  1  0  0  0  0
 40 41  1  0  0  0  0
M  END
>  <minimizedAffinity>
-6.11820269

$$$$

 OpenBabel03242523533D

 41 44  0  0  1  0  0  0  0  0999 V2000
   38.3340   32.4070   39.4210 C   0  0  1  0  0  0  0  0  0  0  0  0
   37.5740   31.1480   39.8470 C   0  0  1  0  0  0  0  0  0  0  0  0
   38.0560   30.0510   39.1090 O   0  0  0  0  0  0  0  0  0  0  0  0
   38.4280   30.3900   37.8060 C   0  0  0  0  0  0  0  0  0  0  0  0
   39.6680   31.2540   37.7890 C   0  0  2  0  0  0  0  0  0  0  0  0
   39.7610   31.9410   39.1710 C   0  0  1  0  0  0  0  0  0  0  0  0
   38.2900   33.1550   40.2530 H   0  0  0  0  0  0  0  0  0  0  0  0
   36.4890   31.2510   39.7650 H   0  0  0  0  0  0  0  0  0  0  0  0
   37.5970   30.8410   37.2190 H   0  0  0  0  0  0  0  0  0  0  0  0
   38.6740   29.4390   37.3140 H   0  0  0  0  0  0  0  0  0  0  0  0
   40.5890   30.6790   37.5740 H   0  0  0  0  0  0  0  0  0  0  0  0
   39.9960   31.1200   39.8580 H   0  0  0  0  0  0  0  0  0  0  0  0
   37.7910   32.9310   38.2490 O   0  0  0  0  0  0  0  0  0  0  0  0
   37.2390   33.7180   38.4530 H   0  0  0  0  0  0  0  0  0  0  0  0
   39.4720   32.3160   36.8990 O   0  0  0  0  0  0  0  0  0  0  0  0
   39.4800   32.0340   35.9620 H   0  0  0  0  0  0  0  0  0  0  0  0
   37.9770   30.8840   41.1600 O   0  0  0  0  0  0  0  0  0  0  0  0
   37.8950   29.7040   41.7770 C   0  0  0  0  0  0  0  0  0  0  0  0
   39.0090   29.1330   42.3860 C   0  0  0  0  0  0  0  0  0  0  0  0
   38.8650   27.9020   43.0140 C   0  0  0  0  0  0  0  0  0  0  0  0
   37.6260   27.2790   43.0190 N   0  0  0  0  0  0  0  0  0  0  0  0
   36.5820   27.8630   42.4220 C   0  0  0  0  0  0  0  0  0  0  0  0
   36.7040   29.0620   41.8050 N   0  0  0  0  0  0  0  0  0  0  0  0
   39.9800   29.6020   42.3910 H   0  0  0  0  0  0  0  0  0  0  0  0
   35.6250   27.3540   42.4420 H   0  0  0  0  0  0  0  0  0  0  0  0
   40.0500   27.2430   43.6800 C   0  0  0  0  0  0  0  0  0  0  0  0
   40.0880   25.7330   43.6730 C   0  0  0  0  0  0  0  0  0  0  0  0
   41.0590   26.6130   42.8680 C   0  0  0  0  0  0  0  0  0  0  0  0
   40.2010   27.6490   44.7000 H   0  0  0  0  0  0  0  0  0  0  0  0
   40.4610   25.1770   44.5390 H   0  0  0  0  0  0  0  0  0  0  0  0
   39.3080   25.2680   43.0360 H   0  0  0  0  0  0  0  0  0  0  0  0
   42.1040   26.5130   43.2140 H   0  0  0  0  0  0  0  0  0  0  0  0
   40.9440   26.6460   41.7680 H   0  0  0  0  0  0  0  0  0  0  0  0
   40.6760   32.9650   39.1490 O   0  0  0  0  0  0  0  0  0  0  0  0
   42.0370   33.9770   42.7310 H   0  0  0  0  0  0  0  0  0  0  0  0
   42.9090   33.5160   42.4290 N   0  0  0  0  0  0  0  0  0  0  0  0
   43.4640   34.0570   41.1960 C   0  0  0  0  0  2  0  0  0  0  0  0
   42.3270   34.1600   40.2270 C   0  0  0  0  0  2  0  0  0  0  0  0
   41.8040   32.7650   39.8920 C   0  0  0  0  0  3  0  0  0  0  0  0
   41.6290   31.8970   41.0900 C   0  0  0  0  0  2  0  0  0  0  0  0
   42.6280   32.1300   42.1770 C   0  0  0  0  0  2  0  0  0  0  0  0
  1  2  1  0  0  0  0
  1  7  1  1  0  0  0
  2  8  1  6  0  0  0
  2 17  1  0  0  0  0
  3  2  1  0  0  0  0
  4  3  1  0  0  0  0
  5 11  1  6  0  0  0
  5  4  1  0  0  0  0
  5  6  1  0  0  0  0
  6  1  1  0  0  0  0
  6 12  1  1  0  0  0
  9  4  1  0  0  0  0
 10  4  1  0  0  0  0
 13 14  1  0  0  0  0
 13  1  1  0  0  0  0
 15  5  1  0  0  0  0
 16 15  1  0  0  0  0
 17 18  1  0  0  0  0
 18 23  2  0  0  0  0
 18 19  1  0  0  0  0
 19 24  1  0  0  0  0
 19 20  2  0  0  0  0
 20 21  1  0  0  0  0
 20 26  1  0  0  0  0
 22 25  1  0  0  0  0
 22 21  2  0  0  0  0
 23 22  1  0  0  0  0
 26 29  1  0  0  0  0
 27 26  1  0  0  0  0
 27 30  1  0  0  0  0
 28 32  1  0  0  0  0
 28 27  1  0  0  0  0
 28 26  1  0  0  0  0
 31 27  1  0  0  0  0
 33 28  1  0  0  0  0
 34  6  1  0  0  0  0
 34 39  1  0  0  0  0
 36 35  1  0  0  0  0
 37 36  1  0  0  0  0
 38 37  1  0  0  0  0
 39 38  1  0  0  0  0
 39 40  1  0  0  0  0
 40 41  1  0  0  0  0
 41 36  1  0  0  0  0
M  END
>  <minimizedAffinity>
-6.02679777

$$$$

 OpenBabel03242523533D

 41 44  0  0  1  0  0  0  0  0999 V2000
   37.0710   29.9950   41.1000 C   0  0  1  0  0  0  0  0  0  0  0  0
   36.7480   28.9560   40.0220 C   0  0  1  0  0  0  0  0  0  0  0  0
   36.8420   29.5640   38.7570 O   0  0  0  0  0  0  0  0  0  0  0  0
   36.4380   30.9010   38.7620 C   0  0  0  0  0  0  0  0  0  0  0  0
   37.4120   31.7730   39.5210 C   0  0  2  0  0  0  0  0  0  0  0  0
   38.1760   30.8530   40.5010 C   0  0  1  0  0  0  0  0  0  0  0  0
   37.4210   29.4630   42.0210 H   0  0  0  0  0  0  0  0  0  0  0  0
   35.7820   28.4670   40.1690 H   0  0  0  0  0  0  0  0  0  0  0  0
   35.3920   31.0380   39.1160 H   0  0  0  0  0  0  0  0  0  0  0  0
   36.4540   31.2170   37.7100 H   0  0  0  0  0  0  0  0  0  0  0  0
   38.1170   32.3090   38.8560 H   0  0  0  0  0  0  0  0  0  0  0  0
   38.7990   30.2320   39.8490 H   0  0  0  0  0  0  0  0  0  0  0  0
   35.9500   30.7790   41.3710 O   0  0  0  0  0  0  0  0  0  0  0  0
   35.5360   30.4970   42.2160 H   0  0  0  0  0  0  0  0  0  0  0  0
   36.6950   32.6350   40.3590 O   0  0  0  0  0  0  0  0  0  0  0  0
   36.2240   33.3390   39.8680 H   0  0  0  0  0  0  0  0  0  0  0  0
   37.8060   28.0400   40.0450 O   0  0  0  0  0  0  0  0  0  0  0  0
   37.8750   26.9490   40.8080 C   0  0  0  0  0  0  0  0  0  0  0  0
   38.9160   26.7710   41.7160 C   0  0  0  0  0  0  0  0  0  0  0  0
   38.9350   25.6150   42.4860 C   0  0  0  0  0  0  0  0  0  0  0  0
   37.9270   24.6760   42.3330 N   0  0  0  0  0  0  0  0  0  0  0  0
   36.9460   24.8850   41.4480 C   0  0  0  0  0  0  0  0  0  0  0  0
   36.9110   26.0070   40.6900 N   0  0  0  0  0  0  0  0  0  0  0  0
   39.7070   27.4910   41.8480 H   0  0  0  0  0  0  0  0  0  0  0  0
   36.1710   24.1340   41.3500 H   0  0  0  0  0  0  0  0  0  0  0  0
   40.0500   25.3790   43.4770 C   0  0  0  0  0  0  0  0  0  0  0  0
   41.4260   25.1150   42.9120 C   0  0  0  0  0  0  0  0  0  0  0  0
   41.0500   26.3960   43.6750 C   0  0  0  0  0  0  0  0  0  0  0  0
   39.7590   24.6060   44.2170 H   0  0  0  0  0  0  0  0  0  0  0  0
   42.0960   24.3890   43.3820 H   0  0  0  0  0  0  0  0  0  0  0  0
   41.4990   25.2780   41.8170 H   0  0  0  0  0  0  0  0  0  0  0  0
   41.5980   26.4950   44.6290 H   0  0  0  0  0  0  0  0  0  0  0  0
   40.9610   27.3380   43.1010 H   0  0  0  0  0  0  0  0  0  0  0  0
   38.8610   31.5920   41.4350 O   0  0  0  0  0  0  0  0  0  0  0  0
   42.0140   33.2790   43.1440 H   0  0  0  0  0  0  0  0  0  0  0  0
   42.5620   32.6180   42.5720 N   0  0  0  0  0  0  0  0  0  0  0  0
   42.2970   32.7150   41.1440 C   0  0  0  0  0  2  0  0  0  0  0  0
   40.8080   32.7430   40.9890 C   0  0  0  0  0  2  0  0  0  0  0  0
   40.2150   31.4140   41.4510 C   0  0  0  0  0  3  0  0  0  0  0  0
   40.7760   30.9340   42.7440 C   0  0  0  0  0  2  0  0  0  0  0  0
   42.2140   31.2800   42.9620 C   0  0  0  0  0  2  0  0  0  0  0  0
  1 13  1  0  0  0  0
  1  7  1  1  0  0  0
  2 17  1  0  0  0  0
  2  8  1  1  0  0  0
  2  1  1  0  0  0  0
  3  4  1  0  0  0  0
  3  2  1  0  0  0  0
  4  9  1  0  0  0  0
  4  5  1  0  0  0  0
  5 11  1  6  0  0  0
  5 15  1  0  0  0  0
  5  6  1  0  0  0  0
  6 12  1  6  0  0  0
  6  1  1  0  0  0  0
  6 34  1  0  0  0  0
 10  4  1  0  0  0  0
 13 14  1  0  0  0  0
 16 15  1  0  0  0  0
 17 18  1  0  0  0  0
 18 19  1  0  0  0  0
 19 24  1  0  0  0  0
 19 20  2  0  0  0  0
 20 26  1  0  0  0  0
 21 20  1  0  0  0  0
 22 21  2  0  0  0  0
 23 18  2  0  0  0  0
 23 22  1  0  0  0  0
 25 22  1  0  0  0  0
 26 28  1  0  0  0  0
 26 29  1  0  0  0  0
 27 30  1  0  0  0  0
 27 26  1  0  0  0  0
 27 28  1  0  0  0  0
 28 32  1  0  0  0  0
 31 27  1  0  0  0  0
 33 28  1  0  0  0  0
 34 39  1  0  0  0  0
 36 41  1  0  0  0  0
 36 35  1  0  0  0  0
 37 36  1  0  0  0  0
 38 37  1  0  0  0  0
 38 39  1  0  0  0  0
 39 40  1  0  0  0  0
 40 41  1  0  0  0  0
M  END
>  <minimizedAffinity>
-5.99764395

$$$$

 OpenBabel03242523533D

 41 44  0  0  1  0  0  0  0  0999 V2000
   36.0760   29.2390   40.3530 C   0  0  1  0  0  0  0  0  0  0  0  0
   36.6320   30.1480   39.2540 C   0  0  1  0  0  0  0  0  0  0  0  0
   37.8850   30.6430   39.6590 O   0  0  0  0  0  0  0  0  0  0  0  0
   37.9640   30.8690   41.0350 C   0  0  0  0  0  0  0  0  0  0  0  0
   37.9550   29.5730   41.8120 C   0  0  2  0  0  0  0  0  0  0  0  0
   37.2890   28.5080   40.9120 C   0  0  1  0  0  0  0  0  0  0  0  0
   35.3440   28.5250   39.8970 H   0  0  0  0  0  0  0  0  0  0  0  0
   35.9480   30.9510   38.9700 H   0  0  0  0  0  0  0  0  0  0  0  0
   37.1930   31.5820   41.4040 H   0  0  0  0  0  0  0  0  0  0  0  0
   38.9370   31.3520   41.1980 H   0  0  0  0  0  0  0  0  0  0  0  0
   38.9680   29.2490   42.1190 H   0  0  0  0  0  0  0  0  0  0  0  0
   38.0150   28.3520   40.1060 H   0  0  0  0  0  0  0  0  0  0  0  0
   35.4740   29.9990   41.3540 O   0  0  0  0  0  0  0  0  0  0  0  0
   34.4960   29.9600   41.2680 H   0  0  0  0  0  0  0  0  0  0  0  0
   37.0750   29.6950   42.8940 O   0  0  0  0  0  0  0  0  0  0  0  0
   37.4160   30.2830   43.5980 H   0  0  0  0  0  0  0  0  0  0  0  0
   36.9270   29.3060   38.1750 O   0  0  0  0  0  0  0  0  0  0  0  0
   36.2570   29.2550   37.0230 C   0  0  0  0  0  0  0  0  0  0  0  0
   34.8730   29.0990   37.0020 C   0  0  0  0  0  0  0  0  0  0  0  0
   34.2290   29.0540   35.7730 C   0  0  0  0  0  0  0  0  0  0  0  0
   34.9720   29.1650   34.6070 N   0  0  0  0  0  0  0  0  0  0  0  0
   36.2990   29.3130   34.6720 C   0  0  0  0  0  0  0  0  0  0  0  0
   36.9440   29.3590   35.8620 N   0  0  0  0  0  0  0  0  0  0  0  0
   34.2800   29.0120   37.8980 H   0  0  0  0  0  0  0  0  0  0  0  0
   36.8540   29.3970   33.7450 H   0  0  0  0  0  0  0  0  0  0  0  0
   32.7300   28.8780   35.7050 C   0  0  0  0  0  0  0  0  0  0  0  0
   31.9100   29.5620   36.7740 C   0  0  0  0  0  0  0  0  0  0  0  0
   31.9040   29.9850   35.2950 C   0  0  0  0  0  0  0  0  0  0  0  0
   32.4650   27.8060   35.6140 H   0  0  0  0  0  0  0  0  0  0  0  0
   31.0240   29.0790   37.1960 H   0  0  0  0  0  0  0  0  0  0  0  0
   32.4950   30.2550   37.4130 H   0  0  0  0  0  0  0  0  0  0  0  0
   30.9200   29.8300   34.8170 H   0  0  0  0  0  0  0  0  0  0  0  0
   32.3990   30.9360   35.0220 H   0  0  0  0  0  0  0  0  0  0  0  0
   36.9660   27.3860   41.6350 O   0  0  0  0  0  0  0  0  0  0  0  0
   37.5660   23.8070   43.2280 H   0  0  0  0  0  0  0  0  0  0  0  0
   38.2780   23.6990   42.4900 N   0  0  0  0  0  0  0  0  0  0  0  0
   39.2940   24.7410   42.4950 C   0  0  0  0  0  2  0  0  0  0  0  0
   38.5660   26.0450   42.6120 C   0  0  0  0  0  2  0  0  0  0  0  0
   37.7140   26.2750   41.3660 C   0  0  0  0  0  3  0  0  0  0  0  0
   36.9390   25.0740   40.9490 C   0  0  0  0  0  2  0  0  0  0  0  0
   37.6250   23.7710   41.2120 C   0  0  0  0  0  2  0  0  0  0  0  0
  1  7  1  6  0  0  0
  1  6  1  0  0  0  0
  1 13  1  0  0  0  0
  2  8  1  6  0  0  0
  2  3  1  0  0  0  0
  2  1  1  0  0  0  0
  3  4  1  0  0  0  0
  4 10  1  0  0  0  0
  4  9  1  0  0  0  0
  4  5  1  0  0  0  0
  5 11  1  1  0  0  0
  5 15  1  0  0  0  0
  6 12  1  6  0  0  0
  6 34  1  0  0  0  0
  6  5  1  0  0  0  0
 14 13  1  0  0  0  0
 15 16  1  0  0  0  0
 17  2  1  0  0  0  0
 18 17  1  0  0  0  0
 19 18  1  0  0  0  0
 19 24  1  0  0  0  0
 20 19  2  0  0  0  0
 21 22  2  0  0  0  0
 21 20  1  0  0  0  0
 22 23  1  0  0  0  0
 23 18  2  0  0  0  0
 25 22  1  0  0  0  0
 26 20  1  0  0  0  0
 26 27  1  0  0  0  0
 27 30  1  0  0  0  0
 27 31  1  0  0  0  0
 28 26  1  0  0  0  0
 28 27  1  0  0  0  0
 29 26  1  0  0  0  0
 32 28  1  0  0  0  0
 33 28  1  0  0  0  0
 36 37  1  0  0  0  0
 36 35  1  0  0  0  0
 37 38  1  0  0  0  0
 39 34  1  0  0  0  0
 39 38  1  0  0  0  0
 40 41  1  0  0  0  0
 40 39  1  0  0  0  0
 41 36  1  0  0  0  0
M  END
>  <minimizedAffinity>
-5.77227211

$$$$

 OpenBabel03242523533D

 41 44  0  0  1  0  0  0  0  0999 V2000
   39.4730   30.6620   40.0770 C   0  0  1  0  0  0  0  0  0  0  0  0
   40.4460   30.8850   41.2390 C   0  0  1  0  0  0  0  0  0  0  0  0
   40.7770   32.2500   41.3030 O   0  0  0  0  0  0  0  0  0  0  0  0
   40.8390   32.8570   40.0460 C   0  0  0  0  0  0  0  0  0  0  0  0
   39.4700   32.9710   39.4160 C   0  0  2  0  0  0  0  0  0  0  0  0
   38.5780   31.8930   40.0710 C   0  0  1  0  0  0  0  0  0  0  0  0
   38.8840   29.7300   40.2730 H   0  0  0  0  0  0  0  0  0  0  0  0
   41.3340   30.2510   41.1860 H   0  0  0  0  0  0  0  0  0  0  0  0
   41.5730   32.3720   39.3650 H   0  0  0  0  0  0  0  0  0  0  0  0
   41.2110   33.8740   40.2290 H   0  0  0  0  0  0  0  0  0  0  0  0
   39.0240   33.9770   39.5380 H   0  0  0  0  0  0  0  0  0  0  0  0
   38.4480   32.2470   41.1000 H   0  0  0  0  0  0  0  0  0  0  0  0
   40.1680   30.5700   38.8730 O   0  0  0  0  0  0  0  0  0  0  0  0
   40.2270   29.6320   38.5860 H   0  0  0  0  0  0  0  0  0  0  0  0
   39.5500   32.5730   38.0770 O   0  0  0  0  0  0  0  0  0  0  0  0
   40.0220   33.2200   37.5140 H   0  0  0  0  0  0  0  0  0  0  0  0
   39.7070   30.6540   42.4060 O   0  0  0  0  0  0  0  0  0  0  0  0
   39.2360   29.4730   42.8070 C   0  0  0  0  0  0  0  0  0  0  0  0
   40.0820   28.3800   42.9710 C   0  0  0  0  0  0  0  0  0  0  0  0
   39.5360   27.1740   43.3920 C   0  0  0  0  0  0  0  0  0  0  0  0
   38.1740   27.0900   43.6380 N   0  0  0  0  0  0  0  0  0  0  0  0
   37.3970   28.1650   43.4670 C   0  0  0  0  0  0  0  0  0  0  0  0
   37.9120   29.3480   43.0580 N   0  0  0  0  0  0  0  0  0  0  0  0
   41.1430   28.4270   42.7840 H   0  0  0  0  0  0  0  0  0  0  0  0
   36.3350   28.0710   43.6670 H   0  0  0  0  0  0  0  0  0  0  0  0
   40.4170   25.9610   43.5750 C   0  0  0  0  0  0  0  0  0  0  0  0
   39.8210   24.6200   43.2150 C   0  0  0  0  0  0  0  0  0  0  0  0
   40.9510   25.2920   42.4170 C   0  0  0  0  0  0  0  0  0  0  0  0
   40.8610   25.9490   44.5910 H   0  0  0  0  0  0  0  0  0  0  0  0
   40.0430   23.7300   43.8120 H   0  0  0  0  0  0  0  0  0  0  0  0
   38.8390   24.6890   42.7040 H   0  0  0  0  0  0  0  0  0  0  0  0
   41.8950   24.7200   42.4600 H   0  0  0  0  0  0  0  0  0  0  0  0
   40.7110   25.7010   41.4170 H   0  0  0  0  0  0  0  0  0  0  0  0
   37.4150   31.7190   39.3600 O   0  0  0  0  0  0  0  0  0  0  0  0
   33.8740   29.9700   39.0320 H   0  0  0  0  0  0  0  0  0  0  0  0
   34.3930   29.0950   39.2010 N   0  0  0  0  0  0  0  0  0  0  0  0
   35.1580   29.0940   40.4410 C   0  0  0  0  0  2  0  0  0  0  0  0
   35.8990   30.3950   40.4830 C   0  0  0  0  0  2  0  0  0  0  0  0
   36.9170   30.4480   39.3460 C   0  0  0  0  0  3  0  0  0  0  0  0
   36.3640   29.9980   38.0380 C   0  0  0  0  0  2  0  0  0  0  0  0
   35.3410   28.9130   38.1370 C   0  0  0  0  0  2  0  0  0  0  0  0
  1  7  1  1  0  0  0
  1  2  1  0  0  0  0
  2  8  1  6  0  0  0
  2  3  1  0  0  0  0
  2 17  1  0  0  0  0
  4 10  1  0  0  0  0
  4  3  1  0  0  0  0
  5 11  1  1  0  0  0
  5  4  1  0  0  0  0
  5  6  1  0  0  0  0
  6  1  1  0  0  0  0
  6 12  1  1  0  0  0
  9  4  1  0  0  0  0
 13  1  1  0  0  0  0
 14 13  1  0  0  0  0
 15  5  1  0  0  0  0
 16 15  1  0  0  0  0
 17 18  1  0  0  0  0
 18 19  2  0  0  0  0
 18 23  1  0  0  0  0
 19 20  1  0  0  0  0
 20 26  1  0  0  0  0
 20 21  2  0  0  0  0
 22 21  1  0  0  0  0
 22 25  1  0  0  0  0
 23 22  2  0  0  0  0
 24 19  1  0  0  0  0
 26 29  1  0  0  0  0
 27 26  1  0  0  0  0
 27 30  1  0  0  0  0
 28 32  1  0  0  0  0
 28 27  1  0  0  0  0
 28 26  1  0  0  0  0
 31 27  1  0  0  0  0
 33 28  1  0  0  0  0
 34  6  1  0  0  0  0
 35 36  1  0  0  0  0
 36 37  1  0  0  0  0
 37 38  1  0  0  0  0
 39 34  1  0  0  0  0
 39 38  1  0  0  0  0
 40 41  1  0  0  0  0
 40 39  1  0  0  0  0
 41 36  1  0  0  0  0
M  END
>  <minimizedAffinity>
-5.75214863

$$$$

 OpenBabel03242523533D

 41 44  0  0  1  0  0  0  0  0999 V2000
   36.0470   28.4790   40.7970 C   0  0  1  0  0  0  0  0  0  0  0  0
   36.2160   28.1400   39.3140 C   0  0  1  0  0  0  0  0  0  0  0  0
   36.7070   29.2720   38.6380 O   0  0  0  0  0  0  0  0  0  0  0  0
   36.2220   30.4730   39.1610 C   0  0  0  0  0  0  0  0  0  0  0  0
   36.7870   30.7490   40.5350 C   0  0  2  0  0  0  0  0  0  0  0  0
   37.2200   29.3900   41.1290 C   0  0  1  0  0  0  0  0  0  0  0  0
   36.0860   27.5310   41.3920 H   0  0  0  0  0  0  0  0  0  0  0  0
   35.3030   27.7530   38.8530 H   0  0  0  0  0  0  0  0  0  0  0  0
   35.1110   30.5370   39.1440 H   0  0  0  0  0  0  0  0  0  0  0  0
   36.5880   31.2570   38.4830 H   0  0  0  0  0  0  0  0  0  0  0  0
   37.6370   31.4580   40.5150 H   0  0  0  0  0  0  0  0  0  0  0  0
   38.0830   29.0990   40.5200 H   0  0  0  0  0  0  0  0  0  0  0  0
   34.8450   29.1520   41.0080 O   0  0  0  0  0  0  0  0  0  0  0  0
   34.1790   28.5430   41.3990 H   0  0  0  0  0  0  0  0  0  0  0  0
   35.7510   31.1690   41.3770 O   0  0  0  0  0  0  0  0  0  0  0  0
   35.4310   32.0710   41.1690 H   0  0  0  0  0  0  0  0  0  0  0  0
   37.2660   27.2170   39.2490 O   0  0  0  0  0  0  0  0  0  0  0  0
   37.2180   25.9530   39.6720 C   0  0  0  0  0  0  0  0  0  0  0  0
   36.2800   25.0600   39.1610 C   0  0  0  0  0  0  0  0  0  0  0  0
   36.2780   23.7550   39.6380 C   0  0  0  0  0  0  0  0  0  0  0  0
   37.2000   23.3780   40.6020 N   0  0  0  0  0  0  0  0  0  0  0  0
   38.0820   24.2680   41.0670 C   0  0  0  0  0  0  0  0  0  0  0  0
   38.1000   25.5440   40.6130 N   0  0  0  0  0  0  0  0  0  0  0  0
   35.5560   25.3350   38.4110 H   0  0  0  0  0  0  0  0  0  0  0  0
   38.7920   23.9460   41.8200 H   0  0  0  0  0  0  0  0  0  0  0  0
   35.2720   22.7550   39.1150 C   0  0  0  0  0  0  0  0  0  0  0  0
   33.8820   22.8090   39.7050 C   0  0  0  0  0  0  0  0  0  0  0  0
   34.2080   23.2040   38.2540 C   0  0  0  0  0  0  0  0  0  0  0  0
   35.6880   21.7280   39.1480 H   0  0  0  0  0  0  0  0  0  0  0  0
   33.3180   21.8910   39.8960 H   0  0  0  0  0  0  0  0  0  0  0  0
   33.7050   23.6890   40.3560 H   0  0  0  0  0  0  0  0  0  0  0  0
   33.7340   22.5310   37.5180 H   0  0  0  0  0  0  0  0  0  0  0  0
   34.1690   24.2760   37.9840 H   0  0  0  0  0  0  0  0  0  0  0  0
   37.4640   29.4990   42.4760 O   0  0  0  0  0  0  0  0  0  0  0  0
   39.8180   26.4230   41.6380 H   0  0  0  0  0  0  0  0  0  0  0  0
   40.3910   26.7650   42.4250 N   0  0  0  0  0  0  0  0  0  0  0  0
   39.6610   26.8760   43.6800 C   0  0  0  0  0  2  0  0  0  0  0  0
   38.3760   27.5760   43.3630 C   0  0  0  0  0  2  0  0  0  0  0  0
   38.6640   29.0030   42.9010 C   0  0  0  0  0  3  0  0  0  0  0  0
   39.7720   29.0900   41.9100 C   0  0  0  0  0  2  0  0  0  0  0  0
   40.8610   28.0850   42.1070 C   0  0  0  0  0  2  0  0  0  0  0  0
  1 13  1  0  0  0  0
  1  6  1  0  0  0  0
  1  7  1  1  0  0  0
  2  8  1  6  0  0  0
  2  1  1  0  0  0  0
  3  4  1  0  0  0  0
  3  2  1  0  0  0  0
  4  5  1  0  0  0  0
  5 11  1  6  0  0  0
  5  6  1  0  0  0  0
  5 15  1  0  0  0  0
  6 12  1  6  0  0  0
  6 34  1  0  0  0  0
  9  4  1  0  0  0  0
 10  4  1  0  0  0  0
 13 14  1  0  0  0  0
 16 15  1  0  0  0  0
 17  2  1  0  0  0  0
 17 18  1  0  0  0  0
 18 23  1  0  0  0  0
 19 20  1  0  0  0  0
 19 18  2  0  0  0  0
 20 21  2  0  0  0  0
 21 22  1  0  0  0  0
 22 25  1  0  0  0  0
 23 22  2  0  0  0  0
 24 19  1  0  0  0  0
 26 29  1  0  0  0  0
 26 20  1  0  0  0  0
 26 27  1  0  0  0  0
 27 30  1  0  0  0  0
 27 31  1  0  0  0  0
 28 26  1  0  0  0  0
 28 27  1  0  0  0  0
 32 28  1  0  0  0  0
 33 28  1  0  0  0  0
 34 39  1  0  0  0  0
 35 36  1  0  0  0  0
 36 37  1  0  0  0  0
 38 37  1  0  0  0  0
 39 38  1  0  0  0  0
 40 41  1  0  0  0  0
 40 39  1  0  0  0  0
 41 36  1  0  0  0  0
M  END
>  <minimizedAffinity>
-5.73275471

$$$$

 OpenBabel03242523533D

 41 44  0  0  1  0  0  0  0  0999 V2000
   40.0160   30.4460   38.6540 C   0  0  1  0  0  0  0  0  0  0  0  0
   41.0550   30.5900   39.7700 C   0  0  1  0  0  0  0  0  0  0  0  0
   41.5320   31.9140   39.7820 O   0  0  0  0  0  0  0  0  0  0  0  0
   41.6060   32.4800   38.5070 C   0  0  0  0  0  0  0  0  0  0  0  0
   40.2320   32.7260   37.9280 C   0  0  2  0  0  0  0  0  0  0  0  0
   39.2580   31.7660   38.6480 C   0  0  1  0  0  0  0  0  0  0  0  0
   39.3390   29.5880   38.8990 H   0  0  0  0  0  0  0  0  0  0  0  0
   41.8670   29.8640   39.7010 H   0  0  0  0  0  0  0  0  0  0  0  0
   42.2550   31.9020   37.8120 H   0  0  0  0  0  0  0  0  0  0  0  0
   42.0920   33.4550   38.6470 H   0  0  0  0  0  0  0  0  0  0  0  0
   39.9020   33.7760   38.0390 H   0  0  0  0  0  0  0  0  0  0  0  0
   39.2100   32.1560   39.6700 H   0  0  0  0  0  0  0  0  0  0  0  0
   40.6460   30.2510   37.4260 O   0  0  0  0  0  0  0  0  0  0  0  0
   40.5930   29.3060   37.1640 H   0  0  0  0  0  0  0  0  0  0  0  0
   40.2130   32.2890   36.5980 O   0  0  0  0  0  0  0  0  0  0  0  0
   40.7270   32.8670   36.0000 H   0  0  0  0  0  0  0  0  0  0  0  0
   40.3450   30.4690   40.9710 O   0  0  0  0  0  0  0  0  0  0  0  0
   40.4140   29.4380   41.8140 C   0  0  0  0  0  0  0  0  0  0  0  0
   39.2790   28.7000   42.1390 C   0  0  0  0  0  0  0  0  0  0  0  0
   39.4100   27.6360   43.0220 C   0  0  0  0  0  0  0  0  0  0  0  0
   40.6560   27.3370   43.5520 N   0  0  0  0  0  0  0  0  0  0  0  0
   41.7200   28.0720   43.2130 C   0  0  0  0  0  0  0  0  0  0  0  0
   41.6110   29.1130   42.3540 N   0  0  0  0  0  0  0  0  0  0  0  0
   38.3030   28.9170   41.7370 H   0  0  0  0  0  0  0  0  0  0  0  0
   42.6820   27.8160   43.6430 H   0  0  0  0  0  0  0  0  0  0  0  0
   38.2030   26.8130   43.4090 C   0  0  0  0  0  0  0  0  0  0  0  0
   36.9200   27.5640   43.6770 C   0  0  0  0  0  0  0  0  0  0  0  0
   37.1300   26.6430   42.4640 C   0  0  0  0  0  0  0  0  0  0  0  0
   38.4500   26.1210   44.2390 H   0  0  0  0  0  0  0  0  0  0  0  0
   36.2430   27.2490   44.4770 H   0  0  0  0  0  0  0  0  0  0  0  0
   36.9640   28.6390   43.4080 H   0  0  0  0  0  0  0  0  0  0  0  0
   36.4690   25.7570   42.4870 H   0  0  0  0  0  0  0  0  0  0  0  0
   37.2300   27.1090   41.4650 H   0  0  0  0  0  0  0  0  0  0  0  0
   38.0550   31.7020   37.9880 O   0  0  0  0  0  0  0  0  0  0  0  0
   36.9300   29.0230   40.6840 H   0  0  0  0  0  0  0  0  0  0  0  0
   36.0280   29.5230   40.6700 N   0  0  0  0  0  0  0  0  0  0  0  0
   35.4230   29.6090   39.3480 C   0  0  0  0  0  2  0  0  0  0  0  0
   36.5070   30.0470   38.4120 C   0  0  0  0  0  2  0  0  0  0  0  0
   36.9640   31.4580   38.7730 C   0  0  0  0  0  3  0  0  0  0  0  0
   37.1770   31.6550   40.2340 C   0  0  0  0  0  2  0  0  0  0  0  0
   36.2480   30.8740   41.1070 C   0  0  0  0  0  2  0  0  0  0  0  0
  1  7  1  1  0  0  0
  1  2  1  0  0  0  0
  2  8  1  6  0  0  0
  2  3  1  0  0  0  0
  2 17  1  0  0  0  0
  4 10  1  0  0  0  0
  4  3  1  0  0  0  0
  5 11  1  1  0  0  0
  5  4  1  0  0  0  0
  5  6  1  0  0  0  0
  6  1  1  0  0  0  0
  6 12  1  1  0  0  0
  9  4  1  0  0  0  0
 13  1  1  0  0  0  0
 14 13  1  0  0  0  0
 15  5  1  0  0  0  0
 16 15  1  0  0  0  0
 17 18  1  0  0  0  0
 18 19  2  0  0  0  0
 18 23  1  0  0  0  0
 19 20  1  0  0  0  0
 20 26  1  0  0  0  0
 20 21  2  0  0  0  0
 22 21  1  0  0  0  0
 22 25  1  0  0  0  0
 23 22  2  0  0  0  0
 24 19  1  0  0  0  0
 26 27  1  0  0  0  0
 26 29  1  0  0  0  0
 27 30  1  0  0  0  0
 28 32  1  0  0  0  0
 28 26  1  0  0  0  0
 28 27  1  0  0  0  0
 31 27  1  0  0  0  0
 33 28  1  0  0  0  0
 34  6  1  0  0  0  0
 34 39  1  0  0  0  0
 36 35  1  0  0  0  0
 36 41  1  0  0  0  0
 37 36  1  0  0  0  0
 38 39  1  0  0  0  0
 38 37  1  0  0  0  0
 39 40  1  0  0  0  0
 40 41  1  0  0  0  0
M  END
>  <minimizedAffinity>
-5.63243246

$$$$

 OpenBabel03242523533D

 41 44  0  0  1  0  0  0  0  0999 V2000
   37.4600   31.4560   40.3220 C   0  0  1  0  0  0  0  0  0  0  0  0
   37.6680   31.3240   38.8110 C   0  0  1  0  0  0  0  0  0  0  0  0
   38.9010   31.9060   38.4660 O   0  0  0  0  0  0  0  0  0  0  0  0
   39.2180   33.0190   39.2490 C   0  0  0  0  0  0  0  0  0  0  0  0
   39.5290   32.6250   40.6740 C   0  0  2  0  0  0  0  0  0  0  0  0
   38.8440   31.2640   40.9290 C   0  0  1  0  0  0  0  0  0  0  0  0
   36.7520   30.6580   40.6610 H   0  0  0  0  0  0  0  0  0  0  0  0
   36.8440   31.7360   38.2240 H   0  0  0  0  0  0  0  0  0  0  0  0
   38.4500   33.8220   39.1960 H   0  0  0  0  0  0  0  0  0  0  0  0
   40.1340   33.4370   38.8080 H   0  0  0  0  0  0  0  0  0  0  0  0
   40.6160   32.5600   40.8740 H   0  0  0  0  0  0  0  0  0  0  0  0
   39.4120   30.5620   40.3090 H   0  0  0  0  0  0  0  0  0  0  0  0
   36.9730   32.7230   40.6370 O   0  0  0  0  0  0  0  0  0  0  0  0
   36.0110   32.6780   40.8290 H   0  0  0  0  0  0  0  0  0  0  0  0
   38.8700   33.5010   41.5440 O   0  0  0  0  0  0  0  0  0  0  0  0
   39.2640   34.3970   41.5530 H   0  0  0  0  0  0  0  0  0  0  0  0
   37.8520   29.9580   38.5680 O   0  0  0  0  0  0  0  0  0  0  0  0
   37.5610   29.3240   37.4320 C   0  0  0  0  0  0  0  0  0  0  0  0
   36.9050   29.9780   36.3920 C   0  0  0  0  0  0  0  0  0  0  0  0
   36.6290   29.2670   35.2310 C   0  0  0  0  0  0  0  0  0  0  0  0
   37.0090   27.9370   35.1360 N   0  0  0  0  0  0  0  0  0  0  0  0
   37.6370   27.3480   36.1590 C   0  0  0  0  0  0  0  0  0  0  0  0
   37.9150   28.0250   37.2980 N   0  0  0  0  0  0  0  0  0  0  0  0
   36.6020   31.0110   36.4470 H   0  0  0  0  0  0  0  0  0  0  0  0
   37.9230   26.3070   36.0580 H   0  0  0  0  0  0  0  0  0  0  0  0
   35.9120   29.9360   34.0810 C   0  0  0  0  0  0  0  0  0  0  0  0
   36.3630   31.3300   33.7100 C   0  0  0  0  0  0  0  0  0  0  0  0
   36.5890   30.0960   32.8200 C   0  0  0  0  0  0  0  0  0  0  0  0
   34.8140   29.8890   34.2240 H   0  0  0  0  0  0  0  0  0  0  0  0
   35.6390   32.0890   33.3980 H   0  0  0  0  0  0  0  0  0  0  0  0
   37.2870   31.6550   34.2290 H   0  0  0  0  0  0  0  0  0  0  0  0
   36.0350   30.1570   31.8660 H   0  0  0  0  0  0  0  0  0  0  0  0
   37.6190   29.7040   32.7240 H   0  0  0  0  0  0  0  0  0  0  0  0
   38.8160   30.9710   42.2700 O   0  0  0  0  0  0  0  0  0  0  0  0
   37.7480   27.2440   41.4480 H   0  0  0  0  0  0  0  0  0  0  0  0
   38.4670   26.9820   42.1400 N   0  0  0  0  0  0  0  0  0  0  0  0
   38.2700   27.5850   43.4510 C   0  0  0  0  0  2  0  0  0  0  0  0
   37.9880   29.0370   43.2130 C   0  0  0  0  0  2  0  0  0  0  0  0
   39.2180   29.7090   42.6070 C   0  0  0  0  0  3  0  0  0  0  0  0
   39.8360   28.9250   41.5030 C   0  0  0  0  0  2  0  0  0  0  0  0
   39.7440   27.4420   41.6680 C   0  0  0  0  0  2  0  0  0  0  0  0
  1 13  1  0  0  0  0
  1  7  1  1  0  0  0
  1  6  1  0  0  0  0
  2  8  1  6  0  0  0
  2  1  1  0  0  0  0
  3  2  1  0  0  0  0
  3  4  1  0  0  0  0
  4  5  1  0  0  0  0
  5 11  1  1  0  0  0
  5  6  1  0  0  0  0
  5 15  1  0  0  0  0
  6 12  1  6  0  0  0
  6 34  1  0  0  0  0
  9  4  1  0  0  0  0
 10  4  1  0  0  0  0
 13 14  1  0  0  0  0
 15 16  1  0  0  0  0
 17  2  1  0  0  0  0
 18 17  1  0  0  0  0
 19 24  1  0  0  0  0
 19 18  2  0  0  0  0
 20 19  1  0  0  0  0
 21 20  2  0  0  0  0
 21 22  1  0  0  0  0
 22 23  2  0  0  0  0
 23 18  1  0  0  0  0
 25 22  1  0  0  0  0
 26 29  1  0  0  0  0
 26 20  1  0  0  0  0
 27 26  1  0  0  0  0
 27 31  1  0  0  0  0
 28 27  1  0  0  0  0
 28 26  1  0  0  0  0
 30 27  1  0  0  0  0
 32 28  1  0  0  0  0
 33 28  1  0  0  0  0
 34 39  1  0  0  0  0
 35 36  1  0  0  0  0
 36 37  1  0  0  0  0
 38 37  1  0  0  0  0
 39 38  1  0  0  0  0
 40 41  1  0  0  0  0
 40 39  1  0  0  0  0
 41 36  1  0  0  0  0
M  END
>  <minimizedAffinity>
-5.61972141

$$$$

 OpenBabel03242523533D

 41 44  0  0  1  0  0  0  0  0999 V2000
   37.8250   28.2570   37.0270 C   0  0  1  0  0  0  0  0  0  0  0  0
   37.5600   26.8240   37.4970 C   0  0  1  0  0  0  0  0  0  0  0  0
   38.7400   26.2990   38.0550 O   0  0  0  0  0  0  0  0  0  0  0  0
   39.8960   26.7590   37.4200 C   0  0  0  0  0  0  0  0  0  0  0  0
   40.1340   28.2270   37.6930 C   0  0  2  0  0  0  0  0  0  0  0  0
   38.7680   28.8450   38.0680 C   0  0  1  0  0  0  0  0  0  0  0  0
   36.8540   28.8130   36.9960 H   0  0  0  0  0  0  0  0  0  0  0  0
   37.1580   26.1800   36.7120 H   0  0  0  0  0  0  0  0  0  0  0  0
   39.9160   26.5280   36.3320 H   0  0  0  0  0  0  0  0  0  0  0  0
   40.7240   26.1950   37.8720 H   0  0  0  0  0  0  0  0  0  0  0  0
   40.8760   28.3990   38.4950 H   0  0  0  0  0  0  0  0  0  0  0  0
   38.5400   28.4070   39.0460 H   0  0  0  0  0  0  0  0  0  0  0  0
   38.4390   28.2520   35.7760 O   0  0  0  0  0  0  0  0  0  0  0  0
   37.7870   28.4820   35.0780 H   0  0  0  0  0  0  0  0  0  0  0  0
   40.4730   28.8640   36.4940 O   0  0  0  0  0  0  0  0  0  0  0  0
   41.3690   28.6300   36.1780 H   0  0  0  0  0  0  0  0  0  0  0  0
   36.6850   26.9340   38.5840 O   0  0  0  0  0  0  0  0  0  0  0  0
   36.8170   26.3110   39.7550 C   0  0  0  0  0  0  0  0  0  0  0  0
   37.2420   26.9970   40.8900 C   0  0  0  0  0  0  0  0  0  0  0  0
   37.3600   26.2970   42.0840 C   0  0  0  0  0  0  0  0  0  0  0  0
   37.0550   24.9450   42.1160 N   0  0  0  0  0  0  0  0  0  0  0  0
   36.6510   24.3240   41.0030 C   0  0  0  0  0  0  0  0  0  0  0  0
   36.5290   24.9910   39.8300 N   0  0  0  0  0  0  0  0  0  0  0  0
   37.4830   28.0480   40.8830 H   0  0  0  0  0  0  0  0  0  0  0  0
   36.4200   23.2670   41.0570 H   0  0  0  0  0  0  0  0  0  0  0  0
   37.8260   27.0020   43.3370 C   0  0  0  0  0  0  0  0  0  0  0  0
   38.8070   28.1370   43.1600 C   0  0  0  0  0  0  0  0  0  0  0  0
   37.3520   28.3320   43.6200 C   0  0  0  0  0  0  0  0  0  0  0  0
   38.1830   26.2690   44.0880 H   0  0  0  0  0  0  0  0  0  0  0  0
   39.6190   28.2920   43.8770 H   0  0  0  0  0  0  0  0  0  0  0  0
   38.9630   28.4350   42.1040 H   0  0  0  0  0  0  0  0  0  0  0  0
   37.2830   28.7170   44.6530 H   0  0  0  0  0  0  0  0  0  0  0  0
   36.6390   28.7960   42.9120 H   0  0  0  0  0  0  0  0  0  0  0  0
   38.8260   30.2170   38.0400 O   0  0  0  0  0  0  0  0  0  0  0  0
   36.2640   32.8980   39.4380 H   0  0  0  0  0  0  0  0  0  0  0  0
   36.8160   32.8370   40.3080 N   0  0  0  0  0  0  0  0  0  0  0  0
   38.2320   33.1230   40.1270 C   0  0  0  0  0  2  0  0  0  0  0  0
   38.6750   32.3380   38.9320 C   0  0  0  0  0  2  0  0  0  0  0  0
   38.5690   30.8430   39.2270 C   0  0  0  0  0  3  0  0  0  0  0  0
   37.2870   30.4600   39.8810 C   0  0  0  0  0  2  0  0  0  0  0  0
   36.7310   31.4920   40.8080 C   0  0  0  0  0  2  0  0  0  0  0  0
  1  7  1  6  0  0  0
  1  2  1  0  0  0  0
  1  6  1  0  0  0  0
  2  8  1  6  0  0  0
  2  3  1  0  0  0  0
  2 17  1  0  0  0  0
  4  5  1  0  0  0  0
  4 10  1  0  0  0  0
  4  3  1  0  0  0  0
  5  6  1  0  0  0  0
  5 11  1  1  0  0  0
  6 12  1  1  0  0  0
  9  4  1  0  0  0  0
 13  1  1  0  0  0  0
 14 13  1  0  0  0  0
 15  5  1  0  0  0  0
 16 15  1  0  0  0  0
 17 18  1  0  0  0  0
 18 23  2  0  0  0  0
 18 19  1  0  0  0  0
 19 20  2  0  0  0  0
 20 21  1  0  0  0  0
 20 26  1  0  0  0  0
 22 25  1  0  0  0  0
 22 21  2  0  0  0  0
 23 22  1  0  0  0  0
 24 19  1  0  0  0  0
 26 28  1  0  0  0  0
 26 29  1  0  0  0  0
 27 26  1  0  0  0  0
 27 28  1  0  0  0  0
 27 30  1  0  0  0  0
 28 32  1  0  0  0  0
 31 27  1  0  0  0  0
 33 28  1  0  0  0  0
 34  6  1  0  0  0  0
 34 39  1  0  0  0  0
 35 36  1  0  0  0  0
 36 41  1  0  0  0  0
 37 36  1  0  0  0  0
 38 39  1  0  0  0  0
 38 37  1  0  0  0  0
 39 40  1  0  0  0  0
 40 41  1  0  0  0  0
M  END
>  <minimizedAffinity>
-5.55914974

$$$$
