
 OpenBabel03252503343D

 20 21  0  0  0  0  0  0  0  0999 V2000
   46.5240   33.8340   40.9050 C   0  0  0  0  0  0  0  0  0  0  0  0
   45.2520   33.6930   40.9290 O   0  0  0  0  0  0  0  0  0  0  0  0
   47.0470   34.3640   42.1150 N   0  0  0  0  0  0  0  0  0  0  0  0
   48.0690   34.5070   42.2040 H   0  0  0  0  0  0  0  0  0  0  0  0
   47.3220   33.4910   39.7760 N   0  0  0  0  0  0  0  0  0  0  0  0
   47.3450   32.1560   39.2760 C   0  0  0  0  0  2  0  0  0  0  0  0
   47.7670   32.0060   37.8570 C   0  0  0  0  0  2  0  0  0  0  0  0
   48.9430   32.9230   37.6000 C   0  0  0  0  0  3  0  0  0  0  0  0
   49.4100   32.7510   36.6000 H   0  0  0  0  0  0  0  0  0  0  0  0
   48.4110   34.3330   37.7340 C   0  0  0  0  0  2  0  0  0  0  0  0
   48.0960   34.5670   39.1790 C   0  0  0  0  0  2  0  0  0  0  0  0
   44.6590   36.1390   44.3460 C   0  0  0  0  0  0  0  0  0  0  0  0
   45.4500   35.8710   43.2200 C   0  0  0  0  0  0  0  0  0  0  0  0
   46.2150   34.7100   43.2210 C   0  0  0  0  0  0  0  0  0  0  0  0
   46.1790   33.8740   44.2950 N   0  0  0  0  0  0  0  0  0  0  0  0
   45.3990   34.1660   45.3690 C   0  0  0  0  0  0  0  0  0  0  0  0
   44.6470   35.2860   45.3970 N   0  0  0  0  0  0  0  0  0  0  0  0
   44.0780   37.0540   44.3050 H   0  0  0  0  0  0  0  0  0  0  0  0
   45.5070   36.5080   42.3480 H   0  0  0  0  0  0  0  0  0  0  0  0
   45.4020   33.4750   46.1970 H   0  0  0  0  0  0  0  0  0  0  0  0
  1  2  2  0  0  0  0
  1  3  1  0  0  0  0
  3  4  1  0  0  0  0
  3 14  1  0  0  0  0
  5  1  1  0  0  0  0
  6  5  1  0  0  0  0
  7  6  1  0  0  0  0
  8 10  1  0  0  0  0
  8  7  1  0  0  0  0
  9  8  1  0  0  0  0
 10 11  1  0  0  0  0
 11  5  1  0  0  0  0
 12 17  1  0  0  0  0
 13 14  1  0  0  0  0
 13 12  2  0  0  0  0
 14 15  2  0  0  0  0
 15 16  1  0  0  0  0
 16 17  2  0  0  0  0
 16 20  1  0  0  0  0
 18 12  1  0  0  0  0
 19 13  1  0  0  0  0
M  END
>  <minimizedAffinity>
-4.3571806

>  <minimizedRMSD>
0.636473477

$$$$
