
 OpenBabel03242523503D

 41 44  0  0  1  0  0  0  0  0999 V2000
   42.8020   34.4870   38.7040 C   0  0  1  0  0  0  0  0  0  0  0  0
   42.9870   35.1790   40.0570 C   0  0  1  0  0  0  0  0  0  0  0  0
   41.7220   35.5010   40.5830 O   0  0  0  0  0  0  0  0  0  0  0  0
   40.7930   35.8470   39.5990 C   0  0  0  0  0  0  0  0  0  0  0  0
   40.4060   34.6530   38.7570 C   0  0  2  0  0  0  0  0  0  0  0  0
   41.5570   33.6270   38.8680 C   0  0  1  0  0  0  0  0  0  0  0  0
   43.7050   33.8600   38.4920 H   0  0  0  0  0  0  0  0  0  0  0  0
   43.6440   36.0510   40.0100 H   0  0  0  0  0  0  0  0  0  0  0  0
   41.1200   36.7090   38.9760 H   0  0  0  0  0  0  0  0  0  0  0  0
   39.8990   36.1780   40.1430 H   0  0  0  0  0  0  0  0  0  0  0  0
   39.4450   34.2010   39.0690 H   0  0  0  0  0  0  0  0  0  0  0  0
   41.4970   33.2760   39.9040 H   0  0  0  0  0  0  0  0  0  0  0  0
   42.6020   35.4310   37.6990 O   0  0  0  0  0  0  0  0  0  0  0  0
   43.4230   35.5440   37.1710 H   0  0  0  0  0  0  0  0  0  0  0  0
   40.4170   35.0250   37.4070 O   0  0  0  0  0  0  0  0  0  0  0  0
   39.6740   35.6160   37.1690 H   0  0  0  0  0  0  0  0  0  0  0  0
   43.4810   34.1980   40.9240 O   0  0  0  0  0  0  0  0  0  0  0  0
   44.5800   34.3030   41.6730 C   0  0  0  0  0  0  0  0  0  0  0  0
   45.8370   34.4300   41.0890 C   0  0  0  0  0  0  0  0  0  0  0  0
   46.9460   34.5360   41.9180 C   0  0  0  0  0  0  0  0  0  0  0  0
   46.7760   34.5150   43.2940 N   0  0  0  0  0  0  0  0  0  0  0  0
   45.5500   34.3910   43.8130 C   0  0  0  0  0  0  0  0  0  0  0  0
   44.4570   34.2860   43.0200 N   0  0  0  0  0  0  0  0  0  0  0  0
   45.9890   34.4480   40.0220 H   0  0  0  0  0  0  0  0  0  0  0  0
   45.4460   34.3770   44.8920 H   0  0  0  0  0  0  0  0  0  0  0  0
   48.3300   34.6680   41.3250 C   0  0  0  0  0  0  0  0  0  0  0  0
   49.0350   35.9910   41.5170 C   0  0  0  0  0  0  0  0  0  0  0  0
   49.4760   34.6840   42.1970 C   0  0  0  0  0  0  0  0  0  0  0  0
   48.3320   34.3570   40.2610 H   0  0  0  0  0  0  0  0  0  0  0  0
   49.6550   36.4160   40.7210 H   0  0  0  0  0  0  0  0  0  0  0  0
   48.5150   36.6790   42.2130 H   0  0  0  0  0  0  0  0  0  0  0  0
   50.4710   34.3460   41.8560 H   0  0  0  0  0  0  0  0  0  0  0  0
   49.3080   34.5810   43.2860 H   0  0  0  0  0  0  0  0  0  0  0  0
   41.4370   32.6500   37.9100 O   0  0  0  0  0  0  0  0  0  0  0  0
   38.5240   31.7010   40.4240 H   0  0  0  0  0  0  0  0  0  0  0  0
   38.7250   30.7280   40.1460 N   0  0  0  0  0  0  0  0  0  0  0  0
   40.1090   30.3290   40.3600 C   0  0  0  0  0  0  0  0  0  0  0  0
   40.9600   31.4310   39.8070 C   0  0  0  0  0  0  0  0  0  0  0  0
   40.7650   31.5250   38.2950 C   0  0  0  0  0  0  0  0  0  0  0  0
   39.3360   31.4670   37.8790 C   0  0  0  0  0  0  0  0  0  0  0  0
   38.4750   30.5960   38.7370 C   0  0  0  0  0  0  0  0  0  0  0  0
  1  7  1  6  0  0  0
  1  6  1  0  0  0  0
  1  2  1  0  0  0  0
  2  8  1  6  0  0  0
  2  3  1  0  0  0  0
  2 17  1  0  0  0  0
  4 10  1  0  0  0  0
  4  3  1  0  0  0  0
  5  6  1  0  0  0  0
  5 11  1  1  0  0  0
  5  4  1  0  0  0  0
  6 12  1  1  0  0  0
  9  4  1  0  0  0  0
 13  1  1  0  0  0  0
 14 13  1  0  0  0  0
 15  5  1  0  0  0  0
 16 15  1  0  0  0  0
 17 18  1  0  0  0  0
 18 23  1  0  0  0  0
 19 18  2  0  0  0  0
 19 20  1  0  0  0  0
 20 21  2  0  0  0  0
 21 22  1  0  0  0  0
 22 25  1  0  0  0  0
 23 22  2  0  0  0  0
 24 19  1  0  0  0  0
 26 27  1  0  0  0  0
 26 20  1  0  0  0  0
 26 28  1  0  0  0  0
 27 28  1  0  0  0  0
 27 31  1  0  0  0  0
 28 33  1  0  0  0  0
 29 26  1  0  0  0  0
 30 27  1  0  0  0  0
 32 28  1  0  0  0  0
 34 39  1  0  0  0  0
 34  6  1  0  0  0  0
 36 37  1  0  0  0  0
 36 35  1  0  0  0  0
 38 37  1  0  0  0  0
 39 38  1  0  0  0  0
 40 39  1  0  0  0  0
 40 41  1  0  0  0  0
 41 36  1  0  0  0  0
M  END
>  <minimizedAffinity>
-6.20469809

>  <minimizedRMSD>
0.79027617

$$$$
