
 OpenBabel03252503343D

 20 21  0  0  0  0  0  0  0  0999 V2000
   46.0080   33.8970   40.6210 C   0  0  0  0  0  0  0  0  0  0  0  0
   44.7360   34.0220   40.7040 O   0  0  0  0  0  0  0  0  0  0  0  0
   46.6790   34.2390   41.8250 N   0  0  0  0  0  0  0  0  0  0  0  0
   47.7110   34.1620   41.8690 H   0  0  0  0  0  0  0  0  0  0  0  0
   46.6700   33.4590   39.4380 N   0  0  0  0  0  0  0  0  0  0  0  0
   47.8370   34.1290   38.9640 C   0  0  0  0  0  2  0  0  0  0  0  0
   48.7200   33.3300   38.0720 C   0  0  0  0  0  2  0  0  0  0  0  0
   47.8590   32.5520   37.1030 C   0  0  0  0  0  3  0  0  0  0  0  0
   48.4560   32.0510   36.3050 H   0  0  0  0  0  0  0  0  0  0  0  0
   47.0890   31.5510   37.9380 C   0  0  0  0  0  2  0  0  0  0  0  0
   46.0930   32.3120   38.7590 C   0  0  0  0  0  2  0  0  0  0  0  0
   44.7130   36.3050   44.2120 C   0  0  0  0  0  0  0  0  0  0  0  0
   45.3760   35.9380   43.0330 C   0  0  0  0  0  0  0  0  0  0  0  0
   45.9840   34.6890   42.9870 C   0  0  0  0  0  0  0  0  0  0  0  0
   45.9220   33.8630   44.0680 N   0  0  0  0  0  0  0  0  0  0  0  0
   45.2690   34.2530   45.1960 C   0  0  0  0  0  0  0  0  0  0  0  0
   44.6700   35.4600   45.2690 N   0  0  0  0  0  0  0  0  0  0  0  0
   44.2530   37.2870   44.2070 H   0  0  0  0  0  0  0  0  0  0  0  0
   45.4480   36.5630   42.1540 H   0  0  0  0  0  0  0  0  0  0  0  0
   45.2450   33.5660   46.0270 H   0  0  0  0  0  0  0  0  0  0  0  0
  1  2  2  0  0  0  0
  1  3  1  0  0  0  0
  3  4  1  0  0  0  0
  3 14  1  0  0  0  0
  5  1  1  0  0  0  0
  6  5  1  0  0  0  0
  7  6  1  0  0  0  0
  8 10  1  0  0  0  0
  8  7  1  0  0  0  0
  9  8  1  0  0  0  0
 10 11  1  0  0  0  0
 11  5  1  0  0  0  0
 12 17  1  0  0  0  0
 13 12  2  0  0  0  0
 14 13  1  0  0  0  0
 14 15  2  0  0  0  0
 15 16  1  0  0  0  0
 16 17  2  0  0  0  0
 16 20  1  0  0  0  0
 18 12  1  0  0  0  0
 19 13  1  0  0  0  0
M  END
>  <minimizedAffinity>
-4.05958939

>  <minimizedRMSD>
0.884036303

$$$$
