
 OpenBabel03252503343D

 20 21  0  0  0  0  0  0  0  0999 V2000
   46.8930   33.5230   41.0960 C   0  0  0  0  0  0  0  0  0  0  0  0
   45.7500   32.9710   41.2680 O   0  0  0  0  0  0  0  0  0  0  0  0
   47.2170   34.4580   42.1130 N   0  0  0  0  0  0  0  0  0  0  0  0
   48.1260   34.9530   42.0750 H   0  0  0  0  0  0  0  0  0  0  0  0
   47.7420   33.2200   39.9930 N   0  0  0  0  0  0  0  0  0  0  0  0
   48.9040   32.4100   40.1670 C   0  0  0  0  0  2  0  0  0  0  0  0
   49.4150   31.7430   38.9380 C   0  0  0  0  0  2  0  0  0  0  0  0
   49.3510   32.7260   37.7900 C   0  0  0  0  0  3  0  0  0  0  0  0
   49.8610   32.3470   36.8720 H   0  0  0  0  0  0  0  0  0  0  0  0
   47.8820   32.9910   37.5450 C   0  0  0  0  0  2  0  0  0  0  0  0
   47.3590   33.7780   38.7070 C   0  0  0  0  0  2  0  0  0  0  0  0
   44.6350   36.0520   44.2640 C   0  0  0  0  0  0  0  0  0  0  0  0
   45.4710   35.8370   43.1600 C   0  0  0  0  0  0  0  0  0  0  0  0
   46.3340   34.7470   43.1960 C   0  0  0  0  0  0  0  0  0  0  0  0
   46.3480   33.9280   44.2840 N   0  0  0  0  0  0  0  0  0  0  0  0
   45.5230   34.1680   45.3370 C   0  0  0  0  0  0  0  0  0  0  0  0
   44.6750   35.2180   45.3300 N   0  0  0  0  0  0  0  0  0  0  0  0
   43.9780   36.9120   44.1950 H   0  0  0  0  0  0  0  0  0  0  0  0
   45.4910   36.4620   42.2780 H   0  0  0  0  0  0  0  0  0  0  0  0
   45.5680   33.4930   46.1770 H   0  0  0  0  0  0  0  0  0  0  0  0
  1  2  2  0  0  0  0
  1  3  1  0  0  0  0
  3 14  1  0  0  0  0
  4  3  1  0  0  0  0
  5  6  1  0  0  0  0
  5  1  1  0  0  0  0
  7  6  1  0  0  0  0
  8  7  1  0  0  0  0
  9  8  1  0  0  0  0
 10  8  1  0  0  0  0
 10 11  1  0  0  0  0
 11  5  1  0  0  0  0
 12 17  1  0  0  0  0
 13 14  1  0  0  0  0
 13 12  2  0  0  0  0
 14 15  2  0  0  0  0
 15 16  1  0  0  0  0
 16 20  1  0  0  0  0
 17 16  2  0  0  0  0
 18 12  1  0  0  0  0
 19 13  1  0  0  0  0
M  END
>  <minimizedAffinity>
-4.03646278

>  <minimizedRMSD>
1.00961649

$$$$
