
 OpenBabel03252503343D

 20 21  0  0  0  0  0  0  0  0999 V2000
   46.1440   33.8360   40.7170 C   0  0  0  0  0  0  0  0  0  0  0  0
   45.1050   33.1870   41.0900 O   0  0  0  0  0  0  0  0  0  0  0  0
   46.6180   34.7400   41.7050 N   0  0  0  0  0  0  0  0  0  0  0  0
   47.4620   35.3070   41.5090 H   0  0  0  0  0  0  0  0  0  0  0  0
   46.7530   33.6620   39.4410 N   0  0  0  0  0  0  0  0  0  0  0  0
   46.0640   32.9910   38.3880 C   0  0  0  0  0  0  0  0  0  0  0  0
   46.5320   33.3000   37.0100 C   0  0  0  0  0  0  0  0  0  0  0  0
   48.0450   33.3410   37.0090 C   0  0  0  0  0  0  0  0  0  0  0  0
   48.4710   33.4160   35.9800 H   0  0  0  0  0  0  0  0  0  0  0  0
   48.4320   34.5300   37.8620 C   0  0  0  0  0  0  0  0  0  0  0  0
   48.0930   34.2010   39.2840 C   0  0  0  0  0  0  0  0  0  0  0  0
   44.5240   36.0490   44.4860 C   0  0  0  0  0  0  0  0  0  0  0  0
   45.1170   35.9640   43.2190 C   0  0  0  0  0  0  0  0  0  0  0  0
   45.9740   34.8980   42.9690 C   0  0  0  0  0  0  0  0  0  0  0  0
   46.2130   33.9770   43.9410 N   0  0  0  0  0  0  0  0  0  0  0  0
   45.6190   34.0900   45.1590 C   0  0  0  0  0  0  0  0  0  0  0  0
   44.7830   35.1150   45.4310 N   0  0  0  0  0  0  0  0  0  0  0  0
   43.8630   36.8950   44.6400 H   0  0  0  0  0  0  0  0  0  0  0  0
   44.9540   36.6750   42.4200 H   0  0  0  0  0  0  0  0  0  0  0  0
   45.8370   33.3370   45.8990 H   0  0  0  0  0  0  0  0  0  0  0  0
  1  2  2  0  0  0  0
  1  3  1  0  0  0  0
  3 14  1  0  0  0  0
  4  3  1  0  0  0  0
  5  1  1  0  0  0  0
  6  5  1  0  0  0  0
  7  6  1  0  0  0  0
  8  7  1  0  0  0  0
  8 10  1  0  0  0  0
  9  8  1  0  0  0  0
 10 11  1  0  0  0  0
 11  5  1  0  0  0  0
 12 18  1  0  0  0  0
 12 17  1  0  0  0  0
 13 12  2  0  0  0  0
 14 13  1  0  0  0  0
 14 15  2  0  0  0  0
 15 16  1  0  0  0  0
 16 17  2  0  0  0  0
 16 20  1  0  0  0  0
 19 13  1  0  0  0  0
M  END
>  <minimizedAffinity>
-4.76396275

>  <minimizedRMSD>
0.561908484

$$$$
