
 OpenBabel03242516363D

 42 45  0  0  1  0  0  0  0  0999 V2000
   37.9930   32.4120   40.6040 C   0  0  2  0  0  0  0  0  0  0  0  0
   38.8200   31.9310   39.3820 C   0  0  1  0  0  0  0  0  0  0  0  0
   37.8440   31.9610   38.4300 O   0  0  0  0  0  0  0  0  0  0  0  0
   36.7820   31.2350   39.0090 C   0  0  0  0  0  0  0  0  0  0  0  0
   36.9720   31.2960   40.5420 C   0  0  1  0  0  0  0  0  0  0  0  0
   38.5970   32.4100   41.5070 H   0  0  0  0  0  0  0  0  0  0  0  0
   39.1790   30.9080   39.6030 H   0  0  0  0  0  0  0  0  0  0  0  0
   35.8480   31.7590   38.7530 H   0  0  0  0  0  0  0  0  0  0  0  0
   36.8400   30.2010   38.6350 H   0  0  0  0  0  0  0  0  0  0  0  0
   36.0510   31.5770   41.0740 H   0  0  0  0  0  0  0  0  0  0  0  0
   41.8380   33.8190   38.0470 C   0  0  0  0  0  0  0  0  0  0  0  0
   40.8420   32.8530   38.0810 C   0  0  0  0  0  0  0  0  0  0  0  0
   39.9590   32.8200   39.1330 C   0  0  0  0  0  0  0  0  0  0  0  0
   40.1260   33.7710   40.1090 N   0  0  0  0  0  0  0  0  0  0  0  0
   41.0960   34.7010   40.0620 C   0  0  0  0  0  0  0  0  0  0  0  0
   41.9500   34.7240   39.0310 N   0  0  0  0  0  0  0  0  0  0  0  0
   42.4860   33.7650   37.1770 H   0  0  0  0  0  0  0  0  0  0  0  0
   40.6620   32.0850   37.3500 H   0  0  0  0  0  0  0  0  0  0  0  0
   41.1870   35.4350   40.8610 H   0  0  0  0  0  0  0  0  0  0  0  0
   37.3200   33.5690   40.3080 O   0  0  0  0  0  0  0  0  0  0  0  0
   37.7260   34.2960   40.8480 H   0  0  0  0  0  0  0  0  0  0  0  0
   37.5230   30.1130   40.9310 O   0  0  0  0  0  0  0  0  0  0  0  0
   36.6860   28.1760   41.9820 C   0  0  1  0  0  0  0  0  0  0  0  0
   37.1940   29.6900   42.2180 C   0  0  1  0  0  0  0  0  0  0  0  0
   38.3210   29.4000   42.8960 O   0  0  0  0  0  0  0  0  0  0  0  0
   38.9770   28.5890   41.9290 C   0  0  0  0  0  0  0  0  0  0  0  0
   37.9880   27.4730   41.7400 C   0  0  1  0  0  0  0  0  0  0  0  0
   35.9590   28.1770   41.1900 H   0  0  0  0  0  0  0  0  0  0  0  0
   36.2870   30.1160   42.6380 H   0  0  0  0  0  0  0  0  0  0  0  0
   39.1580   29.1180   40.9960 H   0  0  0  0  0  0  0  0  0  0  0  0
   39.9500   28.2790   42.3300 H   0  0  0  0  0  0  0  0  0  0  0  0
   37.9210   27.1080   40.6850 H   0  0  0  0  0  0  0  0  0  0  0  0
   36.2120   27.7800   43.2420 O   0  0  0  0  0  0  0  0  0  0  0  0
   35.2280   27.5970   43.1010 H   0  0  0  0  0  0  0  0  0  0  0  0
   38.1990   26.4920   42.6590 O   0  0  0  0  0  0  0  0  0  0  0  0
   37.7200   24.4290   38.9680 H   0  0  0  0  0  0  0  0  0  0  0  0
   37.6330   23.7790   39.8070 N   0  0  0  0  0  0  0  0  0  0  0  0
   38.9200   23.7530   40.4550 C   0  0  0  0  0  2  0  0  0  0  0  0
   39.1240   25.1300   41.0430 C   0  0  0  0  0  2  0  0  0  0  0  0
   38.2370   25.2020   42.2730 C   0  0  0  0  0  3  0  0  0  0  0  0
   36.9500   24.4870   42.0740 C   0  0  0  0  0  2  0  0  0  0  0  0
   36.5700   24.2550   40.6300 C   0  0  0  0  0  2  0  0  0  0  0  0
  1  6  1  1  0  0  0
  2  7  1  1  0  0  0
  2  1  1  0  0  0  0
  3  4  1  0  0  0  0
  3  2  1  0  0  0  0
  4  5  1  0  0  0  0
  5  1  1  0  0  0  0
  5 22  1  0  0  0  0
  5 10  1  1  0  0  0
  8  4  1  0  0  0  0
  9  4  1  0  0  0  0
 11 12  2  0  0  0  0
 11 16  1  0  0  0  0
 12 13  1  0  0  0  0
 13  2  1  0  0  0  0
 13 14  2  0  0  0  0
 15 14  1  0  0  0  0
 15 19  1  0  0  0  0
 16 15  2  0  0  0  0
 17 11  1  0  0  0  0
 18 12  1  0  0  0  0
 20  1  1  0  0  0  0
 20 21  1  0  0  0  0
 22 24  1  0  0  0  0
 23 28  1  6  0  0  0
 23 24  1  0  0  0  0
 23 33  1  0  0  0  0
 24 29  1  1  0  0  0
 24 25  1  0  0  0  0
 26 31  1  0  0  0  0
 26 25  1  0  0  0  0
 27 32  1  6  0  0  0
 27 26  1  0  0  0  0
 27 23  1  0  0  0  0
 27 35  1  0  0  0  0
 30 26  1  0  0  0  0
 34 33  1  0  0  0  0
 36 37  1  0  0  0  0
 37 38  1  0  0  0  0
 37 42  1  0  0  0  0
 38 39  1  0  0  0  0
 39 40  1  0  0  0  0
 40 35  1  0  0  0  0
 41 40  1  0  0  0  0
 42 41  1  0  0  0  0
M  END
>  <minimizedAffinity>
-6.3579998

$$$$

 OpenBabel03242516363D

 42 45  0  0  1  0  0  0  0  0999 V2000
   37.7420   32.2140   40.6820 C   0  0  2  0  0  0  0  0  0  0  0  0
   38.7140   31.5940   39.6430 C   0  0  1  0  0  0  0  0  0  0  0  0
   37.8200   31.2850   38.6610 O   0  0  0  0  0  0  0  0  0  0  0  0
   36.8110   30.5660   39.3350 C   0  0  0  0  0  0  0  0  0  0  0  0
   36.8700   30.9840   40.8220 C   0  0  1  0  0  0  0  0  0  0  0  0
   38.2690   32.4900   41.5910 H   0  0  0  0  0  0  0  0  0  0  0  0
   39.1750   30.7020   40.1070 H   0  0  0  0  0  0  0  0  0  0  0  0
   35.8440   30.8920   38.9210 H   0  0  0  0  0  0  0  0  0  0  0  0
   37.0210   29.4930   39.2080 H   0  0  0  0  0  0  0  0  0  0  0  0
   35.8830   31.2480   41.2310 H   0  0  0  0  0  0  0  0  0  0  0  0
   41.5510   33.5550   38.0430 C   0  0  0  0  0  0  0  0  0  0  0  0
   40.6710   32.4990   38.2350 C   0  0  0  0  0  0  0  0  0  0  0  0
   39.7550   32.5530   39.2570 C   0  0  0  0  0  0  0  0  0  0  0  0
   39.7710   33.6780   40.0430 N   0  0  0  0  0  0  0  0  0  0  0  0
   40.6300   34.6940   39.8430 C   0  0  0  0  0  0  0  0  0  0  0  0
   41.5190   34.6300   38.8440 N   0  0  0  0  0  0  0  0  0  0  0  0
   42.2370   33.4220   37.2110 H   0  0  0  0  0  0  0  0  0  0  0  0
   40.6100   31.5960   37.6560 H   0  0  0  0  0  0  0  0  0  0  0  0
   40.6030   35.5660   40.4950 H   0  0  0  0  0  0  0  0  0  0  0  0
   36.9600   33.1780   40.0990 O   0  0  0  0  0  0  0  0  0  0  0  0
   37.2320   34.0520   40.4800 H   0  0  0  0  0  0  0  0  0  0  0  0
   37.5270   30.0000   41.4960 O   0  0  0  0  0  0  0  0  0  0  0  0
   38.2890   27.7760   41.3170 C   0  0  1  0  0  0  0  0  0  0  0  0
   36.9820   28.7220   41.3770 C   0  0  1  0  0  0  0  0  0  0  0  0
   36.5200   28.3180   42.5750 O   0  0  0  0  0  0  0  0  0  0  0  0
   37.6470   28.6370   43.3830 C   0  0  0  0  0  0  0  0  0  0  0  0
   38.7260   27.8020   42.7510 C   0  0  1  0  0  0  0  0  0  0  0  0
   38.9640   28.1680   40.5780 H   0  0  0  0  0  0  0  0  0  0  0  0
   36.5480   28.4820   40.4100 H   0  0  0  0  0  0  0  0  0  0  0  0
   37.8970   29.6950   43.3500 H   0  0  0  0  0  0  0  0  0  0  0  0
   37.4190   28.3820   44.4250 H   0  0  0  0  0  0  0  0  0  0  0  0
   39.7260   28.3010   42.7330 H   0  0  0  0  0  0  0  0  0  0  0  0
   37.7690   26.5000   41.0500 O   0  0  0  0  0  0  0  0  0  0  0  0
   38.1620   26.2440   40.1550 H   0  0  0  0  0  0  0  0  0  0  0  0
   38.7340   26.5530   43.2890 O   0  0  0  0  0  0  0  0  0  0  0  0
   42.8150   26.9520   42.1520 H   0  0  0  0  0  0  0  0  0  0  0  0
   42.6390   26.0660   42.7150 N   0  0  0  0  0  0  0  0  0  0  0  0
   42.2430   26.4780   44.0380 C   0  0  0  0  0  2  0  0  0  0  0  0
   40.8860   27.1270   43.8890 C   0  0  0  0  0  2  0  0  0  0  0  0
   39.8950   25.9940   43.6830 C   0  0  0  0  0  3  0  0  0  0  0  0
   40.4660   24.8970   42.8610 C   0  0  0  0  0  2  0  0  0  0  0  0
   41.6630   25.2880   42.0250 C   0  0  0  0  0  2  0  0  0  0  0  0
  1  5  1  0  0  0  0
  1  6  1  1  0  0  0
  2  7  1  1  0  0  0
  2  1  1  0  0  0  0
  3  4  1  0  0  0  0
  3  2  1  0  0  0  0
  4  5  1  0  0  0  0
  5 10  1  1  0  0  0
  5 22  1  0  0  0  0
  8  4  1  0  0  0  0
  9  4  1  0  0  0  0
 11 12  2  0  0  0  0
 11 16  1  0  0  0  0
 12 13  1  0  0  0  0
 13  2  1  0  0  0  0
 13 14  2  0  0  0  0
 15 14  1  0  0  0  0
 15 19  1  0  0  0  0
 16 15  2  0  0  0  0
 17 11  1  0  0  0  0
 18 12  1  0  0  0  0
 20 21  1  0  0  0  0
 20  1  1  0  0  0  0
 23 28  1  6  0  0  0
 23 24  1  0  0  0  0
 23 27  1  0  0  0  0
 24 29  1  6  0  0  0
 24 22  1  0  0  0  0
 24 25  1  0  0  0  0
 25 26  1  0  0  0  0
 26 31  1  0  0  0  0
 27 32  1  1  0  0  0
 27 35  1  0  0  0  0
 27 26  1  0  0  0  0
 30 26  1  0  0  0  0
 33 23  1  0  0  0  0
 34 33  1  0  0  0  0
 35 40  1  0  0  0  0
 36 37  1  0  0  0  0
 37 38  1  0  0  0  0
 39 38  1  0  0  0  0
 40 39  1  0  0  0  0
 41 40  1  0  0  0  0
 42 37  1  0  0  0  0
 42 41  1  0  0  0  0
M  END
>  <minimizedAffinity>
-6.09321308

$$$$

 OpenBabel03242516363D

 42 45  0  0  1  0  0  0  0  0999 V2000
   36.7370   28.1690   41.9900 C   0  0  2  0  0  0  0  0  0  0  0  0
   38.1710   27.5990   41.8250 C   0  0  1  0  0  0  0  0  0  0  0  0
   38.7150   28.0320   42.9980 O   0  0  0  0  0  0  0  0  0  0  0  0
   38.4040   29.4070   43.0310 C   0  0  0  0  0  0  0  0  0  0  0  0
   37.1660   29.6140   42.1290 C   0  0  1  0  0  0  0  0  0  0  0  0
   36.1350   27.9680   41.1060 H   0  0  0  0  0  0  0  0  0  0  0  0
   38.6210   28.0780   40.9360 H   0  0  0  0  0  0  0  0  0  0  0  0
   38.1250   29.6560   44.0660 H   0  0  0  0  0  0  0  0  0  0  0  0
   39.2780   29.9580   42.6500 H   0  0  0  0  0  0  0  0  0  0  0  0
   36.3800   30.2120   42.6140 H   0  0  0  0  0  0  0  0  0  0  0  0
   38.8280   23.8550   41.7230 C   0  0  0  0  0  0  0  0  0  0  0  0
   39.0950   25.1990   41.9500 C   0  0  0  0  0  0  0  0  0  0  0  0
   38.1430   26.1430   41.6520 C   0  0  0  0  0  0  0  0  0  0  0  0
   36.9580   25.6830   41.1330 N   0  0  0  0  0  0  0  0  0  0  0  0
   36.7140   24.3780   40.9190 C   0  0  0  0  0  0  0  0  0  0  0  0
   37.6500   23.4660   41.2140 N   0  0  0  0  0  0  0  0  0  0  0  0
   39.6400   23.1860   41.9900 H   0  0  0  0  0  0  0  0  0  0  0  0
   39.9990   25.6180   42.3530 H   0  0  0  0  0  0  0  0  0  0  0  0
   35.7570   24.0630   40.5050 H   0  0  0  0  0  0  0  0  0  0  0  0
   36.2060   27.8050   43.1990 O   0  0  0  0  0  0  0  0  0  0  0  0
   35.4640   27.1710   43.0210 H   0  0  0  0  0  0  0  0  0  0  0  0
   37.6080   30.1050   40.9370 O   0  0  0  0  0  0  0  0  0  0  0  0
   38.4920   32.2890   40.8730 C   0  0  1  0  0  0  0  0  0  0  0  0
   37.1750   31.3910   40.6180 C   0  0  1  0  0  0  0  0  0  0  0  0
   37.1190   31.5260   39.2800 O   0  0  0  0  0  0  0  0  0  0  0  0
   38.3960   31.0010   38.9360 C   0  0  0  0  0  0  0  0  0  0  0  0
   39.3200   31.9270   39.6760 C   0  0  1  0  0  0  0  0  0  0  0  0
   38.8840   32.0550   41.8460 H   0  0  0  0  0  0  0  0  0  0  0  0
   36.5050   31.8560   41.3360 H   0  0  0  0  0  0  0  0  0  0  0  0
   38.5240   29.9710   39.2620 H   0  0  0  0  0  0  0  0  0  0  0  0
   38.5030   31.0200   37.8440 H   0  0  0  0  0  0  0  0  0  0  0  0
   40.2210   31.4160   40.0990 H   0  0  0  0  0  0  0  0  0  0  0  0
   38.0410   33.6060   40.7000 O   0  0  0  0  0  0  0  0  0  0  0  0
   38.1810   34.0470   41.5980 H   0  0  0  0  0  0  0  0  0  0  0  0
   39.6010   33.0210   38.9200 O   0  0  0  0  0  0  0  0  0  0  0  0
   43.0360   32.8420   41.4240 H   0  0  0  0  0  0  0  0  0  0  0  0
   43.1210   33.5980   40.6790 N   0  0  0  0  0  0  0  0  0  0  0  0
   43.1570   32.9300   39.4030 C   0  0  0  0  0  2  0  0  0  0  0  0
   41.7840   32.3290   39.2030 C   0  0  0  0  0  2  0  0  0  0  0  0
   40.8640   33.4840   38.8440 C   0  0  0  0  0  3  0  0  0  0  0  0
   41.2090   34.7220   39.5890 C   0  0  0  0  0  2  0  0  0  0  0  0
   42.0300   34.5020   40.8390 C   0  0  0  0  0  2  0  0  0  0  0  0
  1  6  1  6  0  0  0
  1  5  1  0  0  0  0
  1 20  1  0  0  0  0
  2  7  1  6  0  0  0
  2  1  1  0  0  0  0
  2  3  1  0  0  0  0
  3  4  1  0  0  0  0
  4  8  1  0  0  0  0
  5 10  1  1  0  0  0
  5  4  1  0  0  0  0
  9  4  1  0  0  0  0
 11 12  1  0  0  0  0
 11 17  1  0  0  0  0
 12 18  1  0  0  0  0
 13  2  1  0  0  0  0
 13 12  2  0  0  0  0
 14 13  1  0  0  0  0
 15 14  2  0  0  0  0
 15 16  1  0  0  0  0
 16 11  2  0  0  0  0
 19 15  1  0  0  0  0
 21 20  1  0  0  0  0
 22  5  1  0  0  0  0
 23 28  1  1  0  0  0
 24 23  1  0  0  0  0
 24 22  1  0  0  0  0
 24 29  1  1  0  0  0
 25 24  1  0  0  0  0
 26 30  1  0  0  0  0
 26 25  1  0  0  0  0
 26 27  1  0  0  0  0
 27 32  1  1  0  0  0
 27 23  1  0  0  0  0
 31 26  1  0  0  0  0
 33 23  1  0  0  0  0
 33 34  1  0  0  0  0
 35 27  1  0  0  0  0
 37 42  1  0  0  0  0
 37 36  1  0  0  0  0
 38 37  1  0  0  0  0
 39 38  1  0  0  0  0
 40 35  1  0  0  0  0
 40 39  1  0  0  0  0
 40 41  1  0  0  0  0
 41 42  1  0  0  0  0
M  END
>  <minimizedAffinity>
-5.89097881

$$$$

 OpenBabel03242516363D

 42 45  0  0  1  0  0  0  0  0999 V2000
   36.5910   28.6290   41.6800 C   0  0  2  0  0  0  0  0  0  0  0  0
   37.6910   27.7230   41.0660 C   0  0  1  0  0  0  0  0  0  0  0  0
   38.5690   27.7060   42.1080 O   0  0  0  0  0  0  0  0  0  0  0  0
   38.7460   29.0680   42.4270 C   0  0  0  0  0  0  0  0  0  0  0  0
   37.4940   29.8200   41.9180 C   0  0  1  0  0  0  0  0  0  0  0  0
   35.7950   28.8130   40.9630 H   0  0  0  0  0  0  0  0  0  0  0  0
   38.0890   28.2390   40.1720 H   0  0  0  0  0  0  0  0  0  0  0  0
   38.7770   29.1470   43.5250 H   0  0  0  0  0  0  0  0  0  0  0  0
   39.6600   29.4160   41.9200 H   0  0  0  0  0  0  0  0  0  0  0  0
   37.0650   30.4930   42.6750 H   0  0  0  0  0  0  0  0  0  0  0  0
   36.1790   24.6770   39.3640 C   0  0  0  0  0  0  0  0  0  0  0  0
   36.6080   25.9910   39.4980 C   0  0  0  0  0  0  0  0  0  0  0  0
   37.1470   26.4140   40.6890 C   0  0  0  0  0  0  0  0  0  0  0  0
   37.2270   25.4850   41.6960 N   0  0  0  0  0  0  0  0  0  0  0  0
   36.8080   24.2150   41.5500 C   0  0  0  0  0  0  0  0  0  0  0  0
   36.2840   23.8140   40.3850 N   0  0  0  0  0  0  0  0  0  0  0  0
   35.7680   24.4370   38.3880 H   0  0  0  0  0  0  0  0  0  0  0  0
   36.5710   26.7610   38.7500 H   0  0  0  0  0  0  0  0  0  0  0  0
   36.8940   23.5140   42.3800 H   0  0  0  0  0  0  0  0  0  0  0  0
   36.2200   28.1700   42.9170 O   0  0  0  0  0  0  0  0  0  0  0  0
   35.2900   27.8340   42.8430 H   0  0  0  0  0  0  0  0  0  0  0  0
   37.8290   30.4170   40.7410 O   0  0  0  0  0  0  0  0  0  0  0  0
   39.0140   32.3980   41.2220 C   0  0  1  0  0  0  0  0  0  0  0  0
   37.6170   31.7940   40.6830 C   0  0  1  0  0  0  0  0  0  0  0  0
   37.7200   32.2100   39.4060 O   0  0  0  0  0  0  0  0  0  0  0  0
   38.9390   31.5700   39.0470 C   0  0  0  0  0  0  0  0  0  0  0  0
   39.9030   32.1630   40.0370 C   0  0  1  0  0  0  0  0  0  0  0  0
   39.2660   31.9080   42.1450 H   0  0  0  0  0  0  0  0  0  0  0  0
   36.9480   32.2010   41.4360 H   0  0  0  0  0  0  0  0  0  0  0  0
   38.8870   30.4890   39.1460 H   0  0  0  0  0  0  0  0  0  0  0  0
   39.1610   31.7970   37.9970 H   0  0  0  0  0  0  0  0  0  0  0  0
   40.6740   31.4390   40.4000 H   0  0  0  0  0  0  0  0  0  0  0  0
   38.7730   33.7770   41.3110 O   0  0  0  0  0  0  0  0  0  0  0  0
   38.8800   33.9940   42.2920 H   0  0  0  0  0  0  0  0  0  0  0  0
   40.4120   33.3310   39.5620 O   0  0  0  0  0  0  0  0  0  0  0  0
   42.8750   33.0480   36.1030 H   0  0  0  0  0  0  0  0  0  0  0  0
   43.4370   32.9730   37.0040 N   0  0  0  0  0  0  0  0  0  0  0  0
   43.3270   34.2430   37.6770 C   0  0  0  0  0  2  0  0  0  0  0  0
   41.8860   34.3630   38.1190 C   0  0  0  0  0  2  0  0  0  0  0  0
   41.7320   33.4420   39.3170 C   0  0  0  0  0  3  0  0  0  0  0  0
   42.5310   32.1990   39.1700 C   0  0  0  0  0  2  0  0  0  0  0  0
   42.9330   31.8670   37.7510 C   0  0  0  0  0  2  0  0  0  0  0  0
  1  6  1  6  0  0  0
  1  5  1  0  0  0  0
  1 20  1  0  0  0  0
  2  7  1  6  0  0  0
  2  1  1  0  0  0  0
  2  3  1  0  0  0  0
  3  4  1  0  0  0  0
  4  8  1  0  0  0  0
  5  4  1  0  0  0  0
  5 10  1  1  0  0  0
  9  4  1  0  0  0  0
 11 12  2  0  0  0  0
 11 16  1  0  0  0  0
 12 13  1  0  0  0  0
 13  2  1  0  0  0  0
 13 14  2  0  0  0  0
 15 14  1  0  0  0  0
 15 19  1  0  0  0  0
 16 15  2  0  0  0  0
 17 11  1  0  0  0  0
 18 12  1  0  0  0  0
 21 20  1  0  0  0  0
 22  5  1  0  0  0  0
 23 33  1  0  0  0  0
 23 28  1  1  0  0  0
 24 22  1  0  0  0  0
 24 23  1  0  0  0  0
 24 29  1  1  0  0  0
 25 24  1  0  0  0  0
 26 30  1  0  0  0  0
 26 25  1  0  0  0  0
 26 27  1  0  0  0  0
 27 32  1  1  0  0  0
 27 23  1  0  0  0  0
 31 26  1  0  0  0  0
 33 34  1  0  0  0  0
 35 27  1  0  0  0  0
 36 37  1  0  0  0  0
 37 38  1  0  0  0  0
 37 42  1  0  0  0  0
 38 39  1  0  0  0  0
 39 40  1  0  0  0  0
 40 35  1  0  0  0  0
 41 40  1  0  0  0  0
 42 41  1  0  0  0  0
M  END
>  <minimizedAffinity>
-5.87723351

$$$$

 OpenBabel03242516363D

 42 45  0  0  1  0  0  0  0  0999 V2000
   36.6840   30.2210   41.4590 C   0  0  2  0  0  0  0  0  0  0  0  0
   37.5620   30.4480   40.1990 C   0  0  1  0  0  0  0  0  0  0  0  0
   36.6200   30.2400   39.2350 O   0  0  0  0  0  0  0  0  0  0  0  0
   36.0390   29.0050   39.5880 C   0  0  0  0  0  0  0  0  0  0  0  0
   36.2750   28.8070   41.1030 C   0  0  1  0  0  0  0  0  0  0  0  0
   37.2790   30.2950   42.3660 H   0  0  0  0  0  0  0  0  0  0  0  0
   38.3560   29.6790   40.2020 H   0  0  0  0  0  0  0  0  0  0  0  0
   34.9550   29.0910   39.4130 H   0  0  0  0  0  0  0  0  0  0  0  0
   36.5330   28.2190   38.9960 H   0  0  0  0  0  0  0  0  0  0  0  0
   35.3620   28.5150   41.6420 H   0  0  0  0  0  0  0  0  0  0  0  0
   38.3660   34.1600   40.0150 C   0  0  0  0  0  0  0  0  0  0  0  0
   37.6020   33.0060   39.9040 C   0  0  0  0  0  0  0  0  0  0  0  0
   38.1590   31.7870   40.2080 C   0  0  0  0  0  0  0  0  0  0  0  0
   39.4710   31.7910   40.6110 N   0  0  0  0  0  0  0  0  0  0  0  0
   40.1980   32.9180   40.7130 C   0  0  0  0  0  0  0  0  0  0  0  0
   39.6440   34.1000   40.4150 N   0  0  0  0  0  0  0  0  0  0  0  0
   37.8390   35.0730   39.7550 H   0  0  0  0  0  0  0  0  0  0  0  0
   36.5740   32.9390   39.5960 H   0  0  0  0  0  0  0  0  0  0  0  0
   41.2370   32.8690   41.0380 H   0  0  0  0  0  0  0  0  0  0  0  0
   35.5440   30.9800   41.3990 O   0  0  0  0  0  0  0  0  0  0  0  0
   35.6110   31.6730   42.1050 H   0  0  0  0  0  0  0  0  0  0  0  0
   37.3240   27.9500   41.2420 O   0  0  0  0  0  0  0  0  0  0  0  0
   38.0730   25.7370   41.5560 C   0  0  1  0  0  0  0  0  0  0  0  0
   37.1330   26.9080   42.1480 C   0  0  1  0  0  0  0  0  0  0  0  0
   37.8360   27.1550   43.2700 O   0  0  0  0  0  0  0  0  0  0  0  0
   39.0910   27.4960   42.6930 C   0  0  0  0  0  0  0  0  0  0  0  0
   39.4330   26.2430   41.9360 C   0  0  1  0  0  0  0  0  0  0  0  0
   37.8550   25.6170   40.5100 H   0  0  0  0  0  0  0  0  0  0  0  0
   36.1720   26.4040   42.0940 H   0  0  0  0  0  0  0  0  0  0  0  0
   39.0230   28.3530   42.0270 H   0  0  0  0  0  0  0  0  0  0  0  0
   39.7910   27.7530   43.4970 H   0  0  0  0  0  0  0  0  0  0  0  0
   39.9460   26.4350   40.9610 H   0  0  0  0  0  0  0  0  0  0  0  0
   37.7850   24.6290   42.3680 O   0  0  0  0  0  0  0  0  0  0  0  0
   37.3940   23.9430   41.7380 H   0  0  0  0  0  0  0  0  0  0  0  0
   40.0800   25.3620   42.7450 O   0  0  0  0  0  0  0  0  0  0  0  0
   43.6790   27.6280   42.8780 H   0  0  0  0  0  0  0  0  0  0  0  0
   43.8050   26.7040   42.3640 N   0  0  0  0  0  0  0  0  0  0  0  0
   43.6090   25.6550   43.3320 C   0  0  0  0  0  2  0  0  0  0  0  0
   42.1470   25.6990   43.7130 C   0  0  0  0  0  2  0  0  0  0  0  0
   41.3860   25.0950   42.5460 C   0  0  0  0  0  3  0  0  0  0  0  0
   41.9900   25.4600   41.2390 C   0  0  0  0  0  2  0  0  0  0  0  0
   42.8880   26.6750   41.2720 C   0  0  0  0  0  2  0  0  0  0  0  0
  1  6  1  1  0  0  0
  2  7  1  6  0  0  0
  2 13  1  0  0  0  0
  2  1  1  0  0  0  0
  3  4  1  0  0  0  0
  3  2  1  0  0  0  0
  4  5  1  0  0  0  0
  5 22  1  0  0  0  0
  5  1  1  0  0  0  0
  5 10  1  1  0  0  0
  8  4  1  0  0  0  0
  9  4  1  0  0  0  0
 11 16  1  0  0  0  0
 12 11  2  0  0  0  0
 12 13  1  0  0  0  0
 13 14  2  0  0  0  0
 14 15  1  0  0  0  0
 15 19  1  0  0  0  0
 16 15  2  0  0  0  0
 17 11  1  0  0  0  0
 18 12  1  0  0  0  0
 20  1  1  0  0  0  0
 20 21  1  0  0  0  0
 22 24  1  0  0  0  0
 23 28  1  6  0  0  0
 23 27  1  0  0  0  0
 23 24  1  0  0  0  0
 23 33  1  0  0  0  0
 24 29  1  1  0  0  0
 24 25  1  0  0  0  0
 26 25  1  0  0  0  0
 26 31  1  0  0  0  0
 27 32  1  6  0  0  0
 27 26  1  0  0  0  0
 27 35  1  0  0  0  0
 30 26  1  0  0  0  0
 34 33  1  0  0  0  0
 37 36  1  0  0  0  0
 37 38  1  0  0  0  0
 38 39  1  0  0  0  0
 40 35  1  0  0  0  0
 40 39  1  0  0  0  0
 41 42  1  0  0  0  0
 41 40  1  0  0  0  0
 42 37  1  0  0  0  0
M  END
>  <minimizedAffinity>
-5.83732796

$$$$

 OpenBabel03242516363D

 42 45  0  0  1  0  0  0  0  0999 V2000
   36.8410   25.5550   41.5560 C   0  0  2  0  0  0  0  0  0  0  0  0
   38.2770   25.3860   40.9910 C   0  0  1  0  0  0  0  0  0  0  0  0
   38.9620   25.2640   42.1630 O   0  0  0  0  0  0  0  0  0  0  0  0
   38.5300   26.3690   42.9260 C   0  0  0  0  0  0  0  0  0  0  0  0
   37.1480   26.7890   42.3770 C   0  0  1  0  0  0  0  0  0  0  0  0
   36.1250   25.7220   40.7550 H   0  0  0  0  0  0  0  0  0  0  0  0
   38.5280   26.3100   40.4360 H   0  0  0  0  0  0  0  0  0  0  0  0
   38.4020   26.0220   43.9630 H   0  0  0  0  0  0  0  0  0  0  0  0
   39.2740   27.1720   42.8050 H   0  0  0  0  0  0  0  0  0  0  0  0
   36.3980   26.9280   43.1710 H   0  0  0  0  0  0  0  0  0  0  0  0
   38.6590   22.9340   38.1110 C   0  0  0  0  0  0  0  0  0  0  0  0
   38.5950   24.1670   38.7450 C   0  0  0  0  0  0  0  0  0  0  0  0
   38.3590   24.2260   40.0970 C   0  0  0  0  0  0  0  0  0  0  0  0
   38.1970   23.0290   40.7490 N   0  0  0  0  0  0  0  0  0  0  0  0
   38.2620   21.8420   40.1200 C   0  0  0  0  0  0  0  0  0  0  0  0
   38.4930   21.7970   38.8020 N   0  0  0  0  0  0  0  0  0  0  0  0
   38.8500   22.9890   37.0430 H   0  0  0  0  0  0  0  0  0  0  0  0
   38.7140   25.1340   38.2910 H   0  0  0  0  0  0  0  0  0  0  0  0
   38.1260   20.9190   40.6820 H   0  0  0  0  0  0  0  0  0  0  0  0
   36.5520   24.5570   42.4490 O   0  0  0  0  0  0  0  0  0  0  0  0
   35.8540   23.9830   42.0400 H   0  0  0  0  0  0  0  0  0  0  0  0
   37.3410   27.8700   41.5730 O   0  0  0  0  0  0  0  0  0  0  0  0
   36.7850   30.1580   41.4460 C   0  0  1  0  0  0  0  0  0  0  0  0
   36.2120   28.6530   41.3350 C   0  0  1  0  0  0  0  0  0  0  0  0
   35.9400   28.6590   40.0160 O   0  0  0  0  0  0  0  0  0  0  0  0
   37.2380   28.9480   39.5090 C   0  0  0  0  0  0  0  0  0  0  0  0
   37.5310   30.2760   40.1500 C   0  0  1  0  0  0  0  0  0  0  0  0
   37.3460   30.2460   42.3600 H   0  0  0  0  0  0  0  0  0  0  0  0
   35.4810   28.6850   42.1380 H   0  0  0  0  0  0  0  0  0  0  0  0
   37.9730   28.2000   39.7950 H   0  0  0  0  0  0  0  0  0  0  0  0
   37.1920   28.9680   38.4130 H   0  0  0  0  0  0  0  0  0  0  0  0
   38.6020   30.4010   40.4500 H   0  0  0  0  0  0  0  0  0  0  0  0
   35.6400   30.9630   41.3570 O   0  0  0  0  0  0  0  0  0  0  0  0
   35.5980   31.4510   42.2400 H   0  0  0  0  0  0  0  0  0  0  0  0
   37.0420   31.2900   39.3880 O   0  0  0  0  0  0  0  0  0  0  0  0
   40.5640   33.0570   40.9940 H   0  0  0  0  0  0  0  0  0  0  0  0
   40.0790   33.6930   40.2910 N   0  0  0  0  0  0  0  0  0  0  0  0
   40.1530   33.0390   39.0090 C   0  0  0  0  0  2  0  0  0  0  0  0
   39.2710   31.8160   39.1090 C   0  0  0  0  0  2  0  0  0  0  0  0
   37.8390   32.3190   39.0400 C   0  0  0  0  0  3  0  0  0  0  0  0
   37.6700   33.6140   39.7470 C   0  0  0  0  0  2  0  0  0  0  0  0
   38.7510   33.9340   40.7520 C   0  0  0  0  0  2  0  0  0  0  0  0
  1  6  1  6  0  0  0
  1  5  1  0  0  0  0
  1 20  1  0  0  0  0
  2  7  1  6  0  0  0
  2  1  1  0  0  0  0
  2  3  1  0  0  0  0
  3  4  1  0  0  0  0
  4  8  1  0  0  0  0
  5  4  1  0  0  0  0
  5 10  1  1  0  0  0
  9  4  1  0  0  0  0
 11 12  2  0  0  0  0
 11 16  1  0  0  0  0
 12 13  1  0  0  0  0
 13 14  2  0  0  0  0
 13  2  1  0  0  0  0
 15 19  1  0  0  0  0
 15 14  1  0  0  0  0
 16 15  2  0  0  0  0
 17 11  1  0  0  0  0
 18 12  1  0  0  0  0
 21 20  1  0  0  0  0
 22  5  1  0  0  0  0
 23 28  1  1  0  0  0
 24 23  1  0  0  0  0
 24 22  1  0  0  0  0
 24 29  1  1  0  0  0
 25 24  1  0  0  0  0
 26 30  1  0  0  0  0
 26 25  1  0  0  0  0
 26 27  1  0  0  0  0
 27 32  1  1  0  0  0
 27 23  1  0  0  0  0
 31 26  1  0  0  0  0
 33 23  1  0  0  0  0
 33 34  1  0  0  0  0
 35 27  1  0  0  0  0
 37 42  1  0  0  0  0
 37 36  1  0  0  0  0
 38 39  1  0  0  0  0
 38 37  1  0  0  0  0
 40 39  1  0  0  0  0
 40 35  1  0  0  0  0
 40 41  1  0  0  0  0
 41 42  1  0  0  0  0
M  END
>  <minimizedAffinity>
-5.76754045

$$$$

 OpenBabel03242516363D

 42 45  0  0  1  0  0  0  0  0999 V2000
   37.5960   28.2850   40.2920 C   0  0  2  0  0  0  0  0  0  0  0  0
   38.3720   28.6430   41.5880 C   0  0  1  0  0  0  0  0  0  0  0  0
   37.3770   29.2770   42.2710 O   0  0  0  0  0  0  0  0  0  0  0  0
   36.8830   30.2250   41.3510 C   0  0  0  0  0  0  0  0  0  0  0  0
   37.2340   29.7110   39.9360 C   0  0  1  0  0  0  0  0  0  0  0  0
   38.2490   27.8010   39.5700 H   0  0  0  0  0  0  0  0  0  0  0  0
   39.2020   29.3180   41.3060 H   0  0  0  0  0  0  0  0  0  0  0  0
   35.7860   30.2410   41.4530 H   0  0  0  0  0  0  0  0  0  0  0  0
   37.3730   31.1880   41.5650 H   0  0  0  0  0  0  0  0  0  0  0  0
   36.3760   29.7380   39.2480 H   0  0  0  0  0  0  0  0  0  0  0  0
   39.8960   26.0220   43.8820 C   0  0  0  0  0  0  0  0  0  0  0  0
   39.4970   27.2840   43.4640 C   0  0  0  0  0  0  0  0  0  0  0  0
   38.9010   27.4390   42.2350 C   0  0  0  0  0  0  0  0  0  0  0  0
   38.7380   26.3030   41.4810 N   0  0  0  0  0  0  0  0  0  0  0  0
   39.1310   25.0870   41.9010 C   0  0  0  0  0  0  0  0  0  0  0  0
   39.7100   24.9490   43.1010 N   0  0  0  0  0  0  0  0  0  0  0  0
   40.3560   26.0010   44.8660 H   0  0  0  0  0  0  0  0  0  0  0  0
   39.5970   28.2070   44.0070 H   0  0  0  0  0  0  0  0  0  0  0  0
   38.9780   24.2160   41.2650 H   0  0  0  0  0  0  0  0  0  0  0  0
   36.4200   27.6490   40.5910 O   0  0  0  0  0  0  0  0  0  0  0  0
   36.5010   26.7110   40.2820 H   0  0  0  0  0  0  0  0  0  0  0  0
   38.3310   30.3990   39.5140 O   0  0  0  0  0  0  0  0  0  0  0  0
   38.8230   32.0380   37.8930 C   0  0  1  0  0  0  0  0  0  0  0  0
   38.4990   30.4750   38.1320 C   0  0  1  0  0  0  0  0  0  0  0  0
   39.7100   29.9860   37.8010 O   0  0  0  0  0  0  0  0  0  0  0  0
   40.5130   30.6830   38.7460 C   0  0  0  0  0  0  0  0  0  0  0  0
   40.2360   32.1160   38.3900 C   0  0  1  0  0  0  0  0  0  0  0  0
   38.0780   32.6250   38.4000 H   0  0  0  0  0  0  0  0  0  0  0  0
   37.5920   30.3920   37.5410 H   0  0  0  0  0  0  0  0  0  0  0  0
   40.2270   30.4690   39.7730 H   0  0  0  0  0  0  0  0  0  0  0  0
   41.5570   30.3710   38.6200 H   0  0  0  0  0  0  0  0  0  0  0  0
   40.1870   32.7970   39.2760 H   0  0  0  0  0  0  0  0  0  0  0  0
   38.8510   32.1670   36.4960 O   0  0  0  0  0  0  0  0  0  0  0  0
   38.1000   32.8070   36.2810 H   0  0  0  0  0  0  0  0  0  0  0  0
   41.0820   32.5340   37.4110 O   0  0  0  0  0  0  0  0  0  0  0  0
   44.2810   33.3180   40.1040 H   0  0  0  0  0  0  0  0  0  0  0  0
   43.9080   34.2080   39.6530 N   0  0  0  0  0  0  0  0  0  0  0  0
   44.1930   34.1180   38.2440 C   0  0  0  0  0  2  0  0  0  0  0  0
   43.3210   33.0060   37.7070 C   0  0  0  0  0  2  0  0  0  0  0  0
   41.9130   33.5710   37.6320 C   0  0  0  0  0  3  0  0  0  0  0  0
   41.6170   34.4830   38.7670 C   0  0  0  0  0  2  0  0  0  0  0  0
   42.5210   34.3150   39.9660 C   0  0  0  0  0  2  0  0  0  0  0  0
  1  6  1  6  0  0  0
  1 20  1  0  0  0  0
  1  2  1  0  0  0  0
  2  7  1  6  0  0  0
  2 13  1  0  0  0  0
  2  3  1  0  0  0  0
  4  8  1  0  0  0  0
  4  9  1  0  0  0  0
  4  3  1  0  0  0  0
  5 10  1  6  0  0  0
  5  1  1  0  0  0  0
  5  4  1  0  0  0  0
 11 17  1  0  0  0  0
 12 11  1  0  0  0  0
 12 18  1  0  0  0  0
 13 12  2  0  0  0  0
 14 15  2  0  0  0  0
 14 13  1  0  0  0  0
 15 16  1  0  0  0  0
 16 11  2  0  0  0  0
 19 15  1  0  0  0  0
 21 20  1  0  0  0  0
 22  5  1  0  0  0  0
 23 24  1  0  0  0  0
 23 27  1  0  0  0  0
 23 28  1  1  0  0  0
 24 29  1  6  0  0  0
 24 22  1  0  0  0  0
 25 24  1  0  0  0  0
 25 26  1  0  0  0  0
 26 30  1  0  0  0  0
 27 26  1  0  0  0  0
 27 32  1  1  0  0  0
 31 26  1  0  0  0  0
 33 23  1  0  0  0  0
 34 33  1  0  0  0  0
 35 40  1  0  0  0  0
 35 27  1  0  0  0  0
 37 42  1  0  0  0  0
 37 36  1  0  0  0  0
 38 37  1  0  0  0  0
 39 38  1  0  0  0  0
 40 39  1  0  0  0  0
 40 41  1  0  0  0  0
 41 42  1  0  0  0  0
M  END
>  <minimizedAffinity>
-5.73774338

$$$$

 OpenBabel03242516363D

 42 45  0  0  1  0  0  0  0  0999 V2000
   38.2270   25.8060   41.3290 C   0  0  2  0  0  0  0  0  0  0  0  0
   38.9900   26.7970   42.2470 C   0  0  1  0  0  0  0  0  0  0  0  0
   38.1880   26.7400   43.3480 O   0  0  0  0  0  0  0  0  0  0  0  0
   36.8930   26.9640   42.8370 C   0  0  0  0  0  0  0  0  0  0  0  0
   36.9180   26.5670   41.3430 C   0  0  1  0  0  0  0  0  0  0  0  0
   38.6930   25.7450   40.3490 H   0  0  0  0  0  0  0  0  0  0  0  0
   38.9780   27.7870   41.7530 H   0  0  0  0  0  0  0  0  0  0  0  0
   36.2090   26.2830   43.3670 H   0  0  0  0  0  0  0  0  0  0  0  0
   36.6600   28.0330   42.9670 H   0  0  0  0  0  0  0  0  0  0  0  0
   36.0800   25.9120   41.0620 H   0  0  0  0  0  0  0  0  0  0  0  0
   42.3520   25.6240   43.5790 C   0  0  0  0  0  0  0  0  0  0  0  0
   41.0330   26.0520   43.6270 C   0  0  0  0  0  0  0  0  0  0  0  0
   40.3730   26.3590   42.4610 C   0  0  0  0  0  0  0  0  0  0  0  0
   41.0830   26.2200   41.2950 N   0  0  0  0  0  0  0  0  0  0  0  0
   42.3620   25.8030   41.2650 C   0  0  0  0  0  0  0  0  0  0  0  0
   42.9940   25.5060   42.4080 N   0  0  0  0  0  0  0  0  0  0  0  0
   42.7880   25.4050   44.5500 H   0  0  0  0  0  0  0  0  0  0  0  0
   40.4270   26.1800   44.5050 H   0  0  0  0  0  0  0  0  0  0  0  0
   42.8820   25.7090   40.3130 H   0  0  0  0  0  0  0  0  0  0  0  0
   37.9940   24.6230   41.9810 O   0  0  0  0  0  0  0  0  0  0  0  0
   38.5450   23.9260   41.5410 H   0  0  0  0  0  0  0  0  0  0  0  0
   37.0180   27.7150   40.6180 O   0  0  0  0  0  0  0  0  0  0  0  0
   36.7560   30.0090   41.0960 C   0  0  1  0  0  0  0  0  0  0  0  0
   35.9780   28.6280   40.7900 C   0  0  1  0  0  0  0  0  0  0  0  0
   35.4750   28.9650   39.5870 O   0  0  0  0  0  0  0  0  0  0  0  0
   36.6860   29.2500   38.8960 C   0  0  0  0  0  0  0  0  0  0  0  0
   37.2630   30.3600   39.7290 C   0  0  1  0  0  0  0  0  0  0  0  0
   37.4790   29.8320   41.8720 H   0  0  0  0  0  0  0  0  0  0  0  0
   35.4160   28.5350   41.7150 H   0  0  0  0  0  0  0  0  0  0  0  0
   37.3560   28.3940   38.8600 H   0  0  0  0  0  0  0  0  0  0  0  0
   36.4450   29.5280   37.8620 H   0  0  0  0  0  0  0  0  0  0  0  0
   38.3770   30.3170   39.8210 H   0  0  0  0  0  0  0  0  0  0  0  0
   35.7290   30.9100   41.4170 O   0  0  0  0  0  0  0  0  0  0  0  0
   35.9130   31.1800   42.3730 H   0  0  0  0  0  0  0  0  0  0  0  0
   36.7820   31.5620   39.3160 O   0  0  0  0  0  0  0  0  0  0  0  0
   40.5650   32.8870   40.7440 H   0  0  0  0  0  0  0  0  0  0  0  0
   40.0800   33.6240   40.1480 N   0  0  0  0  0  0  0  0  0  0  0  0
   39.9890   33.0920   38.8120 C   0  0  0  0  0  2  0  0  0  0  0  0
   39.0170   31.9370   38.8820 C   0  0  0  0  0  2  0  0  0  0  0  0
   37.6330   32.5550   38.9890 C   0  0  0  0  0  3  0  0  0  0  0  0
   37.6350   33.7850   39.8210 C   0  0  0  0  0  2  0  0  0  0  0  0
   38.8210   33.9220   40.7480 C   0  0  0  0  0  2  0  0  0  0  0  0
  1  6  1  6  0  0  0
  1  5  1  0  0  0  0
  1 20  1  0  0  0  0
  1  2  1  0  0  0  0
  2  7  1  6  0  0  0
  2 13  1  0  0  0  0
  2  3  1  0  0  0  0
  4  9  1  0  0  0  0
  4  3  1  0  0  0  0
  4  8  1  0  0  0  0
  5 10  1  6  0  0  0
  5  4  1  0  0  0  0
 11 12  1  0  0  0  0
 11 17  1  0  0  0  0
 12 18  1  0  0  0  0
 13 12  2  0  0  0  0
 14 13  1  0  0  0  0
 15 14  2  0  0  0  0
 15 16  1  0  0  0  0
 16 11  2  0  0  0  0
 19 15  1  0  0  0  0
 21 20  1  0  0  0  0
 22 24  1  0  0  0  0
 22  5  1  0  0  0  0
 23 33  1  0  0  0  0
 23 28  1  1  0  0  0
 24 23  1  0  0  0  0
 24 29  1  1  0  0  0
 25 24  1  0  0  0  0
 26 25  1  0  0  0  0
 26 27  1  0  0  0  0
 27 32  1  6  0  0  0
 27 23  1  0  0  0  0
 30 26  1  0  0  0  0
 31 26  1  0  0  0  0
 33 34  1  0  0  0  0
 35 27  1  0  0  0  0
 37 36  1  0  0  0  0
 37 42  1  0  0  0  0
 38 39  1  0  0  0  0
 38 37  1  0  0  0  0
 39 40  1  0  0  0  0
 40 35  1  0  0  0  0
 40 41  1  0  0  0  0
 41 42  1  0  0  0  0
M  END
>  <minimizedAffinity>
-5.70708132

$$$$

 OpenBabel03242516363D

 42 45  0  0  1  0  0  0  0  0999 V2000
   37.8010   28.3920   40.4430 C   0  0  2  0  0  0  0  0  0  0  0  0
   38.3860   28.6180   41.8630 C   0  0  1  0  0  0  0  0  0  0  0  0
   37.2340   28.9110   42.5310 O   0  0  0  0  0  0  0  0  0  0  0  0
   36.6340   29.9190   41.7480 C   0  0  0  0  0  0  0  0  0  0  0  0
   37.1910   29.7710   40.3130 C   0  0  1  0  0  0  0  0  0  0  0  0
   38.5920   28.1880   39.7250 H   0  0  0  0  0  0  0  0  0  0  0  0
   39.0840   29.4730   41.8050 H   0  0  0  0  0  0  0  0  0  0  0  0
   35.5520   29.7160   41.7240 H   0  0  0  0  0  0  0  0  0  0  0  0
   36.9040   30.8920   42.1870 H   0  0  0  0  0  0  0  0  0  0  0  0
   36.4010   29.7800   39.5460 H   0  0  0  0  0  0  0  0  0  0  0  0
   40.0470   25.8180   43.8270 C   0  0  0  0  0  0  0  0  0  0  0  0
   39.3850   27.0200   43.6180 C   0  0  0  0  0  0  0  0  0  0  0  0
   39.0930   27.4240   42.3380 C   0  0  0  0  0  0  0  0  0  0  0  0
   39.4880   26.5890   41.3220 N   0  0  0  0  0  0  0  0  0  0  0  0
   40.1290   25.4270   41.5400 C   0  0  0  0  0  0  0  0  0  0  0  0
   40.4080   25.0440   42.7930 N   0  0  0  0  0  0  0  0  0  0  0  0
   40.2340   25.5840   44.8710 H   0  0  0  0  0  0  0  0  0  0  0  0
   39.0520   27.7120   44.3690 H   0  0  0  0  0  0  0  0  0  0  0  0
   40.4220   24.8000   40.7000 H   0  0  0  0  0  0  0  0  0  0  0  0
   36.7550   27.5080   40.4840 O   0  0  0  0  0  0  0  0  0  0  0  0
   37.0470   26.6800   40.0210 H   0  0  0  0  0  0  0  0  0  0  0  0
   38.1580   30.7160   40.1520 O   0  0  0  0  0  0  0  0  0  0  0  0
   39.1330   32.6960   40.9810 C   0  0  1  0  0  0  0  0  0  0  0  0
   37.7710   32.0270   40.4290 C   0  0  1  0  0  0  0  0  0  0  0  0
   37.6820   32.7200   39.2780 O   0  0  0  0  0  0  0  0  0  0  0  0
   38.9240   32.3590   38.6870 C   0  0  0  0  0  0  0  0  0  0  0  0
   39.9090   32.8570   39.7080 C   0  0  1  0  0  0  0  0  0  0  0  0
   39.5430   32.0600   41.7450 H   0  0  0  0  0  0  0  0  0  0  0  0
   37.1440   32.1590   41.3060 H   0  0  0  0  0  0  0  0  0  0  0  0
   39.0180   31.2850   38.5390 H   0  0  0  0  0  0  0  0  0  0  0  0
   39.0000   32.8380   37.7030 H   0  0  0  0  0  0  0  0  0  0  0  0
   40.7990   32.1910   39.8330 H   0  0  0  0  0  0  0  0  0  0  0  0
   38.7330   33.9730   41.4050 O   0  0  0  0  0  0  0  0  0  0  0  0
   38.9190   33.9850   42.3980 H   0  0  0  0  0  0  0  0  0  0  0  0
   40.2140   34.1610   39.4760 O   0  0  0  0  0  0  0  0  0  0  0  0
   43.8560   32.2180   38.4420 H   0  0  0  0  0  0  0  0  0  0  0  0
   44.0210   33.1540   38.9230 N   0  0  0  0  0  0  0  0  0  0  0  0
   43.5060   34.1750   38.0460 C   0  0  0  0  0  2  0  0  0  0  0  0
   42.0050   33.9990   38.0310 C   0  0  0  0  0  2  0  0  0  0  0  0
   41.5000   34.5430   39.3560 C   0  0  0  0  0  3  0  0  0  0  0  0
   42.4340   34.2430   40.4720 C   0  0  0  0  0  2  0  0  0  0  0  0
   43.3990   33.1110   40.2050 C   0  0  0  0  0  2  0  0  0  0  0  0
  1  6  1  6  0  0  0
  1 20  1  0  0  0  0
  1  2  1  0  0  0  0
  2  7  1  1  0  0  0
  2 13  1  0  0  0  0
  2  3  1  0  0  0  0
  4  9  1  0  0  0  0
  4  3  1  0  0  0  0
  5 10  1  6  0  0  0
  5  1  1  0  0  0  0
  5  4  1  0  0  0  0
  8  4  1  0  0  0  0
 11 17  1  0  0  0  0
 12 11  1  0  0  0  0
 12 18  1  0  0  0  0
 13 12  2  0  0  0  0
 14 15  2  0  0  0  0
 14 13  1  0  0  0  0
 15 16  1  0  0  0  0
 16 11  2  0  0  0  0
 19 15  1  0  0  0  0
 21 20  1  0  0  0  0
 22  5  1  0  0  0  0
 22 24  1  0  0  0  0
 23 33  1  0  0  0  0
 23 28  1  1  0  0  0
 24 23  1  0  0  0  0
 24 29  1  1  0  0  0
 25 24  1  0  0  0  0
 26 25  1  0  0  0  0
 26 27  1  0  0  0  0
 27 32  1  1  0  0  0
 27 23  1  0  0  0  0
 30 26  1  0  0  0  0
 31 26  1  0  0  0  0
 33 34  1  0  0  0  0
 35 27  1  0  0  0  0
 36 37  1  0  0  0  0
 37 42  1  0  0  0  0
 38 37  1  0  0  0  0
 39 38  1  0  0  0  0
 39 40  1  0  0  0  0
 40 35  1  0  0  0  0
 40 41  1  0  0  0  0
 42 41  1  0  0  0  0
M  END
>  <minimizedAffinity>
-5.70563269

$$$$
