
 OpenBabel03252503343D

 20 21  0  0  0  0  0  0  0  0999 V2000
   46.5740   33.3990   41.3240 C   0  0  0  0  0  0  0  0  0  0  0  0
   45.3500   33.0470   41.4470 O   0  0  0  0  0  0  0  0  0  0  0  0
   47.0350   34.1930   42.4080 N   0  0  0  0  0  0  0  0  0  0  0  0
   48.0180   34.5210   42.4130 H   0  0  0  0  0  0  0  0  0  0  0  0
   47.3820   33.0270   40.2110 N   0  0  0  0  0  0  0  0  0  0  0  0
   47.2130   33.6590   38.9430 C   0  0  0  0  0  2  0  0  0  0  0  0
   48.3840   33.5900   38.0280 C   0  0  0  0  0  2  0  0  0  0  0  0
   48.9790   32.2000   38.1000 C   0  0  0  0  0  3  0  0  0  0  0  0
   49.7640   32.0300   37.3270 H   0  0  0  0  0  0  0  0  0  0  0  0
   49.5310   32.0530   39.5020 C   0  0  0  0  0  2  0  0  0  0  0  0
   48.3690   31.9860   40.4460 C   0  0  0  0  0  2  0  0  0  0  0  0
   44.5690   35.9660   44.5540 C   0  0  0  0  0  0  0  0  0  0  0  0
   45.3660   35.6740   43.4390 C   0  0  0  0  0  0  0  0  0  0  0  0
   46.1930   34.5580   43.5010 C   0  0  0  0  0  0  0  0  0  0  0  0
   46.2100   33.7870   44.6220 N   0  0  0  0  0  0  0  0  0  0  0  0
   45.4230   34.1000   45.6850 C   0  0  0  0  0  0  0  0  0  0  0  0
   44.6110   35.1770   45.6540 N   0  0  0  0  0  0  0  0  0  0  0  0
   43.9400   36.8450   44.4660 H   0  0  0  0  0  0  0  0  0  0  0  0
   45.3830   36.2610   42.5300 H   0  0  0  0  0  0  0  0  0  0  0  0
   45.4680   33.4600   46.5520 H   0  0  0  0  0  0  0  0  0  0  0  0
  1  2  2  0  0  0  0
  1  3  1  0  0  0  0
  3  4  1  0  0  0  0
  3 14  1  0  0  0  0
  5 11  1  0  0  0  0
  5  1  1  0  0  0  0
  6  5  1  0  0  0  0
  7  8  1  0  0  0  0
  7  6  1  0  0  0  0
  8 10  1  0  0  0  0
  9  8  1  0  0  0  0
 10 11  1  0  0  0  0
 12 17  1  0  0  0  0
 13 14  1  0  0  0  0
 13 12  2  0  0  0  0
 14 15  2  0  0  0  0
 15 16  1  0  0  0  0
 16 20  1  0  0  0  0
 17 16  2  0  0  0  0
 18 12  1  0  0  0  0
 19 13  1  0  0  0  0
M  END
>  <minimizedAffinity>
-4.05427217

>  <minimizedRMSD>
1.09474421

$$$$
