
 OpenBabel03252503343D

 20 21  0  0  0  0  0  0  0  0999 V2000
   46.6260   33.7420   41.0160 C   0  0  0  0  0  0  0  0  0  0  0  0
   45.3490   33.6560   40.9860 O   0  0  0  0  0  0  0  0  0  0  0  0
   47.1200   34.2520   42.2450 N   0  0  0  0  0  0  0  0  0  0  0  0
   48.1430   34.3510   42.3780 H   0  0  0  0  0  0  0  0  0  0  0  0
   47.4550   33.3620   39.9210 N   0  0  0  0  0  0  0  0  0  0  0  0
   47.6870   31.9860   39.6240 C   0  0  0  0  0  2  0  0  0  0  0  0
   48.1120   31.6910   38.2280 C   0  0  0  0  0  2  0  0  0  0  0  0
   49.1200   32.7320   37.7950 C   0  0  0  0  0  3  0  0  0  0  0  0
   49.5960   32.4860   36.8170 H   0  0  0  0  0  0  0  0  0  0  0  0
   48.3690   34.0440   37.7380 C   0  0  0  0  0  2  0  0  0  0  0  0
   48.0380   34.4430   39.1440 C   0  0  0  0  0  2  0  0  0  0  0  0
   44.6720   36.1040   44.3450 C   0  0  0  0  0  0  0  0  0  0  0  0
   45.4940   35.7960   43.2520 C   0  0  0  0  0  0  0  0  0  0  0  0
   46.2580   34.6370   43.3150 C   0  0  0  0  0  0  0  0  0  0  0  0
   46.1930   33.8400   44.4170 N   0  0  0  0  0  0  0  0  0  0  0  0
   45.3840   34.1700   45.4590 C   0  0  0  0  0  0  0  0  0  0  0  0
   44.6310   35.2900   45.4250 N   0  0  0  0  0  0  0  0  0  0  0  0
   44.0930   37.0170   44.2560 H   0  0  0  0  0  0  0  0  0  0  0  0
   45.5750   36.4020   42.3600 H   0  0  0  0  0  0  0  0  0  0  0  0
   45.3640   33.5090   46.3110 H   0  0  0  0  0  0  0  0  0  0  0  0
  1  3  1  0  0  0  0
  2  1  2  0  0  0  0
  3  4  1  0  0  0  0
  3 14  1  0  0  0  0
  5  1  1  0  0  0  0
  6  5  1  0  0  0  0
  7  6  1  0  0  0  0
  8  7  1  0  0  0  0
  9  8  1  0  0  0  0
 10  8  1  0  0  0  0
 10 11  1  0  0  0  0
 11  5  1  0  0  0  0
 12 17  1  0  0  0  0
 13 14  1  0  0  0  0
 13 12  2  0  0  0  0
 14 15  2  0  0  0  0
 15 16  1  0  0  0  0
 16 20  1  0  0  0  0
 17 16  2  0  0  0  0
 18 12  1  0  0  0  0
 19 13  1  0  0  0  0
M  END
>  <minimizedAffinity>
-4.24994993

>  <minimizedRMSD>
0.818500102

$$$$
