
 OpenBabel03252503343D

 20 21  0  0  0  0  0  0  0  0999 V2000
   45.9680   33.9470   40.8520 C   0  0  0  0  0  0  0  0  0  0  0  0
   44.7790   33.5570   41.1230 O   0  0  0  0  0  0  0  0  0  0  0  0
   46.5940   34.6150   41.9390 N   0  0  0  0  0  0  0  0  0  0  0  0
   47.5640   34.9620   41.8290 H   0  0  0  0  0  0  0  0  0  0  0  0
   46.5890   33.7290   39.5890 N   0  0  0  0  0  0  0  0  0  0  0  0
   47.9180   34.1850   39.3400 C   0  0  0  0  0  2  0  0  0  0  0  0
   48.6420   33.4930   38.2400 C   0  0  0  0  0  2  0  0  0  0  0  0
   47.6890   33.2900   37.0820 C   0  0  0  0  0  3  0  0  0  0  0  0
   48.2040   32.9150   36.1650 H   0  0  0  0  0  0  0  0  0  0  0  0
   46.6370   32.3180   37.5700 C   0  0  0  0  0  2  0  0  0  0  0  0
   45.7990   33.0270   38.5910 C   0  0  0  0  0  2  0  0  0  0  0  0
   44.5370   36.0900   44.6630 C   0  0  0  0  0  0  0  0  0  0  0  0
   45.1500   35.9530   43.4100 C   0  0  0  0  0  0  0  0  0  0  0  0
   45.9350   34.8280   43.1860 C   0  0  0  0  0  0  0  0  0  0  0  0
   46.0890   33.9010   44.1700 N   0  0  0  0  0  0  0  0  0  0  0  0
   45.4790   34.0660   45.3740 C   0  0  0  0  0  0  0  0  0  0  0  0
   44.7110   35.1480   45.6200 N   0  0  0  0  0  0  0  0  0  0  0  0
   43.9340   36.9810   44.7970 H   0  0  0  0  0  0  0  0  0  0  0  0
   45.0540   36.6660   42.6030 H   0  0  0  0  0  0  0  0  0  0  0  0
   45.6280   33.3050   46.1240 H   0  0  0  0  0  0  0  0  0  0  0  0
  1  2  2  0  0  0  0
  1  3  1  0  0  0  0
  3 14  1  0  0  0  0
  4  3  1  0  0  0  0
  5  1  1  0  0  0  0
  6  5  1  0  0  0  0
  7  6  1  0  0  0  0
  8 10  1  0  0  0  0
  8  7  1  0  0  0  0
  9  8  1  0  0  0  0
 10 11  1  0  0  0  0
 11  5  1  0  0  0  0
 12 18  1  0  0  0  0
 12 17  1  0  0  0  0
 13 12  2  0  0  0  0
 14 13  1  0  0  0  0
 14 15  2  0  0  0  0
 15 16  1  0  0  0  0
 16 17  2  0  0  0  0
 16 20  1  0  0  0  0
 19 13  1  0  0  0  0
M  END
>  <minimizedAffinity>
-4.35320616

>  <minimizedRMSD>
0.559201479

$$$$
