
 OpenBabel03252503343D

 20 21  0  0  0  0  0  0  0  0999 V2000
   46.5490   33.5580   40.9360 C   0  0  0  0  0  0  0  0  0  0  0  0
   45.2790   33.4000   40.9700 O   0  0  0  0  0  0  0  0  0  0  0  0
   47.0580   34.2130   42.0890 N   0  0  0  0  0  0  0  0  0  0  0  0
   48.0770   34.3800   42.1680 H   0  0  0  0  0  0  0  0  0  0  0  0
   47.3580   33.1190   39.8490 N   0  0  0  0  0  0  0  0  0  0  0  0
   47.1450   33.6200   38.5300 C   0  0  0  0  0  2  0  0  0  0  0  0
   48.3060   33.5170   37.6060 C   0  0  0  0  0  2  0  0  0  0  0  0
   48.9620   32.1670   37.7970 C   0  0  0  0  0  3  0  0  0  0  0  0
   49.7460   31.9590   37.0300 H   0  0  0  0  0  0  0  0  0  0  0  0
   49.5390   32.1770   39.1970 C   0  0  0  0  0  2  0  0  0  0  0  0
   48.3930   32.1480   40.1620 C   0  0  0  0  0  2  0  0  0  0  0  0
   44.6910   36.2020   44.1570 C   0  0  0  0  0  0  0  0  0  0  0  0
   45.4970   35.8400   43.0680 C   0  0  0  0  0  0  0  0  0  0  0  0
   46.2150   34.6530   43.1530 C   0  0  0  0  0  0  0  0  0  0  0  0
   46.1220   33.8810   44.2710 N   0  0  0  0  0  0  0  0  0  0  0  0
   45.3300   34.2630   45.3080 C   0  0  0  0  0  0  0  0  0  0  0  0
   44.6210   35.4110   45.2540 N   0  0  0  0  0  0  0  0  0  0  0  0
   44.1480   37.1350   44.0510 H   0  0  0  0  0  0  0  0  0  0  0  0
   45.5990   36.4240   42.1640 H   0  0  0  0  0  0  0  0  0  0  0  0
   45.2860   33.6210   46.1720 H   0  0  0  0  0  0  0  0  0  0  0  0
  1  2  2  0  0  0  0
  1  3  1  0  0  0  0
  3  4  1  0  0  0  0
  3 14  1  0  0  0  0
  5 11  1  0  0  0  0
  5  1  1  0  0  0  0
  6  5  1  0  0  0  0
  7  8  1  0  0  0  0
  7  6  1  0  0  0  0
  8 10  1  0  0  0  0
  9  8  1  0  0  0  0
 10 11  1  0  0  0  0
 12 17  1  0  0  0  0
 13 14  1  0  0  0  0
 13 12  2  0  0  0  0
 14 15  2  0  0  0  0
 15 16  1  0  0  0  0
 16 20  1  0  0  0  0
 17 16  2  0  0  0  0
 18 12  1  0  0  0  0
 19 13  1  0  0  0  0
M  END
>  <minimizedAffinity>
-3.94783568

>  <minimizedRMSD>
0.984766841

$$$$
