
 OpenBabel03252503343D

 20 21  0  0  0  0  0  0  0  0999 V2000
   45.9560   33.8950   40.6390 C   0  0  0  0  0  0  0  0  0  0  0  0
   44.6860   33.8660   40.7990 O   0  0  0  0  0  0  0  0  0  0  0  0
   46.6520   34.3190   41.8030 N   0  0  0  0  0  0  0  0  0  0  0  0
   47.6870   34.3670   41.7840 H   0  0  0  0  0  0  0  0  0  0  0  0
   46.5940   33.5360   39.4170 N   0  0  0  0  0  0  0  0  0  0  0  0
   47.8310   34.1360   39.0360 C   0  0  0  0  0  2  0  0  0  0  0  0
   48.6490   33.3650   38.0610 C   0  0  0  0  0  2  0  0  0  0  0  0
   47.7320   32.7980   36.9990 C   0  0  0  0  0  3  0  0  0  0  0  0
   48.2920   32.3360   36.1510 H   0  0  0  0  0  0  0  0  0  0  0  0
   46.8510   31.7870   37.7020 C   0  0  0  0  0  2  0  0  0  0  0  0
   45.9200   32.5420   38.6000 C   0  0  0  0  0  2  0  0  0  0  0  0
   44.6850   36.1890   44.3450 C   0  0  0  0  0  0  0  0  0  0  0  0
   45.3230   35.9050   43.1300 C   0  0  0  0  0  0  0  0  0  0  0  0
   45.9780   34.6860   43.0060 C   0  0  0  0  0  0  0  0  0  0  0  0
   45.9860   33.8100   44.0480 N   0  0  0  0  0  0  0  0  0  0  0  0
   45.3560   34.1190   45.2120 C   0  0  0  0  0  0  0  0  0  0  0  0
   44.7120   35.2960   45.3610 N   0  0  0  0  0  0  0  0  0  0  0  0
   44.1850   37.1510   44.4000 H   0  0  0  0  0  0  0  0  0  0  0  0
   45.3400   36.5720   42.2790 H   0  0  0  0  0  0  0  0  0  0  0  0
   45.3880   33.3950   46.0110 H   0  0  0  0  0  0  0  0  0  0  0  0
  1  2  2  0  0  0  0
  1  3  1  0  0  0  0
  3 14  1  0  0  0  0
  4  3  1  0  0  0  0
  5  1  1  0  0  0  0
  6  5  1  0  0  0  0
  7  6  1  0  0  0  0
  8 10  1  0  0  0  0
  8  7  1  0  0  0  0
  9  8  1  0  0  0  0
 10 11  1  0  0  0  0
 11  5  1  0  0  0  0
 12 18  1  0  0  0  0
 12 17  1  0  0  0  0
 13 12  2  0  0  0  0
 14 13  1  0  0  0  0
 14 15  2  0  0  0  0
 15 16  1  0  0  0  0
 16 17  2  0  0  0  0
 16 20  1  0  0  0  0
 19 13  1  0  0  0  0
M  END
>  <minimizedAffinity>
-4.16038322

>  <minimizedRMSD>
0.78644979

$$$$
