
 OpenBabel03252505283D

 22 23  0  0  0  0  0  0  0  0999 V2000
   47.2800   32.8380   47.5820 O   0  0  0  0  0  0  0  0  0  0  0  0
   45.8290   32.6180   47.1490 P   0  0  1  0  0  0  0  0  0  0  0  0
   44.8400   33.7850   47.8510 O   0  0  0  0  0  0  0  0  0  0  0  0
   45.3420   34.4080   48.4440 H   0  0  0  0  0  0  0  0  0  0  0  0
   45.7890   32.7170   45.4800 O   0  0  0  0  0  0  0  0  0  0  0  0
   44.6220   35.9590   44.6140 C   0  0  0  0  0  0  0  0  0  0  0  0
   45.1920   36.2230   43.3440 C   0  0  0  0  0  0  0  0  0  0  0  0
   46.0080   35.2000   42.8080 C   0  0  0  0  0  0  0  0  0  0  0  0
   46.1950   34.0640   43.5110 N   0  0  0  0  0  0  0  0  0  0  0  0
   45.6210   33.8730   44.7260 C   0  0  0  0  0  0  0  0  0  0  0  0
   44.8470   34.8120   45.2610 N   0  0  0  0  0  0  0  0  0  0  0  0
   43.9960   36.7110   45.0550 H   0  0  0  0  0  0  0  0  0  0  0  0
   44.9980   37.1610   42.8320 H   0  0  0  0  0  0  0  0  0  0  0  0
   46.4530   35.3620   41.8560 H   0  0  0  0  0  0  0  0  0  0  0  0
   45.3810   31.1130   47.7330 O   0  0  0  0  0  0  0  0  0  0  0  0
   46.0010   26.3500   47.2220 H   0  0  0  0  0  0  0  0  0  0  0  0
   46.1950   27.1970   47.7800 N   0  0  0  0  0  0  0  0  0  0  0  0
   44.9910   27.9790   47.9790 C   0  0  0  0  0  0  0  0  0  0  0  0
   44.8380   28.9580   46.8350 C   0  0  0  0  0  0  0  0  0  0  0  0
   45.8910   30.0380   47.0560 C   0  0  0  0  0  0  0  0  0  0  0  0
   47.1310   29.4560   47.6810 C   0  0  0  0  0  0  0  0  0  0  0  0
   47.2530   28.0160   47.2620 C   0  0  0  0  0  0  0  0  0  0  0  0
  2  1  2  1  0  0  0
  2 15  1  0  0  0  0
  2  3  1  0  0  0  0
  3  4  1  0  0  0  0
  5  2  1  0  0  0  0
  6 12  1  0  0  0  0
  6 11  1  0  0  0  0
  7  6  2  0  0  0  0
  8  7  1  0  0  0  0
  8  9  2  0  0  0  0
  9 10  1  0  0  0  0
 10 11  2  0  0  0  0
 10  5  1  0  0  0  0
 13  7  1  0  0  0  0
 14  8  1  0  0  0  0
 16 17  1  0  0  0  0
 17 18  1  0  0  0  0
 19 20  1  0  0  0  0
 19 18  1  0  0  0  0
 20 21  1  0  0  0  0
 20 15  1  0  0  0  0
 22 21  1  0  0  0  0
 22 17  1  0  0  0  0
M  END
>  <minimizedAffinity>
-4.90516376

>  <minimizedRMSD>
2.32743454

$$$$
