
 OpenBabel03252509023D

 43 45  0  0  1  0  0  0  0  0999 V2000
   37.9300   26.9850   42.7090 N   0  0  0  0  0  0  0  0  0  0  0  0
   39.1520   26.6870   43.3780 C   0  0  0  0  0  0  0  0  0  0  0  0
   40.3180   27.5780   43.0040 C   0  0  0  0  0  0  0  0  0  0  0  0
   39.9420   28.9930   42.6960 C   0  0  0  0  0  0  0  0  0  0  0  0
   38.4680   29.2420   42.8910 C   0  0  0  0  0  0  0  0  0  0  0  0
   37.7900   28.1560   41.9840 C   0  0  2  0  0  0  0  0  0  0  0  0
   38.9810   26.8670   44.4800 H   0  0  0  0  0  0  0  0  0  0  0  0
   39.5000   25.6510   43.3130 H   0  0  0  0  0  0  0  0  0  0  0  0
   40.7310   27.1590   42.0520 H   0  0  0  0  0  0  0  0  0  0  0  0
   41.0990   27.4730   43.7660 H   0  0  0  0  0  0  0  0  0  0  0  0
   40.4560   29.6270   43.4740 H   0  0  0  0  0  0  0  0  0  0  0  0
   40.2620   29.3660   41.7210 H   0  0  0  0  0  0  0  0  0  0  0  0
   38.1640   30.2060   42.4860 H   0  0  0  0  0  0  0  0  0  0  0  0
   38.1590   29.0390   43.9370 H   0  0  0  0  0  0  0  0  0  0  0  0
   38.3060   28.2570   41.0170 H   0  0  0  0  0  0  0  0  0  0  0  0
   37.1780   25.8320   42.3300 C   0  0  0  0  0  0  0  0  0  0  0  0
   36.6040   26.0100   41.4050 H   0  0  0  0  0  0  0  0  0  0  0  0
   36.4610   25.5970   43.1390 H   0  0  0  0  0  0  0  0  0  0  0  0
   38.1210   24.6910   42.0960 C   0  0  0  0  0  0  0  0  0  0  0  0
   39.1160   25.0270   41.7790 H   0  0  0  0  0  0  0  0  0  0  0  0
   38.2990   24.0870   43.0290 H   0  0  0  0  0  0  0  0  0  0  0  0
   35.7700   23.2020   39.5770 C   0  0  0  0  0  0  0  0  0  0  0  0
   36.3170   24.0660   40.5380 C   0  0  0  0  0  0  0  0  0  0  0  0
   37.5500   23.7770   41.0830 C   0  0  0  0  0  0  0  0  0  0  0  0
   38.1790   22.6620   40.6590 N   0  0  0  0  0  0  0  0  0  0  0  0
   37.6370   21.8430   39.7340 C   0  0  0  0  0  0  0  0  0  0  0  0
   36.4380   22.0990   39.1850 N   0  0  0  0  0  0  0  0  0  0  0  0
   34.8100   23.3820   39.1180 H   0  0  0  0  0  0  0  0  0  0  0  0
   35.7220   24.9190   40.7920 H   0  0  0  0  0  0  0  0  0  0  0  0
   38.2990   21.0000   39.5270 H   0  0  0  0  0  0  0  0  0  0  0  0
   36.4730   28.5860   41.9610 O   0  0  0  0  0  0  0  0  0  0  0  0
   36.1310   31.1150   41.2290 O   0  0  0  0  0  0  0  0  0  0  0  0
   36.1510   29.6700   40.7180 P   0  0  2  0  0  0  0  0  0  0  0  0
   34.5450   29.3610   40.2180 O   0  0  0  0  0  0  0  0  0  0  0  0
   34.5650   28.5050   39.6990 H   0  0  0  0  0  0  0  0  0  0  0  0
   37.1390   29.4760   39.3950 O   0  0  0  0  0  0  0  0  0  0  0  0
   39.5650   32.8330   36.3840 H   0  0  0  0  0  0  0  0  0  0  0  0
   39.1870   32.0090   36.8630 N   0  0  0  0  0  0  0  0  0  0  0  0
   37.7560   31.9530   36.7720 C   0  0  0  0  0  2  0  0  0  0  0  0
   37.3200   30.6090   37.3310 C   0  0  0  0  0  2  0  0  0  0  0  0
   37.5960   30.6450   38.8260 C   0  0  0  0  0  3  0  0  0  0  0  0
   39.0930   30.8010   38.9840 C   0  0  0  0  0  2  0  0  0  0  0  0
   39.5710   32.0160   38.2480 C   0  0  0  0  0  2  0  0  0  0  0  0
  1  2  1  0  0  0  0
  2  7  1  0  0  0  0
  3  2  1  0  0  0  0
  3 10  1  0  0  0  0
  4  5  1  0  0  0  0
  4  3  1  0  0  0  0
  4 11  1  0  0  0  0
  5 14  1  0  0  0  0
  6 15  1  6  0  0  0
  6  1  1  0  0  0  0
  6  5  1  0  0  0  0
  8  2  1  0  0  0  0
  9  3  1  0  0  0  0
 12  4  1  0  0  0  0
 13  5  1  0  0  0  0
 16  1  1  0  0  0  0
 16 18  1  0  0  0  0
 17 16  1  0  0  0  0
 19 16  1  0  0  0  0
 19 21  1  0  0  0  0
 20 19  1  0  0  0  0
 22 23  1  0  0  0  0
 23 29  1  0  0  0  0
 23 24  2  0  0  0  0
 24 19  1  0  0  0  0
 25 24  1  0  0  0  0
 26 25  2  0  0  0  0
 27 22  2  0  0  0  0
 27 26  1  0  0  0  0
 28 22  1  0  0  0  0
 30 26  1  0  0  0  0
 31  6  1  0  0  0  0
 33 32  2  1  0  0  0
 33 31  1  0  0  0  0
 34 33  1  0  0  0  0
 35 34  1  0  0  0  0
 36 33  1  0  0  0  0
 37 38  1  0  0  0  0
 38 43  1  0  0  0  0
 39 38  1  0  0  0  0
 39 40  1  0  0  0  0
 40 41  1  0  0  0  0
 41 42  1  0  0  0  0
 41 36  1  0  0  0  0
 43 42  1  0  0  0  0
M  END
>  <minimizedAffinity>
-5.65688705

$$$$

 OpenBabel03252509023D

 43 45  0  0  1  0  0  0  0  0999 V2000
   38.1360   29.7400   41.6760 N   0  0  0  0  0  0  0  0  0  0  0  0
   36.7350   29.7150   41.4230 C   0  0  0  0  0  0  0  0  0  0  0  0
   36.1990   30.9250   40.6850 C   0  0  0  0  0  0  0  0  0  0  0  0
   37.1450   31.5090   39.6840 C   0  0  0  0  0  0  0  0  0  0  0  0
   38.4220   30.7140   39.5820 C   0  0  0  0  0  0  0  0  0  0  0  0
   38.9500   30.6760   41.0600 C   0  0  2  0  0  0  0  0  0  0  0  0
   36.5350   28.8380   40.7420 H   0  0  0  0  0  0  0  0  0  0  0  0
   36.0890   29.5510   42.2920 H   0  0  0  0  0  0  0  0  0  0  0  0
   36.0500   31.7170   41.4620 H   0  0  0  0  0  0  0  0  0  0  0  0
   35.2090   30.6800   40.2830 H   0  0  0  0  0  0  0  0  0  0  0  0
   36.6430   31.3960   38.6810 H   0  0  0  0  0  0  0  0  0  0  0  0
   37.3700   32.5700   39.8090 H   0  0  0  0  0  0  0  0  0  0  0  0
   39.1800   31.2410   39.0040 H   0  0  0  0  0  0  0  0  0  0  0  0
   38.2230   29.6670   39.2750 H   0  0  0  0  0  0  0  0  0  0  0  0
   38.9060   31.7260   41.3840 H   0  0  0  0  0  0  0  0  0  0  0  0
   38.5060   29.2270   42.9560 C   0  0  0  0  0  0  0  0  0  0  0  0
   38.4200   29.9970   43.7410 H   0  0  0  0  0  0  0  0  0  0  0  0
   39.5610   28.8970   42.9130 H   0  0  0  0  0  0  0  0  0  0  0  0
   37.5980   28.0860   43.3040 C   0  0  0  0  0  0  0  0  0  0  0  0
   37.1940   28.1670   44.3210 H   0  0  0  0  0  0  0  0  0  0  0  0
   36.6960   28.0400   42.6330 H   0  0  0  0  0  0  0  0  0  0  0  0
   40.2950   25.4840   43.5270 C   0  0  0  0  0  0  0  0  0  0  0  0
   39.5980   26.6940   43.6710 C   0  0  0  0  0  0  0  0  0  0  0  0
   38.3270   26.8090   43.1500 C   0  0  0  0  0  0  0  0  0  0  0  0
   37.8080   25.7360   42.5180 N   0  0  0  0  0  0  0  0  0  0  0  0
   38.4930   24.5810   42.3890 C   0  0  0  0  0  0  0  0  0  0  0  0
   39.7320   24.4400   42.8870 N   0  0  0  0  0  0  0  0  0  0  0  0
   41.2910   25.3420   43.9160 H   0  0  0  0  0  0  0  0  0  0  0  0
   40.1160   27.4720   44.1930 H   0  0  0  0  0  0  0  0  0  0  0  0
   37.9020   23.8390   41.8490 H   0  0  0  0  0  0  0  0  0  0  0  0
   40.2390   30.1970   40.8890 O   0  0  0  0  0  0  0  0  0  0  0  0
   42.8120   30.6360   41.3710 O   0  0  0  0  0  0  0  0  0  0  0  0
   41.4200   31.2740   41.4100 P   0  0  2  0  0  0  0  0  0  0  0  0
   41.1130   31.5550   43.0680 O   0  0  0  0  0  0  0  0  0  0  0  0
   40.3070   32.1470   43.1160 H   0  0  0  0  0  0  0  0  0  0  0  0
   41.3700   32.7410   40.6300 O   0  0  0  0  0  0  0  0  0  0  0  0
   43.1530   34.2710   36.0800 H   0  0  0  0  0  0  0  0  0  0  0  0
   42.6870   34.1600   36.9860 N   0  0  0  0  0  0  0  0  0  0  0  0
   43.6320   34.0320   38.0580 C   0  0  0  0  0  2  0  0  0  0  0  0
   42.8480   34.0740   39.3600 C   0  0  0  0  0  2  0  0  0  0  0  0
   42.0370   32.7900   39.4250 C   0  0  0  0  0  3  0  0  0  0  0  0
   41.0800   32.8250   38.2530 C   0  0  0  0  0  2  0  0  0  0  0  0
   41.8340   33.0030   36.9690 C   0  0  0  0  0  2  0  0  0  0  0  0
  1 16  1  0  0  0  0
  2  1  1  0  0  0  0
  2  8  1  0  0  0  0
  3  2  1  0  0  0  0
  3  9  1  0  0  0  0
  4 12  1  0  0  0  0
  4  3  1  0  0  0  0
  5  4  1  0  0  0  0
  5  6  1  0  0  0  0
  6 15  1  1  0  0  0
  6  1  1  0  0  0  0
  7  2  1  0  0  0  0
 10  3  1  0  0  0  0
 11  4  1  0  0  0  0
 13  5  1  0  0  0  0
 14  5  1  0  0  0  0
 16 19  1  0  0  0  0
 16 17  1  0  0  0  0
 18 16  1  0  0  0  0
 19 20  1  0  0  0  0
 21 19  1  0  0  0  0
 22 23  1  0  0  0  0
 22 28  1  0  0  0  0
 23 29  1  0  0  0  0
 24 19  1  0  0  0  0
 24 23  2  0  0  0  0
 25 24  1  0  0  0  0
 26 25  2  0  0  0  0
 26 27  1  0  0  0  0
 27 22  2  0  0  0  0
 30 26  1  0  0  0  0
 31  6  1  0  0  0  0
 31 33  1  0  0  0  0
 33 32  2  6  0  0  0
 33 34  1  0  0  0  0
 34 35  1  0  0  0  0
 36 33  1  0  0  0  0
 37 38  1  0  0  0  0
 38 39  1  0  0  0  0
 39 40  1  0  0  0  0
 40 41  1  0  0  0  0
 41 36  1  0  0  0  0
 42 41  1  0  0  0  0
 43 38  1  0  0  0  0
 43 42  1  0  0  0  0
M  END
>  <minimizedAffinity>
-5.5783186

$$$$

 OpenBabel03252509023D

 43 45  0  0  1  0  0  0  0  0999 V2000
   37.5600   30.1690   39.0380 N   0  0  0  0  0  0  0  0  0  0  0  0
   37.5350   31.3740   38.2790 C   0  0  0  0  0  0  0  0  0  0  0  0
   37.2700   32.6300   39.0840 C   0  0  0  0  0  0  0  0  0  0  0  0
   37.8400   32.6110   40.4670 C   0  0  0  0  0  0  0  0  0  0  0  0
   38.6210   31.3500   40.7390 C   0  0  0  0  0  0  0  0  0  0  0  0
   37.5950   30.2060   40.4220 C   0  0  2  0  0  0  0  0  0  0  0  0
   38.5660   31.5130   37.8410 H   0  0  0  0  0  0  0  0  0  0  0  0
   36.8590   31.3910   37.4180 H   0  0  0  0  0  0  0  0  0  0  0  0
   36.1600   32.6820   39.2130 H   0  0  0  0  0  0  0  0  0  0  0  0
   37.5650   33.5000   38.4850 H   0  0  0  0  0  0  0  0  0  0  0  0
   38.5980   33.4440   40.5010 H   0  0  0  0  0  0  0  0  0  0  0  0
   37.1290   32.7950   41.2750 H   0  0  0  0  0  0  0  0  0  0  0  0
   38.8690   31.2490   41.7950 H   0  0  0  0  0  0  0  0  0  0  0  0
   39.4680   31.2400   40.0320 H   0  0  0  0  0  0  0  0  0  0  0  0
   36.6910   30.4990   40.9770 H   0  0  0  0  0  0  0  0  0  0  0  0
   36.9510   29.0560   38.3830 C   0  0  0  0  0  0  0  0  0  0  0  0
   37.3350   28.0980   38.7720 H   0  0  0  0  0  0  0  0  0  0  0  0
   37.1870   29.1090   37.3040 H   0  0  0  0  0  0  0  0  0  0  0  0
   35.4700   29.1060   38.6140 C   0  0  0  0  0  0  0  0  0  0  0  0
   35.1150   28.2770   39.2390 H   0  0  0  0  0  0  0  0  0  0  0  0
   35.1550   30.0400   39.1590 H   0  0  0  0  0  0  0  0  0  0  0  0
   32.7200   28.9520   36.0630 C   0  0  0  0  0  0  0  0  0  0  0  0
   33.3940   28.9620   37.2940 C   0  0  0  0  0  0  0  0  0  0  0  0
   34.7660   29.0970   37.3140 C   0  0  0  0  0  0  0  0  0  0  0  0
   35.4030   29.2160   36.1310 N   0  0  0  0  0  0  0  0  0  0  0  0
   34.7380   29.2050   34.9560 C   0  0  0  0  0  0  0  0  0  0  0  0
   33.4020   29.0750   34.9070 N   0  0  0  0  0  0  0  0  0  0  0  0
   31.6490   28.8490   35.9920 H   0  0  0  0  0  0  0  0  0  0  0  0
   32.7790   28.8600   38.1650 H   0  0  0  0  0  0  0  0  0  0  0  0
   35.4300   29.3130   34.1190 H   0  0  0  0  0  0  0  0  0  0  0  0
   38.2360   29.0950   40.9450 O   0  0  0  0  0  0  0  0  0  0  0  0
   35.8850   28.2030   41.7970 O   0  0  0  0  0  0  0  0  0  0  0  0
   37.3650   28.3430   42.1700 P   0  0  2  0  0  0  0  0  0  0  0  0
   37.3820   29.4200   43.4990 O   0  0  0  0  0  0  0  0  0  0  0  0
   38.3020   29.3780   43.8910 H   0  0  0  0  0  0  0  0  0  0  0  0
   38.0340   26.9070   42.6740 O   0  0  0  0  0  0  0  0  0  0  0  0
   38.0680   22.2700   40.5040 H   0  0  0  0  0  0  0  0  0  0  0  0
   38.0930   23.0820   41.1270 N   0  0  0  0  0  0  0  0  0  0  0  0
   36.8660   23.8250   41.0810 C   0  0  0  0  0  2  0  0  0  0  0  0
   36.9340   24.8780   42.1760 C   0  0  0  0  0  2  0  0  0  0  0  0
   37.9920   25.8840   41.7520 C   0  0  0  0  0  3  0  0  0  0  0  0
   39.3030   25.1290   41.6900 C   0  0  0  0  0  2  0  0  0  0  0  0
   39.1830   23.9500   40.7720 C   0  0  0  0  0  2  0  0  0  0  0  0
  1  6  1  0  0  0  0
  2  1  1  0  0  0  0
  2  3  1  0  0  0  0
  3  9  1  0  0  0  0
  3  4  1  0  0  0  0
  4 11  1  0  0  0  0
  4  5  1  0  0  0  0
  4 12  1  0  0  0  0
  5 13  1  0  0  0  0
  6  5  1  0  0  0  0
  6 31  1  0  0  0  0
  6 15  1  1  0  0  0
  7  2  1  0  0  0  0
  8  2  1  0  0  0  0
 10  3  1  0  0  0  0
 14  5  1  0  0  0  0
 16 19  1  0  0  0  0
 16 17  1  0  0  0  0
 16  1  1  0  0  0  0
 18 16  1  0  0  0  0
 19 21  1  0  0  0  0
 19 20  1  0  0  0  0
 22 23  1  0  0  0  0
 23 24  2  0  0  0  0
 23 29  1  0  0  0  0
 24 19  1  0  0  0  0
 25 24  1  0  0  0  0
 26 25  2  0  0  0  0
 27 26  1  0  0  0  0
 27 22  2  0  0  0  0
 28 22  1  0  0  0  0
 30 26  1  0  0  0  0
 31 33  1  0  0  0  0
 33 32  2  6  0  0  0
 33 36  1  0  0  0  0
 33 34  1  0  0  0  0
 34 35  1  0  0  0  0
 37 38  1  0  0  0  0
 39 38  1  0  0  0  0
 39 40  1  0  0  0  0
 41 40  1  0  0  0  0
 41 36  1  0  0  0  0
 42 41  1  0  0  0  0
 43 38  1  0  0  0  0
 43 42  1  0  0  0  0
M  END
>  <minimizedAffinity>
-5.30497932

$$$$

 OpenBabel03252509023D

 43 45  0  0  1  0  0  0  0  0999 V2000
   38.9650   28.5220   41.7370 N   0  0  0  0  0  0  0  0  0  0  0  0
   39.2960   27.6060   42.7760 C   0  0  0  0  0  0  0  0  0  0  0  0
   38.1420   27.2220   43.6790 C   0  0  0  0  0  0  0  0  0  0  0  0
   36.8150   27.1490   42.9910 C   0  0  0  0  0  0  0  0  0  0  0  0
   36.9300   27.4160   41.5120 C   0  0  0  0  0  0  0  0  0  0  0  0
   37.6430   28.8130   41.4460 C   0  0  2  0  0  0  0  0  0  0  0  0
   39.6200   26.6440   42.2820 H   0  0  0  0  0  0  0  0  0  0  0  0
   40.1340   27.8880   43.4210 H   0  0  0  0  0  0  0  0  0  0  0  0
   38.0510   28.0480   44.4290 H   0  0  0  0  0  0  0  0  0  0  0  0
   38.4150   26.3160   44.2320 H   0  0  0  0  0  0  0  0  0  0  0  0
   36.4820   26.0750   43.0750 H   0  0  0  0  0  0  0  0  0  0  0  0
   36.0230   27.7620   43.4250 H   0  0  0  0  0  0  0  0  0  0  0  0
   35.9530   27.5540   41.0500 H   0  0  0  0  0  0  0  0  0  0  0  0
   37.5980   26.6800   41.0190 H   0  0  0  0  0  0  0  0  0  0  0  0
   37.0630   29.4400   42.1380 H   0  0  0  0  0  0  0  0  0  0  0  0
   39.9690   29.5050   41.4860 C   0  0  0  0  0  0  0  0  0  0  0  0
   39.9980   29.7930   40.4210 H   0  0  0  0  0  0  0  0  0  0  0  0
   40.9550   29.0800   41.7530 H   0  0  0  0  0  0  0  0  0  0  0  0
   39.6690   30.7260   42.3020 C   0  0  0  0  0  0  0  0  0  0  0  0
   38.6970   30.6640   42.8080 H   0  0  0  0  0  0  0  0  0  0  0  0
   40.4190   30.8820   43.1270 H   0  0  0  0  0  0  0  0  0  0  0  0
   40.9800   33.5060   40.1470 C   0  0  0  0  0  0  0  0  0  0  0  0
   40.9310   32.3700   40.9680 C   0  0  0  0  0  0  0  0  0  0  0  0
   39.7130   31.9240   41.4360 C   0  0  0  0  0  0  0  0  0  0  0  0
   38.6110   32.6120   41.0750 N   0  0  0  0  0  0  0  0  0  0  0  0
   38.6770   33.7030   40.2830 C   0  0  0  0  0  0  0  0  0  0  0  0
   39.8490   34.1600   39.8120 N   0  0  0  0  0  0  0  0  0  0  0  0
   41.9050   33.8960   39.7540 H   0  0  0  0  0  0  0  0  0  0  0  0
   41.8730   31.9090   41.1850 H   0  0  0  0  0  0  0  0  0  0  0  0
   37.6820   34.1150   40.1070 H   0  0  0  0  0  0  0  0  0  0  0  0
   37.4780   29.1530   40.1130 O   0  0  0  0  0  0  0  0  0  0  0  0
   36.4650   31.2370   38.8170 O   0  0  0  0  0  0  0  0  0  0  0  0
   36.1470   30.1420   39.8410 P   0  0  2  0  0  0  0  0  0  0  0  0
   35.8680   30.9810   41.3050 O   0  0  0  0  0  0  0  0  0  0  0  0
   35.4650   30.3220   41.9420 H   0  0  0  0  0  0  0  0  0  0  0  0
   34.7620   29.3030   39.4670 O   0  0  0  0  0  0  0  0  0  0  0  0
   33.4030   26.7800   35.2230 H   0  0  0  0  0  0  0  0  0  0  0  0
   33.5340   27.1430   36.1720 N   0  0  0  0  0  0  0  0  0  0  0  0
   33.1620   28.5260   36.2670 C   0  0  0  0  0  2  0  0  0  0  0  0
   33.2020   28.9050   37.7390 C   0  0  0  0  0  2  0  0  0  0  0  0
   34.6640   28.8840   38.1570 C   0  0  0  0  0  3  0  0  0  0  0  0
   35.1400   27.4570   37.9850 C   0  0  0  0  0  2  0  0  0  0  0  0
   34.9040   26.9940   36.5790 C   0  0  0  0  0  2  0  0  0  0  0  0
  1  2  1  0  0  0  0
  2  8  1  0  0  0  0
  2  3  1  0  0  0  0
  3 10  1  0  0  0  0
  3  9  1  0  0  0  0
  4 11  1  0  0  0  0
  4 12  1  0  0  0  0
  4  3  1  0  0  0  0
  5  4  1  0  0  0  0
  6  5  1  0  0  0  0
  6  1  1  0  0  0  0
  6 15  1  1  0  0  0
  7  2  1  0  0  0  0
 13  5  1  0  0  0  0
 14  5  1  0  0  0  0
 16  1  1  0  0  0  0
 16 18  1  0  0  0  0
 16 19  1  0  0  0  0
 17 16  1  0  0  0  0
 19 20  1  0  0  0  0
 19 21  1  0  0  0  0
 22 23  1  0  0  0  0
 23 29  1  0  0  0  0
 23 24  2  0  0  0  0
 24 19  1  0  0  0  0
 25 24  1  0  0  0  0
 26 25  2  0  0  0  0
 27 22  2  0  0  0  0
 27 26  1  0  0  0  0
 28 22  1  0  0  0  0
 30 26  1  0  0  0  0
 31  6  1  0  0  0  0
 33 32  2  6  0  0  0
 33 31  1  0  0  0  0
 33 34  1  0  0  0  0
 34 35  1  0  0  0  0
 36 33  1  0  0  0  0
 37 38  1  0  0  0  0
 38 39  1  0  0  0  0
 38 43  1  0  0  0  0
 39 40  1  0  0  0  0
 40 41  1  0  0  0  0
 41 36  1  0  0  0  0
 42 41  1  0  0  0  0
 43 42  1  0  0  0  0
M  END
>  <minimizedAffinity>
-5.30331612

$$$$

 OpenBabel03252509023D

 43 45  0  0  1  0  0  0  0  0999 V2000
   37.8510   26.8450   42.5640 N   0  0  0  0  0  0  0  0  0  0  0  0
   39.0530   26.5970   43.2870 C   0  0  0  0  0  0  0  0  0  0  0  0
   40.1530   27.6150   43.0630 C   0  0  0  0  0  0  0  0  0  0  0  0
   39.6680   29.0130   42.8450 C   0  0  0  0  0  0  0  0  0  0  0  0
   38.1680   29.1160   42.9600 C   0  0  0  0  0  0  0  0  0  0  0  0
   37.6470   28.0570   41.9270 C   0  0  2  0  0  0  0  0  0  0  0  0
   38.8010   26.6680   44.3860 H   0  0  0  0  0  0  0  0  0  0  0  0
   39.4970   25.6050   43.1620 H   0  0  0  0  0  0  0  0  0  0  0  0
   40.6580   27.3160   42.1110 H   0  0  0  0  0  0  0  0  0  0  0  0
   40.8930   27.5130   43.8650 H   0  0  0  0  0  0  0  0  0  0  0  0
   40.0750   29.6200   43.7030 H   0  0  0  0  0  0  0  0  0  0  0  0
   40.0090   29.4940   41.9260 H   0  0  0  0  0  0  0  0  0  0  0  0
   37.8020   30.0820   42.6140 H   0  0  0  0  0  0  0  0  0  0  0  0
   37.8180   28.7990   43.9640 H   0  0  0  0  0  0  0  0  0  0  0  0
   38.2070   28.2840   41.0080 H   0  0  0  0  0  0  0  0  0  0  0  0
   37.2300   25.6680   42.0450 C   0  0  0  0  0  0  0  0  0  0  0  0
   37.0440   25.7530   40.9610 H   0  0  0  0  0  0  0  0  0  0  0  0
   36.2570   25.5300   42.5520 H   0  0  0  0  0  0  0  0  0  0  0  0
   38.1340   24.4960   42.2840 C   0  0  0  0  0  0  0  0  0  0  0  0
   39.0780   24.7850   42.7650 H   0  0  0  0  0  0  0  0  0  0  0  0
   37.6730   23.7370   42.9760 H   0  0  0  0  0  0  0  0  0  0  0  0
   39.6880   23.6370   38.9770 C   0  0  0  0  0  0  0  0  0  0  0  0
   39.4240   24.2810   40.1950 C   0  0  0  0  0  0  0  0  0  0  0  0
   38.4080   23.8130   41.0020 C   0  0  0  0  0  0  0  0  0  0  0  0
   37.7080   22.7430   40.5730 N   0  0  0  0  0  0  0  0  0  0  0  0
   37.9760   22.1370   39.3970 C   0  0  0  0  0  0  0  0  0  0  0  0
   38.9600   22.5700   38.5920 N   0  0  0  0  0  0  0  0  0  0  0  0
   40.4710   23.9620   38.3100 H   0  0  0  0  0  0  0  0  0  0  0  0
   40.0480   25.1190   40.4260 H   0  0  0  0  0  0  0  0  0  0  0  0
   37.3020   21.2950   39.2330 H   0  0  0  0  0  0  0  0  0  0  0  0
   36.2990   28.3720   41.8510 O   0  0  0  0  0  0  0  0  0  0  0  0
   37.1630   29.7270   39.7380 O   0  0  0  0  0  0  0  0  0  0  0  0
   35.9420   29.4670   40.6270 P   0  0  2  0  0  0  0  0  0  0  0  0
   35.6360   30.9630   41.3970 O   0  0  0  0  0  0  0  0  0  0  0  0
   34.7350   30.8860   41.8270 H   0  0  0  0  0  0  0  0  0  0  0  0
   34.5900   29.0630   39.7490 O   0  0  0  0  0  0  0  0  0  0  0  0
   36.9360   27.0930   35.6460 H   0  0  0  0  0  0  0  0  0  0  0  0
   36.6740   27.5440   36.5280 N   0  0  0  0  0  0  0  0  0  0  0  0
   36.0160   26.6290   37.4160 C   0  0  0  0  0  2  0  0  0  0  0  0
   35.8530   27.3340   38.7530 C   0  0  0  0  0  2  0  0  0  0  0  0
   34.8350   28.4440   38.5420 C   0  0  0  0  0  3  0  0  0  0  0  0
   35.4400   29.3970   37.5330 C   0  0  0  0  0  2  0  0  0  0  0  0
   35.8090   28.6640   36.2790 C   0  0  0  0  0  2  0  0  0  0  0  0
  1  2  1  0  0  0  0
  2  7  1  0  0  0  0
  3  2  1  0  0  0  0
  3 10  1  0  0  0  0
  4  5  1  0  0  0  0
  4  3  1  0  0  0  0
  4 11  1  0  0  0  0
  5 14  1  0  0  0  0
  6 15  1  6  0  0  0
  6  1  1  0  0  0  0
  6  5  1  0  0  0  0
  8  2  1  0  0  0  0
  9  3  1  0  0  0  0
 12  4  1  0  0  0  0
 13  5  1  0  0  0  0
 16 19  1  0  0  0  0
 16 18  1  0  0  0  0
 16  1  1  0  0  0  0
 17 16  1  0  0  0  0
 19 20  1  0  0  0  0
 19 21  1  0  0  0  0
 22 23  1  0  0  0  0
 23 29  1  0  0  0  0
 23 24  2  0  0  0  0
 24 19  1  0  0  0  0
 25 24  1  0  0  0  0
 26 25  2  0  0  0  0
 27 22  2  0  0  0  0
 27 26  1  0  0  0  0
 28 22  1  0  0  0  0
 30 26  1  0  0  0  0
 31  6  1  0  0  0  0
 33 32  2  6  0  0  0
 33 34  1  0  0  0  0
 33 31  1  0  0  0  0
 34 35  1  0  0  0  0
 36 33  1  0  0  0  0
 37 38  1  0  0  0  0
 38 39  1  0  0  0  0
 39 40  1  0  0  0  0
 41 40  1  0  0  0  0
 41 36  1  0  0  0  0
 42 41  1  0  0  0  0
 43 38  1  0  0  0  0
 43 42  1  0  0  0  0
M  END
>  <minimizedAffinity>
-5.28990936

$$$$

 OpenBabel03252509023D

 43 45  0  0  1  0  0  0  0  0999 V2000
   37.0260   26.7130   41.6640 N   0  0  0  0  0  0  0  0  0  0  0  0
   37.2480   25.3920   42.1480 C   0  0  0  0  0  0  0  0  0  0  0  0
   36.7900   24.2870   41.2180 C   0  0  0  0  0  0  0  0  0  0  0  0
   36.9360   24.6020   39.7620 C   0  0  0  0  0  0  0  0  0  0  0  0
   37.5770   25.9480   39.5370 C   0  0  0  0  0  0  0  0  0  0  0  0
   36.6610   26.9310   40.3460 C   0  0  2  0  0  0  0  0  0  0  0  0
   38.3650   25.2560   42.2440 H   0  0  0  0  0  0  0  0  0  0  0  0
   36.8490   25.1670   43.1420 H   0  0  0  0  0  0  0  0  0  0  0  0
   35.6910   24.1720   41.3960 H   0  0  0  0  0  0  0  0  0  0  0  0
   37.2650   23.3480   41.5270 H   0  0  0  0  0  0  0  0  0  0  0  0
   37.6710   23.8500   39.3550 H   0  0  0  0  0  0  0  0  0  0  0  0
   36.0270   24.5120   39.1650 H   0  0  0  0  0  0  0  0  0  0  0  0
   37.5080   26.2580   38.4950 H   0  0  0  0  0  0  0  0  0  0  0  0
   38.5900   25.9930   39.9870 H   0  0  0  0  0  0  0  0  0  0  0  0
   35.6420   26.6750   40.0190 H   0  0  0  0  0  0  0  0  0  0  0  0
   36.6060   27.6380   42.6680 C   0  0  0  0  0  0  0  0  0  0  0  0
   35.6960   27.2890   43.1850 H   0  0  0  0  0  0  0  0  0  0  0  0
   36.3770   28.6050   42.1830 H   0  0  0  0  0  0  0  0  0  0  0  0
   37.7030   27.7880   43.6790 C   0  0  0  0  0  0  0  0  0  0  0  0
   37.3520   28.2440   44.6140 H   0  0  0  0  0  0  0  0  0  0  0  0
   38.1410   26.7970   43.9830 H   0  0  0  0  0  0  0  0  0  0  0  0
   41.0940   28.7900   42.4180 C   0  0  0  0  0  0  0  0  0  0  0  0
   40.0480   28.0280   42.9630 C   0  0  0  0  0  0  0  0  0  0  0  0
   38.8000   28.5950   43.1040 C   0  0  0  0  0  0  0  0  0  0  0  0
   38.6410   29.8740   42.7030 N   0  0  0  0  0  0  0  0  0  0  0  0
   39.6580   30.5910   42.1810 C   0  0  0  0  0  0  0  0  0  0  0  0
   40.8850   30.0650   42.0320 N   0  0  0  0  0  0  0  0  0  0  0  0
   42.0880   28.3940   42.2860 H   0  0  0  0  0  0  0  0  0  0  0  0
   40.2980   27.0250   43.2430 H   0  0  0  0  0  0  0  0  0  0  0  0
   39.3280   31.5980   41.9210 H   0  0  0  0  0  0  0  0  0  0  0  0
   37.0990   28.1650   39.8940 O   0  0  0  0  0  0  0  0  0  0  0  0
   34.7630   29.4050   40.1330 O   0  0  0  0  0  0  0  0  0  0  0  0
   35.8900   29.0660   39.1510 P   0  0  2  0  0  0  0  0  0  0  0  0
   35.1660   28.0340   37.9950 O   0  0  0  0  0  0  0  0  0  0  0  0
   35.8130   27.9550   37.2360 H   0  0  0  0  0  0  0  0  0  0  0  0
   36.4590   30.4050   38.3480 O   0  0  0  0  0  0  0  0  0  0  0  0
   40.0850   33.8270   39.5130 H   0  0  0  0  0  0  0  0  0  0  0  0
   39.3160   33.2830   39.1110 N   0  0  0  0  0  0  0  0  0  0  0  0
   38.2390   33.1160   40.0450 C   0  0  0  0  0  2  0  0  0  0  0  0
   37.0830   32.4770   39.2930 C   0  0  0  0  0  2  0  0  0  0  0  0
   37.5080   31.0560   38.9590 C   0  0  0  0  0  3  0  0  0  0  0  0
   38.7100   31.1700   38.0460 C   0  0  0  0  0  2  0  0  0  0  0  0
   39.7840   31.9890   38.6960 C   0  0  0  0  0  2  0  0  0  0  0  0
  1  2  1  0  0  0  0
  1 16  1  0  0  0  0
  2  7  1  0  0  0  0
  2  8  1  0  0  0  0
  3  9  1  0  0  0  0
  3 10  1  0  0  0  0
  3  2  1  0  0  0  0
  4  3  1  0  0  0  0
  5  4  1  0  0  0  0
  5 14  1  0  0  0  0
  5  6  1  0  0  0  0
  6 15  1  6  0  0  0
  6  1  1  0  0  0  0
 11  4  1  0  0  0  0
 12  4  1  0  0  0  0
 13  5  1  0  0  0  0
 16 17  1  0  0  0  0
 16 19  1  0  0  0  0
 18 16  1  0  0  0  0
 19 21  1  0  0  0  0
 19 20  1  0  0  0  0
 22 23  1  0  0  0  0
 23 24  2  0  0  0  0
 23 29  1  0  0  0  0
 24 19  1  0  0  0  0
 25 24  1  0  0  0  0
 26 25  2  0  0  0  0
 27 26  1  0  0  0  0
 27 22  2  0  0  0  0
 28 22  1  0  0  0  0
 30 26  1  0  0  0  0
 31  6  1  0  0  0  0
 33 31  1  0  0  0  0
 33 32  2  1  0  0  0
 34 33  1  0  0  0  0
 35 34  1  0  0  0  0
 36 41  1  0  0  0  0
 36 33  1  0  0  0  0
 38 37  1  0  0  0  0
 38 39  1  0  0  0  0
 40 39  1  0  0  0  0
 41 40  1  0  0  0  0
 42 43  1  0  0  0  0
 42 41  1  0  0  0  0
 43 38  1  0  0  0  0
M  END
>  <minimizedAffinity>
-5.25949478

$$$$

 OpenBabel03252509023D

 43 45  0  0  1  0  0  0  0  0999 V2000
   37.1430   26.7620   41.7240 N   0  0  0  0  0  0  0  0  0  0  0  0
   37.2210   25.3540   41.9280 C   0  0  0  0  0  0  0  0  0  0  0  0
   36.5010   24.5190   40.8900 C   0  0  0  0  0  0  0  0  0  0  0  0
   36.5240   25.0920   39.5080 C   0  0  0  0  0  0  0  0  0  0  0  0
   37.3270   26.3660   39.4380 C   0  0  0  0  0  0  0  0  0  0  0  0
   36.6660   27.2780   40.5310 C   0  0  2  0  0  0  0  0  0  0  0  0
   38.3090   25.0650   41.8410 H   0  0  0  0  0  0  0  0  0  0  0  0
   36.9110   24.9900   42.9120 H   0  0  0  0  0  0  0  0  0  0  0  0
   35.4250   24.5090   41.1970 H   0  0  0  0  0  0  0  0  0  0  0  0
   36.8630   23.4860   40.9570 H   0  0  0  0  0  0  0  0  0  0  0  0
   37.0880   24.3500   38.8740 H   0  0  0  0  0  0  0  0  0  0  0  0
   35.5490   25.2350   39.0390 H   0  0  0  0  0  0  0  0  0  0  0  0
   37.1860   26.8810   38.4890 H   0  0  0  0  0  0  0  0  0  0  0  0
   38.3800   26.1970   39.7430 H   0  0  0  0  0  0  0  0  0  0  0  0
   35.5900   27.2190   40.3100 H   0  0  0  0  0  0  0  0  0  0  0  0
   36.9840   27.5160   42.9260 C   0  0  0  0  0  0  0  0  0  0  0  0
   36.1990   27.0880   43.5720 H   0  0  0  0  0  0  0  0  0  0  0  0
   36.6830   28.5470   42.6580 H   0  0  0  0  0  0  0  0  0  0  0  0
   38.2800   27.5110   43.6800 C   0  0  0  0  0  0  0  0  0  0  0  0
   38.1540   27.7940   44.7320 H   0  0  0  0  0  0  0  0  0  0  0  0
   38.7530   26.4900   43.7050 H   0  0  0  0  0  0  0  0  0  0  0  0
   39.8510   30.6410   42.3280 C   0  0  0  0  0  0  0  0  0  0  0  0
   38.9450   29.7690   42.9520 C   0  0  0  0  0  0  0  0  0  0  0  0
   39.2390   28.4240   43.0210 C   0  0  0  0  0  0  0  0  0  0  0  0
   40.4010   28.0050   42.4790 N   0  0  0  0  0  0  0  0  0  0  0  0
   41.2600   28.8580   41.8830 C   0  0  0  0  0  0  0  0  0  0  0  0
   41.0010   30.1740   41.8010 N   0  0  0  0  0  0  0  0  0  0  0  0
   39.6700   31.7010   42.2470 H   0  0  0  0  0  0  0  0  0  0  0  0
   38.0570   30.2210   43.3440 H   0  0  0  0  0  0  0  0  0  0  0  0
   42.1370   28.3270   41.5100 H   0  0  0  0  0  0  0  0  0  0  0  0
   37.2270   28.5130   40.2500 O   0  0  0  0  0  0  0  0  0  0  0  0
   36.2950   30.9130   40.8980 O   0  0  0  0  0  0  0  0  0  0  0  0
   36.0830   29.7120   39.9690 P   0  0  2  0  0  0  0  0  0  0  0  0
   34.5760   29.0550   40.4400 O   0  0  0  0  0  0  0  0  0  0  0  0
   34.3140   28.3990   39.7310 H   0  0  0  0  0  0  0  0  0  0  0  0
   35.9650   30.1560   38.3720 O   0  0  0  0  0  0  0  0  0  0  0  0
   37.7200   27.8040   34.1760 H   0  0  0  0  0  0  0  0  0  0  0  0
   37.4120   28.4610   34.8990 N   0  0  0  0  0  0  0  0  0  0  0  0
   38.1760   28.3180   36.1060 C   0  0  0  0  0  2  0  0  0  0  0  0
   37.7780   29.4580   37.0300 C   0  0  0  0  0  2  0  0  0  0  0  0
   36.3450   29.1910   37.4640 C   0  0  0  0  0  3  0  0  0  0  0  0
   35.5000   29.2350   36.2090 C   0  0  0  0  0  2  0  0  0  0  0  0
   36.0200   28.2590   35.1960 C   0  0  0  0  0  2  0  0  0  0  0  0
  1  2  1  0  0  0  0
  1 16  1  0  0  0  0
  2  8  1  0  0  0  0
  3 10  1  0  0  0  0
  3  9  1  0  0  0  0
  3  2  1  0  0  0  0
  4  3  1  0  0  0  0
  5  4  1  0  0  0  0
  5 14  1  0  0  0  0
  5  6  1  0  0  0  0
  6 15  1  6  0  0  0
  6  1  1  0  0  0  0
  7  2  1  0  0  0  0
 11  4  1  0  0  0  0
 12  4  1  0  0  0  0
 13  5  1  0  0  0  0
 16 17  1  0  0  0  0
 16 19  1  0  0  0  0
 18 16  1  0  0  0  0
 19 21  1  0  0  0  0
 19 20  1  0  0  0  0
 22 23  1  0  0  0  0
 23 24  2  0  0  0  0
 23 29  1  0  0  0  0
 24 19  1  0  0  0  0
 25 24  1  0  0  0  0
 26 25  2  0  0  0  0
 27 26  1  0  0  0  0
 27 22  2  0  0  0  0
 28 22  1  0  0  0  0
 30 26  1  0  0  0  0
 31  6  1  0  0  0  0
 33 31  1  0  0  0  0
 33 34  1  0  0  0  0
 33 32  2  1  0  0  0
 35 34  1  0  0  0  0
 36 33  1  0  0  0  0
 37 38  1  0  0  0  0
 38 43  1  0  0  0  0
 38 39  1  0  0  0  0
 39 40  1  0  0  0  0
 40 41  1  0  0  0  0
 41 36  1  0  0  0  0
 42 41  1  0  0  0  0
 43 42  1  0  0  0  0
M  END
>  <minimizedAffinity>
-5.22558355

$$$$

 OpenBabel03252509023D

 43 45  0  0  1  0  0  0  0  0999 V2000
   35.8820   29.3670   38.9810 N   0  0  0  0  0  0  0  0  0  0  0  0
   34.7280   28.5760   38.7120 C   0  0  0  0  0  0  0  0  0  0  0  0
   34.0840   28.8270   37.3630 C   0  0  0  0  0  0  0  0  0  0  0  0
   35.0470   29.1690   36.2710 C   0  0  0  0  0  0  0  0  0  0  0  0
   36.4780   29.1260   36.7440 C   0  0  0  0  0  0  0  0  0  0  0  0
   36.4870   30.1010   37.9750 C   0  0  2  0  0  0  0  0  0  0  0  0
   35.0620   27.4980   38.6860 H   0  0  0  0  0  0  0  0  0  0  0  0
   33.9330   28.6080   39.4630 H   0  0  0  0  0  0  0  0  0  0  0  0
   33.4390   29.7320   37.4950 H   0  0  0  0  0  0  0  0  0  0  0  0
   33.4170   27.9890   37.1320 H   0  0  0  0  0  0  0  0  0  0  0  0
   34.9600   28.3410   35.5110 H   0  0  0  0  0  0  0  0  0  0  0  0
   34.8520   30.1050   35.7440 H   0  0  0  0  0  0  0  0  0  0  0  0
   37.1590   29.5580   36.0120 H   0  0  0  0  0  0  0  0  0  0  0  0
   36.7490   28.1180   37.1190 H   0  0  0  0  0  0  0  0  0  0  0  0
   35.9930   31.0090   37.5980 H   0  0  0  0  0  0  0  0  0  0  0  0
   35.9720   29.8240   40.3310 C   0  0  0  0  0  0  0  0  0  0  0  0
   35.1210   30.4740   40.5960 H   0  0  0  0  0  0  0  0  0  0  0  0
   36.9020   30.4130   40.4420 H   0  0  0  0  0  0  0  0  0  0  0  0
   35.9720   28.6380   41.2470 C   0  0  0  0  0  0  0  0  0  0  0  0
   35.1770   28.6910   42.0020 H   0  0  0  0  0  0  0  0  0  0  0  0
   35.7890   27.6740   40.6960 H   0  0  0  0  0  0  0  0  0  0  0  0
   39.4560   29.4420   42.3910 C   0  0  0  0  0  0  0  0  0  0  0  0
   38.2030   29.5460   41.7670 C   0  0  0  0  0  0  0  0  0  0  0  0
   37.2900   28.5230   41.9080 C   0  0  0  0  0  0  0  0  0  0  0  0
   37.6500   27.4570   42.6520 N   0  0  0  0  0  0  0  0  0  0  0  0
   38.8600   27.3750   43.2460 C   0  0  0  0  0  0  0  0  0  0  0  0
   39.7690   28.3560   43.1260 N   0  0  0  0  0  0  0  0  0  0  0  0
   40.2050   30.2140   42.3130 H   0  0  0  0  0  0  0  0  0  0  0  0
   38.0340   30.4410   41.2040 H   0  0  0  0  0  0  0  0  0  0  0  0
   38.9570   26.4390   43.7990 H   0  0  0  0  0  0  0  0  0  0  0  0
   37.8440   30.2570   38.2040 O   0  0  0  0  0  0  0  0  0  0  0  0
   37.2890   32.8150   38.6540 O   0  0  0  0  0  0  0  0  0  0  0  0
   38.3520   31.8570   38.1060 P   0  0  2  0  0  0  0  0  0  0  0  0
   38.4560   32.2250   36.4390 O   0  0  0  0  0  0  0  0  0  0  0  0
   39.2730   31.7630   36.0930 H   0  0  0  0  0  0  0  0  0  0  0  0
   39.8510   32.1190   38.7760 O   0  0  0  0  0  0  0  0  0  0  0  0
   44.3990   33.1980   36.6850 H   0  0  0  0  0  0  0  0  0  0  0  0
   43.6090   32.9530   37.2900 N   0  0  0  0  0  0  0  0  0  0  0  0
   42.9290   31.7780   36.8240 C   0  0  0  0  0  2  0  0  0  0  0  0
   41.9140   31.3910   37.8880 C   0  0  0  0  0  2  0  0  0  0  0  0
   40.8410   32.4680   37.8830 C   0  0  0  0  0  3  0  0  0  0  0  0
   41.5250   33.7600   38.2770 C   0  0  0  0  0  2  0  0  0  0  0  0
   42.6740   34.0430   37.3570 C   0  0  0  0  0  2  0  0  0  0  0  0
  1 16  1  0  0  0  0
  2  1  1  0  0  0  0
  2  8  1  0  0  0  0
  3  9  1  0  0  0  0
  3  2  1  0  0  0  0
  4  5  1  0  0  0  0
  4  3  1  0  0  0  0
  5 14  1  0  0  0  0
  5  6  1  0  0  0  0
  6 15  1  6  0  0  0
  6 31  1  0  0  0  0
  6  1  1  0  0  0  0
  7  2  1  0  0  0  0
 10  3  1  0  0  0  0
 11  4  1  0  0  0  0
 12  4  1  0  0  0  0
 13  5  1  0  0  0  0
 16 18  1  0  0  0  0
 16 17  1  0  0  0  0
 16 19  1  0  0  0  0
 19 24  1  0  0  0  0
 19 20  1  0  0  0  0
 21 19  1  0  0  0  0
 22 27  1  0  0  0  0
 23 24  1  0  0  0  0
 23 22  2  0  0  0  0
 24 25  2  0  0  0  0
 25 26  1  0  0  0  0
 26 30  1  0  0  0  0
 27 26  2  0  0  0  0
 28 22  1  0  0  0  0
 29 23  1  0  0  0  0
 33 31  1  0  0  0  0
 33 32  2  1  0  0  0
 33 36  1  0  0  0  0
 34 33  1  0  0  0  0
 35 34  1  0  0  0  0
 37 38  1  0  0  0  0
 38 43  1  0  0  0  0
 39 38  1  0  0  0  0
 39 40  1  0  0  0  0
 41 40  1  0  0  0  0
 41 42  1  0  0  0  0
 41 36  1  0  0  0  0
 43 42  1  0  0  0  0
M  END
>  <minimizedAffinity>
-5.22276354

$$$$

 OpenBabel03252509023D

 43 45  0  0  1  0  0  0  0  0999 V2000
   37.0500   28.7270   39.4020 N   0  0  0  0  0  0  0  0  0  0  0  0
   35.9670   27.8210   39.2190 C   0  0  0  0  0  0  0  0  0  0  0  0
   34.8510   28.3320   38.3300 C   0  0  0  0  0  0  0  0  0  0  0  0
   35.3060   29.2150   37.2110 C   0  0  0  0  0  0  0  0  0  0  0  0
   36.8070   29.3540   37.1740 C   0  0  0  0  0  0  0  0  0  0  0  0
   37.1640   29.8610   38.6160 C   0  0  2  0  0  0  0  0  0  0  0  0
   36.3780   26.9140   38.6870 H   0  0  0  0  0  0  0  0  0  0  0  0
   35.5040   27.4290   40.1300 H   0  0  0  0  0  0  0  0  0  0  0  0
   34.2090   28.9750   38.9840 H   0  0  0  0  0  0  0  0  0  0  0  0
   34.2370   27.4820   38.0140 H   0  0  0  0  0  0  0  0  0  0  0  0
   35.0330   28.6750   36.2600 H   0  0  0  0  0  0  0  0  0  0  0  0
   34.8350   30.1990   37.1640 H   0  0  0  0  0  0  0  0  0  0  0  0
   37.1230   30.1400   36.4900 H   0  0  0  0  0  0  0  0  0  0  0  0
   37.3000   28.3700   37.0390 H   0  0  0  0  0  0  0  0  0  0  0  0
   36.4750   30.7030   38.7790 H   0  0  0  0  0  0  0  0  0  0  0  0
   37.5810   28.7400   40.7280 C   0  0  0  0  0  0  0  0  0  0  0  0
   37.4210   29.7140   41.2190 H   0  0  0  0  0  0  0  0  0  0  0  0
   38.6710   28.5580   40.6730 H   0  0  0  0  0  0  0  0  0  0  0  0
   36.8960   27.6790   41.5360 C   0  0  0  0  0  0  0  0  0  0  0  0
   36.2120   28.0980   42.2840 H   0  0  0  0  0  0  0  0  0  0  0  0
   36.2580   27.0040   40.9000 H   0  0  0  0  0  0  0  0  0  0  0  0
   38.9130   24.6720   42.5290 C   0  0  0  0  0  0  0  0  0  0  0  0
   37.9540   25.4830   41.9040 C   0  0  0  0  0  0  0  0  0  0  0  0
   37.9100   26.8300   42.1980 C   0  0  0  0  0  0  0  0  0  0  0  0
   38.8060   27.3080   43.0840 N   0  0  0  0  0  0  0  0  0  0  0  0
   39.7220   26.5130   43.6760 C   0  0  0  0  0  0  0  0  0  0  0  0
   39.7880   25.1980   43.4090 N   0  0  0  0  0  0  0  0  0  0  0  0
   38.9900   23.6140   42.3340 H   0  0  0  0  0  0  0  0  0  0  0  0
   37.2970   24.9870   41.2180 H   0  0  0  0  0  0  0  0  0  0  0  0
   40.3520   27.0880   44.3570 H   0  0  0  0  0  0  0  0  0  0  0  0
   38.4870   30.2440   38.4630 O   0  0  0  0  0  0  0  0  0  0  0  0
   37.3800   32.6520   38.6270 O   0  0  0  0  0  0  0  0  0  0  0  0
   38.6830   31.9070   38.3160 P   0  0  2  0  0  0  0  0  0  0  0  0
   38.9760   32.2100   36.6590 O   0  0  0  0  0  0  0  0  0  0  0  0
   39.9120   31.9100   36.4720 H   0  0  0  0  0  0  0  0  0  0  0  0
   39.9760   32.5010   39.1750 O   0  0  0  0  0  0  0  0  0  0  0  0
   41.4630   30.9430   43.8200 H   0  0  0  0  0  0  0  0  0  0  0  0
   41.1620   31.4570   42.9870 N   0  0  0  0  0  0  0  0  0  0  0  0
   39.8890   30.9950   42.5100 C   0  0  0  0  0  2  0  0  0  0  0  0
   39.4470   31.9450   41.4090 C   0  0  0  0  0  2  0  0  0  0  0  0
   40.3870   31.7210   40.2340 C   0  0  0  0  0  3  0  0  0  0  0  0
   41.7720   32.1030   40.7110 C   0  0  0  0  0  2  0  0  0  0  0  0
   42.1350   31.3210   41.9380 C   0  0  0  0  0  2  0  0  0  0  0  0
  1 16  1  0  0  0  0
  2  1  1  0  0  0  0
  2  8  1  0  0  0  0
  3  9  1  0  0  0  0
  3  2  1  0  0  0  0
  4  3  1  0  0  0  0
  5  4  1  0  0  0  0
  5  6  1  0  0  0  0
  6 15  1  1  0  0  0
  6  1  1  0  0  0  0
  7  2  1  0  0  0  0
 10  3  1  0  0  0  0
 11  4  1  0  0  0  0
 12  4  1  0  0  0  0
 13  5  1  0  0  0  0
 14  5  1  0  0  0  0
 16 17  1  0  0  0  0
 16 19  1  0  0  0  0
 18 16  1  0  0  0  0
 19 24  1  0  0  0  0
 19 20  1  0  0  0  0
 21 19  1  0  0  0  0
 22 27  1  0  0  0  0
 23 24  1  0  0  0  0
 23 22  2  0  0  0  0
 24 25  2  0  0  0  0
 25 26  1  0  0  0  0
 26 30  1  0  0  0  0
 27 26  2  0  0  0  0
 28 22  1  0  0  0  0
 29 23  1  0  0  0  0
 31  6  1  0  0  0  0
 33 31  1  0  0  0  0
 33 32  2  1  0  0  0
 33 36  1  0  0  0  0
 34 33  1  0  0  0  0
 35 34  1  0  0  0  0
 36 41  1  0  0  0  0
 38 37  1  0  0  0  0
 39 38  1  0  0  0  0
 40 39  1  0  0  0  0
 41 42  1  0  0  0  0
 41 40  1  0  0  0  0
 42 43  1  0  0  0  0
 43 38  1  0  0  0  0
M  END
>  <minimizedAffinity>
-5.1906743

$$$$
