
 OpenBabel03252504263D

 20 21  0  0  0  0  0  0  0  0999 V2000
   44.2500   35.7850   42.0960 C   0  0  0  0  0  0  0  0  0  0  0  0
   44.9110   35.4250   41.2650 H   0  0  0  0  0  0  0  0  0  0  0  0
   44.4010   36.8580   42.2000 H   0  0  0  0  0  0  0  0  0  0  0  0
   44.3780   35.7490   44.5280 C   0  0  0  0  0  0  0  0  0  0  0  0
   44.6720   35.0830   43.3320 C   0  0  0  0  0  0  0  0  0  0  0  0
   45.3150   33.8530   43.3930 C   0  0  0  0  0  0  0  0  0  0  0  0
   45.6140   33.3850   44.6050 N   0  0  0  0  0  0  0  0  0  0  0  0
   45.3300   34.0270   45.7550 C   0  0  0  0  0  0  0  0  0  0  0  0
   44.7020   35.2320   45.7510 N   0  0  0  0  0  0  0  0  0  0  0  0
   43.8790   36.7080   44.5520 H   0  0  0  0  0  0  0  0  0  0  0  0
   45.5210   33.3800   42.4610 H   0  0  0  0  0  0  0  0  0  0  0  0
   45.6580   33.4750   46.6450 H   0  0  0  0  0  0  0  0  0  0  0  0
   42.9460   35.4770   41.7260 O   0  0  0  0  0  0  0  0  0  0  0  0
   42.6060   35.0280   36.8410 H   0  0  0  0  0  0  0  0  0  0  0  0
   42.7000   35.1040   37.8560 N   0  0  0  0  0  0  0  0  0  0  0  0
   43.1040   33.8470   38.4510 C   0  0  0  0  0  0  0  0  0  0  0  0
   43.4580   33.9970   39.8970 C   0  0  0  0  0  0  0  0  0  0  0  0
   42.7800   35.2590   40.3940 C   0  0  0  0  0  0  0  0  0  0  0  0
   41.3720   35.2450   39.9060 C   0  0  0  0  0  0  0  0  0  0  0  0
   41.4260   35.5600   38.4140 C   0  0  0  0  0  0  0  0  0  0  0  0
  1  3  1  0  0  0  0
  1  5  1  0  0  0  0
  2  1  1  0  0  0  0
  4 10  1  0  0  0  0
  4  9  1  0  0  0  0
  5  6  1  0  0  0  0
  5  4  2  0  0  0  0
  6  7  2  0  0  0  0
  7  8  1  0  0  0  0
  8 12  1  0  0  0  0
  9  8  2  0  0  0  0
 11  6  1  0  0  0  0
 13  1  1  0  0  0  0
 14 15  1  0  0  0  0
 15 20  1  0  0  0  0
 15 16  1  0  0  0  0
 16 17  1  0  0  0  0
 17 18  1  0  0  0  0
 18 13  1  0  0  0  0
 19 18  1  0  0  0  0
 20 19  1  0  0  0  0
M  END
>  <minimizedAffinity>
-4.35658169

>  <minimizedRMSD>
1.14157236

$$$$
