
 OpenBabel03252509003D

 43 45  0  0  1  0  0  0  0  0999 V2000
   46.9680   34.4150   43.1550 N   0  0  0  0  0  0  0  0  0  0  0  0
   46.4230   35.6200   42.6250 C   0  0  0  0  0  0  0  0  0  0  0  0
   44.9420   35.8160   42.8790 C   0  0  0  0  0  0  0  0  0  0  0  0
   44.4610   35.2720   44.1880 C   0  0  0  0  0  0  0  0  0  0  0  0
   45.5870   34.6940   45.0080 C   0  0  0  0  0  0  0  0  0  0  0  0
   46.2400   33.6420   44.0440 C   0  0  2  0  0  0  0  0  0  0  0  0
   46.9320   36.4770   43.1530 H   0  0  0  0  0  0  0  0  0  0  0  0
   46.5970   35.8020   41.5590 H   0  0  0  0  0  0  0  0  0  0  0  0
   44.4140   35.2230   42.0910 H   0  0  0  0  0  0  0  0  0  0  0  0
   44.6930   36.8700   42.7090 H   0  0  0  0  0  0  0  0  0  0  0  0
   44.0910   36.1600   44.7750 H   0  0  0  0  0  0  0  0  0  0  0  0
   43.6340   34.5620   44.1290 H   0  0  0  0  0  0  0  0  0  0  0  0
   45.2150   34.1310   45.8630 H   0  0  0  0  0  0  0  0  0  0  0  0
   46.3570   35.4600   45.2320 H   0  0  0  0  0  0  0  0  0  0  0  0
   45.3870   33.0540   43.6750 H   0  0  0  0  0  0  0  0  0  0  0  0
   47.9300   33.7880   42.3070 C   0  0  0  0  0  0  0  0  0  0  0  0
   48.6230   33.1520   42.8820 H   0  0  0  0  0  0  0  0  0  0  0  0
   48.5220   34.5750   41.8030 H   0  0  0  0  0  0  0  0  0  0  0  0
   47.2120   32.9310   41.3080 C   0  0  0  0  0  0  0  0  0  0  0  0
   47.1840   31.8750   41.6040 H   0  0  0  0  0  0  0  0  0  0  0  0
   46.1330   33.2300   41.1870 H   0  0  0  0  0  0  0  0  0  0  0  0
   49.2830   32.1780   38.2690 C   0  0  0  0  0  0  0  0  0  0  0  0
   48.6680   32.0530   39.5240 C   0  0  0  0  0  0  0  0  0  0  0  0
   47.8560   33.0680   39.9840 C   0  0  0  0  0  0  0  0  0  0  0  0
   47.6900   34.1480   39.1930 N   0  0  0  0  0  0  0  0  0  0  0  0
   48.2900   34.2510   37.9880 C   0  0  0  0  0  0  0  0  0  0  0  0
   49.0850   33.2770   37.5140 N   0  0  0  0  0  0  0  0  0  0  0  0
   49.9260   31.4140   37.8630 H   0  0  0  0  0  0  0  0  0  0  0  0
   48.8760   31.1490   40.0590 H   0  0  0  0  0  0  0  0  0  0  0  0
   48.0300   35.1940   37.5060 H   0  0  0  0  0  0  0  0  0  0  0  0
   47.0690   32.9420   44.9060 O   0  0  0  0  0  0  0  0  0  0  0  0
   45.6700   30.8290   44.1150 O   0  0  0  0  0  0  0  0  0  0  0  0
   46.4990   31.4030   45.2690 P   0  0  2  0  0  0  0  0  0  0  0  0
   45.3870   31.5950   46.5540 O   0  0  0  0  0  0  0  0  0  0  0  0
   45.9270   31.7770   47.3770 H   0  0  0  0  0  0  0  0  0  0  0  0
   47.6880   30.3590   45.7800 O   0  0  0  0  0  0  0  0  0  0  0  0
   48.9310   28.3790   41.2240 H   0  0  0  0  0  0  0  0  0  0  0  0
   48.5240   28.8830   42.0190 N   0  0  0  0  0  0  0  0  0  0  0  0
   49.4840   29.7430   42.6510 C   0  0  0  0  0  2  0  0  0  0  0  0
   48.7360   30.5800   43.6750 C   0  0  0  0  0  2  0  0  0  0  0  0
   48.3010   29.6330   44.7820 C   0  0  0  0  0  3  0  0  0  0  0  0
   47.3530   28.6360   44.1490 C   0  0  0  0  0  2  0  0  0  0  0  0
   48.0140   27.9530   42.9890 C   0  0  0  0  0  2  0  0  0  0  0  0
  1  6  1  0  0  0  0
  2  3  1  0  0  0  0
  2  7  1  0  0  0  0
  2  1  1  0  0  0  0
  3  4  1  0  0  0  0
  4 11  1  0  0  0  0
  4  5  1  0  0  0  0
  5 14  1  0  0  0  0
  5 13  1  0  0  0  0
  6 15  1  6  0  0  0
  6 31  1  0  0  0  0
  6  5  1  0  0  0  0
  8  2  1  0  0  0  0
  9  3  1  0  0  0  0
 10  3  1  0  0  0  0
 12  4  1  0  0  0  0
 16 17  1  0  0  0  0
 16  1  1  0  0  0  0
 18 16  1  0  0  0  0
 19 20  1  0  0  0  0
 19 16  1  0  0  0  0
 21 19  1  0  0  0  0
 22 23  1  0  0  0  0
 23 24  2  0  0  0  0
 23 29  1  0  0  0  0
 24 19  1  0  0  0  0
 25 24  1  0  0  0  0
 26 25  2  0  0  0  0
 27 26  1  0  0  0  0
 27 22  2  0  0  0  0
 28 22  1  0  0  0  0
 30 26  1  0  0  0  0
 31 33  1  0  0  0  0
 33 32  2  6  0  0  0
 33 36  1  0  0  0  0
 33 34  1  0  0  0  0
 34 35  1  0  0  0  0
 37 38  1  0  0  0  0
 38 39  1  0  0  0  0
 38 43  1  0  0  0  0
 39 40  1  0  0  0  0
 40 41  1  0  0  0  0
 41 36  1  0  0  0  0
 42 41  1  0  0  0  0
 43 42  1  0  0  0  0
M  END
>  <minimizedAffinity>
-3.82501698

>  <minimizedRMSD>
0.49416554

$$$$
