
 OpenBabel03252504583D

 35 37  0  0  1  0  0  0  0  0999 V2000
   47.8740   34.0000   41.9360 N   0  0  0  0  0  0  0  0  0  0  0  0
   47.8490   35.1320   41.0890 C   0  0  0  0  0  0  0  0  0  0  0  0
   49.1010   35.8340   41.4530 C   0  0  0  0  0  0  0  0  0  0  0  0
   49.8320   35.0040   42.5010 C   0  0  0  0  0  0  0  0  0  0  0  0
   49.1750   33.6300   42.3120 C   0  0  2  0  0  0  0  0  0  0  0  0
   47.2540   35.5920   40.3340 H   0  0  0  0  0  0  0  0  0  0  0  0
   49.5250   36.7520   41.0810 H   0  0  0  0  0  0  0  0  0  0  0  0
   49.6480   35.4160   43.5020 H   0  0  0  0  0  0  0  0  0  0  0  0
   50.8860   34.9750   42.1860 H   0  0  0  0  0  0  0  0  0  0  0  0
   49.2080   32.9950   43.1930 H   0  0  0  0  0  0  0  0  0  0  0  0
   46.6950   33.4160   42.3240 C   0  0  0  0  0  0  0  0  0  0  0  0
   45.9370   33.2920   41.5160 H   0  0  0  0  0  0  0  0  0  0  0  0
   46.9190   32.3470   42.5870 H   0  0  0  0  0  0  0  0  0  0  0  0
   44.5800   35.7640   44.4100 C   0  0  0  0  0  0  0  0  0  0  0  0
   45.2390   35.2310   43.2670 C   0  0  0  0  0  0  0  0  0  0  0  0
   46.0010   34.0760   43.4100 C   0  0  0  0  0  0  0  0  0  0  0  0
   46.0650   33.5300   44.6430 N   0  0  0  0  0  0  0  0  0  0  0  0
   45.4240   34.0550   45.7460 C   0  0  0  0  0  0  0  0  0  0  0  0
   44.6900   35.1600   45.6250 N   0  0  0  0  0  0  0  0  0  0  0  0
   43.9980   36.6640   44.2590 H   0  0  0  0  0  0  0  0  0  0  0  0
   45.1630   35.6960   42.2980 H   0  0  0  0  0  0  0  0  0  0  0  0
   45.5410   33.5400   46.6890 H   0  0  0  0  0  0  0  0  0  0  0  0
   49.7740   33.0690   41.1730 O   0  0  0  0  0  0  0  0  0  0  0  0
   49.8120   30.4830   41.7880 O   0  0  0  0  0  0  0  0  0  0  0  0
   50.6530   31.6960   41.4730 P   0  0  2  0  0  0  0  0  0  0  0  0
   51.6340   31.9820   42.8330 O   0  0  0  0  0  0  0  0  0  0  0  0
   52.1280   32.8190   42.6370 H   0  0  0  0  0  0  0  0  0  0  0  0
   51.7340   31.3570   40.1990 O   0  0  0  0  0  0  0  0  0  0  0  0
   54.1860   29.6130   39.3000 H   0  0  0  0  0  0  0  0  0  0  0  0
   53.3070   30.1330   39.2350 N   0  0  0  0  0  0  0  0  0  0  0  0
   53.5220   31.3340   38.4590 C   0  0  0  0  0  0  0  0  0  0  0  0
   52.1590   31.8060   37.9420 C   0  0  0  0  0  0  0  0  0  0  0  0
   51.1340   31.3470   38.9620 C   0  0  0  0  0  0  0  0  0  0  0  0
   50.9290   29.8600   38.6370 C   0  0  0  0  0  0  0  0  0  0  0  0
   52.3220   29.2670   38.6000 C   0  0  0  0  0  0  0  0  0  0  0  0
  1  5  1  0  0  0  0
  1 11  1  0  0  0  0
  2  3  2  0  0  0  0
  2  1  1  0  0  0  0
  3  4  1  0  0  0  0
  4  8  1  0  0  0  0
  5  4  1  0  0  0  0
  5 10  1  1  0  0  0
  6  2  1  0  0  0  0
  7  3  1  0  0  0  0
  9  4  1  0  0  0  0
 11 13  1  0  0  0  0
 11 16  1  0  0  0  0
 12 11  1  0  0  0  0
 14 19  1  0  0  0  0
 15 16  1  0  0  0  0
 15 14  2  0  0  0  0
 16 17  2  0  0  0  0
 17 18  1  0  0  0  0
 18 22  1  0  0  0  0
 19 18  2  0  0  0  0
 20 14  1  0  0  0  0
 21 15  1  0  0  0  0
 23 25  1  0  0  0  0
 23  5  1  0  0  0  0
 25 24  2  1  0  0  0
 25 26  1  0  0  0  0
 27 26  1  0  0  0  0
 28 25  1  0  0  0  0
 30 29  1  0  0  0  0
 31 30  1  0  0  0  0
 32 31  1  0  0  0  0
 32 33  1  0  0  0  0
 33 28  1  0  0  0  0
 34 33  1  0  0  0  0
 35 34  1  0  0  0  0
 35 30  1  0  0  0  0
M  END
>  <minimizedAffinity>
-5.11236143

>  <minimizedRMSD>
2.59399319

$$$$
