
 OpenBabel03252509123D

 30 33  0  0  0  0  0  0  0  0999 V2000
   47.8320   30.6690   44.9180 C   0  0  0  0  0  0  0  0  0  0  0  0
   47.5440   31.8270   44.1870 C   0  0  0  0  0  0  0  0  0  0  0  0
   46.7300   32.8430   44.6630 C   0  0  0  0  0  0  0  0  0  0  0  0
   46.1660   32.7150   45.9310 C   0  0  0  0  0  0  0  0  0  0  0  0
   45.3530   33.4680   46.7060 N   0  0  0  0  0  0  0  0  0  0  0  0
   45.1280   32.8300   47.8770 C   0  0  0  0  0  0  0  0  0  0  0  0
   45.8130   31.6830   47.8050 N   0  0  0  0  0  0  0  0  0  0  0  0
   46.4560   31.5790   46.6360 C   0  0  0  0  0  0  0  0  0  0  0  0
   47.2650   30.5490   46.1840 C   0  0  0  0  0  0  0  0  0  0  0  0
   48.4780   29.8970   44.5000 H   0  0  0  0  0  0  0  0  0  0  0  0
   44.9630   34.3980   46.4360 H   0  0  0  0  0  0  0  0  0  0  0  0
   44.4980   33.2260   48.6880 H   0  0  0  0  0  0  0  0  0  0  0  0
   47.4590   29.6740   46.7860 H   0  0  0  0  0  0  0  0  0  0  0  0
   48.1250   31.4400   40.5820 C   0  0  0  0  0  0  0  0  0  0  0  0
   49.2310   32.2460   40.3580 C   0  0  0  0  0  0  0  0  0  0  0  0
   49.7750   32.9210   41.4440 C   0  0  0  0  0  0  0  0  0  0  0  0
   49.2020   32.7630   42.6780 N   0  0  0  0  0  0  0  0  0  0  0  0
   48.1290   31.9720   42.8550 C   0  0  0  0  0  0  0  0  0  0  0  0
   47.5880   31.3110   41.8190 N   0  0  0  0  0  0  0  0  0  0  0  0
   47.7360   30.9340   39.7030 H   0  0  0  0  0  0  0  0  0  0  0  0
   49.7320   32.4200   39.4300 H   0  0  0  0  0  0  0  0  0  0  0  0
   50.6190   33.5710   41.4180 H   0  0  0  0  0  0  0  0  0  0  0  0
   46.3820   34.3010   43.7100 S   0  0  0  0  0  0  0  0  0  0  0  0
   43.6270   35.2740   39.2350 H   0  0  0  0  0  0  0  0  0  0  0  0
   43.6580   34.7170   40.1240 N   0  0  0  0  0  0  0  0  0  0  0  0
   44.8160   33.8810   40.0630 C   0  0  0  0  0  2  0  0  0  0  0  0
   45.7960   34.2820   41.1140 C   0  0  0  0  0  2  0  0  0  0  0  0
   45.1140   34.0820   42.4680 C   0  0  0  0  0  3  0  0  0  0  0  0
   43.9750   35.0450   42.5490 C   0  0  0  0  0  2  0  0  0  0  0  0
   43.6310   35.6500   41.2080 C   0  0  0  0  0  2  0  0  0  0  0  0
  1  9  1  0  0  0  0
  2  3  1  0  0  0  0
  2  1  2  0  0  0  0
  3  4  2  0  0  0  0
  4  8  1  0  0  0  0
  4  5  1  0  0  0  0
  5  6  1  0  0  0  0
  6 12  1  0  0  0  0
  7  6  2  0  0  0  0
  8  7  1  0  0  0  0
  9  8  2  0  0  0  0
  9 13  1  0  0  0  0
 10  1  1  0  0  0  0
 11  5  1  0  0  0  0
 14 19  1  0  0  0  0
 15 14  2  0  0  0  0
 15 16  1  0  0  0  0
 16 17  2  0  0  0  0
 17 18  1  0  0  0  0
 18  2  1  0  0  0  0
 19 18  2  0  0  0  0
 20 14  1  0  0  0  0
 21 15  1  0  0  0  0
 22 16  1  0  0  0  0
 23  3  1  0  0  0  0
 24 25  1  0  0  0  0
 25 30  1  0  0  0  0
 26 25  1  0  0  0  0
 26 27  1  0  0  0  0
 27 28  1  0  0  0  0
 28 29  1  0  0  0  0
 28 23  1  0  0  0  0
 30 29  1  0  0  0  0
M  END
>  <minimizedAffinity>
-5.05162859

>  <minimizedRMSD>
2.19636917

$$$$
