
 OpenBabel03252505473D

 27 29  0  0  1  0  0  0  0  0999 V2000
   45.9060   32.8950   44.0950 C   0  0  0  0  0  0  0  0  0  0  0  0
   46.4030   31.6540   43.6000 C   0  0  0  0  0  0  0  0  0  0  0  0
   47.1700   30.8290   44.4130 C   0  0  0  0  0  0  0  0  0  0  0  0
   47.4170   31.2600   45.6800 N   0  0  0  0  0  0  0  0  0  0  0  0
   46.9220   32.4610   46.1210 C   0  0  0  0  0  0  0  0  0  0  0  0
   46.1840   33.2560   45.3440 N   0  0  0  0  0  0  0  0  0  0  0  0
   46.1830   31.3490   42.5850 H   0  0  0  0  0  0  0  0  0  0  0  0
   47.5600   29.8960   44.0830 H   0  0  0  0  0  0  0  0  0  0  0  0
   45.1110   33.7290   43.1860 C   0  0  1  0  0  0  0  0  0  0  0  0
   45.7550   35.1540   43.0170 C   0  0  1  0  0  0  0  0  0  0  0  0
   45.5050   34.1640   41.9020 C   0  0  0  0  0  0  0  0  0  0  0  0
   44.0320   33.7890   43.5160 H   0  0  0  0  0  0  0  0  0  0  0  0
   46.7670   35.3030   43.3800 H   0  0  0  0  0  0  0  0  0  0  0  0
   44.7090   34.3970   41.1440 H   0  0  0  0  0  0  0  0  0  0  0  0
   46.4290   33.8140   41.4000 H   0  0  0  0  0  0  0  0  0  0  0  0
   44.7500   36.2820   43.0600 C   0  0  0  0  0  0  0  0  0  0  0  0
   45.3200   37.5180   43.1610 F   0  0  0  0  0  0  0  0  0  0  0  0
   44.0020   36.2560   41.8700 F   0  0  0  0  0  0  0  0  0  0  0  0
   43.8180   36.0780   44.0670 F   0  0  0  0  0  0  0  0  0  0  0  0
   47.2500   32.7810   47.4270 O   0  0  0  0  0  0  0  0  0  0  0  0
   46.0050   29.3580   47.0460 H   0  0  0  0  0  0  0  0  0  0  0  0
   46.1410   29.3290   48.0880 N   0  0  0  0  0  0  0  0  0  0  0  0
   45.1480   30.1830   48.7070 C   0  0  0  0  0  2  0  0  0  0  0  0
   45.2980   31.5550   48.0850 C   0  0  0  0  0  2  0  0  0  0  0  0
   46.6490   32.0770   48.4790 C   0  0  0  0  0  3  0  0  0  0  0  0
   47.5520   31.0590   49.1110 C   0  0  0  0  0  2  0  0  0  0  0  0
   47.4850   29.7060   48.4630 C   0  0  0  0  0  2  0  0  0  0  0  0
  1  6  1  0  0  0  0
  2  1  2  0  0  0  0
  2  3  1  0  0  0  0
  3  4  2  0  0  0  0
  4  5  1  0  0  0  0
  5 20  1  0  0  0  0
  6  5  2  0  0  0  0
  7  2  1  0  0  0  0
  8  3  1  0  0  0  0
  9 12  1  1  0  0  0
  9  1  1  0  0  0  0
 10 16  1  0  0  0  0
 10  9  1  0  0  0  0
 10 13  1  1  0  0  0
 11 10  1  0  0  0  0
 11  9  1  0  0  0  0
 14 11  1  0  0  0  0
 15 11  1  0  0  0  0
 16 17  1  0  0  0  0
 16 19  1  0  0  0  0
 18 16  1  0  0  0  0
 20 25  1  0  0  0  0
 21 22  1  0  0  0  0
 22 27  1  0  0  0  0
 22 23  1  0  0  0  0
 24 25  1  0  0  0  0
 24 23  1  0  0  0  0
 25 26  1  0  0  0  0
 27 26  1  0  0  0  0
M  END
>  <minimizedAffinity>
-4.94996309

>  <minimizedRMSD>
1.64484477

$$$$
