
 OpenBabel03252509313D

 25 26  0  0  0  0  0  0  0  0999 V2000
   48.3620   33.2400   43.2550 O   0  0  0  0  0  0  0  0  0  0  0  0
   47.3700   34.0070   42.6330 C   0  0  0  0  0  0  0  0  0  0  0  0
   47.7980   34.9150   42.1230 H   0  0  0  0  0  0  0  0  0  0  0  0
   46.8410   33.4390   41.8290 H   0  0  0  0  0  0  0  0  0  0  0  0
   45.2590   34.2730   45.6890 C   0  0  0  0  0  0  0  0  0  0  0  0
   46.2150   33.8020   44.7720 C   0  0  0  0  0  0  0  0  0  0  0  0
   46.3860   34.4830   43.5880 C   0  0  0  0  0  0  0  0  0  0  0  0
   45.6120   35.5960   43.3550 N   0  0  0  0  0  0  0  0  0  0  0  0
   44.6980   36.0210   44.2630 C   0  0  0  0  0  0  0  0  0  0  0  0
   44.5260   35.3710   45.4090 N   0  0  0  0  0  0  0  0  0  0  0  0
   45.1110   33.7430   46.6320 H   0  0  0  0  0  0  0  0  0  0  0  0
   46.7550   32.9200   45.0750 H   0  0  0  0  0  0  0  0  0  0  0  0
   44.0870   36.8970   44.0850 H   0  0  0  0  0  0  0  0  0  0  0  0
   50.6820   32.2370   42.5960 O   0  0  0  0  0  0  0  0  0  0  0  0
   49.7690   33.4030   42.3200 P   0  0  2  0  0  0  0  0  0  0  0  0
   50.4490   34.8930   42.6900 O   0  0  0  0  0  0  0  0  0  0  0  0
   51.2370   34.8250   43.3000 H   0  0  0  0  0  0  0  0  0  0  0  0
   49.3040   33.3370   40.6970 O   0  0  0  0  0  0  0  0  0  0  0  0
   48.0440   30.6570   36.8330 H   0  0  0  0  0  0  0  0  0  0  0  0
   48.6250   30.6480   37.6880 N   0  0  0  0  0  0  0  0  0  0  0  0
   49.5130   31.7930   37.7600 C   0  0  0  0  0  2  0  0  0  0  0  0
   50.1650   31.8400   39.1200 C   0  0  0  0  0  2  0  0  0  0  0  0
   49.1520   32.0610   40.2240 C   0  0  0  0  0  3  0  0  0  0  0  0
   47.7830   31.7900   39.6510 C   0  0  0  0  0  2  0  0  0  0  0  0
   47.8890   30.4510   38.9170 C   0  0  0  0  0  2  0  0  0  0  0  0
  2  1  1  0  0  0  0
  2  7  1  0  0  0  0
  3  2  1  0  0  0  0
  4  2  1  0  0  0  0
  5 11  1  0  0  0  0
  6 12  1  0  0  0  0
  6  5  2  0  0  0  0
  7  6  1  0  0  0  0
  8  7  2  0  0  0  0
  8  9  1  0  0  0  0
  9 10  2  0  0  0  0
 10  5  1  0  0  0  0
 13  9  1  0  0  0  0
 15 14  2  1  0  0  0
 15 16  1  0  0  0  0
 15  1  1  0  0  0  0
 16 17  1  0  0  0  0
 18 15  1  0  0  0  0
 19 20  1  0  0  0  0
 20 21  1  0  0  0  0
 20 25  1  0  0  0  0
 21 22  1  0  0  0  0
 22 23  1  0  0  0  0
 23 18  1  0  0  0  0
 24 23  1  0  0  0  0
 25 24  1  0  0  0  0
M  END
>  <minimizedAffinity>
-4.10599375

>  <minimizedRMSD>
1.68219686

$$$$
