
 OpenBabel03252504223D

 30 33  0  0  0  0  0  0  0  0999 V2000
   45.9460   33.2210   38.7650 C   0  0  0  0  0  0  0  0  0  0  0  0
   47.3260   33.0360   38.7000 C   0  0  0  0  0  0  0  0  0  0  0  0
   48.1140   33.3590   39.8430 C   0  0  0  0  0  0  0  0  0  0  0  0
   47.4410   33.8340   40.9340 N   0  0  0  0  0  0  0  0  0  0  0  0
   46.0960   33.9980   40.9500 C   0  0  0  0  0  0  0  0  0  0  0  0
   45.3650   33.6900   39.8660 N   0  0  0  0  0  0  0  0  0  0  0  0
   45.4980   34.5010   42.1410 N   0  0  0  0  0  0  0  0  0  0  0  0
   44.5440   35.4610   42.1970 C   0  0  0  0  0  0  0  0  0  0  0  0
   44.2320   35.6670   43.5140 N   0  0  0  0  0  0  0  0  0  0  0  0
   45.0000   34.8310   44.2110 C   0  0  0  0  0  0  0  0  0  0  0  0
   45.1550   34.5610   45.5640 C   0  0  0  0  0  0  0  0  0  0  0  0
   46.0050   33.6620   46.0320 N   0  0  0  0  0  0  0  0  0  0  0  0
   46.7920   32.9360   45.2120 C   0  0  0  0  0  0  0  0  0  0  0  0
   46.6440   33.1950   43.9020 N   0  0  0  0  0  0  0  0  0  0  0  0
   45.8050   34.0870   43.3810 C   0  0  0  0  0  0  0  0  0  0  0  0
   47.9400   32.6660   37.8910 H   0  0  0  0  0  0  0  0  0  0  0  0
   49.1680   33.2450   39.8690 H   0  0  0  0  0  0  0  0  0  0  0  0
   44.1150   35.9670   41.3390 H   0  0  0  0  0  0  0  0  0  0  0  0
   47.4950   32.1930   45.5620 H   0  0  0  0  0  0  0  0  0  0  0  0
   44.3940   35.2500   46.5460 N   0  0  0  0  0  0  0  0  0  0  0  0
   43.7910   34.8600   47.2950 H   0  0  0  0  0  0  0  0  0  0  0  0
   44.4860   36.3030   46.4580 H   0  0  0  0  0  0  0  0  0  0  0  0
   45.0580   32.7880   37.2750 S   0  0  0  0  0  0  0  0  0  0  0  0
   43.2050   32.2060   34.3760 H   0  0  0  0  0  0  0  0  0  0  0  0
   43.7180   31.3100   34.5180 N   0  0  0  0  0  0  0  0  0  0  0  0
   45.0630   31.2990   33.9980 C   0  0  0  0  0  0  0  0  0  0  0  0
   46.0650   31.9630   34.9180 C   0  0  0  0  0  0  0  0  0  0  0  0
   45.8810   31.5030   36.3530 C   0  0  0  0  0  0  0  0  0  0  0  0
   44.9760   30.2910   36.3110 C   0  0  0  0  0  0  0  0  0  0  0  0
   43.6030   30.8060   35.8640 C   0  0  0  0  0  0  0  0  0  0  0  0
  1  6  1  0  0  0  0
  2  1  2  0  0  0  0
  2  3  1  0  0  0  0
  3 17  1  0  0  0  0
  3  4  2  0  0  0  0
  4  5  1  0  0  0  0
  5  7  1  0  0  0  0
  6  5  2  0  0  0  0
  7  8  1  0  0  0  0
  7 15  1  0  0  0  0
  8  9  2  0  0  0  0
  9 10  1  0  0  0  0
 10 11  1  0  0  0  0
 11 12  2  0  0  0  0
 11 20  1  0  0  0  0
 13 19  1  0  0  0  0
 13 12  1  0  0  0  0
 14 13  2  0  0  0  0
 15 14  1  0  0  0  0
 15 10  2  0  0  0  0
 16  2  1  0  0  0  0
 18  8  1  0  0  0  0
 20 21  1  0  0  0  0
 22 20  1  0  0  0  0
 23  1  1  0  0  0  0
 24 25  1  0  0  0  0
 25 30  1  0  0  0  0
 26 25  1  0  0  0  0
 26 27  1  0  0  0  0
 27 28  1  0  0  0  0
 28 23  1  0  0  0  0
 29 28  1  0  0  0  0
 30 29  1  0  0  0  0
M  END
>  <minimizedAffinity>
-6.16024399

>  <minimizedRMSD>
3.68869019

$$$$
