
 OpenBabel03242516223D

 27 29  0  0  0  0  0  0  0  0999 V2000
   46.0350   32.7280   47.0020 C   0  0  0  0  0  0  0  0  0  0  0  0
   47.2560   32.1150   47.2700 C   0  0  0  0  0  0  0  0  0  0  0  0
   47.4250   31.3070   48.3690 C   0  0  0  0  0  0  0  0  0  0  0  0
   46.3680   31.0820   49.2450 C   0  0  0  0  0  0  0  0  0  0  0  0
   45.1720   31.6680   49.0020 C   0  0  0  0  0  0  0  0  0  0  0  0
   45.0080   32.4820   47.8940 C   0  0  0  0  0  0  0  0  0  0  0  0
   48.0670   32.3110   46.5630 H   0  0  0  0  0  0  0  0  0  0  0  0
   46.4400   30.4660   50.1080 H   0  0  0  0  0  0  0  0  0  0  0  0
   44.3010   31.5330   49.6510 H   0  0  0  0  0  0  0  0  0  0  0  0
   44.0410   32.9470   47.7120 H   0  0  0  0  0  0  0  0  0  0  0  0
   44.7330   35.3630   44.8390 C   0  0  0  0  0  0  0  0  0  0  0  0
   45.4800   35.2500   43.6770 C   0  0  0  0  0  0  0  0  0  0  0  0
   46.4530   34.2520   43.6290 C   0  0  0  0  0  0  0  0  0  0  0  0
   46.6400   33.4300   44.7000 N   0  0  0  0  0  0  0  0  0  0  0  0
   45.8710   33.5860   45.8270 C   0  0  0  0  0  0  0  0  0  0  0  0
   44.9190   34.5510   45.8980 N   0  0  0  0  0  0  0  0  0  0  0  0
   43.9510   36.1280   44.9460 H   0  0  0  0  0  0  0  0  0  0  0  0
   45.2910   35.9320   42.8520 H   0  0  0  0  0  0  0  0  0  0  0  0
   47.0460   34.1470   42.7340 H   0  0  0  0  0  0  0  0  0  0  0  0
   49.0010   30.5530   48.6550 S   0  0  0  0  0  0  0  0  0  0  0  0
   53.0880   31.1610   52.0350 H   0  0  0  0  0  0  0  0  0  0  0  0
   52.1650   31.1420   51.5530 N   0  0  0  0  0  0  0  0  0  0  0  0
   52.1810   31.8290   50.2740 C   0  0  0  0  0  0  0  0  0  0  0  0
   50.7730   32.1530   49.8640 C   0  0  0  0  0  0  0  0  0  0  0  0
   49.7720   31.1030   50.2040 C   0  0  0  0  0  0  0  0  0  0  0  0
   50.2330   29.9090   50.9360 C   0  0  0  0  0  0  0  0  0  0  0  0
   51.6870   29.8090   51.2400 C   0  0  0  0  0  0  0  0  0  0  0  0
  1  2  2  0  0  0  0
  1  6  1  0  0  0  0
  2  3  1  0  0  0  0
  3 20  1  0  0  0  0
  3  4  2  0  0  0  0
  4  8  1  0  0  0  0
  5  4  1  0  0  0  0
  5  9  1  0  0  0  0
  6  5  2  0  0  0  0
  7  2  1  0  0  0  0
 10  6  1  0  0  0  0
 11 17  1  0  0  0  0
 11 16  1  0  0  0  0
 12 11  2  0  0  0  0
 13 12  1  0  0  0  0
 13 14  2  0  0  0  0
 14 15  1  0  0  0  0
 15 16  2  0  0  0  0
 15  1  1  0  0  0  0
 18 12  1  0  0  0  0
 19 13  1  0  0  0  0
 20 25  1  0  0  0  0
 22 21  1  0  0  0  0
 23 22  1  0  0  0  0
 24 25  1  0  0  0  0
 24 23  1  0  0  0  0
 25 26  1  0  0  0  0
 26 27  1  0  0  0  0
 27 22  1  0  0  0  0
M  END
>  <minimizedAffinity>
-5.66512108

>  <minimizedRMSD>
1.22537708

$$$$
