
 OpenBabel03252503163D

 34 37  0  0  0  0  0  0  0  0999 V2000
   46.2810   34.7610   41.9460 C   0  0  0  0  0  0  0  0  0  0  0  0
   47.4950   35.1180   41.8190 O   0  0  0  0  0  0  0  0  0  0  0  0
   45.4420   34.2210   40.8140 C   0  0  0  0  0  0  0  0  0  0  0  0
   44.1070   34.5100   40.5790 C   0  0  0  0  0  0  0  0  0  0  0  0
   43.7980   33.8100   39.4760 N   0  0  0  0  0  0  0  0  0  0  0  0
   44.8780   33.1270   39.0540 C   0  0  0  0  0  0  0  0  0  0  0  0
   45.9260   33.3740   39.8850 N   0  0  0  0  0  0  0  0  0  0  0  0
   45.0750   32.2430   37.9420 N   0  0  0  0  0  0  0  0  0  0  0  0
   43.4670   35.1590   41.1620 H   0  0  0  0  0  0  0  0  0  0  0  0
   45.1080   31.2120   38.1420 H   0  0  0  0  0  0  0  0  0  0  0  0
   45.1540   32.8640   37.0850 H   0  0  0  0  0  0  0  0  0  0  0  0
   39.8890   33.7950   37.1280 H   0  0  0  0  0  0  0  0  0  0  0  0
   39.9170   34.2050   38.0680 N   0  0  0  0  0  0  0  0  0  0  0  0
   40.7230   35.3960   38.1930 C   0  0  0  0  0  2  0  0  0  0  0  0
   42.1960   35.1180   38.2500 C   0  0  0  0  0  2  0  0  0  0  0  0
   42.5160   33.7550   38.7980 C   0  0  0  0  0  3  0  0  0  0  0  0
   41.4370   33.2870   39.7840 C   0  0  0  0  0  2  0  0  0  0  0  0
   40.1030   33.2740   39.1330 C   0  0  0  0  0  2  0  0  0  0  0  0
   45.0850   36.0820   43.6180 C   0  0  0  0  0  0  0  0  0  0  0  0
   45.7210   34.8960   43.2470 C   0  0  0  0  0  0  0  0  0  0  0  0
   45.7540   33.9100   44.2260 C   0  0  0  0  0  0  0  0  0  0  0  0
   45.2130   34.0860   45.4320 N   0  0  0  0  0  0  0  0  0  0  0  0
   44.6010   35.2650   45.7500 C   0  0  0  0  0  0  0  0  0  0  0  0
   44.5450   36.2510   44.8360 N   0  0  0  0  0  0  0  0  0  0  0  0
   45.0280   36.8950   42.8900 H   0  0  0  0  0  0  0  0  0  0  0  0
   44.1590   35.4120   46.7320 H   0  0  0  0  0  0  0  0  0  0  0  0
   46.3830   32.6790   43.9250 C   0  0  0  0  0  0  0  0  0  0  0  0
   47.6630   32.2190   43.9830 C   0  0  0  0  0  0  0  0  0  0  0  0
   47.9720   30.9790   43.6260 C   0  0  0  0  0  0  0  0  0  0  0  0
   46.9700   30.1770   43.2010 C   0  0  0  0  0  0  0  0  0  0  0  0
   45.5000   31.2660   43.3170 S   0  0  0  0  0  0  0  0  0  0  0  0
   48.4020   32.9630   44.3470 H   0  0  0  0  0  0  0  0  0  0  0  0
   48.9660   30.5470   43.6470 H   0  0  0  0  0  0  0  0  0  0  0  0
   46.9370   29.1500   42.8590 H   0  0  0  0  0  0  0  0  0  0  0  0
  1 20  1  0  0  0  0
  2  1  2  0  0  0  0
  3  1  1  0  0  0  0
  4  3  2  0  0  0  0
  4  9  1  0  0  0  0
  5  4  1  0  0  0  0
  6  5  1  0  0  0  0
  6  7  2  0  0  0  0
  7  3  1  0  0  0  0
  8 10  1  0  0  0  0
  8  6  1  0  0  0  0
 11  8  1  0  0  0  0
 12 13  1  0  0  0  0
 13 14  1  0  0  0  0
 13 18  1  0  0  0  0
 14 15  1  0  0  0  0
 15 16  1  0  0  0  0
 16  5  1  0  0  0  0
 16 17  1  0  0  0  0
 18 17  1  0  0  0  0
 19 24  1  0  0  0  0
 20 19  2  0  0  0  0
 20 21  1  0  0  0  0
 21 22  2  0  0  0  0
 22 23  1  0  0  0  0
 23 26  1  0  0  0  0
 24 23  2  0  0  0  0
 25 19  1  0  0  0  0
 27 28  2  0  0  0  0
 27 21  1  0  0  0  0
 28 32  1  0  0  0  0
 29 33  1  0  0  0  0
 29 28  1  0  0  0  0
 30 31  1  0  0  0  0
 30 29  2  0  0  0  0
 31 27  1  0  0  0  0
 34 30  1  0  0  0  0
M  END
>  <minimizedAffinity>
-5.46545649

>  <minimizedRMSD>
0.544830203

$$$$
