
 OpenBabel03252505483D

 27 29  0  0  1  0  0  0  0  0999 V2000
   39.9250   27.9960   43.0870 C   0  0  0  0  0  0  0  0  0  0  0  0
   41.3450   27.9610   43.1910 C   0  0  0  0  0  0  0  0  0  0  0  0
   42.0990   29.0960   42.9200 C   0  0  0  0  0  0  0  0  0  0  0  0
   41.4220   30.2190   42.5550 N   0  0  0  0  0  0  0  0  0  0  0  0
   40.0540   30.2140   42.4640 C   0  0  0  0  0  0  0  0  0  0  0  0
   39.3250   29.1260   42.7260 N   0  0  0  0  0  0  0  0  0  0  0  0
   41.8440   27.0460   43.4850 H   0  0  0  0  0  0  0  0  0  0  0  0
   43.1600   29.1120   42.9860 H   0  0  0  0  0  0  0  0  0  0  0  0
   39.1840   26.7630   43.3750 C   0  0  1  0  0  0  0  0  0  0  0  0
   38.6810   26.0810   42.0500 C   0  0  1  0  0  0  0  0  0  0  0  0
   39.6040   25.4500   43.0670 C   0  0  0  0  0  0  0  0  0  0  0  0
   38.3390   26.9480   44.1020 H   0  0  0  0  0  0  0  0  0  0  0  0
   39.0870   26.4350   41.1070 H   0  0  0  0  0  0  0  0  0  0  0  0
   39.2180   24.5990   43.6900 H   0  0  0  0  0  0  0  0  0  0  0  0
   40.6120   25.2140   42.6690 H   0  0  0  0  0  0  0  0  0  0  0  0
   37.2580   25.5760   42.1290 C   0  0  0  0  0  0  0  0  0  0  0  0
   37.1520   24.3200   42.6530 F   0  0  0  0  0  0  0  0  0  0  0  0
   36.5250   26.4440   42.9570 F   0  0  0  0  0  0  0  0  0  0  0  0
   36.6340   25.6550   40.8920 F   0  0  0  0  0  0  0  0  0  0  0  0
   39.4910   31.4200   42.0810 O   0  0  0  0  0  0  0  0  0  0  0  0
   36.6610   33.4740   40.9920 H   0  0  0  0  0  0  0  0  0  0  0  0
   37.2380   33.5780   40.1200 N   0  0  0  0  0  0  0  0  0  0  0  0
   37.2620   32.3070   39.4270 C   0  0  0  0  0  2  0  0  0  0  0  0
   37.7780   31.2780   40.4100 C   0  0  0  0  0  2  0  0  0  0  0  0
   39.2000   31.6440   40.7290 C   0  0  0  0  0  3  0  0  0  0  0  0
   39.6220   32.9980   40.2420 C   0  0  0  0  0  2  0  0  0  0  0  0
   38.5710   34.0570   40.4150 C   0  0  0  0  0  2  0  0  0  0  0  0
  1  2  1  0  0  0  0
  1  9  1  0  0  0  0
  2  7  1  0  0  0  0
  3  8  1  0  0  0  0
  3  2  2  0  0  0  0
  4  3  1  0  0  0  0
  5  4  2  0  0  0  0
  5  6  1  0  0  0  0
  6  1  2  0  0  0  0
  9 12  1  1  0  0  0
 10 13  1  6  0  0  0
 10 16  1  0  0  0  0
 10 11  1  0  0  0  0
 10  9  1  0  0  0  0
 11  9  1  0  0  0  0
 11 14  1  0  0  0  0
 15 11  1  0  0  0  0
 16 17  1  0  0  0  0
 16 18  1  0  0  0  0
 19 16  1  0  0  0  0
 20  5  1  0  0  0  0
 22 27  1  0  0  0  0
 22 21  1  0  0  0  0
 23 22  1  0  0  0  0
 23 24  1  0  0  0  0
 24 25  1  0  0  0  0
 25 20  1  0  0  0  0
 26 27  1  0  0  0  0
 26 25  1  0  0  0  0
M  END
>  <minimizedAffinity>
-5.36757708

$$$$

 OpenBabel03252505483D

 27 29  0  0  1  0  0  0  0  0999 V2000
   37.7390   26.5760   42.3260 C   0  0  0  0  0  0  0  0  0  0  0  0
   38.9540   26.4740   43.0640 C   0  0  0  0  0  0  0  0  0  0  0  0
   39.6670   27.6170   43.4060 C   0  0  0  0  0  0  0  0  0  0  0  0
   39.1550   28.8120   43.0060 N   0  0  0  0  0  0  0  0  0  0  0  0
   37.9840   28.8700   42.2960 C   0  0  0  0  0  0  0  0  0  0  0  0
   37.2940   27.7760   41.9660 N   0  0  0  0  0  0  0  0  0  0  0  0
   39.3260   25.5030   43.3630 H   0  0  0  0  0  0  0  0  0  0  0  0
   40.5770   27.5840   43.9550 H   0  0  0  0  0  0  0  0  0  0  0  0
   37.0360   25.3340   41.9850 C   0  0  1  0  0  0  0  0  0  0  0  0
   37.4750   24.8050   40.5700 C   0  0  1  0  0  0  0  0  0  0  0  0
   37.6200   24.0530   41.8730 C   0  0  0  0  0  0  0  0  0  0  0  0
   35.9160   25.4580   42.0610 H   0  0  0  0  0  0  0  0  0  0  0  0
   38.3530   25.2480   40.1090 H   0  0  0  0  0  0  0  0  0  0  0  0
   36.9770   23.1490   42.0480 H   0  0  0  0  0  0  0  0  0  0  0  0
   38.6730   23.8400   42.1510 H   0  0  0  0  0  0  0  0  0  0  0  0
   36.3230   24.3220   39.7190 C   0  0  0  0  0  0  0  0  0  0  0  0
   35.7060   25.3170   39.0170 F   0  0  0  0  0  0  0  0  0  0  0  0
   36.8180   23.3920   38.7890 F   0  0  0  0  0  0  0  0  0  0  0  0
   35.4090   23.6080   40.4800 F   0  0  0  0  0  0  0  0  0  0  0  0
   37.5760   30.1470   41.9480 O   0  0  0  0  0  0  0  0  0  0  0  0
   36.5980   33.5050   40.8590 H   0  0  0  0  0  0  0  0  0  0  0  0
   37.4040   33.3850   40.1960 N   0  0  0  0  0  0  0  0  0  0  0  0
   37.0470   32.3870   39.2080 C   0  0  0  0  0  2  0  0  0  0  0  0
   36.6580   31.1360   39.9670 C   0  0  0  0  0  2  0  0  0  0  0  0
   37.8880   30.6460   40.6770 C   0  0  0  0  0  3  0  0  0  0  0  0
   39.0350   31.6120   40.6780 C   0  0  0  0  0  2  0  0  0  0  0  0
   38.6240   33.0390   40.8940 C   0  0  0  0  0  2  0  0  0  0  0  0
  1  2  1  0  0  0  0
  2  7  1  0  0  0  0
  2  3  2  0  0  0  0
  3  8  1  0  0  0  0
  4  3  1  0  0  0  0
  5  4  2  0  0  0  0
  6  5  1  0  0  0  0
  6  1  2  0  0  0  0
  9 12  1  1  0  0  0
  9  1  1  0  0  0  0
 10 13  1  6  0  0  0
 10 11  1  0  0  0  0
 10  9  1  0  0  0  0
 11  9  1  0  0  0  0
 11 14  1  0  0  0  0
 11 15  1  0  0  0  0
 16 19  1  0  0  0  0
 16 10  1  0  0  0  0
 17 16  1  0  0  0  0
 18 16  1  0  0  0  0
 20  5  1  0  0  0  0
 22 21  1  0  0  0  0
 22 27  1  0  0  0  0
 23 24  1  0  0  0  0
 23 22  1  0  0  0  0
 24 25  1  0  0  0  0
 25 26  1  0  0  0  0
 25 20  1  0  0  0  0
 26 27  1  0  0  0  0
M  END
>  <minimizedAffinity>
-5.34180498

$$$$

 OpenBabel03252505483D

 27 29  0  0  1  0  0  0  0  0999 V2000
   36.9230   29.2390   41.7230 C   0  0  0  0  0  0  0  0  0  0  0  0
   36.0680   30.0080   40.8810 C   0  0  0  0  0  0  0  0  0  0  0  0
   36.4810   31.2430   40.3970 C   0  0  0  0  0  0  0  0  0  0  0  0
   37.7200   31.6710   40.7640 N   0  0  0  0  0  0  0  0  0  0  0  0
   38.5140   30.9040   41.5770 C   0  0  0  0  0  0  0  0  0  0  0  0
   38.1220   29.7160   42.0430 N   0  0  0  0  0  0  0  0  0  0  0  0
   35.0890   29.6290   40.6140 H   0  0  0  0  0  0  0  0  0  0  0  0
   35.8740   31.8470   39.7670 H   0  0  0  0  0  0  0  0  0  0  0  0
   36.4270   27.9480   42.2130 C   0  0  1  0  0  0  0  0  0  0  0  0
   37.5890   26.8930   42.3050 C   0  0  1  0  0  0  0  0  0  0  0  0
   36.7320   27.3600   43.4600 C   0  0  0  0  0  0  0  0  0  0  0  0
   35.5630   27.5730   41.5880 H   0  0  0  0  0  0  0  0  0  0  0  0
   38.6110   27.2490   42.2210 H   0  0  0  0  0  0  0  0  0  0  0  0
   35.9980   26.6400   43.9110 H   0  0  0  0  0  0  0  0  0  0  0  0
   37.3010   27.8840   44.2550 H   0  0  0  0  0  0  0  0  0  0  0  0
   37.2090   25.5250   41.7860 C   0  0  0  0  0  0  0  0  0  0  0  0
   36.6310   25.5500   40.5500 F   0  0  0  0  0  0  0  0  0  0  0  0
   38.3750   24.7460   41.6920 F   0  0  0  0  0  0  0  0  0  0  0  0
   36.4080   24.8530   42.6980 F   0  0  0  0  0  0  0  0  0  0  0  0
   39.7480   31.4580   41.8760 O   0  0  0  0  0  0  0  0  0  0  0  0
   38.8940   32.5020   38.4700 H   0  0  0  0  0  0  0  0  0  0  0  0
   39.9050   32.7900   38.4440 N   0  0  0  0  0  0  0  0  0  0  0  0
   40.7250   31.5970   38.4370 C   0  0  0  0  0  2  0  0  0  0  0  0
   40.3300   30.7830   39.6510 C   0  0  0  0  0  2  0  0  0  0  0  0
   40.7080   31.5830   40.8640 C   0  0  0  0  0  3  0  0  0  0  0  0
   41.0970   33.0030   40.5810 C   0  0  0  0  0  2  0  0  0  0  0  0
   40.2400   33.6690   39.5430 C   0  0  0  0  0  2  0  0  0  0  0  0
  1  6  1  0  0  0  0
  1  9  1  0  0  0  0
  2  1  2  0  0  0  0
  3  4  2  0  0  0  0
  3  2  1  0  0  0  0
  4  5  1  0  0  0  0
  5 20  1  0  0  0  0
  5  6  2  0  0  0  0
  7  2  1  0  0  0  0
  8  3  1  0  0  0  0
  9 12  1  6  0  0  0
  9 10  1  0  0  0  0
  9 11  1  0  0  0  0
 10 13  1  6  0  0  0
 10 11  1  0  0  0  0
 11 14  1  0  0  0  0
 11 15  1  0  0  0  0
 16 10  1  0  0  0  0
 16 19  1  0  0  0  0
 17 16  1  0  0  0  0
 18 16  1  0  0  0  0
 22 21  1  0  0  0  0
 22 27  1  0  0  0  0
 23 22  1  0  0  0  0
 23 24  1  0  0  0  0
 24 25  1  0  0  0  0
 25 20  1  0  0  0  0
 26 25  1  0  0  0  0
 27 26  1  0  0  0  0
M  END
>  <minimizedAffinity>
-5.32905531

$$$$

 OpenBabel03252505483D

 27 29  0  0  1  0  0  0  0  0999 V2000
   36.4730   28.8670   41.2290 C   0  0  0  0  0  0  0  0  0  0  0  0
   35.8360   28.6760   39.9700 C   0  0  0  0  0  0  0  0  0  0  0  0
   35.8450   29.6860   39.0150 C   0  0  0  0  0  0  0  0  0  0  0  0
   36.4810   30.8430   39.3420 N   0  0  0  0  0  0  0  0  0  0  0  0
   37.0830   30.9910   40.5650 C   0  0  0  0  0  0  0  0  0  0  0  0
   37.0770   30.0230   41.4850 N   0  0  0  0  0  0  0  0  0  0  0  0
   35.3400   27.7380   39.7500 H   0  0  0  0  0  0  0  0  0  0  0  0
   35.3810   29.5830   38.0640 H   0  0  0  0  0  0  0  0  0  0  0  0
   36.4190   27.7690   42.2010 C   0  0  1  0  0  0  0  0  0  0  0  0
   37.6520   26.8060   42.0370 C   0  0  1  0  0  0  0  0  0  0  0  0
   37.3010   27.5780   43.2880 C   0  0  0  0  0  0  0  0  0  0  0  0
   35.4370   27.2130   42.1430 H   0  0  0  0  0  0  0  0  0  0  0  0
   38.4810   27.1390   41.4200 H   0  0  0  0  0  0  0  0  0  0  0  0
   36.9350   27.0110   44.1860 H   0  0  0  0  0  0  0  0  0  0  0  0
   38.0680   28.3220   43.5840 H   0  0  0  0  0  0  0  0  0  0  0  0
   37.2900   25.3400   42.1100 C   0  0  0  0  0  0  0  0  0  0  0  0
   36.1880   25.0860   42.8720 F   0  0  0  0  0  0  0  0  0  0  0  0
   37.0190   24.8850   40.8080 F   0  0  0  0  0  0  0  0  0  0  0  0
   38.3740   24.5820   42.5300 F   0  0  0  0  0  0  0  0  0  0  0  0
   37.6910   32.2180   40.7700 O   0  0  0  0  0  0  0  0  0  0  0  0
   40.7310   33.7910   42.0740 H   0  0  0  0  0  0  0  0  0  0  0  0
   41.1520   33.4150   41.1870 N   0  0  0  0  0  0  0  0  0  0  0  0
   40.6130   34.1600   40.0680 C   0  0  0  0  0  2  0  0  0  0  0  0
   39.1050   34.0520   40.1510 C   0  0  0  0  0  2  0  0  0  0  0  0
   38.7510   32.6070   39.9420 C   0  0  0  0  0  3  0  0  0  0  0  0
   39.9180   31.6660   39.9820 C   0  0  0  0  0  2  0  0  0  0  0  0
   40.9230   31.9930   41.0480 C   0  0  0  0  0  2  0  0  0  0  0  0
  1  6  1  0  0  0  0
  1  9  1  0  0  0  0
  2  1  2  0  0  0  0
  3  4  2  0  0  0  0
  3  2  1  0  0  0  0
  4  5  1  0  0  0  0
  5 20  1  0  0  0  0
  5  6  2  0  0  0  0
  7  2  1  0  0  0  0
  8  3  1  0  0  0  0
  9 12  1  1  0  0  0
  9 11  1  0  0  0  0
 10 13  1  6  0  0  0
 10 16  1  0  0  0  0
 10  9  1  0  0  0  0
 10 11  1  0  0  0  0
 11 15  1  0  0  0  0
 11 14  1  0  0  0  0
 16 19  1  0  0  0  0
 16 17  1  0  0  0  0
 18 16  1  0  0  0  0
 22 21  1  0  0  0  0
 23 24  1  0  0  0  0
 23 22  1  0  0  0  0
 25 26  1  0  0  0  0
 25 24  1  0  0  0  0
 25 20  1  0  0  0  0
 26 27  1  0  0  0  0
 27 22  1  0  0  0  0
M  END
>  <minimizedAffinity>
-5.29635143

$$$$

 OpenBabel03252505483D

 27 29  0  0  1  0  0  0  0  0999 V2000
   37.1820   30.6920   40.9420 C   0  0  0  0  0  0  0  0  0  0  0  0
   35.9370   30.3360   40.3470 C   0  0  0  0  0  0  0  0  0  0  0  0
   35.3490   29.1080   40.6250 C   0  0  0  0  0  0  0  0  0  0  0  0
   36.0120   28.2810   41.4770 N   0  0  0  0  0  0  0  0  0  0  0  0
   37.2090   28.6570   42.0300 C   0  0  0  0  0  0  0  0  0  0  0  0
   37.7770   29.8370   41.7670 N   0  0  0  0  0  0  0  0  0  0  0  0
   35.4430   31.0250   39.6730 H   0  0  0  0  0  0  0  0  0  0  0  0
   34.4220   28.8050   40.2010 H   0  0  0  0  0  0  0  0  0  0  0  0
   37.7590   31.9970   40.6010 C   0  0  1  0  0  0  0  0  0  0  0  0
   38.4450   31.9610   39.1870 C   0  0  1  0  0  0  0  0  0  0  0  0
   37.3030   32.8670   39.5870 C   0  0  0  0  0  0  0  0  0  0  0  0
   38.4650   32.3600   41.4050 H   0  0  0  0  0  0  0  0  0  0  0  0
   38.2500   31.1070   38.5460 H   0  0  0  0  0  0  0  0  0  0  0  0
   37.5000   33.9680   39.6910 H   0  0  0  0  0  0  0  0  0  0  0  0
   36.3720   32.6920   39.0110 H   0  0  0  0  0  0  0  0  0  0  0  0
   39.7850   32.6610   39.1450 C   0  0  0  0  0  0  0  0  0  0  0  0
   40.3580   32.6710   37.9060 F   0  0  0  0  0  0  0  0  0  0  0  0
   39.6000   33.9980   39.5370 F   0  0  0  0  0  0  0  0  0  0  0  0
   40.6510   32.1310   40.0920 F   0  0  0  0  0  0  0  0  0  0  0  0
   37.7790   27.7220   42.8770 O   0  0  0  0  0  0  0  0  0  0  0  0
   38.5050   24.2480   43.7850 H   0  0  0  0  0  0  0  0  0  0  0  0
   39.1300   24.2930   42.9410 N   0  0  0  0  0  0  0  0  0  0  0  0
   40.2510   25.1600   43.2420 C   0  0  0  0  0  2  0  0  0  0  0  0
   39.6750   26.4910   43.6760 C   0  0  0  0  0  2  0  0  0  0  0  0
   38.9600   27.0740   42.4910 C   0  0  0  0  0  3  0  0  0  0  0  0
   38.7750   26.1260   41.3440 C   0  0  0  0  0  2  0  0  0  0  0  0
   38.4100   24.7320   41.7650 C   0  0  0  0  0  2  0  0  0  0  0  0
  1  6  1  0  0  0  0
  2  3  1  0  0  0  0
  2  1  2  0  0  0  0
  3  4  2  0  0  0  0
  4  5  1  0  0  0  0
  5 20  1  0  0  0  0
  6  5  2  0  0  0  0
  7  2  1  0  0  0  0
  8  3  1  0  0  0  0
  9  1  1  0  0  0  0
  9 12  1  1  0  0  0
 10 13  1  6  0  0  0
 10 11  1  0  0  0  0
 10  9  1  0  0  0  0
 11 14  1  0  0  0  0
 11  9  1  0  0  0  0
 15 11  1  0  0  0  0
 16 10  1  0  0  0  0
 16 18  1  0  0  0  0
 16 19  1  0  0  0  0
 17 16  1  0  0  0  0
 22 23  1  0  0  0  0
 22 21  1  0  0  0  0
 23 24  1  0  0  0  0
 25 20  1  0  0  0  0
 25 24  1  0  0  0  0
 26 27  1  0  0  0  0
 26 25  1  0  0  0  0
 27 22  1  0  0  0  0
M  END
>  <minimizedAffinity>
-5.18167782

$$$$

 OpenBabel03252505483D

 27 29  0  0  1  0  0  0  0  0999 V2000
   36.7950   27.6780   40.5980 C   0  0  0  0  0  0  0  0  0  0  0  0
   36.7380   27.1710   39.2670 C   0  0  0  0  0  0  0  0  0  0  0  0
   36.6080   28.0380   38.1890 C   0  0  0  0  0  0  0  0  0  0  0  0
   36.5370   29.3690   38.4660 N   0  0  0  0  0  0  0  0  0  0  0  0
   36.5930   29.8180   39.7610 C   0  0  0  0  0  0  0  0  0  0  0  0
   36.7200   28.9890   40.7990 N   0  0  0  0  0  0  0  0  0  0  0  0
   36.7980   26.1050   39.0910 H   0  0  0  0  0  0  0  0  0  0  0  0
   36.5620   27.7010   37.1810 H   0  0  0  0  0  0  0  0  0  0  0  0
   36.9210   26.7120   41.6960 C   0  0  1  0  0  0  0  0  0  0  0  0
   38.4140   26.5910   42.1750 C   0  0  1  0  0  0  0  0  0  0  0  0
   37.2460   27.0170   43.0360 C   0  0  0  0  0  0  0  0  0  0  0  0
   36.4840   25.7090   41.4170 H   0  0  0  0  0  0  0  0  0  0  0  0
   39.1230   27.3380   41.8300 H   0  0  0  0  0  0  0  0  0  0  0  0
   36.8960   26.3250   43.8470 H   0  0  0  0  0  0  0  0  0  0  0  0
   37.3290   28.0550   43.4190 H   0  0  0  0  0  0  0  0  0  0  0  0
   38.8590   25.1680   42.4210 C   0  0  0  0  0  0  0  0  0  0  0  0
   39.6830   24.6770   41.4510 F   0  0  0  0  0  0  0  0  0  0  0  0
   39.5640   25.1270   43.6360 F   0  0  0  0  0  0  0  0  0  0  0  0
   37.7670   24.3340   42.6180 F   0  0  0  0  0  0  0  0  0  0  0  0
   36.5070   31.1930   39.9040 O   0  0  0  0  0  0  0  0  0  0  0  0
   38.0470   33.8030   41.9620 H   0  0  0  0  0  0  0  0  0  0  0  0
   38.8600   33.6550   41.3120 N   0  0  0  0  0  0  0  0  0  0  0  0
   38.5020   34.1610   40.0030 C   0  0  0  0  0  2  0  0  0  0  0  0
   37.2260   33.4580   39.5910 C   0  0  0  0  0  2  0  0  0  0  0  0
   37.5520   32.0000   39.4370 C   0  0  0  0  0  3  0  0  0  0  0  0
   38.8980   31.6010   39.9660 C   0  0  0  0  0  2  0  0  0  0  0  0
   39.2600   32.2660   41.2620 C   0  0  0  0  0  2  0  0  0  0  0  0
  1  6  1  0  0  0  0
  1  9  1  0  0  0  0
  2  1  2  0  0  0  0
  3  4  2  0  0  0  0
  3  2  1  0  0  0  0
  4  5  1  0  0  0  0
  5 20  1  0  0  0  0
  5  6  2  0  0  0  0
  7  2  1  0  0  0  0
  8  3  1  0  0  0  0
  9 12  1  6  0  0  0
  9 10  1  0  0  0  0
  9 11  1  0  0  0  0
 10 13  1  6  0  0  0
 10 16  1  0  0  0  0
 10 11  1  0  0  0  0
 11 15  1  0  0  0  0
 11 14  1  0  0  0  0
 16 19  1  0  0  0  0
 16 18  1  0  0  0  0
 17 16  1  0  0  0  0
 22 21  1  0  0  0  0
 23 22  1  0  0  0  0
 24 23  1  0  0  0  0
 25 24  1  0  0  0  0
 25 20  1  0  0  0  0
 25 26  1  0  0  0  0
 26 27  1  0  0  0  0
 27 22  1  0  0  0  0
M  END
>  <minimizedAffinity>
-5.13473892

$$$$

 OpenBabel03252505483D

 27 29  0  0  1  0  0  0  0  0999 V2000
   37.3500   26.9190   41.6070 C   0  0  0  0  0  0  0  0  0  0  0  0
   36.9870   27.0110   42.9820 C   0  0  0  0  0  0  0  0  0  0  0  0
   37.1690   28.1990   43.6790 C   0  0  0  0  0  0  0  0  0  0  0  0
   37.7030   29.2470   42.9940 N   0  0  0  0  0  0  0  0  0  0  0  0
   38.0410   29.1200   41.6710 C   0  0  0  0  0  0  0  0  0  0  0  0
   37.8670   27.9810   40.9960 N   0  0  0  0  0  0  0  0  0  0  0  0
   36.5660   26.1530   43.4890 H   0  0  0  0  0  0  0  0  0  0  0  0
   36.9120   28.3090   44.7050 H   0  0  0  0  0  0  0  0  0  0  0  0
   37.1450   25.6350   40.9270 C   0  0  1  0  0  0  0  0  0  0  0  0
   38.3290   24.6430   41.2200 C   0  0  1  0  0  0  0  0  0  0  0  0
   36.8750   24.3980   41.5520 C   0  0  0  0  0  0  0  0  0  0  0  0
   36.9770   25.7760   39.8180 H   0  0  0  0  0  0  0  0  0  0  0  0
   39.0230   24.8960   42.0160 H   0  0  0  0  0  0  0  0  0  0  0  0
   36.3160   23.6120   40.9750 H   0  0  0  0  0  0  0  0  0  0  0  0
   36.6750   24.2980   42.6380 H   0  0  0  0  0  0  0  0  0  0  0  0
   38.8060   23.8890   40.0000 C   0  0  0  0  0  0  0  0  0  0  0  0
   38.1840   24.2670   38.8450 F   0  0  0  0  0  0  0  0  0  0  0  0
   40.1820   24.1300   39.8380 F   0  0  0  0  0  0  0  0  0  0  0  0
   38.7090   22.5180   40.1940 F   0  0  0  0  0  0  0  0  0  0  0  0
   38.5760   30.2590   41.0950 O   0  0  0  0  0  0  0  0  0  0  0  0
   38.9450   32.5130   38.2310 H   0  0  0  0  0  0  0  0  0  0  0  0
   37.9420   32.7410   38.4450 N   0  0  0  0  0  0  0  0  0  0  0  0
   37.8920   33.4780   39.6910 C   0  0  0  0  0  2  0  0  0  0  0  0
   38.5860   32.6290   40.7340 C   0  0  0  0  0  2  0  0  0  0  0  0
   37.7630   31.3850   40.9140 C   0  0  0  0  0  3  0  0  0  0  0  0
   36.6910   31.1900   39.8830 C   0  0  0  0  0  2  0  0  0  0  0  0
   37.1200   31.5510   38.4900 C   0  0  0  0  0  2  0  0  0  0  0  0
  1  2  1  0  0  0  0
  2  7  1  0  0  0  0
  2  3  2  0  0  0  0
  3  8  1  0  0  0  0
  4  3  1  0  0  0  0
  5  4  2  0  0  0  0
  6  1  2  0  0  0  0
  6  5  1  0  0  0  0
  9 12  1  6  0  0  0
  9 10  1  0  0  0  0
  9 11  1  0  0  0  0
  9  1  1  0  0  0  0
 10 11  1  0  0  0  0
 10 13  1  1  0  0  0
 11 15  1  0  0  0  0
 14 11  1  0  0  0  0
 16 19  1  0  0  0  0
 16 10  1  0  0  0  0
 17 16  1  0  0  0  0
 18 16  1  0  0  0  0
 20  5  1  0  0  0  0
 21 22  1  0  0  0  0
 22 27  1  0  0  0  0
 22 23  1  0  0  0  0
 23 24  1  0  0  0  0
 24 25  1  0  0  0  0
 25 20  1  0  0  0  0
 26 25  1  0  0  0  0
 27 26  1  0  0  0  0
M  END
>  <minimizedAffinity>
-5.09960175

$$$$

 OpenBabel03252505483D

 27 29  0  0  1  0  0  0  0  0999 V2000
   36.7900   30.7430   40.3730 C   0  0  0  0  0  0  0  0  0  0  0  0
   36.4060   30.0820   39.1710 C   0  0  0  0  0  0  0  0  0  0  0  0
   36.0670   28.7350   39.1850 C   0  0  0  0  0  0  0  0  0  0  0  0
   36.1220   28.0930   40.3840 N   0  0  0  0  0  0  0  0  0  0  0  0
   36.4970   28.7620   41.5200 C   0  0  0  0  0  0  0  0  0  0  0  0
   36.8220   30.0570   41.5120 N   0  0  0  0  0  0  0  0  0  0  0  0
   36.3770   30.6310   38.2380 H   0  0  0  0  0  0  0  0  0  0  0  0
   35.7760   28.2050   38.3100 H   0  0  0  0  0  0  0  0  0  0  0  0
   37.1480   32.1630   40.2930 C   0  0  1  0  0  0  0  0  0  0  0  0
   38.5730   32.3530   39.6560 C   0  0  1  0  0  0  0  0  0  0  0  0
   37.2830   32.9200   39.1090 C   0  0  0  0  0  0  0  0  0  0  0  0
   37.0650   32.6690   41.3010 H   0  0  0  0  0  0  0  0  0  0  0  0
   39.0310   31.5000   39.1660 H   0  0  0  0  0  0  0  0  0  0  0  0
   37.1200   34.0300   39.1560 H   0  0  0  0  0  0  0  0  0  0  0  0
   37.0140   32.5300   38.1060 H   0  0  0  0  0  0  0  0  0  0  0  0
   39.4270   33.3750   40.3720 C   0  0  0  0  0  0  0  0  0  0  0  0
   38.7270   34.1610   41.2410 F   0  0  0  0  0  0  0  0  0  0  0  0
   40.4070   32.6930   41.1130 F   0  0  0  0  0  0  0  0  0  0  0  0
   40.1410   34.1460   39.4660 F   0  0  0  0  0  0  0  0  0  0  0  0
   36.5130   27.9920   42.6710 O   0  0  0  0  0  0  0  0  0  0  0  0
   38.3070   26.4300   39.8850 H   0  0  0  0  0  0  0  0  0  0  0  0
   39.0600   26.3070   40.6080 N   0  0  0  0  0  0  0  0  0  0  0  0
   38.6200   25.3180   41.5700 C   0  0  0  0  0  2  0  0  0  0  0  0
   37.2900   25.7940   42.1140 C   0  0  0  0  0  2  0  0  0  0  0  0
   37.5480   27.0680   42.8660 C   0  0  0  0  0  3  0  0  0  0  0  0
   38.9160   27.6500   42.6600 C   0  0  0  0  0  2  0  0  0  0  0  0
   39.4030   27.5610   41.2430 C   0  0  0  0  0  2  0  0  0  0  0  0
  1  6  1  0  0  0  0
  2  3  1  0  0  0  0
  2  1  2  0  0  0  0
  3  4  2  0  0  0  0
  4  5  1  0  0  0  0
  5 20  1  0  0  0  0
  6  5  2  0  0  0  0
  7  2  1  0  0  0  0
  8  3  1  0  0  0  0
  9  1  1  0  0  0  0
  9 12  1  1  0  0  0
 10 13  1  6  0  0  0
 10  9  1  0  0  0  0
 10 16  1  0  0  0  0
 11 14  1  0  0  0  0
 11 10  1  0  0  0  0
 11  9  1  0  0  0  0
 15 11  1  0  0  0  0
 16 18  1  0  0  0  0
 16 17  1  0  0  0  0
 19 16  1  0  0  0  0
 20 25  1  0  0  0  0
 21 22  1  0  0  0  0
 22 27  1  0  0  0  0
 22 23  1  0  0  0  0
 23 24  1  0  0  0  0
 24 25  1  0  0  0  0
 26 25  1  0  0  0  0
 27 26  1  0  0  0  0
M  END
>  <minimizedAffinity>
-5.03742981

$$$$

 OpenBabel03252505483D

 27 29  0  0  1  0  0  0  0  0999 V2000
   32.9600   29.1110   37.3510 C   0  0  0  0  0  0  0  0  0  0  0  0
   33.9510   28.7830   36.3810 C   0  0  0  0  0  0  0  0  0  0  0  0
   35.2570   28.5130   36.7730 C   0  0  0  0  0  0  0  0  0  0  0  0
   35.5320   28.5780   38.1040 N   0  0  0  0  0  0  0  0  0  0  0  0
   34.5510   28.8980   39.0080 C   0  0  0  0  0  0  0  0  0  0  0  0
   33.2950   29.1570   38.6360 N   0  0  0  0  0  0  0  0  0  0  0  0
   33.6890   28.7430   35.3310 H   0  0  0  0  0  0  0  0  0  0  0  0
   36.0250   28.2650   36.0820 H   0  0  0  0  0  0  0  0  0  0  0  0
   31.6010   29.3980   36.8750 C   0  0  1  0  0  0  0  0  0  0  0  0
   31.5140   30.8350   36.2440 C   0  0  1  0  0  0  0  0  0  0  0  0
   31.2070   29.5400   35.5270 C   0  0  0  0  0  0  0  0  0  0  0  0
   30.8360   29.2480   37.6930 H   0  0  0  0  0  0  0  0  0  0  0  0
   32.4420   31.3560   36.0300 H   0  0  0  0  0  0  0  0  0  0  0  0
   30.1410   29.3180   35.2500 H   0  0  0  0  0  0  0  0  0  0  0  0
   31.8820   29.3320   34.6720 H   0  0  0  0  0  0  0  0  0  0  0  0
   30.2800   31.6050   36.6560 C   0  0  0  0  0  0  0  0  0  0  0  0
   30.2030   32.8520   36.1060 F   0  0  0  0  0  0  0  0  0  0  0  0
   29.1470   30.8870   36.2360 F   0  0  0  0  0  0  0  0  0  0  0  0
   30.1700   31.6610   38.0390 F   0  0  0  0  0  0  0  0  0  0  0  0
   34.9650   28.9330   40.3290 O   0  0  0  0  0  0  0  0  0  0  0  0
   36.2870   29.6450   43.6700 H   0  0  0  0  0  0  0  0  0  0  0  0
   37.0950   29.0620   43.3340 N   0  0  0  0  0  0  0  0  0  0  0  0
   37.8090   29.8060   42.3170 C   0  0  0  0  0  2  0  0  0  0  0  0
   36.8010   30.1700   41.2470 C   0  0  0  0  0  2  0  0  0  0  0  0
   36.3340   28.8870   40.6220 C   0  0  0  0  0  3  0  0  0  0  0  0
   36.7480   27.6460   41.3560 C   0  0  0  0  0  2  0  0  0  0  0  0
   36.6580   27.7700   42.8500 C   0  0  0  0  0  2  0  0  0  0  0  0
  1  6  1  0  0  0  0
  2  3  1  0  0  0  0
  2  1  2  0  0  0  0
  3  4  2  0  0  0  0
  4  5  1  0  0  0  0
  5 20  1  0  0  0  0
  6  5  2  0  0  0  0
  7  2  1  0  0  0  0
  8  3  1  0  0  0  0
  9  1  1  0  0  0  0
  9 12  1  1  0  0  0
 10 13  1  6  0  0  0
 10 16  1  0  0  0  0
 10  9  1  0  0  0  0
 11 10  1  0  0  0  0
 11  9  1  0  0  0  0
 14 11  1  0  0  0  0
 15 11  1  0  0  0  0
 16 19  1  0  0  0  0
 17 16  1  0  0  0  0
 18 16  1  0  0  0  0
 20 25  1  0  0  0  0
 22 21  1  0  0  0  0
 23 22  1  0  0  0  0
 24 23  1  0  0  0  0
 25 24  1  0  0  0  0
 25 26  1  0  0  0  0
 26 27  1  0  0  0  0
 27 22  1  0  0  0  0
M  END
>  <minimizedAffinity>
-4.93036175

$$$$
