
 OpenBabel03242519243D

 38 41  0  0  0  0  0  0  0  0999 V2000
   47.9330   33.7780   42.8870 C   0  0  0  0  0  0  0  0  0  0  0  0
   48.5850   35.0000   42.6440 C   0  0  0  0  0  0  0  0  0  0  0  0
   49.9510   35.0210   42.3210 C   0  0  0  0  0  0  0  0  0  0  0  0
   50.5750   33.7940   42.2650 N   0  0  0  0  0  0  0  0  0  0  0  0
   49.9110   32.6250   42.5090 C   0  0  0  0  0  0  0  0  0  0  0  0
   48.6090   32.6330   42.8130 N   0  0  0  0  0  0  0  0  0  0  0  0
   48.1800   36.0010   42.6640 H   0  0  0  0  0  0  0  0  0  0  0  0
   50.5160   35.9010   42.1230 H   0  0  0  0  0  0  0  0  0  0  0  0
   46.5020   33.8930   43.2180 C   0  0  0  0  0  0  0  0  0  0  0  0
   45.7830   34.8810   42.4140 C   0  0  0  0  0  0  0  0  0  0  0  0
   45.3110   36.0660   43.1730 C   0  0  0  0  0  0  0  0  0  0  0  0
   44.5100   35.7080   44.4140 C   0  0  0  0  0  0  0  0  0  0  0  0
   44.9930   34.4540   45.1130 C   0  0  0  0  0  0  0  0  0  0  0  0
   46.4260   34.1550   44.7340 C   0  0  0  0  0  0  0  0  0  0  0  0
   46.0750   32.8520   43.1180 H   0  0  0  0  0  0  0  0  0  0  0  0
   44.8810   34.4030   41.9380 H   0  0  0  0  0  0  0  0  0  0  0  0
   46.4040   35.2380   41.5830 H   0  0  0  0  0  0  0  0  0  0  0  0
   44.5560   36.5780   42.5070 H   0  0  0  0  0  0  0  0  0  0  0  0
   46.0470   36.8430   43.3910 H   0  0  0  0  0  0  0  0  0  0  0  0
   44.6650   36.5330   45.1450 H   0  0  0  0  0  0  0  0  0  0  0  0
   43.4210   35.6770   44.2330 H   0  0  0  0  0  0  0  0  0  0  0  0
   44.9210   34.4910   46.2060 H   0  0  0  0  0  0  0  0  0  0  0  0
   44.4010   33.5870   44.7120 H   0  0  0  0  0  0  0  0  0  0  0  0
   46.7330   33.2330   45.2560 H   0  0  0  0  0  0  0  0  0  0  0  0
   47.1140   34.9950   45.0140 H   0  0  0  0  0  0  0  0  0  0  0  0
   50.7080   31.4120   42.4140 C   0  0  0  0  0  0  0  0  0  0  0  0
   50.5250   30.6470   41.3030 N   0  0  0  0  0  0  0  0  0  0  0  0
   51.3370   29.5700   41.3750 C   0  0  0  0  0  0  0  0  0  0  0  0
   52.0260   29.6770   42.5500 N   0  0  0  0  0  0  0  0  0  0  0  0
   51.6380   30.7940   43.1700 N   0  0  0  0  0  0  0  0  0  0  0  0
   51.3860   28.8020   40.6140 H   0  0  0  0  0  0  0  0  0  0  0  0
   55.3110   31.2420   43.6260 H   0  0  0  0  0  0  0  0  0  0  0  0
   55.3620   30.2180   43.5650 N   0  0  0  0  0  0  0  0  0  0  0  0
   54.7980   29.4810   44.6420 C   0  0  0  0  0  0  0  0  0  0  0  0
   53.4000   28.9970   44.4540 C   0  0  0  0  0  0  0  0  0  0  0  0
   53.0110   28.7240   43.0240 C   0  0  0  0  0  0  0  0  0  0  0  0
   54.1930   28.6180   42.0890 C   0  0  0  0  0  0  0  0  0  0  0  0
   55.2450   29.6420   42.2760 C   0  0  0  0  0  0  0  0  0  0  0  0
  1  9  1  0  0  0  0
  2  7  1  0  0  0  0
  2  1  2  0  0  0  0
  3  2  1  0  0  0  0
  4  3  2  0  0  0  0
  4  5  1  0  0  0  0
  5  6  2  0  0  0  0
  6  1  1  0  0  0  0
  8  3  1  0  0  0  0
  9 14  1  0  0  0  0
 10 11  1  0  0  0  0
 10  9  1  0  0  0  0
 11 19  1  0  0  0  0
 11 12  1  0  0  0  0
 12 13  1  0  0  0  0
 12 20  1  0  0  0  0
 13 22  1  0  0  0  0
 14 25  1  0  0  0  0
 14 13  1  0  0  0  0
 14 24  1  0  0  0  0
 15  9  1  0  0  0  0
 16 10  1  0  0  0  0
 17 10  1  0  0  0  0
 18 11  1  0  0  0  0
 21 12  1  0  0  0  0
 23 13  1  0  0  0  0
 26  5  1  0  0  0  0
 26 30  2  0  0  0  0
 27 28  2  0  0  0  0
 27 26  1  0  0  0  0
 28 29  1  0  0  0  0
 29 36  1  0  0  0  0
 29 30  1  0  0  0  0
 31 28  1  0  0  0  0
 33 32  1  0  0  0  0
 33 34  1  0  0  0  0
 35 34  1  0  0  0  0
 36 35  1  0  0  0  0
 37 38  1  0  0  0  0
 37 36  1  0  0  0  0
 38 33  1  0  0  0  0
M  END
>  <minimizedAffinity>
-4.69601631

>  <minimizedRMSD>
1.26102257

$$$$
