
 OpenBabel03252508273D

 23 25  0  0  0  0  0  0  0  0999 V2000
   45.5640   34.0340   41.8430 C   0  0  0  0  0  0  0  0  0  0  0  0
   44.6560   33.7690   40.8510 C   0  0  0  0  0  0  0  0  0  0  0  0
   45.3330   33.3830   39.6980 C   0  0  0  0  0  0  0  0  0  0  0  0
   46.6390   33.4260   40.0300 N   0  0  0  0  0  0  0  0  0  0  0  0
   46.7850   33.8060   41.2860 N   0  0  0  0  0  0  0  0  0  0  0  0
   43.5740   33.8620   40.9920 H   0  0  0  0  0  0  0  0  0  0  0  0
   44.8430   33.1220   38.7780 H   0  0  0  0  0  0  0  0  0  0  0  0
   44.4200   35.9740   44.8650 C   0  0  0  0  0  0  0  0  0  0  0  0
   44.6560   35.6750   43.4950 C   0  0  0  0  0  0  0  0  0  0  0  0
   45.2630   34.4660   43.2010 C   0  0  0  0  0  0  0  0  0  0  0  0
   45.5970   33.6350   44.2320 N   0  0  0  0  0  0  0  0  0  0  0  0
   45.3600   33.9480   45.5220 C   0  0  0  0  0  0  0  0  0  0  0  0
   44.7740   35.1140   45.8180 N   0  0  0  0  0  0  0  0  0  0  0  0
   43.9440   36.9190   45.1140 H   0  0  0  0  0  0  0  0  0  0  0  0
   44.3880   36.3370   42.7090 H   0  0  0  0  0  0  0  0  0  0  0  0
   45.6370   33.2670   46.3210 H   0  0  0  0  0  0  0  0  0  0  0  0
   48.9340   32.8440   36.1690 H   0  0  0  0  0  0  0  0  0  0  0  0
   48.1240   33.4750   36.2100 N   0  0  0  0  0  0  0  0  0  0  0  0
   46.9030   32.8360   36.6020 C   0  0  0  0  0  0  0  0  0  0  0  0
   46.9740   32.2360   37.9790 C   0  0  0  0  0  0  0  0  0  0  0  0
   47.6240   33.0710   39.0230 C   0  0  0  0  0  0  0  0  0  0  0  0
   48.3990   34.2380   38.5480 C   0  0  0  0  0  0  0  0  0  0  0  0
   48.2800   34.5960   37.1060 C   0  0  0  0  0  0  0  0  0  0  0  0
  1 10  1  0  0  0  0
  2  6  1  0  0  0  0
  2  1  1  0  0  0  0
  3  4  1  0  0  0  0
  3  2  2  0  0  0  0
  4  5  1  0  0  0  0
  5  1  2  0  0  0  0
  7  3  1  0  0  0  0
  8 14  1  0  0  0  0
  8 13  1  0  0  0  0
  9  8  2  0  0  0  0
 10  9  1  0  0  0  0
 10 11  2  0  0  0  0
 11 12  1  0  0  0  0
 12 13  2  0  0  0  0
 12 16  1  0  0  0  0
 15  9  1  0  0  0  0
 17 18  1  0  0  0  0
 18 19  1  0  0  0  0
 18 23  1  0  0  0  0
 19 20  1  0  0  0  0
 20 21  1  0  0  0  0
 21  4  1  0  0  0  0
 22 21  1  0  0  0  0
 23 22  1  0  0  0  0
M  END
>  <minimizedAffinity>
-4.52019787

>  <minimizedRMSD>
2.97726607

$$$$
