
 OpenBabel03252509313D

 25 26  0  0  0  0  0  0  0  0999 V2000
   48.2490   33.1880   43.5450 O   0  0  0  0  0  0  0  0  0  0  0  0
   46.9440   33.3110   43.0530 C   0  0  0  0  0  0  0  0  0  0  0  0
   46.9150   33.8560   42.0680 H   0  0  0  0  0  0  0  0  0  0  0  0
   46.4740   32.3170   42.8540 H   0  0  0  0  0  0  0  0  0  0  0  0
   45.0800   34.2930   46.1230 C   0  0  0  0  0  0  0  0  0  0  0  0
   45.9040   33.5680   45.2450 C   0  0  0  0  0  0  0  0  0  0  0  0
   46.0950   34.0500   43.9690 C   0  0  0  0  0  0  0  0  0  0  0  0
   45.4680   35.2210   43.6110 N   0  0  0  0  0  0  0  0  0  0  0  0
   44.6780   35.8920   44.4850 C   0  0  0  0  0  0  0  0  0  0  0  0
   44.4880   35.4360   45.7180 N   0  0  0  0  0  0  0  0  0  0  0  0
   44.9180   33.9240   47.1380 H   0  0  0  0  0  0  0  0  0  0  0  0
   46.3370   32.6670   45.6490 H   0  0  0  0  0  0  0  0  0  0  0  0
   44.1820   36.8140   44.2080 H   0  0  0  0  0  0  0  0  0  0  0  0
   50.2970   32.7760   41.9780 O   0  0  0  0  0  0  0  0  0  0  0  0
   49.2850   33.8230   42.3600 P   0  0  2  0  0  0  0  0  0  0  0  0
   49.9670   35.2240   42.9880 O   0  0  0  0  0  0  0  0  0  0  0  0
   50.9090   35.0960   43.2980 H   0  0  0  0  0  0  0  0  0  0  0  0
   48.3410   34.1680   41.0010 O   0  0  0  0  0  0  0  0  0  0  0  0
   46.5640   31.8130   37.1280 H   0  0  0  0  0  0  0  0  0  0  0  0
   47.4040   32.2990   37.4840 N   0  0  0  0  0  0  0  0  0  0  0  0
   47.1050   33.6350   37.9610 C   0  0  0  0  0  2  0  0  0  0  0  0
   48.3140   34.2040   38.6620 C   0  0  0  0  0  2  0  0  0  0  0  0
   48.6680   33.4140   39.9060 C   0  0  0  0  0  3  0  0  0  0  0  0
   47.9310   32.1000   39.8390 C   0  0  0  0  0  2  0  0  0  0  0  0
   48.1850   31.5410   38.4360 C   0  0  0  0  0  2  0  0  0  0  0  0
  2  1  1  0  0  0  0
  2  7  1  0  0  0  0
  3  2  1  0  0  0  0
  4  2  1  0  0  0  0
  5 11  1  0  0  0  0
  6 12  1  0  0  0  0
  6  5  2  0  0  0  0
  7  6  1  0  0  0  0
  8  7  2  0  0  0  0
  8  9  1  0  0  0  0
  9 10  2  0  0  0  0
 10  5  1  0  0  0  0
 13  9  1  0  0  0  0
 15 14  2  6  0  0  0
 15 16  1  0  0  0  0
 15  1  1  0  0  0  0
 16 17  1  0  0  0  0
 18 15  1  0  0  0  0
 19 20  1  0  0  0  0
 20 21  1  0  0  0  0
 20 25  1  0  0  0  0
 21 22  1  0  0  0  0
 22 23  1  0  0  0  0
 23 18  1  0  0  0  0
 24 23  1  0  0  0  0
 25 24  1  0  0  0  0
M  END
>  <minimizedAffinity>
-4.42377949

>  <minimizedRMSD>
1.06114066

$$$$
