
 OpenBabel03252509083D

 39 42  0  0  0  0  0  0  0  0999 V2000
   47.6190   31.8130   38.9520 C   0  0  0  0  0  0  0  0  0  0  0  0
   47.1650   33.0980   38.9460 C   0  0  0  0  0  0  0  0  0  0  0  0
   47.7970   34.0270   38.1440 C   0  0  0  0  0  0  0  0  0  0  0  0
   48.8670   33.6610   37.3640 C   0  0  0  0  0  0  0  0  0  0  0  0
   49.3490   32.3550   37.3520 C   0  0  0  0  0  0  0  0  0  0  0  0
   48.7060   31.4350   38.1600 C   0  0  0  0  0  0  0  0  0  0  0  0
   47.4540   35.0680   38.1210 H   0  0  0  0  0  0  0  0  0  0  0  0
   49.3370   34.4050   36.7540 H   0  0  0  0  0  0  0  0  0  0  0  0
   50.1860   32.0320   36.7510 H   0  0  0  0  0  0  0  0  0  0  0  0
   49.0830   30.4110   38.1520 H   0  0  0  0  0  0  0  0  0  0  0  0
   45.3780   35.3740   43.1990 Cl  0  0  0  0  0  0  0  0  0  0  0  0
   45.2100   34.6010   41.6520 C   0  0  0  0  0  0  0  0  0  0  0  0
   46.2860   34.1860   40.9550 C   0  0  0  0  0  0  0  0  0  0  0  0
   46.0420   33.5770   39.7310 C   0  0  0  0  0  0  0  0  0  0  0  0
   44.7750   33.4010   39.2400 C   0  0  0  0  0  0  0  0  0  0  0  0
   43.7040   33.8250   39.9580 C   0  0  0  0  0  0  0  0  0  0  0  0
   43.9320   34.4300   41.1730 C   0  0  0  0  0  0  0  0  0  0  0  0
   44.6190   32.9230   38.2830 H   0  0  0  0  0  0  0  0  0  0  0  0
   42.6780   33.7050   39.6070 H   0  0  0  0  0  0  0  0  0  0  0  0
   43.0640   34.7690   41.7420 H   0  0  0  0  0  0  0  0  0  0  0  0
   49.5860   35.7390   41.9330 C   0  0  0  0  0  0  0  0  0  0  0  0
   48.3100   35.5620   41.3900 C   0  0  0  0  0  0  0  0  0  0  0  0
   47.6050   34.3810   41.5090 C   0  0  0  0  0  0  0  0  0  0  0  0
   48.2470   33.4000   42.1960 N   0  0  0  0  0  0  0  0  0  0  0  0
   49.4710   33.5640   42.7200 C   0  0  0  0  0  0  0  0  0  0  0  0
   50.1310   34.7210   42.5880 N   0  0  0  0  0  0  0  0  0  0  0  0
   50.1210   36.6860   41.8230 H   0  0  0  0  0  0  0  0  0  0  0  0
   47.8780   36.3960   40.8610 H   0  0  0  0  0  0  0  0  0  0  0  0
   49.9210   32.7320   43.2580 H   0  0  0  0  0  0  0  0  0  0  0  0
   46.8960   30.6140   39.8910 S   0  0  0  0  0  0  0  0  0  0  0  0
   45.6810   30.0100   39.2110 O   0  0  0  0  0  0  0  0  0  0  0  0
   47.9410   29.4640   39.8730 O   0  0  0  0  0  0  0  0  0  0  0  0
   46.1650   28.3280   44.6980 H   0  0  0  0  0  0  0  0  0  0  0  0
   46.0740   29.0500   43.9820 N   0  0  0  0  0  0  0  0  0  0  0  0
   47.2510   29.8320   43.7090 C   0  0  0  0  0  2  0  0  0  0  0  0
   47.5200   29.8120   42.2550 C   0  0  0  0  0  2  0  0  0  0  0  0
   46.4180   30.6540   41.5040 C   0  0  0  0  0  3  0  0  0  0  0  0
   45.2010   29.8230   41.9010 C   0  0  0  0  0  2  0  0  0  0  0  0
   45.4900   28.6210   42.7300 C   0  0  0  0  0  2  0  0  0  0  0  0
  1 30  1  0  0  0  0
  2  1  1  0  0  0  0
  2 14  1  0  0  0  0
  3  2  2  0  0  0  0
  4  3  1  0  0  0  0
  5  4  2  0  0  0  0
  5  6  1  0  0  0  0
  6  1  2  0  0  0  0
  7  3  1  0  0  0  0
  8  4  1  0  0  0  0
  9  5  1  0  0  0  0
 10  6  1  0  0  0  0
 12 11  1  0  0  0  0
 13 23  1  0  0  0  0
 13 12  2  0  0  0  0
 14 13  1  0  0  0  0
 15 14  2  0  0  0  0
 15 16  1  0  0  0  0
 16 17  2  0  0  0  0
 17 12  1  0  0  0  0
 17 20  1  0  0  0  0
 18 15  1  0  0  0  0
 19 16  1  0  0  0  0
 21 26  1  0  0  0  0
 22 23  1  0  0  0  0
 22 21  2  0  0  0  0
 23 24  2  0  0  0  0
 24 25  1  0  0  0  0
 25 29  1  0  0  0  0
 26 25  2  0  0  0  0
 27 21  1  0  0  0  0
 28 22  1  0  0  0  0
 30 37  1  0  0  0  0
 31 30  2  0  0  0  0
 32 30  2  0  0  0  0
 34 33  1  0  0  0  0
 35 34  1  0  0  0  0
 36 35  1  0  0  0  0
 37 38  1  0  0  0  0
 37 36  1  0  0  0  0
 38 39  1  0  0  0  0
 39 34  1  0  0  0  0
M  END
>  <minimizedAffinity>
-4.58840275

>  <minimizedRMSD>
1.15470779

$$$$
