
 OpenBabel03252509083D

 39 42  0  0  0  0  0  0  0  0999 V2000
   47.6700   31.8220   39.0830 C   0  0  0  0  0  0  0  0  0  0  0  0
   47.1710   33.0870   38.9830 C   0  0  0  0  0  0  0  0  0  0  0  0
   47.7630   33.9730   38.1050 C   0  0  0  0  0  0  0  0  0  0  0  0
   48.8380   33.5850   37.3440 C   0  0  0  0  0  0  0  0  0  0  0  0
   49.3640   32.2980   37.4260 C   0  0  0  0  0  0  0  0  0  0  0  0
   48.7620   31.4220   38.3100 C   0  0  0  0  0  0  0  0  0  0  0  0
   47.3820   34.9960   38.0060 H   0  0  0  0  0  0  0  0  0  0  0  0
   49.2750   34.2940   36.6720 H   0  0  0  0  0  0  0  0  0  0  0  0
   50.2070   31.9590   36.8420 H   0  0  0  0  0  0  0  0  0  0  0  0
   49.1740   30.4140   38.3760 H   0  0  0  0  0  0  0  0  0  0  0  0
   45.3330   35.4530   43.1650 Cl  0  0  0  0  0  0  0  0  0  0  0  0
   45.1840   34.6510   41.6310 C   0  0  0  0  0  0  0  0  0  0  0  0
   46.2680   34.2180   40.9580 C   0  0  0  0  0  0  0  0  0  0  0  0
   46.0390   33.5850   39.7420 C   0  0  0  0  0  0  0  0  0  0  0  0
   44.7780   33.4060   39.2370 C   0  0  0  0  0  0  0  0  0  0  0  0
   43.6980   33.8490   39.9310 C   0  0  0  0  0  0  0  0  0  0  0  0
   43.9120   34.4760   41.1370 C   0  0  0  0  0  0  0  0  0  0  0  0
   44.6330   32.9100   38.2870 H   0  0  0  0  0  0  0  0  0  0  0  0
   42.6770   33.7260   39.5670 H   0  0  0  0  0  0  0  0  0  0  0  0
   43.0370   34.8300   41.6870 H   0  0  0  0  0  0  0  0  0  0  0  0
   49.5800   35.7580   41.9160 C   0  0  0  0  0  0  0  0  0  0  0  0
   48.3110   35.5760   41.3570 C   0  0  0  0  0  0  0  0  0  0  0  0
   47.5790   34.4170   41.5270 C   0  0  0  0  0  0  0  0  0  0  0  0
   48.1870   33.4640   42.2820 N   0  0  0  0  0  0  0  0  0  0  0  0
   49.4050   33.6340   42.8200 C   0  0  0  0  0  0  0  0  0  0  0  0
   50.0910   34.7680   42.6380 N   0  0  0  0  0  0  0  0  0  0  0  0
   50.1360   36.6870   41.7640 H   0  0  0  0  0  0  0  0  0  0  0  0
   47.9070   36.3870   40.7730 H   0  0  0  0  0  0  0  0  0  0  0  0
   49.8270   32.8240   43.4130 H   0  0  0  0  0  0  0  0  0  0  0  0
   46.9980   30.6750   40.1200 S   0  0  0  0  0  0  0  0  0  0  0  0
   46.6840   29.3730   39.4060 O   0  0  0  0  0  0  0  0  0  0  0  0
   48.1780   30.3060   41.0600 O   0  0  0  0  0  0  0  0  0  0  0  0
   44.2140   29.1540   44.4570 H   0  0  0  0  0  0  0  0  0  0  0  0
   44.3880   29.6570   43.5840 N   0  0  0  0  0  0  0  0  0  0  0  0
   45.3150   30.7550   43.6510 C   0  0  0  0  0  2  0  0  0  0  0  0
   46.3470   30.5820   42.6070 C   0  0  0  0  0  2  0  0  0  0  0  0
   45.7040   30.8170   41.1870 C   0  0  0  0  0  3  0  0  0  0  0  0
   44.6870   29.6800   41.2180 C   0  0  0  0  0  2  0  0  0  0  0  0
   44.7110   28.8330   42.4410 C   0  0  0  0  0  2  0  0  0  0  0  0
  1 30  1  0  0  0  0
  2  1  1  0  0  0  0
  2 14  1  0  0  0  0
  3  2  2  0  0  0  0
  4  5  2  0  0  0  0
  4  3  1  0  0  0  0
  5  6  1  0  0  0  0
  6 10  1  0  0  0  0
  6  1  2  0  0  0  0
  7  3  1  0  0  0  0
  8  4  1  0  0  0  0
  9  5  1  0  0  0  0
 12 11  1  0  0  0  0
 13 23  1  0  0  0  0
 13 12  2  0  0  0  0
 14 13  1  0  0  0  0
 15 14  2  0  0  0  0
 15 16  1  0  0  0  0
 16 17  2  0  0  0  0
 17 12  1  0  0  0  0
 17 20  1  0  0  0  0
 18 15  1  0  0  0  0
 19 16  1  0  0  0  0
 21 26  1  0  0  0  0
 22 23  1  0  0  0  0
 22 21  2  0  0  0  0
 23 24  2  0  0  0  0
 24 25  1  0  0  0  0
 25 29  1  0  0  0  0
 26 25  2  0  0  0  0
 27 21  1  0  0  0  0
 28 22  1  0  0  0  0
 30 32  2  0  0  0  0
 30 37  1  0  0  0  0
 31 30  2  0  0  0  0
 34 35  1  0  0  0  0
 34 33  1  0  0  0  0
 36 35  1  0  0  0  0
 37 38  1  0  0  0  0
 37 36  1  0  0  0  0
 38 39  1  0  0  0  0
 39 34  1  0  0  0  0
M  END
>  <minimizedAffinity>
-4.67519331

>  <minimizedRMSD>
0.343858808

$$$$
