
 OpenBabel03242520493D

 17 18  0  0  0  0  0  0  0  0999 V2000
   40.1120   25.6020   43.6790 C   0  0  0  0  0  0  0  0  0  0  0  0
   39.3210   26.7600   43.5650 C   0  0  0  0  0  0  0  0  0  0  0  0
   38.1370   26.6970   42.8380 C   0  0  0  0  0  0  0  0  0  0  0  0
   37.8000   25.5000   42.2650 N   0  0  0  0  0  0  0  0  0  0  0  0
   38.5780   24.4080   42.3910 C   0  0  0  0  0  0  0  0  0  0  0  0
   39.7240   24.4660   43.0950 N   0  0  0  0  0  0  0  0  0  0  0  0
   41.0240   25.7280   44.2640 H   0  0  0  0  0  0  0  0  0  0  0  0
   39.5420   27.7250   43.9980 H   0  0  0  0  0  0  0  0  0  0  0  0
   38.2730   23.4680   41.9180 H   0  0  0  0  0  0  0  0  0  0  0  0
   37.2700   27.7560   42.6490 O   0  0  0  0  0  0  0  0  0  0  0  0
   35.3040   31.7170   40.7680 H   0  0  0  0  0  0  0  0  0  0  0  0
   35.7180   30.8420   41.1960 N   0  0  0  0  0  0  0  0  0  0  0  0
   35.3590   29.7720   40.3000 C   0  0  0  0  0  2  0  0  0  0  0  0
   35.8470   28.4900   40.8820 C   0  0  0  0  0  2  0  0  0  0  0  0
   37.2290   28.4950   41.4190 C   0  0  0  0  0  3  0  0  0  0  0  0
   37.9180   29.7950   41.5410 C   0  0  0  0  0  2  0  0  0  0  0  0
   37.1420   31.0010   41.1230 C   0  0  0  0  0  2  0  0  0  0  0  0
  1  7  1  0  0  0  0
  2  1  1  0  0  0  0
  2  8  1  0  0  0  0
  3  2  2  0  0  0  0
  4  5  2  0  0  0  0
  4  3  1  0  0  0  0
  5  6  1  0  0  0  0
  6  1  2  0  0  0  0
  9  5  1  0  0  0  0
 10  3  1  0  0  0  0
 11 12  1  0  0  0  0
 13 14  1  0  0  0  0
 13 12  1  0  0  0  0
 14 15  1  0  0  0  0
 15 16  1  0  0  0  0
 15 10  1  0  0  0  0
 17 12  1  0  0  0  0
 17 16  1  0  0  0  0
M  END
>  <minimizedAffinity>
-4.49890184

$$$$

 OpenBabel03242520493D

 17 18  0  0  0  0  0  0  0  0999 V2000
   37.1270   26.6510   42.2450 C   0  0  0  0  0  0  0  0  0  0  0  0
   36.7200   27.9200   41.7970 C   0  0  0  0  0  0  0  0  0  0  0  0
   37.4730   29.0330   42.1540 C   0  0  0  0  0  0  0  0  0  0  0  0
   38.5820   28.8340   42.9310 N   0  0  0  0  0  0  0  0  0  0  0  0
   38.9480   27.6060   43.3460 C   0  0  0  0  0  0  0  0  0  0  0  0
   38.2210   26.5260   43.0010 N   0  0  0  0  0  0  0  0  0  0  0  0
   36.4880   25.8270   41.9250 H   0  0  0  0  0  0  0  0  0  0  0  0
   35.8550   28.1300   41.1830 H   0  0  0  0  0  0  0  0  0  0  0  0
   39.8430   27.4870   43.9670 H   0  0  0  0  0  0  0  0  0  0  0  0
   37.1860   30.3330   41.7820 O   0  0  0  0  0  0  0  0  0  0  0  0
   37.4690   34.6140   39.6160 H   0  0  0  0  0  0  0  0  0  0  0  0
   37.3840   33.6740   40.0970 N   0  0  0  0  0  0  0  0  0  0  0  0
   37.1180   32.7280   39.0440 C   0  0  0  0  0  2  0  0  0  0  0  0
   36.9100   31.3870   39.6610 C   0  0  0  0  0  2  0  0  0  0  0  0
   37.8800   30.9870   40.7080 C   0  0  0  0  0  3  0  0  0  0  0  0
   38.8170   32.0120   41.2110 C   0  0  0  0  0  2  0  0  0  0  0  0
   38.6870   33.3770   40.6210 C   0  0  0  0  0  2  0  0  0  0  0  0
  1  6  1  0  0  0  0
  2  3  1  0  0  0  0
  2  1  2  0  0  0  0
  3  4  2  0  0  0  0
  4  5  1  0  0  0  0
  5  9  1  0  0  0  0
  6  5  2  0  0  0  0
  7  1  1  0  0  0  0
  8  2  1  0  0  0  0
 10  3  1  0  0  0  0
 11 12  1  0  0  0  0
 12 17  1  0  0  0  0
 13 14  1  0  0  0  0
 13 12  1  0  0  0  0
 14 15  1  0  0  0  0
 15 16  1  0  0  0  0
 15 10  1  0  0  0  0
 17 16  1  0  0  0  0
M  END
>  <minimizedAffinity>
-4.28881264

$$$$

 OpenBabel03242520493D

 17 18  0  0  0  0  0  0  0  0999 V2000
   37.2220   32.9420   39.2670 C   0  0  0  0  0  0  0  0  0  0  0  0
   37.3360   31.5680   39.5450 C   0  0  0  0  0  0  0  0  0  0  0  0
   38.2320   31.1520   40.5240 C   0  0  0  0  0  0  0  0  0  0  0  0
   38.9640   32.1100   41.1710 N   0  0  0  0  0  0  0  0  0  0  0  0
   38.8350   33.4200   40.8830 C   0  0  0  0  0  0  0  0  0  0  0  0
   37.9670   33.8250   39.9360 N   0  0  0  0  0  0  0  0  0  0  0  0
   36.5000   33.1920   38.4880 H   0  0  0  0  0  0  0  0  0  0  0  0
   36.7820   30.7750   39.0640 H   0  0  0  0  0  0  0  0  0  0  0  0
   39.4390   34.1570   41.4240 H   0  0  0  0  0  0  0  0  0  0  0  0
   38.4400   29.8370   40.8960 O   0  0  0  0  0  0  0  0  0  0  0  0
   37.9120   25.6950   43.2750 H   0  0  0  0  0  0  0  0  0  0  0  0
   38.0220   26.5970   42.7310 N   0  0  0  0  0  0  0  0  0  0  0  0
   36.7670   27.2890   42.8800 C   0  0  0  0  0  2  0  0  0  0  0  0
   36.8230   28.5410   42.0730 C   0  0  0  0  0  2  0  0  0  0  0  0
   38.0630   29.3440   42.1900 C   0  0  0  0  0  3  0  0  0  0  0  0
   39.2100   28.7460   42.9010 C   0  0  0  0  0  2  0  0  0  0  0  0
   39.0170   27.3610   43.4270 C   0  0  0  0  0  2  0  0  0  0  0  0
  1  2  2  0  0  0  0
  1  6  1  0  0  0  0
  2  3  1  0  0  0  0
  3 10  1  0  0  0  0
  3  4  2  0  0  0  0
  5  4  1  0  0  0  0
  5  9  1  0  0  0  0
  6  5  2  0  0  0  0
  7  1  1  0  0  0  0
  8  2  1  0  0  0  0
 10 15  1  0  0  0  0
 12 13  1  0  0  0  0
 12 11  1  0  0  0  0
 12 17  1  0  0  0  0
 14 15  1  0  0  0  0
 14 13  1  0  0  0  0
 15 16  1  0  0  0  0
 16 17  1  0  0  0  0
M  END
>  <minimizedAffinity>
-3.87117553

$$$$

 OpenBabel03242520493D

 17 18  0  0  0  0  0  0  0  0999 V2000
   38.5380   30.1570   39.7720 C   0  0  0  0  0  0  0  0  0  0  0  0
   38.7690   29.6470   41.0620 C   0  0  0  0  0  0  0  0  0  0  0  0
   37.7500   29.7180   42.0060 C   0  0  0  0  0  0  0  0  0  0  0  0
   36.5650   30.2870   41.6280 N   0  0  0  0  0  0  0  0  0  0  0  0
   36.3720   30.7690   40.3850 C   0  0  0  0  0  0  0  0  0  0  0  0
   37.3560   30.7010   39.4690 N   0  0  0  0  0  0  0  0  0  0  0  0
   39.3820   30.0670   39.0870 H   0  0  0  0  0  0  0  0  0  0  0  0
   39.6840   29.1890   41.4090 H   0  0  0  0  0  0  0  0  0  0  0  0
   35.4080   31.2170   40.1200 H   0  0  0  0  0  0  0  0  0  0  0  0
   37.8450   29.2540   43.3050 O   0  0  0  0  0  0  0  0  0  0  0  0
   38.6730   24.9920   41.2460 H   0  0  0  0  0  0  0  0  0  0  0  0
   38.4830   25.9390   41.6790 N   0  0  0  0  0  0  0  0  0  0  0  0
   37.1550   25.8480   42.2310 C   0  0  0  0  0  2  0  0  0  0  0  0
   36.7890   27.1780   42.7940 C   0  0  0  0  0  2  0  0  0  0  0  0
   37.8240   27.8520   43.6150 C   0  0  0  0  0  3  0  0  0  0  0  0
   39.1830   27.2770   43.6230 C   0  0  0  0  0  2  0  0  0  0  0  0
   39.3960   26.0620   42.7790 C   0  0  0  0  0  2  0  0  0  0  0  0
  1  2  1  0  0  0  0
  2  8  1  0  0  0  0
  2  3  2  0  0  0  0
  3 10  1  0  0  0  0
  4  3  1  0  0  0  0
  5  4  2  0  0  0  0
  6  1  2  0  0  0  0
  6  5  1  0  0  0  0
  7  1  1  0  0  0  0
  9  5  1  0  0  0  0
 10 15  1  0  0  0  0
 11 12  1  0  0  0  0
 12 13  1  0  0  0  0
 12 17  1  0  0  0  0
 13 14  1  0  0  0  0
 14 15  1  0  0  0  0
 15 16  1  0  0  0  0
 17 16  1  0  0  0  0
M  END
>  <minimizedAffinity>
-3.79326701

$$$$

 OpenBabel03242520493D

 17 18  0  0  0  0  0  0  0  0999 V2000
   40.4270   32.5410   39.3020 C   0  0  0  0  0  0  0  0  0  0  0  0
   39.5970   31.5230   39.8050 C   0  0  0  0  0  0  0  0  0  0  0  0
   38.4620   31.8750   40.5280 C   0  0  0  0  0  0  0  0  0  0  0  0
   38.2110   33.2070   40.7150 N   0  0  0  0  0  0  0  0  0  0  0  0
   39.0240   34.1610   40.2220 C   0  0  0  0  0  0  0  0  0  0  0  0
   40.1230   33.8220   39.5210 N   0  0  0  0  0  0  0  0  0  0  0  0
   41.2970   32.1880   38.7470 H   0  0  0  0  0  0  0  0  0  0  0  0
   39.7520   30.4600   39.6850 H   0  0  0  0  0  0  0  0  0  0  0  0
   38.7880   35.2170   40.3920 H   0  0  0  0  0  0  0  0  0  0  0  0
   37.5650   30.9780   41.0750 O   0  0  0  0  0  0  0  0  0  0  0  0
   36.2900   27.3410   43.9460 H   0  0  0  0  0  0  0  0  0  0  0  0
   36.5640   28.1570   43.3300 N   0  0  0  0  0  0  0  0  0  0  0  0
   37.9740   28.3490   43.5550 C   0  0  0  0  0  2  0  0  0  0  0  0
   38.4170   29.5380   42.7730 C   0  0  0  0  0  2  0  0  0  0  0  0
   37.9320   29.6230   41.3750 C   0  0  0  0  0  3  0  0  0  0  0  0
   36.8910   28.6680   40.9450 C   0  0  0  0  0  2  0  0  0  0  0  0
   36.4050   27.7050   41.9770 C   0  0  0  0  0  2  0  0  0  0  0  0
  1  6  2  0  0  0  0
  1  2  1  0  0  0  0
  2  3  2  0  0  0  0
  3  4  1  0  0  0  0
  3 10  1  0  0  0  0
  5  9  1  0  0  0  0
  5  4  2  0  0  0  0
  6  5  1  0  0  0  0
  7  1  1  0  0  0  0
  8  2  1  0  0  0  0
 10 15  1  0  0  0  0
 12 13  1  0  0  0  0
 12 11  1  0  0  0  0
 14 13  1  0  0  0  0
 15 14  1  0  0  0  0
 16 15  1  0  0  0  0
 16 17  1  0  0  0  0
 17 12  1  0  0  0  0
M  END
>  <minimizedAffinity>
-3.70441103

$$$$

 OpenBabel03242520493D

 17 18  0  0  0  0  0  0  0  0999 V2000
   34.8090   28.7800   36.7500 C   0  0  0  0  0  0  0  0  0  0  0  0
   34.7930   28.7960   38.1560 C   0  0  0  0  0  0  0  0  0  0  0  0
   35.8720   29.3530   38.8350 C   0  0  0  0  0  0  0  0  0  0  0  0
   36.9030   29.8600   38.0920 N   0  0  0  0  0  0  0  0  0  0  0  0
   36.8920   29.8300   36.7460 C   0  0  0  0  0  0  0  0  0  0  0  0
   35.8480   29.2920   36.0860 N   0  0  0  0  0  0  0  0  0  0  0  0
   33.9300   28.3270   36.2890 H   0  0  0  0  0  0  0  0  0  0  0  0
   34.0050   28.4100   38.7870 H   0  0  0  0  0  0  0  0  0  0  0  0
   37.7360   30.2470   36.1860 H   0  0  0  0  0  0  0  0  0  0  0  0
   35.9820   29.4340   40.2110 O   0  0  0  0  0  0  0  0  0  0  0  0
   37.7860   29.1110   44.6530 H   0  0  0  0  0  0  0  0  0  0  0  0
   37.3810   29.2040   43.6790 N   0  0  0  0  0  0  0  0  0  0  0  0
   38.4760   29.6390   42.8500 C   0  0  0  0  0  2  0  0  0  0  0  0
   37.9590   29.8650   41.4710 C   0  0  0  0  0  2  0  0  0  0  0  0
   37.0650   28.8170   40.9240 C   0  0  0  0  0  3  0  0  0  0  0  0
   36.5830   27.7700   41.8460 C   0  0  0  0  0  2  0  0  0  0  0  0
   37.0340   27.8750   43.2660 C   0  0  0  0  0  2  0  0  0  0  0  0
  1  2  1  0  0  0  0
  2  8  1  0  0  0  0
  2  3  2  0  0  0  0
  3 10  1  0  0  0  0
  4  3  1  0  0  0  0
  5  4  2  0  0  0  0
  6  5  1  0  0  0  0
  6  1  2  0  0  0  0
  7  1  1  0  0  0  0
  9  5  1  0  0  0  0
 10 15  1  0  0  0  0
 12 11  1  0  0  0  0
 13 12  1  0  0  0  0
 14 13  1  0  0  0  0
 15 14  1  0  0  0  0
 15 16  1  0  0  0  0
 16 17  1  0  0  0  0
 17 12  1  0  0  0  0
M  END
>  <minimizedAffinity>
-3.65703297

$$$$

 OpenBabel03242520493D

 17 18  0  0  0  0  0  0  0  0999 V2000
   38.9100   27.0620   41.1590 C   0  0  0  0  0  0  0  0  0  0  0  0
   38.5080   28.4090   41.1740 C   0  0  0  0  0  0  0  0  0  0  0  0
   37.3800   28.7680   41.9050 C   0  0  0  0  0  0  0  0  0  0  0  0
   36.7130   27.7800   42.5780 N   0  0  0  0  0  0  0  0  0  0  0  0
   37.1200   26.4970   42.5460 C   0  0  0  0  0  0  0  0  0  0  0  0
   38.2120   26.1480   41.8390 N   0  0  0  0  0  0  0  0  0  0  0  0
   39.8010   26.8570   40.5650 H   0  0  0  0  0  0  0  0  0  0  0  0
   39.0000   29.2240   40.6610 H   0  0  0  0  0  0  0  0  0  0  0  0
   36.5600   25.7350   43.0980 H   0  0  0  0  0  0  0  0  0  0  0  0
   36.8800   30.0520   42.0050 O   0  0  0  0  0  0  0  0  0  0  0  0
   37.1410   30.4920   37.2260 H   0  0  0  0  0  0  0  0  0  0  0  0
   37.1070   30.3930   38.2800 N   0  0  0  0  0  0  0  0  0  0  0  0
   37.0720   31.7410   38.7890 C   0  0  0  0  0  2  0  0  0  0  0  0
   37.1000   31.6810   40.2770 C   0  0  0  0  0  2  0  0  0  0  0  0
   36.2000   30.6890   40.9130 C   0  0  0  0  0  3  0  0  0  0  0  0
   35.5300   29.7040   40.0400 C   0  0  0  0  0  2  0  0  0  0  0  0
   35.8400   29.7900   38.5810 C   0  0  0  0  0  2  0  0  0  0  0  0
  1  2  2  0  0  0  0
  1  6  1  0  0  0  0
  2  3  1  0  0  0  0
  3 10  1  0  0  0  0
  3  4  2  0  0  0  0
  5  4  1  0  0  0  0
  5  9  1  0  0  0  0
  6  5  2  0  0  0  0
  7  1  1  0  0  0  0
  8  2  1  0  0  0  0
 11 12  1  0  0  0  0
 12 17  1  0  0  0  0
 12 13  1  0  0  0  0
 13 14  1  0  0  0  0
 14 15  1  0  0  0  0
 15 10  1  0  0  0  0
 16 15  1  0  0  0  0
 17 16  1  0  0  0  0
M  END
>  <minimizedAffinity>
-3.64624953

$$$$

 OpenBabel03242520493D

 17 18  0  0  0  0  0  0  0  0999 V2000
   37.1040   24.9520   42.0650 C   0  0  0  0  0  0  0  0  0  0  0  0
   37.3370   26.3110   42.3410 C   0  0  0  0  0  0  0  0  0  0  0  0
   38.5630   26.6890   42.8770 C   0  0  0  0  0  0  0  0  0  0  0  0
   39.4890   25.7090   43.1120 N   0  0  0  0  0  0  0  0  0  0  0  0
   39.2390   24.4140   42.8380 C   0  0  0  0  0  0  0  0  0  0  0  0
   38.0520   24.0460   42.3180 N   0  0  0  0  0  0  0  0  0  0  0  0
   36.1210   24.7320   41.6470 H   0  0  0  0  0  0  0  0  0  0  0  0
   36.6410   27.1210   42.1740 H   0  0  0  0  0  0  0  0  0  0  0  0
   40.0060   23.6590   43.0400 H   0  0  0  0  0  0  0  0  0  0  0  0
   38.9200   27.9870   43.1920 O   0  0  0  0  0  0  0  0  0  0  0  0
   40.5710   32.4830   42.7970 H   0  0  0  0  0  0  0  0  0  0  0  0
   40.1910   31.5000   42.8990 N   0  0  0  0  0  0  0  0  0  0  0  0
   39.2680   31.3310   41.8050 C   0  0  0  0  0  2  0  0  0  0  0  0
   38.6340   29.9890   41.9290 C   0  0  0  0  0  2  0  0  0  0  0  0
   39.5420   28.8580   42.2350 C   0  0  0  0  0  3  0  0  0  0  0  0
   40.9350   29.1710   42.6100 C   0  0  0  0  0  2  0  0  0  0  0  0
   41.2990   30.6190   42.6630 C   0  0  0  0  0  2  0  0  0  0  0  0
  1  6  2  0  0  0  0
  1  2  1  0  0  0  0
  2  3  2  0  0  0  0
  3  4  1  0  0  0  0
  3 10  1  0  0  0  0
  5  9  1  0  0  0  0
  5  4  2  0  0  0  0
  6  5  1  0  0  0  0
  7  1  1  0  0  0  0
  8  2  1  0  0  0  0
 11 12  1  0  0  0  0
 13 14  1  0  0  0  0
 13 12  1  0  0  0  0
 14 15  1  0  0  0  0
 15 16  1  0  0  0  0
 15 10  1  0  0  0  0
 16 17  1  0  0  0  0
 17 12  1  0  0  0  0
M  END
>  <minimizedAffinity>
-3.60703969

$$$$

 OpenBabel03242520493D

 17 18  0  0  0  0  0  0  0  0999 V2000
   37.0480   26.8110   42.5420 C   0  0  0  0  0  0  0  0  0  0  0  0
   36.7500   27.5140   41.3610 C   0  0  0  0  0  0  0  0  0  0  0  0
   36.9410   28.8910   41.3320 C   0  0  0  0  0  0  0  0  0  0  0  0
   37.4110   29.4970   42.4650 N   0  0  0  0  0  0  0  0  0  0  0  0
   37.6880   28.7980   43.5830 C   0  0  0  0  0  0  0  0  0  0  0  0
   37.5050   27.4650   43.6140 N   0  0  0  0  0  0  0  0  0  0  0  0
   36.8730   25.7360   42.4910 H   0  0  0  0  0  0  0  0  0  0  0  0
   36.3770   27.0830   40.4430 H   0  0  0  0  0  0  0  0  0  0  0  0
   38.0640   29.3200   44.4700 H   0  0  0  0  0  0  0  0  0  0  0  0
   36.6900   29.6990   40.2390 O   0  0  0  0  0  0  0  0  0  0  0  0
   38.7660   30.7110   36.0250 H   0  0  0  0  0  0  0  0  0  0  0  0
   38.3060   30.4650   36.9460 N   0  0  0  0  0  0  0  0  0  0  0  0
   39.3900   30.1590   37.8450 C   0  0  0  0  0  2  0  0  0  0  0  0
   38.8100   29.7290   39.1490 C   0  0  0  0  0  2  0  0  0  0  0  0
   37.6980   30.5540   39.6780 C   0  0  0  0  0  3  0  0  0  0  0  0
   37.1110   31.5760   38.7890 C   0  0  0  0  0  2  0  0  0  0  0  0
   37.6900   31.6740   37.4150 C   0  0  0  0  0  2  0  0  0  0  0  0
  1  6  1  0  0  0  0
  2  1  2  0  0  0  0
  3  2  1  0  0  0  0
  3  4  2  0  0  0  0
  4  5  1  0  0  0  0
  5  6  2  0  0  0  0
  5  9  1  0  0  0  0
  7  1  1  0  0  0  0
  8  2  1  0  0  0  0
 10  3  1  0  0  0  0
 11 12  1  0  0  0  0
 12 17  1  0  0  0  0
 12 13  1  0  0  0  0
 13 14  1  0  0  0  0
 14 15  1  0  0  0  0
 15 10  1  0  0  0  0
 16 15  1  0  0  0  0
 17 16  1  0  0  0  0
M  END
>  <minimizedAffinity>
-3.59744024

$$$$
