
 OpenBabel03252509083D

 39 42  0  0  0  0  0  0  0  0999 V2000
   47.5000   31.6750   39.2430 C   0  0  0  0  0  0  0  0  0  0  0  0
   47.0820   32.9660   39.1090 C   0  0  0  0  0  0  0  0  0  0  0  0
   47.7420   33.7960   38.2250 C   0  0  0  0  0  0  0  0  0  0  0  0
   48.8040   33.3280   37.4910 C   0  0  0  0  0  0  0  0  0  0  0  0
   49.2490   32.0140   37.6070 C   0  0  0  0  0  0  0  0  0  0  0  0
   48.5790   31.1940   38.4970 C   0  0  0  0  0  0  0  0  0  0  0  0
   47.4270   34.8380   38.1000 H   0  0  0  0  0  0  0  0  0  0  0  0
   49.2950   33.9960   36.8140 H   0  0  0  0  0  0  0  0  0  0  0  0
   50.0800   31.6120   37.0460 H   0  0  0  0  0  0  0  0  0  0  0  0
   48.9280   30.1640   38.5900 H   0  0  0  0  0  0  0  0  0  0  0  0
   45.3390   35.6500   43.1380 Cl  0  0  0  0  0  0  0  0  0  0  0  0
   45.1570   34.7580   41.6580 C   0  0  0  0  0  0  0  0  0  0  0  0
   46.2250   34.2480   41.0110 C   0  0  0  0  0  0  0  0  0  0  0  0
   45.9700   33.5480   39.8380 C   0  0  0  0  0  0  0  0  0  0  0  0
   44.7010   33.3770   39.3480 C   0  0  0  0  0  0  0  0  0  0  0  0
   43.6400   33.8980   40.0150 C   0  0  0  0  0  0  0  0  0  0  0  0
   43.8780   34.5930   41.1780 C   0  0  0  0  0  0  0  0  0  0  0  0
   44.5370   32.8270   38.4320 H   0  0  0  0  0  0  0  0  0  0  0  0
   42.6140   33.7850   39.6620 H   0  0  0  0  0  0  0  0  0  0  0  0
   43.0180   35.0090   41.7070 H   0  0  0  0  0  0  0  0  0  0  0  0
   49.5660   35.7610   41.9050 C   0  0  0  0  0  0  0  0  0  0  0  0
   48.2900   35.5850   41.3620 C   0  0  0  0  0  0  0  0  0  0  0  0
   47.5440   34.4410   41.5630 C   0  0  0  0  0  0  0  0  0  0  0  0
   48.1460   33.4940   42.3310 N   0  0  0  0  0  0  0  0  0  0  0  0
   49.3710   33.6580   42.8540 C   0  0  0  0  0  0  0  0  0  0  0  0
   50.0710   34.7790   42.6420 N   0  0  0  0  0  0  0  0  0  0  0  0
   50.1340   36.6780   41.7280 H   0  0  0  0  0  0  0  0  0  0  0  0
   47.8910   36.3900   40.7660 H   0  0  0  0  0  0  0  0  0  0  0  0
   49.7880   32.8550   43.4590 H   0  0  0  0  0  0  0  0  0  0  0  0
   46.7420   30.5930   40.2880 S   0  0  0  0  0  0  0  0  0  0  0  0
   45.4450   30.0540   39.7120 O   0  0  0  0  0  0  0  0  0  0  0  0
   47.6900   29.3620   40.2810 O   0  0  0  0  0  0  0  0  0  0  0  0
   44.4240   28.9100   44.8350 H   0  0  0  0  0  0  0  0  0  0  0  0
   44.8960   29.5700   44.2120 N   0  0  0  0  0  0  0  0  0  0  0  0
   46.2920   29.3270   43.9640 C   0  0  0  0  0  2  0  0  0  0  0  0
   46.5280   29.3030   42.5040 C   0  0  0  0  0  2  0  0  0  0  0  0
   46.3640   30.7590   41.9200 C   0  0  0  0  0  3  0  0  0  0  0  0
   44.9000   30.9790   42.2870 C   0  0  0  0  0  2  0  0  0  0  0  0
   44.2290   29.8300   42.9550 C   0  0  0  0  0  2  0  0  0  0  0  0
  1 30  1  0  0  0  0
  2  1  1  0  0  0  0
  2 14  1  0  0  0  0
  3  2  2  0  0  0  0
  4  5  2  0  0  0  0
  4  3  1  0  0  0  0
  5  6  1  0  0  0  0
  6 10  1  0  0  0  0
  6  1  2  0  0  0  0
  7  3  1  0  0  0  0
  8  4  1  0  0  0  0
  9  5  1  0  0  0  0
 12 11  1  0  0  0  0
 13 23  1  0  0  0  0
 13 12  2  0  0  0  0
 14 13  1  0  0  0  0
 15 14  2  0  0  0  0
 15 16  1  0  0  0  0
 16 17  2  0  0  0  0
 17 12  1  0  0  0  0
 17 20  1  0  0  0  0
 18 15  1  0  0  0  0
 19 16  1  0  0  0  0
 21 26  1  0  0  0  0
 22 23  1  0  0  0  0
 22 21  2  0  0  0  0
 23 24  2  0  0  0  0
 24 25  1  0  0  0  0
 25 29  1  0  0  0  0
 26 25  2  0  0  0  0
 27 21  1  0  0  0  0
 28 22  1  0  0  0  0
 30 37  1  0  0  0  0
 31 30  2  0  0  0  0
 32 30  2  0  0  0  0
 34 33  1  0  0  0  0
 35 34  1  0  0  0  0
 36 35  1  0  0  0  0
 37 38  1  0  0  0  0
 37 36  1  0  0  0  0
 38 39  1  0  0  0  0
 39 34  1  0  0  0  0
M  END
>  <minimizedAffinity>
-4.62622499

>  <minimizedRMSD>
1.10944903

$$$$
