
 OpenBabel03242521573D

 46 50  0  0  0  0  0  0  0  0999 V2000
   36.7040   26.9190   39.9670 C   0  0  0  0  0  0  0  0  0  0  0  0
   36.8460   25.5350   39.8990 C   0  0  0  0  0  0  0  0  0  0  0  0
   37.2290   24.7530   40.9960 C   0  0  0  0  0  0  0  0  0  0  0  0
   37.4830   25.3310   42.2090 C   0  0  0  0  0  0  0  0  0  0  0  0
   37.3550   26.7290   42.3030 C   0  0  0  0  0  0  0  0  0  0  0  0
   37.6690   27.2740   43.5080 C   0  0  0  0  0  0  0  0  0  0  0  0
   37.6240   28.6700   43.6150 C   0  0  0  0  0  0  0  0  0  0  0  0
   37.2600   29.4350   42.4560 C   0  0  0  0  0  0  0  0  0  0  0  0
   36.9700   28.7330   41.3070 C   0  0  0  0  0  0  0  0  0  0  0  0
   36.9740   27.4200   41.1480 C   0  0  0  0  0  0  0  0  0  0  0  0
   36.6440   25.0550   38.9280 H   0  0  0  0  0  0  0  0  0  0  0  0
   37.3010   23.6910   40.8020 H   0  0  0  0  0  0  0  0  0  0  0  0
   37.7620   24.6750   42.9970 H   0  0  0  0  0  0  0  0  0  0  0  0
   37.9420   26.6500   44.3490 H   0  0  0  0  0  0  0  0  0  0  0  0
   37.8800   29.0270   44.6020 H   0  0  0  0  0  0  0  0  0  0  0  0
   37.3100   30.4460   42.8290 H   0  0  0  0  0  0  0  0  0  0  0  0
   38.4640   30.0240   40.0630 C   0  0  0  0  0  0  0  0  0  0  0  0
   37.0810   29.9180   40.4790 C   0  0  0  0  0  0  0  0  0  0  0  0
   36.3940   30.9920   40.0990 C   0  0  0  0  0  0  0  0  0  0  0  0
   36.9030   32.0740   39.4100 C   0  0  0  0  0  0  0  0  0  0  0  0
   38.2140   32.1530   39.0330 C   0  0  0  0  0  0  0  0  0  0  0  0
   39.0010   31.0920   39.3790 C   0  0  0  0  0  0  0  0  0  0  0  0
   35.3610   30.8210   40.4520 H   0  0  0  0  0  0  0  0  0  0  0  0
   36.1200   32.8200   39.2240 H   0  0  0  0  0  0  0  0  0  0  0  0
   38.3920   33.0670   38.5160 H   0  0  0  0  0  0  0  0  0  0  0  0
   39.4880   29.0630   40.2840 O   0  0  0  0  0  0  0  0  0  0  0  0
   39.9140   28.6520   39.4630 H   0  0  0  0  0  0  0  0  0  0  0  0
   40.3170   31.2290   38.9880 O   0  0  0  0  0  0  0  0  0  0  0  0
   41.7020   33.6160   36.2030 H   0  0  0  0  0  0  0  0  0  0  0  0
   42.5870   33.6490   36.7690 N   0  0  0  0  0  0  0  0  0  0  0  0
   42.3080   34.1590   38.0830 C   0  0  0  0  0  2  0  0  0  0  0  0
   41.7050   33.1010   38.9610 C   0  0  0  0  0  2  0  0  0  0  0  0
   40.9380   32.0620   38.1220 C   0  0  0  0  0  3  0  0  0  0  0  0
   41.8720   31.3990   37.1360 C   0  0  0  0  0  2  0  0  0  0  0  0
   43.0650   32.2750   36.8800 C   0  0  0  0  0  2  0  0  0  0  0  0
   34.5240   28.8760   37.6550 C   0  0  0  0  0  0  0  0  0  0  0  0
   35.4480   29.1450   36.6210 C   0  0  0  0  0  0  0  0  0  0  0  0
   36.7140   28.6200   36.7820 C   0  0  0  0  0  0  0  0  0  0  0  0
   36.9050   27.9270   37.9010 N   0  0  0  0  0  0  0  0  0  0  0  0
   36.0620   27.6570   38.8910 C   0  0  0  0  0  0  0  0  0  0  0  0
   34.8730   28.1550   38.7240 N   0  0  0  0  0  0  0  0  0  0  0  0
   33.5430   29.3010   37.4960 H   0  0  0  0  0  0  0  0  0  0  0  0
   35.1970   29.7230   35.7520 H   0  0  0  0  0  0  0  0  0  0  0  0
   37.7210   28.7600   35.7950 N   0  0  0  0  0  0  0  0  0  0  0  0
   38.2770   29.5650   36.1900 H   0  0  0  0  0  0  0  0  0  0  0  0
   37.8430   28.1930   34.9220 H   0  0  0  0  0  0  0  0  0  0  0  0
  1 10  1  0  0  0  0
  2  1  2  0  0  0  0
  2  3  1  0  0  0  0
  3  4  2  0  0  0  0
  4  5  1  0  0  0  0
  4 13  1  0  0  0  0
  5  6  1  0  0  0  0
  6  7  2  0  0  0  0
  6 14  1  0  0  0  0
  7 15  1  0  0  0  0
  8 16  1  0  0  0  0
  8  7  1  0  0  0  0
  9  8  2  0  0  0  0
 10  9  1  0  0  0  0
 10  5  2  0  0  0  0
 11  2  1  0  0  0  0
 12  3  1  0  0  0  0
 17 26  1  0  0  0  0
 17 18  1  0  0  0  0
 18  9  1  0  0  0  0
 19 23  1  0  0  0  0
 19 18  2  0  0  0  0
 20 19  1  0  0  0  0
 21 22  1  0  0  0  0
 21 20  2  0  0  0  0
 22 17  2  0  0  0  0
 24 20  1  0  0  0  0
 25 21  1  0  0  0  0
 27 26  1  0  0  0  0
 28 22  1  0  0  0  0
 29 30  1  0  0  0  0
 30 35  1  0  0  0  0
 30 31  1  0  0  0  0
 31 32  1  0  0  0  0
 33 32  1  0  0  0  0
 33 28  1  0  0  0  0
 34 33  1  0  0  0  0
 35 34  1  0  0  0  0
 36 41  1  0  0  0  0
 37 38  1  0  0  0  0
 37 36  2  0  0  0  0
 38 39  2  0  0  0  0
 39 40  1  0  0  0  0
 40  1  1  0  0  0  0
 41 40  2  0  0  0  0
 42 36  1  0  0  0  0
 43 37  1  0  0  0  0
 44 45  1  0  0  0  0
 44 38  1  0  0  0  0
 46 44  1  0  0  0  0
M  END
>  <minimizedAffinity>
-7.62375355

$$$$

 OpenBabel03242521573D

 46 50  0  0  0  0  0  0  0  0999 V2000
   36.5700   26.9410   39.8270 C   0  0  0  0  0  0  0  0  0  0  0  0
   36.5740   25.5490   39.8270 C   0  0  0  0  0  0  0  0  0  0  0  0
   36.8510   24.7870   40.9680 C   0  0  0  0  0  0  0  0  0  0  0  0
   37.1320   25.3960   42.1610 C   0  0  0  0  0  0  0  0  0  0  0  0
   37.1420   26.8020   42.1860 C   0  0  0  0  0  0  0  0  0  0  0  0
   37.4800   27.3710   43.3740 C   0  0  0  0  0  0  0  0  0  0  0  0
   37.5720   28.7680   43.4150 C   0  0  0  0  0  0  0  0  0  0  0  0
   37.3140   29.5090   42.2130 C   0  0  0  0  0  0  0  0  0  0  0  0
   36.9840   28.7840   41.0900 C   0  0  0  0  0  0  0  0  0  0  0  0
   36.8610   27.4700   40.9910 C   0  0  0  0  0  0  0  0  0  0  0  0
   36.3480   25.0450   38.8730 H   0  0  0  0  0  0  0  0  0  0  0  0
   36.8210   23.7150   40.8260 H   0  0  0  0  0  0  0  0  0  0  0  0
   37.3250   24.7540   42.9860 H   0  0  0  0  0  0  0  0  0  0  0  0
   37.6690   26.7640   44.2500 H   0  0  0  0  0  0  0  0  0  0  0  0
   37.8400   29.1450   44.3920 H   0  0  0  0  0  0  0  0  0  0  0  0
   37.4570   30.5270   42.5400 H   0  0  0  0  0  0  0  0  0  0  0  0
   38.6350   29.8750   39.8530 C   0  0  0  0  0  0  0  0  0  0  0  0
   37.2330   29.9100   40.2110 C   0  0  0  0  0  0  0  0  0  0  0  0
   36.6590   31.0180   39.7500 C   0  0  0  0  0  0  0  0  0  0  0  0
   37.2890   32.0150   39.0340 C   0  0  0  0  0  0  0  0  0  0  0  0
   38.6170   31.9610   38.7120 C   0  0  0  0  0  0  0  0  0  0  0  0
   39.2920   30.8560   39.1430 C   0  0  0  0  0  0  0  0  0  0  0  0
   35.6020   30.9550   40.0640 H   0  0  0  0  0  0  0  0  0  0  0  0
   36.5840   32.8160   38.7770 H   0  0  0  0  0  0  0  0  0  0  0  0
   38.8950   32.8280   38.1610 H   0  0  0  0  0  0  0  0  0  0  0  0
   39.5610   28.8410   40.1660 O   0  0  0  0  0  0  0  0  0  0  0  0
   39.9810   28.3540   39.3840 H   0  0  0  0  0  0  0  0  0  0  0  0
   40.6290   30.8580   38.8050 O   0  0  0  0  0  0  0  0  0  0  0  0
   42.1130   30.4520   35.1990 H   0  0  0  0  0  0  0  0  0  0  0  0
   42.9740   30.0770   35.6710 N   0  0  0  0  0  0  0  0  0  0  0  0
   43.5110   31.0660   36.5650 C   0  0  0  0  0  2  0  0  0  0  0  0
   42.7420   31.1100   37.8540 C   0  0  0  0  0  2  0  0  0  0  0  0
   41.2840   30.6610   37.6380 C   0  0  0  0  0  3  0  0  0  0  0  0
   41.2490   29.2490   37.1010 C   0  0  0  0  0  2  0  0  0  0  0  0
   42.5550   28.9110   36.4400 C   0  0  0  0  0  2  0  0  0  0  0  0
   34.6400   28.9660   37.3560 C   0  0  0  0  0  0  0  0  0  0  0  0
   35.6270   29.1390   36.3600 C   0  0  0  0  0  0  0  0  0  0  0  0
   36.8450   28.5360   36.5990 C   0  0  0  0  0  0  0  0  0  0  0  0
   36.9360   27.8670   37.7450 N   0  0  0  0  0  0  0  0  0  0  0  0
   36.0310   27.6860   38.7000 C   0  0  0  0  0  0  0  0  0  0  0  0
   34.8880   28.2580   38.4610 N   0  0  0  0  0  0  0  0  0  0  0  0
   33.6980   29.4500   37.1370 H   0  0  0  0  0  0  0  0  0  0  0  0
   35.4570   29.7050   35.4650 H   0  0  0  0  0  0  0  0  0  0  0  0
   37.9040   28.5750   35.6580 N   0  0  0  0  0  0  0  0  0  0  0  0
   38.4950   29.3540   36.0570 H   0  0  0  0  0  0  0  0  0  0  0  0
   38.0270   27.9750   34.8090 H   0  0  0  0  0  0  0  0  0  0  0  0
  1  2  2  0  0  0  0
  1 10  1  0  0  0  0
  2  3  1  0  0  0  0
  3  4  2  0  0  0  0
  4  5  1  0  0  0  0
  4 13  1  0  0  0  0
  5  6  1  0  0  0  0
  6  7  2  0  0  0  0
  6 14  1  0  0  0  0
  7 15  1  0  0  0  0
  8 16  1  0  0  0  0
  8  7  1  0  0  0  0
  9  8  2  0  0  0  0
 10  9  1  0  0  0  0
 10  5  2  0  0  0  0
 11  2  1  0  0  0  0
 12  3  1  0  0  0  0
 17 26  1  0  0  0  0
 17 18  1  0  0  0  0
 18  9  1  0  0  0  0
 19 23  1  0  0  0  0
 19 18  2  0  0  0  0
 20 19  1  0  0  0  0
 21 20  2  0  0  0  0
 21 22  1  0  0  0  0
 22 17  2  0  0  0  0
 24 20  1  0  0  0  0
 25 21  1  0  0  0  0
 27 26  1  0  0  0  0
 28 22  1  0  0  0  0
 29 30  1  0  0  0  0
 30 35  1  0  0  0  0
 30 31  1  0  0  0  0
 31 32  1  0  0  0  0
 33 32  1  0  0  0  0
 33 28  1  0  0  0  0
 34 33  1  0  0  0  0
 35 34  1  0  0  0  0
 36 41  1  0  0  0  0
 37 38  1  0  0  0  0
 37 36  2  0  0  0  0
 38 39  2  0  0  0  0
 39 40  1  0  0  0  0
 40  1  1  0  0  0  0
 41 40  2  0  0  0  0
 42 36  1  0  0  0  0
 43 37  1  0  0  0  0
 44 45  1  0  0  0  0
 44 38  1  0  0  0  0
 46 44  1  0  0  0  0
M  END
>  <minimizedAffinity>
-7.25746107

$$$$

 OpenBabel03242521573D

 46 50  0  0  0  0  0  0  0  0999 V2000
   36.9230   27.0350   39.7690 C   0  0  0  0  0  0  0  0  0  0  0  0
   37.0860   25.6600   39.6250 C   0  0  0  0  0  0  0  0  0  0  0  0
   37.2570   24.7940   40.7120 C   0  0  0  0  0  0  0  0  0  0  0  0
   37.2710   25.2770   41.9920 C   0  0  0  0  0  0  0  0  0  0  0  0
   37.1160   26.6640   42.1650 C   0  0  0  0  0  0  0  0  0  0  0  0
   37.1900   27.1140   43.4460 C   0  0  0  0  0  0  0  0  0  0  0  0
   37.1150   28.4980   43.6480 C   0  0  0  0  0  0  0  0  0  0  0  0
   36.9740   29.3520   42.5020 C   0  0  0  0  0  0  0  0  0  0  0  0
   36.9150   28.7410   41.2690 C   0  0  0  0  0  0  0  0  0  0  0  0
   36.9590   27.4430   41.0150 C   0  0  0  0  0  0  0  0  0  0  0  0
   37.0770   25.2550   38.6000 H   0  0  0  0  0  0  0  0  0  0  0  0
   37.3730   23.7490   40.4560 H   0  0  0  0  0  0  0  0  0  0  0  0
   37.3980   24.5600   42.7670 H   0  0  0  0  0  0  0  0  0  0  0  0
   37.3020   26.4260   44.2740 H   0  0  0  0  0  0  0  0  0  0  0  0
   37.1750   28.7770   44.6890 H   0  0  0  0  0  0  0  0  0  0  0  0
   36.9450   30.3310   42.9530 H   0  0  0  0  0  0  0  0  0  0  0  0
   38.5970   30.2370   40.6540 C   0  0  0  0  0  0  0  0  0  0  0  0
   37.1740   29.9840   40.5690 C   0  0  0  0  0  0  0  0  0  0  0  0
   36.5460   31.0180   40.0150 C   0  0  0  0  0  0  0  0  0  0  0  0
   37.1410   32.1840   39.5790 C   0  0  0  0  0  0  0  0  0  0  0  0
   38.4870   32.4010   39.6740 C   0  0  0  0  0  0  0  0  0  0  0  0
   39.2180   31.3910   40.2300 C   0  0  0  0  0  0  0  0  0  0  0  0
   35.4780   30.7350   39.9890 H   0  0  0  0  0  0  0  0  0  0  0  0
   36.3930   32.8710   39.1630 H   0  0  0  0  0  0  0  0  0  0  0  0
   38.7310   33.3590   39.2800 H   0  0  0  0  0  0  0  0  0  0  0  0
   39.5810   29.3540   41.1770 O   0  0  0  0  0  0  0  0  0  0  0  0
   40.2980   29.0390   40.5360 H   0  0  0  0  0  0  0  0  0  0  0  0
   40.5670   31.6670   40.3160 O   0  0  0  0  0  0  0  0  0  0  0  0
   42.2550   34.0020   42.9750 H   0  0  0  0  0  0  0  0  0  0  0  0
   43.1660   33.7480   42.5160 N   0  0  0  0  0  0  0  0  0  0  0  0
   43.3640   32.3260   42.5760 C   0  0  0  0  0  2  0  0  0  0  0  0
   42.5600   31.6200   41.5220 C   0  0  0  0  0  2  0  0  0  0  0  0
   41.2990   32.4270   41.1620 C   0  0  0  0  0  3  0  0  0  0  0  0
   41.6870   33.7920   40.6410 C   0  0  0  0  0  2  0  0  0  0  0  0
   43.0620   34.1610   41.1210 C   0  0  0  0  0  2  0  0  0  0  0  0
   36.4830   29.0840   36.6810 C   0  0  0  0  0  0  0  0  0  0  0  0
   35.0770   29.2180   36.6780 C   0  0  0  0  0  0  0  0  0  0  0  0
   34.4060   28.6290   37.7290 C   0  0  0  0  0  0  0  0  0  0  0  0
   35.1740   28.0030   38.6170 N   0  0  0  0  0  0  0  0  0  0  0  0
   36.4940   27.8570   38.6500 C   0  0  0  0  0  0  0  0  0  0  0  0
   37.1130   28.4200   37.6540 N   0  0  0  0  0  0  0  0  0  0  0  0
   36.9770   29.5580   35.8450 H   0  0  0  0  0  0  0  0  0  0  0  0
   34.5450   29.7440   35.9080 H   0  0  0  0  0  0  0  0  0  0  0  0
   33.0020   28.7380   37.8850 N   0  0  0  0  0  0  0  0  0  0  0  0
   32.6860   27.8100   37.4930 H   0  0  0  0  0  0  0  0  0  0  0  0
   32.4640   29.5420   38.2870 H   0  0  0  0  0  0  0  0  0  0  0  0
  1 10  1  0  0  0  0
  2  1  2  0  0  0  0
  2  3  1  0  0  0  0
  3  4  2  0  0  0  0
  4  5  1  0  0  0  0
  4 13  1  0  0  0  0
  5  6  1  0  0  0  0
  6  7  2  0  0  0  0
  6 14  1  0  0  0  0
  7 15  1  0  0  0  0
  8 16  1  0  0  0  0
  8  7  1  0  0  0  0
  9  8  2  0  0  0  0
 10  9  1  0  0  0  0
 10  5  2  0  0  0  0
 11  2  1  0  0  0  0
 12  3  1  0  0  0  0
 17 26  1  0  0  0  0
 18 17  1  0  0  0  0
 18  9  1  0  0  0  0
 19 18  2  0  0  0  0
 20 21  2  0  0  0  0
 20 19  1  0  0  0  0
 21 22  1  0  0  0  0
 22 28  1  0  0  0  0
 22 17  2  0  0  0  0
 23 19  1  0  0  0  0
 24 20  1  0  0  0  0
 25 21  1  0  0  0  0
 27 26  1  0  0  0  0
 28 33  1  0  0  0  0
 30 31  1  0  0  0  0
 30 29  1  0  0  0  0
 32 31  1  0  0  0  0
 33 32  1  0  0  0  0
 34 35  1  0  0  0  0
 34 33  1  0  0  0  0
 35 30  1  0  0  0  0
 36 41  1  0  0  0  0
 37 36  2  0  0  0  0
 37 38  1  0  0  0  0
 38 44  1  0  0  0  0
 38 39  2  0  0  0  0
 39 40  1  0  0  0  0
 40  1  1  0  0  0  0
 41 40  2  0  0  0  0
 42 36  1  0  0  0  0
 43 37  1  0  0  0  0
 44 46  1  0  0  0  0
 45 44  1  0  0  0  0
M  END
>  <minimizedAffinity>
-7.23118544

$$$$

 OpenBabel03242521573D

 46 50  0  0  0  0  0  0  0  0999 V2000
   37.8320   31.6360   40.5080 C   0  0  0  0  0  0  0  0  0  0  0  0
   37.6630   32.9160   39.9890 C   0  0  0  0  0  0  0  0  0  0  0  0
   38.6740   33.8840   40.0010 C   0  0  0  0  0  0  0  0  0  0  0  0
   39.9020   33.6030   40.5350 C   0  0  0  0  0  0  0  0  0  0  0  0
   40.0970   32.3180   41.0740 C   0  0  0  0  0  0  0  0  0  0  0  0
   41.3100   32.0920   41.6460 C   0  0  0  0  0  0  0  0  0  0  0  0
   41.5120   30.8480   42.2570 C   0  0  0  0  0  0  0  0  0  0  0  0
   40.4360   29.8980   42.2520 C   0  0  0  0  0  0  0  0  0  0  0  0
   39.2670   30.2790   41.6310 C   0  0  0  0  0  0  0  0  0  0  0  0
   39.0210   31.4260   41.0200 C   0  0  0  0  0  0  0  0  0  0  0  0
   36.6790   33.1580   39.5540 H   0  0  0  0  0  0  0  0  0  0  0  0
   38.4060   34.8380   39.5650 H   0  0  0  0  0  0  0  0  0  0  0  0
   40.6230   34.3830   40.5030 H   0  0  0  0  0  0  0  0  0  0  0  0
   42.0850   32.8470   41.6250 H   0  0  0  0  0  0  0  0  0  0  0  0
   42.4990   30.7430   42.6830 H   0  0  0  0  0  0  0  0  0  0  0  0
   40.8700   29.0630   42.7790 H   0  0  0  0  0  0  0  0  0  0  0  0
   38.5300   28.0840   41.3390 C   0  0  0  0  0  0  0  0  0  0  0  0
   38.5130   29.2070   42.2520 C   0  0  0  0  0  0  0  0  0  0  0  0
   37.7100   28.9610   43.2830 C   0  0  0  0  0  0  0  0  0  0  0  0
   36.9780   27.8070   43.4780 C   0  0  0  0  0  0  0  0  0  0  0  0
   37.0080   26.7620   42.5990 C   0  0  0  0  0  0  0  0  0  0  0  0
   37.8080   26.9230   41.5050 C   0  0  0  0  0  0  0  0  0  0  0  0
   37.7640   29.8610   43.9210 H   0  0  0  0  0  0  0  0  0  0  0  0
   36.4000   27.8660   44.4090 H   0  0  0  0  0  0  0  0  0  0  0  0
   36.3730   25.9780   42.9400 H   0  0  0  0  0  0  0  0  0  0  0  0
   39.2820   27.9860   40.1360 O   0  0  0  0  0  0  0  0  0  0  0  0
   39.9720   27.2470   40.0880 H   0  0  0  0  0  0  0  0  0  0  0  0
   37.7910   25.8460   40.6430 O   0  0  0  0  0  0  0  0  0  0  0  0
   34.8370   23.3100   40.1730 H   0  0  0  0  0  0  0  0  0  0  0  0
   35.2840   23.0680   39.2530 N   0  0  0  0  0  0  0  0  0  0  0  0
   35.3670   24.2400   38.4260 C   0  0  0  0  0  2  0  0  0  0  0  0
   36.5190   25.1130   38.8330 C   0  0  0  0  0  2  0  0  0  0  0  0
   36.8420   24.9350   40.3280 C   0  0  0  0  0  3  0  0  0  0  0  0
   37.2010   23.4950   40.6150 C   0  0  0  0  0  2  0  0  0  0  0  0
   36.6310   22.5960   39.5530 C   0  0  0  0  0  2  0  0  0  0  0  0
   34.9910   29.2180   40.3870 C   0  0  0  0  0  0  0  0  0  0  0  0
   35.2600   28.5900   39.1510 C   0  0  0  0  0  0  0  0  0  0  0  0
   36.3880   29.0180   38.4830 C   0  0  0  0  0  0  0  0  0  0  0  0
   37.0820   29.9770   39.0900 N   0  0  0  0  0  0  0  0  0  0  0  0
   36.8570   30.5890   40.2470 C   0  0  0  0  0  0  0  0  0  0  0  0
   35.7930   30.1730   40.8670 N   0  0  0  0  0  0  0  0  0  0  0  0
   34.1010   28.8590   40.8850 H   0  0  0  0  0  0  0  0  0  0  0  0
   34.6330   27.8230   38.7410 H   0  0  0  0  0  0  0  0  0  0  0  0
   36.8110   28.4320   37.2630 N   0  0  0  0  0  0  0  0  0  0  0  0
   36.4390   29.1330   36.5670 H   0  0  0  0  0  0  0  0  0  0  0  0
   37.3480   27.5420   37.1340 H   0  0  0  0  0  0  0  0  0  0  0  0
  1 10  1  0  0  0  0
  2  3  1  0  0  0  0
  2  1  2  0  0  0  0
  3  4  2  0  0  0  0
  4  5  1  0  0  0  0
  5  6  1  0  0  0  0
  6  7  2  0  0  0  0
  7 15  1  0  0  0  0
  8  7  1  0  0  0  0
  8 16  1  0  0  0  0
  9 18  1  0  0  0  0
  9  8  2  0  0  0  0
 10  5  2  0  0  0  0
 10  9  1  0  0  0  0
 11  2  1  0  0  0  0
 12  3  1  0  0  0  0
 13  4  1  0  0  0  0
 14  6  1  0  0  0  0
 17 22  2  0  0  0  0
 17 18  1  0  0  0  0
 18 19  2  0  0  0  0
 19 20  1  0  0  0  0
 19 23  1  0  0  0  0
 20 24  1  0  0  0  0
 21 25  1  0  0  0  0
 21 20  2  0  0  0  0
 22 21  1  0  0  0  0
 26 17  1  0  0  0  0
 27 26  1  0  0  0  0
 28 22  1  0  0  0  0
 30 35  1  0  0  0  0
 30 29  1  0  0  0  0
 31 32  1  0  0  0  0
 31 30  1  0  0  0  0
 32 33  1  0  0  0  0
 33 34  1  0  0  0  0
 33 28  1  0  0  0  0
 35 34  1  0  0  0  0
 36 41  1  0  0  0  0
 36 42  1  0  0  0  0
 37 36  2  0  0  0  0
 38 39  2  0  0  0  0
 38 37  1  0  0  0  0
 39 40  1  0  0  0  0
 40  1  1  0  0  0  0
 40 41  2  0  0  0  0
 43 37  1  0  0  0  0
 44 38  1  0  0  0  0
 45 44  1  0  0  0  0
 46 44  1  0  0  0  0
M  END
>  <minimizedAffinity>
-6.94904423

$$$$

 OpenBabel03242521573D

 46 50  0  0  0  0  0  0  0  0999 V2000
   37.1590   26.0730   41.1940 C   0  0  0  0  0  0  0  0  0  0  0  0
   37.2020   24.7780   41.7040 C   0  0  0  0  0  0  0  0  0  0  0  0
   36.7660   23.6590   40.9840 C   0  0  0  0  0  0  0  0  0  0  0  0
   36.2680   23.7970   39.7170 C   0  0  0  0  0  0  0  0  0  0  0  0
   36.2060   25.0950   39.1810 C   0  0  0  0  0  0  0  0  0  0  0  0
   35.6550   25.2000   37.9420 C   0  0  0  0  0  0  0  0  0  0  0  0
   35.5100   26.4860   37.4080 C   0  0  0  0  0  0  0  0  0  0  0  0
   35.9390   27.6080   38.1950 C   0  0  0  0  0  0  0  0  0  0  0  0
   36.4770   27.3360   39.4330 C   0  0  0  0  0  0  0  0  0  0  0  0
   36.6600   26.1470   39.9830 C   0  0  0  0  0  0  0  0  0  0  0  0
   37.6010   24.6510   42.7240 H   0  0  0  0  0  0  0  0  0  0  0  0
   36.8560   22.7130   41.5020 H   0  0  0  0  0  0  0  0  0  0  0  0
   35.9630   22.9030   39.2290 H   0  0  0  0  0  0  0  0  0  0  0  0
   35.3430   24.3200   37.3940 H   0  0  0  0  0  0  0  0  0  0  0  0
   35.0710   26.4870   36.4210 H   0  0  0  0  0  0  0  0  0  0  0  0
   35.7090   28.4390   37.5470 H   0  0  0  0  0  0  0  0  0  0  0  0
   37.5790   29.3900   39.5480 C   0  0  0  0  0  0  0  0  0  0  0  0
   36.3400   28.7130   39.8670 C   0  0  0  0  0  0  0  0  0  0  0  0
   35.5390   29.5080   40.5700 C   0  0  0  0  0  0  0  0  0  0  0  0
   35.8250   30.8000   40.9610 C   0  0  0  0  0  0  0  0  0  0  0  0
   37.0050   31.4160   40.6520 C   0  0  0  0  0  0  0  0  0  0  0  0
   37.8940   30.6760   39.9270 C   0  0  0  0  0  0  0  0  0  0  0  0
   34.6260   28.9140   40.7600 H   0  0  0  0  0  0  0  0  0  0  0  0
   34.9910   31.2280   41.5310 H   0  0  0  0  0  0  0  0  0  0  0  0
   37.0170   32.4030   41.0490 H   0  0  0  0  0  0  0  0  0  0  0  0
   38.6650   28.8550   38.8010 O   0  0  0  0  0  0  0  0  0  0  0  0
   38.9000   29.3270   37.9370 H   0  0  0  0  0  0  0  0  0  0  0  0
   39.0730   31.3380   39.6550 O   0  0  0  0  0  0  0  0  0  0  0  0
   40.9630   33.7600   42.0910 H   0  0  0  0  0  0  0  0  0  0  0  0
   41.7750   33.6800   41.4290 N   0  0  0  0  0  0  0  0  0  0  0  0
   42.1810   32.3060   41.3190 C   0  0  0  0  0  2  0  0  0  0  0  0
   41.2710   31.5410   40.4010 C   0  0  0  0  0  2  0  0  0  0  0  0
   39.8600   32.1570   40.3900 C   0  0  0  0  0  3  0  0  0  0  0  0
   39.9230   33.5930   39.9220 C   0  0  0  0  0  2  0  0  0  0  0  0
   41.3040   34.1470   40.1300 C   0  0  0  0  0  2  0  0  0  0  0  0
   38.3610   28.9080   43.3010 C   0  0  0  0  0  0  0  0  0  0  0  0
   39.7100   28.9640   42.8860 C   0  0  0  0  0  0  0  0  0  0  0  0
   40.0870   28.0590   41.9150 C   0  0  0  0  0  0  0  0  0  0  0  0
   39.1260   27.2410   41.4940 N   0  0  0  0  0  0  0  0  0  0  0  0
   37.8520   27.1620   41.8620 C   0  0  0  0  0  0  0  0  0  0  0  0
   37.5110   28.0230   42.7740 N   0  0  0  0  0  0  0  0  0  0  0  0
   38.1000   29.6310   44.0610 H   0  0  0  0  0  0  0  0  0  0  0  0
   40.4160   29.6620   43.2930 H   0  0  0  0  0  0  0  0  0  0  0  0
   41.3920   28.0430   41.3630 N   0  0  0  0  0  0  0  0  0  0  0  0
   41.8310   27.2550   41.9120 H   0  0  0  0  0  0  0  0  0  0  0  0
   41.7760   28.6650   40.6120 H   0  0  0  0  0  0  0  0  0  0  0  0
  1  2  1  0  0  0  0
  1 40  1  0  0  0  0
  2 11  1  0  0  0  0
  3 12  1  0  0  0  0
  3  2  2  0  0  0  0
  4  3  1  0  0  0  0
  5  4  2  0  0  0  0
  5 10  1  0  0  0  0
  6  5  1  0  0  0  0
  7  6  2  0  0  0  0
  7  8  1  0  0  0  0
  8  9  2  0  0  0  0
  9 18  1  0  0  0  0
  9 10  1  0  0  0  0
 10  1  2  0  0  0  0
 13  4  1  0  0  0  0
 14  6  1  0  0  0  0
 15  7  1  0  0  0  0
 16  8  1  0  0  0  0
 17 18  2  0  0  0  0
 17 22  1  0  0  0  0
 18 19  1  0  0  0  0
 19 23  1  0  0  0  0
 19 20  2  0  0  0  0
 20 24  1  0  0  0  0
 21 20  1  0  0  0  0
 21 25  1  0  0  0  0
 22 21  2  0  0  0  0
 26 17  1  0  0  0  0
 27 26  1  0  0  0  0
 28 22  1  0  0  0  0
 28 33  1  0  0  0  0
 30 29  1  0  0  0  0
 31 30  1  0  0  0  0
 32 31  1  0  0  0  0
 33 32  1  0  0  0  0
 34 35  1  0  0  0  0
 34 33  1  0  0  0  0
 35 30  1  0  0  0  0
 36 42  1  0  0  0  0
 37 43  1  0  0  0  0
 37 36  1  0  0  0  0
 38 37  2  0  0  0  0
 39 40  2  0  0  0  0
 39 38  1  0  0  0  0
 40 41  1  0  0  0  0
 41 36  2  0  0  0  0
 44 45  1  0  0  0  0
 44 38  1  0  0  0  0
 46 44  1  0  0  0  0
M  END
>  <minimizedAffinity>
-6.86048651

$$$$

 OpenBabel03242521573D

 46 50  0  0  0  0  0  0  0  0999 V2000
   37.3790   27.2560   40.7340 C   0  0  0  0  0  0  0  0  0  0  0  0
   36.6830   26.2770   40.0300 C   0  0  0  0  0  0  0  0  0  0  0  0
   36.7960   24.9100   40.3110 C   0  0  0  0  0  0  0  0  0  0  0  0
   37.6130   24.4700   41.3150 C   0  0  0  0  0  0  0  0  0  0  0  0
   38.3340   25.4380   42.0380 C   0  0  0  0  0  0  0  0  0  0  0  0
   39.1770   24.9610   42.9910 C   0  0  0  0  0  0  0  0  0  0  0  0
   39.9650   25.8930   43.6790 C   0  0  0  0  0  0  0  0  0  0  0  0
   39.8430   27.2810   43.3350 C   0  0  0  0  0  0  0  0  0  0  0  0
   38.9430   27.6040   42.3440 C   0  0  0  0  0  0  0  0  0  0  0  0
   38.1570   26.7770   41.6740 C   0  0  0  0  0  0  0  0  0  0  0  0
   36.0200   26.6160   39.2170 H   0  0  0  0  0  0  0  0  0  0  0  0
   36.1990   24.2600   39.6840 H   0  0  0  0  0  0  0  0  0  0  0  0
   37.6420   23.4200   41.4760 H   0  0  0  0  0  0  0  0  0  0  0  0
   39.2330   23.9020   43.2070 H   0  0  0  0  0  0  0  0  0  0  0  0
   40.6040   25.4390   44.4220 H   0  0  0  0  0  0  0  0  0  0  0  0
   40.5500   27.7430   44.0070 H   0  0  0  0  0  0  0  0  0  0  0  0
   40.4590   28.8460   41.0760 C   0  0  0  0  0  0  0  0  0  0  0  0
   39.5120   28.9270   42.1690 C   0  0  0  0  0  0  0  0  0  0  0  0
   39.5660   30.1220   42.7490 C   0  0  0  0  0  0  0  0  0  0  0  0
   40.4020   31.1580   42.3860 C   0  0  0  0  0  0  0  0  0  0  0  0
   41.2910   31.0570   41.3530 C   0  0  0  0  0  0  0  0  0  0  0  0
   41.3070   29.8610   40.6930 C   0  0  0  0  0  0  0  0  0  0  0  0
   38.8150   30.0920   43.5590 H   0  0  0  0  0  0  0  0  0  0  0  0
   40.2410   32.0330   43.0300 H   0  0  0  0  0  0  0  0  0  0  0  0
   41.8330   31.9670   41.2460 H   0  0  0  0  0  0  0  0  0  0  0  0
   40.6710   27.7280   40.2240 O   0  0  0  0  0  0  0  0  0  0  0  0
   40.4820   27.8620   39.2390 H   0  0  0  0  0  0  0  0  0  0  0  0
   42.2310   29.8070   39.6710 O   0  0  0  0  0  0  0  0  0  0  0  0
   42.7010   32.5070   36.8670 H   0  0  0  0  0  0  0  0  0  0  0  0
   43.5390   31.9480   36.5660 N   0  0  0  0  0  0  0  0  0  0  0  0
   44.4800   31.8600   37.6480 C   0  0  0  0  0  2  0  0  0  0  0  0
   44.0630   30.8220   38.6500 C   0  0  0  0  0  2  0  0  0  0  0  0
   42.5330   30.6500   38.6570 C   0  0  0  0  0  3  0  0  0  0  0  0
   42.0510   30.2230   37.2890 C   0  0  0  0  0  2  0  0  0  0  0  0
   43.0550   30.6110   36.2400 C   0  0  0  0  0  2  0  0  0  0  0  0
   36.2040   30.7900   40.9760 C   0  0  0  0  0  0  0  0  0  0  0  0
   36.9000   31.3520   39.8830 C   0  0  0  0  0  0  0  0  0  0  0  0
   37.6820   30.4860   39.1470 C   0  0  0  0  0  0  0  0  0  0  0  0
   37.6830   29.2230   39.5660 N   0  0  0  0  0  0  0  0  0  0  0  0
   37.0430   28.6630   40.5860 C   0  0  0  0  0  0  0  0  0  0  0  0
   36.3080   29.4910   41.2680 N   0  0  0  0  0  0  0  0  0  0  0  0
   35.6010   31.4960   41.5300 H   0  0  0  0  0  0  0  0  0  0  0  0
   36.8370   32.3920   39.6270 H   0  0  0  0  0  0  0  0  0  0  0  0
   38.3850   30.9010   37.9890 N   0  0  0  0  0  0  0  0  0  0  0  0
   39.3540   31.0400   38.3850 H   0  0  0  0  0  0  0  0  0  0  0  0
   38.0060   31.0230   37.0210 H   0  0  0  0  0  0  0  0  0  0  0  0
  1 10  1  0  0  0  0
  2  3  1  0  0  0  0
  2  1  2  0  0  0  0
  3  4  2  0  0  0  0
  4 13  1  0  0  0  0
  4  5  1  0  0  0  0
  5  6  1  0  0  0  0
  6 14  1  0  0  0  0
  6  7  2  0  0  0  0
  7 15  1  0  0  0  0
  8  7  1  0  0  0  0
  8 16  1  0  0  0  0
  9  8  2  0  0  0  0
 10  5  2  0  0  0  0
 10  9  1  0  0  0  0
 11  2  1  0  0  0  0
 12  3  1  0  0  0  0
 17 18  1  0  0  0  0
 18  9  1  0  0  0  0
 18 19  2  0  0  0  0
 19 23  1  0  0  0  0
 20 19  1  0  0  0  0
 20 24  1  0  0  0  0
 21 20  2  0  0  0  0
 22 17  2  0  0  0  0
 22 21  1  0  0  0  0
 25 21  1  0  0  0  0
 26 17  1  0  0  0  0
 27 26  1  0  0  0  0
 28 22  1  0  0  0  0
 30 29  1  0  0  0  0
 30 31  1  0  0  0  0
 31 32  1  0  0  0  0
 32 33  1  0  0  0  0
 33 28  1  0  0  0  0
 34 33  1  0  0  0  0
 35 30  1  0  0  0  0
 35 34  1  0  0  0  0
 36 41  1  0  0  0  0
 36 42  1  0  0  0  0
 37 36  2  0  0  0  0
 38 39  2  0  0  0  0
 38 37  1  0  0  0  0
 39 40  1  0  0  0  0
 40  1  1  0  0  0  0
 40 41  2  0  0  0  0
 43 37  1  0  0  0  0
 44 45  1  0  0  0  0
 44 38  1  0  0  0  0
 46 44  1  0  0  0  0
M  END
>  <minimizedAffinity>
-6.68778706

$$$$

 OpenBabel03242521573D

 46 50  0  0  0  0  0  0  0  0999 V2000
   41.0040   25.3580   40.8320 C   0  0  0  0  0  0  0  0  0  0  0  0
   41.7820   24.7530   39.8480 C   0  0  0  0  0  0  0  0  0  0  0  0
   43.1700   24.9130   39.7670 C   0  0  0  0  0  0  0  0  0  0  0  0
   43.8360   25.6880   40.6760 C   0  0  0  0  0  0  0  0  0  0  0  0
   43.0730   26.3170   41.6770 C   0  0  0  0  0  0  0  0  0  0  0  0
   43.7610   27.1240   42.5290 C   0  0  0  0  0  0  0  0  0  0  0  0
   43.0210   27.8240   43.4910 C   0  0  0  0  0  0  0  0  0  0  0  0
   41.5960   27.6570   43.5160 C   0  0  0  0  0  0  0  0  0  0  0  0
   41.0490   26.8030   42.5840 C   0  0  0  0  0  0  0  0  0  0  0  0
   41.6920   26.1000   41.6660 C   0  0  0  0  0  0  0  0  0  0  0  0
   41.2590   24.1240   39.1080 H   0  0  0  0  0  0  0  0  0  0  0  0
   43.6490   24.3870   38.9520 H   0  0  0  0  0  0  0  0  0  0  0  0
   44.8900   25.7580   40.5570 H   0  0  0  0  0  0  0  0  0  0  0  0
   44.8370   27.2170   42.4620 H   0  0  0  0  0  0  0  0  0  0  0  0
   43.6370   28.4380   44.1320 H   0  0  0  0  0  0  0  0  0  0  0  0
   41.3080   28.2980   44.3330 H   0  0  0  0  0  0  0  0  0  0  0  0
   39.4700   28.3310   41.7960 C   0  0  0  0  0  0  0  0  0  0  0  0
   39.7110   27.3180   42.8030 C   0  0  0  0  0  0  0  0  0  0  0  0
   38.7110   27.2810   43.6790 C   0  0  0  0  0  0  0  0  0  0  0  0
   37.5910   28.0860   43.6600 C   0  0  0  0  0  0  0  0  0  0  0  0
   37.3880   29.0390   42.7010 C   0  0  0  0  0  0  0  0  0  0  0  0
   38.3640   29.1520   41.7540 C   0  0  0  0  0  0  0  0  0  0  0  0
   38.9780   26.4850   44.3970 H   0  0  0  0  0  0  0  0  0  0  0  0
   36.9240   27.8470   44.4980 H   0  0  0  0  0  0  0  0  0  0  0  0
   36.4660   29.5430   42.8760 H   0  0  0  0  0  0  0  0  0  0  0  0
   40.3150   28.6470   40.6970 O   0  0  0  0  0  0  0  0  0  0  0  0
   39.9300   28.5100   39.7710 H   0  0  0  0  0  0  0  0  0  0  0  0
   38.1180   30.1360   40.8200 O   0  0  0  0  0  0  0  0  0  0  0  0
   37.6060   33.9670   41.4810 H   0  0  0  0  0  0  0  0  0  0  0  0
   38.1320   34.1210   40.5840 N   0  0  0  0  0  0  0  0  0  0  0  0
   39.4430   33.5410   40.6820 C   0  0  0  0  0  2  0  0  0  0  0  0
   39.3970   32.0540   40.4780 C   0  0  0  0  0  2  0  0  0  0  0  0
   38.0320   31.4840   40.9040 C   0  0  0  0  0  3  0  0  0  0  0  0
   36.9270   32.1180   40.0900 C   0  0  0  0  0  2  0  0  0  0  0  0
   37.3820   33.4380   39.5360 C   0  0  0  0  0  2  0  0  0  0  0  0
   37.6960   24.0130   41.9160 C   0  0  0  0  0  0  0  0  0  0  0  0
   36.8450   24.7310   41.0470 C   0  0  0  0  0  0  0  0  0  0  0  0
   37.4640   25.5830   40.1560 C   0  0  0  0  0  0  0  0  0  0  0  0
   38.7920   25.6230   40.2320 N   0  0  0  0  0  0  0  0  0  0  0  0
   39.6190   24.9640   41.0360 C   0  0  0  0  0  0  0  0  0  0  0  0
   39.0220   24.1630   41.8670 N   0  0  0  0  0  0  0  0  0  0  0  0
   37.1790   23.3530   42.6000 H   0  0  0  0  0  0  0  0  0  0  0  0
   35.7770   24.6320   41.0650 H   0  0  0  0  0  0  0  0  0  0  0  0
   36.7380   26.3180   39.1860 N   0  0  0  0  0  0  0  0  0  0  0  0
   36.6760   27.2610   39.6570 H   0  0  0  0  0  0  0  0  0  0  0  0
   36.3800   25.9780   38.2630 H   0  0  0  0  0  0  0  0  0  0  0  0
  1 40  1  0  0  0  0
  1 10  1  0  0  0  0
  2  1  2  0  0  0  0
  3  2  1  0  0  0  0
  3  4  2  0  0  0  0
  4  5  1  0  0  0  0
  5  6  1  0  0  0  0
  6  7  2  0  0  0  0
  7  8  1  0  0  0  0
  7 15  1  0  0  0  0
  8 16  1  0  0  0  0
  9 18  1  0  0  0  0
  9  8  2  0  0  0  0
 10  5  2  0  0  0  0
 10  9  1  0  0  0  0
 11  2  1  0  0  0  0
 12  3  1  0  0  0  0
 13  4  1  0  0  0  0
 14  6  1  0  0  0  0
 17 18  1  0  0  0  0
 18 19  2  0  0  0  0
 19 23  1  0  0  0  0
 20 19  1  0  0  0  0
 20 24  1  0  0  0  0
 21 25  1  0  0  0  0
 21 20  2  0  0  0  0
 22 17  2  0  0  0  0
 22 21  1  0  0  0  0
 26 17  1  0  0  0  0
 27 26  1  0  0  0  0
 28 33  1  0  0  0  0
 28 22  1  0  0  0  0
 30 31  1  0  0  0  0
 30 29  1  0  0  0  0
 32 31  1  0  0  0  0
 32 33  1  0  0  0  0
 34 33  1  0  0  0  0
 35 34  1  0  0  0  0
 35 30  1  0  0  0  0
 36 42  1  0  0  0  0
 37 43  1  0  0  0  0
 37 36  2  0  0  0  0
 38 39  2  0  0  0  0
 38 37  1  0  0  0  0
 39 40  1  0  0  0  0
 40 41  2  0  0  0  0
 41 36  1  0  0  0  0
 44 45  1  0  0  0  0
 44 38  1  0  0  0  0
 46 44  1  0  0  0  0
M  END
>  <minimizedAffinity>
-6.66018295

$$$$

 OpenBabel03242521573D

 46 50  0  0  0  0  0  0  0  0999 V2000
   37.1090   25.2800   39.5030 C   0  0  0  0  0  0  0  0  0  0  0  0
   37.6300   24.0190   39.7780 C   0  0  0  0  0  0  0  0  0  0  0  0
   37.9430   23.5890   41.0730 C   0  0  0  0  0  0  0  0  0  0  0  0
   37.7410   24.4110   42.1480 C   0  0  0  0  0  0  0  0  0  0  0  0
   37.2220   25.6940   41.8970 C   0  0  0  0  0  0  0  0  0  0  0  0
   37.0870   26.5030   42.9820 C   0  0  0  0  0  0  0  0  0  0  0  0
   36.6430   27.8120   42.7580 C   0  0  0  0  0  0  0  0  0  0  0  0
   36.3670   28.2220   41.4100 C   0  0  0  0  0  0  0  0  0  0  0  0
   36.5550   27.2840   40.4190 C   0  0  0  0  0  0  0  0  0  0  0  0
   36.9500   26.0300   40.5670 C   0  0  0  0  0  0  0  0  0  0  0  0
   37.7980   23.3450   38.9220 H   0  0  0  0  0  0  0  0  0  0  0  0
   38.3420   22.5860   41.1430 H   0  0  0  0  0  0  0  0  0  0  0  0
   37.9940   24.0150   43.1020 H   0  0  0  0  0  0  0  0  0  0  0  0
   37.3150   26.1430   43.9770 H   0  0  0  0  0  0  0  0  0  0  0  0
   36.5570   28.3900   43.6660 H   0  0  0  0  0  0  0  0  0  0  0  0
   36.0550   29.2460   41.5450 H   0  0  0  0  0  0  0  0  0  0  0  0
   37.8590   28.8640   39.3020 C   0  0  0  0  0  0  0  0  0  0  0  0
   36.5320   28.2890   39.3740 C   0  0  0  0  0  0  0  0  0  0  0  0
   35.6930   28.9470   38.5790 C   0  0  0  0  0  0  0  0  0  0  0  0
   36.0120   30.0320   37.7900 C   0  0  0  0  0  0  0  0  0  0  0  0
   37.2720   30.5600   37.7420 C   0  0  0  0  0  0  0  0  0  0  0  0
   38.2060   29.9480   38.5260 C   0  0  0  0  0  0  0  0  0  0  0  0
   34.7180   28.4400   38.6960 H   0  0  0  0  0  0  0  0  0  0  0  0
   35.1320   30.3820   37.2350 H   0  0  0  0  0  0  0  0  0  0  0  0
   37.2960   31.3880   37.0730 H   0  0  0  0  0  0  0  0  0  0  0  0
   39.0120   28.4170   40.0030 O   0  0  0  0  0  0  0  0  0  0  0  0
   39.7900   28.0920   39.4430 H   0  0  0  0  0  0  0  0  0  0  0  0
   39.4560   30.5280   38.4530 O   0  0  0  0  0  0  0  0  0  0  0  0
   40.2630   34.3130   37.8260 H   0  0  0  0  0  0  0  0  0  0  0  0
   41.1090   34.1610   38.4300 N   0  0  0  0  0  0  0  0  0  0  0  0
   40.7040   33.7160   39.7350 C   0  0  0  0  0  2  0  0  0  0  0  0
   40.3610   32.2540   39.7300 C   0  0  0  0  0  2  0  0  0  0  0  0
   39.8700   31.8110   38.3390 C   0  0  0  0  0  3  0  0  0  0  0  0
   40.9440   32.0600   37.3050 C   0  0  0  0  0  2  0  0  0  0  0  0
   41.8980   33.1150   37.7900 C   0  0  0  0  0  2  0  0  0  0  0  0
   36.3710   26.1580   35.9510 C   0  0  0  0  0  0  0  0  0  0  0  0
   34.9900   25.8690   35.9120 C   0  0  0  0  0  0  0  0  0  0  0  0
   34.4250   25.4290   37.0910 C   0  0  0  0  0  0  0  0  0  0  0  0
   35.2610   25.3300   38.1210 N   0  0  0  0  0  0  0  0  0  0  0  0
   36.5610   25.5920   38.1920 C   0  0  0  0  0  0  0  0  0  0  0  0
   37.0780   26.0080   37.0750 N   0  0  0  0  0  0  0  0  0  0  0  0
   36.7810   26.5010   35.0110 H   0  0  0  0  0  0  0  0  0  0  0  0
   34.3980   25.9770   35.0230 H   0  0  0  0  0  0  0  0  0  0  0  0
   33.0380   25.1610   37.2110 N   0  0  0  0  0  0  0  0  0  0  0  0
   33.0300   24.1100   37.1080 H   0  0  0  0  0  0  0  0  0  0  0  0
   32.2650   25.8510   37.3610 H   0  0  0  0  0  0  0  0  0  0  0  0
  1  2  2  0  0  0  0
  1 10  1  0  0  0  0
  2  3  1  0  0  0  0
  3 12  1  0  0  0  0
  3  4  2  0  0  0  0
  4 13  1  0  0  0  0
  5  4  1  0  0  0  0
  5  6  1  0  0  0  0
  6 14  1  0  0  0  0
  7  6  2  0  0  0  0
  7 15  1  0  0  0  0
  8 16  1  0  0  0  0
  8  7  1  0  0  0  0
  9 10  1  0  0  0  0
  9  8  2  0  0  0  0
 10  5  2  0  0  0  0
 11  2  1  0  0  0  0
 17 18  1  0  0  0  0
 17 26  1  0  0  0  0
 18  9  1  0  0  0  0
 19 23  1  0  0  0  0
 19 18  2  0  0  0  0
 20 19  1  0  0  0  0
 21 20  2  0  0  0  0
 21 22  1  0  0  0  0
 22 17  2  0  0  0  0
 24 20  1  0  0  0  0
 25 21  1  0  0  0  0
 27 26  1  0  0  0  0
 28 22  1  0  0  0  0
 29 30  1  0  0  0  0
 30 31  1  0  0  0  0
 32 31  1  0  0  0  0
 33 28  1  0  0  0  0
 33 32  1  0  0  0  0
 34 35  1  0  0  0  0
 34 33  1  0  0  0  0
 35 30  1  0  0  0  0
 36 41  1  0  0  0  0
 37 36  2  0  0  0  0
 37 38  1  0  0  0  0
 38 44  1  0  0  0  0
 38 39  2  0  0  0  0
 39 40  1  0  0  0  0
 40  1  1  0  0  0  0
 41 40  2  0  0  0  0
 42 36  1  0  0  0  0
 43 37  1  0  0  0  0
 44 46  1  0  0  0  0
 45 44  1  0  0  0  0
M  END
>  <minimizedAffinity>
-6.64697981

$$$$

 OpenBabel03242521573D

 46 50  0  0  0  0  0  0  0  0999 V2000
   38.9430   25.5850   40.7230 C   0  0  0  0  0  0  0  0  0  0  0  0
   40.0310   24.9490   41.3150 C   0  0  0  0  0  0  0  0  0  0  0  0
   40.4000   25.1530   42.6500 C   0  0  0  0  0  0  0  0  0  0  0  0
   39.6870   26.0050   43.4480 C   0  0  0  0  0  0  0  0  0  0  0  0
   38.5880   26.6670   42.8720 C   0  0  0  0  0  0  0  0  0  0  0  0
   37.9370   27.5480   43.6790 C   0  0  0  0  0  0  0  0  0  0  0  0
   36.8830   28.2790   43.1160 C   0  0  0  0  0  0  0  0  0  0  0  0
   36.5600   28.0640   41.7330 C   0  0  0  0  0  0  0  0  0  0  0  0
   37.3150   27.1360   41.0510 C   0  0  0  0  0  0  0  0  0  0  0  0
   38.3060   26.4010   41.5290 C   0  0  0  0  0  0  0  0  0  0  0  0
   40.6150   24.2590   40.6850 H   0  0  0  0  0  0  0  0  0  0  0  0
   41.2670   24.5950   42.9790 H   0  0  0  0  0  0  0  0  0  0  0  0
   40.0210   26.1040   44.4520 H   0  0  0  0  0  0  0  0  0  0  0  0
   38.2250   27.6740   44.7140 H   0  0  0  0  0  0  0  0  0  0  0  0
   36.4130   28.9520   43.8180 H   0  0  0  0  0  0  0  0  0  0  0  0
   35.7360   28.7440   41.5860 H   0  0  0  0  0  0  0  0  0  0  0  0
   37.7470   28.6860   39.3600 C   0  0  0  0  0  0  0  0  0  0  0  0
   36.8570   27.6160   39.7620 C   0  0  0  0  0  0  0  0  0  0  0  0
   35.8390   27.5100   38.9130 C   0  0  0  0  0  0  0  0  0  0  0  0
   35.6300   28.2980   37.7990 C   0  0  0  0  0  0  0  0  0  0  0  0
   36.4830   29.3050   37.4430 C   0  0  0  0  0  0  0  0  0  0  0  0
   37.5630   29.4900   38.2570 C   0  0  0  0  0  0  0  0  0  0  0  0
   35.2230   26.6750   39.2940 H   0  0  0  0  0  0  0  0  0  0  0  0
   34.7150   27.9970   37.2750 H   0  0  0  0  0  0  0  0  0  0  0  0
   36.1350   29.7830   36.5580 H   0  0  0  0  0  0  0  0  0  0  0  0
   38.9430   29.0810   40.0190 O   0  0  0  0  0  0  0  0  0  0  0  0
   39.8030   28.9960   39.4940 H   0  0  0  0  0  0  0  0  0  0  0  0
   38.3830   30.5270   37.8610 O   0  0  0  0  0  0  0  0  0  0  0  0
   38.8120   34.3700   38.5100 H   0  0  0  0  0  0  0  0  0  0  0  0
   38.5500   34.1600   39.5060 N   0  0  0  0  0  0  0  0  0  0  0  0
   37.2440   33.5630   39.5510 C   0  0  0  0  0  2  0  0  0  0  0  0
   37.2980   32.1070   39.1880 C   0  0  0  0  0  2  0  0  0  0  0  0
   38.4830   31.8200   38.2470 C   0  0  0  0  0  3  0  0  0  0  0  0
   39.7840   32.2010   38.9170 C   0  0  0  0  0  2  0  0  0  0  0  0
   39.5330   33.2050   40.0060 C   0  0  0  0  0  2  0  0  0  0  0  0
   38.1810   24.8700   37.1400 C   0  0  0  0  0  0  0  0  0  0  0  0
   37.2100   23.8570   37.2970 C   0  0  0  0  0  0  0  0  0  0  0  0
   36.8790   23.5250   38.5940 C   0  0  0  0  0  0  0  0  0  0  0  0
   37.5250   24.2030   39.5390 N   0  0  0  0  0  0  0  0  0  0  0  0
   38.4420   25.1570   39.4270 C   0  0  0  0  0  0  0  0  0  0  0  0
   38.7400   25.4620   38.1990 N   0  0  0  0  0  0  0  0  0  0  0  0
   38.4160   25.1070   36.1120 H   0  0  0  0  0  0  0  0  0  0  0  0
   36.7460   23.3630   36.4650 H   0  0  0  0  0  0  0  0  0  0  0  0
   35.8760   22.5700   38.8970 N   0  0  0  0  0  0  0  0  0  0  0  0
   36.4670   21.7180   39.0960 H   0  0  0  0  0  0  0  0  0  0  0  0
   34.8390   22.7150   38.9090 H   0  0  0  0  0  0  0  0  0  0  0  0
  1  2  2  0  0  0  0
  1 10  1  0  0  0  0
  2  3  1  0  0  0  0
  3 12  1  0  0  0  0
  3  4  2  0  0  0  0
  4 13  1  0  0  0  0
  5  4  1  0  0  0  0
  5  6  1  0  0  0  0
  6 14  1  0  0  0  0
  7  6  2  0  0  0  0
  7 15  1  0  0  0  0
  8  7  1  0  0  0  0
  9 10  1  0  0  0  0
  9  8  2  0  0  0  0
 10  5  2  0  0  0  0
 11  2  1  0  0  0  0
 16  8  1  0  0  0  0
 17 18  1  0  0  0  0
 17 26  1  0  0  0  0
 18  9  1  0  0  0  0
 19 23  1  0  0  0  0
 19 18  2  0  0  0  0
 20 19  1  0  0  0  0
 21 20  2  0  0  0  0
 21 22  1  0  0  0  0
 22 17  2  0  0  0  0
 24 20  1  0  0  0  0
 25 21  1  0  0  0  0
 27 26  1  0  0  0  0
 28 33  1  0  0  0  0
 28 22  1  0  0  0  0
 29 30  1  0  0  0  0
 30 31  1  0  0  0  0
 30 35  1  0  0  0  0
 32 31  1  0  0  0  0
 33 34  1  0  0  0  0
 33 32  1  0  0  0  0
 34 35  1  0  0  0  0
 36 37  2  0  0  0  0
 36 41  1  0  0  0  0
 37 38  1  0  0  0  0
 38 44  1  0  0  0  0
 38 39  2  0  0  0  0
 40 39  1  0  0  0  0
 40  1  1  0  0  0  0
 41 40  2  0  0  0  0
 42 36  1  0  0  0  0
 43 37  1  0  0  0  0
 44 46  1  0  0  0  0
 44 45  1  0  0  0  0
M  END
>  <minimizedAffinity>
-6.63654184

$$$$
