
 OpenBabel03242520273D

 36 38  0  0  0  0  0  0  0  0999 V2000
   37.1720   30.7980   37.7200 C   0  0  0  0  0  0  0  0  0  0  0  0
   37.2650   31.0320   39.1140 C   0  0  0  0  0  0  0  0  0  0  0  0
   36.5770   30.1970   39.9810 C   0  0  0  0  0  0  0  0  0  0  0  0
   35.8350   29.1830   39.4440 N   0  0  0  0  0  0  0  0  0  0  0  0
   35.7560   28.9720   38.1110 C   0  0  0  0  0  0  0  0  0  0  0  0
   36.4110   29.7650   37.2640 N   0  0  0  0  0  0  0  0  0  0  0  0
   37.6830   31.4140   37.0160 H   0  0  0  0  0  0  0  0  0  0  0  0
   35.1420   28.1390   37.7600 H   0  0  0  0  0  0  0  0  0  0  0  0
   38.0770   32.1280   39.4990 N   0  0  0  0  0  0  0  0  0  0  0  0
   37.5520   33.4460   39.8010 C   0  0  0  0  0  0  0  0  0  0  0  0
   38.6540   34.3320   40.2780 C   0  0  0  0  0  0  0  0  0  0  0  0
   39.8100   34.3440   39.4190 N   0  0  0  0  0  0  0  0  0  0  0  0
   40.2900   33.0580   39.0350 C   0  0  0  0  0  0  0  0  0  0  0  0
   39.5130   31.9100   39.5940 C   0  0  0  0  0  0  0  0  0  0  0  0
   36.8090   33.3900   40.6270 H   0  0  0  0  0  0  0  0  0  0  0  0
   37.0980   33.8400   38.8700 H   0  0  0  0  0  0  0  0  0  0  0  0
   38.9470   33.9910   41.2980 H   0  0  0  0  0  0  0  0  0  0  0  0
   38.2810   35.3870   40.3160 H   0  0  0  0  0  0  0  0  0  0  0  0
   40.5200   34.9660   39.8270 H   0  0  0  0  0  0  0  0  0  0  0  0
   40.3280   33.0240   37.9090 H   0  0  0  0  0  0  0  0  0  0  0  0
   41.3460   32.9670   39.3820 H   0  0  0  0  0  0  0  0  0  0  0  0
   39.8150   30.9960   39.0130 H   0  0  0  0  0  0  0  0  0  0  0  0
   39.7720   31.8000   40.6590 H   0  0  0  0  0  0  0  0  0  0  0  0
   36.6920   30.4580   41.3350 O   0  0  0  0  0  0  0  0  0  0  0  0
   39.0120   30.1670   42.5910 O   0  0  0  0  0  0  0  0  0  0  0  0
   37.7090   29.4380   42.2800 P   0  0  1  0  0  0  0  0  0  0  0  0
   36.8780   29.0330   43.6770 O   0  0  0  0  0  0  0  0  0  0  0  0
   36.5080   28.1150   43.5310 H   0  0  0  0  0  0  0  0  0  0  0  0
   38.0600   28.0660   41.3460 O   0  0  0  0  0  0  0  0  0  0  0  0
   38.1680   23.5640   43.3430 H   0  0  0  0  0  0  0  0  0  0  0  0
   38.2260   24.0520   42.4300 N   0  0  0  0  0  0  0  0  0  0  0  0
   39.3480   24.9090   42.2500 C   0  0  0  0  0  2  0  0  0  0  0  0
   39.1000   26.3650   42.5720 C   0  0  0  0  0  2  0  0  0  0  0  0
   37.8040   26.8820   41.9830 C   0  0  0  0  0  3  0  0  0  0  0  0
   37.2920   25.8010   41.0570 C   0  0  0  0  0  2  0  0  0  0  0  0
   36.9750   24.6050   41.9650 C   0  0  0  0  0  2  0  0  0  0  0  0
  1  2  1  0  0  0  0
  2  9  1  0  0  0  0
  2  3  2  0  0  0  0
  3 24  1  0  0  0  0
  4  3  1  0  0  0  0
  5  4  2  0  0  0  0
  6  1  2  0  0  0  0
  6  5  1  0  0  0  0
  7  1  1  0  0  0  0
  8  5  1  0  0  0  0
  9 14  1  0  0  0  0
  9 10  1  0  0  0  0
 10 11  1  0  0  0  0
 10 15  1  0  0  0  0
 11 18  1  0  0  0  0
 11 17  1  0  0  0  0
 12 19  1  0  0  0  0
 12 11  1  0  0  0  0
 13 21  1  0  0  0  0
 13 12  1  0  0  0  0
 13 14  1  0  0  0  0
 14 23  1  0  0  0  0
 16 10  1  0  0  0  0
 20 13  1  0  0  0  0
 22 14  1  0  0  0  0
 24 26  1  0  0  0  0
 26 25  2  1  0  0  0
 26 27  1  0  0  0  0
 28 27  1  0  0  0  0
 29 34  1  0  0  0  0
 29 26  1  0  0  0  0
 31 30  1  0  0  0  0
 32 31  1  0  0  0  0
 32 33  1  0  0  0  0
 34 33  1  0  0  0  0
 35 36  1  0  0  0  0
 35 34  1  0  0  0  0
 36 31  1  0  0  0  0
M  END
>  <minimizedAffinity>
-5.7513032

$$$$

 OpenBabel03242520273D

 36 38  0  0  0  0  0  0  0  0999 V2000
   37.5980   27.4060   41.1080 C   0  0  0  0  0  0  0  0  0  0  0  0
   37.6900   28.7140   40.5710 C   0  0  0  0  0  0  0  0  0  0  0  0
   37.7390   29.7940   41.4400 C   0  0  0  0  0  0  0  0  0  0  0  0
   37.6940   29.5420   42.7820 N   0  0  0  0  0  0  0  0  0  0  0  0
   37.6050   28.2870   43.2800 C   0  0  0  0  0  0  0  0  0  0  0  0
   37.5580   27.2390   42.4590 N   0  0  0  0  0  0  0  0  0  0  0  0
   37.5580   26.5470   40.4790 H   0  0  0  0  0  0  0  0  0  0  0  0
   37.5740   28.1690   44.3660 H   0  0  0  0  0  0  0  0  0  0  0  0
   37.7260   28.7950   39.1560 N   0  0  0  0  0  0  0  0  0  0  0  0
   38.9210   28.5530   38.3710 C   0  0  0  0  0  0  0  0  0  0  0  0
   38.5900   28.6110   36.9170 C   0  0  0  0  0  0  0  0  0  0  0  0
   37.8600   29.7890   36.5270 N   0  0  0  0  0  0  0  0  0  0  0  0
   36.7320   30.0980   37.3420 C   0  0  0  0  0  0  0  0  0  0  0  0
   36.4930   29.1400   38.4640 C   0  0  0  0  0  0  0  0  0  0  0  0
   39.3160   27.5330   38.5670 H   0  0  0  0  0  0  0  0  0  0  0  0
   39.6570   29.3360   38.6430 H   0  0  0  0  0  0  0  0  0  0  0  0
   37.9960   27.7010   36.6680 H   0  0  0  0  0  0  0  0  0  0  0  0
   39.5420   28.6230   36.3280 H   0  0  0  0  0  0  0  0  0  0  0  0
   37.6650   29.7410   35.5180 H   0  0  0  0  0  0  0  0  0  0  0  0
   36.8530   31.1540   37.7160 H   0  0  0  0  0  0  0  0  0  0  0  0
   35.8280   30.1040   36.6900 H   0  0  0  0  0  0  0  0  0  0  0  0
   35.7670   29.6330   39.1670 H   0  0  0  0  0  0  0  0  0  0  0  0
   36.0660   28.2140   38.0460 H   0  0  0  0  0  0  0  0  0  0  0  0
   37.8280   31.0540   40.8770 O   0  0  0  0  0  0  0  0  0  0  0  0
   39.0000   33.4350   40.9710 O   0  0  0  0  0  0  0  0  0  0  0  0
   39.2900   31.9420   41.0880 P   0  0  1  0  0  0  0  0  0  0  0  0
   39.9200   31.5490   42.5890 O   0  0  0  0  0  0  0  0  0  0  0  0
   40.6410   30.8750   42.4270 H   0  0  0  0  0  0  0  0  0  0  0  0
   40.3410   31.4900   39.8350 O   0  0  0  0  0  0  0  0  0  0  0  0
   41.9410   34.3630   36.1650 H   0  0  0  0  0  0  0  0  0  0  0  0
   42.2810   33.7820   36.9540 N   0  0  0  0  0  0  0  0  0  0  0  0
   42.0180   32.3860   36.8630 C   0  0  0  0  0  2  0  0  0  0  0  0
   40.7670   31.9240   37.5740 C   0  0  0  0  0  2  0  0  0  0  0  0
   40.6340   32.5070   38.9660 C   0  0  0  0  0  3  0  0  0  0  0  0
   41.9480   33.1950   39.2690 C   0  0  0  0  0  2  0  0  0  0  0  0
   42.0430   34.3490   38.2620 C   0  0  0  0  0  2  0  0  0  0  0  0
  1  6  1  0  0  0  0
  2  1  2  0  0  0  0
  2  3  1  0  0  0  0
  3  4  2  0  0  0  0
  4  5  1  0  0  0  0
  5  8  1  0  0  0  0
  6  5  2  0  0  0  0
  7  1  1  0  0  0  0
  9  2  1  0  0  0  0
 10 15  1  0  0  0  0
 10 16  1  0  0  0  0
 10  9  1  0  0  0  0
 11 10  1  0  0  0  0
 12 11  1  0  0  0  0
 12 13  1  0  0  0  0
 13 20  1  0  0  0  0
 13 14  1  0  0  0  0
 14  9  1  0  0  0  0
 14 22  1  0  0  0  0
 17 11  1  0  0  0  0
 18 11  1  0  0  0  0
 19 12  1  0  0  0  0
 21 13  1  0  0  0  0
 23 14  1  0  0  0  0
 24 26  1  0  0  0  0
 24  3  1  0  0  0  0
 26 25  2  6  0  0  0
 26 27  1  0  0  0  0
 28 27  1  0  0  0  0
 29 26  1  0  0  0  0
 30 31  1  0  0  0  0
 31 36  1  0  0  0  0
 32 31  1  0  0  0  0
 32 33  1  0  0  0  0
 33 34  1  0  0  0  0
 34 35  1  0  0  0  0
 34 29  1  0  0  0  0
 36 35  1  0  0  0  0
M  END
>  <minimizedAffinity>
-5.13182926

$$$$

 OpenBabel03242520273D

 36 38  0  0  0  0  0  0  0  0999 V2000
   37.2770   30.6910   37.1070 C   0  0  0  0  0  0  0  0  0  0  0  0
   37.8500   30.5550   38.3960 C   0  0  0  0  0  0  0  0  0  0  0  0
   37.6550   29.3720   39.0940 C   0  0  0  0  0  0  0  0  0  0  0  0
   36.9140   28.3900   38.5010 N   0  0  0  0  0  0  0  0  0  0  0  0
   36.3730   28.5350   37.2700 C   0  0  0  0  0  0  0  0  0  0  0  0
   36.5500   29.6640   36.5860 N   0  0  0  0  0  0  0  0  0  0  0  0
   37.4000   31.5810   36.5340 H   0  0  0  0  0  0  0  0  0  0  0  0
   35.7920   27.7020   36.8640 H   0  0  0  0  0  0  0  0  0  0  0  0
   38.5890   31.6720   38.8600 N   0  0  0  0  0  0  0  0  0  0  0  0
   40.0030   31.8590   38.6010 C   0  0  0  0  0  0  0  0  0  0  0  0
   40.4440   33.1820   39.1320 C   0  0  0  0  0  0  0  0  0  0  0  0
   40.0610   33.4220   40.4990 N   0  0  0  0  0  0  0  0  0  0  0  0
   38.6930   33.1570   40.7990 C   0  0  0  0  0  0  0  0  0  0  0  0
   37.8820   32.6770   39.6390 C   0  0  0  0  0  0  0  0  0  0  0  0
   40.2000   31.8740   37.5060 H   0  0  0  0  0  0  0  0  0  0  0  0
   40.5420   31.0300   39.1020 H   0  0  0  0  0  0  0  0  0  0  0  0
   40.0100   33.9720   38.4760 H   0  0  0  0  0  0  0  0  0  0  0  0
   41.5620   33.2300   39.1060 H   0  0  0  0  0  0  0  0  0  0  0  0
   40.3920   34.3560   40.7780 H   0  0  0  0  0  0  0  0  0  0  0  0
   38.6610   32.4280   41.6570 H   0  0  0  0  0  0  0  0  0  0  0  0
   38.2350   34.1000   41.1800 H   0  0  0  0  0  0  0  0  0  0  0  0
   36.9260   32.2580   40.0570 H   0  0  0  0  0  0  0  0  0  0  0  0
   37.6760   33.5360   38.9790 H   0  0  0  0  0  0  0  0  0  0  0  0
   38.2300   29.2770   40.3490 O   0  0  0  0  0  0  0  0  0  0  0  0
   37.9790   29.6440   42.9660 O   0  0  0  0  0  0  0  0  0  0  0  0
   37.1920   29.2420   41.7230 P   0  0  1  0  0  0  0  0  0  0  0  0
   35.9170   30.2900   41.4330 O   0  0  0  0  0  0  0  0  0  0  0  0
   35.1450   29.7230   41.1420 H   0  0  0  0  0  0  0  0  0  0  0  0
   36.6530   27.6450   41.9110 O   0  0  0  0  0  0  0  0  0  0  0  0
   39.3670   23.5560   41.4650 H   0  0  0  0  0  0  0  0  0  0  0  0
   38.8080   24.0930   42.1540 N   0  0  0  0  0  0  0  0  0  0  0  0
   37.4150   24.2000   41.8830 C   0  0  0  0  0  2  0  0  0  0  0  0
   37.0000   25.4570   41.1530 C   0  0  0  0  0  2  0  0  0  0  0  0
   37.6330   26.7060   41.7300 C   0  0  0  0  0  3  0  0  0  0  0  0
   38.3080   26.2880   43.0190 C   0  0  0  0  0  2  0  0  0  0  0  0
   39.4240   25.3220   42.5980 C   0  0  0  0  0  2  0  0  0  0  0  0
  1  2  1  0  0  0  0
  2  9  1  0  0  0  0
  2  3  2  0  0  0  0
  3 24  1  0  0  0  0
  4  3  1  0  0  0  0
  5  4  2  0  0  0  0
  6  1  2  0  0  0  0
  6  5  1  0  0  0  0
  7  1  1  0  0  0  0
  8  5  1  0  0  0  0
  9 14  1  0  0  0  0
 10  9  1  0  0  0  0
 10 16  1  0  0  0  0
 10 11  1  0  0  0  0
 11 12  1  0  0  0  0
 12 19  1  0  0  0  0
 12 13  1  0  0  0  0
 13 21  1  0  0  0  0
 13 20  1  0  0  0  0
 14 22  1  0  0  0  0
 14 13  1  0  0  0  0
 15 10  1  0  0  0  0
 17 11  1  0  0  0  0
 18 11  1  0  0  0  0
 23 14  1  0  0  0  0
 24 26  1  0  0  0  0
 26 29  1  0  0  0  0
 26 25  2  1  0  0  0
 27 26  1  0  0  0  0
 28 27  1  0  0  0  0
 30 31  1  0  0  0  0
 31 36  1  0  0  0  0
 32 31  1  0  0  0  0
 33 34  1  0  0  0  0
 33 32  1  0  0  0  0
 34 29  1  0  0  0  0
 34 35  1  0  0  0  0
 36 35  1  0  0  0  0
M  END
>  <minimizedAffinity>
-5.12838697

$$$$

 OpenBabel03242520273D

 36 38  0  0  0  0  0  0  0  0999 V2000
   37.0210   27.9810   39.0850 C   0  0  0  0  0  0  0  0  0  0  0  0
   37.2440   29.0180   40.0230 C   0  0  0  0  0  0  0  0  0  0  0  0
   36.9470   30.3240   39.6610 C   0  0  0  0  0  0  0  0  0  0  0  0
   36.4520   30.5470   38.4070 N   0  0  0  0  0  0  0  0  0  0  0  0
   36.2440   29.5450   37.5220 C   0  0  0  0  0  0  0  0  0  0  0  0
   36.5240   28.2860   37.8550 N   0  0  0  0  0  0  0  0  0  0  0  0
   37.2340   26.9630   39.3200 H   0  0  0  0  0  0  0  0  0  0  0  0
   35.8440   29.8050   36.5390 H   0  0  0  0  0  0  0  0  0  0  0  0
   37.7630   28.6110   41.2770 N   0  0  0  0  0  0  0  0  0  0  0  0
   39.1760   28.6240   41.6010 C   0  0  0  0  0  0  0  0  0  0  0  0
   39.3710   28.2430   43.0300 C   0  0  0  0  0  0  0  0  0  0  0  0
   38.6930   27.0320   43.4120 N   0  0  0  0  0  0  0  0  0  0  0  0
   37.3230   26.9580   43.0240 C   0  0  0  0  0  0  0  0  0  0  0  0
   36.8190   28.1580   42.2880 C   0  0  0  0  0  0  0  0  0  0  0  0
   39.5940   29.6480   41.4840 H   0  0  0  0  0  0  0  0  0  0  0  0
   39.6750   27.9000   40.9240 H   0  0  0  0  0  0  0  0  0  0  0  0
   39.0120   29.0900   43.6590 H   0  0  0  0  0  0  0  0  0  0  0  0
   40.4610   28.0620   43.2130 H   0  0  0  0  0  0  0  0  0  0  0  0
   38.8700   26.8520   44.4100 H   0  0  0  0  0  0  0  0  0  0  0  0
   37.1820   26.0140   42.4260 H   0  0  0  0  0  0  0  0  0  0  0  0
   36.7100   26.8320   43.9470 H   0  0  0  0  0  0  0  0  0  0  0  0
   35.8410   27.8650   41.8170 H   0  0  0  0  0  0  0  0  0  0  0  0
   36.6750   28.9760   43.0120 H   0  0  0  0  0  0  0  0  0  0  0  0
   37.1790   31.3100   40.6030 O   0  0  0  0  0  0  0  0  0  0  0  0
   37.5600   33.5490   39.2290 O   0  0  0  0  0  0  0  0  0  0  0  0
   38.2520   32.5940   40.1960 P   0  0  1  0  0  0  0  0  0  0  0  0
   38.6950   33.3650   41.6160 O   0  0  0  0  0  0  0  0  0  0  0  0
   39.6000   33.0130   41.8590 H   0  0  0  0  0  0  0  0  0  0  0  0
   39.5930   31.9060   39.4170 O   0  0  0  0  0  0  0  0  0  0  0  0
   42.4580   34.0780   36.0480 H   0  0  0  0  0  0  0  0  0  0  0  0
   42.5010   33.5840   36.9590 N   0  0  0  0  0  0  0  0  0  0  0  0
   42.0960   32.2190   36.9510 C   0  0  0  0  0  2  0  0  0  0  0  0
   40.6530   31.9780   37.3310 C   0  0  0  0  0  2  0  0  0  0  0  0
   40.2330   32.7590   38.5590 C   0  0  0  0  0  3  0  0  0  0  0  0
   41.4950   33.3590   39.1390 C   0  0  0  0  0  2  0  0  0  0  0  0
   42.0000   34.3470   38.0790 C   0  0  0  0  0  2  0  0  0  0  0  0
  1  7  1  0  0  0  0
  1  2  1  0  0  0  0
  2  9  1  0  0  0  0
  3  2  2  0  0  0  0
  3 24  1  0  0  0  0
  4  3  1  0  0  0  0
  5  6  1  0  0  0  0
  5  4  2  0  0  0  0
  6  1  2  0  0  0  0
  8  5  1  0  0  0  0
  9 10  1  0  0  0  0
  9 14  1  0  0  0  0
 10 11  1  0  0  0  0
 11 18  1  0  0  0  0
 11 12  1  0  0  0  0
 11 17  1  0  0  0  0
 12 19  1  0  0  0  0
 13 12  1  0  0  0  0
 13 21  1  0  0  0  0
 14 23  1  0  0  0  0
 14 13  1  0  0  0  0
 15 10  1  0  0  0  0
 16 10  1  0  0  0  0
 20 13  1  0  0  0  0
 22 14  1  0  0  0  0
 26 25  2  6  0  0  0
 26 24  1  0  0  0  0
 26 27  1  0  0  0  0
 27 28  1  0  0  0  0
 29 26  1  0  0  0  0
 30 31  1  0  0  0  0
 31 36  1  0  0  0  0
 32 31  1  0  0  0  0
 32 33  1  0  0  0  0
 33 34  1  0  0  0  0
 34 35  1  0  0  0  0
 34 29  1  0  0  0  0
 36 35  1  0  0  0  0
M  END
>  <minimizedAffinity>
-5.11361217

$$$$

 OpenBabel03242520273D

 36 38  0  0  0  0  0  0  0  0999 V2000
   39.9330   29.9950   37.7520 C   0  0  0  0  0  0  0  0  0  0  0  0
   38.6150   30.3540   38.1270 C   0  0  0  0  0  0  0  0  0  0  0  0
   37.5660   29.5180   37.7740 C   0  0  0  0  0  0  0  0  0  0  0  0
   37.8580   28.3810   37.0750 N   0  0  0  0  0  0  0  0  0  0  0  0
   39.1220   28.0510   36.7240 C   0  0  0  0  0  0  0  0  0  0  0  0
   40.1400   28.8430   37.0560 N   0  0  0  0  0  0  0  0  0  0  0  0
   40.7690   30.6070   38.0020 H   0  0  0  0  0  0  0  0  0  0  0  0
   39.2730   27.1240   36.1660 H   0  0  0  0  0  0  0  0  0  0  0  0
   38.4910   31.5680   38.8480 N   0  0  0  0  0  0  0  0  0  0  0  0
   37.3290   32.4320   38.7680 C   0  0  0  0  0  0  0  0  0  0  0  0
   37.4720   33.5630   39.7300 C   0  0  0  0  0  0  0  0  0  0  0  0
   38.7280   34.2590   39.6340 N   0  0  0  0  0  0  0  0  0  0  0  0
   39.8830   33.4240   39.6200 C   0  0  0  0  0  0  0  0  0  0  0  0
   39.5940   31.9600   39.7120 C   0  0  0  0  0  0  0  0  0  0  0  0
   36.4100   31.8780   39.0620 H   0  0  0  0  0  0  0  0  0  0  0  0
   37.2660   32.8020   37.7240 H   0  0  0  0  0  0  0  0  0  0  0  0
   37.3480   33.1510   40.7580 H   0  0  0  0  0  0  0  0  0  0  0  0
   36.6760   34.3220   39.5200 H   0  0  0  0  0  0  0  0  0  0  0  0
   38.7470   35.0100   40.3370 H   0  0  0  0  0  0  0  0  0  0  0  0
   40.4790   33.6710   38.6960 H   0  0  0  0  0  0  0  0  0  0  0  0
   40.5250   33.7090   40.4860 H   0  0  0  0  0  0  0  0  0  0  0  0
   40.5380   31.4210   39.4240 H   0  0  0  0  0  0  0  0  0  0  0  0
   39.3120   31.7260   40.7520 H   0  0  0  0  0  0  0  0  0  0  0  0
   36.2940   29.9020   38.1570 O   0  0  0  0  0  0  0  0  0  0  0  0
   33.8720   28.9420   38.6690 O   0  0  0  0  0  0  0  0  0  0  0  0
   35.3390   28.7870   39.0580 P   0  0  1  0  0  0  0  0  0  0  0  0
   35.9050   27.2440   38.7340 O   0  0  0  0  0  0  0  0  0  0  0  0
   36.4900   26.9890   39.5050 H   0  0  0  0  0  0  0  0  0  0  0  0
   35.5130   29.1820   40.6990 O   0  0  0  0  0  0  0  0  0  0  0  0
   39.2870   27.7180   43.5070 H   0  0  0  0  0  0  0  0  0  0  0  0
   38.5670   28.4610   43.4310 N   0  0  0  0  0  0  0  0  0  0  0  0
   37.2150   28.0380   43.5690 C   0  0  0  0  0  2  0  0  0  0  0  0
   36.4980   27.7530   42.2700 C   0  0  0  0  0  2  0  0  0  0  0  0
   36.7250   28.8280   41.2270 C   0  0  0  0  0  3  0  0  0  0  0  0
   37.4290   29.9670   41.9320 C   0  0  0  0  0  2  0  0  0  0  0  0
   38.7900   29.4030   42.3590 C   0  0  0  0  0  2  0  0  0  0  0  0
  1  7  1  0  0  0  0
  1  2  1  0  0  0  0
  2  9  1  0  0  0  0
  3  2  2  0  0  0  0
  3 24  1  0  0  0  0
  4  3  1  0  0  0  0
  5  6  1  0  0  0  0
  5  4  2  0  0  0  0
  6  1  2  0  0  0  0
  8  5  1  0  0  0  0
  9 14  1  0  0  0  0
 10  9  1  0  0  0  0
 10 15  1  0  0  0  0
 10 11  1  0  0  0  0
 11 17  1  0  0  0  0
 12 11  1  0  0  0  0
 12 19  1  0  0  0  0
 13 12  1  0  0  0  0
 13 14  1  0  0  0  0
 13 21  1  0  0  0  0
 14 23  1  0  0  0  0
 16 10  1  0  0  0  0
 18 11  1  0  0  0  0
 20 13  1  0  0  0  0
 22 14  1  0  0  0  0
 24 26  1  0  0  0  0
 26 25  2  6  0  0  0
 26 29  1  0  0  0  0
 27 26  1  0  0  0  0
 27 28  1  0  0  0  0
 29 34  1  0  0  0  0
 31 30  1  0  0  0  0
 31 32  1  0  0  0  0
 33 32  1  0  0  0  0
 34 35  1  0  0  0  0
 34 33  1  0  0  0  0
 35 36  1  0  0  0  0
 36 31  1  0  0  0  0
M  END
>  <minimizedAffinity>
-4.99945211

$$$$

 OpenBabel03242520273D

 36 38  0  0  0  0  0  0  0  0999 V2000
   40.8480   25.1130   42.9090 C   0  0  0  0  0  0  0  0  0  0  0  0
   39.7630   25.7010   42.2140 C   0  0  0  0  0  0  0  0  0  0  0  0
   39.5910   27.0750   42.2810 C   0  0  0  0  0  0  0  0  0  0  0  0
   40.4820   27.8000   43.0200 N   0  0  0  0  0  0  0  0  0  0  0  0
   41.5140   27.2240   43.6780 C   0  0  0  0  0  0  0  0  0  0  0  0
   41.6930   25.9060   43.6250 N   0  0  0  0  0  0  0  0  0  0  0  0
   41.0200   24.0610   42.8870 H   0  0  0  0  0  0  0  0  0  0  0  0
   42.1840   27.8740   44.2480 H   0  0  0  0  0  0  0  0  0  0  0  0
   38.9340   24.8020   41.4970 N   0  0  0  0  0  0  0  0  0  0  0  0
   39.1880   24.4000   40.1270 C   0  0  0  0  0  0  0  0  0  0  0  0
   38.1960   23.3670   39.7110 C   0  0  0  0  0  0  0  0  0  0  0  0
   36.8270   23.7300   39.9720 N   0  0  0  0  0  0  0  0  0  0  0  0
   36.5700   24.2160   41.2870 C   0  0  0  0  0  0  0  0  0  0  0  0
   37.7690   24.2610   42.1790 C   0  0  0  0  0  0  0  0  0  0  0  0
   40.1930   23.9300   40.0390 H   0  0  0  0  0  0  0  0  0  0  0  0
   39.1060   25.3080   39.4970 H   0  0  0  0  0  0  0  0  0  0  0  0
   38.4420   22.4220   40.2490 H   0  0  0  0  0  0  0  0  0  0  0  0
   38.2730   23.2120   38.6050 H   0  0  0  0  0  0  0  0  0  0  0  0
   36.2150   22.9610   39.6680 H   0  0  0  0  0  0  0  0  0  0  0  0
   36.0840   25.2270   41.1950 H   0  0  0  0  0  0  0  0  0  0  0  0
   35.8100   23.5490   41.7580 H   0  0  0  0  0  0  0  0  0  0  0  0
   37.4940   24.8970   43.0650 H   0  0  0  0  0  0  0  0  0  0  0  0
   38.0060   23.2320   42.4950 H   0  0  0  0  0  0  0  0  0  0  0  0
   38.5200   27.6130   41.5890 O   0  0  0  0  0  0  0  0  0  0  0  0
   36.4350   27.3650   43.2140 O   0  0  0  0  0  0  0  0  0  0  0  0
   37.2810   28.4050   42.4870 P   0  0  1  0  0  0  0  0  0  0  0  0
   38.0170   29.4630   43.5580 O   0  0  0  0  0  0  0  0  0  0  0  0
   37.9580   30.3720   43.1430 H   0  0  0  0  0  0  0  0  0  0  0  0
   36.2980   29.2280   41.3760 O   0  0  0  0  0  0  0  0  0  0  0  0
   38.2810   32.1630   37.9500 H   0  0  0  0  0  0  0  0  0  0  0  0
   37.3700   31.7850   38.2730 N   0  0  0  0  0  0  0  0  0  0  0  0
   36.9490   32.1880   39.5710 C   0  0  0  0  0  2  0  0  0  0  0  0
   37.2990   31.2280   40.6840 C   0  0  0  0  0  2  0  0  0  0  0  0
   36.9890   29.7870   40.3350 C   0  0  0  0  0  3  0  0  0  0  0  0
   36.2030   29.8200   39.0420 C   0  0  0  0  0  2  0  0  0  0  0  0
   37.1710   30.3810   37.9920 C   0  0  0  0  0  2  0  0  0  0  0  0
  1  6  1  0  0  0  0
  2  3  1  0  0  0  0
  2  1  2  0  0  0  0
  3  4  2  0  0  0  0
  4  5  1  0  0  0  0
  5  8  1  0  0  0  0
  6  5  2  0  0  0  0
  7  1  1  0  0  0  0
  9 14  1  0  0  0  0
  9  2  1  0  0  0  0
 10  9  1  0  0  0  0
 11 12  1  0  0  0  0
 11 10  1  0  0  0  0
 11 17  1  0  0  0  0
 12 13  1  0  0  0  0
 13 21  1  0  0  0  0
 13 14  1  0  0  0  0
 14 23  1  0  0  0  0
 14 22  1  0  0  0  0
 15 10  1  0  0  0  0
 16 10  1  0  0  0  0
 18 11  1  0  0  0  0
 19 12  1  0  0  0  0
 20 13  1  0  0  0  0
 24  3  1  0  0  0  0
 24 26  1  0  0  0  0
 26 25  2  1  0  0  0
 26 27  1  0  0  0  0
 28 27  1  0  0  0  0
 29 26  1  0  0  0  0
 30 31  1  0  0  0  0
 31 32  1  0  0  0  0
 32 33  1  0  0  0  0
 34 33  1  0  0  0  0
 34 29  1  0  0  0  0
 35 34  1  0  0  0  0
 36 31  1  0  0  0  0
 36 35  1  0  0  0  0
M  END
>  <minimizedAffinity>
-4.9605937

$$$$

 OpenBabel03242520273D

 36 38  0  0  0  0  0  0  0  0999 V2000
   36.6500   24.8490   39.9430 C   0  0  0  0  0  0  0  0  0  0  0  0
   37.0900   26.1800   39.7370 C   0  0  0  0  0  0  0  0  0  0  0  0
   37.4720   26.9370   40.8350 C   0  0  0  0  0  0  0  0  0  0  0  0
   37.4040   26.3580   42.0700 N   0  0  0  0  0  0  0  0  0  0  0  0
   36.9820   25.0860   42.2510 C   0  0  0  0  0  0  0  0  0  0  0  0
   36.6120   24.3450   41.2080 N   0  0  0  0  0  0  0  0  0  0  0  0
   36.3470   24.2310   39.1300 H   0  0  0  0  0  0  0  0  0  0  0  0
   36.9560   24.6950   43.2720 H   0  0  0  0  0  0  0  0  0  0  0  0
   37.0980   26.6220   38.3910 N   0  0  0  0  0  0  0  0  0  0  0  0
   38.2540   26.5190   37.5210 C   0  0  0  0  0  0  0  0  0  0  0  0
   37.8950   26.9710   36.1460 C   0  0  0  0  0  0  0  0  0  0  0  0
   37.2410   28.2530   36.1020 N   0  0  0  0  0  0  0  0  0  0  0  0
   36.1570   28.4100   37.0140 C   0  0  0  0  0  0  0  0  0  0  0  0
   35.8770   27.2110   37.8620 C   0  0  0  0  0  0  0  0  0  0  0  0
   38.5810   25.4590   37.4330 H   0  0  0  0  0  0  0  0  0  0  0  0
   39.0500   27.1570   37.9550 H   0  0  0  0  0  0  0  0  0  0  0  0
   37.2320   26.1960   35.6960 H   0  0  0  0  0  0  0  0  0  0  0  0
   38.8310   27.0760   35.5410 H   0  0  0  0  0  0  0  0  0  0  0  0
   37.0190   28.4800   35.1240 H   0  0  0  0  0  0  0  0  0  0  0  0
   36.3600   29.3230   37.6420 H   0  0  0  0  0  0  0  0  0  0  0  0
   35.2400   28.6410   36.4230 H   0  0  0  0  0  0  0  0  0  0  0  0
   35.2040   27.5490   38.6970 H   0  0  0  0  0  0  0  0  0  0  0  0
   35.3760   26.4530   37.2380 H   0  0  0  0  0  0  0  0  0  0  0  0
   37.8950   28.2310   40.5940 O   0  0  0  0  0  0  0  0  0  0  0  0
   35.5270   29.4310   40.6280 O   0  0  0  0  0  0  0  0  0  0  0  0
   36.9380   29.5300   41.1980 P   0  0  1  0  0  0  0  0  0  0  0  0
   36.9380   29.4360   42.8700 O   0  0  0  0  0  0  0  0  0  0  0  0
   37.6090   30.1060   43.1920 H   0  0  0  0  0  0  0  0  0  0  0  0
   37.6450   30.9750   40.6560 O   0  0  0  0  0  0  0  0  0  0  0  0
   39.7590   31.5970   36.2500 H   0  0  0  0  0  0  0  0  0  0  0  0
   39.2330   32.1100   36.9820 N   0  0  0  0  0  0  0  0  0  0  0  0
   39.8820   32.2430   38.2420 C   0  0  0  0  0  2  0  0  0  0  0  0
   39.5140   31.1920   39.2640 C   0  0  0  0  0  2  0  0  0  0  0  0
   38.0220   30.9460   39.3400 C   0  0  0  0  0  3  0  0  0  0  0  0
   37.3660   32.0250   38.5050 C   0  0  0  0  0  2  0  0  0  0  0  0
   37.8330   31.7640   37.0670 C   0  0  0  0  0  2  0  0  0  0  0  0
  1  6  1  0  0  0  0
  2  1  2  0  0  0  0
  2  3  1  0  0  0  0
  3  4  2  0  0  0  0
  4  5  1  0  0  0  0
  5  8  1  0  0  0  0
  6  5  2  0  0  0  0
  7  1  1  0  0  0  0
  9  2  1  0  0  0  0
 10 16  1  0  0  0  0
 10  9  1  0  0  0  0
 11 10  1  0  0  0  0
 12 11  1  0  0  0  0
 12 13  1  0  0  0  0
 13 20  1  0  0  0  0
 13 14  1  0  0  0  0
 14  9  1  0  0  0  0
 14 22  1  0  0  0  0
 15 10  1  0  0  0  0
 17 11  1  0  0  0  0
 18 11  1  0  0  0  0
 19 12  1  0  0  0  0
 21 13  1  0  0  0  0
 23 14  1  0  0  0  0
 24  3  1  0  0  0  0
 24 26  1  0  0  0  0
 26 25  2  6  0  0  0
 26 27  1  0  0  0  0
 27 28  1  0  0  0  0
 29 26  1  0  0  0  0
 30 31  1  0  0  0  0
 31 36  1  0  0  0  0
 31 32  1  0  0  0  0
 32 33  1  0  0  0  0
 33 34  1  0  0  0  0
 34 29  1  0  0  0  0
 35 34  1  0  0  0  0
 36 35  1  0  0  0  0
M  END
>  <minimizedAffinity>
-4.89148617

$$$$

 OpenBabel03242520273D

 36 38  0  0  0  0  0  0  0  0999 V2000
   38.8000   25.1130   40.8000 C   0  0  0  0  0  0  0  0  0  0  0  0
   38.4590   26.4670   40.5600 C   0  0  0  0  0  0  0  0  0  0  0  0
   38.4420   26.9320   39.2530 C   0  0  0  0  0  0  0  0  0  0  0  0
   38.7600   26.0550   38.2540 N   0  0  0  0  0  0  0  0  0  0  0  0
   39.0840   24.7650   38.5000 C   0  0  0  0  0  0  0  0  0  0  0  0
   39.1040   24.3030   39.7490 N   0  0  0  0  0  0  0  0  0  0  0  0
   38.8250   24.7130   41.7880 H   0  0  0  0  0  0  0  0  0  0  0  0
   39.3260   24.1260   37.6460 H   0  0  0  0  0  0  0  0  0  0  0  0
   38.1570   27.2380   41.7100 N   0  0  0  0  0  0  0  0  0  0  0  0
   36.9340   27.0890   42.4750 C   0  0  0  0  0  0  0  0  0  0  0  0
   36.9810   27.9680   43.6800 C   0  0  0  0  0  0  0  0  0  0  0  0
   37.3310   29.3350   43.3950 N   0  0  0  0  0  0  0  0  0  0  0  0
   38.4800   29.5050   42.5680 C   0  0  0  0  0  0  0  0  0  0  0  0
   39.1320   28.2300   42.1380 C   0  0  0  0  0  0  0  0  0  0  0  0
   36.8310   26.0450   42.8460 H   0  0  0  0  0  0  0  0  0  0  0  0
   36.0930   27.3700   41.8090 H   0  0  0  0  0  0  0  0  0  0  0  0
   37.7200   27.5310   44.3900 H   0  0  0  0  0  0  0  0  0  0  0  0
   35.9650   27.9960   44.1490 H   0  0  0  0  0  0  0  0  0  0  0  0
   37.3530   29.8640   44.2770 H   0  0  0  0  0  0  0  0  0  0  0  0
   38.1810   30.1360   41.6840 H   0  0  0  0  0  0  0  0  0  0  0  0
   39.2280   30.1050   43.1360 H   0  0  0  0  0  0  0  0  0  0  0  0
   39.8330   28.4870   41.2970 H   0  0  0  0  0  0  0  0  0  0  0  0
   39.6860   27.8160   42.9960 H   0  0  0  0  0  0  0  0  0  0  0  0
   38.1040   28.2590   39.0580 O   0  0  0  0  0  0  0  0  0  0  0  0
   40.5470   29.2100   38.6380 O   0  0  0  0  0  0  0  0  0  0  0  0
   39.1310   29.2280   38.0710 P   0  0  1  0  0  0  0  0  0  0  0  0
   39.0810   28.6110   36.5140 O   0  0  0  0  0  0  0  0  0  0  0  0
   38.4480   29.1920   35.9990 H   0  0  0  0  0  0  0  0  0  0  0  0
   38.5390   30.8160   38.1300 O   0  0  0  0  0  0  0  0  0  0  0  0
   38.5650   33.7850   42.0620 H   0  0  0  0  0  0  0  0  0  0  0  0
   38.7940   33.7690   41.0510 N   0  0  0  0  0  0  0  0  0  0  0  0
   37.6990   33.5740   40.1630 C   0  0  0  0  0  2  0  0  0  0  0  0
   37.4690   32.1430   39.7350 C   0  0  0  0  0  2  0  0  0  0  0  0
   38.7490   31.4400   39.3310 C   0  0  0  0  0  3  0  0  0  0  0  0
   39.8230   32.5050   39.2740 C   0  0  0  0  0  2  0  0  0  0  0  0
   39.9740   33.0060   40.7160 C   0  0  0  0  0  2  0  0  0  0  0  0
  1  7  1  0  0  0  0
  2  1  1  0  0  0  0
  2  9  1  0  0  0  0
  3  2  2  0  0  0  0
  4  5  2  0  0  0  0
  4  3  1  0  0  0  0
  5  6  1  0  0  0  0
  6  1  2  0  0  0  0
  8  5  1  0  0  0  0
  9 14  1  0  0  0  0
  9 10  1  0  0  0  0
 10 15  1  0  0  0  0
 10 11  1  0  0  0  0
 11 18  1  0  0  0  0
 11 17  1  0  0  0  0
 12 11  1  0  0  0  0
 12 19  1  0  0  0  0
 13 21  1  0  0  0  0
 13 12  1  0  0  0  0
 14 13  1  0  0  0  0
 14 23  1  0  0  0  0
 16 10  1  0  0  0  0
 20 13  1  0  0  0  0
 22 14  1  0  0  0  0
 24  3  1  0  0  0  0
 26 29  1  0  0  0  0
 26 25  2  1  0  0  0
 26 24  1  0  0  0  0
 27 26  1  0  0  0  0
 28 27  1  0  0  0  0
 29 34  1  0  0  0  0
 31 30  1  0  0  0  0
 32 31  1  0  0  0  0
 33 32  1  0  0  0  0
 34 33  1  0  0  0  0
 35 34  1  0  0  0  0
 35 36  1  0  0  0  0
 36 31  1  0  0  0  0
M  END
>  <minimizedAffinity>
-4.8861804

$$$$

 OpenBabel03242520273D

 36 38  0  0  0  0  0  0  0  0999 V2000
   41.1470   30.6340   38.7920 C   0  0  0  0  0  0  0  0  0  0  0  0
   40.2290   30.8130   39.8550 C   0  0  0  0  0  0  0  0  0  0  0  0
   40.1960   29.8750   40.8760 C   0  0  0  0  0  0  0  0  0  0  0  0
   41.0570   28.8160   40.8050 N   0  0  0  0  0  0  0  0  0  0  0  0
   41.9280   28.6600   39.7830 C   0  0  0  0  0  0  0  0  0  0  0  0
   41.9730   29.5510   38.7950 N   0  0  0  0  0  0  0  0  0  0  0  0
   41.2080   31.3290   37.9860 H   0  0  0  0  0  0  0  0  0  0  0  0
   42.5850   27.7860   39.7990 H   0  0  0  0  0  0  0  0  0  0  0  0
   39.4090   31.9660   39.7710 N   0  0  0  0  0  0  0  0  0  0  0  0
   39.4500   33.0480   40.7350 C   0  0  0  0  0  0  0  0  0  0  0  0
   38.5450   34.1510   40.2960 C   0  0  0  0  0  0  0  0  0  0  0  0
   37.2150   33.7180   39.9560 N   0  0  0  0  0  0  0  0  0  0  0  0
   37.1490   32.5950   39.0800 C   0  0  0  0  0  0  0  0  0  0  0  0
   38.4780   32.0580   38.6560 C   0  0  0  0  0  0  0  0  0  0  0  0
   40.4730   33.4800   40.7930 H   0  0  0  0  0  0  0  0  0  0  0  0
   39.1260   32.6330   41.7110 H   0  0  0  0  0  0  0  0  0  0  0  0
   39.0160   34.6450   39.4140 H   0  0  0  0  0  0  0  0  0  0  0  0
   38.4320   34.8840   41.1340 H   0  0  0  0  0  0  0  0  0  0  0  0
   36.6660   34.5340   39.6540 H   0  0  0  0  0  0  0  0  0  0  0  0
   36.5210   31.8030   39.5770 H   0  0  0  0  0  0  0  0  0  0  0  0
   36.5900   32.9040   38.1660 H   0  0  0  0  0  0  0  0  0  0  0  0
   38.2940   31.0440   38.2070 H   0  0  0  0  0  0  0  0  0  0  0  0
   38.9090   32.7440   37.9090 H   0  0  0  0  0  0  0  0  0  0  0  0
   39.2850   30.0830   41.8970 O   0  0  0  0  0  0  0  0  0  0  0  0
   39.1780   27.9580   43.4860 O   0  0  0  0  0  0  0  0  0  0  0  0
   38.3650   28.7390   42.4580 P   0  0  1  0  0  0  0  0  0  0  0  0
   36.9410   29.3280   43.1150 O   0  0  0  0  0  0  0  0  0  0  0  0
   36.2350   29.2060   42.4160 H   0  0  0  0  0  0  0  0  0  0  0  0
   38.0660   27.7360   41.1230 O   0  0  0  0  0  0  0  0  0  0  0  0
   33.9460   27.6200   38.4230 H   0  0  0  0  0  0  0  0  0  0  0  0
   34.9240   27.9660   38.4040 N   0  0  0  0  0  0  0  0  0  0  0  0
   35.9400   26.9690   38.4140 C   0  0  0  0  0  2  0  0  0  0  0  0
   36.4960   26.6360   39.7790 C   0  0  0  0  0  2  0  0  0  0  0  0
   36.8070   27.8690   40.6030 C   0  0  0  0  0  3  0  0  0  0  0  0
   36.6640   29.0530   39.6710 C   0  0  0  0  0  2  0  0  0  0  0  0
   35.1800   29.0860   39.2810 C   0  0  0  0  0  2  0  0  0  0  0  0
  1  6  2  0  0  0  0
  1  2  1  0  0  0  0
  2  3  2  0  0  0  0
  3 24  1  0  0  0  0
  4  3  1  0  0  0  0
  5  8  1  0  0  0  0
  5  4  2  0  0  0  0
  6  5  1  0  0  0  0
  7  1  1  0  0  0  0
  9  2  1  0  0  0  0
  9 10  1  0  0  0  0
 10 15  1  0  0  0  0
 10 16  1  0  0  0  0
 11 10  1  0  0  0  0
 11 18  1  0  0  0  0
 12 11  1  0  0  0  0
 13 20  1  0  0  0  0
 13 12  1  0  0  0  0
 14 13  1  0  0  0  0
 14  9  1  0  0  0  0
 17 11  1  0  0  0  0
 19 12  1  0  0  0  0
 21 13  1  0  0  0  0
 22 14  1  0  0  0  0
 23 14  1  0  0  0  0
 24 26  1  0  0  0  0
 26 27  1  0  0  0  0
 26 25  2  1  0  0  0
 28 27  1  0  0  0  0
 29 26  1  0  0  0  0
 31 32  1  0  0  0  0
 31 30  1  0  0  0  0
 31 36  1  0  0  0  0
 32 33  1  0  0  0  0
 33 34  1  0  0  0  0
 34 29  1  0  0  0  0
 35 34  1  0  0  0  0
 36 35  1  0  0  0  0
M  END
>  <minimizedAffinity>
-4.88568974

$$$$
