
 OpenBabel03242520313D

 39 41  0  0  0  0  0  0  0  0999 V2000
   36.3060   30.1530   37.9910 C   0  0  0  0  0  0  0  0  0  0  0  0
   36.7400   30.4270   39.3140 C   0  0  0  0  0  0  0  0  0  0  0  0
   36.0980   29.7640   40.3570 C   0  0  0  0  0  0  0  0  0  0  0  0
   35.1040   28.8980   40.0770 N   0  0  0  0  0  0  0  0  0  0  0  0
   34.7080   28.6550   38.8010 C   0  0  0  0  0  0  0  0  0  0  0  0
   35.3030   29.2750   37.7800 N   0  0  0  0  0  0  0  0  0  0  0  0
   36.7840   30.6540   37.1510 H   0  0  0  0  0  0  0  0  0  0  0  0
   33.9000   27.9350   38.7710 H   0  0  0  0  0  0  0  0  0  0  0  0
   37.7980   31.3630   39.4370 N   0  0  0  0  0  0  0  0  0  0  0  0
   37.6050   32.7260   39.9010 C   0  0  0  0  0  0  0  0  0  0  0  0
   38.9270   33.4100   40.0350 C   0  0  0  0  0  0  0  0  0  0  0  0
   39.7550   33.3020   38.8590 N   0  0  0  0  0  0  0  0  0  0  0  0
   39.8980   31.9750   38.3330 C   0  0  0  0  0  0  0  0  0  0  0  0
   39.1380   30.9270   39.0800 C   0  0  0  0  0  0  0  0  0  0  0  0
   36.8760   33.2780   39.3000 H   0  0  0  0  0  0  0  0  0  0  0  0
   37.1810   32.6480   40.9340 H   0  0  0  0  0  0  0  0  0  0  0  0
   38.8130   34.4820   40.2520 H   0  0  0  0  0  0  0  0  0  0  0  0
   39.4820   32.9270   40.8690 H   0  0  0  0  0  0  0  0  0  0  0  0
   40.6900   33.6840   39.1320 H   0  0  0  0  0  0  0  0  0  0  0  0
   40.9670   31.6940   38.3070 H   0  0  0  0  0  0  0  0  0  0  0  0
   39.5480   31.9760   37.2780 H   0  0  0  0  0  0  0  0  0  0  0  0
   39.6480   30.5900   40.0100 H   0  0  0  0  0  0  0  0  0  0  0  0
   39.0910   30.0250   38.4180 H   0  0  0  0  0  0  0  0  0  0  0  0
   36.5430   30.0520   41.6250 O   0  0  0  0  0  0  0  0  0  0  0  0
   37.3300   28.5550   43.6800 O   0  0  0  0  0  0  0  0  0  0  0  0
   37.7970   29.0630   42.3230 P   0  0  1  0  0  0  0  0  0  0  0  0
   38.0860   27.8150   41.2530 O   0  0  0  0  0  0  0  0  0  0  0  0
   38.1060   22.9970   42.5590 H   0  0  0  0  0  0  0  0  0  0  0  0
   38.0510   24.0180   42.4160 N   0  0  0  0  0  0  0  0  0  0  0  0
   39.3760   24.5440   42.3020 C   0  0  0  0  0  2  0  0  0  0  0  0
   39.3110   25.8610   41.5630 C   0  0  0  0  0  2  0  0  0  0  0  0
   37.9870   26.5520   41.8260 C   0  0  0  0  0  3  0  0  0  0  0  0
   36.9380   25.7340   41.0600 C   0  0  0  0  0  2  0  0  0  0  0  0
   37.2050   24.2640   41.2760 C   0  0  0  0  0  2  0  0  0  0  0  0
   39.1240   30.0730   42.5360 O   0  0  0  0  0  0  0  0  0  0  0  0
   40.3190   29.3960   42.5560 C   0  0  0  0  0  0  0  0  0  0  0  0
   40.7540   28.9860   41.3010 F   0  0  0  0  0  0  0  0  0  0  0  0
   40.3630   28.3190   43.4020 F   0  0  0  0  0  0  0  0  0  0  0  0
   41.2600   30.3190   43.0390 F   0  0  0  0  0  0  0  0  0  0  0  0
  1  2  1  0  0  0  0
  2  9  1  0  0  0  0
  2  3  2  0  0  0  0
  3 24  1  0  0  0  0
  4  3  1  0  0  0  0
  5  4  2  0  0  0  0
  6  1  2  0  0  0  0
  6  5  1  0  0  0  0
  7  1  1  0  0  0  0
  8  5  1  0  0  0  0
  9 10  1  0  0  0  0
 10 11  1  0  0  0  0
 10 16  1  0  0  0  0
 11 17  1  0  0  0  0
 11 18  1  0  0  0  0
 12 19  1  0  0  0  0
 12 11  1  0  0  0  0
 13 12  1  0  0  0  0
 13 14  1  0  0  0  0
 14  9  1  0  0  0  0
 14 22  1  0  0  0  0
 15 10  1  0  0  0  0
 20 13  1  0  0  0  0
 21 13  1  0  0  0  0
 23 14  1  0  0  0  0
 24 26  1  0  0  0  0
 26 35  1  0  0  0  0
 26 25  2  1  0  0  0
 27 32  1  0  0  0  0
 27 26  1  0  0  0  0
 29 28  1  0  0  0  0
 30 29  1  0  0  0  0
 31 32  1  0  0  0  0
 31 30  1  0  0  0  0
 33 34  1  0  0  0  0
 33 32  1  0  0  0  0
 34 29  1  0  0  0  0
 35 36  1  0  0  0  0
 36 39  1  0  0  0  0
 36 38  1  0  0  0  0
 37 36  1  0  0  0  0
M  END
>  <minimizedAffinity>
-5.40768766

$$$$

 OpenBabel03242520313D

 39 41  0  0  0  0  0  0  0  0999 V2000
   41.0800   31.3490   37.5670 C   0  0  0  0  0  0  0  0  0  0  0  0
   40.3360   31.1270   38.7550 C   0  0  0  0  0  0  0  0  0  0  0  0
   40.5760   29.9510   39.4610 C   0  0  0  0  0  0  0  0  0  0  0  0
   41.4930   29.0780   38.9980 N   0  0  0  0  0  0  0  0  0  0  0  0
   42.1900   29.3150   37.8580 C   0  0  0  0  0  0  0  0  0  0  0  0
   41.9830   30.4330   37.1590 N   0  0  0  0  0  0  0  0  0  0  0  0
   40.9170   32.2570   36.9900 H   0  0  0  0  0  0  0  0  0  0  0  0
   42.8790   28.5080   37.6430 H   0  0  0  0  0  0  0  0  0  0  0  0
   39.4100   32.1430   39.1050 N   0  0  0  0  0  0  0  0  0  0  0  0
   39.6970   33.1800   40.0800 C   0  0  0  0  0  0  0  0  0  0  0  0
   38.5710   34.1610   40.1270 C   0  0  0  0  0  0  0  0  0  0  0  0
   37.2760   33.5470   40.2880 N   0  0  0  0  0  0  0  0  0  0  0  0
   36.9970   32.4660   39.3880 C   0  0  0  0  0  0  0  0  0  0  0  0
   38.1130   32.1380   38.4480 C   0  0  0  0  0  0  0  0  0  0  0  0
   39.9770   32.7750   41.0580 H   0  0  0  0  0  0  0  0  0  0  0  0
   40.5880   33.7360   39.6930 H   0  0  0  0  0  0  0  0  0  0  0  0
   38.6900   34.8820   40.9490 H   0  0  0  0  0  0  0  0  0  0  0  0
   38.5520   34.7110   39.1610 H   0  0  0  0  0  0  0  0  0  0  0  0
   36.5770   34.3140   40.1560 H   0  0  0  0  0  0  0  0  0  0  0  0
   36.0870   32.6900   38.8000 H   0  0  0  0  0  0  0  0  0  0  0  0
   36.7680   31.5590   39.9870 H   0  0  0  0  0  0  0  0  0  0  0  0
   38.1690   32.8240   37.5730 H   0  0  0  0  0  0  0  0  0  0  0  0
   37.8950   31.1250   38.0230 H   0  0  0  0  0  0  0  0  0  0  0  0
   39.8390   29.7690   40.6060 O   0  0  0  0  0  0  0  0  0  0  0  0
   38.6680   27.7340   39.3510 O   0  0  0  0  0  0  0  0  0  0  0  0
   38.5510   28.5940   40.6010 P   0  0  1  0  0  0  0  0  0  0  0  0
   38.7080   27.6920   41.9980 O   0  0  0  0  0  0  0  0  0  0  0  0
   38.5440   22.7040   42.0310 H   0  0  0  0  0  0  0  0  0  0  0  0
   38.6180   23.7240   41.8910 N   0  0  0  0  0  0  0  0  0  0  0  0
   37.3120   24.3000   41.9640 C   0  0  0  0  0  2  0  0  0  0  0  0
   37.4470   25.7630   42.3170 C   0  0  0  0  0  2  0  0  0  0  0  0
   38.7510   26.3210   41.7770 C   0  0  0  0  0  3  0  0  0  0  0  0
   39.8540   25.7050   42.6490 C   0  0  0  0  0  2  0  0  0  0  0  0
   39.5590   24.2390   42.8550 C   0  0  0  0  0  2  0  0  0  0  0  0
   37.1190   29.4720   40.5390 O   0  0  0  0  0  0  0  0  0  0  0  0
   36.0540   28.7350   40.0800 C   0  0  0  0  0  0  0  0  0  0  0  0
   34.8730   28.9610   40.7770 F   0  0  0  0  0  0  0  0  0  0  0  0
   36.2670   27.3830   40.0150 F   0  0  0  0  0  0  0  0  0  0  0  0
   35.8450   29.1690   38.7610 F   0  0  0  0  0  0  0  0  0  0  0  0
  1  2  1  0  0  0  0
  2  9  1  0  0  0  0
  2  3  2  0  0  0  0
  3 24  1  0  0  0  0
  4  3  1  0  0  0  0
  5  4  2  0  0  0  0
  6  1  2  0  0  0  0
  6  5  1  0  0  0  0
  7  1  1  0  0  0  0
  8  5  1  0  0  0  0
  9 10  1  0  0  0  0
 10 11  1  0  0  0  0
 10 15  1  0  0  0  0
 11 12  1  0  0  0  0
 11 17  1  0  0  0  0
 13 21  1  0  0  0  0
 13 12  1  0  0  0  0
 14  9  1  0  0  0  0
 14 13  1  0  0  0  0
 16 10  1  0  0  0  0
 18 11  1  0  0  0  0
 19 12  1  0  0  0  0
 20 13  1  0  0  0  0
 22 14  1  0  0  0  0
 23 14  1  0  0  0  0
 26 25  2  6  0  0  0
 26 24  1  0  0  0  0
 26 27  1  0  0  0  0
 29 30  1  0  0  0  0
 29 28  1  0  0  0  0
 29 34  1  0  0  0  0
 30 31  1  0  0  0  0
 32 27  1  0  0  0  0
 32 31  1  0  0  0  0
 32 33  1  0  0  0  0
 33 34  1  0  0  0  0
 35 26  1  0  0  0  0
 36 35  1  0  0  0  0
 36 37  1  0  0  0  0
 38 36  1  0  0  0  0
 39 36  1  0  0  0  0
M  END
>  <minimizedAffinity>
-5.27201223

$$$$

 OpenBabel03242520313D

 39 41  0  0  0  0  0  0  0  0999 V2000
   40.8550   30.1020   38.7260 C   0  0  0  0  0  0  0  0  0  0  0  0
   39.8450   30.2380   39.7140 C   0  0  0  0  0  0  0  0  0  0  0  0
   39.5790   29.1370   40.5250 C   0  0  0  0  0  0  0  0  0  0  0  0
   40.2790   27.9990   40.3450 N   0  0  0  0  0  0  0  0  0  0  0  0
   41.2390   27.8970   39.3910 C   0  0  0  0  0  0  0  0  0  0  0  0
   41.5170   28.9340   38.5980 N   0  0  0  0  0  0  0  0  0  0  0  0
   41.0880   30.9410   38.0740 H   0  0  0  0  0  0  0  0  0  0  0  0
   41.6920   26.9130   39.3940 H   0  0  0  0  0  0  0  0  0  0  0  0
   39.2030   31.5010   39.7730 N   0  0  0  0  0  0  0  0  0  0  0  0
   39.3120   32.3960   40.9110 C   0  0  0  0  0  0  0  0  0  0  0  0
   38.6260   33.6890   40.6090 C   0  0  0  0  0  0  0  0  0  0  0  0
   37.2790   33.5270   40.1180 N   0  0  0  0  0  0  0  0  0  0  0  0
   37.1300   32.5870   39.0450 C   0  0  0  0  0  0  0  0  0  0  0  0
   38.3980   31.9090   38.6340 C   0  0  0  0  0  0  0  0  0  0  0  0
   38.9940   31.9310   41.8490 H   0  0  0  0  0  0  0  0  0  0  0  0
   40.4010   32.6330   41.0200 H   0  0  0  0  0  0  0  0  0  0  0  0
   38.5700   34.3400   41.4940 H   0  0  0  0  0  0  0  0  0  0  0  0
   39.2010   34.2080   39.8130 H   0  0  0  0  0  0  0  0  0  0  0  0
   36.9710   34.4780   39.8090 H   0  0  0  0  0  0  0  0  0  0  0  0
   36.6880   33.0880   38.1640 H   0  0  0  0  0  0  0  0  0  0  0  0
   36.4030   31.8070   39.3590 H   0  0  0  0  0  0  0  0  0  0  0  0
   39.0360   32.5340   37.9690 H   0  0  0  0  0  0  0  0  0  0  0  0
   38.1080   31.0180   38.0210 H   0  0  0  0  0  0  0  0  0  0  0  0
   38.5960   29.3040   41.4710 O   0  0  0  0  0  0  0  0  0  0  0  0
   36.1080   30.2080   41.1910 O   0  0  0  0  0  0  0  0  0  0  0  0
   36.9450   28.9450   41.0430 P   0  0  1  0  0  0  0  0  0  0  0  0
   36.9590   28.3850   39.4700 O   0  0  0  0  0  0  0  0  0  0  0  0
   32.8400   27.6120   36.7590 H   0  0  0  0  0  0  0  0  0  0  0  0
   33.6060   27.7820   37.4300 N   0  0  0  0  0  0  0  0  0  0  0  0
   34.4080   26.6020   37.5270 C   0  0  0  0  0  2  0  0  0  0  0  0
   35.7800   26.9900   38.0280 C   0  0  0  0  0  2  0  0  0  0  0  0
   35.6910   28.2080   38.9280 C   0  0  0  0  0  3  0  0  0  0  0  0
   35.3760   29.3850   37.9940 C   0  0  0  0  0  2  0  0  0  0  0  0
   34.3180   28.9610   37.0050 C   0  0  0  0  0  2  0  0  0  0  0  0
   36.4150   27.7960   42.1500 O   0  0  0  0  0  0  0  0  0  0  0  0
   37.1850   26.6590   42.1580 C   0  0  0  0  0  0  0  0  0  0  0  0
   37.7030   26.3230   40.9130 F   0  0  0  0  0  0  0  0  0  0  0  0
   36.5800   25.5500   42.6890 F   0  0  0  0  0  0  0  0  0  0  0  0
   38.2740   26.9560   42.9930 F   0  0  0  0  0  0  0  0  0  0  0  0
  1  2  1  0  0  0  0
  2  9  1  0  0  0  0
  2  3  2  0  0  0  0
  3 24  1  0  0  0  0
  4  3  1  0  0  0  0
  5  8  1  0  0  0  0
  5  4  2  0  0  0  0
  6  1  2  0  0  0  0
  6  5  1  0  0  0  0
  7  1  1  0  0  0  0
  9 10  1  0  0  0  0
 10 16  1  0  0  0  0
 10 15  1  0  0  0  0
 11 10  1  0  0  0  0
 11 17  1  0  0  0  0
 12 11  1  0  0  0  0
 13 21  1  0  0  0  0
 13 12  1  0  0  0  0
 14 13  1  0  0  0  0
 14  9  1  0  0  0  0
 18 11  1  0  0  0  0
 19 12  1  0  0  0  0
 20 13  1  0  0  0  0
 22 14  1  0  0  0  0
 23 14  1  0  0  0  0
 26 25  2  1  0  0  0
 26 24  1  0  0  0  0
 26 35  1  0  0  0  0
 27 26  1  0  0  0  0
 28 29  1  0  0  0  0
 29 30  1  0  0  0  0
 30 31  1  0  0  0  0
 31 32  1  0  0  0  0
 32 27  1  0  0  0  0
 33 32  1  0  0  0  0
 34 29  1  0  0  0  0
 34 33  1  0  0  0  0
 35 36  1  0  0  0  0
 36 38  1  0  0  0  0
 36 39  1  0  0  0  0
 37 36  1  0  0  0  0
M  END
>  <minimizedAffinity>
-5.12246513

$$$$

 OpenBabel03242520313D

 39 41  0  0  0  0  0  0  0  0999 V2000
   36.9450   28.7990   37.0160 C   0  0  0  0  0  0  0  0  0  0  0  0
   37.1680   29.4310   38.2680 C   0  0  0  0  0  0  0  0  0  0  0  0
   36.6170   28.8380   39.4000 C   0  0  0  0  0  0  0  0  0  0  0  0
   35.9040   27.7010   39.2710 N   0  0  0  0  0  0  0  0  0  0  0  0
   35.7060   27.1190   38.0610 C   0  0  0  0  0  0  0  0  0  0  0  0
   36.2200   27.6630   36.9560 N   0  0  0  0  0  0  0  0  0  0  0  0
   37.3590   29.2360   36.1090 H   0  0  0  0  0  0  0  0  0  0  0  0
   35.1120   26.2170   38.1520 H   0  0  0  0  0  0  0  0  0  0  0  0
   37.9390   30.6200   38.2320 N   0  0  0  0  0  0  0  0  0  0  0  0
   39.3680   30.6340   37.9750 C   0  0  0  0  0  0  0  0  0  0  0  0
   39.8560   32.0440   37.8810 C   0  0  0  0  0  0  0  0  0  0  0  0
   39.4520   32.8690   38.9930 N   0  0  0  0  0  0  0  0  0  0  0  0
   38.0570   32.8130   39.3200 C   0  0  0  0  0  0  0  0  0  0  0  0
   37.2560   31.8820   38.4660 C   0  0  0  0  0  0  0  0  0  0  0  0
   39.9310   30.0140   38.6780 H   0  0  0  0  0  0  0  0  0  0  0  0
   39.5080   30.1820   36.9600 H   0  0  0  0  0  0  0  0  0  0  0  0
   40.9530   32.0950   37.8220 H   0  0  0  0  0  0  0  0  0  0  0  0
   39.4210   32.4990   36.9650 H   0  0  0  0  0  0  0  0  0  0  0  0
   39.7230   33.8470   38.7370 H   0  0  0  0  0  0  0  0  0  0  0  0
   37.6150   33.8250   39.2600 H   0  0  0  0  0  0  0  0  0  0  0  0
   37.9560   32.4900   40.3780 H   0  0  0  0  0  0  0  0  0  0  0  0
   36.9850   32.3150   37.4770 H   0  0  0  0  0  0  0  0  0  0  0  0
   36.2850   31.7080   38.9950 H   0  0  0  0  0  0  0  0  0  0  0  0
   36.8520   29.4750   40.5950 O   0  0  0  0  0  0  0  0  0  0  0  0
   36.3530   27.8700   42.6590 O   0  0  0  0  0  0  0  0  0  0  0  0
   37.4980   28.5560   41.9280 P   0  0  1  0  0  0  0  0  0  0  0  0
   38.5780   27.4570   41.2850 O   0  0  0  0  0  0  0  0  0  0  0  0
   39.0450   22.7540   42.8900 H   0  0  0  0  0  0  0  0  0  0  0  0
   38.8420   23.7370   42.6480 N   0  0  0  0  0  0  0  0  0  0  0  0
   39.9310   24.5570   43.0790 C   0  0  0  0  0  2  0  0  0  0  0  0
   39.9230   25.8350   42.2730 C   0  0  0  0  0  2  0  0  0  0  0  0
   38.5060   26.1970   41.8670 C   0  0  0  0  0  3  0  0  0  0  0  0
   38.1120   25.1710   40.7950 C   0  0  0  0  0  2  0  0  0  0  0  0
   38.5630   23.7990   41.2350 C   0  0  0  0  0  2  0  0  0  0  0  0
   38.2230   29.6720   42.9560 O   0  0  0  0  0  0  0  0  0  0  0  0
   39.5000   30.0060   42.5760 C   0  0  0  0  0  0  0  0  0  0  0  0
   39.6340   30.2460   41.2130 F   0  0  0  0  0  0  0  0  0  0  0  0
   40.4720   29.1180   42.9570 F   0  0  0  0  0  0  0  0  0  0  0  0
   39.7800   31.2110   43.2380 F   0  0  0  0  0  0  0  0  0  0  0  0
  1  2  1  0  0  0  0
  2  3  2  0  0  0  0
  3 24  1  0  0  0  0
  4  3  1  0  0  0  0
  5  8  1  0  0  0  0
  5  4  2  0  0  0  0
  6  1  2  0  0  0  0
  6  5  1  0  0  0  0
  7  1  1  0  0  0  0
  9  2  1  0  0  0  0
  9 14  1  0  0  0  0
 10  9  1  0  0  0  0
 10 15  1  0  0  0  0
 11 10  1  0  0  0  0
 11 12  1  0  0  0  0
 12 13  1  0  0  0  0
 13 21  1  0  0  0  0
 14 23  1  0  0  0  0
 14 13  1  0  0  0  0
 16 10  1  0  0  0  0
 17 11  1  0  0  0  0
 18 11  1  0  0  0  0
 19 12  1  0  0  0  0
 20 13  1  0  0  0  0
 22 14  1  0  0  0  0
 24 26  1  0  0  0  0
 26 25  2  1  0  0  0
 26 35  1  0  0  0  0
 27 32  1  0  0  0  0
 27 26  1  0  0  0  0
 29 28  1  0  0  0  0
 29 30  1  0  0  0  0
 31 30  1  0  0  0  0
 32 31  1  0  0  0  0
 33 34  1  0  0  0  0
 33 32  1  0  0  0  0
 34 29  1  0  0  0  0
 36 35  1  0  0  0  0
 36 38  1  0  0  0  0
 36 39  1  0  0  0  0
 37 36  1  0  0  0  0
M  END
>  <minimizedAffinity>
-5.10998964

$$$$

 OpenBabel03242520313D

 39 41  0  0  0  0  0  0  0  0999 V2000
   39.2460   26.1680   39.8030 C   0  0  0  0  0  0  0  0  0  0  0  0
   38.7490   27.4790   40.0290 C   0  0  0  0  0  0  0  0  0  0  0  0
   38.8320   28.3920   38.9810 C   0  0  0  0  0  0  0  0  0  0  0  0
   39.3730   28.0060   37.8080 N   0  0  0  0  0  0  0  0  0  0  0  0
   39.8410   26.7460   37.6200 C   0  0  0  0  0  0  0  0  0  0  0  0
   39.7760   25.8470   38.6050 N   0  0  0  0  0  0  0  0  0  0  0  0
   39.1990   25.4280   40.6010 H   0  0  0  0  0  0  0  0  0  0  0  0
   40.2370   26.6190   36.6200 H   0  0  0  0  0  0  0  0  0  0  0  0
   38.2120   27.7240   41.3180 N   0  0  0  0  0  0  0  0  0  0  0  0
   36.8320   27.4420   41.6720 C   0  0  0  0  0  0  0  0  0  0  0  0
   36.6190   27.6940   43.1290 C   0  0  0  0  0  0  0  0  0  0  0  0
   37.0840   28.9880   43.5660 N   0  0  0  0  0  0  0  0  0  0  0  0
   38.4180   29.3250   43.1620 C   0  0  0  0  0  0  0  0  0  0  0  0
   39.0950   28.2850   42.3270 C   0  0  0  0  0  0  0  0  0  0  0  0
   36.1160   27.9530   41.0210 H   0  0  0  0  0  0  0  0  0  0  0  0
   36.6870   26.3430   41.5140 H   0  0  0  0  0  0  0  0  0  0  0  0
   35.5570   27.6230   43.4060 H   0  0  0  0  0  0  0  0  0  0  0  0
   37.1940   26.9330   43.6990 H   0  0  0  0  0  0  0  0  0  0  0  0
   37.0150   28.9790   44.6100 H   0  0  0  0  0  0  0  0  0  0  0  0
   39.0400   29.5330   44.0520 H   0  0  0  0  0  0  0  0  0  0  0  0
   38.3800   30.2700   42.5780 H   0  0  0  0  0  0  0  0  0  0  0  0
   39.5120   27.4440   42.9250 H   0  0  0  0  0  0  0  0  0  0  0  0
   39.9770   28.7780   41.8450 H   0  0  0  0  0  0  0  0  0  0  0  0
   38.3420   29.6510   39.2330 O   0  0  0  0  0  0  0  0  0  0  0  0
   40.5060   30.7180   40.3570 O   0  0  0  0  0  0  0  0  0  0  0  0
   39.4530   30.9920   39.2930 P   0  0  1  0  0  0  0  0  0  0  0  0
   40.1250   31.1380   37.7710 O   0  0  0  0  0  0  0  0  0  0  0  0
   44.9560   32.1440   37.0250 H   0  0  0  0  0  0  0  0  0  0  0  0
   43.9960   31.8870   37.3040 N   0  0  0  0  0  0  0  0  0  0  0  0
   43.2240   33.0790   37.4650 C   0  0  0  0  0  2  0  0  0  0  0  0
   41.7600   32.7300   37.3170 C   0  0  0  0  0  2  0  0  0  0  0  0
   41.5040   31.3090   37.7830 C   0  0  0  0  0  3  0  0  0  0  0  0
   42.1310   30.4070   36.7100 C   0  0  0  0  0  2  0  0  0  0  0  0
   43.4810   30.9620   36.3260 C   0  0  0  0  0  2  0  0  0  0  0  0
   38.5440   32.3320   39.7450 O   0  0  0  0  0  0  0  0  0  0  0  0
   37.3190   32.3880   39.1250 C   0  0  0  0  0  0  0  0  0  0  0  0
   36.3460   31.6040   39.7340 F   0  0  0  0  0  0  0  0  0  0  0  0
   37.3320   32.0990   37.7850 F   0  0  0  0  0  0  0  0  0  0  0  0
   36.9060   33.7240   39.2400 F   0  0  0  0  0  0  0  0  0  0  0  0
  1  2  1  0  0  0  0
  1  7  1  0  0  0  0
  2  9  1  0  0  0  0
  3 24  1  0  0  0  0
  3  2  2  0  0  0  0
  4  3  1  0  0  0  0
  5  4  2  0  0  0  0
  5  6  1  0  0  0  0
  6  1  2  0  0  0  0
  8  5  1  0  0  0  0
  9 10  1  0  0  0  0
  9 14  1  0  0  0  0
 10 11  1  0  0  0  0
 11 17  1  0  0  0  0
 11 12  1  0  0  0  0
 11 18  1  0  0  0  0
 12 19  1  0  0  0  0
 13 12  1  0  0  0  0
 13 20  1  0  0  0  0
 14 22  1  0  0  0  0
 14 13  1  0  0  0  0
 15 10  1  0  0  0  0
 16 10  1  0  0  0  0
 21 13  1  0  0  0  0
 23 14  1  0  0  0  0
 24 26  1  0  0  0  0
 26 35  1  0  0  0  0
 26 25  2  1  0  0  0
 27 32  1  0  0  0  0
 27 26  1  0  0  0  0
 28 29  1  0  0  0  0
 29 30  1  0  0  0  0
 31 30  1  0  0  0  0
 31 32  1  0  0  0  0
 33 32  1  0  0  0  0
 34 33  1  0  0  0  0
 34 29  1  0  0  0  0
 36 39  1  0  0  0  0
 36 37  1  0  0  0  0
 36 35  1  0  0  0  0
 38 36  1  0  0  0  0
M  END
>  <minimizedAffinity>
-5.10022497

$$$$

 OpenBabel03242520313D

 39 41  0  0  0  0  0  0  0  0999 V2000
   41.3110   30.5920   38.4890 C   0  0  0  0  0  0  0  0  0  0  0  0
   40.2410   30.4070   39.4040 C   0  0  0  0  0  0  0  0  0  0  0  0
   40.1670   29.1890   40.0760 C   0  0  0  0  0  0  0  0  0  0  0  0
   41.0980   28.2440   39.8370 N   0  0  0  0  0  0  0  0  0  0  0  0
   42.1100   28.4480   38.9550 C   0  0  0  0  0  0  0  0  0  0  0  0
   42.2090   29.6040   38.2960 N   0  0  0  0  0  0  0  0  0  0  0  0
   41.3990   31.5310   37.9460 H   0  0  0  0  0  0  0  0  0  0  0  0
   42.7580   27.5830   38.8940 H   0  0  0  0  0  0  0  0  0  0  0  0
   39.3470   31.4990   39.5410 N   0  0  0  0  0  0  0  0  0  0  0  0
   39.5600   32.5900   40.4750 C   0  0  0  0  0  0  0  0  0  0  0  0
   38.5100   33.6350   40.2850 C   0  0  0  0  0  0  0  0  0  0  0  0
   37.1650   33.1110   40.2930 N   0  0  0  0  0  0  0  0  0  0  0  0
   36.9470   31.9810   39.4380 C   0  0  0  0  0  0  0  0  0  0  0  0
   38.1610   31.5170   38.7000 C   0  0  0  0  0  0  0  0  0  0  0  0
   39.6670   32.2480   41.5090 H   0  0  0  0  0  0  0  0  0  0  0  0
   40.5340   33.0620   40.1880 H   0  0  0  0  0  0  0  0  0  0  0  0
   38.5580   34.4110   41.0640 H   0  0  0  0  0  0  0  0  0  0  0  0
   38.6680   34.1080   39.2920 H   0  0  0  0  0  0  0  0  0  0  0  0
   36.5470   33.9050   40.0060 H   0  0  0  0  0  0  0  0  0  0  0  0
   36.1490   32.2110   38.7070 H   0  0  0  0  0  0  0  0  0  0  0  0
   36.5710   31.1380   40.0570 H   0  0  0  0  0  0  0  0  0  0  0  0
   38.3900   32.1280   37.7980 H   0  0  0  0  0  0  0  0  0  0  0  0
   37.9380   30.4880   38.3180 H   0  0  0  0  0  0  0  0  0  0  0  0
   39.1200   29.0440   40.9540 O   0  0  0  0  0  0  0  0  0  0  0  0
   37.3550   28.1260   39.1860 O   0  0  0  0  0  0  0  0  0  0  0  0
   37.8740   27.8790   40.5950 P   0  0  1  0  0  0  0  0  0  0  0  0
   38.5600   26.3650   40.7530 O   0  0  0  0  0  0  0  0  0  0  0  0
   36.4210   22.2920   38.8180 H   0  0  0  0  0  0  0  0  0  0  0  0
   36.8150   23.2020   39.1060 N   0  0  0  0  0  0  0  0  0  0  0  0
   36.1320   23.6560   40.2760 C   0  0  0  0  0  2  0  0  0  0  0  0
   37.0210   24.6380   41.0040 C   0  0  0  0  0  2  0  0  0  0  0  0
   37.9110   25.3780   40.0220 C   0  0  0  0  0  3  0  0  0  0  0  0
   38.9420   24.3450   39.5460 C   0  0  0  0  0  2  0  0  0  0  0  0
   38.2390   23.0400   39.2630 C   0  0  0  0  0  2  0  0  0  0  0  0
   36.6380   28.1630   41.6990 O   0  0  0  0  0  0  0  0  0  0  0  0
   37.0230   27.9660   43.0030 C   0  0  0  0  0  0  0  0  0  0  0  0
   37.3490   29.1380   43.6750 F   0  0  0  0  0  0  0  0  0  0  0  0
   38.0440   27.0680   43.1790 F   0  0  0  0  0  0  0  0  0  0  0  0
   35.8990   27.4200   43.6420 F   0  0  0  0  0  0  0  0  0  0  0  0
  1  2  1  0  0  0  0
  2  9  1  0  0  0  0
  2  3  2  0  0  0  0
  3 24  1  0  0  0  0
  4  3  1  0  0  0  0
  5  4  2  0  0  0  0
  6  1  2  0  0  0  0
  6  5  1  0  0  0  0
  7  1  1  0  0  0  0
  8  5  1  0  0  0  0
  9 10  1  0  0  0  0
 10 15  1  0  0  0  0
 11 12  1  0  0  0  0
 11 10  1  0  0  0  0
 11 17  1  0  0  0  0
 13 21  1  0  0  0  0
 13 12  1  0  0  0  0
 14 13  1  0  0  0  0
 14  9  1  0  0  0  0
 16 10  1  0  0  0  0
 18 11  1  0  0  0  0
 19 12  1  0  0  0  0
 20 13  1  0  0  0  0
 22 14  1  0  0  0  0
 23 14  1  0  0  0  0
 26 25  2  6  0  0  0
 26 27  1  0  0  0  0
 26 24  1  0  0  0  0
 26 35  1  0  0  0  0
 28 29  1  0  0  0  0
 29 34  1  0  0  0  0
 29 30  1  0  0  0  0
 30 31  1  0  0  0  0
 32 27  1  0  0  0  0
 32 31  1  0  0  0  0
 33 32  1  0  0  0  0
 34 33  1  0  0  0  0
 35 36  1  0  0  0  0
 36 38  1  0  0  0  0
 36 39  1  0  0  0  0
 36 37  1  0  0  0  0
M  END
>  <minimizedAffinity>
-5.06073046

$$$$

 OpenBabel03242520313D

 39 41  0  0  0  0  0  0  0  0999 V2000
   37.5480   30.8070   37.2580 C   0  0  0  0  0  0  0  0  0  0  0  0
   37.6000   30.8540   38.6760 C   0  0  0  0  0  0  0  0  0  0  0  0
   36.6730   30.0930   39.3830 C   0  0  0  0  0  0  0  0  0  0  0  0
   35.7720   29.3510   38.7080 N   0  0  0  0  0  0  0  0  0  0  0  0
   35.7450   29.3260   37.3510 C   0  0  0  0  0  0  0  0  0  0  0  0
   36.6200   30.0440   36.6440 N   0  0  0  0  0  0  0  0  0  0  0  0
   38.2570   31.3900   36.6720 H   0  0  0  0  0  0  0  0  0  0  0  0
   34.9580   28.6780   36.9860 H   0  0  0  0  0  0  0  0  0  0  0  0
   38.6070   31.6830   39.2310 N   0  0  0  0  0  0  0  0  0  0  0  0
   39.9890   31.2650   39.3800 C   0  0  0  0  0  0  0  0  0  0  0  0
   40.8160   32.4060   39.8780 C   0  0  0  0  0  0  0  0  0  0  0  0
   40.2680   33.0480   41.0490 N   0  0  0  0  0  0  0  0  0  0  0  0
   38.8810   33.4000   40.9580 C   0  0  0  0  0  0  0  0  0  0  0  0
   38.2250   33.0150   39.6710 C   0  0  0  0  0  0  0  0  0  0  0  0
   40.0940   30.3490   39.9680 H   0  0  0  0  0  0  0  0  0  0  0  0
   40.3590   31.0320   38.3490 H   0  0  0  0  0  0  0  0  0  0  0  0
   41.8390   32.0910   40.1320 H   0  0  0  0  0  0  0  0  0  0  0  0
   40.8610   33.1760   39.0770 H   0  0  0  0  0  0  0  0  0  0  0  0
   40.8480   33.9050   41.2030 H   0  0  0  0  0  0  0  0  0  0  0  0
   38.7580   34.4880   41.1130 H   0  0  0  0  0  0  0  0  0  0  0  0
   38.3370   32.9010   41.7890 H   0  0  0  0  0  0  0  0  0  0  0  0
   38.4370   33.7250   38.8390 H   0  0  0  0  0  0  0  0  0  0  0  0
   37.1200   33.0690   39.8380 H   0  0  0  0  0  0  0  0  0  0  0  0
   36.7510   30.1610   40.7540 O   0  0  0  0  0  0  0  0  0  0  0  0
   37.1180   29.0000   43.1210 O   0  0  0  0  0  0  0  0  0  0  0  0
   37.3490   28.7800   41.6330 P   0  0  1  0  0  0  0  0  0  0  0  0
   36.5240   27.4450   41.0630 O   0  0  0  0  0  0  0  0  0  0  0  0
   38.6410   22.9600   40.4950 H   0  0  0  0  0  0  0  0  0  0  0  0
   38.3310   23.9400   40.5940 N   0  0  0  0  0  0  0  0  0  0  0  0
   37.4940   24.2770   39.4850 C   0  0  0  0  0  2  0  0  0  0  0  0
   36.6170   25.4440   39.8790 C   0  0  0  0  0  2  0  0  0  0  0  0
   37.3260   26.3220   40.8930 C   0  0  0  0  0  3  0  0  0  0  0  0
   37.3410   25.5130   42.1970 C   0  0  0  0  0  2  0  0  0  0  0  0
   37.7070   24.0820   41.8860 C   0  0  0  0  0  2  0  0  0  0  0  0
   39.0020   28.7140   41.3320 O   0  0  0  0  0  0  0  0  0  0  0  0
   39.7600   29.1700   42.3820 C   0  0  0  0  0  0  0  0  0  0  0  0
   39.7920   28.3050   43.4690 F   0  0  0  0  0  0  0  0  0  0  0  0
   39.4330   30.4220   42.8350 F   0  0  0  0  0  0  0  0  0  0  0  0
   41.0690   29.2570   41.8830 F   0  0  0  0  0  0  0  0  0  0  0  0
  1  2  1  0  0  0  0
  2  9  1  0  0  0  0
  2  3  2  0  0  0  0
  3 24  1  0  0  0  0
  4  3  1  0  0  0  0
  5  4  2  0  0  0  0
  6  1  2  0  0  0  0
  6  5  1  0  0  0  0
  7  1  1  0  0  0  0
  8  5  1  0  0  0  0
  9 10  1  0  0  0  0
  9 14  1  0  0  0  0
 10 11  1  0  0  0  0
 10 15  1  0  0  0  0
 11 17  1  0  0  0  0
 11 12  1  0  0  0  0
 12 19  1  0  0  0  0
 13 12  1  0  0  0  0
 13 20  1  0  0  0  0
 13 21  1  0  0  0  0
 14 23  1  0  0  0  0
 14 13  1  0  0  0  0
 16 10  1  0  0  0  0
 18 11  1  0  0  0  0
 22 14  1  0  0  0  0
 24 26  1  0  0  0  0
 26 25  2  1  0  0  0
 27 26  1  0  0  0  0
 28 29  1  0  0  0  0
 29 34  1  0  0  0  0
 30 31  1  0  0  0  0
 30 29  1  0  0  0  0
 31 32  1  0  0  0  0
 32 27  1  0  0  0  0
 32 33  1  0  0  0  0
 34 33  1  0  0  0  0
 35 26  1  0  0  0  0
 35 36  1  0  0  0  0
 36 38  1  0  0  0  0
 36 37  1  0  0  0  0
 39 36  1  0  0  0  0
M  END
>  <minimizedAffinity>
-5.05163288

$$$$

 OpenBabel03242520313D

 39 41  0  0  0  0  0  0  0  0999 V2000
   37.0810   30.4860   36.8140 C   0  0  0  0  0  0  0  0  0  0  0  0
   37.2120   30.3650   38.2220 C   0  0  0  0  0  0  0  0  0  0  0  0
   36.6560   29.2430   38.8310 C   0  0  0  0  0  0  0  0  0  0  0  0
   36.0240   28.3250   38.0730 N   0  0  0  0  0  0  0  0  0  0  0  0
   35.9130   28.4660   36.7270 C   0  0  0  0  0  0  0  0  0  0  0  0
   36.4350   29.5310   36.1140 N   0  0  0  0  0  0  0  0  0  0  0  0
   37.5030   31.3510   36.3050 H   0  0  0  0  0  0  0  0  0  0  0  0
   35.3760   27.6350   36.2880 H   0  0  0  0  0  0  0  0  0  0  0  0
   37.9060   31.4170   38.8720 N   0  0  0  0  0  0  0  0  0  0  0  0
   37.2450   32.5910   39.4150 C   0  0  0  0  0  0  0  0  0  0  0  0
   38.2350   33.4430   40.1400 C   0  0  0  0  0  0  0  0  0  0  0  0
   39.4170   33.7410   39.3680 N   0  0  0  0  0  0  0  0  0  0  0  0
   40.0450   32.6070   38.7540 C   0  0  0  0  0  0  0  0  0  0  0  0
   39.3500   31.3060   38.9960 C   0  0  0  0  0  0  0  0  0  0  0  0
   36.6560   33.1300   38.6660 H   0  0  0  0  0  0  0  0  0  0  0  0
   36.5240   32.2160   40.1850 H   0  0  0  0  0  0  0  0  0  0  0  0
   37.7990   34.4060   40.4480 H   0  0  0  0  0  0  0  0  0  0  0  0
   38.5690   32.8910   41.0450 H   0  0  0  0  0  0  0  0  0  0  0  0
   40.0800   34.2070   40.0290 H   0  0  0  0  0  0  0  0  0  0  0  0
   41.0920   32.5250   39.0990 H   0  0  0  0  0  0  0  0  0  0  0  0
   40.0890   32.7810   37.6570 H   0  0  0  0  0  0  0  0  0  0  0  0
   39.5760   30.8640   39.9920 H   0  0  0  0  0  0  0  0  0  0  0  0
   39.7510   30.5780   38.2460 H   0  0  0  0  0  0  0  0  0  0  0  0
   36.8010   29.1570   40.1940 O   0  0  0  0  0  0  0  0  0  0  0  0
   39.0730   27.8300   39.7900 O   0  0  0  0  0  0  0  0  0  0  0  0
   38.0090   28.0840   40.8480 P   0  0  1  0  0  0  0  0  0  0  0  0
   38.6390   28.8260   42.2040 O   0  0  0  0  0  0  0  0  0  0  0  0
   43.3510   30.4480   42.4870 H   0  0  0  0  0  0  0  0  0  0  0  0
   42.3940   30.1160   42.2900 N   0  0  0  0  0  0  0  0  0  0  0  0
   42.2690   28.7640   42.7370 C   0  0  0  0  0  2  0  0  0  0  0  0
   40.8060   28.4660   42.9730 C   0  0  0  0  0  2  0  0  0  0  0  0
   39.9390   29.2870   42.0360 C   0  0  0  0  0  3  0  0  0  0  0  0
   40.0320   30.7300   42.5520 C   0  0  0  0  0  2  0  0  0  0  0  0
   41.4680   31.0400   42.8970 C   0  0  0  0  0  2  0  0  0  0  0  0
   37.2140   26.6420   41.1930 O   0  0  0  0  0  0  0  0  0  0  0  0
   37.1370   26.3770   42.5390 C   0  0  0  0  0  0  0  0  0  0  0  0
   36.3730   27.2950   43.2490 F   0  0  0  0  0  0  0  0  0  0  0  0
   38.3440   26.2350   43.1740 F   0  0  0  0  0  0  0  0  0  0  0  0
   36.4900   25.1360   42.6350 F   0  0  0  0  0  0  0  0  0  0  0  0
  1  2  1  0  0  0  0
  2  3  2  0  0  0  0
  2  9  1  0  0  0  0
  3 24  1  0  0  0  0
  4  3  1  0  0  0  0
  5  4  2  0  0  0  0
  6  5  1  0  0  0  0
  6  1  2  0  0  0  0
  7  1  1  0  0  0  0
  8  5  1  0  0  0  0
  9 14  1  0  0  0  0
  9 10  1  0  0  0  0
 10 11  1  0  0  0  0
 10 16  1  0  0  0  0
 11 17  1  0  0  0  0
 11 18  1  0  0  0  0
 12 19  1  0  0  0  0
 12 11  1  0  0  0  0
 13 14  1  0  0  0  0
 13 20  1  0  0  0  0
 13 12  1  0  0  0  0
 14 22  1  0  0  0  0
 15 10  1  0  0  0  0
 21 13  1  0  0  0  0
 23 14  1  0  0  0  0
 24 26  1  0  0  0  0
 26 25  2  6  0  0  0
 26 35  1  0  0  0  0
 26 27  1  0  0  0  0
 29 28  1  0  0  0  0
 29 30  1  0  0  0  0
 29 34  1  0  0  0  0
 30 31  1  0  0  0  0
 32 27  1  0  0  0  0
 32 33  1  0  0  0  0
 32 31  1  0  0  0  0
 33 34  1  0  0  0  0
 35 36  1  0  0  0  0
 36 39  1  0  0  0  0
 36 38  1  0  0  0  0
 36 37  1  0  0  0  0
M  END
>  <minimizedAffinity>
-5.04079771

$$$$

 OpenBabel03242520313D

 39 41  0  0  0  0  0  0  0  0999 V2000
   43.6310   29.6900   38.5610 C   0  0  0  0  0  0  0  0  0  0  0  0
   42.7730   30.6450   39.1680 C   0  0  0  0  0  0  0  0  0  0  0  0
   41.9960   30.2250   40.2450 C   0  0  0  0  0  0  0  0  0  0  0  0
   42.0860   28.9480   40.6670 N   0  0  0  0  0  0  0  0  0  0  0  0
   42.9150   28.0560   40.0670 C   0  0  0  0  0  0  0  0  0  0  0  0
   43.6720   28.4270   39.0330 N   0  0  0  0  0  0  0  0  0  0  0  0
   44.2520   29.9830   37.7160 H   0  0  0  0  0  0  0  0  0  0  0  0
   42.8540   27.0840   40.5400 H   0  0  0  0  0  0  0  0  0  0  0  0
   42.7960   31.9460   38.6040 N   0  0  0  0  0  0  0  0  0  0  0  0
   41.8030   32.4210   37.6580 C   0  0  0  0  0  0  0  0  0  0  0  0
   42.0380   33.8650   37.3540 C   0  0  0  0  0  0  0  0  0  0  0  0
   43.3990   34.1610   36.9750 N   0  0  0  0  0  0  0  0  0  0  0  0
   44.4050   33.6340   37.8510 C   0  0  0  0  0  0  0  0  0  0  0  0
   43.8720   32.8390   39.0000 C   0  0  0  0  0  0  0  0  0  0  0  0
   41.7250   31.7850   36.7700 H   0  0  0  0  0  0  0  0  0  0  0  0
   40.8160   32.3630   38.1840 H   0  0  0  0  0  0  0  0  0  0  0  0
   41.3910   34.2230   36.5400 H   0  0  0  0  0  0  0  0  0  0  0  0
   41.8230   34.4500   38.2740 H   0  0  0  0  0  0  0  0  0  0  0  0
   43.4640   35.2040   36.9370 H   0  0  0  0  0  0  0  0  0  0  0  0
   45.0310   34.4570   38.2430 H   0  0  0  0  0  0  0  0  0  0  0  0
   45.0800   32.9810   37.2580 H   0  0  0  0  0  0  0  0  0  0  0  0
   43.5030   33.4710   39.8390 H   0  0  0  0  0  0  0  0  0  0  0  0
   44.7310   32.2550   39.4180 H   0  0  0  0  0  0  0  0  0  0  0  0
   41.1770   31.1740   40.8090 O   0  0  0  0  0  0  0  0  0  0  0  0
   39.1540   30.0090   39.5300 O   0  0  0  0  0  0  0  0  0  0  0  0
   39.4510   31.0010   40.6460 P   0  0  1  0  0  0  0  0  0  0  0  0
   38.8720   30.4750   42.1210 O   0  0  0  0  0  0  0  0  0  0  0  0
   37.5840   25.7490   43.0830 H   0  0  0  0  0  0  0  0  0  0  0  0
   37.8640   26.6860   42.7510 N   0  0  0  0  0  0  0  0  0  0  0  0
   36.7530   27.5760   42.8790 C   0  0  0  0  0  2  0  0  0  0  0  0
   37.2740   28.9940   42.9400 C   0  0  0  0  0  2  0  0  0  0  0  0
   38.5640   29.1200   42.1500 C   0  0  0  0  0  3  0  0  0  0  0  0
   39.6250   28.3810   42.9770 C   0  0  0  0  0  2  0  0  0  0  0  0
   39.0420   27.0830   43.4810 C   0  0  0  0  0  2  0  0  0  0  0  0
   38.8690   32.5170   40.2100 O   0  0  0  0  0  0  0  0  0  0  0  0
   37.5590   32.4940   39.7960 C   0  0  0  0  0  0  0  0  0  0  0  0
   36.7220   31.7530   40.6230 F   0  0  0  0  0  0  0  0  0  0  0  0
   37.3650   32.0830   38.5030 F   0  0  0  0  0  0  0  0  0  0  0  0
   37.1280   33.8280   39.8580 F   0  0  0  0  0  0  0  0  0  0  0  0
  1  6  2  0  0  0  0
  1  2  1  0  0  0  0
  2  3  2  0  0  0  0
  3  4  1  0  0  0  0
  3 24  1  0  0  0  0
  5  8  1  0  0  0  0
  5  4  2  0  0  0  0
  6  5  1  0  0  0  0
  7  1  1  0  0  0  0
  9 14  1  0  0  0  0
  9  2  1  0  0  0  0
 10 16  1  0  0  0  0
 10  9  1  0  0  0  0
 11 10  1  0  0  0  0
 11 18  1  0  0  0  0
 12 11  1  0  0  0  0
 12 13  1  0  0  0  0
 13 20  1  0  0  0  0
 13 14  1  0  0  0  0
 14 23  1  0  0  0  0
 14 22  1  0  0  0  0
 15 10  1  0  0  0  0
 17 11  1  0  0  0  0
 19 12  1  0  0  0  0
 21 13  1  0  0  0  0
 26 25  2  6  0  0  0
 26 24  1  0  0  0  0
 26 27  1  0  0  0  0
 27 32  1  0  0  0  0
 29 30  1  0  0  0  0
 29 28  1  0  0  0  0
 29 34  1  0  0  0  0
 30 31  1  0  0  0  0
 32 31  1  0  0  0  0
 32 33  1  0  0  0  0
 33 34  1  0  0  0  0
 35 26  1  0  0  0  0
 36 39  1  0  0  0  0
 36 35  1  0  0  0  0
 36 37  1  0  0  0  0
 38 36  1  0  0  0  0
M  END
>  <minimizedAffinity>
-5.00853395

$$$$
