
 OpenBabel03242520263D

 36 38  0  0  0  0  0  0  0  0999 V2000
   45.4170   35.9480   42.8950 C   0  0  0  0  0  0  0  0  0  0  0  0
   45.8460   34.6000   42.8250 C   0  0  0  0  0  0  0  0  0  0  0  0
   45.6270   33.7710   43.9150 C   0  0  0  0  0  0  0  0  0  0  0  0
   45.0050   34.2990   45.0110 N   0  0  0  0  0  0  0  0  0  0  0  0
   44.6020   35.5890   45.0620 C   0  0  0  0  0  0  0  0  0  0  0  0
   44.8040   36.3990   44.0240 N   0  0  0  0  0  0  0  0  0  0  0  0
   45.5650   36.6220   42.0820 H   0  0  0  0  0  0  0  0  0  0  0  0
   44.1110   35.9360   45.9750 H   0  0  0  0  0  0  0  0  0  0  0  0
   46.4750   34.2170   41.6140 N   0  0  0  0  0  0  0  0  0  0  0  0
   47.7010   34.8160   41.1240 C   0  0  0  0  0  0  0  0  0  0  0  0
   48.1490   34.1120   39.8880 C   0  0  0  0  0  0  0  0  0  0  0  0
   47.1230   33.9740   38.8870 N   0  0  0  0  0  0  0  0  0  0  0  0
   45.8780   33.4710   39.3640 C   0  0  0  0  0  0  0  0  0  0  0  0
   45.8480   33.1660   40.8270 C   0  0  0  0  0  0  0  0  0  0  0  0
   48.5170   34.7000   41.8710 H   0  0  0  0  0  0  0  0  0  0  0  0
   47.4850   35.8840   40.9190 H   0  0  0  0  0  0  0  0  0  0  0  0
   48.5210   33.1050   40.1870 H   0  0  0  0  0  0  0  0  0  0  0  0
   48.9740   34.7020   39.4120 H   0  0  0  0  0  0  0  0  0  0  0  0
   47.5130   33.4700   38.0790 H   0  0  0  0  0  0  0  0  0  0  0  0
   45.0740   34.2060   39.0770 H   0  0  0  0  0  0  0  0  0  0  0  0
   45.6500   32.5320   38.8070 H   0  0  0  0  0  0  0  0  0  0  0  0
   44.7680   33.0430   41.1140 H   0  0  0  0  0  0  0  0  0  0  0  0
   46.4070   32.2320   40.9990 H   0  0  0  0  0  0  0  0  0  0  0  0
   46.0600   32.4610   43.8100 O   0  0  0  0  0  0  0  0  0  0  0  0
   45.5900   30.8160   45.8400 O   0  0  0  0  0  0  0  0  0  0  0  0
   46.6770   31.6880   45.2210 P   0  0  1  0  0  0  0  0  0  0  0  0
   48.0140   30.7840   44.7700 O   0  0  0  0  0  0  0  0  0  0  0  0
   48.8180   31.3270   45.0140 H   0  0  0  0  0  0  0  0  0  0  0  0
   47.0940   32.9070   46.3250 O   0  0  0  0  0  0  0  0  0  0  0  0
   46.6360   30.7930   50.7520 H   0  0  0  0  0  0  0  0  0  0  0  0
   46.3320   30.6930   49.7650 N   0  0  0  0  0  0  0  0  0  0  0  0
   47.3600   30.4250   48.8180 C   0  0  0  0  0  0  0  0  0  0  0  0
   47.9160   31.6430   48.1160 C   0  0  0  0  0  0  0  0  0  0  0  0
   46.8330   32.5840   47.6300 C   0  0  0  0  0  0  0  0  0  0  0  0
   45.5180   31.8580   47.8170 C   0  0  0  0  0  0  0  0  0  0  0  0
   45.3660   31.6770   49.3330 C   0  0  0  0  0  0  0  0  0  0  0  0
  1  6  1  0  0  0  0
  2  1  2  0  0  0  0
  2  3  1  0  0  0  0
  3  4  2  0  0  0  0
  4  5  1  0  0  0  0
  5  8  1  0  0  0  0
  6  5  2  0  0  0  0
  7  1  1  0  0  0  0
  9  2  1  0  0  0  0
 10  9  1  0  0  0  0
 10 15  1  0  0  0  0
 11 17  1  0  0  0  0
 11 10  1  0  0  0  0
 12 13  1  0  0  0  0
 12 11  1  0  0  0  0
 13 14  1  0  0  0  0
 14 23  1  0  0  0  0
 14 22  1  0  0  0  0
 14  9  1  0  0  0  0
 16 10  1  0  0  0  0
 18 11  1  0  0  0  0
 19 12  1  0  0  0  0
 20 13  1  0  0  0  0
 21 13  1  0  0  0  0
 24  3  1  0  0  0  0
 24 26  1  0  0  0  0
 26 25  2  1  0  0  0
 26 29  1  0  0  0  0
 27 28  1  0  0  0  0
 27 26  1  0  0  0  0
 29 34  1  0  0  0  0
 31 30  1  0  0  0  0
 32 31  1  0  0  0  0
 33 32  1  0  0  0  0
 34 35  1  0  0  0  0
 34 33  1  0  0  0  0
 35 36  1  0  0  0  0
 36 31  1  0  0  0  0
M  END
>  <minimizedAffinity>
-5.47526169

>  <minimizedRMSD>
0.767063677

$$$$
