
 OpenBabel03252509083D

 39 42  0  0  0  0  0  0  0  0999 V2000
   47.7860   31.8790   39.0230 C   0  0  0  0  0  0  0  0  0  0  0  0
   47.2220   33.1160   38.9090 C   0  0  0  0  0  0  0  0  0  0  0  0
   47.7630   34.0180   38.0150 C   0  0  0  0  0  0  0  0  0  0  0  0
   48.8520   33.6750   37.2520 C   0  0  0  0  0  0  0  0  0  0  0  0
   49.4450   32.4180   37.3490 C   0  0  0  0  0  0  0  0  0  0  0  0
   48.8930   31.5250   38.2490 C   0  0  0  0  0  0  0  0  0  0  0  0
   47.3310   35.0190   37.9040 H   0  0  0  0  0  0  0  0  0  0  0  0
   49.2490   34.3960   36.5680 H   0  0  0  0  0  0  0  0  0  0  0  0
   50.3010   32.1140   36.7640 H   0  0  0  0  0  0  0  0  0  0  0  0
   49.3560   30.5400   38.3260 H   0  0  0  0  0  0  0  0  0  0  0  0
   45.2850   35.3620   43.1130 Cl  0  0  0  0  0  0  0  0  0  0  0  0
   45.1710   34.5770   41.5660 C   0  0  0  0  0  0  0  0  0  0  0  0
   46.2730   34.1890   40.8940 C   0  0  0  0  0  0  0  0  0  0  0  0
   46.0700   33.5670   39.6680 C   0  0  0  0  0  0  0  0  0  0  0  0
   44.8190   33.3530   39.1530 C   0  0  0  0  0  0  0  0  0  0  0  0
   43.7220   33.7510   39.8460 C   0  0  0  0  0  0  0  0  0  0  0  0
   43.9080   34.3680   41.0620 C   0  0  0  0  0  0  0  0  0  0  0  0
   44.6960   32.8670   38.1950 H   0  0  0  0  0  0  0  0  0  0  0  0
   42.7070   33.6010   39.4750 H   0  0  0  0  0  0  0  0  0  0  0  0
   43.0190   34.6860   41.6120 H   0  0  0  0  0  0  0  0  0  0  0  0
   49.5440   35.8070   41.8610 C   0  0  0  0  0  0  0  0  0  0  0  0
   48.2850   35.5920   41.2910 C   0  0  0  0  0  0  0  0  0  0  0  0
   47.5730   34.4230   41.4740 C   0  0  0  0  0  0  0  0  0  0  0  0
   48.1910   33.4940   42.2500 N   0  0  0  0  0  0  0  0  0  0  0  0
   49.3990   33.6960   42.7990 C   0  0  0  0  0  0  0  0  0  0  0  0
   50.0650   34.8390   42.6050 N   0  0  0  0  0  0  0  0  0  0  0  0
   50.0840   36.7430   41.6990 H   0  0  0  0  0  0  0  0  0  0  0  0
   47.8730   36.3860   40.6900 H   0  0  0  0  0  0  0  0  0  0  0  0
   49.8290   32.9040   43.4100 H   0  0  0  0  0  0  0  0  0  0  0  0
   47.1790   30.7150   40.0800 S   0  0  0  0  0  0  0  0  0  0  0  0
   46.8220   29.4240   39.3650 O   0  0  0  0  0  0  0  0  0  0  0  0
   48.4140   30.3320   40.9400 O   0  0  0  0  0  0  0  0  0  0  0  0
   44.4440   28.9080   44.3380 H   0  0  0  0  0  0  0  0  0  0  0  0
   44.6300   29.5020   43.5270 N   0  0  0  0  0  0  0  0  0  0  0  0
   45.6640   30.4900   43.6810 C   0  0  0  0  0  2  0  0  0  0  0  0
   46.6290   30.3590   42.5680 C   0  0  0  0  0  2  0  0  0  0  0  0
   45.9530   30.8360   41.2260 C   0  0  0  0  0  3  0  0  0  0  0  0
   44.8290   29.8050   41.1690 C   0  0  0  0  0  2  0  0  0  0  0  0
   44.8210   28.8070   42.2730 C   0  0  0  0  0  2  0  0  0  0  0  0
  1 30  1  0  0  0  0
  2  1  1  0  0  0  0
  2 14  1  0  0  0  0
  3  2  2  0  0  0  0
  4  5  2  0  0  0  0
  4  3  1  0  0  0  0
  5  6  1  0  0  0  0
  6 10  1  0  0  0  0
  6  1  2  0  0  0  0
  7  3  1  0  0  0  0
  8  4  1  0  0  0  0
  9  5  1  0  0  0  0
 12 11  1  0  0  0  0
 13 23  1  0  0  0  0
 13 12  2  0  0  0  0
 14 13  1  0  0  0  0
 15 14  2  0  0  0  0
 15 16  1  0  0  0  0
 16 17  2  0  0  0  0
 17 12  1  0  0  0  0
 17 20  1  0  0  0  0
 18 15  1  0  0  0  0
 19 16  1  0  0  0  0
 21 26  1  0  0  0  0
 22 23  1  0  0  0  0
 22 21  2  0  0  0  0
 23 24  2  0  0  0  0
 24 25  1  0  0  0  0
 25 29  1  0  0  0  0
 26 25  2  0  0  0  0
 27 21  1  0  0  0  0
 28 22  1  0  0  0  0
 30 32  2  0  0  0  0
 30 37  1  0  0  0  0
 31 30  2  0  0  0  0
 34 35  1  0  0  0  0
 34 33  1  0  0  0  0
 36 35  1  0  0  0  0
 37 36  1  0  0  0  0
 38 37  1  0  0  0  0
 38 39  1  0  0  0  0
 39 34  1  0  0  0  0
M  END
>  <minimizedAffinity>
-4.6437583

>  <minimizedRMSD>
0.440976948

$$$$
