
 OpenBabel03242519403D

 25 26  0  0  0  0  0  0  0  0999 V2000
   36.1430   30.8930   41.3260 O   0  0  0  0  0  0  0  0  0  0  0  0
   37.4990   30.1780   41.2840 P   0  0  2  0  0  0  0  0  0  0  0  0
   37.8830   29.6440   42.8770 O   0  0  0  0  0  0  0  0  0  0  0  0
   39.5880   26.4970   43.6720 C   0  0  0  0  0  0  0  0  0  0  0  0
   38.5400   27.4390   43.5000 C   0  0  0  0  0  0  0  0  0  0  0  0
   38.9040   28.7090   43.0510 C   0  0  0  0  0  0  0  0  0  0  0  0
   40.2080   28.9760   42.8070 N   0  0  0  0  0  0  0  0  0  0  0  0
   41.1780   28.0480   42.9860 C   0  0  0  0  0  0  0  0  0  0  0  0
   40.8670   26.8110   43.4180 N   0  0  0  0  0  0  0  0  0  0  0  0
   39.3680   25.4930   44.0190 H   0  0  0  0  0  0  0  0  0  0  0  0
   37.5280   27.1210   43.7240 H   0  0  0  0  0  0  0  0  0  0  0  0
   42.1500   28.4740   42.7320 H   0  0  0  0  0  0  0  0  0  0  0  0
   38.7050   31.1670   40.7190 O   0  0  0  0  0  0  0  0  0  0  0  0
   39.4910   31.5650   35.8450 H   0  0  0  0  0  0  0  0  0  0  0  0
   39.2690   32.1190   36.6890 N   0  0  0  0  0  0  0  0  0  0  0  0
   37.9640   31.7700   37.1530 C   0  0  0  0  0  2  0  0  0  0  0  0
   37.8390   32.0190   38.6420 C   0  0  0  0  0  2  0  0  0  0  0  0
   38.7640   31.0500   39.3290 C   0  0  0  0  0  3  0  0  0  0  0  0
   40.1700   31.2460   38.8180 C   0  0  0  0  0  2  0  0  0  0  0  0
   40.2930   32.1960   37.6780 C   0  0  0  0  0  2  0  0  0  0  0  0
   37.3130   28.8060   40.3120 O   0  0  0  0  0  0  0  0  0  0  0  0
   36.1110   28.1650   40.5220 C   0  0  0  0  0  0  0  0  0  0  0  0
   35.7610   28.0800   41.8620 F   0  0  0  0  0  0  0  0  0  0  0  0
   35.1250   28.7520   39.7490 F   0  0  0  0  0  0  0  0  0  0  0  0
   36.2710   26.8590   40.0700 F   0  0  0  0  0  0  0  0  0  0  0  0
  2  1  2  1  0  0  0
  2  3  1  0  0  0  0
  3  6  1  0  0  0  0
  4 10  1  0  0  0  0
  5  4  1  0  0  0  0
  5 11  1  0  0  0  0
  6  5  2  0  0  0  0
  7  8  2  0  0  0  0
  7  6  1  0  0  0  0
  8  9  1  0  0  0  0
  9  4  2  0  0  0  0
 12  8  1  0  0  0  0
 13  2  1  0  0  0  0
 14 15  1  0  0  0  0
 15 16  1  0  0  0  0
 15 20  1  0  0  0  0
 16 17  1  0  0  0  0
 17 18  1  0  0  0  0
 18 13  1  0  0  0  0
 19 18  1  0  0  0  0
 20 19  1  0  0  0  0
 21 22  1  0  0  0  0
 21  2  1  0  0  0  0
 22 23  1  0  0  0  0
 24 22  1  0  0  0  0
 25 22  1  0  0  0  0
M  END
>  <minimizedAffinity>
-5.07624245

$$$$

 OpenBabel03242519403D

 25 26  0  0  0  0  0  0  0  0999 V2000
   39.3200   28.8460   40.6900 O   0  0  0  0  0  0  0  0  0  0  0  0
   38.6480   29.2550   42.0060 P   0  0  2  0  0  0  0  0  0  0  0  0
   39.3430   30.7410   42.5330 O   0  0  0  0  0  0  0  0  0  0  0  0
   41.1910   33.0100   40.3240 C   0  0  0  0  0  0  0  0  0  0  0  0
   40.9400   31.9920   41.2820 C   0  0  0  0  0  0  0  0  0  0  0  0
   39.6040   31.7400   41.5940 C   0  0  0  0  0  0  0  0  0  0  0  0
   38.6340   32.4590   40.9830 N   0  0  0  0  0  0  0  0  0  0  0  0
   38.9180   33.4230   40.0750 C   0  0  0  0  0  0  0  0  0  0  0  0
   40.1940   33.6970   39.7470 N   0  0  0  0  0  0  0  0  0  0  0  0
   42.2100   33.2530   40.0400 H   0  0  0  0  0  0  0  0  0  0  0  0
   41.7910   31.4760   41.7100 H   0  0  0  0  0  0  0  0  0  0  0  0
   37.9920   33.8730   39.7110 H   0  0  0  0  0  0  0  0  0  0  0  0
   38.8350   28.1010   43.1820 O   0  0  0  0  0  0  0  0  0  0  0  0
   41.6830   24.1500   42.2840 H   0  0  0  0  0  0  0  0  0  0  0  0
   41.2700   24.7070   43.0510 N   0  0  0  0  0  0  0  0  0  0  0  0
   41.8700   26.0040   43.0680 C   0  0  0  0  0  2  0  0  0  0  0  0
   40.9290   27.0230   43.6750 C   0  0  0  0  0  2  0  0  0  0  0  0
   39.7580   27.1530   42.7370 C   0  0  0  0  0  3  0  0  0  0  0  0
   39.1140   25.8030   42.5450 C   0  0  0  0  0  2  0  0  0  0  0  0
   39.8500   24.6660   43.1640 C   0  0  0  0  0  2  0  0  0  0  0  0
   37.0160   29.5420   41.6680 O   0  0  0  0  0  0  0  0  0  0  0  0
   36.2850   28.3790   41.5480 C   0  0  0  0  0  0  0  0  0  0  0  0
   36.8640   27.4540   40.6890 F   0  0  0  0  0  0  0  0  0  0  0  0
   36.0290   27.8550   42.8020 F   0  0  0  0  0  0  0  0  0  0  0  0
   35.0620   28.7310   40.9880 F   0  0  0  0  0  0  0  0  0  0  0  0
  2  1  2  6  0  0  0
  2  3  1  0  0  0  0
  2 13  1  0  0  0  0
  4  5  1  0  0  0  0
  5  6  2  0  0  0  0
  5 11  1  0  0  0  0
  6  3  1  0  0  0  0
  7  6  1  0  0  0  0
  8  7  2  0  0  0  0
  9  8  1  0  0  0  0
  9  4  2  0  0  0  0
 10  4  1  0  0  0  0
 12  8  1  0  0  0  0
 14 15  1  0  0  0  0
 15 16  1  0  0  0  0
 15 20  1  0  0  0  0
 16 17  1  0  0  0  0
 18 13  1  0  0  0  0
 18 17  1  0  0  0  0
 19 18  1  0  0  0  0
 19 20  1  0  0  0  0
 21  2  1  0  0  0  0
 22 21  1  0  0  0  0
 22 24  1  0  0  0  0
 23 22  1  0  0  0  0
 25 22  1  0  0  0  0
M  END
>  <minimizedAffinity>
-4.74667454

$$$$

 OpenBabel03242519403D

 25 26  0  0  0  0  0  0  0  0999 V2000
   34.8450   28.9030   39.6080 O   0  0  0  0  0  0  0  0  0  0  0  0
   36.1720   29.3240   40.2500 P   0  0  2  0  0  0  0  0  0  0  0  0
   36.1230   31.0220   40.5390 O   0  0  0  0  0  0  0  0  0  0  0  0
   38.6010   33.6540   39.9270 C   0  0  0  0  0  0  0  0  0  0  0  0
   37.3780   32.9350   39.8710 C   0  0  0  0  0  0  0  0  0  0  0  0
   37.3200   31.7380   40.5850 C   0  0  0  0  0  0  0  0  0  0  0  0
   38.4060   31.3280   41.2800 N   0  0  0  0  0  0  0  0  0  0  0  0
   39.5550   32.0450   41.3060 C   0  0  0  0  0  0  0  0  0  0  0  0
   39.6510   33.2050   40.6310 N   0  0  0  0  0  0  0  0  0  0  0  0
   38.7080   34.5920   39.3920 H   0  0  0  0  0  0  0  0  0  0  0  0
   36.5690   33.3540   39.2850 H   0  0  0  0  0  0  0  0  0  0  0  0
   40.2970   31.5330   41.9230 H   0  0  0  0  0  0  0  0  0  0  0  0
   37.4710   28.9570   39.2870 O   0  0  0  0  0  0  0  0  0  0  0  0
   36.8340   28.1380   34.4440 H   0  0  0  0  0  0  0  0  0  0  0  0
   37.4340   28.6390   35.1190 N   0  0  0  0  0  0  0  0  0  0  0  0
   36.6750   29.6700   35.7540 C   0  0  0  0  0  2  0  0  0  0  0  0
   37.2360   29.9860   37.1240 C   0  0  0  0  0  2  0  0  0  0  0  0
   37.0200   28.7660   37.9800 C   0  0  0  0  0  3  0  0  0  0  0  0
   37.6820   27.5740   37.3350 C   0  0  0  0  0  2  0  0  0  0  0  0
   38.2330   27.8250   35.9750 C   0  0  0  0  0  2  0  0  0  0  0  0
   36.2710   28.5490   41.7500 O   0  0  0  0  0  0  0  0  0  0  0  0
   36.9180   27.3340   41.6790 C   0  0  0  0  0  0  0  0  0  0  0  0
   36.5000   26.5520   40.6110 F   0  0  0  0  0  0  0  0  0  0  0  0
   38.2870   27.5300   41.6940 F   0  0  0  0  0  0  0  0  0  0  0  0
   36.5860   26.6360   42.8360 F   0  0  0  0  0  0  0  0  0  0  0  0
  2  1  2  6  0  0  0
  2  3  1  0  0  0  0
  2 21  1  0  0  0  0
  3  6  1  0  0  0  0
  4  9  1  0  0  0  0
  5  4  2  0  0  0  0
  5  6  1  0  0  0  0
  6  7  2  0  0  0  0
  7  8  1  0  0  0  0
  8 12  1  0  0  0  0
  9  8  2  0  0  0  0
 10  4  1  0  0  0  0
 11  5  1  0  0  0  0
 13  2  1  0  0  0  0
 14 15  1  0  0  0  0
 15 16  1  0  0  0  0
 15 20  1  0  0  0  0
 16 17  1  0  0  0  0
 17 18  1  0  0  0  0
 18 13  1  0  0  0  0
 19 18  1  0  0  0  0
 20 19  1  0  0  0  0
 22 24  1  0  0  0  0
 22 21  1  0  0  0  0
 22 25  1  0  0  0  0
 23 22  1  0  0  0  0
M  END
>  <minimizedAffinity>
-4.7453537

$$$$

 OpenBabel03242519403D

 25 26  0  0  0  0  0  0  0  0999 V2000
   37.7310   29.0980   38.4370 O   0  0  0  0  0  0  0  0  0  0  0  0
   36.6220   30.0850   38.8200 P   0  0  2  0  0  0  0  0  0  0  0  0
   37.0870   31.6590   38.2920 O   0  0  0  0  0  0  0  0  0  0  0  0
   38.6270   34.1590   40.4870 C   0  0  0  0  0  0  0  0  0  0  0  0
   37.6310   33.4570   39.7580 C   0  0  0  0  0  0  0  0  0  0  0  0
   38.0560   32.3580   39.0130 C   0  0  0  0  0  0  0  0  0  0  0  0
   39.3670   32.0190   39.0210 N   0  0  0  0  0  0  0  0  0  0  0  0
   40.2850   32.7170   39.7310 C   0  0  0  0  0  0  0  0  0  0  0  0
   39.9150   33.7840   40.4620 N   0  0  0  0  0  0  0  0  0  0  0  0
   38.3590   35.0240   41.0850 H   0  0  0  0  0  0  0  0  0  0  0  0
   36.6090   33.8130   39.8210 H   0  0  0  0  0  0  0  0  0  0  0  0
   41.2730   32.2730   39.5940 H   0  0  0  0  0  0  0  0  0  0  0  0
   36.3440   30.1030   40.4540 O   0  0  0  0  0  0  0  0  0  0  0  0
   39.0360   27.2220   43.4530 H   0  0  0  0  0  0  0  0  0  0  0  0
   38.5300   28.1220   43.4160 N   0  0  0  0  0  0  0  0  0  0  0  0
   39.2030   29.0060   42.5170 C   0  0  0  0  0  2  0  0  0  0  0  0
   38.2380   30.0190   41.9370 C   0  0  0  0  0  2  0  0  0  0  0  0
   37.2670   29.2580   41.0740 C   0  0  0  0  0  3  0  0  0  0  0  0
   36.5790   28.2010   41.9010 C   0  0  0  0  0  2  0  0  0  0  0  0
   37.1130   28.0430   43.2830 C   0  0  0  0  0  2  0  0  0  0  0  0
   35.2360   29.6420   37.9580 O   0  0  0  0  0  0  0  0  0  0  0  0
   34.5070   28.6590   38.5910 C   0  0  0  0  0  0  0  0  0  0  0  0
   35.2690   27.5540   38.9450 F   0  0  0  0  0  0  0  0  0  0  0  0
   33.8220   29.2000   39.6640 F   0  0  0  0  0  0  0  0  0  0  0  0
   33.5600   28.2110   37.6760 F   0  0  0  0  0  0  0  0  0  0  0  0
  2  1  2  6  0  0  0
  2 13  1  0  0  0  0
  3  2  1  0  0  0  0
  3  6  1  0  0  0  0
  4 10  1  0  0  0  0
  5 11  1  0  0  0  0
  5  4  2  0  0  0  0
  6  7  2  0  0  0  0
  6  5  1  0  0  0  0
  7  8  1  0  0  0  0
  8  9  2  0  0  0  0
  9  4  1  0  0  0  0
 12  8  1  0  0  0  0
 13 18  1  0  0  0  0
 15 14  1  0  0  0  0
 16 15  1  0  0  0  0
 17 16  1  0  0  0  0
 18 19  1  0  0  0  0
 18 17  1  0  0  0  0
 19 20  1  0  0  0  0
 20 15  1  0  0  0  0
 21 22  1  0  0  0  0
 21  2  1  0  0  0  0
 22 23  1  0  0  0  0
 22 24  1  0  0  0  0
 25 22  1  0  0  0  0
M  END
>  <minimizedAffinity>
-4.66638374

$$$$

 OpenBabel03242519403D

 25 26  0  0  0  0  0  0  0  0999 V2000
   35.1800   28.7730   40.7950 O   0  0  0  0  0  0  0  0  0  0  0  0
   36.6000   28.7490   41.3720 P   0  0  2  0  0  0  0  0  0  0  0  0
   36.6180   27.6890   42.7310 O   0  0  0  0  0  0  0  0  0  0  0  0
   39.8740   26.2900   43.6700 C   0  0  0  0  0  0  0  0  0  0  0  0
   38.8130   27.2230   43.5350 C   0  0  0  0  0  0  0  0  0  0  0  0
   37.6690   26.7820   42.8700 C   0  0  0  0  0  0  0  0  0  0  0  0
   37.6260   25.5140   42.3980 N   0  0  0  0  0  0  0  0  0  0  0  0
   38.6620   24.6550   42.5480 C   0  0  0  0  0  0  0  0  0  0  0  0
   39.7830   25.0430   43.1830 N   0  0  0  0  0  0  0  0  0  0  0  0
   40.7910   26.5740   44.1770 H   0  0  0  0  0  0  0  0  0  0  0  0
   38.9510   28.2140   43.9510 H   0  0  0  0  0  0  0  0  0  0  0  0
   38.4140   23.6930   42.0940 H   0  0  0  0  0  0  0  0  0  0  0  0
   37.1080   30.2590   41.8320 O   0  0  0  0  0  0  0  0  0  0  0  0
   39.5500   33.1400   38.6270 H   0  0  0  0  0  0  0  0  0  0  0  0
   38.7360   33.1260   39.2630 N   0  0  0  0  0  0  0  0  0  0  0  0
   37.7620   32.2070   38.7660 C   0  0  0  0  0  2  0  0  0  0  0  0
   36.9060   31.6680   39.8920 C   0  0  0  0  0  2  0  0  0  0  0  0
   37.8050   30.8390   40.7700 C   0  0  0  0  0  3  0  0  0  0  0  0
   38.9520   31.6860   41.2600 C   0  0  0  0  0  2  0  0  0  0  0  0
   39.0270   33.0450   40.6570 C   0  0  0  0  0  2  0  0  0  0  0  0
   37.6110   28.0850   40.1890 O   0  0  0  0  0  0  0  0  0  0  0  0
   36.9160   27.3850   39.2270 C   0  0  0  0  0  0  0  0  0  0  0  0
   36.1240   26.3720   39.7500 F   0  0  0  0  0  0  0  0  0  0  0  0
   36.2020   28.2640   38.4320 F   0  0  0  0  0  0  0  0  0  0  0  0
   37.8640   26.7700   38.4170 F   0  0  0  0  0  0  0  0  0  0  0  0
  2  1  2  6  0  0  0
  2 13  1  0  0  0  0
  2  3  1  0  0  0  0
  3  6  1  0  0  0  0
  4 10  1  0  0  0  0
  5  4  1  0  0  0  0
  5 11  1  0  0  0  0
  6  5  2  0  0  0  0
  7  8  2  0  0  0  0
  7  6  1  0  0  0  0
  8  9  1  0  0  0  0
  9  4  2  0  0  0  0
 12  8  1  0  0  0  0
 14 15  1  0  0  0  0
 15 20  1  0  0  0  0
 16 15  1  0  0  0  0
 16 17  1  0  0  0  0
 17 18  1  0  0  0  0
 18 19  1  0  0  0  0
 18 13  1  0  0  0  0
 20 19  1  0  0  0  0
 21  2  1  0  0  0  0
 22 23  1  0  0  0  0
 22 21  1  0  0  0  0
 24 22  1  0  0  0  0
 25 22  1  0  0  0  0
M  END
>  <minimizedAffinity>
-4.64830303

$$$$

 OpenBabel03242519403D

 25 26  0  0  0  0  0  0  0  0999 V2000
   38.8370   28.7860   40.1950 O   0  0  0  0  0  0  0  0  0  0  0  0
   38.1470   28.9670   41.5520 P   0  0  2  0  0  0  0  0  0  0  0  0
   36.5760   28.2640   41.4630 O   0  0  0  0  0  0  0  0  0  0  0  0
   34.4490   28.8630   38.5370 C   0  0  0  0  0  0  0  0  0  0  0  0
   35.0480   29.0490   39.8110 C   0  0  0  0  0  0  0  0  0  0  0  0
   35.9790   28.0920   40.2130 C   0  0  0  0  0  0  0  0  0  0  0  0
   36.2620   27.0570   39.3880 N   0  0  0  0  0  0  0  0  0  0  0  0
   35.6670   26.9160   38.1800 C   0  0  0  0  0  0  0  0  0  0  0  0
   34.7620   27.8180   37.7570 N   0  0  0  0  0  0  0  0  0  0  0  0
   33.7160   29.5740   38.1690 H   0  0  0  0  0  0  0  0  0  0  0  0
   34.7500   29.9150   40.3910 H   0  0  0  0  0  0  0  0  0  0  0  0
   36.0400   26.0170   37.6860 H   0  0  0  0  0  0  0  0  0  0  0  0
   38.0210   30.5660   41.9760 O   0  0  0  0  0  0  0  0  0  0  0  0
   38.7370   34.1040   38.5850 H   0  0  0  0  0  0  0  0  0  0  0  0
   38.1690   33.8650   39.4140 N   0  0  0  0  0  0  0  0  0  0  0  0
   37.3120   32.7660   39.0990 C   0  0  0  0  0  2  0  0  0  0  0  0
   36.9600   31.9830   40.3460 C   0  0  0  0  0  2  0  0  0  0  0  0
   38.2330   31.3480   40.8390 C   0  0  0  0  0  3  0  0  0  0  0  0
   39.2660   32.4180   41.0910 C   0  0  0  0  0  2  0  0  0  0  0  0
   38.8670   33.7850   40.6540 C   0  0  0  0  0  2  0  0  0  0  0  0
   39.0390   28.0900   42.6900 O   0  0  0  0  0  0  0  0  0  0  0  0
   38.5320   26.8270   42.9050 C   0  0  0  0  0  0  0  0  0  0  0  0
   39.3630   26.0260   43.6780 F   0  0  0  0  0  0  0  0  0  0  0  0
   37.2510   26.9180   43.4190 F   0  0  0  0  0  0  0  0  0  0  0  0
   38.4380   26.2160   41.6590 F   0  0  0  0  0  0  0  0  0  0  0  0
  2  1  2  6  0  0  0
  2 13  1  0  0  0  0
  2 21  1  0  0  0  0
  3  2  1  0  0  0  0
  4  5  1  0  0  0  0
  5  6  2  0  0  0  0
  5 11  1  0  0  0  0
  6  3  1  0  0  0  0
  7  6  1  0  0  0  0
  8  7  2  0  0  0  0
  9  8  1  0  0  0  0
  9  4  2  0  0  0  0
 10  4  1  0  0  0  0
 12  8  1  0  0  0  0
 14 15  1  0  0  0  0
 15 20  1  0  0  0  0
 16 15  1  0  0  0  0
 16 17  1  0  0  0  0
 17 18  1  0  0  0  0
 18 19  1  0  0  0  0
 18 13  1  0  0  0  0
 20 19  1  0  0  0  0
 21 22  1  0  0  0  0
 22 24  1  0  0  0  0
 22 23  1  0  0  0  0
 25 22  1  0  0  0  0
M  END
>  <minimizedAffinity>
-4.59702444

$$$$

 OpenBabel03242519403D

 25 26  0  0  0  0  0  0  0  0999 V2000
   38.7180   29.9780   39.8910 O   0  0  0  0  0  0  0  0  0  0  0  0
   37.5250   30.8020   40.3890 P   0  0  2  0  0  0  0  0  0  0  0  0
   36.9540   30.1030   41.8560 O   0  0  0  0  0  0  0  0  0  0  0  0
   37.1830   26.4560   42.1590 C   0  0  0  0  0  0  0  0  0  0  0  0
   36.7020   27.7340   41.7700 C   0  0  0  0  0  0  0  0  0  0  0  0
   37.4150   28.8400   42.2310 C   0  0  0  0  0  0  0  0  0  0  0  0
   38.5070   28.6470   43.0080 N   0  0  0  0  0  0  0  0  0  0  0  0
   38.9310   27.4090   43.3560 C   0  0  0  0  0  0  0  0  0  0  0  0
   38.2700   26.3170   42.9310 N   0  0  0  0  0  0  0  0  0  0  0  0
   36.6700   25.5570   41.8320 H   0  0  0  0  0  0  0  0  0  0  0  0
   35.8180   27.7760   41.1450 H   0  0  0  0  0  0  0  0  0  0  0  0
   39.8230   27.4860   43.9820 H   0  0  0  0  0  0  0  0  0  0  0  0
   36.2970   30.8510   39.2760 O   0  0  0  0  0  0  0  0  0  0  0  0
   35.8650   27.1960   35.9600 H   0  0  0  0  0  0  0  0  0  0  0  0
   35.3320   27.9500   36.4250 N   0  0  0  0  0  0  0  0  0  0  0  0
   35.1960   27.6450   37.8150 C   0  0  0  0  0  2  0  0  0  0  0  0
   35.0290   28.9110   38.6290 C   0  0  0  0  0  2  0  0  0  0  0  0
   36.3240   29.6720   38.5280 C   0  0  0  0  0  3  0  0  0  0  0  0
   36.6360   29.9460   37.0780 C   0  0  0  0  0  2  0  0  0  0  0  0
   35.7210   29.2840   36.1070 C   0  0  0  0  0  2  0  0  0  0  0  0
   38.1010   32.3520   40.7470 O   0  0  0  0  0  0  0  0  0  0  0  0
   38.1710   33.1640   39.6360 C   0  0  0  0  0  0  0  0  0  0  0  0
   38.6360   32.5080   38.5050 F   0  0  0  0  0  0  0  0  0  0  0  0
   36.9500   33.7810   39.4300 F   0  0  0  0  0  0  0  0  0  0  0  0
   39.0960   34.1610   39.9270 F   0  0  0  0  0  0  0  0  0  0  0  0
  2  1  2  6  0  0  0
  2 21  1  0  0  0  0
  2  3  1  0  0  0  0
  3  6  1  0  0  0  0
  4  9  1  0  0  0  0
  5  4  2  0  0  0  0
  5  6  1  0  0  0  0
  6  7  2  0  0  0  0
  7  8  1  0  0  0  0
  8 12  1  0  0  0  0
  9  8  2  0  0  0  0
 10  4  1  0  0  0  0
 11  5  1  0  0  0  0
 13  2  1  0  0  0  0
 14 15  1  0  0  0  0
 15 16  1  0  0  0  0
 16 17  1  0  0  0  0
 18 17  1  0  0  0  0
 18 13  1  0  0  0  0
 19 18  1  0  0  0  0
 20 15  1  0  0  0  0
 20 19  1  0  0  0  0
 22 25  1  0  0  0  0
 22 21  1  0  0  0  0
 23 22  1  0  0  0  0
 24 22  1  0  0  0  0
M  END
>  <minimizedAffinity>
-4.57471418

$$$$

 OpenBabel03242519403D

 25 26  0  0  0  0  0  0  0  0999 V2000
   36.8810   33.0460   39.4480 O   0  0  0  0  0  0  0  0  0  0  0  0
   37.7000   31.9730   40.1760 P   0  0  2  0  0  0  0  0  0  0  0  0
   36.6350   31.0600   41.1770 O   0  0  0  0  0  0  0  0  0  0  0  0
   38.4420   28.3730   42.8960 C   0  0  0  0  0  0  0  0  0  0  0  0
   38.0670   29.6810   42.4920 C   0  0  0  0  0  0  0  0  0  0  0  0
   37.0150   29.7800   41.5810 C   0  0  0  0  0  0  0  0  0  0  0  0
   36.4170   28.6500   41.1360 N   0  0  0  0  0  0  0  0  0  0  0  0
   36.8080   27.4200   41.5470 C   0  0  0  0  0  0  0  0  0  0  0  0
   37.8180   27.2830   42.4260 N   0  0  0  0  0  0  0  0  0  0  0  0
   39.2540   28.2310   43.6030 H   0  0  0  0  0  0  0  0  0  0  0  0
   38.6120   30.5190   42.9110 H   0  0  0  0  0  0  0  0  0  0  0  0
   36.1930   26.6560   41.0660 H   0  0  0  0  0  0  0  0  0  0  0  0
   38.9070   32.6350   41.1000 O   0  0  0  0  0  0  0  0  0  0  0  0
   43.3700   33.4930   39.1300 H   0  0  0  0  0  0  0  0  0  0  0  0
   42.6360   33.9220   39.7180 N   0  0  0  0  0  0  0  0  0  0  0  0
   41.4720   34.1560   38.9240 C   0  0  0  0  0  2  0  0  0  0  0  0
   40.2260   34.1590   39.7840 C   0  0  0  0  0  2  0  0  0  0  0  0
   40.0550   32.7600   40.3140 C   0  0  0  0  0  3  0  0  0  0  0  0
   41.2920   32.3550   41.0760 C   0  0  0  0  0  2  0  0  0  0  0  0
   42.4210   33.3220   40.9930 C   0  0  0  0  0  2  0  0  0  0  0  0
   38.3200   30.9300   38.9970 O   0  0  0  0  0  0  0  0  0  0  0  0
   37.4620   30.7610   37.9320 C   0  0  0  0  0  0  0  0  0  0  0  0
   36.1520   30.5110   38.3160 F   0  0  0  0  0  0  0  0  0  0  0  0
   37.5690   31.8380   37.0700 F   0  0  0  0  0  0  0  0  0  0  0  0
   37.8970   29.6330   37.2430 F   0  0  0  0  0  0  0  0  0  0  0  0
  2  1  2  6  0  0  0
  2 13  1  0  0  0  0
  2  3  1  0  0  0  0
  3  6  1  0  0  0  0
  4 10  1  0  0  0  0
  5  4  1  0  0  0  0
  5 11  1  0  0  0  0
  6  5  2  0  0  0  0
  7  8  2  0  0  0  0
  7  6  1  0  0  0  0
  8  9  1  0  0  0  0
  9  4  2  0  0  0  0
 12  8  1  0  0  0  0
 14 15  1  0  0  0  0
 15 20  1  0  0  0  0
 16 15  1  0  0  0  0
 16 17  1  0  0  0  0
 17 18  1  0  0  0  0
 18 19  1  0  0  0  0
 18 13  1  0  0  0  0
 20 19  1  0  0  0  0
 21  2  1  0  0  0  0
 22 23  1  0  0  0  0
 22 21  1  0  0  0  0
 24 22  1  0  0  0  0
 25 22  1  0  0  0  0
M  END
>  <minimizedAffinity>
-4.5680995

$$$$

 OpenBabel03242519403D

 25 26  0  0  0  0  0  0  0  0999 V2000
   39.2950   28.6400   40.5790 O   0  0  0  0  0  0  0  0  0  0  0  0
   37.7840   28.8340   40.7470 P   0  0  2  0  0  0  0  0  0  0  0  0
   37.5130   30.3140   41.5860 O   0  0  0  0  0  0  0  0  0  0  0  0
   37.5730   33.4430   39.6760 C   0  0  0  0  0  0  0  0  0  0  0  0
   37.0880   32.2320   40.2370 C   0  0  0  0  0  0  0  0  0  0  0  0
   37.9780   31.5060   41.0280 C   0  0  0  0  0  0  0  0  0  0  0  0
   39.2320   31.9790   41.2190 N   0  0  0  0  0  0  0  0  0  0  0  0
   39.6550   33.1390   40.6630 C   0  0  0  0  0  0  0  0  0  0  0  0
   38.8260   33.8690   39.8940 N   0  0  0  0  0  0  0  0  0  0  0  0
   36.9280   34.0530   39.0510 H   0  0  0  0  0  0  0  0  0  0  0  0
   36.0650   31.9460   40.0210 H   0  0  0  0  0  0  0  0  0  0  0  0
   40.6930   33.3280   40.9460 H   0  0  0  0  0  0  0  0  0  0  0  0
   37.0860   27.5820   41.5810 O   0  0  0  0  0  0  0  0  0  0  0  0
   39.1050   23.0620   41.3950 H   0  0  0  0  0  0  0  0  0  0  0  0
   38.5460   23.6880   42.0000 N   0  0  0  0  0  0  0  0  0  0  0  0
   39.3550   24.7910   42.4130 C   0  0  0  0  0  2  0  0  0  0  0  0
   38.4970   26.0000   42.7210 C   0  0  0  0  0  2  0  0  0  0  0  0
   37.8780   26.4420   41.4220 C   0  0  0  0  0  3  0  0  0  0  0  0
   37.0910   25.3030   40.8250 C   0  0  0  0  0  2  0  0  0  0  0  0
   37.2350   24.0030   41.5380 C   0  0  0  0  0  2  0  0  0  0  0  0
   37.1230   28.9930   39.1970 O   0  0  0  0  0  0  0  0  0  0  0  0
   35.7500   28.8740   39.1900 C   0  0  0  0  0  0  0  0  0  0  0  0
   35.1640   29.2070   40.4030 F   0  0  0  0  0  0  0  0  0  0  0  0
   35.2240   29.5900   38.1290 F   0  0  0  0  0  0  0  0  0  0  0  0
   35.4660   27.5310   38.9660 F   0  0  0  0  0  0  0  0  0  0  0  0
  2  1  2  6  0  0  0
  2 13  1  0  0  0  0
  2  3  1  0  0  0  0
  4  9  2  0  0  0  0
  4  5  1  0  0  0  0
  5  6  2  0  0  0  0
  6  7  1  0  0  0  0
  6  3  1  0  0  0  0
  8 12  1  0  0  0  0
  8  7  2  0  0  0  0
  9  8  1  0  0  0  0
 10  4  1  0  0  0  0
 11  5  1  0  0  0  0
 14 15  1  0  0  0  0
 15 16  1  0  0  0  0
 16 17  1  0  0  0  0
 18 13  1  0  0  0  0
 18 17  1  0  0  0  0
 19 18  1  0  0  0  0
 19 20  1  0  0  0  0
 20 15  1  0  0  0  0
 21  2  1  0  0  0  0
 22 21  1  0  0  0  0
 22 23  1  0  0  0  0
 24 22  1  0  0  0  0
 25 22  1  0  0  0  0
M  END
>  <minimizedAffinity>
-4.56796598

$$$$
