
 OpenBabel03252506383D

 42 45  0  0  1  0  0  0  0  0999 V2000
   44.5180   35.5070   45.1410 C   0  0  0  0  0  0  0  0  0  0  0  0
   45.1670   35.4910   43.8880 C   0  0  0  0  0  0  0  0  0  0  0  0
   46.0800   34.5270   43.6300 C   0  0  0  0  0  0  0  0  0  0  0  0
   46.3190   33.6200   44.6100 N   0  0  0  0  0  0  0  0  0  0  0  0
   45.7050   33.6410   45.7840 C   0  0  0  0  0  0  0  0  0  0  0  0
   44.8030   34.5780   46.0660 N   0  0  0  0  0  0  0  0  0  0  0  0
   46.0380   32.6320   46.7530 N   0  0  0  0  0  0  0  0  0  0  0  0
   45.3080   32.3910   47.9430 C   0  0  0  0  0  0  0  0  0  0  0  0
   46.3850   32.0450   48.9520 C   0  0  0  0  0  0  0  0  0  0  0  0
   47.6620   31.9360   48.1760 C   0  0  0  0  0  0  0  0  0  0  0  0
   47.1580   31.7190   46.7490 C   0  0  1  0  0  0  0  0  0  0  0  0
   43.7800   36.2960   45.3320 H   0  0  0  0  0  0  0  0  0  0  0  0
   46.5890   34.4910   42.6850 H   0  0  0  0  0  0  0  0  0  0  0  0
   44.9430   33.4080   48.2980 H   0  0  0  0  0  0  0  0  0  0  0  0
   44.5000   31.7470   48.0550 H   0  0  0  0  0  0  0  0  0  0  0  0
   46.4130   32.6950   49.8280 H   0  0  0  0  0  0  0  0  0  0  0  0
   46.1810   31.0130   49.3640 H   0  0  0  0  0  0  0  0  0  0  0  0
   48.2640   31.0760   48.4980 H   0  0  0  0  0  0  0  0  0  0  0  0
   48.2000   32.9010   48.2590 H   0  0  0  0  0  0  0  0  0  0  0  0
   47.9610   32.0120   46.0710 H   0  0  0  0  0  0  0  0  0  0  0  0
   44.8130   36.5180   42.9450 N   0  0  0  0  0  0  0  0  0  0  0  0
   44.4590   37.4430   43.2170 H   0  0  0  0  0  0  0  0  0  0  0  0
   44.9430   36.2480   41.9320 H   0  0  0  0  0  0  0  0  0  0  0  0
   46.6430   30.0290   46.5670 S   0  0  0  0  0  0  0  0  0  0  0  0
   45.6080   30.3730   43.4130 O   0  0  0  0  0  0  0  0  0  0  0  0
   44.9720   29.9000   44.3690 C   0  0  0  0  0  0  0  0  0  0  0  0
   45.0790   29.7470   45.8440 C   0  0  1  0  0  0  0  0  0  0  0  0
   44.5160   28.3630   46.0410 C   0  0  0  0  0  0  0  0  0  0  0  0
   43.1970   28.5710   45.2910 C   0  0  0  0  0  0  0  0  0  0  0  0
   43.7020   29.2650   44.1130 N   0  0  0  0  0  0  0  0  0  0  0  0
   44.2170   30.3830   46.1730 H   0  0  0  0  0  0  0  0  0  0  0  0
   44.2920   28.1020   47.0830 H   0  0  0  0  0  0  0  0  0  0  0  0
   45.0670   27.5900   45.4790 H   0  0  0  0  0  0  0  0  0  0  0  0
   42.7770   27.5840   45.0740 H   0  0  0  0  0  0  0  0  0  0  0  0
   42.5600   29.2010   45.9360 H   0  0  0  0  0  0  0  0  0  0  0  0
   40.0860   30.3570   41.0630 H   0  0  0  0  0  0  0  0  0  0  0  0
   40.1730   29.7510   41.9120 N   0  0  0  0  0  0  0  0  0  0  0  0
   40.9330   28.5450   41.6950 C   0  0  0  0  0  2  0  0  0  0  0  0
   41.8330   28.2330   42.8950 C   0  0  0  0  0  2  0  0  0  0  0  0
   42.9220   29.2460   42.8770 C   0  0  0  0  0  3  0  0  0  0  0  0
   42.2870   30.6120   42.6120 C   0  0  0  0  0  2  0  0  0  0  0  0
   40.8030   30.5740   42.9280 C   0  0  0  0  0  2  0  0  0  0  0  0
  1 12  1  0  0  0  0
  1  6  1  0  0  0  0
  2  1  2  0  0  0  0
  3  2  1  0  0  0  0
  3  4  2  0  0  0  0
  4  5  1  0  0  0  0
  5  6  2  0  0  0  0
  5  7  1  0  0  0  0
  7  8  1  0  0  0  0
  8 15  1  0  0  0  0
  8 14  1  0  0  0  0
  8  9  1  0  0  0  0
  9 17  1  0  0  0  0
  9 16  1  0  0  0  0
 10 19  1  0  0  0  0
 10 18  1  0  0  0  0
 10  9  1  0  0  0  0
 11 20  1  6  0  0  0
 11  7  1  0  0  0  0
 11 10  1  0  0  0  0
 13  3  1  0  0  0  0
 21 22  1  0  0  0  0
 21  2  1  0  0  0  0
 23 21  1  0  0  0  0
 24 11  1  0  0  0  0
 25 26  2  0  0  0  0
 26 27  1  0  0  0  0
 27 28  1  0  0  0  0
 27 31  1  1  0  0  0
 27 24  1  0  0  0  0
 28 32  1  0  0  0  0
 29 35  1  0  0  0  0
 29 28  1  0  0  0  0
 30 26  1  0  0  0  0
 30 29  1  0  0  0  0
 33 28  1  0  0  0  0
 34 29  1  0  0  0  0
 36 37  1  0  0  0  0
 37 42  1  0  0  0  0
 38 37  1  0  0  0  0
 38 39  1  0  0  0  0
 40 39  1  0  0  0  0
 40 30  1  0  0  0  0
 41 40  1  0  0  0  0
 41 42  1  0  0  0  0
M  END
>  <minimizedAffinity>
-5.62008381

>  <minimizedRMSD>
1.05729866

$$$$
