
 OpenBabel03252506373D

 42 45  0  0  1  0  0  0  0  0999 V2000
   44.4940   35.5680   45.1420 C   0  0  0  0  0  0  0  0  0  0  0  0
   45.1540   35.5720   43.8940 C   0  0  0  0  0  0  0  0  0  0  0  0
   46.0740   34.6160   43.6290 C   0  0  0  0  0  0  0  0  0  0  0  0
   46.3090   33.6970   44.5990 N   0  0  0  0  0  0  0  0  0  0  0  0
   45.6860   33.6980   45.7680 C   0  0  0  0  0  0  0  0  0  0  0  0
   44.7760   34.6260   46.0550 N   0  0  0  0  0  0  0  0  0  0  0  0
   46.0150   32.6770   46.7250 N   0  0  0  0  0  0  0  0  0  0  0  0
   45.2770   32.4160   47.9050 C   0  0  0  0  0  0  0  0  0  0  0  0
   46.3480   32.0600   48.9180 C   0  0  0  0  0  0  0  0  0  0  0  0
   47.6320   31.9680   48.1510 C   0  0  0  0  0  0  0  0  0  0  0  0
   47.1390   31.7690   46.7170 C   0  0  1  0  0  0  0  0  0  0  0  0
   43.7510   36.3500   45.3380 H   0  0  0  0  0  0  0  0  0  0  0  0
   46.5910   34.5960   42.6890 H   0  0  0  0  0  0  0  0  0  0  0  0
   44.9040   33.4260   48.2720 H   0  0  0  0  0  0  0  0  0  0  0  0
   44.4710   31.7660   48.0010 H   0  0  0  0  0  0  0  0  0  0  0  0
   46.3650   32.6980   49.8040 H   0  0  0  0  0  0  0  0  0  0  0  0
   46.1450   31.0220   49.3140 H   0  0  0  0  0  0  0  0  0  0  0  0
   48.2340   31.1070   48.4660 H   0  0  0  0  0  0  0  0  0  0  0  0
   48.1640   32.9350   48.2530 H   0  0  0  0  0  0  0  0  0  0  0  0
   47.9470   32.0750   46.0500 H   0  0  0  0  0  0  0  0  0  0  0  0
   44.8030   36.6110   42.9630 N   0  0  0  0  0  0  0  0  0  0  0  0
   44.4420   37.5310   43.2450 H   0  0  0  0  0  0  0  0  0  0  0  0
   44.9430   36.3560   41.9480 H   0  0  0  0  0  0  0  0  0  0  0  0
   46.6350   30.0800   46.5070 S   0  0  0  0  0  0  0  0  0  0  0  0
   45.6970   30.7670   43.3790 O   0  0  0  0  0  0  0  0  0  0  0  0
   45.0600   30.1350   44.2370 C   0  0  0  0  0  0  0  0  0  0  0  0
   45.1210   29.7980   45.6830 C   0  0  1  0  0  0  0  0  0  0  0  0
   44.6450   28.3690   45.6760 C   0  0  0  0  0  0  0  0  0  0  0  0
   43.3440   28.5900   44.8990 C   0  0  0  0  0  0  0  0  0  0  0  0
   43.8460   29.4610   43.8440 N   0  0  0  0  0  0  0  0  0  0  0  0
   44.2060   30.3320   46.0510 H   0  0  0  0  0  0  0  0  0  0  0  0
   44.4010   27.9600   46.6650 H   0  0  0  0  0  0  0  0  0  0  0  0
   45.2680   27.7110   45.0460 H   0  0  0  0  0  0  0  0  0  0  0  0
   43.0000   27.6160   44.5400 H   0  0  0  0  0  0  0  0  0  0  0  0
   42.6430   29.0910   45.5890 H   0  0  0  0  0  0  0  0  0  0  0  0
   43.1900   29.7610   39.0430 H   0  0  0  0  0  0  0  0  0  0  0  0
   43.5090   30.4270   39.7830 N   0  0  0  0  0  0  0  0  0  0  0  0
   42.4580   30.8730   40.6630 C   0  0  0  0  0  2  0  0  0  0  0  0
   42.9470   30.9580   42.1120 C   0  0  0  0  0  2  0  0  0  0  0  0
   43.1160   29.5550   42.5810 C   0  0  0  0  0  3  0  0  0  0  0  0
   43.8320   28.7760   41.4770 C   0  0  0  0  0  2  0  0  0  0  0  0
   44.5390   29.7290   40.5320 C   0  0  0  0  0  2  0  0  0  0  0  0
  1 12  1  0  0  0  0
  1  6  1  0  0  0  0
  2  1  2  0  0  0  0
  3  2  1  0  0  0  0
  3  4  2  0  0  0  0
  4  5  1  0  0  0  0
  5  6  2  0  0  0  0
  5  7  1  0  0  0  0
  7  8  1  0  0  0  0
  8 15  1  0  0  0  0
  8 14  1  0  0  0  0
  8  9  1  0  0  0  0
  9 17  1  0  0  0  0
  9 16  1  0  0  0  0
 10 19  1  0  0  0  0
 10 18  1  0  0  0  0
 10  9  1  0  0  0  0
 11 20  1  6  0  0  0
 11  7  1  0  0  0  0
 11 10  1  0  0  0  0
 13  3  1  0  0  0  0
 21 22  1  0  0  0  0
 21  2  1  0  0  0  0
 23 21  1  0  0  0  0
 24 11  1  0  0  0  0
 25 26  2  0  0  0  0
 26 27  1  0  0  0  0
 27 31  1  1  0  0  0
 27 24  1  0  0  0  0
 28 27  1  0  0  0  0
 28 32  1  0  0  0  0
 29 35  1  0  0  0  0
 29 28  1  0  0  0  0
 30 26  1  0  0  0  0
 30 29  1  0  0  0  0
 33 28  1  0  0  0  0
 34 29  1  0  0  0  0
 36 37  1  0  0  0  0
 37 42  1  0  0  0  0
 37 38  1  0  0  0  0
 38 39  1  0  0  0  0
 39 40  1  0  0  0  0
 40 30  1  0  0  0  0
 41 40  1  0  0  0  0
 42 41  1  0  0  0  0
M  END
>  <minimizedAffinity>
-5.17118883

>  <minimizedRMSD>
0.807145536

$$$$
