
 OpenBabel03252506383D

 42 45  0  0  1  0  0  0  0  0999 V2000
   44.5130   35.5280   45.1380 C   0  0  0  0  0  0  0  0  0  0  0  0
   45.1630   35.5070   43.8850 C   0  0  0  0  0  0  0  0  0  0  0  0
   46.0750   34.5420   43.6300 C   0  0  0  0  0  0  0  0  0  0  0  0
   46.3110   33.6360   44.6130 N   0  0  0  0  0  0  0  0  0  0  0  0
   45.6970   33.6610   45.7860 C   0  0  0  0  0  0  0  0  0  0  0  0
   44.7960   34.6000   46.0650 N   0  0  0  0  0  0  0  0  0  0  0  0
   46.0270   32.6530   46.7570 N   0  0  0  0  0  0  0  0  0  0  0  0
   45.2960   32.4170   47.9470 C   0  0  0  0  0  0  0  0  0  0  0  0
   46.3720   32.0710   48.9580 C   0  0  0  0  0  0  0  0  0  0  0  0
   47.6500   31.9580   48.1830 C   0  0  0  0  0  0  0  0  0  0  0  0
   47.1460   31.7380   46.7560 C   0  0  1  0  0  0  0  0  0  0  0  0
   43.7760   36.3180   45.3270 H   0  0  0  0  0  0  0  0  0  0  0  0
   46.5850   34.5030   42.6860 H   0  0  0  0  0  0  0  0  0  0  0  0
   44.9330   33.4350   48.3000 H   0  0  0  0  0  0  0  0  0  0  0  0
   44.4870   31.7740   48.0600 H   0  0  0  0  0  0  0  0  0  0  0  0
   46.4000   32.7220   49.8330 H   0  0  0  0  0  0  0  0  0  0  0  0
   46.1660   31.0400   49.3720 H   0  0  0  0  0  0  0  0  0  0  0  0
   48.2490   31.0980   48.5070 H   0  0  0  0  0  0  0  0  0  0  0  0
   48.1890   32.9230   48.2650 H   0  0  0  0  0  0  0  0  0  0  0  0
   47.9500   32.0290   46.0780 H   0  0  0  0  0  0  0  0  0  0  0  0
   44.8110   36.5330   42.9400 N   0  0  0  0  0  0  0  0  0  0  0  0
   44.4590   37.4600   43.2100 H   0  0  0  0  0  0  0  0  0  0  0  0
   44.9420   36.2610   41.9280 H   0  0  0  0  0  0  0  0  0  0  0  0
   46.6280   30.0500   46.5780 S   0  0  0  0  0  0  0  0  0  0  0  0
   45.6710   30.4440   43.4050 O   0  0  0  0  0  0  0  0  0  0  0  0
   45.0160   29.9460   44.3350 C   0  0  0  0  0  0  0  0  0  0  0  0
   45.0870   29.7660   45.8090 C   0  0  1  0  0  0  0  0  0  0  0  0
   44.5320   28.3740   45.9650 C   0  0  0  0  0  0  0  0  0  0  0  0
   43.2310   28.5830   45.1850 C   0  0  0  0  0  0  0  0  0  0  0  0
   43.7600   29.3040   44.0350 N   0  0  0  0  0  0  0  0  0  0  0  0
   44.2100   30.3880   46.1280 H   0  0  0  0  0  0  0  0  0  0  0  0
   44.2840   28.0900   46.9960 H   0  0  0  0  0  0  0  0  0  0  0  0
   45.1050   27.6170   45.4030 H   0  0  0  0  0  0  0  0  0  0  0  0
   42.8270   27.5960   44.9400 H   0  0  0  0  0  0  0  0  0  0  0  0
   42.5720   29.1950   45.8250 H   0  0  0  0  0  0  0  0  0  0  0  0
   40.2250   30.4380   40.9050 H   0  0  0  0  0  0  0  0  0  0  0  0
   40.2890   29.8210   41.7490 N   0  0  0  0  0  0  0  0  0  0  0  0
   41.0530   28.6180   41.5370 C   0  0  0  0  0  2  0  0  0  0  0  0
   41.9210   28.2900   42.7560 C   0  0  0  0  0  2  0  0  0  0  0  0
   43.0120   29.3010   42.7790 C   0  0  0  0  0  3  0  0  0  0  0  0
   42.3850   30.6720   42.5140 C   0  0  0  0  0  2  0  0  0  0  0  0
   40.8940   30.6320   42.7910 C   0  0  0  0  0  2  0  0  0  0  0  0
  1 12  1  0  0  0  0
  1  6  1  0  0  0  0
  2  1  2  0  0  0  0
  3  2  1  0  0  0  0
  3  4  2  0  0  0  0
  4  5  1  0  0  0  0
  5  6  2  0  0  0  0
  5  7  1  0  0  0  0
  7  8  1  0  0  0  0
  8 15  1  0  0  0  0
  8 14  1  0  0  0  0
  8  9  1  0  0  0  0
  9 17  1  0  0  0  0
  9 16  1  0  0  0  0
 10 19  1  0  0  0  0
 10 18  1  0  0  0  0
 10  9  1  0  0  0  0
 11 20  1  6  0  0  0
 11  7  1  0  0  0  0
 11 10  1  0  0  0  0
 13  3  1  0  0  0  0
 21 22  1  0  0  0  0
 21  2  1  0  0  0  0
 23 21  1  0  0  0  0
 24 11  1  0  0  0  0
 25 26  2  0  0  0  0
 26 27  1  0  0  0  0
 27 28  1  0  0  0  0
 27 31  1  1  0  0  0
 27 24  1  0  0  0  0
 28 32  1  0  0  0  0
 29 35  1  0  0  0  0
 29 28  1  0  0  0  0
 30 26  1  0  0  0  0
 30 29  1  0  0  0  0
 33 28  1  0  0  0  0
 34 29  1  0  0  0  0
 36 37  1  0  0  0  0
 37 42  1  0  0  0  0
 38 37  1  0  0  0  0
 38 39  1  0  0  0  0
 39 40  1  0  0  0  0
 40 30  1  0  0  0  0
 41 40  1  0  0  0  0
 41 42  1  0  0  0  0
M  END
>  <minimizedAffinity>
-5.61084032

>  <minimizedRMSD>
1.27329671

$$$$
