
 OpenBabel03252506163D

 37 39  0  0  0  0  0  0  0  0999 V2000
   40.4590   30.4150   40.5990 F   0  0  0  0  0  0  0  0  0  0  0  0
   39.3330   31.0880   40.4200 C   0  0  0  0  0  0  0  0  0  0  0  0
   39.4080   32.3800   39.9440 C   0  0  0  0  0  0  0  0  0  0  0  0
   38.2720   33.1860   39.7160 C   0  0  0  0  0  0  0  0  0  0  0  0
   37.0040   32.6450   39.9880 C   0  0  0  0  0  0  0  0  0  0  0  0
   36.9830   31.3490   40.4620 C   0  0  0  0  0  0  0  0  0  0  0  0
   38.0680   30.5740   40.6830 C   0  0  0  0  0  0  0  0  0  0  0  0
   38.4120   34.1990   39.3380 H   0  0  0  0  0  0  0  0  0  0  0  0
   36.1850   33.2990   39.7970 H   0  0  0  0  0  0  0  0  0  0  0  0
   35.9400   31.0670   40.6190 H   0  0  0  0  0  0  0  0  0  0  0  0
   42.1770   33.8290   38.0330 C   0  0  0  0  0  0  0  0  0  0  0  0
   43.1180   34.1230   39.0490 C   0  0  0  0  0  0  0  0  0  0  0  0
   42.7840   33.8160   40.3980 C   0  0  0  0  0  0  0  0  0  0  0  0
   41.5580   33.2490   40.6220 N   0  0  0  0  0  0  0  0  0  0  0  0
   40.7100   32.9910   39.6390 C   0  0  0  0  0  0  0  0  0  0  0  0
   41.0090   33.2750   38.3500 N   0  0  0  0  0  0  0  0  0  0  0  0
   44.0920   34.5730   38.8840 H   0  0  0  0  0  0  0  0  0  0  0  0
   43.4730   34.0260   41.2040 H   0  0  0  0  0  0  0  0  0  0  0  0
   42.5390   34.1460   36.7090 N   0  0  0  0  0  0  0  0  0  0  0  0
   42.3410   34.9750   36.1300 H   0  0  0  0  0  0  0  0  0  0  0  0
   43.0800   33.2640   36.5000 H   0  0  0  0  0  0  0  0  0  0  0  0
   37.9170   29.3030   41.1570 O   0  0  0  0  0  0  0  0  0  0  0  0
   39.3100   27.3310   40.0800 O   0  0  0  0  0  0  0  0  0  0  0  0
   37.9150   27.8780   40.2600 P   0  0  2  0  0  0  0  0  0  0  0  0
   37.2380   28.2000   38.7200 O   0  0  0  0  0  0  0  0  0  0  0  0
   33.7700   28.1700   35.9640 H   0  0  0  0  0  0  0  0  0  0  0  0
   33.6220   27.8100   36.9140 N   0  0  0  0  0  0  0  0  0  0  0  0
   34.3120   26.5800   37.1980 C   0  0  0  0  0  2  0  0  0  0  0  0
   35.7520   26.8020   37.5940 C   0  0  0  0  0  2  0  0  0  0  0  0
   35.8980   27.8310   38.6800 C   0  0  0  0  0  3  0  0  0  0  0  0
   35.1220   29.0700   38.2800 C   0  0  0  0  0  2  0  0  0  0  0  0
   33.6830   28.7830   37.9590 C   0  0  0  0  0  2  0  0  0  0  0  0
   36.9340   26.6850   40.9230 O   0  0  0  0  0  0  0  0  0  0  0  0
   36.9820   26.7200   42.3320 C   0  0  0  0  0  0  0  0  0  0  0  0
   36.6120   25.4270   42.7200 F   0  0  0  0  0  0  0  0  0  0  0  0
   38.2640   26.9280   42.7750 F   0  0  0  0  0  0  0  0  0  0  0  0
   36.1790   27.6770   42.8870 F   0  0  0  0  0  0  0  0  0  0  0  0
  2  1  1  0  0  0  0
  2  7  1  0  0  0  0
  3  2  2  0  0  0  0
  4  3  1  0  0  0  0
  4  5  2  0  0  0  0
  5  6  1  0  0  0  0
  6 10  1  0  0  0  0
  6  7  2  0  0  0  0
  7 22  1  0  0  0  0
  8  4  1  0  0  0  0
  9  5  1  0  0  0  0
 11 16  2  0  0  0  0
 11 12  1  0  0  0  0
 12 13  2  0  0  0  0
 13 14  1  0  0  0  0
 13 18  1  0  0  0  0
 15  3  1  0  0  0  0
 15 14  2  0  0  0  0
 16 15  1  0  0  0  0
 17 12  1  0  0  0  0
 19 11  1  0  0  0  0
 20 19  1  0  0  0  0
 21 19  1  0  0  0  0
 24 23  2  6  0  0  0
 24 33  1  0  0  0  0
 24 22  1  0  0  0  0
 25 24  1  0  0  0  0
 26 27  1  0  0  0  0
 27 28  1  0  0  0  0
 27 32  1  0  0  0  0
 28 29  1  0  0  0  0
 29 30  1  0  0  0  0
 30 25  1  0  0  0  0
 31 30  1  0  0  0  0
 32 31  1  0  0  0  0
 33 34  1  0  0  0  0
 34 35  1  0  0  0  0
 34 36  1  0  0  0  0
 34 37  1  0  0  0  0
M  END
>  <minimizedAffinity>
-6.01621008

$$$$

 OpenBabel03252506163D

 37 39  0  0  0  0  0  0  0  0999 V2000
   39.4850   27.7580   40.2990 F   0  0  0  0  0  0  0  0  0  0  0  0
   38.5840   27.7230   41.2700 C   0  0  0  0  0  0  0  0  0  0  0  0
   39.0240   27.5640   42.5680 C   0  0  0  0  0  0  0  0  0  0  0  0
   38.1510   27.5150   43.6770 C   0  0  0  0  0  0  0  0  0  0  0  0
   36.7710   27.6340   43.4460 C   0  0  0  0  0  0  0  0  0  0  0  0
   36.3840   27.7910   42.1310 C   0  0  0  0  0  0  0  0  0  0  0  0
   37.2140   27.8380   41.0660 C   0  0  0  0  0  0  0  0  0  0  0  0
   38.5740   27.3870   44.6740 H   0  0  0  0  0  0  0  0  0  0  0  0
   36.1630   27.5890   44.3200 H   0  0  0  0  0  0  0  0  0  0  0  0
   35.2950   27.8750   42.1100 H   0  0  0  0  0  0  0  0  0  0  0  0
   42.2840   26.0470   43.2610 C   0  0  0  0  0  0  0  0  0  0  0  0
   43.1160   27.1830   43.4090 C   0  0  0  0  0  0  0  0  0  0  0  0
   42.5370   28.4760   43.2670 C   0  0  0  0  0  0  0  0  0  0  0  0
   41.1970   28.5300   42.9920 N   0  0  0  0  0  0  0  0  0  0  0  0
   40.4580   27.4400   42.8630 C   0  0  0  0  0  0  0  0  0  0  0  0
   40.9900   26.2030   42.9940 N   0  0  0  0  0  0  0  0  0  0  0  0
   44.1800   27.1530   43.6260 H   0  0  0  0  0  0  0  0  0  0  0  0
   43.1370   29.3690   43.3710 H   0  0  0  0  0  0  0  0  0  0  0  0
   42.8900   24.7840   43.4070 N   0  0  0  0  0  0  0  0  0  0  0  0
   43.2720   24.1280   42.7100 H   0  0  0  0  0  0  0  0  0  0  0  0
   42.8280   24.7230   44.4590 H   0  0  0  0  0  0  0  0  0  0  0  0
   36.7080   27.9970   39.8090 O   0  0  0  0  0  0  0  0  0  0  0  0
   37.9080   29.5710   38.0570 O   0  0  0  0  0  0  0  0  0  0  0  0
   36.6670   29.4140   38.9020 P   0  0  2  0  0  0  0  0  0  0  0  0
   36.5470   30.7470   39.9720 O   0  0  0  0  0  0  0  0  0  0  0  0
   38.5410   34.0900   42.0850 H   0  0  0  0  0  0  0  0  0  0  0  0
   38.9870   33.7380   41.2310 N   0  0  0  0  0  0  0  0  0  0  0  0
   39.5230   32.4070   41.3450 C   0  0  0  0  0  2  0  0  0  0  0  0
   38.4740   31.3410   41.1390 C   0  0  0  0  0  2  0  0  0  0  0  0
   37.6740   31.5560   39.8840 C   0  0  0  0  0  3  0  0  0  0  0  0
   37.1760   32.9870   39.8650 C   0  0  0  0  0  2  0  0  0  0  0  0
   38.2820   33.9940   40.0140 C   0  0  0  0  0  2  0  0  0  0  0  0
   35.3100   29.5260   37.9160 O   0  0  0  0  0  0  0  0  0  0  0  0
   35.4820   28.7750   36.7360 C   0  0  0  0  0  0  0  0  0  0  0  0
   34.1810   28.5890   36.2550 F   0  0  0  0  0  0  0  0  0  0  0  0
   36.1680   29.4960   35.7910 F   0  0  0  0  0  0  0  0  0  0  0  0
   36.1380   27.5910   36.9280 F   0  0  0  0  0  0  0  0  0  0  0  0
  1  2  1  0  0  0  0
  2  3  1  0  0  0  0
  3 15  1  0  0  0  0
  3  4  2  0  0  0  0
  4  8  1  0  0  0  0
  5  4  1  0  0  0  0
  5  9  1  0  0  0  0
  6  5  2  0  0  0  0
  7  2  2  0  0  0  0
  7  6  1  0  0  0  0
 10  6  1  0  0  0  0
 11 19  1  0  0  0  0
 11 12  1  0  0  0  0
 12 17  1  0  0  0  0
 13 18  1  0  0  0  0
 13 12  2  0  0  0  0
 14 13  1  0  0  0  0
 15 14  2  0  0  0  0
 15 16  1  0  0  0  0
 16 11  2  0  0  0  0
 19 21  1  0  0  0  0
 20 19  1  0  0  0  0
 22  7  1  0  0  0  0
 24 23  2  6  0  0  0
 24 22  1  0  0  0  0
 24 25  1  0  0  0  0
 27 28  1  0  0  0  0
 27 26  1  0  0  0  0
 29 28  1  0  0  0  0
 30 25  1  0  0  0  0
 30 29  1  0  0  0  0
 31 30  1  0  0  0  0
 31 32  1  0  0  0  0
 32 27  1  0  0  0  0
 33 24  1  0  0  0  0
 34 37  1  0  0  0  0
 34 33  1  0  0  0  0
 35 34  1  0  0  0  0
 36 34  1  0  0  0  0
M  END
>  <minimizedAffinity>
-5.99104023

$$$$

 OpenBabel03252506163D

 37 39  0  0  0  0  0  0  0  0999 V2000
   40.1320   30.1850   39.1620 F   0  0  0  0  0  0  0  0  0  0  0  0
   39.1260   31.0160   39.3900 C   0  0  0  0  0  0  0  0  0  0  0  0
   39.3940   32.3670   39.4630 C   0  0  0  0  0  0  0  0  0  0  0  0
   38.3980   33.3390   39.6990 C   0  0  0  0  0  0  0  0  0  0  0  0
   37.0720   32.9090   39.8680 C   0  0  0  0  0  0  0  0  0  0  0  0
   36.8570   31.5480   39.7860 C   0  0  0  0  0  0  0  0  0  0  0  0
   37.8060   30.6130   39.5600 C   0  0  0  0  0  0  0  0  0  0  0  0
   38.6870   34.3900   39.7440 H   0  0  0  0  0  0  0  0  0  0  0  0
   36.3650   33.6860   40.0440 H   0  0  0  0  0  0  0  0  0  0  0  0
   35.7890   31.3680   39.9290 H   0  0  0  0  0  0  0  0  0  0  0  0
   42.3900   33.7300   37.8570 C   0  0  0  0  0  0  0  0  0  0  0  0
   43.3010   33.8040   38.9390 C   0  0  0  0  0  0  0  0  0  0  0  0
   42.8670   33.3780   40.2260 C   0  0  0  0  0  0  0  0  0  0  0  0
   41.5810   32.9200   40.3290 N   0  0  0  0  0  0  0  0  0  0  0  0
   40.7650   32.8690   39.2880 C   0  0  0  0  0  0  0  0  0  0  0  0
   41.1580   33.2690   38.0570 N   0  0  0  0  0  0  0  0  0  0  0  0
   44.3220   34.1650   38.8700 H   0  0  0  0  0  0  0  0  0  0  0  0
   43.5300   33.4180   41.0790 H   0  0  0  0  0  0  0  0  0  0  0  0
   42.8520   34.1610   36.5980 N   0  0  0  0  0  0  0  0  0  0  0  0
   42.7690   35.0680   36.1160 H   0  0  0  0  0  0  0  0  0  0  0  0
   43.3130   33.2570   36.3050 H   0  0  0  0  0  0  0  0  0  0  0  0
   37.4680   29.2930   39.5020 O   0  0  0  0  0  0  0  0  0  0  0  0
   35.1840   28.9290   40.7820 O   0  0  0  0  0  0  0  0  0  0  0  0
   36.5970   28.4160   40.6440 P   0  0  2  0  0  0  0  0  0  0  0  0
   37.3890   28.5470   42.1580 O   0  0  0  0  0  0  0  0  0  0  0  0
   41.0790   28.0660   44.5590 H   0  0  0  0  0  0  0  0  0  0  0  0
   41.0170   27.5420   43.6800 N   0  0  0  0  0  0  0  0  0  0  0  0
   40.0290   26.4950   43.6790 C   0  0  0  0  0  2  0  0  0  0  0  0
   38.6420   27.0080   43.3790 C   0  0  0  0  0  2  0  0  0  0  0  0
   38.6000   27.8660   42.1440 C   0  0  0  0  0  3  0  0  0  0  0  0
   39.6870   28.9170   42.2480 C   0  0  0  0  0  2  0  0  0  0  0  0
   41.0490   28.3300   42.4880 C   0  0  0  0  0  2  0  0  0  0  0  0
   36.5570   26.7680   40.3180 O   0  0  0  0  0  0  0  0  0  0  0  0
   36.3260   26.5310   38.9480 C   0  0  0  0  0  0  0  0  0  0  0  0
   37.6030   26.5630   38.3750 F   0  0  0  0  0  0  0  0  0  0  0  0
   35.8190   25.2720   38.7460 F   0  0  0  0  0  0  0  0  0  0  0  0
   35.4760   27.4310   38.3690 F   0  0  0  0  0  0  0  0  0  0  0  0
  1  2  1  0  0  0  0
  2  3  2  0  0  0  0
  2  7  1  0  0  0  0
  3  4  1  0  0  0  0
  4  8  1  0  0  0  0
  4  5  2  0  0  0  0
  5  9  1  0  0  0  0
  6  5  1  0  0  0  0
  6 10  1  0  0  0  0
  7  6  2  0  0  0  0
 11 16  2  0  0  0  0
 11 12  1  0  0  0  0
 12 13  2  0  0  0  0
 13 14  1  0  0  0  0
 13 18  1  0  0  0  0
 15  3  1  0  0  0  0
 15 14  2  0  0  0  0
 16 15  1  0  0  0  0
 17 12  1  0  0  0  0
 19 11  1  0  0  0  0
 20 19  1  0  0  0  0
 21 19  1  0  0  0  0
 22  7  1  0  0  0  0
 22 24  1  0  0  0  0
 24 23  2  1  0  0  0
 24 25  1  0  0  0  0
 27 26  1  0  0  0  0
 28 27  1  0  0  0  0
 29 28  1  0  0  0  0
 30 25  1  0  0  0  0
 30 31  1  0  0  0  0
 30 29  1  0  0  0  0
 31 32  1  0  0  0  0
 32 27  1  0  0  0  0
 33 24  1  0  0  0  0
 34 33  1  0  0  0  0
 35 34  1  0  0  0  0
 36 34  1  0  0  0  0
 37 34  1  0  0  0  0
M  END
>  <minimizedAffinity>
-5.88373184

$$$$

 OpenBabel03252506163D

 37 39  0  0  0  0  0  0  0  0999 V2000
   39.3480   28.0530   39.6080 F   0  0  0  0  0  0  0  0  0  0  0  0
   39.2060   28.7600   40.7190 C   0  0  0  0  0  0  0  0  0  0  0  0
   38.7300   28.1230   41.8460 C   0  0  0  0  0  0  0  0  0  0  0  0
   38.5420   28.7810   43.0810 C   0  0  0  0  0  0  0  0  0  0  0  0
   38.8530   30.1470   43.1650 C   0  0  0  0  0  0  0  0  0  0  0  0
   39.3260   30.7370   42.0100 C   0  0  0  0  0  0  0  0  0  0  0  0
   39.5080   30.1130   40.8250 C   0  0  0  0  0  0  0  0  0  0  0  0
   38.1600   28.2100   43.9290 H   0  0  0  0  0  0  0  0  0  0  0  0
   38.6900   30.5890   44.1210 H   0  0  0  0  0  0  0  0  0  0  0  0
   39.5290   31.7880   42.2290 H   0  0  0  0  0  0  0  0  0  0  0  0
   38.9140   24.5200   42.4770 C   0  0  0  0  0  0  0  0  0  0  0  0
   37.7900   24.0350   41.7650 C   0  0  0  0  0  0  0  0  0  0  0  0
   36.9700   24.9670   41.0670 C   0  0  0  0  0  0  0  0  0  0  0  0
   37.3320   26.2860   41.1350 N   0  0  0  0  0  0  0  0  0  0  0  0
   38.3930   26.6930   41.8120 C   0  0  0  0  0  0  0  0  0  0  0  0
   39.1840   25.8230   42.4820 N   0  0  0  0  0  0  0  0  0  0  0  0
   37.4930   22.9930   41.7050 H   0  0  0  0  0  0  0  0  0  0  0  0
   36.1030   24.6390   40.5130 H   0  0  0  0  0  0  0  0  0  0  0  0
   39.7020   23.5710   43.1570 N   0  0  0  0  0  0  0  0  0  0  0  0
   39.6900   23.2540   44.1370 H   0  0  0  0  0  0  0  0  0  0  0  0
   40.3090   23.2880   42.3400 H   0  0  0  0  0  0  0  0  0  0  0  0
   39.9820   30.8070   39.7510 O   0  0  0  0  0  0  0  0  0  0  0  0
   39.0760   29.9190   37.4310 O   0  0  0  0  0  0  0  0  0  0  0  0
   39.1670   31.1390   38.3160 P   0  0  2  0  0  0  0  0  0  0  0  0
   40.0090   32.3740   37.4790 O   0  0  0  0  0  0  0  0  0  0  0  0
   44.0130   33.4020   35.8890 H   0  0  0  0  0  0  0  0  0  0  0  0
   43.9620   33.0640   36.8560 N   0  0  0  0  0  0  0  0  0  0  0  0
   43.3090   33.9650   37.7680 C   0  0  0  0  0  2  0  0  0  0  0  0
   41.8050   33.8380   37.7290 C   0  0  0  0  0  2  0  0  0  0  0  0
   41.3440   32.4140   37.8670 C   0  0  0  0  0  3  0  0  0  0  0  0
   42.1060   31.5600   36.8740 C   0  0  0  0  0  2  0  0  0  0  0  0
   43.5970   31.6910   37.0110 C   0  0  0  0  0  2  0  0  0  0  0  0
   37.6240   31.7590   38.5630 O   0  0  0  0  0  0  0  0  0  0  0  0
   37.6580   32.8580   39.4450 C   0  0  0  0  0  0  0  0  0  0  0  0
   37.1000   32.3650   40.6300 F   0  0  0  0  0  0  0  0  0  0  0  0
   38.9520   33.2230   39.7230 F   0  0  0  0  0  0  0  0  0  0  0  0
   36.9950   33.9590   38.9780 F   0  0  0  0  0  0  0  0  0  0  0  0
  1  2  1  0  0  0  0
  2  7  2  0  0  0  0
  2  3  1  0  0  0  0
  3  4  2  0  0  0  0
  4  5  1  0  0  0  0
  4  8  1  0  0  0  0
  5  9  1  0  0  0  0
  6 10  1  0  0  0  0
  6  5  2  0  0  0  0
  7  6  1  0  0  0  0
 11 16  1  0  0  0  0
 11 19  1  0  0  0  0
 12 11  2  0  0  0  0
 13 14  2  0  0  0  0
 13 12  1  0  0  0  0
 14 15  1  0  0  0  0
 15  3  1  0  0  0  0
 15 16  2  0  0  0  0
 17 12  1  0  0  0  0
 18 13  1  0  0  0  0
 19 20  1  0  0  0  0
 21 19  1  0  0  0  0
 22  7  1  0  0  0  0
 24 23  2  6  0  0  0
 24 33  1  0  0  0  0
 24 22  1  0  0  0  0
 25 30  1  0  0  0  0
 25 24  1  0  0  0  0
 26 27  1  0  0  0  0
 27 32  1  0  0  0  0
 27 28  1  0  0  0  0
 29 28  1  0  0  0  0
 29 30  1  0  0  0  0
 31 32  1  0  0  0  0
 31 30  1  0  0  0  0
 33 34  1  0  0  0  0
 34 36  1  0  0  0  0
 34 35  1  0  0  0  0
 37 34  1  0  0  0  0
M  END
>  <minimizedAffinity>
-5.85119772

$$$$

 OpenBabel03252506163D

 37 39  0  0  0  0  0  0  0  0999 V2000
   40.5780   30.4050   40.7570 F   0  0  0  0  0  0  0  0  0  0  0  0
   39.4080   30.8070   40.2840 C   0  0  0  0  0  0  0  0  0  0  0  0
   39.3640   31.3540   39.0190 C   0  0  0  0  0  0  0  0  0  0  0  0
   38.1710   31.8120   38.4190 C   0  0  0  0  0  0  0  0  0  0  0  0
   36.9740   31.7050   39.1450 C   0  0  0  0  0  0  0  0  0  0  0  0
   37.0720   31.1510   40.4050 C   0  0  0  0  0  0  0  0  0  0  0  0
   38.2110   30.7110   40.9850 C   0  0  0  0  0  0  0  0  0  0  0  0
   38.2150   32.2340   37.4130 H   0  0  0  0  0  0  0  0  0  0  0  0
   36.1070   32.0670   38.6410 H   0  0  0  0  0  0  0  0  0  0  0  0
   36.0710   31.1280   40.8400 H   0  0  0  0  0  0  0  0  0  0  0  0
   42.1300   32.8840   37.1700 C   0  0  0  0  0  0  0  0  0  0  0  0
   42.8560   31.7520   36.7280 C   0  0  0  0  0  0  0  0  0  0  0  0
   42.3780   30.4570   37.0770 C   0  0  0  0  0  0  0  0  0  0  0  0
   41.2340   30.3970   37.8260 N   0  0  0  0  0  0  0  0  0  0  0  0
   40.5880   31.4840   38.2160 C   0  0  0  0  0  0  0  0  0  0  0  0
   41.0260   32.7240   37.8950 N   0  0  0  0  0  0  0  0  0  0  0  0
   43.7640   31.7860   36.1350 H   0  0  0  0  0  0  0  0  0  0  0  0
   42.9030   29.5660   36.7610 H   0  0  0  0  0  0  0  0  0  0  0  0
   42.6310   34.1500   36.8080 N   0  0  0  0  0  0  0  0  0  0  0  0
   43.2390   34.8110   37.3130 H   0  0  0  0  0  0  0  0  0  0  0  0
   42.1850   34.2050   35.8520 H   0  0  0  0  0  0  0  0  0  0  0  0
   38.1800   30.1820   42.2420 O   0  0  0  0  0  0  0  0  0  0  0  0
   37.3060   28.1420   43.6780 O   0  0  0  0  0  0  0  0  0  0  0  0
   38.3440   28.5610   42.6650 P   0  0  2  0  0  0  0  0  0  0  0  0
   39.9030   28.3240   43.3340 O   0  0  0  0  0  0  0  0  0  0  0  0
   43.6370   25.9510   43.5560 H   0  0  0  0  0  0  0  0  0  0  0  0
   43.0240   25.7920   42.7490 N   0  0  0  0  0  0  0  0  0  0  0  0
   41.7670   25.1680   43.0700 C   0  0  0  0  0  2  0  0  0  0  0  0
   40.7370   26.1590   43.5550 C   0  0  0  0  0  2  0  0  0  0  0  0
   40.5970   27.3410   42.6370 C   0  0  0  0  0  3  0  0  0  0  0  0
   41.9770   27.9040   42.3590 C   0  0  0  0  0  2  0  0  0  0  0  0
   42.9320   26.8760   41.8210 C   0  0  0  0  0  2  0  0  0  0  0  0
   38.2770   27.5250   41.3440 O   0  0  0  0  0  0  0  0  0  0  0  0
   36.9640   27.0530   41.1410 C   0  0  0  0  0  0  0  0  0  0  0  0
   37.0120   26.4350   39.8850 F   0  0  0  0  0  0  0  0  0  0  0  0
   36.6420   26.0860   42.0600 F   0  0  0  0  0  0  0  0  0  0  0  0
   36.0110   28.0320   41.2010 F   0  0  0  0  0  0  0  0  0  0  0  0
  2  1  1  0  0  0  0
  2  7  1  0  0  0  0
  3  2  2  0  0  0  0
  4  3  1  0  0  0  0
  4  5  2  0  0  0  0
  5  6  1  0  0  0  0
  6 10  1  0  0  0  0
  6  7  2  0  0  0  0
  7 22  1  0  0  0  0
  8  4  1  0  0  0  0
  9  5  1  0  0  0  0
 11 16  1  0  0  0  0
 12 13  1  0  0  0  0
 12 11  2  0  0  0  0
 13 14  2  0  0  0  0
 14 15  1  0  0  0  0
 15  3  1  0  0  0  0
 16 15  2  0  0  0  0
 17 12  1  0  0  0  0
 18 13  1  0  0  0  0
 19 11  1  0  0  0  0
 19 20  1  0  0  0  0
 21 19  1  0  0  0  0
 22 24  1  0  0  0  0
 24 25  1  0  0  0  0
 24 23  2  1  0  0  0
 27 28  1  0  0  0  0
 27 26  1  0  0  0  0
 28 29  1  0  0  0  0
 30 25  1  0  0  0  0
 30 29  1  0  0  0  0
 31 30  1  0  0  0  0
 32 31  1  0  0  0  0
 32 27  1  0  0  0  0
 33 24  1  0  0  0  0
 34 37  1  0  0  0  0
 34 33  1  0  0  0  0
 34 36  1  0  0  0  0
 35 34  1  0  0  0  0
M  END
>  <minimizedAffinity>
-5.82566547

$$$$

 OpenBabel03252506163D

 37 39  0  0  0  0  0  0  0  0999 V2000
   39.0550   30.6400   39.0470 F   0  0  0  0  0  0  0  0  0  0  0  0
   39.6100   30.7320   40.2460 C   0  0  0  0  0  0  0  0  0  0  0  0
   40.9480   31.0550   40.3270 C   0  0  0  0  0  0  0  0  0  0  0  0
   41.6380   31.1810   41.5530 C   0  0  0  0  0  0  0  0  0  0  0  0
   40.9270   30.9660   42.7450 C   0  0  0  0  0  0  0  0  0  0  0  0
   39.5920   30.6460   42.6090 C   0  0  0  0  0  0  0  0  0  0  0  0
   38.9260   30.5240   41.4390 C   0  0  0  0  0  0  0  0  0  0  0  0
   42.6980   31.4400   41.5360 H   0  0  0  0  0  0  0  0  0  0  0  0
   41.5000   31.0740   43.6360 H   0  0  0  0  0  0  0  0  0  0  0  0
   39.1750   30.5160   43.6100 H   0  0  0  0  0  0  0  0  0  0  0  0
   42.4000   32.7820   37.4420 C   0  0  0  0  0  0  0  0  0  0  0  0
   43.1870   31.7640   36.8510 C   0  0  0  0  0  0  0  0  0  0  0  0
   43.2100   30.4780   37.4610 C   0  0  0  0  0  0  0  0  0  0  0  0
   42.4570   30.3130   38.5930 N   0  0  0  0  0  0  0  0  0  0  0  0
   41.7360   31.2950   39.1100 C   0  0  0  0  0  0  0  0  0  0  0  0
   41.7010   32.5240   38.5450 N   0  0  0  0  0  0  0  0  0  0  0  0
   43.7880   31.8820   35.9550 H   0  0  0  0  0  0  0  0  0  0  0  0
   43.7980   29.6730   37.0430 H   0  0  0  0  0  0  0  0  0  0  0  0
   42.4020   34.0420   36.8130 N   0  0  0  0  0  0  0  0  0  0  0  0
   42.9590   34.8900   36.9910 H   0  0  0  0  0  0  0  0  0  0  0  0
   41.6500   33.8400   36.1000 H   0  0  0  0  0  0  0  0  0  0  0  0
   37.6010   30.2000   41.4350 O   0  0  0  0  0  0  0  0  0  0  0  0
   35.4210   28.7320   41.1460 O   0  0  0  0  0  0  0  0  0  0  0  0
   36.9290   28.6740   41.2050 P   0  0  2  0  0  0  0  0  0  0  0  0
   37.3980   27.6660   42.5090 O   0  0  0  0  0  0  0  0  0  0  0  0
   38.7960   23.6870   43.8660 H   0  0  0  0  0  0  0  0  0  0  0  0
   39.0360   23.9710   42.9090 N   0  0  0  0  0  0  0  0  0  0  0  0
   37.9110   24.0610   42.0150 C   0  0  0  0  0  2  0  0  0  0  0  0
   37.1790   25.3760   42.1360 C   0  0  0  0  0  2  0  0  0  0  0  0
   38.1040   26.5590   42.0500 C   0  0  0  0  0  3  0  0  0  0  0  0
   39.2510   26.3480   43.0180 C   0  0  0  0  0  2  0  0  0  0  0  0
   39.9710   25.0470   42.8000 C   0  0  0  0  0  2  0  0  0  0  0  0
   37.5060   27.9000   39.8300 O   0  0  0  0  0  0  0  0  0  0  0  0
   36.7490   28.2580   38.6950 C   0  0  0  0  0  0  0  0  0  0  0  0
   37.5850   27.9510   37.6150 F   0  0  0  0  0  0  0  0  0  0  0  0
   35.6300   27.4720   38.5840 F   0  0  0  0  0  0  0  0  0  0  0  0
   36.3530   29.5670   38.6890 F   0  0  0  0  0  0  0  0  0  0  0  0
  1  2  1  0  0  0  0
  2  3  2  0  0  0  0
  2  7  1  0  0  0  0
  3  4  1  0  0  0  0
  4  5  2  0  0  0  0
  5  9  1  0  0  0  0
  6  5  1  0  0  0  0
  6 10  1  0  0  0  0
  7  6  2  0  0  0  0
  8  4  1  0  0  0  0
 11 16  1  0  0  0  0
 12 11  2  0  0  0  0
 12 13  1  0  0  0  0
 13 14  2  0  0  0  0
 14 15  1  0  0  0  0
 15  3  1  0  0  0  0
 16 15  2  0  0  0  0
 17 12  1  0  0  0  0
 18 13  1  0  0  0  0
 19 20  1  0  0  0  0
 19 11  1  0  0  0  0
 21 19  1  0  0  0  0
 22  7  1  0  0  0  0
 24 23  2  6  0  0  0
 24 22  1  0  0  0  0
 24 25  1  0  0  0  0
 27 26  1  0  0  0  0
 28 29  1  0  0  0  0
 28 27  1  0  0  0  0
 30 29  1  0  0  0  0
 30 25  1  0  0  0  0
 30 31  1  0  0  0  0
 32 27  1  0  0  0  0
 32 31  1  0  0  0  0
 33 24  1  0  0  0  0
 34 33  1  0  0  0  0
 35 34  1  0  0  0  0
 36 34  1  0  0  0  0
 37 34  1  0  0  0  0
M  END
>  <minimizedAffinity>
-5.74719381

$$$$

 OpenBabel03252506163D

 37 39  0  0  0  0  0  0  0  0999 V2000
   37.1530   28.4860   39.8040 F   0  0  0  0  0  0  0  0  0  0  0  0
   37.3360   29.7980   39.8050 C   0  0  0  0  0  0  0  0  0  0  0  0
   36.9090   30.5220   38.7110 C   0  0  0  0  0  0  0  0  0  0  0  0
   37.0540   31.9220   38.6100 C   0  0  0  0  0  0  0  0  0  0  0  0
   37.6610   32.6100   39.6730 C   0  0  0  0  0  0  0  0  0  0  0  0
   38.0700   31.8410   40.7430 C   0  0  0  0  0  0  0  0  0  0  0  0
   37.9350   30.5000   40.8460 C   0  0  0  0  0  0  0  0  0  0  0  0
   36.6910   32.4250   37.7120 H   0  0  0  0  0  0  0  0  0  0  0  0
   37.7430   33.6640   39.5390 H   0  0  0  0  0  0  0  0  0  0  0  0
   38.5130   32.5080   41.4860 H   0  0  0  0  0  0  0  0  0  0  0  0
   36.3970   29.1390   35.3590 C   0  0  0  0  0  0  0  0  0  0  0  0
   35.0880   28.6080   35.4520 C   0  0  0  0  0  0  0  0  0  0  0  0
   34.3870   28.7330   36.6850 C   0  0  0  0  0  0  0  0  0  0  0  0
   35.0380   29.3680   37.7090 N   0  0  0  0  0  0  0  0  0  0  0  0
   36.2630   29.8500   37.5750 C   0  0  0  0  0  0  0  0  0  0  0  0
   36.9460   29.7400   36.4110 N   0  0  0  0  0  0  0  0  0  0  0  0
   34.5620   28.1020   34.6480 H   0  0  0  0  0  0  0  0  0  0  0  0
   33.3870   28.3410   36.7990 H   0  0  0  0  0  0  0  0  0  0  0  0
   37.0620   28.9960   34.1250 N   0  0  0  0  0  0  0  0  0  0  0  0
   37.7310   28.2870   33.7910 H   0  0  0  0  0  0  0  0  0  0  0  0
   36.6560   29.8480   33.6520 H   0  0  0  0  0  0  0  0  0  0  0  0
   38.3820   29.8490   41.9580 O   0  0  0  0  0  0  0  0  0  0  0  0
   40.2560   28.4630   40.7110 O   0  0  0  0  0  0  0  0  0  0  0  0
   39.7230   28.8380   42.0730 P   0  0  2  0  0  0  0  0  0  0  0  0
   39.2650   27.4130   42.9060 O   0  0  0  0  0  0  0  0  0  0  0  0
   37.7770   23.2410   42.8470 H   0  0  0  0  0  0  0  0  0  0  0  0
   37.8410   23.7320   41.9490 N   0  0  0  0  0  0  0  0  0  0  0  0
   36.9100   24.8200   41.7970 C   0  0  0  0  0  2  0  0  0  0  0  0
   37.4010   26.0950   42.4380 C   0  0  0  0  0  2  0  0  0  0  0  0
   38.8010   26.4480   42.0190 C   0  0  0  0  0  3  0  0  0  0  0  0
   39.6840   25.2300   42.2070 C   0  0  0  0  0  2  0  0  0  0  0  0
   39.1660   24.0140   41.4920 C   0  0  0  0  0  2  0  0  0  0  0  0
   40.9670   29.4960   42.9920 O   0  0  0  0  0  0  0  0  0  0  0  0
   41.1070   30.8760   42.7360 C   0  0  0  0  0  0  0  0  0  0  0  0
   39.9960   31.4540   43.3610 F   0  0  0  0  0  0  0  0  0  0  0  0
   42.2280   31.3770   43.3470 F   0  0  0  0  0  0  0  0  0  0  0  0
   41.1720   31.1840   41.4050 F   0  0  0  0  0  0  0  0  0  0  0  0
  1  2  1  0  0  0  0
  2  7  1  0  0  0  0
  3  2  2  0  0  0  0
  4  3  1  0  0  0  0
  4  5  2  0  0  0  0
  5  6  1  0  0  0  0
  6  7  2  0  0  0  0
  6 10  1  0  0  0  0
  7 22  1  0  0  0  0
  8  4  1  0  0  0  0
  9  5  1  0  0  0  0
 11 12  2  0  0  0  0
 11 16  1  0  0  0  0
 12 13  1  0  0  0  0
 13 18  1  0  0  0  0
 13 14  2  0  0  0  0
 15 14  1  0  0  0  0
 15  3  1  0  0  0  0
 16 15  2  0  0  0  0
 17 12  1  0  0  0  0
 19 11  1  0  0  0  0
 20 19  1  0  0  0  0
 21 19  1  0  0  0  0
 22 24  1  0  0  0  0
 24 23  2  6  0  0  0
 24 25  1  0  0  0  0
 24 33  1  0  0  0  0
 27 26  1  0  0  0  0
 28 27  1  0  0  0  0
 28 29  1  0  0  0  0
 30 31  1  0  0  0  0
 30 29  1  0  0  0  0
 30 25  1  0  0  0  0
 32 27  1  0  0  0  0
 32 31  1  0  0  0  0
 34 33  1  0  0  0  0
 34 36  1  0  0  0  0
 34 35  1  0  0  0  0
 37 34  1  0  0  0  0
M  END
>  <minimizedAffinity>
-5.67136145

$$$$

 OpenBabel03252506163D

 37 39  0  0  0  0  0  0  0  0999 V2000
   39.4470   28.5580   39.8820 F   0  0  0  0  0  0  0  0  0  0  0  0
   38.9300   28.3320   41.0790 C   0  0  0  0  0  0  0  0  0  0  0  0
   38.6210   29.4140   41.8770 C   0  0  0  0  0  0  0  0  0  0  0  0
   38.0650   29.2860   43.1680 C   0  0  0  0  0  0  0  0  0  0  0  0
   37.8140   27.9960   43.6630 C   0  0  0  0  0  0  0  0  0  0  0  0
   38.1400   26.9480   42.8260 C   0  0  0  0  0  0  0  0  0  0  0  0
   38.6730   27.0640   41.5900 C   0  0  0  0  0  0  0  0  0  0  0  0
   37.8480   30.1900   43.7400 H   0  0  0  0  0  0  0  0  0  0  0  0
   37.3950   27.9630   44.6420 H   0  0  0  0  0  0  0  0  0  0  0  0
   37.8850   26.0180   43.3390 H   0  0  0  0  0  0  0  0  0  0  0  0
   37.9950   32.7320   40.4590 C   0  0  0  0  0  0  0  0  0  0  0  0
   39.2780   33.3290   40.5200 C   0  0  0  0  0  0  0  0  0  0  0  0
   40.3580   32.5720   41.0560 C   0  0  0  0  0  0  0  0  0  0  0  0
   40.0760   31.3020   41.4810 N   0  0  0  0  0  0  0  0  0  0  0  0
   38.8610   30.7850   41.4040 C   0  0  0  0  0  0  0  0  0  0  0  0
   37.8210   31.4880   40.8980 N   0  0  0  0  0  0  0  0  0  0  0  0
   39.5130   34.3350   40.1870 H   0  0  0  0  0  0  0  0  0  0  0  0
   41.3520   32.9900   41.1220 H   0  0  0  0  0  0  0  0  0  0  0  0
   36.9500   33.5100   39.9240 N   0  0  0  0  0  0  0  0  0  0  0  0
   36.2390   34.1000   40.3800 H   0  0  0  0  0  0  0  0  0  0  0  0
   37.1260   33.2940   38.9050 H   0  0  0  0  0  0  0  0  0  0  0  0
   38.9540   25.9480   40.8570 O   0  0  0  0  0  0  0  0  0  0  0  0
   38.7740   25.8310   38.2220 O   0  0  0  0  0  0  0  0  0  0  0  0
   38.1210   25.3830   39.5080 P   0  0  2  0  0  0  0  0  0  0  0  0
   36.5180   25.9870   39.5590 O   0  0  0  0  0  0  0  0  0  0  0  0
   33.3700   28.6490   37.9420 H   0  0  0  0  0  0  0  0  0  0  0  0
   34.3160   28.7510   37.5590 N   0  0  0  0  0  0  0  0  0  0  0  0
   35.2810   29.2770   38.4900 C   0  0  0  0  0  2  0  0  0  0  0  0
   35.8480   28.2130   39.3980 C   0  0  0  0  0  2  0  0  0  0  0  0
   36.3460   27.0140   38.6390 C   0  0  0  0  0  3  0  0  0  0  0  0
   35.2590   26.5600   37.6850 C   0  0  0  0  0  2  0  0  0  0  0  0
   34.7850   27.6550   36.7710 C   0  0  0  0  0  2  0  0  0  0  0  0
   37.9530   23.7110   39.4900 O   0  0  0  0  0  0  0  0  0  0  0  0
   37.8860   23.1980   40.8010 C   0  0  0  0  0  0  0  0  0  0  0  0
   37.6930   21.8230   40.6210 F   0  0  0  0  0  0  0  0  0  0  0  0
   39.0820   23.3610   41.4540 F   0  0  0  0  0  0  0  0  0  0  0  0
   36.9030   23.7640   41.5640 F   0  0  0  0  0  0  0  0  0  0  0  0
  1  2  1  0  0  0  0
  2  7  2  0  0  0  0
  2  3  1  0  0  0  0
  3  4  2  0  0  0  0
  4  5  1  0  0  0  0
  4  8  1  0  0  0  0
  5  9  1  0  0  0  0
  6 10  1  0  0  0  0
  6  5  2  0  0  0  0
  7  6  1  0  0  0  0
 11 12  2  0  0  0  0
 11 16  1  0  0  0  0
 12 13  1  0  0  0  0
 13 18  1  0  0  0  0
 13 14  2  0  0  0  0
 15 14  1  0  0  0  0
 15  3  1  0  0  0  0
 16 15  2  0  0  0  0
 17 12  1  0  0  0  0
 19 20  1  0  0  0  0
 19 11  1  0  0  0  0
 21 19  1  0  0  0  0
 22  7  1  0  0  0  0
 24 23  2  6  0  0  0
 24 25  1  0  0  0  0
 24 22  1  0  0  0  0
 27 26  1  0  0  0  0
 27 28  1  0  0  0  0
 28 29  1  0  0  0  0
 30 29  1  0  0  0  0
 30 25  1  0  0  0  0
 31 30  1  0  0  0  0
 32 27  1  0  0  0  0
 32 31  1  0  0  0  0
 33 24  1  0  0  0  0
 33 34  1  0  0  0  0
 34 36  1  0  0  0  0
 34 37  1  0  0  0  0
 35 34  1  0  0  0  0
M  END
>  <minimizedAffinity>
-5.65075064

$$$$

 OpenBabel03252506163D

 37 39  0  0  0  0  0  0  0  0999 V2000
   37.4790   27.2070   39.2560 F   0  0  0  0  0  0  0  0  0  0  0  0
   37.3040   27.4150   40.5520 C   0  0  0  0  0  0  0  0  0  0  0  0
   37.1950   26.3190   41.3830 C   0  0  0  0  0  0  0  0  0  0  0  0
   37.0080   26.4260   42.7780 C   0  0  0  0  0  0  0  0  0  0  0  0
   36.9300   27.7090   43.3460 C   0  0  0  0  0  0  0  0  0  0  0  0
   37.0450   28.7700   42.4710 C   0  0  0  0  0  0  0  0  0  0  0  0
   37.2240   28.6740   41.1360 C   0  0  0  0  0  0  0  0  0  0  0  0
   36.9300   25.5130   43.3710 H   0  0  0  0  0  0  0  0  0  0  0  0
   36.7880   27.7260   44.4020 H   0  0  0  0  0  0  0  0  0  0  0  0
   36.9730   29.6920   43.0530 H   0  0  0  0  0  0  0  0  0  0  0  0
   36.2260   23.2160   39.6960 C   0  0  0  0  0  0  0  0  0  0  0  0
   37.3970   22.4300   39.8230 C   0  0  0  0  0  0  0  0  0  0  0  0
   38.5220   22.9850   40.4970 C   0  0  0  0  0  0  0  0  0  0  0  0
   38.3900   24.2590   40.9810 N   0  0  0  0  0  0  0  0  0  0  0  0
   37.2740   24.9560   40.8400 C   0  0  0  0  0  0  0  0  0  0  0  0
   36.1950   24.4460   40.2030 N   0  0  0  0  0  0  0  0  0  0  0  0
   37.5130   21.4200   39.4420 H   0  0  0  0  0  0  0  0  0  0  0  0
   39.4350   22.4200   40.6140 H   0  0  0  0  0  0  0  0  0  0  0  0
   35.1330   22.6370   39.0230 N   0  0  0  0  0  0  0  0  0  0  0  0
   34.8280   22.6990   38.0410 H   0  0  0  0  0  0  0  0  0  0  0  0
   34.7250   22.1170   39.8470 H   0  0  0  0  0  0  0  0  0  0  0  0
   37.3230   29.8020   40.3740 O   0  0  0  0  0  0  0  0  0  0  0  0
   39.7900   29.8560   39.4250 O   0  0  0  0  0  0  0  0  0  0  0  0
   38.7130   30.6990   40.0640 P   0  0  2  0  0  0  0  0  0  0  0  0
   39.3010   31.3290   41.5450 O   0  0  0  0  0  0  0  0  0  0  0  0
   42.7420   33.3630   43.4540 H   0  0  0  0  0  0  0  0  0  0  0  0
   42.9480   32.5980   42.8020 N   0  0  0  0  0  0  0  0  0  0  0  0
   42.5470   31.2960   43.2670 C   0  0  0  0  0  2  0  0  0  0  0  0
   41.0860   31.0140   43.0090 C   0  0  0  0  0  2  0  0  0  0  0  0
   40.6900   31.2860   41.5850 C   0  0  0  0  0  3  0  0  0  0  0  0
   41.1750   32.6700   41.2030 C   0  0  0  0  0  2  0  0  0  0  0  0
   42.6480   32.8580   41.4290 C   0  0  0  0  0  2  0  0  0  0  0  0
   38.4250   32.0480   39.1040 O   0  0  0  0  0  0  0  0  0  0  0  0
   37.5980   32.9750   39.7730 C   0  0  0  0  0  0  0  0  0  0  0  0
   36.7870   33.5030   38.7610 F   0  0  0  0  0  0  0  0  0  0  0  0
   36.7740   32.3400   40.6680 F   0  0  0  0  0  0  0  0  0  0  0  0
   38.2890   33.9460   40.4430 F   0  0  0  0  0  0  0  0  0  0  0  0
  1  2  1  0  0  0  0
  2  7  2  0  0  0  0
  2  3  1  0  0  0  0
  3  4  2  0  0  0  0
  4  5  1  0  0  0  0
  4  8  1  0  0  0  0
  5  9  1  0  0  0  0
  6 10  1  0  0  0  0
  6  5  2  0  0  0  0
  7  6  1  0  0  0  0
 11 12  2  0  0  0  0
 11 16  1  0  0  0  0
 12 13  1  0  0  0  0
 13 18  1  0  0  0  0
 13 14  2  0  0  0  0
 15 14  1  0  0  0  0
 15  3  1  0  0  0  0
 16 15  2  0  0  0  0
 17 12  1  0  0  0  0
 19 11  1  0  0  0  0
 19 21  1  0  0  0  0
 20 19  1  0  0  0  0
 22  7  1  0  0  0  0
 24 23  2  6  0  0  0
 24 22  1  0  0  0  0
 24 25  1  0  0  0  0
 25 30  1  0  0  0  0
 27 28  1  0  0  0  0
 27 26  1  0  0  0  0
 29 28  1  0  0  0  0
 30 29  1  0  0  0  0
 31 32  1  0  0  0  0
 31 30  1  0  0  0  0
 32 27  1  0  0  0  0
 33 34  1  0  0  0  0
 33 24  1  0  0  0  0
 34 37  1  0  0  0  0
 34 36  1  0  0  0  0
 35 34  1  0  0  0  0
M  END
>  <minimizedAffinity>
-5.63322449

$$$$
