
 OpenBabel03252506373D

 42 45  0  0  1  0  0  0  0  0999 V2000
   44.5020   35.5230   45.1400 C   0  0  0  0  0  0  0  0  0  0  0  0
   45.1720   35.5210   43.8980 C   0  0  0  0  0  0  0  0  0  0  0  0
   46.1020   34.5700   43.6500 C   0  0  0  0  0  0  0  0  0  0  0  0
   46.3360   33.6620   44.6300 N   0  0  0  0  0  0  0  0  0  0  0  0
   45.7040   33.6690   45.7940 C   0  0  0  0  0  0  0  0  0  0  0  0
   44.7840   34.5930   46.0650 N   0  0  0  0  0  0  0  0  0  0  0  0
   46.0330   32.6600   46.7630 N   0  0  0  0  0  0  0  0  0  0  0  0
   45.2870   32.4040   47.9400 C   0  0  0  0  0  0  0  0  0  0  0  0
   46.3520   32.0660   48.9650 C   0  0  0  0  0  0  0  0  0  0  0  0
   47.6440   31.9780   48.2090 C   0  0  0  0  0  0  0  0  0  0  0  0
   47.1650   31.7610   46.7730 C   0  0  1  0  0  0  0  0  0  0  0  0
   43.7520   36.3020   45.3230 H   0  0  0  0  0  0  0  0  0  0  0  0
   46.6270   34.5450   42.7140 H   0  0  0  0  0  0  0  0  0  0  0  0
   44.9040   33.4140   48.2940 H   0  0  0  0  0  0  0  0  0  0  0  0
   44.4860   31.7490   48.0350 H   0  0  0  0  0  0  0  0  0  0  0  0
   46.3580   32.7120   49.8440 H   0  0  0  0  0  0  0  0  0  0  0  0
   46.1550   31.0300   49.3680 H   0  0  0  0  0  0  0  0  0  0  0  0
   48.2510   31.1240   48.5370 H   0  0  0  0  0  0  0  0  0  0  0  0
   48.1670   32.9490   48.3060 H   0  0  0  0  0  0  0  0  0  0  0  0
   47.9750   32.0670   46.1100 H   0  0  0  0  0  0  0  0  0  0  0  0
   44.8200   36.5480   42.9540 N   0  0  0  0  0  0  0  0  0  0  0  0
   44.4500   37.4680   43.2250 H   0  0  0  0  0  0  0  0  0  0  0  0
   44.9710   36.2850   41.9430 H   0  0  0  0  0  0  0  0  0  0  0  0
   46.6750   30.0660   46.5750 S   0  0  0  0  0  0  0  0  0  0  0  0
   45.6690   30.6510   43.4470 O   0  0  0  0  0  0  0  0  0  0  0  0
   45.0480   30.0530   44.3410 C   0  0  0  0  0  0  0  0  0  0  0  0
   45.1410   29.7660   45.7960 C   0  0  1  0  0  0  0  0  0  0  0  0
   44.6560   28.3410   45.8500 C   0  0  0  0  0  0  0  0  0  0  0  0
   43.3390   28.5440   45.0960 C   0  0  0  0  0  0  0  0  0  0  0  0
   43.8210   29.3750   44.0000 N   0  0  0  0  0  0  0  0  0  0  0  0
   44.2390   30.3190   46.1660 H   0  0  0  0  0  0  0  0  0  0  0  0
   44.4320   27.9690   46.8580 H   0  0  0  0  0  0  0  0  0  0  0  0
   45.2600   27.6570   45.2290 H   0  0  0  0  0  0  0  0  0  0  0  0
   42.9810   27.5600   44.7790 H   0  0  0  0  0  0  0  0  0  0  0  0
   42.6570   29.0730   45.7840 H   0  0  0  0  0  0  0  0  0  0  0  0
   43.0550   29.5290   39.2080 H   0  0  0  0  0  0  0  0  0  0  0  0
   43.3910   30.2180   39.9200 N   0  0  0  0  0  0  0  0  0  0  0  0
   42.3600   30.6880   40.8100 C   0  0  0  0  0  2  0  0  0  0  0  0
   42.8820   30.8170   42.2440 C   0  0  0  0  0  2  0  0  0  0  0  0
   43.0620   29.4300   42.7520 C   0  0  0  0  0  3  0  0  0  0  0  0
   43.7550   28.6180   41.6560 C   0  0  0  0  0  2  0  0  0  0  0  0
   44.4380   29.5440   40.6660 C   0  0  0  0  0  2  0  0  0  0  0  0
  1 12  1  0  0  0  0
  1  6  1  0  0  0  0
  2  1  2  0  0  0  0
  3  2  1  0  0  0  0
  3  4  2  0  0  0  0
  4  5  1  0  0  0  0
  5  6  2  0  0  0  0
  5  7  1  0  0  0  0
  7 11  1  0  0  0  0
  7  8  1  0  0  0  0
  8 15  1  0  0  0  0
  8 14  1  0  0  0  0
  8  9  1  0  0  0  0
  9 17  1  0  0  0  0
  9 16  1  0  0  0  0
 10 19  1  0  0  0  0
 10 18  1  0  0  0  0
 10  9  1  0  0  0  0
 11 20  1  6  0  0  0
 11 10  1  0  0  0  0
 13  3  1  0  0  0  0
 21 22  1  0  0  0  0
 21  2  1  0  0  0  0
 23 21  1  0  0  0  0
 24 11  1  0  0  0  0
 25 26  2  0  0  0  0
 26 27  1  0  0  0  0
 27 28  1  0  0  0  0
 27 31  1  1  0  0  0
 27 24  1  0  0  0  0
 28 32  1  0  0  0  0
 29 35  1  0  0  0  0
 29 28  1  0  0  0  0
 30 26  1  0  0  0  0
 30 29  1  0  0  0  0
 33 28  1  0  0  0  0
 34 29  1  0  0  0  0
 36 37  1  0  0  0  0
 37 42  1  0  0  0  0
 37 38  1  0  0  0  0
 38 39  1  0  0  0  0
 39 40  1  0  0  0  0
 40 30  1  0  0  0  0
 41 40  1  0  0  0  0
 42 41  1  0  0  0  0
M  END
>  <minimizedAffinity>
-5.17167759

>  <minimizedRMSD>
0.527728379

$$$$
