
 OpenBabel03252506373D

 42 45  0  0  1  0  0  0  0  0999 V2000
   44.5140   35.5260   45.1380 C   0  0  0  0  0  0  0  0  0  0  0  0
   45.1640   35.5050   43.8850 C   0  0  0  0  0  0  0  0  0  0  0  0
   46.0760   34.5390   43.6300 C   0  0  0  0  0  0  0  0  0  0  0  0
   46.3130   33.6340   44.6130 N   0  0  0  0  0  0  0  0  0  0  0  0
   45.6980   33.6590   45.7860 C   0  0  0  0  0  0  0  0  0  0  0  0
   44.7970   34.5980   46.0650 N   0  0  0  0  0  0  0  0  0  0  0  0
   46.0280   32.6510   46.7580 N   0  0  0  0  0  0  0  0  0  0  0  0
   45.2960   32.4150   47.9470 C   0  0  0  0  0  0  0  0  0  0  0  0
   46.3720   32.0690   48.9580 C   0  0  0  0  0  0  0  0  0  0  0  0
   47.6500   31.9560   48.1830 C   0  0  0  0  0  0  0  0  0  0  0  0
   47.1460   31.7360   46.7570 C   0  0  1  0  0  0  0  0  0  0  0  0
   43.7780   36.3160   45.3260 H   0  0  0  0  0  0  0  0  0  0  0  0
   46.5860   34.5000   42.6870 H   0  0  0  0  0  0  0  0  0  0  0  0
   44.9330   33.4330   48.3000 H   0  0  0  0  0  0  0  0  0  0  0  0
   44.4870   31.7720   48.0600 H   0  0  0  0  0  0  0  0  0  0  0  0
   46.4000   32.7200   49.8330 H   0  0  0  0  0  0  0  0  0  0  0  0
   46.1660   31.0380   49.3720 H   0  0  0  0  0  0  0  0  0  0  0  0
   48.2490   31.0960   48.5080 H   0  0  0  0  0  0  0  0  0  0  0  0
   48.1890   32.9200   48.2650 H   0  0  0  0  0  0  0  0  0  0  0  0
   47.9500   32.0260   46.0790 H   0  0  0  0  0  0  0  0  0  0  0  0
   44.8130   36.5310   42.9400 N   0  0  0  0  0  0  0  0  0  0  0  0
   44.4610   37.4580   43.2100 H   0  0  0  0  0  0  0  0  0  0  0  0
   44.9440   36.2580   41.9280 H   0  0  0  0  0  0  0  0  0  0  0  0
   46.6290   30.0470   46.5780 S   0  0  0  0  0  0  0  0  0  0  0  0
   45.6700   30.4310   43.4050 O   0  0  0  0  0  0  0  0  0  0  0  0
   45.0150   29.9390   44.3370 C   0  0  0  0  0  0  0  0  0  0  0  0
   45.0860   29.7640   45.8120 C   0  0  1  0  0  0  0  0  0  0  0  0
   44.5290   28.3740   45.9730 C   0  0  0  0  0  0  0  0  0  0  0  0
   43.2270   28.5830   45.1930 C   0  0  0  0  0  0  0  0  0  0  0  0
   43.7570   29.2980   44.0400 N   0  0  0  0  0  0  0  0  0  0  0  0
   44.2100   30.3890   46.1290 H   0  0  0  0  0  0  0  0  0  0  0  0
   44.2810   28.0950   47.0060 H   0  0  0  0  0  0  0  0  0  0  0  0
   45.1000   27.6130   45.4140 H   0  0  0  0  0  0  0  0  0  0  0  0
   42.8210   27.5960   44.9520 H   0  0  0  0  0  0  0  0  0  0  0  0
   42.5700   29.1980   45.8320 H   0  0  0  0  0  0  0  0  0  0  0  0
   40.2250   30.4300   40.9080 H   0  0  0  0  0  0  0  0  0  0  0  0
   40.2870   29.8170   41.7530 N   0  0  0  0  0  0  0  0  0  0  0  0
   41.0460   28.6110   41.5470 C   0  0  0  0  0  2  0  0  0  0  0  0
   41.9130   28.2850   42.7670 C   0  0  0  0  0  2  0  0  0  0  0  0
   43.0080   29.2920   42.7840 C   0  0  0  0  0  3  0  0  0  0  0  0
   42.3860   30.6630   42.5140 C   0  0  0  0  0  2  0  0  0  0  0  0
   40.8950   30.6300   42.7920 C   0  0  0  0  0  2  0  0  0  0  0  0
  1 12  1  0  0  0  0
  1  6  1  0  0  0  0
  2  1  2  0  0  0  0
  3  2  1  0  0  0  0
  3  4  2  0  0  0  0
  4  5  1  0  0  0  0
  5  6  2  0  0  0  0
  5  7  1  0  0  0  0
  7  8  1  0  0  0  0
  8 15  1  0  0  0  0
  8 14  1  0  0  0  0
  8  9  1  0  0  0  0
  9 17  1  0  0  0  0
  9 16  1  0  0  0  0
 10 19  1  0  0  0  0
 10 18  1  0  0  0  0
 10  9  1  0  0  0  0
 11 20  1  6  0  0  0
 11  7  1  0  0  0  0
 11 10  1  0  0  0  0
 13  3  1  0  0  0  0
 21 22  1  0  0  0  0
 21  2  1  0  0  0  0
 23 21  1  0  0  0  0
 24 11  1  0  0  0  0
 25 26  2  0  0  0  0
 26 27  1  0  0  0  0
 27 28  1  0  0  0  0
 27 31  1  1  0  0  0
 27 24  1  0  0  0  0
 28 32  1  0  0  0  0
 29 35  1  0  0  0  0
 29 28  1  0  0  0  0
 30 26  1  0  0  0  0
 30 29  1  0  0  0  0
 33 28  1  0  0  0  0
 34 29  1  0  0  0  0
 36 37  1  0  0  0  0
 37 42  1  0  0  0  0
 38 37  1  0  0  0  0
 38 39  1  0  0  0  0
 39 40  1  0  0  0  0
 40 30  1  0  0  0  0
 41 40  1  0  0  0  0
 41 42  1  0  0  0  0
M  END
>  <minimizedAffinity>
-5.61254168

>  <minimizedRMSD>
1.16997945

$$$$
