
 OpenBabel03252506383D

 42 45  0  0  1  0  0  0  0  0999 V2000
   44.5060   35.5450   45.1390 C   0  0  0  0  0  0  0  0  0  0  0  0
   45.1540   35.5360   43.8850 C   0  0  0  0  0  0  0  0  0  0  0  0
   46.0660   34.5740   43.6190 C   0  0  0  0  0  0  0  0  0  0  0  0
   46.3050   33.6590   44.5930 N   0  0  0  0  0  0  0  0  0  0  0  0
   45.6930   33.6730   45.7670 C   0  0  0  0  0  0  0  0  0  0  0  0
   44.7910   34.6080   46.0570 N   0  0  0  0  0  0  0  0  0  0  0  0
   46.0250   32.6560   46.7290 N   0  0  0  0  0  0  0  0  0  0  0  0
   45.2960   32.4080   47.9180 C   0  0  0  0  0  0  0  0  0  0  0  0
   46.3740   32.0540   48.9230 C   0  0  0  0  0  0  0  0  0  0  0  0
   47.6500   31.9490   48.1450 C   0  0  0  0  0  0  0  0  0  0  0  0
   47.1440   31.7420   46.7180 C   0  0  1  0  0  0  0  0  0  0  0  0
   43.7690   36.3330   45.3360 H   0  0  0  0  0  0  0  0  0  0  0  0
   46.5750   34.5440   42.6740 H   0  0  0  0  0  0  0  0  0  0  0  0
   44.9320   33.4230   48.2810 H   0  0  0  0  0  0  0  0  0  0  0  0
   44.4870   31.7640   48.0260 H   0  0  0  0  0  0  0  0  0  0  0  0
   46.4030   32.6970   49.8040 H   0  0  0  0  0  0  0  0  0  0  0  0
   46.1690   31.0200   49.3280 H   0  0  0  0  0  0  0  0  0  0  0  0
   48.2510   31.0870   48.4610 H   0  0  0  0  0  0  0  0  0  0  0  0
   48.1890   32.9130   48.2360 H   0  0  0  0  0  0  0  0  0  0  0  0
   47.9470   32.0390   46.0410 H   0  0  0  0  0  0  0  0  0  0  0  0
   44.8000   36.5700   42.9500 N   0  0  0  0  0  0  0  0  0  0  0  0
   44.4470   37.4940   43.2290 H   0  0  0  0  0  0  0  0  0  0  0  0
   44.9300   36.3070   41.9350 H   0  0  0  0  0  0  0  0  0  0  0  0
   46.6280   30.0550   46.5250 S   0  0  0  0  0  0  0  0  0  0  0  0
   45.6800   30.5730   43.3670 O   0  0  0  0  0  0  0  0  0  0  0  0
   45.0300   30.0210   44.2690 C   0  0  0  0  0  0  0  0  0  0  0  0
   45.0960   29.7760   45.7340 C   0  0  1  0  0  0  0  0  0  0  0  0
   44.5690   28.3680   45.8240 C   0  0  0  0  0  0  0  0  0  0  0  0
   43.2680   28.5870   45.0460 C   0  0  0  0  0  0  0  0  0  0  0  0
   43.7880   29.3690   43.9320 N   0  0  0  0  0  0  0  0  0  0  0  0
   44.2050   30.3660   46.0750 H   0  0  0  0  0  0  0  0  0  0  0  0
   44.3210   28.0330   46.8390 H   0  0  0  0  0  0  0  0  0  0  0  0
   45.1600   27.6480   45.2320 H   0  0  0  0  0  0  0  0  0  0  0  0
   42.8850   27.6040   44.7540 H   0  0  0  0  0  0  0  0  0  0  0  0
   42.5930   29.1560   45.7090 H   0  0  0  0  0  0  0  0  0  0  0  0
   40.2230   30.5330   40.8500 H   0  0  0  0  0  0  0  0  0  0  0  0
   40.3100   29.8710   41.6550 N   0  0  0  0  0  0  0  0  0  0  0  0
   41.1270   28.7160   41.3780 C   0  0  0  0  0  2  0  0  0  0  0  0
   42.0010   28.3540   42.5820 C   0  0  0  0  0  2  0  0  0  0  0  0
   43.0470   29.4090   42.6730 C   0  0  0  0  0  3  0  0  0  0  0  0
   42.3630   30.7640   42.4840 C   0  0  0  0  0  2  0  0  0  0  0  0
   40.8740   30.6420   42.7480 C   0  0  0  0  0  2  0  0  0  0  0  0
  1 12  1  0  0  0  0
  1  6  1  0  0  0  0
  2  1  2  0  0  0  0
  3  2  1  0  0  0  0
  3  4  2  0  0  0  0
  4  5  1  0  0  0  0
  5  6  2  0  0  0  0
  5  7  1  0  0  0  0
  7  8  1  0  0  0  0
  8 15  1  0  0  0  0
  8 14  1  0  0  0  0
  8  9  1  0  0  0  0
  9 17  1  0  0  0  0
  9 16  1  0  0  0  0
 10 19  1  0  0  0  0
 10 18  1  0  0  0  0
 10  9  1  0  0  0  0
 11 20  1  6  0  0  0
 11  7  1  0  0  0  0
 11 10  1  0  0  0  0
 13  3  1  0  0  0  0
 21 22  1  0  0  0  0
 21  2  1  0  0  0  0
 23 21  1  0  0  0  0
 24 11  1  0  0  0  0
 25 26  2  0  0  0  0
 26 27  1  0  0  0  0
 27 28  1  0  0  0  0
 27 31  1  1  0  0  0
 27 24  1  0  0  0  0
 28 32  1  0  0  0  0
 29 35  1  0  0  0  0
 29 28  1  0  0  0  0
 30 26  1  0  0  0  0
 30 29  1  0  0  0  0
 33 28  1  0  0  0  0
 34 29  1  0  0  0  0
 36 37  1  0  0  0  0
 37 42  1  0  0  0  0
 38 37  1  0  0  0  0
 38 39  1  0  0  0  0
 39 40  1  0  0  0  0
 40 30  1  0  0  0  0
 41 40  1  0  0  0  0
 41 42  1  0  0  0  0
M  END
>  <minimizedAffinity>
-5.59370327

>  <minimizedRMSD>
1.40125

$$$$
