
 OpenBabel03252506383D

 42 45  0  0  1  0  0  0  0  0999 V2000
   44.5120   35.5280   45.1380 C   0  0  0  0  0  0  0  0  0  0  0  0
   45.1630   35.5080   43.8850 C   0  0  0  0  0  0  0  0  0  0  0  0
   46.0750   34.5420   43.6300 C   0  0  0  0  0  0  0  0  0  0  0  0
   46.3110   33.6370   44.6130 N   0  0  0  0  0  0  0  0  0  0  0  0
   45.6970   33.6620   45.7860 C   0  0  0  0  0  0  0  0  0  0  0  0
   44.7950   34.6000   46.0650 N   0  0  0  0  0  0  0  0  0  0  0  0
   46.0270   32.6540   46.7570 N   0  0  0  0  0  0  0  0  0  0  0  0
   45.2960   32.4170   47.9460 C   0  0  0  0  0  0  0  0  0  0  0  0
   46.3720   32.0710   48.9570 C   0  0  0  0  0  0  0  0  0  0  0  0
   47.6500   31.9580   48.1820 C   0  0  0  0  0  0  0  0  0  0  0  0
   47.1460   31.7390   46.7560 C   0  0  1  0  0  0  0  0  0  0  0  0
   43.7760   36.3190   45.3270 H   0  0  0  0  0  0  0  0  0  0  0  0
   46.5850   34.5040   42.6860 H   0  0  0  0  0  0  0  0  0  0  0  0
   44.9320   33.4350   48.3000 H   0  0  0  0  0  0  0  0  0  0  0  0
   44.4870   31.7740   48.0590 H   0  0  0  0  0  0  0  0  0  0  0  0
   46.4000   32.7220   49.8320 H   0  0  0  0  0  0  0  0  0  0  0  0
   46.1660   31.0400   49.3710 H   0  0  0  0  0  0  0  0  0  0  0  0
   48.2490   31.0990   48.5070 H   0  0  0  0  0  0  0  0  0  0  0  0
   48.1890   32.9230   48.2650 H   0  0  0  0  0  0  0  0  0  0  0  0
   47.9500   32.0290   46.0780 H   0  0  0  0  0  0  0  0  0  0  0  0
   44.8110   36.5340   42.9400 N   0  0  0  0  0  0  0  0  0  0  0  0
   44.4580   37.4610   43.2100 H   0  0  0  0  0  0  0  0  0  0  0  0
   44.9420   36.2620   41.9280 H   0  0  0  0  0  0  0  0  0  0  0  0
   46.6290   30.0500   46.5770 S   0  0  0  0  0  0  0  0  0  0  0  0
   45.6720   30.4470   43.4040 O   0  0  0  0  0  0  0  0  0  0  0  0
   45.0170   29.9480   44.3340 C   0  0  0  0  0  0  0  0  0  0  0  0
   45.0870   29.7660   45.8080 C   0  0  1  0  0  0  0  0  0  0  0  0
   44.5340   28.3730   45.9620 C   0  0  0  0  0  0  0  0  0  0  0  0
   43.2330   28.5830   45.1820 C   0  0  0  0  0  0  0  0  0  0  0  0
   43.7610   29.3060   44.0320 N   0  0  0  0  0  0  0  0  0  0  0  0
   44.2100   30.3870   46.1270 H   0  0  0  0  0  0  0  0  0  0  0  0
   44.2860   28.0880   46.9920 H   0  0  0  0  0  0  0  0  0  0  0  0
   45.1080   27.6180   45.3990 H   0  0  0  0  0  0  0  0  0  0  0  0
   42.8290   27.5960   44.9350 H   0  0  0  0  0  0  0  0  0  0  0  0
   42.5730   29.1930   45.8230 H   0  0  0  0  0  0  0  0  0  0  0  0
   40.2260   30.4400   40.9040 H   0  0  0  0  0  0  0  0  0  0  0  0
   40.2900   29.8230   41.7460 N   0  0  0  0  0  0  0  0  0  0  0  0
   41.0560   28.6210   41.5330 C   0  0  0  0  0  2  0  0  0  0  0  0
   41.9230   28.2920   42.7530 C   0  0  0  0  0  2  0  0  0  0  0  0
   43.0130   29.3040   42.7760 C   0  0  0  0  0  3  0  0  0  0  0  0
   42.3860   30.6740   42.5130 C   0  0  0  0  0  2  0  0  0  0  0  0
   40.8950   30.6330   42.7900 C   0  0  0  0  0  2  0  0  0  0  0  0
  1 12  1  0  0  0  0
  1  6  1  0  0  0  0
  2  1  2  0  0  0  0
  3  2  1  0  0  0  0
  3  4  2  0  0  0  0
  4  5  1  0  0  0  0
  5  6  2  0  0  0  0
  5  7  1  0  0  0  0
  7  8  1  0  0  0  0
  8 15  1  0  0  0  0
  8 14  1  0  0  0  0
  8  9  1  0  0  0  0
  9 17  1  0  0  0  0
  9 16  1  0  0  0  0
 10 19  1  0  0  0  0
 10 18  1  0  0  0  0
 10  9  1  0  0  0  0
 11 20  1  6  0  0  0
 11  7  1  0  0  0  0
 11 10  1  0  0  0  0
 13  3  1  0  0  0  0
 21 22  1  0  0  0  0
 21  2  1  0  0  0  0
 23 21  1  0  0  0  0
 24 11  1  0  0  0  0
 25 26  2  0  0  0  0
 26 27  1  0  0  0  0
 27 28  1  0  0  0  0
 27 31  1  1  0  0  0
 27 24  1  0  0  0  0
 28 32  1  0  0  0  0
 29 35  1  0  0  0  0
 29 28  1  0  0  0  0
 30 26  1  0  0  0  0
 30 29  1  0  0  0  0
 33 28  1  0  0  0  0
 34 29  1  0  0  0  0
 36 37  1  0  0  0  0
 37 42  1  0  0  0  0
 38 37  1  0  0  0  0
 38 39  1  0  0  0  0
 39 40  1  0  0  0  0
 40 30  1  0  0  0  0
 41 40  1  0  0  0  0
 41 42  1  0  0  0  0
M  END
>  <minimizedAffinity>
-5.61077166

>  <minimizedRMSD>
0.87931186

$$$$
