
 OpenBabel03252508083D

 42 45  0  0  0  0  0  0  0  0999 V2000
   45.1310   35.5530   43.2890 C   0  0  0  0  0  0  0  0  0  0  0  0
   45.5190   34.2190   43.3340 C   0  0  0  0  0  0  0  0  0  0  0  0
   45.4500   33.5320   44.5220 C   0  0  0  0  0  0  0  0  0  0  0  0
   44.9890   34.2240   45.6240 N   0  0  0  0  0  0  0  0  0  0  0  0
   44.6190   35.5020   45.5720 C   0  0  0  0  0  0  0  0  0  0  0  0
   44.6960   36.1560   44.3930 N   0  0  0  0  0  0  0  0  0  0  0  0
   45.1640   36.1430   42.3820 H   0  0  0  0  0  0  0  0  0  0  0  0
   44.2600   36.0490   46.4170 H   0  0  0  0  0  0  0  0  0  0  0  0
   45.8040   32.1810   44.7360 C   0  0  0  0  0  0  0  0  0  0  0  0
   45.4630   31.1350   43.8740 C   0  0  0  0  0  0  0  0  0  0  0  0
   45.7440   29.8160   44.1140 C   0  0  0  0  0  0  0  0  0  0  0  0
   46.4040   29.4590   45.2650 C   0  0  0  0  0  0  0  0  0  0  0  0
   46.7630   30.5070   46.1560 C   0  0  0  0  0  0  0  0  0  0  0  0
   47.4190   30.1610   47.3100 C   0  0  0  0  0  0  0  0  0  0  0  0
   47.7970   31.1280   48.2180 C   0  0  0  0  0  0  0  0  0  0  0  0
   47.5060   32.4800   47.9520 C   0  0  0  0  0  0  0  0  0  0  0  0
   46.8310   32.7820   46.7550 C   0  0  0  0  0  0  0  0  0  0  0  0
   46.4650   31.8000   45.8760 C   0  0  0  0  0  0  0  0  0  0  0  0
   44.9390   31.4240   42.9630 H   0  0  0  0  0  0  0  0  0  0  0  0
   45.4790   29.0180   43.4460 H   0  0  0  0  0  0  0  0  0  0  0  0
   46.6620   28.4430   45.5290 H   0  0  0  0  0  0  0  0  0  0  0  0
   47.6510   29.1290   47.5280 H   0  0  0  0  0  0  0  0  0  0  0  0
   48.3130   30.8030   49.1180 H   0  0  0  0  0  0  0  0  0  0  0  0
   47.8420   33.1480   48.7130 H   0  0  0  0  0  0  0  0  0  0  0  0
   46.7240   33.8440   46.7230 H   0  0  0  0  0  0  0  0  0  0  0  0
   45.9510   33.6550   42.1710 O   0  0  0  0  0  0  0  0  0  0  0  0
   48.1410   32.2940   41.7360 O   0  0  0  0  0  0  0  0  0  0  0  0
   47.5600   33.6580   41.6350 P   0  0  1  0  0  0  0  0  0  0  0  0
   47.6550   34.1460   40.0310 O   0  0  0  0  0  0  0  0  0  0  0  0
   47.5300   33.5880   35.2640 H   0  0  0  0  0  0  0  0  0  0  0  0
   47.4320   33.6840   36.3070 N   0  0  0  0  0  0  0  0  0  0  0  0
   48.7280   33.5790   36.8840 C   0  0  0  0  0  2  0  0  0  0  0  0
   48.8140   33.1000   38.2840 C   0  0  0  0  0  2  0  0  0  0  0  0
   47.5510   33.1410   39.0890 C   0  0  0  0  0  3  0  0  0  0  0  0
   46.2960   33.1580   38.3030 C   0  0  0  0  0  2  0  0  0  0  0  0
   46.5680   32.6880   36.8880 C   0  0  0  0  0  2  0  0  0  0  0  0
   48.4220   34.7470   42.5780 O   0  0  0  0  0  0  0  0  0  0  0  0
   49.6300   35.3470   42.2570 C   0  0  0  0  0  0  0  0  0  0  0  0
   49.3130   36.3940   41.6610 O   0  0  0  0  0  0  0  0  0  0  0  0
   50.7390   34.5540   42.7230 N   0  0  0  0  0  0  0  0  0  0  0  0
   51.4480   34.0560   42.1170 H   0  0  0  0  0  0  0  0  0  0  0  0
   50.8440   34.4700   43.7740 H   0  0  0  0  0  0  0  0  0  0  0  0
  1  2  2  0  0  0  0
  1  6  1  0  0  0  0
  2  3  1  0  0  0  0
  3  9  1  0  0  0  0
  3  4  2  0  0  0  0
  5  4  1  0  0  0  0
  5  8  1  0  0  0  0
  6  5  2  0  0  0  0
  7  1  1  0  0  0  0
  9 18  1  0  0  0  0
 10 11  1  0  0  0  0
 10  9  2  0  0  0  0
 11 12  2  0  0  0  0
 12 21  1  0  0  0  0
 12 13  1  0  0  0  0
 13 14  1  0  0  0  0
 14 22  1  0  0  0  0
 14 15  2  0  0  0  0
 15 23  1  0  0  0  0
 16 15  1  0  0  0  0
 16 24  1  0  0  0  0
 17 16  2  0  0  0  0
 18 13  2  0  0  0  0
 18 17  1  0  0  0  0
 19 10  1  0  0  0  0
 20 11  1  0  0  0  0
 25 17  1  0  0  0  0
 26  2  1  0  0  0  0
 28 27  2  1  0  0  0
 28 26  1  0  0  0  0
 28 37  1  0  0  0  0
 29 28  1  0  0  0  0
 30 31  1  0  0  0  0
 31 32  1  0  0  0  0
 31 36  1  0  0  0  0
 32 33  1  0  0  0  0
 33 34  1  0  0  0  0
 34 29  1  0  0  0  0
 35 34  1  0  0  0  0
 36 35  1  0  0  0  0
 38 37  1  0  0  0  0
 38 40  1  0  0  0  0
 39 38  2  0  0  0  0
 40 42  1  0  0  0  0
 41 40  1  0  0  0  0
M  END
>  <minimizedAffinity>
-6.44964075

>  <minimizedRMSD>
0.762592912

$$$$
