
 OpenBabel03252502243D

 32 34  0  0  1  0  0  0  0  0999 V2000
   46.8390   34.6070   42.2970 N   0  0  0  0  0  0  0  0  0  0  0  0
   48.3000   34.6690   42.3470 C   0  0  0  0  0  0  0  0  0  0  0  0
   48.6850   35.4540   41.0890 C   0  0  0  0  0  0  0  0  0  0  0  0
   48.3380   34.6350   39.8710 C   0  0  0  0  0  0  0  0  0  0  0  0
   47.0070   33.9800   39.9350 C   0  0  0  0  0  0  0  0  0  0  0  0
   46.1270   34.3810   41.0830 C   0  0  1  0  0  0  0  0  0  0  0  0
   48.7100   33.6450   42.2500 H   0  0  0  0  0  0  0  0  0  0  0  0
   48.6570   35.1520   43.2550 H   0  0  0  0  0  0  0  0  0  0  0  0
   48.1770   36.4320   41.1060 H   0  0  0  0  0  0  0  0  0  0  0  0
   49.8000   35.5460   41.1480 H   0  0  0  0  0  0  0  0  0  0  0  0
   48.4860   35.2910   38.9920 H   0  0  0  0  0  0  0  0  0  0  0  0
   49.1140   33.8260   39.8020 H   0  0  0  0  0  0  0  0  0  0  0  0
   47.0730   32.8700   39.8800 H   0  0  0  0  0  0  0  0  0  0  0  0
   46.4580   34.2860   39.0030 H   0  0  0  0  0  0  0  0  0  0  0  0
   45.5600   35.3160   40.8630 H   0  0  0  0  0  0  0  0  0  0  0  0
   44.4780   35.9360   44.8610 C   0  0  0  0  0  0  0  0  0  0  0  0
   45.1880   35.8460   43.6600 C   0  0  0  0  0  0  0  0  0  0  0  0
   46.0770   34.7750   43.4880 C   0  0  0  0  0  0  0  0  0  0  0  0
   46.1860   33.8910   44.5170 N   0  0  0  0  0  0  0  0  0  0  0  0
   45.4850   34.0060   45.6670 C   0  0  0  0  0  0  0  0  0  0  0  0
   44.6300   35.0420   45.8250 N   0  0  0  0  0  0  0  0  0  0  0  0
   43.8200   36.7930   44.8990 H   0  0  0  0  0  0  0  0  0  0  0  0
   45.0710   36.5820   42.8520 H   0  0  0  0  0  0  0  0  0  0  0  0
   45.6460   33.2380   46.4370 H   0  0  0  0  0  0  0  0  0  0  0  0
   45.2290   33.3220   41.2900 O   0  0  0  0  0  0  0  0  0  0  0  0
   41.1170   34.5500   41.7620 H   0  0  0  0  0  0  0  0  0  0  0  0
   41.2210   34.1500   40.8220 N   0  0  0  0  0  0  0  0  0  0  0  0
   41.6490   32.7760   40.9920 C   0  0  0  0  0  2  0  0  0  0  0  0
   43.0160   32.7950   41.6070 C   0  0  0  0  0  2  0  0  0  0  0  0
   44.0070   33.5130   40.6970 C   0  0  0  0  0  3  0  0  0  0  0  0
   43.5410   34.9270   40.6110 C   0  0  0  0  0  2  0  0  0  0  0  0
   42.1330   34.8850   40.0030 C   0  0  0  0  0  2  0  0  0  0  0  0
  1  2  1  0  0  0  0
  1 18  1  0  0  0  0
  2  8  1  0  0  0  0
  3  9  1  0  0  0  0
  3 10  1  0  0  0  0
  3  2  1  0  0  0  0
  4  5  1  0  0  0  0
  4  3  1  0  0  0  0
  5  6  1  0  0  0  0
  6 15  1  6  0  0  0
  6 25  1  0  0  0  0
  6  1  1  0  0  0  0
  7  2  1  0  0  0  0
 11  4  1  0  0  0  0
 12  4  1  0  0  0  0
 13  5  1  0  0  0  0
 14  5  1  0  0  0  0
 16 22  1  0  0  0  0
 16 21  1  0  0  0  0
 17 16  2  0  0  0  0
 18 17  1  0  0  0  0
 18 19  2  0  0  0  0
 19 20  1  0  0  0  0
 20 21  2  0  0  0  0
 20 24  1  0  0  0  0
 23 17  1  0  0  0  0
 27 28  1  0  0  0  0
 27 26  1  0  0  0  0
 28 29  1  0  0  0  0
 30 25  1  0  0  0  0
 30 29  1  0  0  0  0
 31 30  1  0  0  0  0
 32 31  1  0  0  0  0
 32 27  1  0  0  0  0
M  END
>  <minimizedAffinity>
-5.65355301

>  <minimizedRMSD>
0.754730523

$$$$
