
 OpenBabel03252508073D

 42 45  0  0  0  0  0  0  0  0999 V2000
   45.1360   35.6510   43.2220 C   0  0  0  0  0  0  0  0  0  0  0  0
   45.5040   34.3100   43.2450 C   0  0  0  0  0  0  0  0  0  0  0  0
   45.4200   33.6030   44.4210 C   0  0  0  0  0  0  0  0  0  0  0  0
   44.9640   34.2830   45.5330 N   0  0  0  0  0  0  0  0  0  0  0  0
   44.6140   35.5670   45.5010 C   0  0  0  0  0  0  0  0  0  0  0  0
   44.7060   36.2410   44.3340 N   0  0  0  0  0  0  0  0  0  0  0  0
   45.1830   36.2560   42.3250 H   0  0  0  0  0  0  0  0  0  0  0  0
   44.2600   36.1050   46.3540 H   0  0  0  0  0  0  0  0  0  0  0  0
   45.7520   32.2440   44.6120 C   0  0  0  0  0  0  0  0  0  0  0  0
   45.4030   31.2190   43.7280 C   0  0  0  0  0  0  0  0  0  0  0  0
   45.6630   29.8920   43.9460 C   0  0  0  0  0  0  0  0  0  0  0  0
   46.3080   29.5040   45.0960 C   0  0  0  0  0  0  0  0  0  0  0  0
   46.6750   30.5300   46.0090 C   0  0  0  0  0  0  0  0  0  0  0  0
   47.3160   30.1540   47.1620 C   0  0  0  0  0  0  0  0  0  0  0  0
   47.7010   31.0980   48.0900 C   0  0  0  0  0  0  0  0  0  0  0  0
   47.4310   32.4590   47.8460 C   0  0  0  0  0  0  0  0  0  0  0  0
   46.7710   32.7920   46.6510 C   0  0  0  0  0  0  0  0  0  0  0  0
   46.3980   31.8320   45.7500 C   0  0  0  0  0  0  0  0  0  0  0  0
   44.8910   31.5320   42.8180 H   0  0  0  0  0  0  0  0  0  0  0  0
   45.3920   29.1100   43.2610 H   0  0  0  0  0  0  0  0  0  0  0  0
   46.5490   28.4800   45.3430 H   0  0  0  0  0  0  0  0  0  0  0  0
   47.5310   29.1150   47.3620 H   0  0  0  0  0  0  0  0  0  0  0  0
   48.2040   30.7490   48.9880 H   0  0  0  0  0  0  0  0  0  0  0  0
   47.7700   33.1070   48.6220 H   0  0  0  0  0  0  0  0  0  0  0  0
   46.6790   33.8560   46.6370 H   0  0  0  0  0  0  0  0  0  0  0  0
   45.9330   33.7600   42.0740 O   0  0  0  0  0  0  0  0  0  0  0  0
   48.1070   32.4030   41.5550 O   0  0  0  0  0  0  0  0  0  0  0  0
   47.5390   33.7760   41.5300 P   0  0  1  0  0  0  0  0  0  0  0  0
   47.6300   34.3480   39.9530 O   0  0  0  0  0  0  0  0  0  0  0  0
   46.0780   29.8430   39.3720 H   0  0  0  0  0  0  0  0  0  0  0  0
   46.5350   30.7820   39.4890 N   0  0  0  0  0  0  0  0  0  0  0  0
   45.5590   31.7840   39.2350 C   0  0  0  0  0  2  0  0  0  0  0  0
   46.0430   33.1030   38.7620 C   0  0  0  0  0  2  0  0  0  0  0  0
   47.4990   33.3970   38.9600 C   0  0  0  0  0  3  0  0  0  0  0  0
   48.3710   32.2110   39.1190 C   0  0  0  0  0  2  0  0  0  0  0  0
   47.6600   30.9740   38.6080 C   0  0  0  0  0  2  0  0  0  0  0  0
   48.4160   34.8050   42.5240 O   0  0  0  0  0  0  0  0  0  0  0  0
   49.6420   35.3870   42.2390 C   0  0  0  0  0  0  0  0  0  0  0  0
   49.3580   36.4510   41.6570 O   0  0  0  0  0  0  0  0  0  0  0  0
   50.7260   34.5640   42.7130 N   0  0  0  0  0  0  0  0  0  0  0  0
   51.4380   34.0650   42.1120 H   0  0  0  0  0  0  0  0  0  0  0  0
   50.8070   34.4590   43.7640 H   0  0  0  0  0  0  0  0  0  0  0  0
  1  2  2  0  0  0  0
  1  6  1  0  0  0  0
  2  3  1  0  0  0  0
  3  9  1  0  0  0  0
  3  4  2  0  0  0  0
  5  4  1  0  0  0  0
  5  8  1  0  0  0  0
  6  5  2  0  0  0  0
  7  1  1  0  0  0  0
  9 18  1  0  0  0  0
 10 11  1  0  0  0  0
 10  9  2  0  0  0  0
 11 12  2  0  0  0  0
 12 21  1  0  0  0  0
 12 13  1  0  0  0  0
 13 14  1  0  0  0  0
 14 22  1  0  0  0  0
 14 15  2  0  0  0  0
 15 23  1  0  0  0  0
 16 15  1  0  0  0  0
 16 24  1  0  0  0  0
 17 16  2  0  0  0  0
 18 13  2  0  0  0  0
 18 17  1  0  0  0  0
 19 10  1  0  0  0  0
 20 11  1  0  0  0  0
 25 17  1  0  0  0  0
 26  2  1  0  0  0  0
 28 27  2  1  0  0  0
 28 26  1  0  0  0  0
 28 37  1  0  0  0  0
 29 28  1  0  0  0  0
 30 31  1  0  0  0  0
 32 31  1  0  0  0  0
 33 34  1  0  0  0  0
 33 32  1  0  0  0  0
 34 35  1  0  0  0  0
 34 29  1  0  0  0  0
 36 35  1  0  0  0  0
 36 31  1  0  0  0  0
 38 37  1  0  0  0  0
 38 40  1  0  0  0  0
 39 38  2  0  0  0  0
 40 42  1  0  0  0  0
 41 40  1  0  0  0  0
M  END
>  <minimizedAffinity>
-5.94751453

>  <minimizedRMSD>
1.29116774

$$$$
