
 OpenBabel03252508103D

 42 45  0  0  0  0  0  0  0  0999 V2000
   36.9430   29.6300   37.2980 C   0  0  0  0  0  0  0  0  0  0  0  0
   37.3430   29.1290   38.5320 C   0  0  0  0  0  0  0  0  0  0  0  0
   36.4070   28.5850   39.3790 C   0  0  0  0  0  0  0  0  0  0  0  0
   35.0970   28.5680   38.9420 N   0  0  0  0  0  0  0  0  0  0  0  0
   34.7240   29.0490   37.7590 C   0  0  0  0  0  0  0  0  0  0  0  0
   35.6620   29.5800   36.9440 N   0  0  0  0  0  0  0  0  0  0  0  0
   37.6360   30.0700   36.5920 H   0  0  0  0  0  0  0  0  0  0  0  0
   33.7140   29.0420   37.4090 H   0  0  0  0  0  0  0  0  0  0  0  0
   36.6460   28.0360   40.6590 C   0  0  0  0  0  0  0  0  0  0  0  0
   36.8290   28.7980   41.8170 C   0  0  0  0  0  0  0  0  0  0  0  0
   37.1300   28.2720   43.0450 C   0  0  0  0  0  0  0  0  0  0  0  0
   37.2680   26.9120   43.1880 C   0  0  0  0  0  0  0  0  0  0  0  0
   37.0850   26.1180   42.0230 C   0  0  0  0  0  0  0  0  0  0  0  0
   37.2250   24.7590   42.1540 C   0  0  0  0  0  0  0  0  0  0  0  0
   37.0590   23.9290   41.0660 C   0  0  0  0  0  0  0  0  0  0  0  0
   36.7430   24.4870   39.8120 C   0  0  0  0  0  0  0  0  0  0  0  0
   36.6120   25.8850   39.7300 C   0  0  0  0  0  0  0  0  0  0  0  0
   36.7860   26.6830   40.8280 C   0  0  0  0  0  0  0  0  0  0  0  0
   36.7180   29.8760   41.6970 H   0  0  0  0  0  0  0  0  0  0  0  0
   37.2680   28.8640   43.9300 H   0  0  0  0  0  0  0  0  0  0  0  0
   37.5050   26.4190   44.1210 H   0  0  0  0  0  0  0  0  0  0  0  0
   37.4650   24.3160   43.1100 H   0  0  0  0  0  0  0  0  0  0  0  0
   37.1810   22.8600   41.2210 H   0  0  0  0  0  0  0  0  0  0  0  0
   36.6340   23.7620   39.0370 H   0  0  0  0  0  0  0  0  0  0  0  0
   36.3520   26.1100   38.7190 H   0  0  0  0  0  0  0  0  0  0  0  0
   38.6690   29.2050   38.8370 O   0  0  0  0  0  0  0  0  0  0  0  0
   40.5430   30.2180   40.3530 O   0  0  0  0  0  0  0  0  0  0  0  0
   39.4490   30.5930   39.4200 P   0  0  1  0  0  0  0  0  0  0  0  0
   40.1210   31.4750   38.1580 O   0  0  0  0  0  0  0  0  0  0  0  0
   43.1910   34.7990   36.5570 H   0  0  0  0  0  0  0  0  0  0  0  0
   42.5840   33.9880   36.8360 N   0  0  0  0  0  0  0  0  0  0  0  0
   41.8820   34.3490   38.0200 C   0  0  0  0  0  2  0  0  0  0  0  0
   41.4490   33.2500   38.9150 C   0  0  0  0  0  2  0  0  0  0  0  0
   41.4330   31.8700   38.3320 C   0  0  0  0  0  3  0  0  0  0  0  0
   42.3010   31.6710   37.1480 C   0  0  0  0  0  2  0  0  0  0  0  0
   43.3320   32.7790   37.0710 C   0  0  0  0  0  2  0  0  0  0  0  0
   38.3060   31.5490   40.1920 O   0  0  0  0  0  0  0  0  0  0  0  0
   38.0230   32.8800   39.9280 C   0  0  0  0  0  0  0  0  0  0  0  0
   38.4800   33.4990   40.9080 O   0  0  0  0  0  0  0  0  0  0  0  0
   37.3370   33.0210   38.6690 N   0  0  0  0  0  0  0  0  0  0  0  0
   36.3410   33.3480   38.5340 H   0  0  0  0  0  0  0  0  0  0  0  0
   37.8950   32.7720   37.8030 H   0  0  0  0  0  0  0  0  0  0  0  0
  1  2  1  0  0  0  0
  2 26  1  0  0  0  0
  2  3  2  0  0  0  0
  3  9  1  0  0  0  0
  4  3  1  0  0  0  0
  5  4  2  0  0  0  0
  6  1  2  0  0  0  0
  6  5  1  0  0  0  0
  7  1  1  0  0  0  0
  8  5  1  0  0  0  0
  9 18  2  0  0  0  0
  9 10  1  0  0  0  0
 10 11  2  0  0  0  0
 11 12  1  0  0  0  0
 11 20  1  0  0  0  0
 12 21  1  0  0  0  0
 13 14  1  0  0  0  0
 13 12  2  0  0  0  0
 14 22  1  0  0  0  0
 15 23  1  0  0  0  0
 15 14  2  0  0  0  0
 16 15  1  0  0  0  0
 17 16  2  0  0  0  0
 17 18  1  0  0  0  0
 18 13  1  0  0  0  0
 19 10  1  0  0  0  0
 24 16  1  0  0  0  0
 25 17  1  0  0  0  0
 26 28  1  0  0  0  0
 28 37  1  0  0  0  0
 28 27  2  1  0  0  0
 29 34  1  0  0  0  0
 29 28  1  0  0  0  0
 30 31  1  0  0  0  0
 31 36  1  0  0  0  0
 31 32  1  0  0  0  0
 32 33  1  0  0  0  0
 34 33  1  0  0  0  0
 35 34  1  0  0  0  0
 36 35  1  0  0  0  0
 38 37  1  0  0  0  0
 38 39  2  0  0  0  0
 40 38  1  0  0  0  0
 41 40  1  0  0  0  0
 42 40  1  0  0  0  0
M  END
>  <minimizedAffinity>
-6.44735813

$$$$

 OpenBabel03252508103D

 42 45  0  0  0  0  0  0  0  0999 V2000
   42.6340   26.6810   39.9990 C   0  0  0  0  0  0  0  0  0  0  0  0
   41.2820   26.3850   40.1330 C   0  0  0  0  0  0  0  0  0  0  0  0
   40.8250   25.8090   41.2930 C   0  0  0  0  0  0  0  0  0  0  0  0
   41.7570   25.5550   42.2800 N   0  0  0  0  0  0  0  0  0  0  0  0
   43.0500   25.8430   42.1440 C   0  0  0  0  0  0  0  0  0  0  0  0
   43.4750   26.4080   40.9930 N   0  0  0  0  0  0  0  0  0  0  0  0
   43.0500   27.1340   39.1080 H   0  0  0  0  0  0  0  0  0  0  0  0
   43.7810   25.6520   42.8990 H   0  0  0  0  0  0  0  0  0  0  0  0
   39.4910   25.4470   41.5860 C   0  0  0  0  0  0  0  0  0  0  0  0
   38.8880   24.2600   41.1580 C   0  0  0  0  0  0  0  0  0  0  0  0
   37.5760   23.9390   41.3810 C   0  0  0  0  0  0  0  0  0  0  0  0
   36.7680   24.8140   42.0680 C   0  0  0  0  0  0  0  0  0  0  0  0
   37.3610   26.0270   42.5150 C   0  0  0  0  0  0  0  0  0  0  0  0
   36.5620   26.9090   43.1970 C   0  0  0  0  0  0  0  0  0  0  0  0
   37.0730   28.1030   43.6610 C   0  0  0  0  0  0  0  0  0  0  0  0
   38.4270   28.4130   43.4280 C   0  0  0  0  0  0  0  0  0  0  0  0
   39.2030   27.4770   42.7220 C   0  0  0  0  0  0  0  0  0  0  0  0
   38.6660   26.3010   42.2710 C   0  0  0  0  0  0  0  0  0  0  0  0
   39.5340   23.5710   40.6140 H   0  0  0  0  0  0  0  0  0  0  0  0
   37.1200   23.0250   41.0500 H   0  0  0  0  0  0  0  0  0  0  0  0
   35.7240   24.6370   42.2850 H   0  0  0  0  0  0  0  0  0  0  0  0
   35.5230   26.6840   43.3850 H   0  0  0  0  0  0  0  0  0  0  0  0
   36.4000   28.7680   44.1950 H   0  0  0  0  0  0  0  0  0  0  0  0
   38.7240   29.3570   43.8270 H   0  0  0  0  0  0  0  0  0  0  0  0
   40.1920   27.8760   42.6670 H   0  0  0  0  0  0  0  0  0  0  0  0
   40.4690   26.6910   39.0830 O   0  0  0  0  0  0  0  0  0  0  0  0
   39.1880   28.2480   37.4180 O   0  0  0  0  0  0  0  0  0  0  0  0
   39.9010   28.2470   38.7210 P   0  0  1  0  0  0  0  0  0  0  0  0
   38.8320   28.7830   39.9000 O   0  0  0  0  0  0  0  0  0  0  0  0
   34.8230   30.8260   41.5740 H   0  0  0  0  0  0  0  0  0  0  0  0
   35.6320   30.2730   41.1930 N   0  0  0  0  0  0  0  0  0  0  0  0
   36.6270   31.1890   40.7520 C   0  0  0  0  0  2  0  0  0  0  0  0
   37.5490   30.7310   39.6870 C   0  0  0  0  0  2  0  0  0  0  0  0
   37.6180   29.2550   39.4410 C   0  0  0  0  0  3  0  0  0  0  0  0
   36.4400   28.4800   39.8970 C   0  0  0  0  0  2  0  0  0  0  0  0
   35.2600   29.4070   40.1030 C   0  0  0  0  0  2  0  0  0  0  0  0
   41.2190   29.2870   38.6820 O   0  0  0  0  0  0  0  0  0  0  0  0
   41.2190   30.6100   38.2670 C   0  0  0  0  0  0  0  0  0  0  0  0
   41.1470   31.2710   39.3200 O   0  0  0  0  0  0  0  0  0  0  0  0
   41.3020   30.6990   36.8310 N   0  0  0  0  0  0  0  0  0  0  0  0
   40.5490   31.0650   36.1850 H   0  0  0  0  0  0  0  0  0  0  0  0
   42.2070   30.3640   36.3940 H   0  0  0  0  0  0  0  0  0  0  0  0
  1  2  2  0  0  0  0
  1  6  1  0  0  0  0
  2  3  1  0  0  0  0
  3  9  1  0  0  0  0
  3  4  2  0  0  0  0
  5  4  1  0  0  0  0
  5  8  1  0  0  0  0
  6  5  2  0  0  0  0
  7  1  1  0  0  0  0
  9 18  1  0  0  0  0
 10 11  1  0  0  0  0
 10  9  2  0  0  0  0
 11 12  2  0  0  0  0
 12 21  1  0  0  0  0
 12 13  1  0  0  0  0
 13 14  1  0  0  0  0
 14 22  1  0  0  0  0
 14 15  2  0  0  0  0
 15 23  1  0  0  0  0
 16 15  1  0  0  0  0
 16 24  1  0  0  0  0
 17 16  2  0  0  0  0
 18 13  2  0  0  0  0
 18 17  1  0  0  0  0
 19 10  1  0  0  0  0
 20 11  1  0  0  0  0
 25 17  1  0  0  0  0
 26  2  1  0  0  0  0
 28 27  2  6  0  0  0
 28 26  1  0  0  0  0
 28 29  1  0  0  0  0
 31 30  1  0  0  0  0
 32 31  1  0  0  0  0
 33 32  1  0  0  0  0
 34 33  1  0  0  0  0
 34 35  1  0  0  0  0
 34 29  1  0  0  0  0
 35 36  1  0  0  0  0
 36 31  1  0  0  0  0
 37 28  1  0  0  0  0
 38 37  1  0  0  0  0
 38 39  2  0  0  0  0
 40 38  1  0  0  0  0
 41 40  1  0  0  0  0
 42 40  1  0  0  0  0
M  END
>  <minimizedAffinity>
-5.97625637

$$$$

 OpenBabel03252508103D

 42 45  0  0  0  0  0  0  0  0999 V2000
   36.7920   29.0840   36.9990 C   0  0  0  0  0  0  0  0  0  0  0  0
   37.2420   28.2470   38.0140 C   0  0  0  0  0  0  0  0  0  0  0  0
   36.3360   27.6660   38.8670 C   0  0  0  0  0  0  0  0  0  0  0  0
   35.0010   27.9540   38.6590 N   0  0  0  0  0  0  0  0  0  0  0  0
   34.5790   28.7570   37.6850 C   0  0  0  0  0  0  0  0  0  0  0  0
   35.4890   29.3170   36.8590 N   0  0  0  0  0  0  0  0  0  0  0  0
   37.4610   29.5690   36.2990 H   0  0  0  0  0  0  0  0  0  0  0  0
   33.5490   28.9880   37.5130 H   0  0  0  0  0  0  0  0  0  0  0  0
   36.6270   26.7970   39.9420 C   0  0  0  0  0  0  0  0  0  0  0  0
   36.5770   25.4020   39.8580 C   0  0  0  0  0  0  0  0  0  0  0  0
   36.7910   24.5580   40.9160 C   0  0  0  0  0  0  0  0  0  0  0  0
   37.0750   25.0800   42.1560 C   0  0  0  0  0  0  0  0  0  0  0  0
   37.1330   26.4960   42.2640 C   0  0  0  0  0  0  0  0  0  0  0  0
   37.4120   27.0270   43.4970 C   0  0  0  0  0  0  0  0  0  0  0  0
   37.4850   28.3930   43.6730 C   0  0  0  0  0  0  0  0  0  0  0  0
   37.2690   29.2450   42.5720 C   0  0  0  0  0  0  0  0  0  0  0  0
   36.9840   28.6510   41.3300 C   0  0  0  0  0  0  0  0  0  0  0  0
   36.9150   27.2920   41.1880 C   0  0  0  0  0  0  0  0  0  0  0  0
   36.3500   24.9940   38.8730 H   0  0  0  0  0  0  0  0  0  0  0  0
   36.7520   23.4880   40.8440 H   0  0  0  0  0  0  0  0  0  0  0  0
   37.2560   24.4850   43.0400 H   0  0  0  0  0  0  0  0  0  0  0  0
   37.5820   26.3870   44.3510 H   0  0  0  0  0  0  0  0  0  0  0  0
   37.7080   28.7640   44.6700 H   0  0  0  0  0  0  0  0  0  0  0  0
   37.3490   30.2810   42.8120 H   0  0  0  0  0  0  0  0  0  0  0  0
   36.8770   29.4480   40.6270 H   0  0  0  0  0  0  0  0  0  0  0  0
   38.5870   28.0430   38.1050 O   0  0  0  0  0  0  0  0  0  0  0  0
   40.3520   29.9040   37.5930 O   0  0  0  0  0  0  0  0  0  0  0  0
   39.6970   29.1740   38.7090 P   0  0  1  0  0  0  0  0  0  0  0  0
   38.9300   30.3010   39.6890 O   0  0  0  0  0  0  0  0  0  0  0  0
   37.8400   34.7870   41.0070 H   0  0  0  0  0  0  0  0  0  0  0  0
   37.9600   33.7970   40.6740 N   0  0  0  0  0  0  0  0  0  0  0  0
   39.3540   33.5270   40.5790 C   0  0  0  0  0  2  0  0  0  0  0  0
   39.7810   32.4830   39.6190 C   0  0  0  0  0  2  0  0  0  0  0  0
   38.7220   31.5450   39.1260 C   0  0  0  0  0  3  0  0  0  0  0  0
   37.3310   32.0460   39.2290 C   0  0  0  0  0  2  0  0  0  0  0  0
   37.3360   33.5520   39.3980 C   0  0  0  0  0  2  0  0  0  0  0  0
   40.8320   28.3480   39.6310 O   0  0  0  0  0  0  0  0  0  0  0  0
   40.6890   27.9340   40.9460 C   0  0  0  0  0  0  0  0  0  0  0  0
   40.4760   26.7090   40.8690 O   0  0  0  0  0  0  0  0  0  0  0  0
   40.8400   29.0420   41.8550 N   0  0  0  0  0  0  0  0  0  0  0  0
   40.0850   29.4480   42.4730 H   0  0  0  0  0  0  0  0  0  0  0  0
   41.8030   29.4810   41.8990 H   0  0  0  0  0  0  0  0  0  0  0  0
  1  2  1  0  0  0  0
  2 26  1  0  0  0  0
  2  3  2  0  0  0  0
  3  9  1  0  0  0  0
  4  3  1  0  0  0  0
  5  4  2  0  0  0  0
  6  1  2  0  0  0  0
  6  5  1  0  0  0  0
  7  1  1  0  0  0  0
  8  5  1  0  0  0  0
  9 18  1  0  0  0  0
 10  9  2  0  0  0  0
 10 11  1  0  0  0  0
 11 12  2  0  0  0  0
 12 13  1  0  0  0  0
 12 21  1  0  0  0  0
 13 14  1  0  0  0  0
 14 15  2  0  0  0  0
 14 22  1  0  0  0  0
 15 23  1  0  0  0  0
 16 24  1  0  0  0  0
 16 15  1  0  0  0  0
 17 16  2  0  0  0  0
 18 17  1  0  0  0  0
 18 13  2  0  0  0  0
 19 10  1  0  0  0  0
 20 11  1  0  0  0  0
 25 17  1  0  0  0  0
 26 28  1  0  0  0  0
 28 27  2  6  0  0  0
 28 37  1  0  0  0  0
 28 29  1  0  0  0  0
 31 30  1  0  0  0  0
 32 31  1  0  0  0  0
 33 32  1  0  0  0  0
 34 35  1  0  0  0  0
 34 33  1  0  0  0  0
 34 29  1  0  0  0  0
 35 36  1  0  0  0  0
 36 31  1  0  0  0  0
 37 38  1  0  0  0  0
 38 40  1  0  0  0  0
 39 38  2  0  0  0  0
 40 42  1  0  0  0  0
 40 41  1  0  0  0  0
M  END
>  <minimizedAffinity>
-5.9432888

$$$$

 OpenBabel03252508103D

 42 45  0  0  0  0  0  0  0  0999 V2000
   42.6110   28.5520   41.2660 C   0  0  0  0  0  0  0  0  0  0  0  0
   41.2350   28.3600   41.3050 C   0  0  0  0  0  0  0  0  0  0  0  0
   40.6360   27.9730   42.4790 C   0  0  0  0  0  0  0  0  0  0  0  0
   41.4570   27.7940   43.5750 N   0  0  0  0  0  0  0  0  0  0  0  0
   42.7740   27.9810   43.5290 C   0  0  0  0  0  0  0  0  0  0  0  0
   43.3400   28.3610   42.3630 N   0  0  0  0  0  0  0  0  0  0  0  0
   43.1360   28.8560   40.3690 H   0  0  0  0  0  0  0  0  0  0  0  0
   43.4210   27.8460   44.3700 H   0  0  0  0  0  0  0  0  0  0  0  0
   39.2580   27.7370   42.6860 C   0  0  0  0  0  0  0  0  0  0  0  0
   38.3930   28.6410   43.3090 C   0  0  0  0  0  0  0  0  0  0  0  0
   37.0730   28.3870   43.5730 C   0  0  0  0  0  0  0  0  0  0  0  0
   36.5290   27.1770   43.2160 C   0  0  0  0  0  0  0  0  0  0  0  0
   37.3900   26.2420   42.5790 C   0  0  0  0  0  0  0  0  0  0  0  0
   36.8570   25.0290   42.2230 C   0  0  0  0  0  0  0  0  0  0  0  0
   37.6360   24.0770   41.6000 C   0  0  0  0  0  0  0  0  0  0  0  0
   38.9900   24.3580   41.3300 C   0  0  0  0  0  0  0  0  0  0  0  0
   39.4880   25.6150   41.7170 C   0  0  0  0  0  0  0  0  0  0  0  0
   38.6910   26.5390   42.3370 C   0  0  0  0  0  0  0  0  0  0  0  0
   38.8310   29.5990   43.5900 H   0  0  0  0  0  0  0  0  0  0  0  0
   36.4150   29.0870   44.0510 H   0  0  0  0  0  0  0  0  0  0  0  0
   35.4980   26.8980   43.3890 H   0  0  0  0  0  0  0  0  0  0  0  0
   35.8210   24.7990   42.4210 H   0  0  0  0  0  0  0  0  0  0  0  0
   37.1680   23.1320   41.3390 H   0  0  0  0  0  0  0  0  0  0  0  0
   39.5050   23.5590   40.8460 H   0  0  0  0  0  0  0  0  0  0  0  0
   40.5110   25.6470   41.4110 H   0  0  0  0  0  0  0  0  0  0  0  0
   40.5410   28.5750   40.1510 O   0  0  0  0  0  0  0  0  0  0  0  0
   40.7450   30.7040   38.6470 O   0  0  0  0  0  0  0  0  0  0  0  0
   39.8880   30.0670   39.6790 P   0  0  1  0  0  0  0  0  0  0  0  0
   38.3520   29.8690   39.0290 O   0  0  0  0  0  0  0  0  0  0  0  0
   33.8400   28.2360   38.8760 H   0  0  0  0  0  0  0  0  0  0  0  0
   34.7840   28.6870   38.9830 N   0  0  0  0  0  0  0  0  0  0  0  0
   35.7750   27.7290   38.6310 C   0  0  0  0  0  2  0  0  0  0  0  0
   37.1190   27.8870   39.2340 C   0  0  0  0  0  2  0  0  0  0  0  0
   37.4360   29.2220   39.8360 C   0  0  0  0  0  3  0  0  0  0  0  0
   36.2620   30.0410   40.2200 C   0  0  0  0  0  2  0  0  0  0  0  0
   35.0310   29.1640   40.3210 C   0  0  0  0  0  2  0  0  0  0  0  0
   39.7700   31.0390   41.0430 O   0  0  0  0  0  0  0  0  0  0  0  0
   39.7180   32.4240   41.0710 C   0  0  0  0  0  0  0  0  0  0  0  0
   38.5040   32.6960   41.0120 O   0  0  0  0  0  0  0  0  0  0  0  0
   41.0420   32.9880   41.1560 N   0  0  0  0  0  0  0  0  0  0  0  0
   41.5230   33.5640   40.4120 H   0  0  0  0  0  0  0  0  0  0  0  0
   41.5720   32.8010   42.0540 H   0  0  0  0  0  0  0  0  0  0  0  0
  1  2  2  0  0  0  0
  1  6  1  0  0  0  0
  2  3  1  0  0  0  0
  3  9  1  0  0  0  0
  3  4  2  0  0  0  0
  5  4  1  0  0  0  0
  5  8  1  0  0  0  0
  6  5  2  0  0  0  0
  7  1  1  0  0  0  0
  9 10  1  0  0  0  0
 10 11  2  0  0  0  0
 10 19  1  0  0  0  0
 11 20  1  0  0  0  0
 12 21  1  0  0  0  0
 12 11  1  0  0  0  0
 13 12  2  0  0  0  0
 14 22  1  0  0  0  0
 14 13  1  0  0  0  0
 15 14  2  0  0  0  0
 16 15  1  0  0  0  0
 16 17  2  0  0  0  0
 17 18  1  0  0  0  0
 18 13  1  0  0  0  0
 18  9  2  0  0  0  0
 23 15  1  0  0  0  0
 24 16  1  0  0  0  0
 25 17  1  0  0  0  0
 26  2  1  0  0  0  0
 28 27  2  6  0  0  0
 28 26  1  0  0  0  0
 28 37  1  0  0  0  0
 29 28  1  0  0  0  0
 29 34  1  0  0  0  0
 30 31  1  0  0  0  0
 31 36  1  0  0  0  0
 32 31  1  0  0  0  0
 32 33  1  0  0  0  0
 33 34  1  0  0  0  0
 34 35  1  0  0  0  0
 35 36  1  0  0  0  0
 37 38  1  0  0  0  0
 38 40  1  0  0  0  0
 39 38  2  0  0  0  0
 40 42  1  0  0  0  0
 41 40  1  0  0  0  0
M  END
>  <minimizedAffinity>
-5.91222715

$$$$

 OpenBabel03252508103D

 42 45  0  0  0  0  0  0  0  0999 V2000
   39.8830   32.1990   40.8370 C   0  0  0  0  0  0  0  0  0  0  0  0
   38.9570   31.2100   40.5220 C   0  0  0  0  0  0  0  0  0  0  0  0
   37.7030   31.5670   40.0880 C   0  0  0  0  0  0  0  0  0  0  0  0
   37.4320   32.9170   39.9880 N   0  0  0  0  0  0  0  0  0  0  0  0
   38.3250   33.8570   40.2910 C   0  0  0  0  0  0  0  0  0  0  0  0
   39.5500   33.4820   40.7160 N   0  0  0  0  0  0  0  0  0  0  0  0
   40.8840   31.9760   41.1830 H   0  0  0  0  0  0  0  0  0  0  0  0
   38.1280   34.9060   40.2180 H   0  0  0  0  0  0  0  0  0  0  0  0
   36.6540   30.6910   39.7300 C   0  0  0  0  0  0  0  0  0  0  0  0
   35.7700   30.1120   40.6460 C   0  0  0  0  0  0  0  0  0  0  0  0
   34.7960   29.2090   40.3100 C   0  0  0  0  0  0  0  0  0  0  0  0
   34.6480   28.8240   38.9980 C   0  0  0  0  0  0  0  0  0  0  0  0
   35.5350   29.4020   38.0500 C   0  0  0  0  0  0  0  0  0  0  0  0
   35.3980   29.0220   36.7390 C   0  0  0  0  0  0  0  0  0  0  0  0
   36.2250   29.5440   35.7680 C   0  0  0  0  0  0  0  0  0  0  0  0
   37.2160   30.4770   36.1300 C   0  0  0  0  0  0  0  0  0  0  0  0
   37.3160   30.8330   37.4870 C   0  0  0  0  0  0  0  0  0  0  0  0
   36.4840   30.2940   38.4290 C   0  0  0  0  0  0  0  0  0  0  0  0
   35.8930   30.4200   41.6840 H   0  0  0  0  0  0  0  0  0  0  0  0
   34.1200   28.7680   41.0180 H   0  0  0  0  0  0  0  0  0  0  0  0
   33.9070   28.1170   38.6510 H   0  0  0  0  0  0  0  0  0  0  0  0
   34.6420   28.3090   36.4450 H   0  0  0  0  0  0  0  0  0  0  0  0
   36.0770   29.2110   34.7440 H   0  0  0  0  0  0  0  0  0  0  0  0
   37.8000   30.8230   35.3070 H   0  0  0  0  0  0  0  0  0  0  0  0
   38.0980   31.5570   37.5570 H   0  0  0  0  0  0  0  0  0  0  0  0
   39.3560   29.9140   40.6620 O   0  0  0  0  0  0  0  0  0  0  0  0
   38.3070   29.5830   43.0340 O   0  0  0  0  0  0  0  0  0  0  0  0
   39.3560   29.0550   42.1240 P   0  0  1  0  0  0  0  0  0  0  0  0
   39.0440   27.4260   41.8600 O   0  0  0  0  0  0  0  0  0  0  0  0
   36.4910   23.6520   40.3490 H   0  0  0  0  0  0  0  0  0  0  0  0
   37.0500   24.5170   40.5580 N   0  0  0  0  0  0  0  0  0  0  0  0
   36.9640   24.7720   41.9550 C   0  0  0  0  0  2  0  0  0  0  0  0
   37.1400   26.1730   42.4040 C   0  0  0  0  0  2  0  0  0  0  0  0
   37.7680   27.1210   41.4270 C   0  0  0  0  0  3  0  0  0  0  0  0
   37.6770   26.7190   40.0040 C   0  0  0  0  0  2  0  0  0  0  0  0
   36.5930   25.6740   39.8310 C   0  0  0  0  0  2  0  0  0  0  0  0
   40.8790   29.2030   42.8150 O   0  0  0  0  0  0  0  0  0  0  0  0
   42.0620   28.6590   42.3400 C   0  0  0  0  0  0  0  0  0  0  0  0
   42.5210   28.0140   43.3010 O   0  0  0  0  0  0  0  0  0  0  0  0
   42.2880   29.0380   40.9680 N   0  0  0  0  0  0  0  0  0  0  0  0
   43.0670   29.6580   40.6130 H   0  0  0  0  0  0  0  0  0  0  0  0
   41.6040   28.6510   40.2580 H   0  0  0  0  0  0  0  0  0  0  0  0
  1  7  1  0  0  0  0
  2 26  1  0  0  0  0
  2  1  2  0  0  0  0
  3  2  1  0  0  0  0
  4  3  2  0  0  0  0
  4  5  1  0  0  0  0
  5  6  2  0  0  0  0
  6  1  1  0  0  0  0
  8  5  1  0  0  0  0
  9  3  1  0  0  0  0
  9 10  1  0  0  0  0
 10 19  1  0  0  0  0
 11 10  2  0  0  0  0
 11 20  1  0  0  0  0
 12 11  1  0  0  0  0
 13 18  1  0  0  0  0
 13 12  2  0  0  0  0
 14 13  1  0  0  0  0
 15 16  1  0  0  0  0
 15 14  2  0  0  0  0
 16 17  2  0  0  0  0
 17 25  1  0  0  0  0
 17 18  1  0  0  0  0
 18  9  2  0  0  0  0
 21 12  1  0  0  0  0
 22 14  1  0  0  0  0
 23 15  1  0  0  0  0
 24 16  1  0  0  0  0
 26 28  1  0  0  0  0
 28 37  1  0  0  0  0
 28 27  2  1  0  0  0
 29 28  1  0  0  0  0
 30 31  1  0  0  0  0
 31 32  1  0  0  0  0
 32 33  1  0  0  0  0
 34 29  1  0  0  0  0
 34 33  1  0  0  0  0
 35 34  1  0  0  0  0
 36 35  1  0  0  0  0
 36 31  1  0  0  0  0
 38 37  1  0  0  0  0
 38 39  2  0  0  0  0
 40 38  1  0  0  0  0
 41 40  1  0  0  0  0
 42 40  1  0  0  0  0
M  END
>  <minimizedAffinity>
-5.88335562

$$$$

 OpenBabel03252508103D

 42 45  0  0  0  0  0  0  0  0999 V2000
   37.1050   29.2490   36.9350 C   0  0  0  0  0  0  0  0  0  0  0  0
   37.4410   28.7770   38.1990 C   0  0  0  0  0  0  0  0  0  0  0  0
   36.4460   28.4800   39.1000 C   0  0  0  0  0  0  0  0  0  0  0  0
   35.1430   28.6710   38.6840 N   0  0  0  0  0  0  0  0  0  0  0  0
   34.8310   29.1230   37.4710 C   0  0  0  0  0  0  0  0  0  0  0  0
   35.8260   29.4090   36.6040 N   0  0  0  0  0  0  0  0  0  0  0  0
   37.8460   29.4990   36.1870 H   0  0  0  0  0  0  0  0  0  0  0  0
   33.8270   29.2750   37.1370 H   0  0  0  0  0  0  0  0  0  0  0  0
   36.6170   27.9940   40.4150 C   0  0  0  0  0  0  0  0  0  0  0  0
   36.7050   28.8110   41.5470 C   0  0  0  0  0  0  0  0  0  0  0  0
   36.9400   28.3480   42.8140 C   0  0  0  0  0  0  0  0  0  0  0  0
   37.1050   27.0000   43.0270 C   0  0  0  0  0  0  0  0  0  0  0  0
   37.0180   26.1500   41.8900 C   0  0  0  0  0  0  0  0  0  0  0  0
   37.1850   24.8040   42.0910 C   0  0  0  0  0  0  0  0  0  0  0  0
   37.1110   23.9230   41.0320 C   0  0  0  0  0  0  0  0  0  0  0  0
   36.8620   24.4160   39.7370 C   0  0  0  0  0  0  0  0  0  0  0  0
   36.6990   25.8050   39.5840 C   0  0  0  0  0  0  0  0  0  0  0  0
   36.7820   26.6540   40.6540 C   0  0  0  0  0  0  0  0  0  0  0  0
   36.5740   29.8790   41.3720 H   0  0  0  0  0  0  0  0  0  0  0  0
   37.0050   28.9810   43.6790 H   0  0  0  0  0  0  0  0  0  0  0  0
   37.2940   26.5540   43.9940 H   0  0  0  0  0  0  0  0  0  0  0  0
   37.3750   24.4090   43.0780 H   0  0  0  0  0  0  0  0  0  0  0  0
   37.2520   22.8650   41.2430 H   0  0  0  0  0  0  0  0  0  0  0  0
   36.8220   23.6560   38.9900 H   0  0  0  0  0  0  0  0  0  0  0  0
   36.4990   25.9780   38.5500 H   0  0  0  0  0  0  0  0  0  0  0  0
   38.7670   28.6300   38.4790 O   0  0  0  0  0  0  0  0  0  0  0  0
   38.9690   30.9540   39.6610 O   0  0  0  0  0  0  0  0  0  0  0  0
   39.7770   29.8660   39.0520 P   0  0  1  0  0  0  0  0  0  0  0  0
   40.8310   29.2830   40.2230 O   0  0  0  0  0  0  0  0  0  0  0  0
   42.2210   26.1960   43.6260 H   0  0  0  0  0  0  0  0  0  0  0  0
   41.8870   26.7700   42.8110 N   0  0  0  0  0  0  0  0  0  0  0  0
   41.6250   28.0890   43.2760 C   0  0  0  0  0  2  0  0  0  0  0  0
   40.6320   28.8900   42.5230 C   0  0  0  0  0  2  0  0  0  0  0  0
   40.2830   28.4140   41.1460 C   0  0  0  0  0  3  0  0  0  0  0  0
   40.5510   26.9810   40.8830 C   0  0  0  0  0  2  0  0  0  0  0  0
   40.7010   26.2340   42.1930 C   0  0  0  0  0  2  0  0  0  0  0  0
   40.6790   30.4430   37.7590 O   0  0  0  0  0  0  0  0  0  0  0  0
   40.7950   31.7630   37.3530 C   0  0  0  0  0  0  0  0  0  0  0  0
   41.9870   32.0560   37.5680 O   0  0  0  0  0  0  0  0  0  0  0  0
   39.5370   32.2630   36.8590 N   0  0  0  0  0  0  0  0  0  0  0  0
   38.9500   33.0210   37.3030 H   0  0  0  0  0  0  0  0  0  0  0  0
   39.1790   31.8220   35.9650 H   0  0  0  0  0  0  0  0  0  0  0  0
  1  2  1  0  0  0  0
  2 26  1  0  0  0  0
  2  3  2  0  0  0  0
  3  9  1  0  0  0  0
  4  3  1  0  0  0  0
  5  4  2  0  0  0  0
  6  1  2  0  0  0  0
  6  5  1  0  0  0  0
  7  1  1  0  0  0  0
  8  5  1  0  0  0  0
  9 18  2  0  0  0  0
  9 10  1  0  0  0  0
 10 11  2  0  0  0  0
 11 12  1  0  0  0  0
 11 20  1  0  0  0  0
 12 21  1  0  0  0  0
 13 14  1  0  0  0  0
 13 12  2  0  0  0  0
 14 22  1  0  0  0  0
 15 23  1  0  0  0  0
 15 14  2  0  0  0  0
 16 15  1  0  0  0  0
 17 16  2  0  0  0  0
 17 18  1  0  0  0  0
 18 13  1  0  0  0  0
 19 10  1  0  0  0  0
 24 16  1  0  0  0  0
 25 17  1  0  0  0  0
 26 28  1  0  0  0  0
 28 27  2  1  0  0  0
 28 29  1  0  0  0  0
 29 34  1  0  0  0  0
 31 32  1  0  0  0  0
 31 30  1  0  0  0  0
 33 32  1  0  0  0  0
 34 33  1  0  0  0  0
 35 34  1  0  0  0  0
 35 36  1  0  0  0  0
 36 31  1  0  0  0  0
 37 28  1  0  0  0  0
 38 39  2  0  0  0  0
 38 37  1  0  0  0  0
 40 41  1  0  0  0  0
 40 38  1  0  0  0  0
 42 40  1  0  0  0  0
M  END
>  <minimizedAffinity>
-5.77940989

$$$$

 OpenBabel03252508103D

 42 45  0  0  0  0  0  0  0  0999 V2000
   38.2470   30.0160   37.9070 C   0  0  0  0  0  0  0  0  0  0  0  0
   38.3670   29.3780   39.1370 C   0  0  0  0  0  0  0  0  0  0  0  0
   37.2370   28.9660   39.8010 C   0  0  0  0  0  0  0  0  0  0  0  0
   36.0220   29.2140   39.1920 N   0  0  0  0  0  0  0  0  0  0  0  0
   35.9170   29.8240   38.0130 C   0  0  0  0  0  0  0  0  0  0  0  0
   37.0420   30.2210   37.3800 N   0  0  0  0  0  0  0  0  0  0  0  0
   39.1020   30.3620   37.3400 H   0  0  0  0  0  0  0  0  0  0  0  0
   34.9840   30.0220   37.5300 H   0  0  0  0  0  0  0  0  0  0  0  0
   37.1860   28.3090   41.0510 C   0  0  0  0  0  0  0  0  0  0  0  0
   37.3670   28.9480   42.2810 C   0  0  0  0  0  0  0  0  0  0  0  0
   37.3870   28.3030   43.4890 C   0  0  0  0  0  0  0  0  0  0  0  0
   37.2210   26.9390   43.5340 C   0  0  0  0  0  0  0  0  0  0  0  0
   37.0330   26.2680   42.2950 C   0  0  0  0  0  0  0  0  0  0  0  0
   36.8700   24.9070   42.3300 C   0  0  0  0  0  0  0  0  0  0  0  0
   36.6820   24.1930   41.1650 C   0  0  0  0  0  0  0  0  0  0  0  0
   36.6570   24.8750   39.9320 C   0  0  0  0  0  0  0  0  0  0  0  0
   36.8300   26.2700   39.9510 C   0  0  0  0  0  0  0  0  0  0  0  0
   37.0190   26.9500   41.1230 C   0  0  0  0  0  0  0  0  0  0  0  0
   37.4990   30.0300   42.2380 H   0  0  0  0  0  0  0  0  0  0  0  0
   37.5260   28.8010   44.4290 H   0  0  0  0  0  0  0  0  0  0  0  0
   37.2250   26.3550   44.4450 H   0  0  0  0  0  0  0  0  0  0  0  0
   36.8850   24.3700   43.2670 H   0  0  0  0  0  0  0  0  0  0  0  0
   36.5590   23.1160   41.2450 H   0  0  0  0  0  0  0  0  0  0  0  0
   36.5040   24.2340   39.0930 H   0  0  0  0  0  0  0  0  0  0  0  0
   36.7580   26.6020   38.9380 H   0  0  0  0  0  0  0  0  0  0  0  0
   39.6260   29.1930   39.6240 O   0  0  0  0  0  0  0  0  0  0  0  0
   41.4480   29.7550   41.4130 O   0  0  0  0  0  0  0  0  0  0  0  0
   40.5420   30.3800   40.4150 P   0  0  1  0  0  0  0  0  0  0  0  0
   41.4850   31.2360   39.3210 O   0  0  0  0  0  0  0  0  0  0  0  0
   44.2170   31.1980   35.3740 H   0  0  0  0  0  0  0  0  0  0  0  0
   43.5660   31.1000   36.1930 N   0  0  0  0  0  0  0  0  0  0  0  0
   44.0690   31.9000   37.2560 C   0  0  0  0  0  2  0  0  0  0  0  0
   43.7100   31.5000   38.6370 C   0  0  0  0  0  2  0  0  0  0  0  0
   42.5600   30.5520   38.7890 C   0  0  0  0  0  3  0  0  0  0  0  0
   42.2450   29.7390   37.5910 C   0  0  0  0  0  2  0  0  0  0  0  0
   43.4270   29.7380   36.6420 C   0  0  0  0  0  2  0  0  0  0  0  0
   39.4810   31.4480   41.1580 O   0  0  0  0  0  0  0  0  0  0  0  0
   39.1830   32.7390   40.7500 C   0  0  0  0  0  0  0  0  0  0  0  0
   37.9580   32.7240   40.5240 O   0  0  0  0  0  0  0  0  0  0  0  0
   40.3650   33.5640   40.7470 N   0  0  0  0  0  0  0  0  0  0  0  0
   40.8290   33.9850   39.8960 H   0  0  0  0  0  0  0  0  0  0  0  0
   40.7990   33.7610   41.6930 H   0  0  0  0  0  0  0  0  0  0  0  0
  1  2  1  0  0  0  0
  2 26  1  0  0  0  0
  2  3  2  0  0  0  0
  3  9  1  0  0  0  0
  4  3  1  0  0  0  0
  5  4  2  0  0  0  0
  6  1  2  0  0  0  0
  6  5  1  0  0  0  0
  7  1  1  0  0  0  0
  8  5  1  0  0  0  0
  9 18  2  0  0  0  0
  9 10  1  0  0  0  0
 10 11  2  0  0  0  0
 11 12  1  0  0  0  0
 11 20  1  0  0  0  0
 12 21  1  0  0  0  0
 13 14  1  0  0  0  0
 13 12  2  0  0  0  0
 14 22  1  0  0  0  0
 15 23  1  0  0  0  0
 15 14  2  0  0  0  0
 16 17  2  0  0  0  0
 16 15  1  0  0  0  0
 17 18  1  0  0  0  0
 18 13  1  0  0  0  0
 19 10  1  0  0  0  0
 24 16  1  0  0  0  0
 25 17  1  0  0  0  0
 26 28  1  0  0  0  0
 28 37  1  0  0  0  0
 28 27  2  1  0  0  0
 29 28  1  0  0  0  0
 30 31  1  0  0  0  0
 31 36  1  0  0  0  0
 31 32  1  0  0  0  0
 32 33  1  0  0  0  0
 33 34  1  0  0  0  0
 34 29  1  0  0  0  0
 35 34  1  0  0  0  0
 36 35  1  0  0  0  0
 38 37  1  0  0  0  0
 39 38  2  0  0  0  0
 40 38  1  0  0  0  0
 40 42  1  0  0  0  0
 41 40  1  0  0  0  0
M  END
>  <minimizedAffinity>
-5.7654891

$$$$

 OpenBabel03252508103D

 42 45  0  0  0  0  0  0  0  0999 V2000
   37.1030   29.0220   36.7530 C   0  0  0  0  0  0  0  0  0  0  0  0
   37.4430   28.5590   38.0200 C   0  0  0  0  0  0  0  0  0  0  0  0
   36.4650   28.4130   38.9740 C   0  0  0  0  0  0  0  0  0  0  0  0
   35.1750   28.7410   38.6090 N   0  0  0  0  0  0  0  0  0  0  0  0
   34.8580   29.1840   37.3940 C   0  0  0  0  0  0  0  0  0  0  0  0
   35.8370   29.3200   36.4730 N   0  0  0  0  0  0  0  0  0  0  0  0
   37.8310   29.1570   35.9640 H   0  0  0  0  0  0  0  0  0  0  0  0
   33.8640   29.4410   37.0980 H   0  0  0  0  0  0  0  0  0  0  0  0
   36.6420   27.9570   40.3000 C   0  0  0  0  0  0  0  0  0  0  0  0
   36.7740   28.8000   41.4070 C   0  0  0  0  0  0  0  0  0  0  0  0
   37.0150   28.3630   42.6830 C   0  0  0  0  0  0  0  0  0  0  0  0
   37.1410   27.0170   42.9290 C   0  0  0  0  0  0  0  0  0  0  0  0
   37.0090   26.1410   41.8170 C   0  0  0  0  0  0  0  0  0  0  0  0
   37.1360   24.7950   42.0520 C   0  0  0  0  0  0  0  0  0  0  0  0
   37.0170   23.8900   41.0190 C   0  0  0  0  0  0  0  0  0  0  0  0
   36.7620   24.3560   39.7150 C   0  0  0  0  0  0  0  0  0  0  0  0
   36.6410   25.7450   39.5270 C   0  0  0  0  0  0  0  0  0  0  0  0
   36.7680   26.6190   40.5720 C   0  0  0  0  0  0  0  0  0  0  0  0
   36.6740   29.8670   41.2060 H   0  0  0  0  0  0  0  0  0  0  0  0
   37.1150   29.0170   43.5290 H   0  0  0  0  0  0  0  0  0  0  0  0
   37.3320   26.5910   43.9050 H   0  0  0  0  0  0  0  0  0  0  0  0
   37.3300   24.4220   43.0460 H   0  0  0  0  0  0  0  0  0  0  0  0
   37.1270   22.8340   41.2550 H   0  0  0  0  0  0  0  0  0  0  0  0
   36.6860   23.5780   38.9890 H   0  0  0  0  0  0  0  0  0  0  0  0
   36.4290   25.8970   38.4910 H   0  0  0  0  0  0  0  0  0  0  0  0
   38.7550   28.2670   38.2470 O   0  0  0  0  0  0  0  0  0  0  0  0
   41.2210   29.1320   38.3320 O   0  0  0  0  0  0  0  0  0  0  0  0
   39.8780   29.3340   38.9360 P   0  0  1  0  0  0  0  0  0  0  0  0
   39.4250   30.9300   38.6750 O   0  0  0  0  0  0  0  0  0  0  0  0
   37.7360   35.2620   39.8700 H   0  0  0  0  0  0  0  0  0  0  0  0
   38.2120   34.3460   39.6710 N   0  0  0  0  0  0  0  0  0  0  0  0
   37.2150   33.4030   39.2950 C   0  0  0  0  0  2  0  0  0  0  0  0
   37.5100   31.9700   39.5340 C   0  0  0  0  0  2  0  0  0  0  0  0
   38.9420   31.6070   39.7780 C   0  0  0  0  0  3  0  0  0  0  0  0
   39.8070   32.7130   40.2520 C   0  0  0  0  0  2  0  0  0  0  0  0
   38.9520   33.8380   40.7990 C   0  0  0  0  0  2  0  0  0  0  0  0
   39.9170   29.0530   40.5900 O   0  0  0  0  0  0  0  0  0  0  0  0
   40.5420   27.9980   41.2370 C   0  0  0  0  0  0  0  0  0  0  0  0
   41.0150   28.5000   42.2750 O   0  0  0  0  0  0  0  0  0  0  0  0
   40.4050   26.7770   40.4840 N   0  0  0  0  0  0  0  0  0  0  0  0
   41.1880   26.2420   40.0170 H   0  0  0  0  0  0  0  0  0  0  0  0
   39.4230   26.3900   40.3970 H   0  0  0  0  0  0  0  0  0  0  0  0
  1  2  1  0  0  0  0
  2 26  1  0  0  0  0
  2  3  2  0  0  0  0
  3  9  1  0  0  0  0
  4  3  1  0  0  0  0
  5  4  2  0  0  0  0
  6  1  2  0  0  0  0
  6  5  1  0  0  0  0
  7  1  1  0  0  0  0
  8  5  1  0  0  0  0
  9 18  2  0  0  0  0
  9 10  1  0  0  0  0
 10 11  2  0  0  0  0
 11 12  1  0  0  0  0
 11 20  1  0  0  0  0
 12 21  1  0  0  0  0
 13 14  1  0  0  0  0
 13 12  2  0  0  0  0
 14 22  1  0  0  0  0
 15 23  1  0  0  0  0
 15 14  2  0  0  0  0
 16 15  1  0  0  0  0
 17 16  2  0  0  0  0
 17 18  1  0  0  0  0
 18 13  1  0  0  0  0
 19 10  1  0  0  0  0
 24 16  1  0  0  0  0
 25 17  1  0  0  0  0
 26 28  1  0  0  0  0
 28 27  2  6  0  0  0
 28 37  1  0  0  0  0
 29 28  1  0  0  0  0
 29 34  1  0  0  0  0
 31 30  1  0  0  0  0
 31 36  1  0  0  0  0
 32 33  1  0  0  0  0
 32 31  1  0  0  0  0
 33 34  1  0  0  0  0
 34 35  1  0  0  0  0
 35 36  1  0  0  0  0
 37 38  1  0  0  0  0
 38 39  2  0  0  0  0
 40 38  1  0  0  0  0
 41 40  1  0  0  0  0
 42 40  1  0  0  0  0
M  END
>  <minimizedAffinity>
-5.73767138

$$$$

 OpenBabel03252508103D

 42 45  0  0  0  0  0  0  0  0999 V2000
   36.3330   25.6200   38.1380 C   0  0  0  0  0  0  0  0  0  0  0  0
   36.5320   26.5040   39.1940 C   0  0  0  0  0  0  0  0  0  0  0  0
   37.2300   26.0900   40.3030 C   0  0  0  0  0  0  0  0  0  0  0  0
   37.7030   24.7930   40.3010 N   0  0  0  0  0  0  0  0  0  0  0  0
   37.5090   23.9540   39.2860 C   0  0  0  0  0  0  0  0  0  0  0  0
   36.8190   24.3840   38.2070 N   0  0  0  0  0  0  0  0  0  0  0  0
   35.7910   25.8920   37.2420 H   0  0  0  0  0  0  0  0  0  0  0  0
   37.8700   22.9480   39.2720 H   0  0  0  0  0  0  0  0  0  0  0  0
   37.5180   26.8580   41.4530 C   0  0  0  0  0  0  0  0  0  0  0  0
   36.5970   27.1190   42.4720 C   0  0  0  0  0  0  0  0  0  0  0  0
   36.8510   27.9200   43.5540 C   0  0  0  0  0  0  0  0  0  0  0  0
   38.0790   28.5240   43.6800 C   0  0  0  0  0  0  0  0  0  0  0  0
   39.0320   28.2710   42.6550 C   0  0  0  0  0  0  0  0  0  0  0  0
   40.2600   28.8720   42.7700 C   0  0  0  0  0  0  0  0  0  0  0  0
   41.2320   28.6690   41.8130 C   0  0  0  0  0  0  0  0  0  0  0  0
   40.9550   27.8360   40.7110 C   0  0  0  0  0  0  0  0  0  0  0  0
   39.6810   27.2450   40.6400 C   0  0  0  0  0  0  0  0  0  0  0  0
   38.7360   27.4690   41.6030 C   0  0  0  0  0  0  0  0  0  0  0  0
   35.6240   26.6380   42.3670 H   0  0  0  0  0  0  0  0  0  0  0  0
   36.1390   28.1150   44.3330 H   0  0  0  0  0  0  0  0  0  0  0  0
   38.3590   29.1700   44.5000 H   0  0  0  0  0  0  0  0  0  0  0  0
   40.4880   29.5120   43.6090 H   0  0  0  0  0  0  0  0  0  0  0  0
   42.1880   29.1680   41.9480 H   0  0  0  0  0  0  0  0  0  0  0  0
   41.7710   27.7420   40.0300 H   0  0  0  0  0  0  0  0  0  0  0  0
   39.6720   26.6410   39.7590 H   0  0  0  0  0  0  0  0  0  0  0  0
   36.0150   27.7580   39.0650 O   0  0  0  0  0  0  0  0  0  0  0  0
   36.0500   29.8530   37.5010 O   0  0  0  0  0  0  0  0  0  0  0  0
   36.8700   29.1020   38.4860 P   0  0  1  0  0  0  0  0  0  0  0  0
   37.2620   30.1480   39.7410 O   0  0  0  0  0  0  0  0  0  0  0  0
   39.2440   34.0250   41.7610 H   0  0  0  0  0  0  0  0  0  0  0  0
   38.7190   33.2540   41.2760 N   0  0  0  0  0  0  0  0  0  0  0  0
   39.6040   32.1530   41.1100 C   0  0  0  0  0  2  0  0  0  0  0  0
   39.3280   31.2220   39.9900 C   0  0  0  0  0  2  0  0  0  0  0  0
   37.9610   31.2840   39.3810 C   0  0  0  0  0  3  0  0  0  0  0  0
   37.2280   32.5540   39.5920 C   0  0  0  0  0  2  0  0  0  0  0  0
   38.1960   33.6480   39.9920 C   0  0  0  0  0  2  0  0  0  0  0  0
   38.2930   28.5520   37.7840 O   0  0  0  0  0  0  0  0  0  0  0  0
   38.4340   27.9980   36.5210 C   0  0  0  0  0  0  0  0  0  0  0  0
   39.1510   26.9940   36.6960 O   0  0  0  0  0  0  0  0  0  0  0  0
   37.7210   28.7710   35.5360 N   0  0  0  0  0  0  0  0  0  0  0  0
   38.1520   29.3240   34.7460 H   0  0  0  0  0  0  0  0  0  0  0  0
   36.6650   28.7770   35.6230 H   0  0  0  0  0  0  0  0  0  0  0  0
  1  6  2  0  0  0  0
  1  2  1  0  0  0  0
  2  3  2  0  0  0  0
  3  9  1  0  0  0  0
  4  3  1  0  0  0  0
  5  4  2  0  0  0  0
  6  5  1  0  0  0  0
  7  1  1  0  0  0  0
  8  5  1  0  0  0  0
  9 18  2  0  0  0  0
  9 10  1  0  0  0  0
 10 11  2  0  0  0  0
 11 12  1  0  0  0  0
 11 20  1  0  0  0  0
 12 21  1  0  0  0  0
 13 14  1  0  0  0  0
 13 12  2  0  0  0  0
 14 22  1  0  0  0  0
 15 23  1  0  0  0  0
 15 14  2  0  0  0  0
 16 15  1  0  0  0  0
 17 16  2  0  0  0  0
 17 18  1  0  0  0  0
 18 13  1  0  0  0  0
 19 10  1  0  0  0  0
 24 16  1  0  0  0  0
 25 17  1  0  0  0  0
 26  2  1  0  0  0  0
 28 27  2  6  0  0  0
 28 26  1  0  0  0  0
 28 29  1  0  0  0  0
 31 30  1  0  0  0  0
 32 31  1  0  0  0  0
 33 32  1  0  0  0  0
 34 35  1  0  0  0  0
 34 29  1  0  0  0  0
 34 33  1  0  0  0  0
 35 36  1  0  0  0  0
 36 31  1  0  0  0  0
 37 28  1  0  0  0  0
 38 39  2  0  0  0  0
 38 37  1  0  0  0  0
 40 42  1  0  0  0  0
 40 38  1  0  0  0  0
 41 40  1  0  0  0  0
M  END
>  <minimizedAffinity>
-5.7143445

$$$$
