
 OpenBabel03252508083D

 42 45  0  0  0  0  0  0  0  0999 V2000
   45.3220   36.3590   42.8400 C   0  0  0  0  0  0  0  0  0  0  0  0
   45.4590   34.9790   42.7510 C   0  0  0  0  0  0  0  0  0  0  0  0
   45.1310   34.1920   43.8290 C   0  0  0  0  0  0  0  0  0  0  0  0
   44.6730   34.8360   44.9620 N   0  0  0  0  0  0  0  0  0  0  0  0
   44.5450   36.1590   45.0380 C   0  0  0  0  0  0  0  0  0  0  0  0
   44.8740   36.9100   43.9660 N   0  0  0  0  0  0  0  0  0  0  0  0
   45.5650   37.0270   42.0240 H   0  0  0  0  0  0  0  0  0  0  0  0
   44.1920   36.6700   45.9090 H   0  0  0  0  0  0  0  0  0  0  0  0
   45.2120   32.7840   43.9010 C   0  0  0  0  0  0  0  0  0  0  0  0
   44.5930   31.9160   42.9960 C   0  0  0  0  0  0  0  0  0  0  0  0
   44.6110   30.5500   43.1030 C   0  0  0  0  0  0  0  0  0  0  0  0
   45.2720   29.9590   44.1530 C   0  0  0  0  0  0  0  0  0  0  0  0
   45.9110   30.8230   45.0850 C   0  0  0  0  0  0  0  0  0  0  0  0
   46.5700   30.2430   46.1390 C   0  0  0  0  0  0  0  0  0  0  0  0
   47.2120   31.0210   47.0780 C   0  0  0  0  0  0  0  0  0  0  0  0
   47.1880   32.4230   46.9480 C   0  0  0  0  0  0  0  0  0  0  0  0
   46.4980   32.9690   45.8510 C   0  0  0  0  0  0  0  0  0  0  0  0
   45.8670   32.1700   44.9370 C   0  0  0  0  0  0  0  0  0  0  0  0
   44.0700   32.3900   42.1660 H   0  0  0  0  0  0  0  0  0  0  0  0
   44.1340   29.8900   42.4040 H   0  0  0  0  0  0  0  0  0  0  0  0
   45.3340   28.8910   44.3100 H   0  0  0  0  0  0  0  0  0  0  0  0
   46.5990   29.1690   46.2510 H   0  0  0  0  0  0  0  0  0  0  0  0
   47.7190   30.5140   47.8950 H   0  0  0  0  0  0  0  0  0  0  0  0
   47.7150   32.9340   47.7230 H   0  0  0  0  0  0  0  0  0  0  0  0
   46.6120   34.0290   45.9130 H   0  0  0  0  0  0  0  0  0  0  0  0
   45.9180   34.4720   41.5720 O   0  0  0  0  0  0  0  0  0  0  0  0
   47.5710   32.4630   41.3090 O   0  0  0  0  0  0  0  0  0  0  0  0
   47.5070   33.9480   41.2980 P   0  0  1  0  0  0  0  0  0  0  0  0
   48.0650   34.4820   39.8070 O   0  0  0  0  0  0  0  0  0  0  0  0
   50.5440   32.4480   36.2340 H   0  0  0  0  0  0  0  0  0  0  0  0
   49.9470   32.9690   36.9280 N   0  0  0  0  0  0  0  0  0  0  0  0
   49.8720   32.1900   38.1160 C   0  0  0  0  0  2  0  0  0  0  0  0
   48.6810   32.3790   38.9790 C   0  0  0  0  0  2  0  0  0  0  0  0
   47.8710   33.6170   38.7480 C   0  0  0  0  0  3  0  0  0  0  0  0
   48.0210   34.2350   37.4100 C   0  0  0  0  0  2  0  0  0  0  0  0
   48.6160   33.2330   36.4420 C   0  0  0  0  0  2  0  0  0  0  0  0
   48.4840   34.5970   42.4990 O   0  0  0  0  0  0  0  0  0  0  0  0
   49.6860   35.2650   42.3200 C   0  0  0  0  0  0  0  0  0  0  0  0
   49.3630   36.3760   41.8590 O   0  0  0  0  0  0  0  0  0  0  0  0
   50.7980   34.4420   42.7240 N   0  0  0  0  0  0  0  0  0  0  0  0
   51.5470   34.0510   42.0880 H   0  0  0  0  0  0  0  0  0  0  0  0
   50.8610   34.2160   43.7570 H   0  0  0  0  0  0  0  0  0  0  0  0
  1  6  1  0  0  0  0
  2  1  2  0  0  0  0
  2  3  1  0  0  0  0
  3  9  1  0  0  0  0
  3  4  2  0  0  0  0
  4  5  1  0  0  0  0
  5  8  1  0  0  0  0
  6  5  2  0  0  0  0
  7  1  1  0  0  0  0
  9 18  1  0  0  0  0
 10 11  1  0  0  0  0
 10  9  2  0  0  0  0
 11 12  2  0  0  0  0
 12 21  1  0  0  0  0
 12 13  1  0  0  0  0
 13 14  1  0  0  0  0
 14 22  1  0  0  0  0
 14 15  2  0  0  0  0
 15 23  1  0  0  0  0
 16 15  1  0  0  0  0
 16 24  1  0  0  0  0
 17 25  1  0  0  0  0
 17 16  2  0  0  0  0
 18 13  2  0  0  0  0
 18 17  1  0  0  0  0
 19 10  1  0  0  0  0
 20 11  1  0  0  0  0
 26  2  1  0  0  0  0
 28 27  2  1  0  0  0
 28 26  1  0  0  0  0
 28 37  1  0  0  0  0
 29 28  1  0  0  0  0
 30 31  1  0  0  0  0
 31 32  1  0  0  0  0
 32 33  1  0  0  0  0
 34 33  1  0  0  0  0
 34 29  1  0  0  0  0
 35 34  1  0  0  0  0
 36 31  1  0  0  0  0
 36 35  1  0  0  0  0
 38 37  1  0  0  0  0
 38 40  1  0  0  0  0
 39 38  2  0  0  0  0
 40 42  1  0  0  0  0
 41 40  1  0  0  0  0
M  END
>  <minimizedAffinity>
-6.35115004

>  <minimizedRMSD>
0.605524421

$$$$
