
 OpenBabel03242518283D

 19 20  0  0  0  0  0  0  0  0999 V2000
   45.1160   33.6020   41.7890 C   0  0  0  0  0  0  0  0  0  0  0  0
   44.7300   33.2780   42.9290 O   0  0  0  0  0  0  0  0  0  0  0  0
   44.3310   33.8480   40.6260 C   0  0  0  0  0  0  0  0  0  0  0  0
   43.3820   34.8390   40.7990 C   0  0  0  0  0  0  0  0  0  0  0  0
   42.5630   35.1430   39.6920 C   0  0  0  0  0  0  0  0  0  0  0  0
   42.7450   34.4620   38.5430 N   0  0  0  0  0  0  0  0  0  0  0  0
   43.6940   33.4950   38.4250 C   0  0  0  0  0  0  0  0  0  0  0  0
   44.4830   33.1910   39.4660 N   0  0  0  0  0  0  0  0  0  0  0  0
   43.1710   35.4230   41.6650 H   0  0  0  0  0  0  0  0  0  0  0  0
   41.7930   35.9160   39.7610 H   0  0  0  0  0  0  0  0  0  0  0  0
   43.8680   32.9290   37.5150 H   0  0  0  0  0  0  0  0  0  0  0  0
   46.4940   33.7520   41.6020 O   0  0  0  0  0  0  0  0  0  0  0  0
   49.9340   35.3130   43.8080 H   0  0  0  0  0  0  0  0  0  0  0  0
   50.0710   34.9240   42.8450 N   0  0  0  0  0  0  0  0  0  0  0  0
   49.4180   33.6300   42.8260 C   0  0  0  0  0  0  0  0  0  0  0  0
   48.0240   33.8770   43.3660 C   0  0  0  0  0  0  0  0  0  0  0  0
   47.2540   34.6910   42.3510 C   0  0  0  0  0  0  0  0  0  0  0  0
   48.1190   35.4370   41.4060 C   0  0  0  0  0  0  0  0  0  0  0  0
   49.4680   35.8330   41.9210 C   0  0  0  0  0  0  0  0  0  0  0  0
  1  2  2  0  0  0  0
  3  4  1  0  0  0  0
  3  1  1  0  0  0  0
  4  9  1  0  0  0  0
  5 10  1  0  0  0  0
  5  4  2  0  0  0  0
  6  5  1  0  0  0  0
  7  6  2  0  0  0  0
  7  8  1  0  0  0  0
  8  3  2  0  0  0  0
 11  7  1  0  0  0  0
 12  1  1  0  0  0  0
 12 17  1  0  0  0  0
 14 13  1  0  0  0  0
 15 14  1  0  0  0  0
 15 16  1  0  0  0  0
 17 16  1  0  0  0  0
 18 19  1  0  0  0  0
 18 17  1  0  0  0  0
 19 14  1  0  0  0  0
M  END
>  <minimizedAffinity>
-4.10113525

>  <minimizedRMSD>
4.36211824

$$$$
