
 OpenBabel03242515103D

 34 36  0  0  0  0  0  0  0  0999 V2000
   45.5730   34.0270   45.5610 C   0  0  0  0  0  0  0  0  0  0  0  0
   44.7250   35.0840   45.7390 C   0  0  0  0  0  0  0  0  0  0  0  0
   44.3980   35.9810   44.7410 C   0  0  0  0  0  0  0  0  0  0  0  0
   44.9520   35.8100   43.4930 C   0  0  0  0  0  0  0  0  0  0  0  0
   45.7990   34.7640   43.2920 C   0  0  0  0  0  0  0  0  0  0  0  0
   46.1100   33.8790   44.3090 C   0  0  0  0  0  0  0  0  0  0  0  0
   44.2810   35.2320   46.7170 H   0  0  0  0  0  0  0  0  0  0  0  0
   43.7220   36.7830   44.9710 H   0  0  0  0  0  0  0  0  0  0  0  0
   44.6840   36.5260   42.7160 H   0  0  0  0  0  0  0  0  0  0  0  0
   46.2050   34.6760   42.2950 H   0  0  0  0  0  0  0  0  0  0  0  0
   47.5280   31.8500   47.7670 C   0  0  0  0  0  0  0  0  0  0  0  0
   46.5810   31.3890   48.6790 C   0  0  0  0  0  0  0  0  0  0  0  0
   45.2600   31.8230   48.5410 C   0  0  0  0  0  0  0  0  0  0  0  0
   44.9320   32.6760   47.5350 N   0  0  0  0  0  0  0  0  0  0  0  0
   45.8800   33.1140   46.6540 C   0  0  0  0  0  0  0  0  0  0  0  0
   47.1500   32.6850   46.8010 N   0  0  0  0  0  0  0  0  0  0  0  0
   48.5470   31.5220   47.8650 H   0  0  0  0  0  0  0  0  0  0  0  0
   46.8250   30.7060   49.4910 H   0  0  0  0  0  0  0  0  0  0  0  0
   44.4670   31.5180   49.1980 H   0  0  0  0  0  0  0  0  0  0  0  0
   47.0080   32.8440   43.9390 N   0  0  0  0  0  0  0  0  0  0  0  0
   46.7160   31.9230   44.3870 H   0  0  0  0  0  0  0  0  0  0  0  0
   48.3930   32.8360   42.9520 S   0  0  0  0  0  0  0  0  0  0  0  0
   47.9590   32.7540   41.5000 O   0  0  0  0  0  0  0  0  0  0  0  0
   48.5300   32.4600   40.7640 H   0  0  0  0  0  0  0  0  0  0  0  0
   49.3050   33.9910   43.1410 O   0  0  0  0  0  0  0  0  0  0  0  0
   49.5350   34.7390   42.5330 H   0  0  0  0  0  0  0  0  0  0  0  0
   49.1580   31.3470   43.2650 O   0  0  0  0  0  0  0  0  0  0  0  0
   52.7610   28.5280   41.9200 H   0  0  0  0  0  0  0  0  0  0  0  0
   51.8540   28.7920   42.3480 N   0  0  0  0  0  0  0  0  0  0  0  0
   50.7320   28.6630   41.4620 C   0  0  0  0  0  2  0  0  0  0  0  0
   49.5470   29.4180   42.0030 C   0  0  0  0  0  2  0  0  0  0  0  0
   49.7830   30.8960   42.1360 C   0  0  0  0  0  3  0  0  0  0  0  0
   51.2770   31.1810   42.3130 C   0  0  0  0  0  2  0  0  0  0  0  0
   51.9090   30.0390   43.0690 C   0  0  0  0  0  2  0  0  0  0  0  0
  1  2  1  0  0  0  0
  1 15  1  0  0  0  0
  2  7  1  0  0  0  0
  3  8  1  0  0  0  0
  3  2  2  0  0  0  0
  4  3  1  0  0  0  0
  5  4  2  0  0  0  0
  5  6  1  0  0  0  0
  6  1  2  0  0  0  0
  9  4  1  0  0  0  0
 10  5  1  0  0  0  0
 11 17  1  0  0  0  0
 11 12  1  0  0  0  0
 12 18  1  0  0  0  0
 13 12  2  0  0  0  0
 13 19  1  0  0  0  0
 14 13  1  0  0  0  0
 15 16  1  0  0  0  0
 15 14  2  0  0  0  0
 16 11  2  0  0  0  0
 20  6  1  0  0  0  0
 20 21  1  0  0  0  0
 22 25  1  0  0  0  0
 22 27  1  0  0  0  0
 22 20  1  0  0  0  0
 23 22  1  0  0  0  0
 24 23  1  0  0  0  0
 26 25  1  0  0  0  0
 28 29  1  0  0  0  0
 29 34  1  0  0  0  0
 30 31  1  0  0  0  0
 30 29  1  0  0  0  0
 31 32  1  0  0  0  0
 32 33  1  0  0  0  0
 32 27  1  0  0  0  0
 33 34  1  0  0  0  0
M  END
>  <minimizedAffinity>
-4.9192152

>  <minimizedRMSD>
0.702783585

$$$$
