
 OpenBabel03242515113D

 34 36  0  0  0  0  0  0  0  0999 V2000
   39.8370   28.4640   42.5820 C   0  0  0  0  0  0  0  0  0  0  0  0
   41.1870   28.6610   42.6440 C   0  0  0  0  0  0  0  0  0  0  0  0
   41.7760   29.9060   42.7450 C   0  0  0  0  0  0  0  0  0  0  0  0
   40.9670   31.0180   42.7860 C   0  0  0  0  0  0  0  0  0  0  0  0
   39.6180   30.8460   42.7250 C   0  0  0  0  0  0  0  0  0  0  0  0
   39.0520   29.5870   42.6260 C   0  0  0  0  0  0  0  0  0  0  0  0
   41.8390   27.7940   42.6130 H   0  0  0  0  0  0  0  0  0  0  0  0
   42.8480   29.9670   42.7880 H   0  0  0  0  0  0  0  0  0  0  0  0
   41.4460   31.9930   42.8660 H   0  0  0  0  0  0  0  0  0  0  0  0
   39.0290   31.7510   42.7620 H   0  0  0  0  0  0  0  0  0  0  0  0
   39.4360   24.8590   43.1090 C   0  0  0  0  0  0  0  0  0  0  0  0
   38.3040   24.5520   42.3560 C   0  0  0  0  0  0  0  0  0  0  0  0
   37.6700   25.5840   41.6600 C   0  0  0  0  0  0  0  0  0  0  0  0
   38.1620   26.8490   41.7320 N   0  0  0  0  0  0  0  0  0  0  0  0
   39.2740   27.1240   42.4770 C   0  0  0  0  0  0  0  0  0  0  0  0
   39.8740   26.1170   43.1420 N   0  0  0  0  0  0  0  0  0  0  0  0
   39.9320   24.0730   43.6480 H   0  0  0  0  0  0  0  0  0  0  0  0
   37.8960   23.5460   42.2870 H   0  0  0  0  0  0  0  0  0  0  0  0
   36.7930   25.4370   41.0570 H   0  0  0  0  0  0  0  0  0  0  0  0
   37.6350   29.5780   42.5730 N   0  0  0  0  0  0  0  0  0  0  0  0
   37.2300   29.3720   43.5360 H   0  0  0  0  0  0  0  0  0  0  0  0
   36.5400   29.8280   41.2950 S   0  0  0  0  0  0  0  0  0  0  0  0
   35.6910   28.5810   41.1270 O   0  0  0  0  0  0  0  0  0  0  0  0
   35.1950   28.3510   40.3170 H   0  0  0  0  0  0  0  0  0  0  0  0
   35.6650   31.0170   41.4420 O   0  0  0  0  0  0  0  0  0  0  0  0
   34.6870   31.0860   41.5800 H   0  0  0  0  0  0  0  0  0  0  0  0
   37.5000   29.8980   39.8900 O   0  0  0  0  0  0  0  0  0  0  0  0
   39.4390   32.8750   36.7090 H   0  0  0  0  0  0  0  0  0  0  0  0
   39.0760   31.9840   37.0960 N   0  0  0  0  0  0  0  0  0  0  0  0
   37.6870   31.7520   36.8130 C   0  0  0  0  0  2  0  0  0  0  0  0
   37.1430   30.6750   37.7130 C   0  0  0  0  0  2  0  0  0  0  0  0
   37.1990   31.0230   39.1740 C   0  0  0  0  0  3  0  0  0  0  0  0
   38.3240   32.0290   39.4360 C   0  0  0  0  0  2  0  0  0  0  0  0
   39.4520   31.7660   38.4700 C   0  0  0  0  0  2  0  0  0  0  0  0
  1  6  2  0  0  0  0
  1  2  1  0  0  0  0
  2  3  2  0  0  0  0
  3  4  1  0  0  0  0
  3  8  1  0  0  0  0
  4  9  1  0  0  0  0
  5 10  1  0  0  0  0
  5  4  2  0  0  0  0
  6  5  1  0  0  0  0
  7  2  1  0  0  0  0
 11 16  1  0  0  0  0
 11 17  1  0  0  0  0
 12 11  2  0  0  0  0
 13 14  2  0  0  0  0
 13 12  1  0  0  0  0
 14 15  1  0  0  0  0
 15  1  1  0  0  0  0
 15 16  2  0  0  0  0
 18 12  1  0  0  0  0
 19 13  1  0  0  0  0
 20  6  1  0  0  0  0
 20 21  1  0  0  0  0
 22 25  1  0  0  0  0
 22 20  1  0  0  0  0
 23 22  1  0  0  0  0
 24 23  1  0  0  0  0
 25 26  1  0  0  0  0
 27 22  1  0  0  0  0
 28 29  1  0  0  0  0
 29 34  1  0  0  0  0
 30 29  1  0  0  0  0
 30 31  1  0  0  0  0
 31 32  1  0  0  0  0
 32 33  1  0  0  0  0
 32 27  1  0  0  0  0
 34 33  1  0  0  0  0
M  END
>  <minimizedAffinity>
-6.05582905

$$$$

 OpenBabel03242515113D

 34 36  0  0  0  0  0  0  0  0999 V2000
   37.2920   29.0140   40.9150 C   0  0  0  0  0  0  0  0  0  0  0  0
   36.6400   28.0100   41.5740 C   0  0  0  0  0  0  0  0  0  0  0  0
   36.8030   27.7460   42.9210 C   0  0  0  0  0  0  0  0  0  0  0  0
   37.6680   28.5320   43.6470 C   0  0  0  0  0  0  0  0  0  0  0  0
   38.3280   29.5370   43.0110 C   0  0  0  0  0  0  0  0  0  0  0  0
   38.1460   29.7820   41.6610 C   0  0  0  0  0  0  0  0  0  0  0  0
   35.9550   27.3820   41.0150 H   0  0  0  0  0  0  0  0  0  0  0  0
   36.2500   26.9350   43.3570 H   0  0  0  0  0  0  0  0  0  0  0  0
   37.7860   28.3110   44.7080 H   0  0  0  0  0  0  0  0  0  0  0  0
   38.9940   30.1240   43.6270 H   0  0  0  0  0  0  0  0  0  0  0  0
   35.5210   29.3920   37.7280 C   0  0  0  0  0  0  0  0  0  0  0  0
   36.5470   29.6630   36.8250 C   0  0  0  0  0  0  0  0  0  0  0  0
   37.8580   29.7160   37.3060 C   0  0  0  0  0  0  0  0  0  0  0  0
   38.1020   29.5080   38.6270 N   0  0  0  0  0  0  0  0  0  0  0  0
   37.0780   29.2440   39.4920 C   0  0  0  0  0  0  0  0  0  0  0  0
   35.8180   29.1960   39.0120 N   0  0  0  0  0  0  0  0  0  0  0  0
   34.5090   29.3490   37.3690 H   0  0  0  0  0  0  0  0  0  0  0  0
   36.3720   29.8320   35.7640 H   0  0  0  0  0  0  0  0  0  0  0  0
   38.7070   29.9180   36.6810 H   0  0  0  0  0  0  0  0  0  0  0  0
   38.9060   30.8650   41.1490 N   0  0  0  0  0  0  0  0  0  0  0  0
   39.9160   30.5650   40.9870 H   0  0  0  0  0  0  0  0  0  0  0  0
   38.4910   32.4710   40.7720 S   0  0  0  0  0  0  0  0  0  0  0  0
   36.9940   32.5470   40.5360 O   0  0  0  0  0  0  0  0  0  0  0  0
   36.5430   33.2620   40.0470 H   0  0  0  0  0  0  0  0  0  0  0  0
   38.8940   33.4770   41.7860 O   0  0  0  0  0  0  0  0  0  0  0  0
   38.3470   34.0440   42.3850 H   0  0  0  0  0  0  0  0  0  0  0  0
   39.1910   32.7690   39.2480 O   0  0  0  0  0  0  0  0  0  0  0  0
   43.0980   33.1510   36.5420 H   0  0  0  0  0  0  0  0  0  0  0  0
   42.2000   33.4300   36.9790 N   0  0  0  0  0  0  0  0  0  0  0  0
   42.3530   34.1390   38.2190 C   0  0  0  0  0  2  0  0  0  0  0  0
   41.0510   34.1580   38.9750 C   0  0  0  0  0  2  0  0  0  0  0  0
   40.5530   32.7930   39.3550 C   0  0  0  0  0  3  0  0  0  0  0  0
   41.0930   31.7410   38.3810 C   0  0  0  0  0  2  0  0  0  0  0  0
   41.2310   32.3630   37.0140 C   0  0  0  0  0  2  0  0  0  0  0  0
  1  2  2  0  0  0  0
  1  6  1  0  0  0  0
  2  3  1  0  0  0  0
  3  8  1  0  0  0  0
  3  4  2  0  0  0  0
  4  9  1  0  0  0  0
  5 10  1  0  0  0  0
  5  4  1  0  0  0  0
  6  5  2  0  0  0  0
  7  2  1  0  0  0  0
 11 16  1  0  0  0  0
 12 13  1  0  0  0  0
 12 11  2  0  0  0  0
 13 14  2  0  0  0  0
 14 15  1  0  0  0  0
 15  1  1  0  0  0  0
 16 15  2  0  0  0  0
 17 11  1  0  0  0  0
 18 12  1  0  0  0  0
 19 13  1  0  0  0  0
 20  6  1  0  0  0  0
 21 20  1  0  0  0  0
 22 20  1  0  0  0  0
 22 25  1  0  0  0  0
 23 22  1  0  0  0  0
 24 23  1  0  0  0  0
 25 26  1  0  0  0  0
 27 32  1  0  0  0  0
 27 22  1  0  0  0  0
 28 29  1  0  0  0  0
 29 34  1  0  0  0  0
 29 30  1  0  0  0  0
 30 31  1  0  0  0  0
 31 32  1  0  0  0  0
 33 32  1  0  0  0  0
 34 33  1  0  0  0  0
M  END
>  <minimizedAffinity>
-5.98486233

$$$$

 OpenBabel03242515113D

 34 36  0  0  0  0  0  0  0  0999 V2000
   37.3480   31.6630   39.7940 C   0  0  0  0  0  0  0  0  0  0  0  0
   37.1570   32.9840   39.5050 C   0  0  0  0  0  0  0  0  0  0  0  0
   37.9930   33.9930   39.9430 C   0  0  0  0  0  0  0  0  0  0  0  0
   39.0820   33.6590   40.7150 C   0  0  0  0  0  0  0  0  0  0  0  0
   39.2920   32.3490   41.0160 C   0  0  0  0  0  0  0  0  0  0  0  0
   38.4400   31.3570   40.5640 C   0  0  0  0  0  0  0  0  0  0  0  0
   36.3030   33.2630   38.8970 H   0  0  0  0  0  0  0  0  0  0  0  0
   37.7650   35.0060   39.6670 H   0  0  0  0  0  0  0  0  0  0  0  0
   39.7320   34.4670   41.0530 H   0  0  0  0  0  0  0  0  0  0  0  0
   40.1610   32.1420   41.6240 H   0  0  0  0  0  0  0  0  0  0  0  0
   34.7170   29.1110   39.8230 C   0  0  0  0  0  0  0  0  0  0  0  0
   34.6540   28.7050   38.4920 C   0  0  0  0  0  0  0  0  0  0  0  0
   35.5180   29.3060   37.5730 C   0  0  0  0  0  0  0  0  0  0  0  0
   36.3890   30.2620   37.9910 N   0  0  0  0  0  0  0  0  0  0  0  0
   36.4310   30.6430   39.3020 C   0  0  0  0  0  0  0  0  0  0  0  0
   35.5910   30.0540   40.1760 N   0  0  0  0  0  0  0  0  0  0  0  0
   34.0570   28.6560   40.5390 H   0  0  0  0  0  0  0  0  0  0  0  0
   33.9640   27.9410   38.1390 H   0  0  0  0  0  0  0  0  0  0  0  0
   35.5370   29.0530   36.5300 H   0  0  0  0  0  0  0  0  0  0  0  0
   38.7970   30.0430   40.9640 N   0  0  0  0  0  0  0  0  0  0  0  0
   39.5480   29.6510   40.3180 H   0  0  0  0  0  0  0  0  0  0  0  0
   38.2520   29.0510   42.2330 S   0  0  0  0  0  0  0  0  0  0  0  0
   39.3480   28.9470   43.2780 O   0  0  0  0  0  0  0  0  0  0  0  0
   39.4100   28.2410   43.9510 H   0  0  0  0  0  0  0  0  0  0  0  0
   36.9860   29.4870   42.8710 O   0  0  0  0  0  0  0  0  0  0  0  0
   36.8070   29.8320   43.7830 H   0  0  0  0  0  0  0  0  0  0  0  0
   38.1360   27.4890   41.5630 O   0  0  0  0  0  0  0  0  0  0  0  0
   37.8370   22.7770   42.2300 H   0  0  0  0  0  0  0  0  0  0  0  0
   38.1860   23.6740   41.8410 N   0  0  0  0  0  0  0  0  0  0  0  0
   39.2870   24.2340   42.5730 C   0  0  0  0  0  2  0  0  0  0  0  0
   39.4740   25.6830   42.2070 C   0  0  0  0  0  2  0  0  0  0  0  0
   38.2910   26.5480   42.5420 C   0  0  0  0  0  3  0  0  0  0  0  0
   37.0090   25.7090   42.5580 C   0  0  0  0  0  2  0  0  0  0  0  0
   37.1310   24.6070   41.5360 C   0  0  0  0  0  2  0  0  0  0  0  0
  1  6  1  0  0  0  0
  2  1  2  0  0  0  0
  2  3  1  0  0  0  0
  3  4  2  0  0  0  0
  4  5  1  0  0  0  0
  4  9  1  0  0  0  0
  5 10  1  0  0  0  0
  6 20  1  0  0  0  0
  6  5  2  0  0  0  0
  7  2  1  0  0  0  0
  8  3  1  0  0  0  0
 11 16  1  0  0  0  0
 11 17  1  0  0  0  0
 12 11  2  0  0  0  0
 13 14  2  0  0  0  0
 13 12  1  0  0  0  0
 14 15  1  0  0  0  0
 15  1  1  0  0  0  0
 15 16  2  0  0  0  0
 18 12  1  0  0  0  0
 19 13  1  0  0  0  0
 20 22  1  0  0  0  0
 21 20  1  0  0  0  0
 22 25  1  0  0  0  0
 22 23  1  0  0  0  0
 23 24  1  0  0  0  0
 25 26  1  0  0  0  0
 27 22  1  0  0  0  0
 27 32  1  0  0  0  0
 29 28  1  0  0  0  0
 29 30  1  0  0  0  0
 31 32  1  0  0  0  0
 31 30  1  0  0  0  0
 32 33  1  0  0  0  0
 34 29  1  0  0  0  0
 34 33  1  0  0  0  0
M  END
>  <minimizedAffinity>
-5.94939804

$$$$

 OpenBabel03242515113D

 34 36  0  0  0  0  0  0  0  0999 V2000
   36.6560   30.5240   39.3290 C   0  0  0  0  0  0  0  0  0  0  0  0
   36.4610   30.3790   37.9840 C   0  0  0  0  0  0  0  0  0  0  0  0
   35.6770   29.3880   37.4270 C   0  0  0  0  0  0  0  0  0  0  0  0
   35.0520   28.4920   38.2630 C   0  0  0  0  0  0  0  0  0  0  0  0
   35.2320   28.6170   39.6060 C   0  0  0  0  0  0  0  0  0  0  0  0
   36.0220   29.6190   40.1400 C   0  0  0  0  0  0  0  0  0  0  0  0
   36.9460   31.0780   37.3130 H   0  0  0  0  0  0  0  0  0  0  0  0
   35.5790   29.3500   36.3580 H   0  0  0  0  0  0  0  0  0  0  0  0
   34.4370   27.7160   37.8080 H   0  0  0  0  0  0  0  0  0  0  0  0
   34.7190   27.8880   40.2170 H   0  0  0  0  0  0  0  0  0  0  0  0
   37.9400   33.9050   39.9230 C   0  0  0  0  0  0  0  0  0  0  0  0
   39.0080   33.6910   40.7930 C   0  0  0  0  0  0  0  0  0  0  0  0
   39.2950   32.3800   41.1810 C   0  0  0  0  0  0  0  0  0  0  0  0
   38.5360   31.3550   40.7110 N   0  0  0  0  0  0  0  0  0  0  0  0
   37.4950   31.5920   39.8590 C   0  0  0  0  0  0  0  0  0  0  0  0
   37.2310   32.8620   39.4940 N   0  0  0  0  0  0  0  0  0  0  0  0
   37.7110   34.9100   39.6180 H   0  0  0  0  0  0  0  0  0  0  0  0
   39.6260   34.4990   41.1800 H   0  0  0  0  0  0  0  0  0  0  0  0
   40.0980   32.1240   41.8470 H   0  0  0  0  0  0  0  0  0  0  0  0
   36.1080   29.6140   41.5560 N   0  0  0  0  0  0  0  0  0  0  0  0
   35.4460   30.3390   41.9700 H   0  0  0  0  0  0  0  0  0  0  0  0
   37.0410   28.6910   42.6380 S   0  0  0  0  0  0  0  0  0  0  0  0
   38.0700   29.5950   43.2920 O   0  0  0  0  0  0  0  0  0  0  0  0
   38.8880   29.2850   43.7270 H   0  0  0  0  0  0  0  0  0  0  0  0
   36.2670   27.9710   43.6790 O   0  0  0  0  0  0  0  0  0  0  0  0
   36.2320   28.0980   44.6610 H   0  0  0  0  0  0  0  0  0  0  0  0
   37.9480   27.6330   41.6580 O   0  0  0  0  0  0  0  0  0  0  0  0
   38.7640   23.1830   40.1520 H   0  0  0  0  0  0  0  0  0  0  0  0
   38.9800   24.1340   40.5060 N   0  0  0  0  0  0  0  0  0  0  0  0
   39.0430   24.2190   41.9390 C   0  0  0  0  0  2  0  0  0  0  0  0
   38.9640   25.6560   42.3810 C   0  0  0  0  0  2  0  0  0  0  0  0
   37.6810   26.3370   41.9970 C   0  0  0  0  0  3  0  0  0  0  0  0
   37.0780   25.6690   40.7580 C   0  0  0  0  0  2  0  0  0  0  0  0
   38.1940   25.1660   39.8780 C   0  0  0  0  0  2  0  0  0  0  0  0
  1 15  1  0  0  0  0
  1  6  1  0  0  0  0
  2  1  2  0  0  0  0
  3  2  1  0  0  0  0
  3  4  2  0  0  0  0
  4  5  1  0  0  0  0
  5  6  2  0  0  0  0
  5 10  1  0  0  0  0
  6 20  1  0  0  0  0
  7  2  1  0  0  0  0
  8  3  1  0  0  0  0
  9  4  1  0  0  0  0
 11 12  1  0  0  0  0
 12 18  1  0  0  0  0
 12 13  2  0  0  0  0
 13 19  1  0  0  0  0
 14 13  1  0  0  0  0
 15 14  2  0  0  0  0
 16 15  1  0  0  0  0
 16 11  2  0  0  0  0
 17 11  1  0  0  0  0
 20 21  1  0  0  0  0
 20 22  1  0  0  0  0
 22 23  1  0  0  0  0
 22 25  1  0  0  0  0
 23 24  1  0  0  0  0
 25 26  1  0  0  0  0
 27 32  1  0  0  0  0
 27 22  1  0  0  0  0
 28 29  1  0  0  0  0
 29 30  1  0  0  0  0
 30 31  1  0  0  0  0
 32 31  1  0  0  0  0
 33 32  1  0  0  0  0
 34 29  1  0  0  0  0
 34 33  1  0  0  0  0
M  END
>  <minimizedAffinity>
-5.82415104

$$$$

 OpenBabel03242515113D

 34 36  0  0  0  0  0  0  0  0999 V2000
   38.3210   30.9570   41.3050 C   0  0  0  0  0  0  0  0  0  0  0  0
   39.4210   31.7370   41.0880 C   0  0  0  0  0  0  0  0  0  0  0  0
   39.4010   32.9000   40.3430 C   0  0  0  0  0  0  0  0  0  0  0  0
   38.2110   33.3050   39.7830 C   0  0  0  0  0  0  0  0  0  0  0  0
   37.1020   32.5430   39.9860 C   0  0  0  0  0  0  0  0  0  0  0  0
   37.1480   31.3820   40.7370 C   0  0  0  0  0  0  0  0  0  0  0  0
   40.3670   31.4320   41.5230 H   0  0  0  0  0  0  0  0  0  0  0  0
   40.3150   33.4520   40.2250 H   0  0  0  0  0  0  0  0  0  0  0  0
   38.2120   34.2250   39.1980 H   0  0  0  0  0  0  0  0  0  0  0  0
   36.1950   32.9060   39.5250 H   0  0  0  0  0  0  0  0  0  0  0  0
   39.6770   27.8410   42.6780 C   0  0  0  0  0  0  0  0  0  0  0  0
   38.6790   27.4190   43.5540 C   0  0  0  0  0  0  0  0  0  0  0  0
   37.5300   28.2050   43.6790 C   0  0  0  0  0  0  0  0  0  0  0  0
   37.4120   29.3480   42.9540 N   0  0  0  0  0  0  0  0  0  0  0  0
   38.4050   29.7400   42.1020 C   0  0  0  0  0  0  0  0  0  0  0  0
   39.5070   28.9710   41.9930 N   0  0  0  0  0  0  0  0  0  0  0  0
   40.5650   27.2450   42.5740 H   0  0  0  0  0  0  0  0  0  0  0  0
   38.7560   26.5070   44.1430 H   0  0  0  0  0  0  0  0  0  0  0  0
   36.7130   27.9550   44.3300 H   0  0  0  0  0  0  0  0  0  0  0  0
   35.9080   30.7030   40.8540 N   0  0  0  0  0  0  0  0  0  0  0  0
   35.3280   31.1230   41.6420 H   0  0  0  0  0  0  0  0  0  0  0  0
   35.2360   29.4020   39.9890 S   0  0  0  0  0  0  0  0  0  0  0  0
   35.8610   28.1100   40.4830 O   0  0  0  0  0  0  0  0  0  0  0  0
   35.8670   27.2690   39.9870 H   0  0  0  0  0  0  0  0  0  0  0  0
   33.7560   29.3030   40.0530 O   0  0  0  0  0  0  0  0  0  0  0  0
   33.1730   28.6230   40.4750 H   0  0  0  0  0  0  0  0  0  0  0  0
   35.8050   29.5820   38.3940 O   0  0  0  0  0  0  0  0  0  0  0  0
   38.0900   27.7200   34.6460 H   0  0  0  0  0  0  0  0  0  0  0  0
   37.8470   28.4150   35.3760 N   0  0  0  0  0  0  0  0  0  0  0  0
   38.6290   28.2960   36.5750 C   0  0  0  0  0  2  0  0  0  0  0  0
   37.9740   29.0470   37.7030 C   0  0  0  0  0  2  0  0  0  0  0  0
   36.6100   28.5280   38.0630 C   0  0  0  0  0  3  0  0  0  0  0  0
   35.9680   27.8420   36.8530 C   0  0  0  0  0  2  0  0  0  0  0  0
   36.4280   28.5350   35.5950 C   0  0  0  0  0  2  0  0  0  0  0  0
  1 15  1  0  0  0  0
  2  1  1  0  0  0  0
  2  7  1  0  0  0  0
  3  2  2  0  0  0  0
  4  5  2  0  0  0  0
  4  3  1  0  0  0  0
  5  6  1  0  0  0  0
  6 20  1  0  0  0  0
  6  1  2  0  0  0  0
  8  3  1  0  0  0  0
  9  4  1  0  0  0  0
 10  5  1  0  0  0  0
 11 12  1  0  0  0  0
 12 13  2  0  0  0  0
 12 18  1  0  0  0  0
 13 19  1  0  0  0  0
 14 13  1  0  0  0  0
 15 14  2  0  0  0  0
 16 15  1  0  0  0  0
 16 11  2  0  0  0  0
 17 11  1  0  0  0  0
 20 21  1  0  0  0  0
 22 25  1  0  0  0  0
 22 23  1  0  0  0  0
 22 20  1  0  0  0  0
 24 23  1  0  0  0  0
 25 26  1  0  0  0  0
 27 22  1  0  0  0  0
 28 29  1  0  0  0  0
 29 34  1  0  0  0  0
 29 30  1  0  0  0  0
 30 31  1  0  0  0  0
 31 32  1  0  0  0  0
 32 27  1  0  0  0  0
 33 32  1  0  0  0  0
 34 33  1  0  0  0  0
M  END
>  <minimizedAffinity>
-5.8114419

$$$$

 OpenBabel03242515113D

 34 36  0  0  0  0  0  0  0  0999 V2000
   39.0160   27.6860   42.0510 C   0  0  0  0  0  0  0  0  0  0  0  0
   40.3190   27.8940   42.4060 C   0  0  0  0  0  0  0  0  0  0  0  0
   40.8550   29.1430   42.6540 C   0  0  0  0  0  0  0  0  0  0  0  0
   40.0400   30.2450   42.5400 C   0  0  0  0  0  0  0  0  0  0  0  0
   38.7380   30.0620   42.1870 C   0  0  0  0  0  0  0  0  0  0  0  0
   38.2250   28.8000   41.9450 C   0  0  0  0  0  0  0  0  0  0  0  0
   40.9740   27.0350   42.5000 H   0  0  0  0  0  0  0  0  0  0  0  0
   41.8910   29.2130   42.9280 H   0  0  0  0  0  0  0  0  0  0  0  0
   40.4770   31.2240   42.7390 H   0  0  0  0  0  0  0  0  0  0  0  0
   38.1420   30.9600   42.1120 H   0  0  0  0  0  0  0  0  0  0  0  0
   38.8470   24.2690   40.7340 C   0  0  0  0  0  0  0  0  0  0  0  0
   37.6530   23.7840   41.2620 C   0  0  0  0  0  0  0  0  0  0  0  0
   36.8940   24.6310   42.0750 C   0  0  0  0  0  0  0  0  0  0  0  0
   37.3320   25.8910   42.3320 N   0  0  0  0  0  0  0  0  0  0  0  0
   38.5070   26.3430   41.8020 C   0  0  0  0  0  0  0  0  0  0  0  0
   39.2280   25.5140   41.0200 N   0  0  0  0  0  0  0  0  0  0  0  0
   39.4390   23.6270   40.1080 H   0  0  0  0  0  0  0  0  0  0  0  0
   37.2850   22.7780   41.0670 H   0  0  0  0  0  0  0  0  0  0  0  0
   35.9620   24.3390   42.5220 H   0  0  0  0  0  0  0  0  0  0  0  0
   36.8520   28.7780   41.5880 N   0  0  0  0  0  0  0  0  0  0  0  0
   36.3860   27.8960   41.9610 H   0  0  0  0  0  0  0  0  0  0  0  0
   35.8850   29.8690   40.7110 S   0  0  0  0  0  0  0  0  0  0  0  0
   34.5750   29.1870   40.3590 O   0  0  0  0  0  0  0  0  0  0  0  0
   33.9740   29.4730   39.6440 H   0  0  0  0  0  0  0  0  0  0  0  0
   35.6150   31.1570   41.3960 O   0  0  0  0  0  0  0  0  0  0  0  0
   34.7710   31.5340   41.7540 H   0  0  0  0  0  0  0  0  0  0  0  0
   36.6840   30.0800   39.2220 O   0  0  0  0  0  0  0  0  0  0  0  0
   37.7050   28.4020   34.8770 H   0  0  0  0  0  0  0  0  0  0  0  0
   37.8740   28.8220   35.8110 N   0  0  0  0  0  0  0  0  0  0  0  0
   38.1970   27.8610   36.8290 C   0  0  0  0  0  2  0  0  0  0  0  0
   38.0390   28.4750   38.1950 C   0  0  0  0  0  2  0  0  0  0  0  0
   36.6360   28.9220   38.4980 C   0  0  0  0  0  3  0  0  0  0  0  0
   35.8900   29.2410   37.1990 C   0  0  0  0  0  2  0  0  0  0  0  0
   36.8700   29.7840   36.1900 C   0  0  0  0  0  2  0  0  0  0  0  0
  1  2  1  0  0  0  0
  2  7  1  0  0  0  0
  2  3  2  0  0  0  0
  3  8  1  0  0  0  0
  4  3  1  0  0  0  0
  4  9  1  0  0  0  0
  5  4  2  0  0  0  0
  6  1  2  0  0  0  0
  6  5  1  0  0  0  0
 10  5  1  0  0  0  0
 11 16  2  0  0  0  0
 11 12  1  0  0  0  0
 12 13  2  0  0  0  0
 13 14  1  0  0  0  0
 13 19  1  0  0  0  0
 15  1  1  0  0  0  0
 15 14  2  0  0  0  0
 16 15  1  0  0  0  0
 17 11  1  0  0  0  0
 18 12  1  0  0  0  0
 20  6  1  0  0  0  0
 20 21  1  0  0  0  0
 22 25  1  0  0  0  0
 22 20  1  0  0  0  0
 23 22  1  0  0  0  0
 24 23  1  0  0  0  0
 25 26  1  0  0  0  0
 27 22  1  0  0  0  0
 28 29  1  0  0  0  0
 29 34  1  0  0  0  0
 29 30  1  0  0  0  0
 30 31  1  0  0  0  0
 31 32  1  0  0  0  0
 32 27  1  0  0  0  0
 33 32  1  0  0  0  0
 34 33  1  0  0  0  0
M  END
>  <minimizedAffinity>
-5.72864389

$$$$

 OpenBabel03242515113D

 34 36  0  0  0  0  0  0  0  0999 V2000
   36.8470   26.4120   39.8010 C   0  0  0  0  0  0  0  0  0  0  0  0
   36.3670   25.1480   39.6010 C   0  0  0  0  0  0  0  0  0  0  0  0
   36.4060   24.1540   40.5600 C   0  0  0  0  0  0  0  0  0  0  0  0
   36.9580   24.4420   41.7870 C   0  0  0  0  0  0  0  0  0  0  0  0
   37.4420   25.6940   42.0080 C   0  0  0  0  0  0  0  0  0  0  0  0
   37.3900   26.6730   41.0320 C   0  0  0  0  0  0  0  0  0  0  0  0
   35.9290   24.9060   38.6390 H   0  0  0  0  0  0  0  0  0  0  0  0
   36.0050   23.1880   40.3160 H   0  0  0  0  0  0  0  0  0  0  0  0
   36.9820   23.6470   42.5320 H   0  0  0  0  0  0  0  0  0  0  0  0
   37.8640   25.8670   42.9880 H   0  0  0  0  0  0  0  0  0  0  0  0
   35.6290   29.2840   37.8760 C   0  0  0  0  0  0  0  0  0  0  0  0
   36.5390   29.3700   36.8250 C   0  0  0  0  0  0  0  0  0  0  0  0
   37.5800   28.4390   36.7690 C   0  0  0  0  0  0  0  0  0  0  0  0
   37.6820   27.4830   37.7300 N   0  0  0  0  0  0  0  0  0  0  0  0
   36.7760   27.4200   38.7500 C   0  0  0  0  0  0  0  0  0  0  0  0
   35.7780   28.3250   38.7900 N   0  0  0  0  0  0  0  0  0  0  0  0
   34.8250   29.9940   37.9290 H   0  0  0  0  0  0  0  0  0  0  0  0
   36.4730   30.1280   36.0470 H   0  0  0  0  0  0  0  0  0  0  0  0
   38.3240   28.4320   35.9950 H   0  0  0  0  0  0  0  0  0  0  0  0
   37.9360   27.9240   41.4180 N   0  0  0  0  0  0  0  0  0  0  0  0
   38.9800   27.9540   41.2050 H   0  0  0  0  0  0  0  0  0  0  0  0
   37.2360   29.3040   42.1250 S   0  0  0  0  0  0  0  0  0  0  0  0
   35.8590   29.5170   41.5220 O   0  0  0  0  0  0  0  0  0  0  0  0
   35.3700   30.3620   41.5380 H   0  0  0  0  0  0  0  0  0  0  0  0
   37.1390   29.2700   43.6050 O   0  0  0  0  0  0  0  0  0  0  0  0
   36.3480   29.2250   44.1990 H   0  0  0  0  0  0  0  0  0  0  0  0
   38.1670   30.6160   41.5660 O   0  0  0  0  0  0  0  0  0  0  0  0
   39.1310   33.7860   38.1360 H   0  0  0  0  0  0  0  0  0  0  0  0
   39.3050   33.0260   38.8210 N   0  0  0  0  0  0  0  0  0  0  0  0
   39.1380   31.7060   38.2780 C   0  0  0  0  0  2  0  0  0  0  0  0
   39.0160   30.6970   39.3890 C   0  0  0  0  0  2  0  0  0  0  0  0
   37.8240   30.9160   40.2770 C   0  0  0  0  0  3  0  0  0  0  0  0
   37.4160   32.3930   40.2600 C   0  0  0  0  0  2  0  0  0  0  0  0
   38.6510   33.2410   40.0870 C   0  0  0  0  0  2  0  0  0  0  0  0
  1  6  1  0  0  0  0
  2  1  2  0  0  0  0
  2  3  1  0  0  0  0
  3  4  2  0  0  0  0
  4  5  1  0  0  0  0
  4  9  1  0  0  0  0
  5 10  1  0  0  0  0
  6 20  1  0  0  0  0
  6  5  2  0  0  0  0
  7  2  1  0  0  0  0
  8  3  1  0  0  0  0
 11 17  1  0  0  0  0
 11 16  1  0  0  0  0
 12 11  2  0  0  0  0
 13 12  1  0  0  0  0
 13 14  2  0  0  0  0
 14 15  1  0  0  0  0
 15 16  2  0  0  0  0
 15  1  1  0  0  0  0
 18 12  1  0  0  0  0
 19 13  1  0  0  0  0
 20 22  1  0  0  0  0
 21 20  1  0  0  0  0
 22 25  1  0  0  0  0
 23 24  1  0  0  0  0
 23 22  1  0  0  0  0
 25 26  1  0  0  0  0
 27 22  1  0  0  0  0
 28 29  1  0  0  0  0
 29 34  1  0  0  0  0
 30 29  1  0  0  0  0
 30 31  1  0  0  0  0
 31 32  1  0  0  0  0
 32 27  1  0  0  0  0
 33 32  1  0  0  0  0
 34 33  1  0  0  0  0
M  END
>  <minimizedAffinity>
-5.70455122

$$$$

 OpenBabel03242515113D

 34 36  0  0  0  0  0  0  0  0999 V2000
   37.0750   30.1740   39.0390 C   0  0  0  0  0  0  0  0  0  0  0  0
   36.1440   30.1180   38.0410 C   0  0  0  0  0  0  0  0  0  0  0  0
   35.4670   28.9660   37.6880 C   0  0  0  0  0  0  0  0  0  0  0  0
   35.7380   27.8050   38.3750 C   0  0  0  0  0  0  0  0  0  0  0  0
   36.6620   27.8380   39.3730 C   0  0  0  0  0  0  0  0  0  0  0  0
   37.3260   29.0050   39.7080 C   0  0  0  0  0  0  0  0  0  0  0  0
   35.9190   31.0250   37.4910 H   0  0  0  0  0  0  0  0  0  0  0  0
   34.7510   29.0150   36.8900 H   0  0  0  0  0  0  0  0  0  0  0  0
   35.1960   26.9050   38.0850 H   0  0  0  0  0  0  0  0  0  0  0  0
   36.8370   26.8990   39.8800 H   0  0  0  0  0  0  0  0  0  0  0  0
   39.8090   32.4920   39.8050 C   0  0  0  0  0  0  0  0  0  0  0  0
   39.1540   33.7090   39.9800 C   0  0  0  0  0  0  0  0  0  0  0  0
   37.7640   33.7420   39.8370 C   0  0  0  0  0  0  0  0  0  0  0  0
   37.0900   32.6010   39.5320 N   0  0  0  0  0  0  0  0  0  0  0  0
   37.7560   31.4210   39.3660 C   0  0  0  0  0  0  0  0  0  0  0  0
   39.0970   31.4060   39.5070 N   0  0  0  0  0  0  0  0  0  0  0  0
   40.8770   32.4560   39.9130 H   0  0  0  0  0  0  0  0  0  0  0  0
   39.6760   34.6320   40.2240 H   0  0  0  0  0  0  0  0  0  0  0  0
   37.1800   34.6350   39.9540 H   0  0  0  0  0  0  0  0  0  0  0  0
   38.2580   28.8720   40.7700 N   0  0  0  0  0  0  0  0  0  0  0  0
   39.2110   28.5850   40.3920 H   0  0  0  0  0  0  0  0  0  0  0  0
   38.1070   29.0850   42.4510 S   0  0  0  0  0  0  0  0  0  0  0  0
   39.1340   30.1050   42.9090 O   0  0  0  0  0  0  0  0  0  0  0  0
   39.4480   30.2040   43.8290 H   0  0  0  0  0  0  0  0  0  0  0  0
   36.7560   29.4870   42.9140 O   0  0  0  0  0  0  0  0  0  0  0  0
   36.4380   30.3320   43.3210 H   0  0  0  0  0  0  0  0  0  0  0  0
   38.6160   27.6120   43.1370 O   0  0  0  0  0  0  0  0  0  0  0  0
   39.6280   22.9820   42.6100 H   0  0  0  0  0  0  0  0  0  0  0  0
   39.1110   23.8240   42.9250 N   0  0  0  0  0  0  0  0  0  0  0  0
   38.0680   24.2340   42.0270 C   0  0  0  0  0  2  0  0  0  0  0  0
   37.6400   25.6450   42.3330 C   0  0  0  0  0  2  0  0  0  0  0  0
   38.7360   26.6590   42.1630 C   0  0  0  0  0  3  0  0  0  0  0  0
   40.1040   25.9980   42.3550 C   0  0  0  0  0  2  0  0  0  0  0  0
   39.9750   24.8880   43.3680 C   0  0  0  0  0  2  0  0  0  0  0  0
  1 15  1  0  0  0  0
  1  6  1  0  0  0  0
  2  1  2  0  0  0  0
  3  2  1  0  0  0  0
  3  4  2  0  0  0  0
  4  5  1  0  0  0  0
  5  6  2  0  0  0  0
  5 10  1  0  0  0  0
  6 20  1  0  0  0  0
  7  2  1  0  0  0  0
  8  3  1  0  0  0  0
  9  4  1  0  0  0  0
 11 17  1  0  0  0  0
 11 12  1  0  0  0  0
 12 18  1  0  0  0  0
 13 19  1  0  0  0  0
 13 12  2  0  0  0  0
 14 13  1  0  0  0  0
 15 16  1  0  0  0  0
 15 14  2  0  0  0  0
 16 11  2  0  0  0  0
 20 22  1  0  0  0  0
 21 20  1  0  0  0  0
 22 23  1  0  0  0  0
 22 25  1  0  0  0  0
 22 27  1  0  0  0  0
 23 24  1  0  0  0  0
 25 26  1  0  0  0  0
 28 29  1  0  0  0  0
 29 34  1  0  0  0  0
 30 31  1  0  0  0  0
 30 29  1  0  0  0  0
 32 31  1  0  0  0  0
 32 33  1  0  0  0  0
 32 27  1  0  0  0  0
 33 34  1  0  0  0  0
M  END
>  <minimizedAffinity>
-5.69212151

$$$$

 OpenBabel03242515113D

 34 36  0  0  0  0  0  0  0  0999 V2000
   38.0690   26.8350   41.9860 C   0  0  0  0  0  0  0  0  0  0  0  0
   38.1350   25.4700   41.9980 C   0  0  0  0  0  0  0  0  0  0  0  0
   38.9960   24.7520   42.8050 C   0  0  0  0  0  0  0  0  0  0  0  0
   39.8390   25.4400   43.6480 C   0  0  0  0  0  0  0  0  0  0  0  0
   39.7900   26.7990   43.6530 C   0  0  0  0  0  0  0  0  0  0  0  0
   38.9180   27.4960   42.8360 C   0  0  0  0  0  0  0  0  0  0  0  0
   37.4770   24.9150   41.3390 H   0  0  0  0  0  0  0  0  0  0  0  0
   38.9800   23.6800   42.7480 H   0  0  0  0  0  0  0  0  0  0  0  0
   40.5120   24.8580   44.2780 H   0  0  0  0  0  0  0  0  0  0  0  0
   40.4720   27.2890   44.3330 H   0  0  0  0  0  0  0  0  0  0  0  0
   36.4180   27.9300   38.9030 C   0  0  0  0  0  0  0  0  0  0  0  0
   35.4360   28.8050   39.3620 C   0  0  0  0  0  0  0  0  0  0  0  0
   35.3350   29.0280   40.7380 C   0  0  0  0  0  0  0  0  0  0  0  0
   36.1840   28.3920   41.5880 N   0  0  0  0  0  0  0  0  0  0  0  0
   37.1380   27.5380   41.1120 C   0  0  0  0  0  0  0  0  0  0  0  0
   37.2230   27.3340   39.7820 N   0  0  0  0  0  0  0  0  0  0  0  0
   36.5040   27.7520   37.8460 H   0  0  0  0  0  0  0  0  0  0  0  0
   34.7480   29.3240   38.6960 H   0  0  0  0  0  0  0  0  0  0  0  0
   34.6090   29.6850   41.1770 H   0  0  0  0  0  0  0  0  0  0  0  0
   38.9900   28.9080   42.9600 N   0  0  0  0  0  0  0  0  0  0  0  0
   38.4190   29.2350   43.7970 H   0  0  0  0  0  0  0  0  0  0  0  0
   39.7940   30.0930   42.0420 S   0  0  0  0  0  0  0  0  0  0  0  0
   40.1260   31.2680   42.9430 O   0  0  0  0  0  0  0  0  0  0  0  0
   40.3280   32.1700   42.6290 H   0  0  0  0  0  0  0  0  0  0  0  0
   41.0200   29.6250   41.3490 O   0  0  0  0  0  0  0  0  0  0  0  0
   41.9710   29.8600   41.4920 H   0  0  0  0  0  0  0  0  0  0  0  0
   38.6240   30.6900   40.9570 O   0  0  0  0  0  0  0  0  0  0  0  0
   37.1700   34.4180   38.3640 H   0  0  0  0  0  0  0  0  0  0  0  0
   37.2770   33.8080   39.1960 N   0  0  0  0  0  0  0  0  0  0  0  0
   38.3890   34.1580   40.0340 C   0  0  0  0  0  2  0  0  0  0  0  0
   38.7140   33.0260   40.9720 C   0  0  0  0  0  2  0  0  0  0  0  0
   39.1250   31.7610   40.2720 C   0  0  0  0  0  3  0  0  0  0  0  0
   38.5180   31.7120   38.8670 C   0  0  0  0  0  2  0  0  0  0  0  0
   37.1780   32.4030   38.8860 C   0  0  0  0  0  2  0  0  0  0  0  0
  1  2  2  0  0  0  0
  1  6  1  0  0  0  0
  2  3  1  0  0  0  0
  3  4  2  0  0  0  0
  4  5  1  0  0  0  0
  4  9  1  0  0  0  0
  5 10  1  0  0  0  0
  6 20  1  0  0  0  0
  6  5  2  0  0  0  0
  7  2  1  0  0  0  0
  8  3  1  0  0  0  0
 11 12  2  0  0  0  0
 11 16  1  0  0  0  0
 12 13  1  0  0  0  0
 13 19  1  0  0  0  0
 13 14  2  0  0  0  0
 15 14  1  0  0  0  0
 15  1  1  0  0  0  0
 16 15  2  0  0  0  0
 17 11  1  0  0  0  0
 18 12  1  0  0  0  0
 20 21  1  0  0  0  0
 22 23  1  0  0  0  0
 22 20  1  0  0  0  0
 24 23  1  0  0  0  0
 25 26  1  0  0  0  0
 25 22  1  0  0  0  0
 27 22  1  0  0  0  0
 28 29  1  0  0  0  0
 29 30  1  0  0  0  0
 30 31  1  0  0  0  0
 32 27  1  0  0  0  0
 32 31  1  0  0  0  0
 33 34  1  0  0  0  0
 33 32  1  0  0  0  0
 34 29  1  0  0  0  0
M  END
>  <minimizedAffinity>
-5.6581316

$$$$
