
 OpenBabel03242515103D

 34 36  0  0  0  0  0  0  0  0999 V2000
   45.5880   34.0410   45.5570 C   0  0  0  0  0  0  0  0  0  0  0  0
   44.7190   35.0810   45.7320 C   0  0  0  0  0  0  0  0  0  0  0  0
   44.3960   35.9850   44.7390 C   0  0  0  0  0  0  0  0  0  0  0  0
   44.9760   35.8390   43.4990 C   0  0  0  0  0  0  0  0  0  0  0  0
   45.8450   34.8110   43.3020 C   0  0  0  0  0  0  0  0  0  0  0  0
   46.1510   33.9180   44.3140 C   0  0  0  0  0  0  0  0  0  0  0  0
   44.2540   35.2090   46.7030 H   0  0  0  0  0  0  0  0  0  0  0  0
   43.7020   36.7730   44.9650 H   0  0  0  0  0  0  0  0  0  0  0  0
   44.7110   36.5600   42.7260 H   0  0  0  0  0  0  0  0  0  0  0  0
   46.2710   34.7410   42.3120 H   0  0  0  0  0  0  0  0  0  0  0  0
   47.5330   31.8520   47.7610 C   0  0  0  0  0  0  0  0  0  0  0  0
   46.5800   31.3790   48.6600 C   0  0  0  0  0  0  0  0  0  0  0  0
   45.2590   31.8100   48.5150 C   0  0  0  0  0  0  0  0  0  0  0  0
   44.9350   32.6710   47.5140 N   0  0  0  0  0  0  0  0  0  0  0  0
   45.8890   33.1190   46.6450 C   0  0  0  0  0  0  0  0  0  0  0  0
   47.1590   32.6940   46.7980 N   0  0  0  0  0  0  0  0  0  0  0  0
   48.5520   31.5270   47.8630 H   0  0  0  0  0  0  0  0  0  0  0  0
   46.8200   30.6900   49.4680 H   0  0  0  0  0  0  0  0  0  0  0  0
   44.4620   31.4960   49.1630 H   0  0  0  0  0  0  0  0  0  0  0  0
   47.0730   32.9030   43.9490 N   0  0  0  0  0  0  0  0  0  0  0  0
   46.8200   31.9840   44.4260 H   0  0  0  0  0  0  0  0  0  0  0  0
   48.4360   32.9130   42.9310 S   0  0  0  0  0  0  0  0  0  0  0  0
   47.9690   32.8840   41.4870 O   0  0  0  0  0  0  0  0  0  0  0  0
   48.5220   32.6090   40.7300 H   0  0  0  0  0  0  0  0  0  0  0  0
   49.3640   34.0530   43.1390 O   0  0  0  0  0  0  0  0  0  0  0  0
   49.5890   34.8180   42.5510 H   0  0  0  0  0  0  0  0  0  0  0  0
   49.1920   31.4070   43.1790 O   0  0  0  0  0  0  0  0  0  0  0  0
   52.6870   28.5910   41.5650 H   0  0  0  0  0  0  0  0  0  0  0  0
   51.8130   28.8540   42.0610 N   0  0  0  0  0  0  0  0  0  0  0  0
   50.6280   28.7260   41.2590 C   0  0  0  0  0  2  0  0  0  0  0  0
   49.4870   29.4790   41.8880 C   0  0  0  0  0  2  0  0  0  0  0  0
   49.7320   30.9580   42.0060 C   0  0  0  0  0  3  0  0  0  0  0  0
   51.2340   31.2430   42.0710 C   0  0  0  0  0  2  0  0  0  0  0  0
   51.9210   30.1000   42.7770 C   0  0  0  0  0  2  0  0  0  0  0  0
  1  2  1  0  0  0  0
  1 15  1  0  0  0  0
  2  7  1  0  0  0  0
  3  8  1  0  0  0  0
  3  2  2  0  0  0  0
  4  3  1  0  0  0  0
  5  4  2  0  0  0  0
  5  6  1  0  0  0  0
  6  1  2  0  0  0  0
  9  4  1  0  0  0  0
 10  5  1  0  0  0  0
 11 17  1  0  0  0  0
 11 12  1  0  0  0  0
 12 18  1  0  0  0  0
 13 12  2  0  0  0  0
 13 19  1  0  0  0  0
 14 13  1  0  0  0  0
 15 16  1  0  0  0  0
 15 14  2  0  0  0  0
 16 11  2  0  0  0  0
 20  6  1  0  0  0  0
 20 21  1  0  0  0  0
 22 25  1  0  0  0  0
 22 27  1  0  0  0  0
 22 20  1  0  0  0  0
 23 22  1  0  0  0  0
 24 23  1  0  0  0  0
 26 25  1  0  0  0  0
 28 29  1  0  0  0  0
 29 34  1  0  0  0  0
 30 31  1  0  0  0  0
 30 29  1  0  0  0  0
 31 32  1  0  0  0  0
 32 33  1  0  0  0  0
 32 27  1  0  0  0  0
 33 34  1  0  0  0  0
M  END
>  <minimizedAffinity>
-4.95055628

>  <minimizedRMSD>
1.53610361

$$$$
