
 OpenBabel03242515103D

 34 36  0  0  0  0  0  0  0  0999 V2000
   45.7550   34.0810   45.1290 C   0  0  0  0  0  0  0  0  0  0  0  0
   44.7920   35.0230   45.3600 C   0  0  0  0  0  0  0  0  0  0  0  0
   44.4660   36.0220   44.4630 C   0  0  0  0  0  0  0  0  0  0  0  0
   45.1420   36.0800   43.2660 C   0  0  0  0  0  0  0  0  0  0  0  0
   46.1050   35.1520   43.0140 C   0  0  0  0  0  0  0  0  0  0  0  0
   46.4130   34.1610   43.9290 C   0  0  0  0  0  0  0  0  0  0  0  0
   44.2510   34.9910   46.2990 H   0  0  0  0  0  0  0  0  0  0  0  0
   43.6950   36.7200   44.7280 H   0  0  0  0  0  0  0  0  0  0  0  0
   44.8730   36.8730   42.5680 H   0  0  0  0  0  0  0  0  0  0  0  0
   46.6050   35.2430   42.0600 H   0  0  0  0  0  0  0  0  0  0  0  0
   47.3420   31.1540   46.6600 C   0  0  0  0  0  0  0  0  0  0  0  0
   46.7070   31.0590   47.8970 C   0  0  0  0  0  0  0  0  0  0  0  0
   45.7260   32.0030   48.2140 C   0  0  0  0  0  0  0  0  0  0  0  0
   45.4170   32.9810   47.3220 N   0  0  0  0  0  0  0  0  0  0  0  0
   46.0540   33.0510   46.1150 C   0  0  0  0  0  0  0  0  0  0  0  0
   46.9980   32.1330   45.8250 N   0  0  0  0  0  0  0  0  0  0  0  0
   48.0970   30.4330   46.4060 H   0  0  0  0  0  0  0  0  0  0  0  0
   46.9410   30.2830   48.6230 H   0  0  0  0  0  0  0  0  0  0  0  0
   45.1880   32.0040   49.1430 H   0  0  0  0  0  0  0  0  0  0  0  0
   47.4390   33.2720   43.5170 N   0  0  0  0  0  0  0  0  0  0  0  0
   47.2420   32.2880   43.8740 H   0  0  0  0  0  0  0  0  0  0  0  0
   48.8510   33.5090   42.5990 S   0  0  0  0  0  0  0  0  0  0  0  0
   48.4580   33.9680   41.2060 O   0  0  0  0  0  0  0  0  0  0  0  0
   49.0320   33.9080   40.4180 H   0  0  0  0  0  0  0  0  0  0  0  0
   49.8290   34.4590   43.1850 O   0  0  0  0  0  0  0  0  0  0  0  0
   50.1250   35.3530   42.8770 H   0  0  0  0  0  0  0  0  0  0  0  0
   49.5090   31.9540   42.3790 O   0  0  0  0  0  0  0  0  0  0  0  0
   53.2430   29.3280   40.9980 H   0  0  0  0  0  0  0  0  0  0  0  0
   52.3420   29.8370   40.9180 N   0  0  0  0  0  0  0  0  0  0  0  0
   52.4800   31.2030   40.4960 C   0  0  0  0  0  2  0  0  0  0  0  0
   51.2170   31.9690   40.7810 C   0  0  0  0  0  2  0  0  0  0  0  0
   50.8670   32.0360   42.2400 C   0  0  0  0  0  3  0  0  0  0  0  0
   51.4620   30.8360   42.9830 C   0  0  0  0  0  2  0  0  0  0  0  0
   51.4810   29.6460   42.0580 C   0  0  0  0  0  2  0  0  0  0  0  0
  1  2  1  0  0  0  0
  1 15  1  0  0  0  0
  2  7  1  0  0  0  0
  3  8  1  0  0  0  0
  3  2  2  0  0  0  0
  4  3  1  0  0  0  0
  5  4  2  0  0  0  0
  5  6  1  0  0  0  0
  6  1  2  0  0  0  0
  9  4  1  0  0  0  0
 10  5  1  0  0  0  0
 11 12  1  0  0  0  0
 12 13  2  0  0  0  0
 12 18  1  0  0  0  0
 13 19  1  0  0  0  0
 14 13  1  0  0  0  0
 15 14  2  0  0  0  0
 16 15  1  0  0  0  0
 16 11  2  0  0  0  0
 17 11  1  0  0  0  0
 20 21  1  0  0  0  0
 20  6  1  0  0  0  0
 22 25  1  0  0  0  0
 22 20  1  0  0  0  0
 23 22  1  0  0  0  0
 24 23  1  0  0  0  0
 26 25  1  0  0  0  0
 27 22  1  0  0  0  0
 29 28  1  0  0  0  0
 29 34  1  0  0  0  0
 30 31  1  0  0  0  0
 30 29  1  0  0  0  0
 31 32  1  0  0  0  0
 32 27  1  0  0  0  0
 32 33  1  0  0  0  0
 34 33  1  0  0  0  0
M  END
>  <minimizedAffinity>
-5.66755104

>  <minimizedRMSD>
1.36138618

$$$$
