
 OpenBabel03242515103D

 34 36  0  0  0  0  0  0  0  0999 V2000
   45.7290   34.1460   45.2560 C   0  0  0  0  0  0  0  0  0  0  0  0
   44.7110   35.0470   45.3930 C   0  0  0  0  0  0  0  0  0  0  0  0
   44.3970   35.9980   44.4430 C   0  0  0  0  0  0  0  0  0  0  0  0
   45.1440   36.0510   43.2890 C   0  0  0  0  0  0  0  0  0  0  0  0
   46.1630   35.1630   43.1300 C   0  0  0  0  0  0  0  0  0  0  0  0
   46.4580   34.2180   44.0970 C   0  0  0  0  0  0  0  0  0  0  0  0
   44.1120   35.0180   46.2970 H   0  0  0  0  0  0  0  0  0  0  0  0
   43.5780   36.6670   44.6350 H   0  0  0  0  0  0  0  0  0  0  0  0
   44.8840   36.8070   42.5490 H   0  0  0  0  0  0  0  0  0  0  0  0
   46.7180   35.2480   42.2070 H   0  0  0  0  0  0  0  0  0  0  0  0
   47.3890   31.3900   47.0120 C   0  0  0  0  0  0  0  0  0  0  0  0
   46.6460   31.2680   48.1850 C   0  0  0  0  0  0  0  0  0  0  0  0
   45.5660   32.1330   48.3800 C   0  0  0  0  0  0  0  0  0  0  0  0
   45.2680   33.0640   47.4360 N   0  0  0  0  0  0  0  0  0  0  0  0
   46.0120   33.1630   46.2940 C   0  0  0  0  0  0  0  0  0  0  0  0
   47.0510   32.3210   46.1210 N   0  0  0  0  0  0  0  0  0  0  0  0
   48.2210   30.7300   46.8520 H   0  0  0  0  0  0  0  0  0  0  0  0
   46.8690   30.5290   48.9520 H   0  0  0  0  0  0  0  0  0  0  0  0
   44.9410   32.1090   49.2530 H   0  0  0  0  0  0  0  0  0  0  0  0
   47.5490   33.3680   43.7810 N   0  0  0  0  0  0  0  0  0  0  0  0
   47.4860   32.4630   44.3400 H   0  0  0  0  0  0  0  0  0  0  0  0
   48.8630   33.5480   42.7170 S   0  0  0  0  0  0  0  0  0  0  0  0
   48.3360   33.9530   41.3520 O   0  0  0  0  0  0  0  0  0  0  0  0
   48.8270   33.8530   40.5140 H   0  0  0  0  0  0  0  0  0  0  0  0
   49.9030   34.5090   43.1610 O   0  0  0  0  0  0  0  0  0  0  0  0
   50.1740   35.3850   42.7880 H   0  0  0  0  0  0  0  0  0  0  0  0
   49.4820   31.9760   42.4990 O   0  0  0  0  0  0  0  0  0  0  0  0
   53.1140   29.2910   40.9680 H   0  0  0  0  0  0  0  0  0  0  0  0
   52.2240   29.8250   40.9220 N   0  0  0  0  0  0  0  0  0  0  0  0
   52.3890   31.1960   40.5300 C   0  0  0  0  0  2  0  0  0  0  0  0
   51.1520   31.9880   40.8620 C   0  0  0  0  0  2  0  0  0  0  0  0
   50.8380   32.0270   42.3310 C   0  0  0  0  0  3  0  0  0  0  0  0
   51.4170   30.7950   43.0300 C   0  0  0  0  0  2  0  0  0  0  0  0
   51.3850   29.6280   42.0770 C   0  0  0  0  0  2  0  0  0  0  0  0
  1  2  1  0  0  0  0
  1 15  1  0  0  0  0
  2  7  1  0  0  0  0
  3  8  1  0  0  0  0
  3  2  2  0  0  0  0
  4  3  1  0  0  0  0
  5  4  2  0  0  0  0
  5  6  1  0  0  0  0
  6  1  2  0  0  0  0
  9  4  1  0  0  0  0
 10  5  1  0  0  0  0
 11 12  1  0  0  0  0
 12 13  2  0  0  0  0
 12 18  1  0  0  0  0
 13 19  1  0  0  0  0
 14 13  1  0  0  0  0
 15 14  2  0  0  0  0
 16 15  1  0  0  0  0
 16 11  2  0  0  0  0
 17 11  1  0  0  0  0
 20  6  1  0  0  0  0
 20 21  1  0  0  0  0
 22 25  1  0  0  0  0
 22 20  1  0  0  0  0
 23 22  1  0  0  0  0
 24 23  1  0  0  0  0
 26 25  1  0  0  0  0
 27 22  1  0  0  0  0
 29 28  1  0  0  0  0
 29 34  1  0  0  0  0
 30 31  1  0  0  0  0
 30 29  1  0  0  0  0
 31 32  1  0  0  0  0
 32 27  1  0  0  0  0
 32 33  1  0  0  0  0
 34 33  1  0  0  0  0
M  END
>  <minimizedAffinity>
-5.74717903

>  <minimizedRMSD>
1.36169207

$$$$
