
 OpenBabel03242523273D

 43 46  0  0  1  0  0  0  0  0999 V2000
   36.8260   27.8060   40.6860 C   0  0  0  0  0  0  0  0  0  0  0  0
   36.9100   26.5020   40.8690 C   0  0  0  0  0  0  0  0  0  0  0  0
   36.5790   25.7350   39.7640 C   0  0  0  0  0  0  0  0  0  0  0  0
   36.1910   26.4200   38.5860 N   0  0  0  0  0  0  0  0  0  0  0  0
   36.1300   27.7210   38.4840 C   0  0  0  0  0  0  0  0  0  0  0  0
   36.4590   28.5030   39.5780 N   0  0  0  0  0  0  0  0  0  0  0  0
   36.5780   24.6680   39.6830 H   0  0  0  0  0  0  0  0  0  0  0  0
   35.8150   28.0960   37.5200 H   0  0  0  0  0  0  0  0  0  0  0  0
   37.1850   25.7960   42.0970 C   0  0  1  0  0  0  0  0  0  0  0  0
   37.6400   24.5280   42.2260 C   0  0  0  0  0  0  0  0  0  0  0  0
   38.7390   25.5400   42.3780 C   0  0  1  0  0  0  0  0  0  0  0  0
   36.7980   26.4060   42.9760 H   0  0  0  0  0  0  0  0  0  0  0  0
   37.7410   23.8440   41.3310 H   0  0  0  0  0  0  0  0  0  0  0  0
   37.4710   23.9020   43.1270 H   0  0  0  0  0  0  0  0  0  0  0  0
   39.0790   25.7650   43.4030 H   0  0  0  0  0  0  0  0  0  0  0  0
   39.5940   25.7420   41.2630 N   0  0  0  0  0  0  0  0  0  0  0  0
   39.8440   26.7670   41.1390 H   0  0  0  0  0  0  0  0  0  0  0  0
   43.7620   24.4080   41.8410 H   0  0  0  0  0  0  0  0  0  0  0  0
   43.5680   25.3510   42.1930 N   0  0  0  0  0  0  0  0  0  0  0  0
   43.0710   26.1910   41.1160 C   0  0  0  0  0  2  0  0  0  0  0  0
   41.8550   25.4880   40.5700 C   0  0  0  0  0  2  0  0  0  0  0  0
   40.8590   25.0720   41.5930 C   0  0  1  0  0  3  0  0  0  0  0  0
   41.2420   25.3530   43.0050 C   0  0  0  0  0  3  0  0  0  0  0  0
   42.6870   25.3470   43.3300 C   0  0  0  0  0  3  0  0  0  0  0  0
   37.1990   28.8470   41.6870 C   0  0  0  0  0  0  0  0  0  0  0  0
   37.3700   29.2730   42.7880 O   0  0  0  0  0  0  0  0  0  0  0  0
   40.0610   29.0720   40.5220 Cl  0  0  0  0  0  0  0  0  0  0  0  0
   38.8640   30.3440   40.3580 C   0  0  0  0  0  0  0  0  0  0  0  0
   37.5930   30.0970   40.9310 C   0  0  0  0  0  0  0  0  0  0  0  0
   36.7580   31.1620   40.7280 C   0  0  0  0  0  0  0  0  0  0  0  0
   36.9540   32.3100   40.1160 C   0  0  0  0  0  0  0  0  0  0  0  0
   38.2140   32.5000   39.5740 C   0  0  0  0  0  0  0  0  0  0  0  0
   39.1560   31.5380   39.6890 C   0  0  0  0  0  0  0  0  0  0  0  0
   35.7170   31.0570   41.1340 H   0  0  0  0  0  0  0  0  0  0  0  0
   36.2070   33.1040   40.0090 H   0  0  0  0  0  0  0  0  0  0  0  0
   38.4070   33.4550   39.0540 H   0  0  0  0  0  0  0  0  0  0  0  0
   40.3680   31.8320   39.1140 O   0  0  0  0  0  0  0  0  0  0  0  0
   41.8460   33.0290   37.3110 O   0  0  0  0  0  0  0  0  0  0  0  0
   40.7820   31.9790   37.4810 P   0  0  0  0  0  0  0  0  0  0  0  0
   41.3220   30.4740   36.9170 O   0  0  0  0  0  0  0  0  0  0  0  0
   40.5760   29.9090   36.6000 H   0  0  0  0  0  0  0  0  0  0  0  0
   39.4380   32.3710   36.5270 O   0  0  0  0  0  0  0  0  0  0  0  0
   39.1050   33.2730   36.7250 H   0  0  0  0  0  0  0  0  0  0  0  0
  1  2  1  0  0  0  0
  1 25  1  0  0  0  0
  2  9  1  0  0  0  0
  3  2  2  0  0  0  0
  4  3  1  0  0  0  0
  5  4  2  0  0  0  0
  5  6  1  0  0  0  0
  6  1  2  0  0  0  0
  7  3  1  0  0  0  0
  8  5  1  0  0  0  0
  9 10  1  0  0  0  0
  9 11  1  0  0  0  0
  9 12  1  1  0  0  0
 10 11  1  0  0  0  0
 10 14  1  0  0  0  0
 11 15  1  1  0  0  0
 13 10  1  0  0  0  0
 16 11  1  0  0  0  0
 17 16  1  0  0  0  0
 18 19  1  0  0  0  0
 19 24  1  0  0  0  0
 20 19  1  0  0  0  0
 21 20  1  0  0  0  0
 21 22  1  0  0  0  0
 22 16  1  6  0  0  0
 22 23  1  0  0  0  0
 23 24  2  0  0  0  0
 25 26  2  0  0  0  0
 28 27  1  0  0  0  0
 28 29  1  0  0  0  0
 29 25  1  0  0  0  0
 30 29  2  0  0  0  0
 30 34  1  0  0  0  0
 31 30  1  0  0  0  0
 32 33  1  0  0  0  0
 32 31  2  0  0  0  0
 33 28  2  0  0  0  0
 35 31  1  0  0  0  0
 36 32  1  0  0  0  0
 37 33  1  0  0  0  0
 38 39  2  0  0  0  0
 39 37  1  0  0  0  0
 40 39  1  0  0  0  0
 41 40  1  0  0  0  0
 42 43  1  0  0  0  0
 42 39  1  0  0  0  0
M  END
>  <minimizedAffinity>
-6.23741961

$$$$

 OpenBabel03242523273D

 43 46  0  0  1  0  0  0  0  0999 V2000
   37.6960   30.1210   41.6420 C   0  0  0  0  0  0  0  0  0  0  0  0
   36.9930   29.0600   41.9930 C   0  0  0  0  0  0  0  0  0  0  0  0
   35.8780   28.8130   41.2080 C   0  0  0  0  0  0  0  0  0  0  0  0
   35.6190   29.7100   40.1420 N   0  0  0  0  0  0  0  0  0  0  0  0
   36.3640   30.7450   39.8600 C   0  0  0  0  0  0  0  0  0  0  0  0
   37.4840   31.0050   40.6310 N   0  0  0  0  0  0  0  0  0  0  0  0
   35.1720   28.0160   41.3050 H   0  0  0  0  0  0  0  0  0  0  0  0
   36.0360   31.3360   39.0150 H   0  0  0  0  0  0  0  0  0  0  0  0
   37.1810   28.2150   43.1470 C   0  0  1  0  0  0  0  0  0  0  0  0
   36.6200   27.0040   43.3730 C   0  0  0  0  0  0  0  0  0  0  0  0
   38.0270   26.8870   42.8630 C   0  0  1  0  0  0  0  0  0  0  0  0
   37.7490   28.7920   43.9460 H   0  0  0  0  0  0  0  0  0  0  0  0
   35.8270   26.5850   42.6850 H   0  0  0  0  0  0  0  0  0  0  0  0
   36.4670   26.5770   44.3860 H   0  0  0  0  0  0  0  0  0  0  0  0
   38.8140   26.6600   43.6030 H   0  0  0  0  0  0  0  0  0  0  0  0
   38.1970   26.5630   41.4920 N   0  0  0  0  0  0  0  0  0  0  0  0
   39.2060   26.3200   41.2660 H   0  0  0  0  0  0  0  0  0  0  0  0
   36.0470   23.0150   39.9820 H   0  0  0  0  0  0  0  0  0  0  0  0
   37.0090   23.1050   39.6360 N   0  0  0  0  0  0  0  0  0  0  0  0
   37.1730   24.3740   38.9480 C   0  0  0  0  0  2  0  0  0  0  0  0
   36.7870   25.4380   39.9420 C   0  0  0  0  0  2  0  0  0  0  0  0
   37.4420   25.3220   41.2720 C   0  0  1  0  0  3  0  0  0  0  0  0
   38.3290   24.1370   41.4430 C   0  0  0  0  0  3  0  0  0  0  0  0
   37.9880   22.9180   40.6730 C   0  0  0  0  0  3  0  0  0  0  0  0
   38.9750   30.5590   42.2720 C   0  0  0  0  0  0  0  0  0  0  0  0
   39.6500   30.9960   43.1530 O   0  0  0  0  0  0  0  0  0  0  0  0
   40.0750   33.0060   40.7240 Cl  0  0  0  0  0  0  0  0  0  0  0  0
   40.6710   31.3760   40.4730 C   0  0  0  0  0  0  0  0  0  0  0  0
   40.0820   30.3570   41.2610 C   0  0  0  0  0  0  0  0  0  0  0  0
   40.6390   29.1420   40.9700 C   0  0  0  0  0  0  0  0  0  0  0  0
   41.5830   28.8050   40.1180 C   0  0  0  0  0  0  0  0  0  0  0  0
   42.1240   29.8390   39.3730 C   0  0  0  0  0  0  0  0  0  0  0  0
   41.6810   31.1040   39.5430 C   0  0  0  0  0  0  0  0  0  0  0  0
   40.2480   28.2680   41.5550 H   0  0  0  0  0  0  0  0  0  0  0  0
   41.9590   27.7880   39.9620 H   0  0  0  0  0  0  0  0  0  0  0  0
   42.9180   29.5850   38.6490 H   0  0  0  0  0  0  0  0  0  0  0  0
   42.2880   32.0490   38.7540 O   0  0  0  0  0  0  0  0  0  0  0  0
   42.7510   31.4290   36.2500 O   0  0  0  0  0  0  0  0  0  0  0  0
   42.0330   32.4210   37.1240 P   0  0  0  0  0  0  0  0  0  0  0  0
   40.3670   32.4050   36.8130 O   0  0  0  0  0  0  0  0  0  0  0  0
   39.9470   33.2800   37.0020 H   0  0  0  0  0  0  0  0  0  0  0  0
   42.5550   33.9890   36.7500 O   0  0  0  0  0  0  0  0  0  0  0  0
   43.5310   34.0720   36.8190 H   0  0  0  0  0  0  0  0  0  0  0  0
  1  2  1  0  0  0  0
  1 25  1  0  0  0  0
  2  9  1  0  0  0  0
  3  7  1  0  0  0  0
  3  2  2  0  0  0  0
  4  3  1  0  0  0  0
  5  4  2  0  0  0  0
  5  6  1  0  0  0  0
  6  1  2  0  0  0  0
  8  5  1  0  0  0  0
  9 10  1  0  0  0  0
  9 12  1  1  0  0  0
 10 14  1  0  0  0  0
 11  9  1  0  0  0  0
 11 10  1  0  0  0  0
 11 15  1  1  0  0  0
 13 10  1  0  0  0  0
 16 11  1  0  0  0  0
 17 16  1  0  0  0  0
 19 18  1  0  0  0  0
 19 24  1  0  0  0  0
 20 19  1  0  0  0  0
 20 21  1  0  0  0  0
 21 22  1  0  0  0  0
 22 23  1  0  0  0  0
 22 16  1  6  0  0  0
 24 23  2  0  0  0  0
 25 26  2  0  0  0  0
 28 27  1  0  0  0  0
 28 29  1  0  0  0  0
 29 25  1  0  0  0  0
 30 29  2  0  0  0  0
 30 34  1  0  0  0  0
 31 30  1  0  0  0  0
 32 33  1  0  0  0  0
 32 31  2  0  0  0  0
 33 28  2  0  0  0  0
 35 31  1  0  0  0  0
 36 32  1  0  0  0  0
 37 33  1  0  0  0  0
 38 39  2  0  0  0  0
 39 37  1  0  0  0  0
 40 41  1  0  0  0  0
 40 39  1  0  0  0  0
 42 43  1  0  0  0  0
 42 39  1  0  0  0  0
M  END
>  <minimizedAffinity>
-6.21891403

$$$$

 OpenBabel03242523273D

 43 46  0  0  1  0  0  0  0  0999 V2000
   36.7570   28.9070   40.1270 C   0  0  0  0  0  0  0  0  0  0  0  0
   36.8220   27.7540   40.7660 C   0  0  0  0  0  0  0  0  0  0  0  0
   37.0310   26.6490   39.9560 C   0  0  0  0  0  0  0  0  0  0  0  0
   37.1450   26.8750   38.5620 N   0  0  0  0  0  0  0  0  0  0  0  0
   37.0660   28.0520   38.0030 C   0  0  0  0  0  0  0  0  0  0  0  0
   36.8610   29.1670   38.7970 N   0  0  0  0  0  0  0  0  0  0  0  0
   37.1190   25.6250   40.2530 H   0  0  0  0  0  0  0  0  0  0  0  0
   37.1730   28.0620   36.9260 H   0  0  0  0  0  0  0  0  0  0  0  0
   36.5850   27.5030   42.1670 C   0  0  1  0  0  0  0  0  0  0  0  0
   36.8290   26.3560   42.8430 C   0  0  0  0  0  0  0  0  0  0  0  0
   37.9140   27.3730   43.0480 C   0  0  1  0  0  0  0  0  0  0  0  0
   35.9920   28.3670   42.6080 H   0  0  0  0  0  0  0  0  0  0  0  0
   37.1520   25.4140   42.3090 H   0  0  0  0  0  0  0  0  0  0  0  0
   36.2960   26.0660   43.7740 H   0  0  0  0  0  0  0  0  0  0  0  0
   37.9080   27.9320   44.0000 H   0  0  0  0  0  0  0  0  0  0  0  0
   39.1130   27.2010   42.3080 N   0  0  0  0  0  0  0  0  0  0  0  0
   39.4830   28.1240   41.9380 H   0  0  0  0  0  0  0  0  0  0  0  0
   42.3920   25.2750   44.5510 H   0  0  0  0  0  0  0  0  0  0  0  0
   42.6800   25.6970   43.6620 N   0  0  0  0  0  0  0  0  0  0  0  0
   41.9230   25.1150   42.5670 C   0  0  0  0  0  2  0  0  0  0  0  0
   40.4710   25.3400   42.9000 C   0  0  0  0  0  2  0  0  0  0  0  0
   40.1220   26.7370   43.2710 C   0  0  1  0  0  3  0  0  0  0  0  0
   41.2680   27.6880   43.3200 C   0  0  0  0  0  3  0  0  0  0  0  0
   42.5940   27.1340   43.6790 C   0  0  0  0  0  3  0  0  0  0  0  0
   36.6160   30.2460   40.7690 C   0  0  0  0  0  0  0  0  0  0  0  0
   36.0100   31.1500   41.2580 O   0  0  0  0  0  0  0  0  0  0  0  0
   37.5980   32.2660   38.6360 Cl  0  0  0  0  0  0  0  0  0  0  0  0
   38.5840   31.7660   39.9980 C   0  0  0  0  0  0  0  0  0  0  0  0
   37.9990   30.8450   40.9000 C   0  0  0  0  0  0  0  0  0  0  0  0
   38.8690   30.5450   41.9130 C   0  0  0  0  0  0  0  0  0  0  0  0
   40.0930   30.9630   42.1540 C   0  0  0  0  0  0  0  0  0  0  0  0
   40.6170   31.8620   41.2400 C   0  0  0  0  0  0  0  0  0  0  0  0
   39.8800   32.2610   40.1800 C   0  0  0  0  0  0  0  0  0  0  0  0
   38.4910   29.8310   42.6920 H   0  0  0  0  0  0  0  0  0  0  0  0
   40.7090   30.6550   43.0060 H   0  0  0  0  0  0  0  0  0  0  0  0
   41.6430   32.2290   41.4170 H   0  0  0  0  0  0  0  0  0  0  0  0
   40.4980   33.1540   39.3400 O   0  0  0  0  0  0  0  0  0  0  0  0
   42.0860   34.1090   37.4860 O   0  0  0  0  0  0  0  0  0  0  0  0
   41.3100   32.8820   37.8810 P   0  0  0  0  0  0  0  0  0  0  0  0
   42.3410   31.5500   38.0710 O   0  0  0  0  0  0  0  0  0  0  0  0
   41.8800   30.6960   37.8870 H   0  0  0  0  0  0  0  0  0  0  0  0
   40.2400   32.4610   36.6380 O   0  0  0  0  0  0  0  0  0  0  0  0
   39.6530   33.2100   36.3970 H   0  0  0  0  0  0  0  0  0  0  0  0
  1  2  1  0  0  0  0
  1 25  1  0  0  0  0
  2  9  1  0  0  0  0
  3  7  1  0  0  0  0
  3  2  2  0  0  0  0
  4  3  1  0  0  0  0
  5  4  2  0  0  0  0
  5  6  1  0  0  0  0
  6  1  2  0  0  0  0
  8  5  1  0  0  0  0
  9 12  1  1  0  0  0
  9 10  1  0  0  0  0
  9 11  1  0  0  0  0
 10 11  1  0  0  0  0
 10 14  1  0  0  0  0
 11 15  1  1  0  0  0
 13 10  1  0  0  0  0
 16 11  1  0  0  0  0
 17 16  1  0  0  0  0
 19 24  1  0  0  0  0
 19 18  1  0  0  0  0
 20 21  1  0  0  0  0
 20 19  1  0  0  0  0
 21 22  1  0  0  0  0
 22 16  1  6  0  0  0
 22 23  1  0  0  0  0
 23 24  2  0  0  0  0
 25 29  1  0  0  0  0
 25 26  2  0  0  0  0
 27 28  1  0  0  0  0
 28 33  2  0  0  0  0
 28 29  1  0  0  0  0
 29 30  2  0  0  0  0
 30 31  1  0  0  0  0
 30 34  1  0  0  0  0
 31 35  1  0  0  0  0
 32 36  1  0  0  0  0
 32 31  2  0  0  0  0
 33 32  1  0  0  0  0
 37 33  1  0  0  0  0
 38 39  2  0  0  0  0
 39 40  1  0  0  0  0
 39 37  1  0  0  0  0
 41 40  1  0  0  0  0
 42 39  1  0  0  0  0
 43 42  1  0  0  0  0
M  END
>  <minimizedAffinity>
-6.12459946

$$$$

 OpenBabel03242523273D

 43 46  0  0  1  0  0  0  0  0999 V2000
   38.8180   31.1520   41.3820 C   0  0  0  0  0  0  0  0  0  0  0  0
   38.1930   30.1530   41.9770 C   0  0  0  0  0  0  0  0  0  0  0  0
   36.8500   30.0320   41.6600 C   0  0  0  0  0  0  0  0  0  0  0  0
   36.3060   30.9760   40.7540 N   0  0  0  0  0  0  0  0  0  0  0  0
   36.9920   31.9430   40.2060 C   0  0  0  0  0  0  0  0  0  0  0  0
   38.3360   32.0770   40.5090 N   0  0  0  0  0  0  0  0  0  0  0  0
   36.1550   29.3020   42.0180 H   0  0  0  0  0  0  0  0  0  0  0  0
   36.4350   32.5840   39.5350 H   0  0  0  0  0  0  0  0  0  0  0  0
   38.7090   29.2650   42.9910 C   0  0  1  0  0  0  0  0  0  0  0  0
   38.1280   28.1370   43.4600 C   0  0  0  0  0  0  0  0  0  0  0  0
   39.1900   27.8420   42.4400 C   0  0  1  0  0  0  0  0  0  0  0  0
   39.6180   29.7430   43.4810 H   0  0  0  0  0  0  0  0  0  0  0  0
   37.0790   27.8430   43.1550 H   0  0  0  0  0  0  0  0  0  0  0  0
   38.3330   27.7120   44.4650 H   0  0  0  0  0  0  0  0  0  0  0  0
   40.1680   27.4950   42.8170 H   0  0  0  0  0  0  0  0  0  0  0  0
   38.7590   27.5280   41.1250 N   0  0  0  0  0  0  0  0  0  0  0  0
   39.4030   27.9430   40.3900 H   0  0  0  0  0  0  0  0  0  0  0  0
   39.4900   23.1940   41.5330 H   0  0  0  0  0  0  0  0  0  0  0  0
   38.8830   23.5900   42.2580 N   0  0  0  0  0  0  0  0  0  0  0  0
   39.5780   24.6540   42.9630 C   0  0  0  0  0  2  0  0  0  0  0  0
   39.9880   25.6490   41.9100 C   0  0  0  0  0  2  0  0  0  0  0  0
   38.9000   26.0720   40.9880 C   0  0  1  0  0  3  0  0  0  0  0  0
   37.5870   25.4010   41.2030 C   0  0  0  0  0  3  0  0  0  0  0  0
   37.6120   24.0200   41.7400 C   0  0  0  0  0  3  0  0  0  0  0  0
   40.2740   31.4520   41.4920 C   0  0  0  0  0  0  0  0  0  0  0  0
   41.3230   31.5150   42.0570 O   0  0  0  0  0  0  0  0  0  0  0  0
   40.9880   29.4480   39.2390 Cl  0  0  0  0  0  0  0  0  0  0  0  0
   41.1140   31.1870   39.0410 C   0  0  0  0  0  0  0  0  0  0  0  0
   40.7420   31.9800   40.1540 C   0  0  0  0  0  0  0  0  0  0  0  0
   40.8810   33.3100   39.8640 C   0  0  0  0  0  0  0  0  0  0  0  0
   41.2860   33.9190   38.7710 C   0  0  0  0  0  0  0  0  0  0  0  0
   41.6390   33.0970   37.7140 C   0  0  0  0  0  0  0  0  0  0  0  0
   41.5550   31.7540   37.8410 C   0  0  0  0  0  0  0  0  0  0  0  0
   40.5960   34.0250   40.6810 H   0  0  0  0  0  0  0  0  0  0  0  0
   41.3620   35.0050   38.6440 H   0  0  0  0  0  0  0  0  0  0  0  0
   41.9830   33.5810   36.7830 H   0  0  0  0  0  0  0  0  0  0  0  0
   41.9280   31.0360   36.7310 O   0  0  0  0  0  0  0  0  0  0  0  0
   44.4980   31.4570   36.4360 O   0  0  0  0  0  0  0  0  0  0  0  0
   43.4370   30.3970   36.3140 P   0  0  0  0  0  0  0  0  0  0  0  0
   43.7750   29.0840   37.3310 O   0  0  0  0  0  0  0  0  0  0  0  0
   43.4030   28.2390   36.9800 H   0  0  0  0  0  0  0  0  0  0  0  0
   43.4390   29.7710   34.7400 O   0  0  0  0  0  0  0  0  0  0  0  0
   43.3350   30.4790   34.0680 H   0  0  0  0  0  0  0  0  0  0  0  0
  1 25  1  0  0  0  0
  1  2  1  0  0  0  0
  2  9  1  0  0  0  0
  3  2  2  0  0  0  0
  3  7  1  0  0  0  0
  4  3  1  0  0  0  0
  5  6  1  0  0  0  0
  5  4  2  0  0  0  0
  6  1  2  0  0  0  0
  8  5  1  0  0  0  0
  9 10  1  0  0  0  0
  9 12  1  1  0  0  0
 10 14  1  0  0  0  0
 11 15  1  1  0  0  0
 11  9  1  0  0  0  0
 11 10  1  0  0  0  0
 13 10  1  0  0  0  0
 16 11  1  0  0  0  0
 17 16  1  0  0  0  0
 18 19  1  0  0  0  0
 19 20  1  0  0  0  0
 21 20  1  0  0  0  0
 22 16  1  1  0  0  0
 22 23  1  0  0  0  0
 22 21  1  0  0  0  0
 23 24  2  0  0  0  0
 24 19  1  0  0  0  0
 25 26  2  0  0  0  0
 28 27  1  0  0  0  0
 28 29  1  0  0  0  0
 29 25  1  0  0  0  0
 30 29  2  0  0  0  0
 30 34  1  0  0  0  0
 31 30  1  0  0  0  0
 32 33  1  0  0  0  0
 32 31  2  0  0  0  0
 33 28  2  0  0  0  0
 35 31  1  0  0  0  0
 36 32  1  0  0  0  0
 37 33  1  0  0  0  0
 39 38  2  0  0  0  0
 39 37  1  0  0  0  0
 39 40  1  0  0  0  0
 41 40  1  0  0  0  0
 42 39  1  0  0  0  0
 43 42  1  0  0  0  0
M  END
>  <minimizedAffinity>
-6.11513376

$$$$

 OpenBabel03242523273D

 43 46  0  0  1  0  0  0  0  0999 V2000
   36.1990   27.4300   39.9530 C   0  0  0  0  0  0  0  0  0  0  0  0
   36.8840   27.1790   41.0530 C   0  0  0  0  0  0  0  0  0  0  0  0
   37.6740   26.0420   41.0020 C   0  0  0  0  0  0  0  0  0  0  0  0
   37.6560   25.2880   39.8020 N   0  0  0  0  0  0  0  0  0  0  0  0
   36.9460   25.6020   38.7520 C   0  0  0  0  0  0  0  0  0  0  0  0
   36.1530   26.7360   38.7850 N   0  0  0  0  0  0  0  0  0  0  0  0
   38.3100   25.6490   41.7680 H   0  0  0  0  0  0  0  0  0  0  0  0
   37.0370   24.9270   37.9120 H   0  0  0  0  0  0  0  0  0  0  0  0
   36.8140   27.8710   42.3170 C   0  0  1  0  0  0  0  0  0  0  0  0
   37.6090   27.6820   43.3960 C   0  0  0  0  0  0  0  0  0  0  0  0
   38.0300   28.8750   42.5880 C   0  0  1  0  0  0  0  0  0  0  0  0
   35.8670   28.4990   42.3500 H   0  0  0  0  0  0  0  0  0  0  0  0
   38.3640   26.8400   43.4330 H   0  0  0  0  0  0  0  0  0  0  0  0
   37.3020   27.9230   44.4360 H   0  0  0  0  0  0  0  0  0  0  0  0
   37.7450   29.8700   42.9730 H   0  0  0  0  0  0  0  0  0  0  0  0
   39.1470   28.7160   41.7270 N   0  0  0  0  0  0  0  0  0  0  0  0
   39.4410   29.6370   41.2890 H   0  0  0  0  0  0  0  0  0  0  0  0
   42.8740   27.2290   43.5680 H   0  0  0  0  0  0  0  0  0  0  0  0
   43.0180   27.8960   42.8010 N   0  0  0  0  0  0  0  0  0  0  0  0
   42.3950   27.3970   41.5870 C   0  0  0  0  0  2  0  0  0  0  0  0
   40.9450   27.1720   41.9270 C   0  0  0  0  0  2  0  0  0  0  0  0
   40.2700   28.3200   42.5880 C   0  0  1  0  0  3  0  0  0  0  0  0
   41.1430   29.4930   42.8740 C   0  0  0  0  0  3  0  0  0  0  0  0
   42.5770   29.2240   43.1330 C   0  0  0  0  0  3  0  0  0  0  0  0
   35.3390   28.6260   39.7230 C   0  0  0  0  0  0  0  0  0  0  0  0
   34.3340   29.2630   39.8010 O   0  0  0  0  0  0  0  0  0  0  0  0
   36.3280   31.1770   41.1760 Cl  0  0  0  0  0  0  0  0  0  0  0  0
   36.6610   30.8570   39.4840 C   0  0  0  0  0  0  0  0  0  0  0  0
   36.1550   29.6430   38.9570 C   0  0  0  0  0  0  0  0  0  0  0  0
   36.4890   29.5170   37.6360 C   0  0  0  0  0  0  0  0  0  0  0  0
   37.1680   30.3100   36.8350 C   0  0  0  0  0  0  0  0  0  0  0  0
   37.6390   31.4830   37.4010 C   0  0  0  0  0  0  0  0  0  0  0  0
   37.3940   31.7560   38.7020 C   0  0  0  0  0  0  0  0  0  0  0  0
   36.1450   28.5770   37.1280 H   0  0  0  0  0  0  0  0  0  0  0  0
   37.3800   30.1100   35.7800 H   0  0  0  0  0  0  0  0  0  0  0  0
   38.2120   32.1680   36.7530 H   0  0  0  0  0  0  0  0  0  0  0  0
   37.9080   32.9450   39.1580 O   0  0  0  0  0  0  0  0  0  0  0  0
   40.3200   33.9390   39.4120 O   0  0  0  0  0  0  0  0  0  0  0  0
   39.2310   33.2320   40.1720 P   0  0  0  0  0  0  0  0  0  0  0  0
   38.7140   34.1610   41.4930 O   0  0  0  0  0  0  0  0  0  0  0  0
   38.3670   33.5990   42.2280 H   0  0  0  0  0  0  0  0  0  0  0  0
   39.8380   31.7950   40.8320 O   0  0  0  0  0  0  0  0  0  0  0  0
   40.2410   31.2230   40.1430 H   0  0  0  0  0  0  0  0  0  0  0  0
  1  2  1  0  0  0  0
  2  9  1  0  0  0  0
  3  2  2  0  0  0  0
  3  7  1  0  0  0  0
  4  3  1  0  0  0  0
  5  6  1  0  0  0  0
  5  4  2  0  0  0  0
  6  1  2  0  0  0  0
  8  5  1  0  0  0  0
  9 12  1  1  0  0  0
  9 11  1  0  0  0  0
  9 10  1  0  0  0  0
 10 13  1  0  0  0  0
 10 14  1  0  0  0  0
 11 15  1  1  0  0  0
 11 10  1  0  0  0  0
 16 11  1  0  0  0  0
 17 16  1  0  0  0  0
 19 24  1  0  0  0  0
 19 18  1  0  0  0  0
 20 21  1  0  0  0  0
 20 19  1  0  0  0  0
 21 22  1  0  0  0  0
 22 16  1  6  0  0  0
 22 23  1  0  0  0  0
 23 24  2  0  0  0  0
 25 26  2  0  0  0  0
 25  1  1  0  0  0  0
 28 27  1  0  0  0  0
 29 28  1  0  0  0  0
 29 25  1  0  0  0  0
 30 29  2  0  0  0  0
 31 32  2  0  0  0  0
 31 30  1  0  0  0  0
 32 33  1  0  0  0  0
 33 37  1  0  0  0  0
 33 28  2  0  0  0  0
 34 30  1  0  0  0  0
 35 31  1  0  0  0  0
 36 32  1  0  0  0  0
 37 39  1  0  0  0  0
 38 39  2  0  0  0  0
 39 42  1  0  0  0  0
 39 40  1  0  0  0  0
 40 41  1  0  0  0  0
 43 42  1  0  0  0  0
M  END
>  <minimizedAffinity>
-6.06827974

$$$$

 OpenBabel03242523273D

 43 46  0  0  1  0  0  0  0  0999 V2000
   37.3720   28.8970   41.3250 C   0  0  0  0  0  0  0  0  0  0  0  0
   37.7980   28.0640   40.3930 C   0  0  0  0  0  0  0  0  0  0  0  0
   37.8340   26.7320   40.7730 C   0  0  0  0  0  0  0  0  0  0  0  0
   37.4220   26.4180   42.0920 N   0  0  0  0  0  0  0  0  0  0  0  0
   37.0140   27.3040   42.9610 C   0  0  0  0  0  0  0  0  0  0  0  0
   36.9690   28.6390   42.5970 N   0  0  0  0  0  0  0  0  0  0  0  0
   38.1390   25.8900   40.1870 H   0  0  0  0  0  0  0  0  0  0  0  0
   36.7340   26.9100   43.9280 H   0  0  0  0  0  0  0  0  0  0  0  0
   38.3330   28.3880   39.0930 C   0  0  1  0  0  0  0  0  0  0  0  0
   38.3020   27.6160   37.9820 C   0  0  0  0  0  0  0  0  0  0  0  0
   37.2240   28.6620   37.9720 C   0  0  1  0  0  0  0  0  0  0  0  0
   38.9530   29.3380   39.1680 H   0  0  0  0  0  0  0  0  0  0  0  0
   37.9310   26.5480   38.0160 H   0  0  0  0  0  0  0  0  0  0  0  0
   39.0310   27.7070   37.1490 H   0  0  0  0  0  0  0  0  0  0  0  0
   37.3940   29.5550   37.3460 H   0  0  0  0  0  0  0  0  0  0  0  0
   35.9110   28.2430   38.3090 N   0  0  0  0  0  0  0  0  0  0  0  0
   35.6880   28.4290   39.3310 H   0  0  0  0  0  0  0  0  0  0  0  0
   33.4900   30.4250   35.3310 H   0  0  0  0  0  0  0  0  0  0  0  0
   33.3820   29.4060   35.2990 N   0  0  0  0  0  0  0  0  0  0  0  0
   34.6710   28.7760   35.0710 C   0  0  0  0  0  2  0  0  0  0  0  0
   35.5680   29.2520   36.1830 C   0  0  0  0  0  2  0  0  0  0  0  0
   35.0000   29.1120   37.5500 C   0  0  1  0  0  3  0  0  0  0  0  0
   33.6090   28.5830   37.6110 C   0  0  0  0  0  3  0  0  0  0  0  0
   32.7190   28.8820   36.4640 C   0  0  0  0  0  3  0  0  0  0  0  0
   37.1670   30.3630   41.1470 C   0  0  0  0  0  0  0  0  0  0  0  0
   36.5150   31.3530   41.0150 O   0  0  0  0  0  0  0  0  0  0  0  0
   37.9180   32.1120   38.7030 Cl  0  0  0  0  0  0  0  0  0  0  0  0
   39.0140   31.8310   40.0440 C   0  0  0  0  0  0  0  0  0  0  0  0
   38.5290   31.0190   41.0980 C   0  0  0  0  0  0  0  0  0  0  0  0
   39.4770   30.8850   42.0760 C   0  0  0  0  0  0  0  0  0  0  0  0
   40.6960   31.3710   42.1720 C   0  0  0  0  0  0  0  0  0  0  0  0
   41.1190   32.1570   41.1130 C   0  0  0  0  0  0  0  0  0  0  0  0
   40.2970   32.3870   40.0660 C   0  0  0  0  0  0  0  0  0  0  0  0
   39.1830   30.2690   42.9670 H   0  0  0  0  0  0  0  0  0  0  0  0
   41.3800   31.1990   43.0100 H   0  0  0  0  0  0  0  0  0  0  0  0
   42.1390   32.5790   41.1670 H   0  0  0  0  0  0  0  0  0  0  0  0
   40.8190   33.1810   39.0750 O   0  0  0  0  0  0  0  0  0  0  0  0
   42.6930   31.7560   37.9240 O   0  0  0  0  0  0  0  0  0  0  0  0
   41.5960   32.7440   37.6370 P   0  0  0  0  0  0  0  0  0  0  0  0
   40.4500   32.0850   36.5750 O   0  0  0  0  0  0  0  0  0  0  0  0
   40.0030   32.7810   36.0350 H   0  0  0  0  0  0  0  0  0  0  0  0
   42.2390   34.0920   36.8390 O   0  0  0  0  0  0  0  0  0  0  0  0
   42.9780   34.4940   37.3450 H   0  0  0  0  0  0  0  0  0  0  0  0
  1  6  1  0  0  0  0
  2  3  1  0  0  0  0
  2  1  2  0  0  0  0
  3  4  2  0  0  0  0
  4  5  1  0  0  0  0
  5  8  1  0  0  0  0
  6  5  2  0  0  0  0
  7  3  1  0  0  0  0
  9 12  1  1  0  0  0
  9  2  1  0  0  0  0
 10 13  1  0  0  0  0
 10  9  1  0  0  0  0
 11 15  1  6  0  0  0
 11 10  1  0  0  0  0
 11 16  1  0  0  0  0
 11  9  1  0  0  0  0
 14 10  1  0  0  0  0
 16 17  1  0  0  0  0
 19 18  1  0  0  0  0
 19 24  1  0  0  0  0
 20 19  1  0  0  0  0
 20 21  1  0  0  0  0
 21 22  1  0  0  0  0
 22 23  1  0  0  0  0
 22 16  1  1  0  0  0
 24 23  2  0  0  0  0
 25  1  1  0  0  0  0
 26 25  2  0  0  0  0
 27 28  1  0  0  0  0
 28 33  2  0  0  0  0
 28 29  1  0  0  0  0
 29 25  1  0  0  0  0
 29 30  2  0  0  0  0
 30 31  1  0  0  0  0
 30 34  1  0  0  0  0
 31 35  1  0  0  0  0
 32 36  1  0  0  0  0
 32 31  2  0  0  0  0
 33 32  1  0  0  0  0
 37 33  1  0  0  0  0
 39 38  2  0  0  0  0
 39 37  1  0  0  0  0
 40 39  1  0  0  0  0
 41 40  1  0  0  0  0
 42 43  1  0  0  0  0
 42 39  1  0  0  0  0
M  END
>  <minimizedAffinity>
-6.06746244

$$$$

 OpenBabel03242523273D

 43 46  0  0  1  0  0  0  0  0999 V2000
   38.6180   27.7820   42.8980 C   0  0  0  0  0  0  0  0  0  0  0  0
   39.3430   28.8530   42.6340 C   0  0  0  0  0  0  0  0  0  0  0  0
   40.6980   28.7180   42.8880 C   0  0  0  0  0  0  0  0  0  0  0  0
   41.1460   27.4740   43.3960 N   0  0  0  0  0  0  0  0  0  0  0  0
   40.3620   26.4570   43.6350 C   0  0  0  0  0  0  0  0  0  0  0  0
   39.0060   26.5730   43.3840 N   0  0  0  0  0  0  0  0  0  0  0  0
   41.4680   29.4480   42.7480 H   0  0  0  0  0  0  0  0  0  0  0  0
   40.8520   25.5740   44.0230 H   0  0  0  0  0  0  0  0  0  0  0  0
   38.8790   30.1590   42.2330 C   0  0  1  0  0  0  0  0  0  0  0  0
   39.6370   31.2110   41.8430 C   0  0  0  0  0  0  0  0  0  0  0  0
   39.0540   30.4730   40.6740 C   0  0  1  0  0  0  0  0  0  0  0  0
   37.7670   30.2480   42.4550 H   0  0  0  0  0  0  0  0  0  0  0  0
   40.7660   31.1820   41.9120 H   0  0  0  0  0  0  0  0  0  0  0  0
   39.3090   32.2690   41.9230 H   0  0  0  0  0  0  0  0  0  0  0  0
   38.1750   30.9240   40.1800 H   0  0  0  0  0  0  0  0  0  0  0  0
   39.9110   29.5840   39.9730 N   0  0  0  0  0  0  0  0  0  0  0  0
   39.4990   28.6070   39.9110 H   0  0  0  0  0  0  0  0  0  0  0  0
   39.3240   31.4840   36.0320 H   0  0  0  0  0  0  0  0  0  0  0  0
   39.3650   32.1430   36.8160 N   0  0  0  0  0  0  0  0  0  0  0  0
   38.3300   31.8270   37.7860 C   0  0  0  0  0  2  0  0  0  0  0  0
   38.5630   30.3940   38.1880 C   0  0  0  0  0  2  0  0  0  0  0  0
   39.9590   30.0740   38.5890 C   0  0  1  0  0  3  0  0  0  0  0  0
   40.9290   31.1980   38.4690 C   0  0  0  0  0  3  0  0  0  0  0  0
   40.6710   32.2080   37.4160 C   0  0  0  0  0  3  0  0  0  0  0  0
   37.1560   27.6410   42.6410 C   0  0  0  0  0  0  0  0  0  0  0  0
   36.0020   27.6410   42.9450 O   0  0  0  0  0  0  0  0  0  0  0  0
   35.6820   29.6530   40.8040 Cl  0  0  0  0  0  0  0  0  0  0  0  0
   36.3100   28.1210   40.2250 C   0  0  0  0  0  0  0  0  0  0  0  0
   36.9730   27.3080   41.1770 C   0  0  0  0  0  0  0  0  0  0  0  0
   37.4150   26.1510   40.5960 C   0  0  0  0  0  0  0  0  0  0  0  0
   37.3200   25.7130   39.3590 C   0  0  0  0  0  0  0  0  0  0  0  0
   36.6620   26.5460   38.4700 C   0  0  0  0  0  0  0  0  0  0  0  0
   36.1650   27.7310   38.8900 C   0  0  0  0  0  0  0  0  0  0  0  0
   37.9690   25.4420   41.2680 H   0  0  0  0  0  0  0  0  0  0  0  0
   37.7150   24.7580   38.9960 H   0  0  0  0  0  0  0  0  0  0  0  0
   36.5670   26.2040   37.4250 H   0  0  0  0  0  0  0  0  0  0  0  0
   35.5340   28.4760   37.9250 O   0  0  0  0  0  0  0  0  0  0  0  0
   33.7760   29.1890   36.1170 O   0  0  0  0  0  0  0  0  0  0  0  0
   33.9220   28.4420   37.4140 P   0  0  0  0  0  0  0  0  0  0  0  0
   33.4390   26.8260   37.2390 O   0  0  0  0  0  0  0  0  0  0  0  0
   33.1010   26.4470   38.0870 H   0  0  0  0  0  0  0  0  0  0  0  0
   32.8830   29.1080   38.5740 O   0  0  0  0  0  0  0  0  0  0  0  0
   33.0330   30.0720   38.6820 H   0  0  0  0  0  0  0  0  0  0  0  0
  1  6  1  0  0  0  0
  2  3  1  0  0  0  0
  2  1  2  0  0  0  0
  3  4  2  0  0  0  0
  4  5  1  0  0  0  0
  5  8  1  0  0  0  0
  6  5  2  0  0  0  0
  7  3  1  0  0  0  0
  9 12  1  1  0  0  0
  9  2  1  0  0  0  0
 10 13  1  0  0  0  0
 10 14  1  0  0  0  0
 10  9  1  0  0  0  0
 11 15  1  6  0  0  0
 11 10  1  0  0  0  0
 11  9  1  0  0  0  0
 16 11  1  0  0  0  0
 17 16  1  0  0  0  0
 18 19  1  0  0  0  0
 19 24  1  0  0  0  0
 19 20  1  0  0  0  0
 20 21  1  0  0  0  0
 21 22  1  0  0  0  0
 22 16  1  1  0  0  0
 23 22  1  0  0  0  0
 24 23  2  0  0  0  0
 25  1  1  0  0  0  0
 25 26  2  0  0  0  0
 28 27  1  0  0  0  0
 28 29  1  0  0  0  0
 29 25  1  0  0  0  0
 30 29  2  0  0  0  0
 30 34  1  0  0  0  0
 31 30  1  0  0  0  0
 32 33  1  0  0  0  0
 32 31  2  0  0  0  0
 33 28  2  0  0  0  0
 35 31  1  0  0  0  0
 36 32  1  0  0  0  0
 37 33  1  0  0  0  0
 38 39  2  0  0  0  0
 39 37  1  0  0  0  0
 39 42  1  0  0  0  0
 40 39  1  0  0  0  0
 40 41  1  0  0  0  0
 42 43  1  0  0  0  0
M  END
>  <minimizedAffinity>
-6.06213236

$$$$

 OpenBabel03242523273D

 43 46  0  0  1  0  0  0  0  0999 V2000
   38.5860   30.0430   41.4210 C   0  0  0  0  0  0  0  0  0  0  0  0
   39.0410   29.3860   42.4720 C   0  0  0  0  0  0  0  0  0  0  0  0
   40.4180   29.2460   42.5210 C   0  0  0  0  0  0  0  0  0  0  0  0
   41.1700   29.8060   41.4590 N   0  0  0  0  0  0  0  0  0  0  0  0
   40.6440   30.4420   40.4470 C   0  0  0  0  0  0  0  0  0  0  0  0
   39.2700   30.5950   40.3830 N   0  0  0  0  0  0  0  0  0  0  0  0
   41.0010   28.7580   43.2740 H   0  0  0  0  0  0  0  0  0  0  0  0
   41.3490   30.8130   39.7150 H   0  0  0  0  0  0  0  0  0  0  0  0
   38.2770   28.7090   43.4910 C   0  0  1  0  0  0  0  0  0  0  0  0
   37.0480   28.1580   43.3590 C   0  0  0  0  0  0  0  0  0  0  0  0
   38.1390   27.1300   43.2740 C   0  0  1  0  0  0  0  0  0  0  0  0
   38.7860   28.8500   44.4980 H   0  0  0  0  0  0  0  0  0  0  0  0
   36.4410   28.2900   42.4140 H   0  0  0  0  0  0  0  0  0  0  0  0
   36.3470   28.0080   44.2080 H   0  0  0  0  0  0  0  0  0  0  0  0
   38.3200   26.5110   44.1700 H   0  0  0  0  0  0  0  0  0  0  0  0
   38.4950   26.6670   41.9800 N   0  0  0  0  0  0  0  0  0  0  0  0
   39.5000   26.9090   41.7380 H   0  0  0  0  0  0  0  0  0  0  0  0
   37.5970   22.3480   41.7960 H   0  0  0  0  0  0  0  0  0  0  0  0
   37.5640   22.8260   40.8880 N   0  0  0  0  0  0  0  0  0  0  0  0
   36.5960   23.9090   40.9320 C   0  0  0  0  0  2  0  0  0  0  0  0
   37.0220   24.8010   42.0680 C   0  0  0  0  0  2  0  0  0  0  0  0
   38.4550   25.2000   42.0490 C   0  0  1  0  0  3  0  0  0  0  0  0
   39.2660   24.6070   40.9490 C   0  0  0  0  0  3  0  0  0  0  0  0
   38.8600   23.2720   40.4510 C   0  0  0  0  0  3  0  0  0  0  0  0
   37.1600   30.3960   41.1710 C   0  0  0  0  0  0  0  0  0  0  0  0
   36.1360   30.9690   41.3880 O   0  0  0  0  0  0  0  0  0  0  0  0
   36.9350   31.8050   38.4210 Cl  0  0  0  0  0  0  0  0  0  0  0  0
   36.5250   30.1160   38.6610 C   0  0  0  0  0  0  0  0  0  0  0  0
   36.6890   29.6040   39.9710 C   0  0  0  0  0  0  0  0  0  0  0  0
   36.3410   28.2820   40.0170 C   0  0  0  0  0  0  0  0  0  0  0  0
   35.9030   27.4690   39.0800 C   0  0  0  0  0  0  0  0  0  0  0  0
   35.7610   28.0220   37.8180 C   0  0  0  0  0  0  0  0  0  0  0  0
   36.0660   29.3210   37.6060 C   0  0  0  0  0  0  0  0  0  0  0  0
   36.4500   27.7770   41.0140 H   0  0  0  0  0  0  0  0  0  0  0  0
   35.6510   26.4140   39.2260 H   0  0  0  0  0  0  0  0  0  0  0  0
   35.3950   27.3630   37.0100 H   0  0  0  0  0  0  0  0  0  0  0  0
   35.8880   29.7620   36.3180 O   0  0  0  0  0  0  0  0  0  0  0  0
   36.4570   30.1260   33.7860 O   0  0  0  0  0  0  0  0  0  0  0  0
   36.4000   29.0750   34.8590 P   0  0  0  0  0  0  0  0  0  0  0  0
   37.9210   28.3650   35.0940 O   0  0  0  0  0  0  0  0  0  0  0  0
   37.8500   27.4350   35.4210 H   0  0  0  0  0  0  0  0  0  0  0  0
   35.3780   27.8160   34.3690 O   0  0  0  0  0  0  0  0  0  0  0  0
   34.4860   28.1480   34.1250 H   0  0  0  0  0  0  0  0  0  0  0  0
  1  2  1  0  0  0  0
  2  3  2  0  0  0  0
  2  9  1  0  0  0  0
  3  7  1  0  0  0  0
  4  3  1  0  0  0  0
  5  4  2  0  0  0  0
  6  5  1  0  0  0  0
  6  1  2  0  0  0  0
  8  5  1  0  0  0  0
  9 12  1  1  0  0  0
 10  9  1  0  0  0  0
 10 14  1  0  0  0  0
 11 10  1  0  0  0  0
 11  9  1  0  0  0  0
 11 15  1  1  0  0  0
 13 10  1  0  0  0  0
 16 11  1  0  0  0  0
 17 16  1  0  0  0  0
 19 20  1  0  0  0  0
 19 18  1  0  0  0  0
 20 21  1  0  0  0  0
 22 16  1  6  0  0  0
 22 21  1  0  0  0  0
 23 22  1  0  0  0  0
 24 19  1  0  0  0  0
 24 23  2  0  0  0  0
 25 26  2  0  0  0  0
 25  1  1  0  0  0  0
 27 28  1  0  0  0  0
 28 29  1  0  0  0  0
 29 30  2  0  0  0  0
 29 25  1  0  0  0  0
 30 34  1  0  0  0  0
 31 35  1  0  0  0  0
 31 30  1  0  0  0  0
 32 31  2  0  0  0  0
 33 32  1  0  0  0  0
 33 28  2  0  0  0  0
 36 32  1  0  0  0  0
 37 33  1  0  0  0  0
 38 39  2  0  0  0  0
 39 40  1  0  0  0  0
 39 37  1  0  0  0  0
 40 41  1  0  0  0  0
 42 39  1  0  0  0  0
 43 42  1  0  0  0  0
M  END
>  <minimizedAffinity>
-6.0620451

$$$$

 OpenBabel03242523273D

 43 46  0  0  1  0  0  0  0  0999 V2000
   38.5740   29.6160   41.8060 C   0  0  0  0  0  0  0  0  0  0  0  0
   38.7690   28.6580   42.6920 C   0  0  0  0  0  0  0  0  0  0  0  0
   40.0880   28.2640   42.8460 C   0  0  0  0  0  0  0  0  0  0  0  0
   41.0600   28.9160   42.0480 N   0  0  0  0  0  0  0  0  0  0  0  0
   40.7870   29.8580   41.1860 C   0  0  0  0  0  0  0  0  0  0  0  0
   39.4740   30.2670   41.0220 N   0  0  0  0  0  0  0  0  0  0  0  0
   40.4760   27.5140   43.5020 H   0  0  0  0  0  0  0  0  0  0  0  0
   41.6370   30.2580   40.6510 H   0  0  0  0  0  0  0  0  0  0  0  0
   37.7730   27.9070   43.4180 C   0  0  1  0  0  0  0  0  0  0  0  0
   36.5390   27.5570   42.9860 C   0  0  0  0  0  0  0  0  0  0  0  0
   37.5220   26.4300   42.8590 C   0  0  1  0  0  0  0  0  0  0  0  0
   38.1060   27.7880   44.4990 H   0  0  0  0  0  0  0  0  0  0  0  0
   36.1260   27.9430   42.0060 H   0  0  0  0  0  0  0  0  0  0  0  0
   35.6870   27.3430   43.6660 H   0  0  0  0  0  0  0  0  0  0  0  0
   37.4790   25.6350   43.6230 H   0  0  0  0  0  0  0  0  0  0  0  0
   38.0550   26.1750   41.5680 N   0  0  0  0  0  0  0  0  0  0  0  0
   39.0680   26.4860   41.4930 H   0  0  0  0  0  0  0  0  0  0  0  0
   37.3890   21.8980   40.7030 H   0  0  0  0  0  0  0  0  0  0  0  0
   37.3860   22.5020   39.8740 N   0  0  0  0  0  0  0  0  0  0  0  0
   36.3640   23.5260   40.0080 C   0  0  0  0  0  2  0  0  0  0  0  0
   36.6760   24.2580   41.2870 C   0  0  0  0  0  2  0  0  0  0  0  0
   38.0860   24.7140   41.4220 C   0  0  1  0  0  3  0  0  0  0  0  0
   38.9900   24.3230   40.3040 C   0  0  0  0  0  3  0  0  0  0  0  0
   38.6820   23.0610   39.5920 C   0  0  0  0  0  3  0  0  0  0  0  0
   37.2660   30.2700   41.5100 C   0  0  0  0  0  0  0  0  0  0  0  0
   36.1870   30.6960   41.7850 O   0  0  0  0  0  0  0  0  0  0  0  0
   36.1490   28.1830   39.5120 Cl  0  0  0  0  0  0  0  0  0  0  0  0
   36.7690   29.7450   39.0090 C   0  0  0  0  0  0  0  0  0  0  0  0
   37.2370   30.6010   40.0350 C   0  0  0  0  0  0  0  0  0  0  0  0
   37.6850   31.7820   39.5080 C   0  0  0  0  0  0  0  0  0  0  0  0
   37.7420   32.2090   38.2650 C   0  0  0  0  0  0  0  0  0  0  0  0
   37.2720   31.3320   37.3020 C   0  0  0  0  0  0  0  0  0  0  0  0
   36.7930   30.1210   37.6610 C   0  0  0  0  0  0  0  0  0  0  0  0
   38.0650   32.5380   40.2460 H   0  0  0  0  0  0  0  0  0  0  0  0
   38.1250   33.1850   37.9490 H   0  0  0  0  0  0  0  0  0  0  0  0
   37.3080   31.6630   36.2490 H   0  0  0  0  0  0  0  0  0  0  0  0
   36.3530   29.3330   36.6260 O   0  0  0  0  0  0  0  0  0  0  0  0
   36.6670   26.8980   35.7080 O   0  0  0  0  0  0  0  0  0  0  0  0
   37.2230   28.2930   35.6140 P   0  0  0  0  0  0  0  0  0  0  0  0
   37.1310   28.8750   34.0240 O   0  0  0  0  0  0  0  0  0  0  0  0
   37.8400   29.5350   33.8310 H   0  0  0  0  0  0  0  0  0  0  0  0
   38.8710   28.2760   36.0020 O   0  0  0  0  0  0  0  0  0  0  0  0
   39.0320   27.8710   36.8820 H   0  0  0  0  0  0  0  0  0  0  0  0
  1  2  1  0  0  0  0
  2  3  2  0  0  0  0
  2  9  1  0  0  0  0
  3  7  1  0  0  0  0
  4  3  1  0  0  0  0
  5  4  2  0  0  0  0
  6  5  1  0  0  0  0
  6  1  2  0  0  0  0
  8  5  1  0  0  0  0
  9 12  1  1  0  0  0
 10  9  1  0  0  0  0
 10 14  1  0  0  0  0
 11 10  1  0  0  0  0
 11  9  1  0  0  0  0
 11 15  1  1  0  0  0
 13 10  1  0  0  0  0
 16 11  1  0  0  0  0
 17 16  1  0  0  0  0
 19 20  1  0  0  0  0
 19 18  1  0  0  0  0
 20 21  1  0  0  0  0
 21 22  1  0  0  0  0
 22 16  1  6  0  0  0
 23 22  1  0  0  0  0
 24 19  1  0  0  0  0
 24 23  2  0  0  0  0
 25 26  2  0  0  0  0
 25  1  1  0  0  0  0
 28 27  1  0  0  0  0
 28 29  1  0  0  0  0
 29 25  1  0  0  0  0
 30 29  2  0  0  0  0
 30 34  1  0  0  0  0
 31 30  1  0  0  0  0
 32 33  1  0  0  0  0
 32 31  2  0  0  0  0
 33 28  2  0  0  0  0
 35 31  1  0  0  0  0
 36 32  1  0  0  0  0
 37 33  1  0  0  0  0
 39 38  2  0  0  0  0
 39 42  1  0  0  0  0
 39 37  1  0  0  0  0
 40 39  1  0  0  0  0
 41 40  1  0  0  0  0
 42 43  1  0  0  0  0
M  END
>  <minimizedAffinity>
-6.03153086

$$$$
