
 OpenBabel03242515093D

 34 36  0  0  0  0  0  0  0  0999 V2000
   45.7290   34.1460   45.2580 C   0  0  0  0  0  0  0  0  0  0  0  0
   44.7100   35.0460   45.3940 C   0  0  0  0  0  0  0  0  0  0  0  0
   44.3950   35.9970   44.4430 C   0  0  0  0  0  0  0  0  0  0  0  0
   45.1430   36.0490   43.2890 C   0  0  0  0  0  0  0  0  0  0  0  0
   46.1630   35.1620   43.1310 C   0  0  0  0  0  0  0  0  0  0  0  0
   46.4570   34.2180   44.0990 C   0  0  0  0  0  0  0  0  0  0  0  0
   44.1110   35.0180   46.2980 H   0  0  0  0  0  0  0  0  0  0  0  0
   43.5760   36.6650   44.6350 H   0  0  0  0  0  0  0  0  0  0  0  0
   44.8820   36.8050   42.5480 H   0  0  0  0  0  0  0  0  0  0  0  0
   46.7180   35.2460   42.2080 H   0  0  0  0  0  0  0  0  0  0  0  0
   47.3910   31.3940   47.0170 C   0  0  0  0  0  0  0  0  0  0  0  0
   46.6470   31.2710   48.1890 C   0  0  0  0  0  0  0  0  0  0  0  0
   45.5650   32.1340   48.3820 C   0  0  0  0  0  0  0  0  0  0  0  0
   45.2670   33.0650   47.4370 N   0  0  0  0  0  0  0  0  0  0  0  0
   46.0120   33.1650   46.2970 C   0  0  0  0  0  0  0  0  0  0  0  0
   47.0520   32.3240   46.1250 N   0  0  0  0  0  0  0  0  0  0  0  0
   48.2250   30.7350   46.8580 H   0  0  0  0  0  0  0  0  0  0  0  0
   46.8700   30.5320   48.9560 H   0  0  0  0  0  0  0  0  0  0  0  0
   44.9390   32.1090   49.2540 H   0  0  0  0  0  0  0  0  0  0  0  0
   47.5490   33.3680   43.7840 N   0  0  0  0  0  0  0  0  0  0  0  0
   47.4880   32.4640   44.3450 H   0  0  0  0  0  0  0  0  0  0  0  0
   48.8620   33.5470   42.7180 S   0  0  0  0  0  0  0  0  0  0  0  0
   48.3330   33.9520   41.3540 O   0  0  0  0  0  0  0  0  0  0  0  0
   48.8240   33.8510   40.5150 H   0  0  0  0  0  0  0  0  0  0  0  0
   49.9030   34.5080   43.1610 O   0  0  0  0  0  0  0  0  0  0  0  0
   50.1740   35.3840   42.7860 H   0  0  0  0  0  0  0  0  0  0  0  0
   49.4800   31.9750   42.5000 O   0  0  0  0  0  0  0  0  0  0  0  0
   53.1110   29.2900   40.9670 H   0  0  0  0  0  0  0  0  0  0  0  0
   52.2220   29.8230   40.9210 N   0  0  0  0  0  0  0  0  0  0  0  0
   52.3880   31.1960   40.5310 C   0  0  0  0  0  2  0  0  0  0  0  0
   51.1510   31.9880   40.8640 C   0  0  0  0  0  2  0  0  0  0  0  0
   50.8360   32.0260   42.3330 C   0  0  0  0  0  3  0  0  0  0  0  0
   51.4150   30.7920   43.0300 C   0  0  0  0  0  2  0  0  0  0  0  0
   51.3820   29.6260   42.0770 C   0  0  0  0  0  2  0  0  0  0  0  0
  1  2  1  0  0  0  0
  1 15  1  0  0  0  0
  2  7  1  0  0  0  0
  3  8  1  0  0  0  0
  3  2  2  0  0  0  0
  4  3  1  0  0  0  0
  5  4  2  0  0  0  0
  5  6  1  0  0  0  0
  6  1  2  0  0  0  0
  9  4  1  0  0  0  0
 10  5  1  0  0  0  0
 11 12  1  0  0  0  0
 12 13  2  0  0  0  0
 12 18  1  0  0  0  0
 13 19  1  0  0  0  0
 14 13  1  0  0  0  0
 15 14  2  0  0  0  0
 16 15  1  0  0  0  0
 16 11  2  0  0  0  0
 17 11  1  0  0  0  0
 20  6  1  0  0  0  0
 20 21  1  0  0  0  0
 22 25  1  0  0  0  0
 22 20  1  0  0  0  0
 23 22  1  0  0  0  0
 24 23  1  0  0  0  0
 26 25  1  0  0  0  0
 27 22  1  0  0  0  0
 29 28  1  0  0  0  0
 29 34  1  0  0  0  0
 30 31  1  0  0  0  0
 30 29  1  0  0  0  0
 31 32  1  0  0  0  0
 32 27  1  0  0  0  0
 32 33  1  0  0  0  0
 34 33  1  0  0  0  0
M  END
>  <minimizedAffinity>
-5.74782085

>  <minimizedRMSD>
1.25278556

$$$$
