
 OpenBabel03242515103D

 34 36  0  0  0  0  0  0  0  0999 V2000
   45.5730   34.0260   45.5620 C   0  0  0  0  0  0  0  0  0  0  0  0
   44.7250   35.0830   45.7400 C   0  0  0  0  0  0  0  0  0  0  0  0
   44.3980   35.9790   44.7400 C   0  0  0  0  0  0  0  0  0  0  0  0
   44.9500   35.8060   43.4920 C   0  0  0  0  0  0  0  0  0  0  0  0
   45.7970   34.7600   43.2920 C   0  0  0  0  0  0  0  0  0  0  0  0
   46.1080   33.8760   44.3090 C   0  0  0  0  0  0  0  0  0  0  0  0
   44.2820   35.2330   46.7180 H   0  0  0  0  0  0  0  0  0  0  0  0
   43.7220   36.7820   44.9700 H   0  0  0  0  0  0  0  0  0  0  0  0
   44.6820   36.5210   42.7140 H   0  0  0  0  0  0  0  0  0  0  0  0
   46.2020   34.6700   42.2940 H   0  0  0  0  0  0  0  0  0  0  0  0
   47.5290   31.8530   47.7710 C   0  0  0  0  0  0  0  0  0  0  0  0
   46.5820   31.3910   48.6820 C   0  0  0  0  0  0  0  0  0  0  0  0
   45.2600   31.8230   48.5430 C   0  0  0  0  0  0  0  0  0  0  0  0
   44.9310   32.6750   47.5360 N   0  0  0  0  0  0  0  0  0  0  0  0
   45.8790   33.1130   46.6550 C   0  0  0  0  0  0  0  0  0  0  0  0
   47.1500   32.6870   46.8040 N   0  0  0  0  0  0  0  0  0  0  0  0
   48.5480   31.5260   47.8690 H   0  0  0  0  0  0  0  0  0  0  0  0
   46.8260   30.7090   49.4940 H   0  0  0  0  0  0  0  0  0  0  0  0
   44.4670   31.5180   49.1990 H   0  0  0  0  0  0  0  0  0  0  0  0
   47.0050   32.8400   43.9390 N   0  0  0  0  0  0  0  0  0  0  0  0
   46.7120   31.9190   44.3880 H   0  0  0  0  0  0  0  0  0  0  0  0
   48.3910   32.8300   42.9530 S   0  0  0  0  0  0  0  0  0  0  0  0
   47.9570   32.7460   41.5010 O   0  0  0  0  0  0  0  0  0  0  0  0
   48.5290   32.4510   40.7660 H   0  0  0  0  0  0  0  0  0  0  0  0
   49.3030   33.9860   43.1420 O   0  0  0  0  0  0  0  0  0  0  0  0
   49.5330   34.7320   42.5330 H   0  0  0  0  0  0  0  0  0  0  0  0
   49.1560   31.3420   43.2690 O   0  0  0  0  0  0  0  0  0  0  0  0
   52.7670   28.5270   41.9340 H   0  0  0  0  0  0  0  0  0  0  0  0
   51.8570   28.7900   42.3610 N   0  0  0  0  0  0  0  0  0  0  0  0
   50.7380   28.6590   41.4710 C   0  0  0  0  0  2  0  0  0  0  0  0
   49.5510   29.4120   42.0090 C   0  0  0  0  0  2  0  0  0  0  0  0
   49.7840   30.8910   42.1420 C   0  0  0  0  0  3  0  0  0  0  0  0
   51.2770   31.1770   42.3230 C   0  0  0  0  0  2  0  0  0  0  0  0
   51.9090   30.0380   43.0810 C   0  0  0  0  0  2  0  0  0  0  0  0
  1  2  1  0  0  0  0
  1 15  1  0  0  0  0
  2  7  1  0  0  0  0
  3  8  1  0  0  0  0
  3  2  2  0  0  0  0
  4  3  1  0  0  0  0
  5  4  2  0  0  0  0
  5  6  1  0  0  0  0
  6  1  2  0  0  0  0
  9  4  1  0  0  0  0
 10  5  1  0  0  0  0
 11 17  1  0  0  0  0
 11 12  1  0  0  0  0
 12 18  1  0  0  0  0
 13 12  2  0  0  0  0
 13 19  1  0  0  0  0
 14 13  1  0  0  0  0
 15 16  1  0  0  0  0
 15 14  2  0  0  0  0
 16 11  2  0  0  0  0
 20  6  1  0  0  0  0
 20 21  1  0  0  0  0
 22 25  1  0  0  0  0
 22 27  1  0  0  0  0
 22 20  1  0  0  0  0
 23 22  1  0  0  0  0
 24 23  1  0  0  0  0
 26 25  1  0  0  0  0
 28 29  1  0  0  0  0
 29 34  1  0  0  0  0
 30 31  1  0  0  0  0
 30 29  1  0  0  0  0
 31 32  1  0  0  0  0
 32 33  1  0  0  0  0
 32 27  1  0  0  0  0
 33 34  1  0  0  0  0
M  END
>  <minimizedAffinity>
-4.91836739

>  <minimizedRMSD>
1.15669811

$$$$
