
 OpenBabel03242511063D

 25 27  0  0  1  0  0  0  0  0999 V2000
   45.5220   31.4610   42.4130 C   0  0  1  0  0  0  0  0  0  0  0  0
   46.1430   30.9360   43.6740 C   0  0  0  0  0  0  0  0  0  0  0  0
   44.6300   30.8340   43.3940 C   0  0  2  0  0  0  0  0  0  0  0  0
   45.7680   30.9090   41.4850 H   0  0  0  0  0  0  0  0  0  0  0  0
   46.7480   30.0400   43.5680 H   0  0  0  0  0  0  0  0  0  0  0  0
   46.4740   31.7330   44.3770 H   0  0  0  0  0  0  0  0  0  0  0  0
   44.0160   31.4710   44.0960 H   0  0  0  0  0  0  0  0  0  0  0  0
   44.3630   34.9910   42.4780 C   0  0  0  0  0  0  0  0  0  0  0  0
   45.4240   35.6360   41.7510 C   0  0  0  0  0  0  0  0  0  0  0  0
   46.5070   34.8380   41.2680 C   0  0  0  0  0  0  0  0  0  0  0  0
   46.4970   33.5240   41.5060 N   0  0  0  0  0  0  0  0  0  0  0  0
   45.4670   32.9390   42.2050 C   0  0  0  0  0  0  0  0  0  0  0  0
   44.4170   33.6750   42.6790 N   0  0  0  0  0  0  0  0  0  0  0  0
   43.5580   35.6170   42.8300 H   0  0  0  0  0  0  0  0  0  0  0  0
   45.3630   36.7040   41.5970 H   0  0  0  0  0  0  0  0  0  0  0  0
   47.2770   35.3720   40.7290 H   0  0  0  0  0  0  0  0  0  0  0  0
   44.1170   29.5160   43.2540 N   0  0  0  0  0  0  0  0  0  0  0  0
   44.3640   29.1660   42.2870 H   0  0  0  0  0  0  0  0  0  0  0  0
   40.1500   30.5160   45.8610 H   0  0  0  0  0  0  0  0  0  0  0  0
   41.0850   30.0430   45.7430 N   0  0  0  0  0  0  0  0  0  0  0  0
   42.0870   30.9570   45.2370 C   0  0  0  0  0  2  0  0  0  0  0  0
   42.2020   30.8940   43.7350 C   0  0  0  0  0  2  0  0  0  0  0  0
   42.6670   29.5160   43.3130 C   0  0  0  0  0  3  0  0  0  0  0  0
   42.1860   28.4540   44.2970 C   0  0  0  0  0  2  0  0  0  0  0  0
   40.8750   28.9040   44.9020 C   0  0  0  0  0  2  0  0  0  0  0  0
  1  4  1  6  0  0  0
  1  3  1  0  0  0  0
  1  2  1  0  0  0  0
  2  6  1  0  0  0  0
  3  2  1  0  0  0  0
  3  7  1  1  0  0  0
  5  2  1  0  0  0  0
  8 13  1  0  0  0  0
  8 14  1  0  0  0  0
  9  8  2  0  0  0  0
 10 11  2  0  0  0  0
 10  9  1  0  0  0  0
 11 12  1  0  0  0  0
 12  1  1  0  0  0  0
 12 13  2  0  0  0  0
 15  9  1  0  0  0  0
 16 10  1  0  0  0  0
 17 23  1  0  0  0  0
 17  3  1  0  0  0  0
 18 17  1  0  0  0  0
 20 19  1  0  0  0  0
 21 20  1  0  0  0  0
 22 21  1  0  0  0  0
 23 22  1  0  0  0  0
 23 24  1  0  0  0  0
 24 25  1  0  0  0  0
 25 20  1  0  0  0  0
M  END
>  <minimizedAffinity>
4.33157253

>  <minimizedRMSD>
5.2960844

$$$$
