
 OpenBabel03252506223D

 33 35  0  0  0  0  0  0  0  0999 V2000
   44.8370   34.9960   42.1180 C   0  0  0  0  0  0  0  0  0  0  0  0
   43.7760   34.9260   41.2110 C   0  0  0  0  0  0  0  0  0  0  0  0
   43.8960   34.0190   40.1380 C   0  0  0  0  0  0  0  0  0  0  0  0
   45.0210   33.2700   40.0410 N   0  0  0  0  0  0  0  0  0  0  0  0
   46.0270   33.3770   40.9530 C   0  0  0  0  0  0  0  0  0  0  0  0
   45.9240   34.2350   41.9760 N   0  0  0  0  0  0  0  0  0  0  0  0
   42.9090   35.5450   41.3400 H   0  0  0  0  0  0  0  0  0  0  0  0
   43.0910   33.9340   39.4100 H   0  0  0  0  0  0  0  0  0  0  0  0
   48.2430   34.6050   39.2990 Cl  0  0  0  0  0  0  0  0  0  0  0  0
   48.2610   33.0350   40.0080 C   0  0  0  0  0  0  0  0  0  0  0  0
   47.2170   32.5160   40.7600 C   0  0  0  0  0  0  0  0  0  0  0  0
   47.2130   31.2770   41.3280 C   0  0  0  0  0  0  0  0  0  0  0  0
   48.3170   30.4990   41.1390 C   0  0  0  0  0  0  0  0  0  0  0  0
   49.4240   30.8950   40.4130 C   0  0  0  0  0  0  0  0  0  0  0  0
   49.3420   32.1790   39.8660 C   0  0  0  0  0  0  0  0  0  0  0  0
   46.3950   30.8800   41.9130 H   0  0  0  0  0  0  0  0  0  0  0  0
   48.3700   29.5090   41.5670 H   0  0  0  0  0  0  0  0  0  0  0  0
   50.3090   30.2940   40.2500 H   0  0  0  0  0  0  0  0  0  0  0  0
   50.1740   32.5720   39.2750 H   0  0  0  0  0  0  0  0  0  0  0  0
   44.7150   35.9370   43.2320 C   0  0  0  0  0  3  0  0  0  0  0  0
   45.2550   37.1370   43.1170 C   0  0  0  0  0  3  0  0  0  0  0  0
   45.1210   38.0850   44.2660 C   0  0  0  0  0  0  0  0  0  0  0  0
   44.1180   37.9880   44.7290 H   0  0  0  0  0  0  0  0  0  0  0  0
   45.8910   37.9030   45.0350 H   0  0  0  0  0  0  0  0  0  0  0  0
   45.2060   39.4200   43.7080 N   0  0  0  0  0  0  0  0  0  0  0  0
   46.0530   39.3900   43.0650 H   0  0  0  0  0  0  0  0  0  0  0  0
   42.8360   41.2900   46.1040 H   0  0  0  0  0  0  0  0  0  0  0  0
   43.6670   41.7570   46.5310 N   0  0  0  0  0  0  0  0  0  0  0  0
   44.6230   40.8210   47.0550 C   0  0  0  0  0  2  0  0  0  0  0  0
   45.2120   39.8850   46.0550 C   0  0  0  0  0  2  0  0  0  0  0  0
   45.4260   40.4480   44.6870 C   0  0  0  0  0  3  0  0  0  0  0  0
   44.5470   41.6160   44.3410 C   0  0  0  0  0  2  0  0  0  0  0  0
   44.3430   42.5420   45.5160 C   0  0  0  0  0  2  0  0  0  0  0  0
  1 20  1  0  0  0  0
  2  7  1  0  0  0  0
  2  1  2  0  0  0  0
  3  2  1  0  0  0  0
  4  3  2  0  0  0  0
  4  5  1  0  0  0  0
  5  6  2  0  0  0  0
  6  1  1  0  0  0  0
  8  3  1  0  0  0  0
  9 10  1  0  0  0  0
 10 11  1  0  0  0  0
 11  5  1  0  0  0  0
 11 12  2  0  0  0  0
 12 16  1  0  0  0  0
 13 12  1  0  0  0  0
 13 17  1  0  0  0  0
 14 13  2  0  0  0  0
 15 10  2  0  0  0  0
 15 14  1  0  0  0  0
 18 14  1  0  0  0  0
 19 15  1  0  0  0  0
 21 20  2  0  0  0  0
 21 22  1  0  0  0  0
 22 23  1  0  0  0  0
 22 24  1  0  0  0  0
 25 22  1  0  0  0  0
 25 31  1  0  0  0  0
 26 25  1  0  0  0  0
 27 28  1  0  0  0  0
 28 29  1  0  0  0  0
 30 29  1  0  0  0  0
 31 30  1  0  0  0  0
 32 31  1  0  0  0  0
 32 33  1  0  0  0  0
 33 28  1  0  0  0  0
M  END
>  <minimizedAffinity>
-4.12184381

>  <minimizedRMSD>
1.68326902

$$$$
