
 OpenBabel03252506213D

 33 35  0  0  0  0  0  0  0  0999 V2000
   44.7240   35.0060   42.0050 C   0  0  0  0  0  0  0  0  0  0  0  0
   43.6540   34.9420   41.1080 C   0  0  0  0  0  0  0  0  0  0  0  0
   43.7660   34.0440   40.0260 C   0  0  0  0  0  0  0  0  0  0  0  0
   44.8920   33.2980   39.9110 N   0  0  0  0  0  0  0  0  0  0  0  0
   45.9060   33.4000   40.8150 C   0  0  0  0  0  0  0  0  0  0  0  0
   45.8110   34.2490   41.8460 N   0  0  0  0  0  0  0  0  0  0  0  0
   42.7870   35.5570   41.2500 H   0  0  0  0  0  0  0  0  0  0  0  0
   42.9550   33.9640   39.3050 H   0  0  0  0  0  0  0  0  0  0  0  0
   48.3180   34.8180   39.6630 Cl  0  0  0  0  0  0  0  0  0  0  0  0
   48.2290   33.1480   40.0760 C   0  0  0  0  0  0  0  0  0  0  0  0
   47.0960   32.5430   40.6030 C   0  0  0  0  0  0  0  0  0  0  0  0
   47.0060   31.2240   40.9350 C   0  0  0  0  0  0  0  0  0  0  0  0
   48.1120   30.4520   40.7330 C   0  0  0  0  0  0  0  0  0  0  0  0
   49.3020   30.9290   40.2160 C   0  0  0  0  0  0  0  0  0  0  0  0
   49.3040   32.2920   39.9030 C   0  0  0  0  0  0  0  0  0  0  0  0
   46.1200   30.7610   41.3450 H   0  0  0  0  0  0  0  0  0  0  0  0
   48.0990   29.4010   40.9790 H   0  0  0  0  0  0  0  0  0  0  0  0
   50.1890   30.3340   40.0470 H   0  0  0  0  0  0  0  0  0  0  0  0
   50.2050   32.7520   39.4880 H   0  0  0  0  0  0  0  0  0  0  0  0
   44.6100   35.9360   43.1280 C   0  0  0  0  0  3  0  0  0  0  0  0
   45.2550   37.0880   43.0710 C   0  0  0  0  0  3  0  0  0  0  0  0
   45.1290   38.0270   44.2290 C   0  0  0  0  0  0  0  0  0  0  0  0
   44.1330   37.9160   44.7060 H   0  0  0  0  0  0  0  0  0  0  0  0
   45.9120   37.8480   44.9850 H   0  0  0  0  0  0  0  0  0  0  0  0
   45.1910   39.3670   43.6790 N   0  0  0  0  0  0  0  0  0  0  0  0
   46.0220   39.3470   43.0160 H   0  0  0  0  0  0  0  0  0  0  0  0
   42.8590   41.2430   46.1090 H   0  0  0  0  0  0  0  0  0  0  0  0
   43.6980   41.7020   46.5290 N   0  0  0  0  0  0  0  0  0  0  0  0
   44.6520   40.7550   47.0390 C   0  0  0  0  0  2  0  0  0  0  0  0
   45.2250   39.8210   46.0290 C   0  0  0  0  0  2  0  0  0  0  0  0
   45.4290   40.3880   44.6610 C   0  0  0  0  0  3  0  0  0  0  0  0
   44.5540   41.5650   44.3290 C   0  0  0  0  0  2  0  0  0  0  0  0
   44.3690   42.4860   45.5110 C   0  0  0  0  0  2  0  0  0  0  0  0
  1 20  1  0  0  0  0
  2  7  1  0  0  0  0
  2  1  2  0  0  0  0
  3  2  1  0  0  0  0
  4  3  2  0  0  0  0
  4  5  1  0  0  0  0
  5  6  2  0  0  0  0
  6  1  1  0  0  0  0
  8  3  1  0  0  0  0
  9 10  1  0  0  0  0
 10 11  1  0  0  0  0
 11  5  1  0  0  0  0
 11 12  2  0  0  0  0
 12 16  1  0  0  0  0
 13 12  1  0  0  0  0
 13 17  1  0  0  0  0
 14 13  2  0  0  0  0
 15 10  2  0  0  0  0
 15 14  1  0  0  0  0
 18 14  1  0  0  0  0
 19 15  1  0  0  0  0
 21 20  2  0  0  0  0
 21 22  1  0  0  0  0
 22 23  1  0  0  0  0
 22 24  1  0  0  0  0
 25 22  1  0  0  0  0
 25 31  1  0  0  0  0
 26 25  1  0  0  0  0
 27 28  1  0  0  0  0
 28 29  1  0  0  0  0
 30 29  1  0  0  0  0
 31 30  1  0  0  0  0
 32 31  1  0  0  0  0
 32 33  1  0  0  0  0
 33 28  1  0  0  0  0
M  END
>  <minimizedAffinity>
-4.12382174

>  <minimizedRMSD>
1.71934319

$$$$
