
 OpenBabel03242519033D

 30 32  0  0  1  0  0  0  0  0999 V2000
   47.4880   34.2860   42.1090 N   0  0  0  0  0  0  0  0  0  0  0  0
   48.0010   35.0610   41.0130 C   0  0  0  0  0  0  0  0  0  0  0  0
   47.9180   33.9940   39.9330 C   0  0  2  0  0  0  0  0  0  0  0  0
   48.6130   32.8490   40.6010 C   0  0  0  0  0  0  0  0  0  0  0  0
   48.1520   32.9880   42.0430 C   0  0  0  0  0  0  0  0  0  0  0  0
   47.3510   35.9190   40.7500 H   0  0  0  0  0  0  0  0  0  0  0  0
   49.0490   35.3320   41.1190 H   0  0  0  0  0  0  0  0  0  0  0  0
   46.9020   33.7070   39.6910 H   0  0  0  0  0  0  0  0  0  0  0  0
   48.1920   31.8910   40.2180 H   0  0  0  0  0  0  0  0  0  0  0  0
   49.7150   32.8900   40.5090 H   0  0  0  0  0  0  0  0  0  0  0  0
   49.0710   33.0250   42.6770 H   0  0  0  0  0  0  0  0  0  0  0  0
   47.4540   32.1930   42.3350 H   0  0  0  0  0  0  0  0  0  0  0  0
   44.7500   35.8790   44.0730 C   0  0  0  0  0  0  0  0  0  0  0  0
   45.6410   35.6540   43.0310 C   0  0  0  0  0  0  0  0  0  0  0  0
   46.5490   34.6080   43.0920 C   0  0  0  0  0  0  0  0  0  0  0  0
   46.5120   33.8210   44.2300 N   0  0  0  0  0  0  0  0  0  0  0  0
   45.6430   34.0450   45.2410 C   0  0  0  0  0  0  0  0  0  0  0  0
   44.7640   35.0760   45.1590 N   0  0  0  0  0  0  0  0  0  0  0  0
   44.0420   36.6940   44.0270 H   0  0  0  0  0  0  0  0  0  0  0  0
   45.6670   36.2650   42.1490 H   0  0  0  0  0  0  0  0  0  0  0  0
   45.6800   33.3800   46.1010 H   0  0  0  0  0  0  0  0  0  0  0  0
   48.7100   34.4020   38.7970 N   0  0  0  0  0  0  0  0  0  0  0  0
   49.6870   34.1330   38.8410 H   0  0  0  0  0  0  0  0  0  0  0  0
   46.9240   30.7480   37.0750 H   0  0  0  0  0  0  0  0  0  0  0  0
   47.2250   31.5590   36.4750 N   0  0  0  0  0  0  0  0  0  0  0  0
   48.5700   31.8590   36.8540 C   0  0  0  0  0  2  0  0  0  0  0  0
   48.8490   33.3280   36.5980 C   0  0  0  0  0  2  0  0  0  0  0  0
   48.1080   34.2250   37.5280 C   0  0  0  0  0  3  0  0  0  0  0  0
   46.7490   33.5760   37.7790 C   0  0  0  0  0  2  0  0  0  0  0  0
   46.3470   32.6940   36.6190 C   0  0  0  0  0  2  0  0  0  0  0  0
  1 15  1  0  0  0  0
  2  7  1  0  0  0  0
  2  1  1  0  0  0  0
  3  8  1  6  0  0  0
  3  4  1  0  0  0  0
  3  2  1  0  0  0  0
  4  5  1  0  0  0  0
  5  1  1  0  0  0  0
  5 12  1  0  0  0  0
  5 11  1  0  0  0  0
  6  2  1  0  0  0  0
  9  4  1  0  0  0  0
 10  4  1  0  0  0  0
 13 18  1  0  0  0  0
 14 15  1  0  0  0  0
 14 13  2  0  0  0  0
 15 16  2  0  0  0  0
 16 17  1  0  0  0  0
 17 21  1  0  0  0  0
 18 17  2  0  0  0  0
 19 13  1  0  0  0  0
 20 14  1  0  0  0  0
 22 23  1  0  0  0  0
 22  3  1  0  0  0  0
 25 30  1  0  0  0  0
 25 26  1  0  0  0  0
 25 24  1  0  0  0  0
 27 26  1  0  0  0  0
 27 28  1  0  0  0  0
 28 29  1  0  0  0  0
 28 22  1  0  0  0  0
 30 29  1  0  0  0  0
M  END
>  <minimizedAffinity>
-4.74459648

>  <minimizedRMSD>
1.55764246

$$$$
