
 OpenBabel03242519033D

 30 32  0  0  1  0  0  0  0  0999 V2000
   47.4210   34.3680   42.2800 N   0  0  0  0  0  0  0  0  0  0  0  0
   47.9690   35.1470   41.2030 C   0  0  0  0  0  0  0  0  0  0  0  0
   47.8870   34.0970   40.1080 C   0  0  2  0  0  0  0  0  0  0  0  0
   48.5490   32.9300   40.7740 C   0  0  0  0  0  0  0  0  0  0  0  0
   48.0630   33.0590   42.2090 C   0  0  0  0  0  0  0  0  0  0  0  0
   47.3400   36.0210   40.9400 H   0  0  0  0  0  0  0  0  0  0  0  0
   49.0200   35.3980   41.3330 H   0  0  0  0  0  0  0  0  0  0  0  0
   46.8710   33.8310   39.8440 H   0  0  0  0  0  0  0  0  0  0  0  0
   48.1170   31.9850   40.3700 H   0  0  0  0  0  0  0  0  0  0  0  0
   49.6530   32.9520   40.7020 H   0  0  0  0  0  0  0  0  0  0  0  0
   48.9710   33.0710   42.8600 H   0  0  0  0  0  0  0  0  0  0  0  0
   47.3460   32.2730   42.4770 H   0  0  0  0  0  0  0  0  0  0  0  0
   44.6780   35.9860   44.2150 C   0  0  0  0  0  0  0  0  0  0  0  0
   45.5840   35.7580   43.1860 C   0  0  0  0  0  0  0  0  0  0  0  0
   46.4710   34.6940   43.2500 C   0  0  0  0  0  0  0  0  0  0  0  0
   46.3970   33.8930   44.3760 N   0  0  0  0  0  0  0  0  0  0  0  0
   45.5140   34.1200   45.3730 C   0  0  0  0  0  0  0  0  0  0  0  0
   44.6560   35.1680   45.2900 N   0  0  0  0  0  0  0  0  0  0  0  0
   43.9860   36.8150   44.1670 H   0  0  0  0  0  0  0  0  0  0  0  0
   45.6380   36.3810   42.3140 H   0  0  0  0  0  0  0  0  0  0  0  0
   45.5220   33.4420   46.2250 H   0  0  0  0  0  0  0  0  0  0  0  0
   48.7070   34.5040   38.9920 N   0  0  0  0  0  0  0  0  0  0  0  0
   49.6880   34.2590   39.0740 H   0  0  0  0  0  0  0  0  0  0  0  0
   47.1280   30.7650   37.2520 H   0  0  0  0  0  0  0  0  0  0  0  0
   47.4140   31.5840   36.6540 N   0  0  0  0  0  0  0  0  0  0  0  0
   48.7330   31.9440   37.0690 C   0  0  0  0  0  2  0  0  0  0  0  0
   48.9570   33.4210   36.8090 C   0  0  0  0  0  2  0  0  0  0  0  0
   48.1520   34.2930   37.7070 C   0  0  0  0  0  3  0  0  0  0  0  0
   46.8150   33.5880   37.9260 C   0  0  0  0  0  2  0  0  0  0  0  0
   46.4840   32.6820   36.7620 C   0  0  0  0  0  2  0  0  0  0  0  0
  1 15  1  0  0  0  0
  2  7  1  0  0  0  0
  2  1  1  0  0  0  0
  3  8  1  6  0  0  0
  3  4  1  0  0  0  0
  3  2  1  0  0  0  0
  4  5  1  0  0  0  0
  5  1  1  0  0  0  0
  5 12  1  0  0  0  0
  5 11  1  0  0  0  0
  6  2  1  0  0  0  0
  9  4  1  0  0  0  0
 10  4  1  0  0  0  0
 13 18  1  0  0  0  0
 14 15  1  0  0  0  0
 14 13  2  0  0  0  0
 15 16  2  0  0  0  0
 16 17  1  0  0  0  0
 17 21  1  0  0  0  0
 18 17  2  0  0  0  0
 19 13  1  0  0  0  0
 20 14  1  0  0  0  0
 22 23  1  0  0  0  0
 22  3  1  0  0  0  0
 25 30  1  0  0  0  0
 25 26  1  0  0  0  0
 25 24  1  0  0  0  0
 27 26  1  0  0  0  0
 27 28  1  0  0  0  0
 28 29  1  0  0  0  0
 28 22  1  0  0  0  0
 30 29  1  0  0  0  0
M  END
>  <minimizedAffinity>
-4.78404808

>  <minimizedRMSD>
1.00712264

$$$$
