
 OpenBabel03242519043D

 30 32  0  0  1  0  0  0  0  0999 V2000
   38.3400   31.2510   39.6670 N   0  0  0  0  0  0  0  0  0  0  0  0
   37.8960   31.3360   41.0310 C   0  0  0  0  0  0  0  0  0  0  0  0
   37.7200   29.8500   41.2980 C   0  0  2  0  0  0  0  0  0  0  0  0
   36.8840   29.4410   40.1250 C   0  0  0  0  0  0  0  0  0  0  0  0
   37.4580   30.2940   39.0050 C   0  0  0  0  0  0  0  0  0  0  0  0
   38.6660   31.7550   41.7100 H   0  0  0  0  0  0  0  0  0  0  0  0
   36.9200   31.8030   41.1480 H   0  0  0  0  0  0  0  0  0  0  0  0
   38.6520   29.2980   41.2840 H   0  0  0  0  0  0  0  0  0  0  0  0
   37.1060   28.3790   39.8690 H   0  0  0  0  0  0  0  0  0  0  0  0
   35.8020   29.6190   40.2740 H   0  0  0  0  0  0  0  0  0  0  0  0
   36.6040   30.8530   38.5500 H   0  0  0  0  0  0  0  0  0  0  0  0
   38.0250   29.6990   38.2790 H   0  0  0  0  0  0  0  0  0  0  0  0
   40.9980   32.2270   37.2450 C   0  0  0  0  0  0  0  0  0  0  0  0
   39.9610   31.4970   37.8110 C   0  0  0  0  0  0  0  0  0  0  0  0
   39.3840   31.9020   39.0060 C   0  0  0  0  0  0  0  0  0  0  0  0
   39.8950   33.0520   39.5820 N   0  0  0  0  0  0  0  0  0  0  0  0
   40.9040   33.7570   39.0260 C   0  0  0  0  0  0  0  0  0  0  0  0
   41.4540   33.3420   37.8570 N   0  0  0  0  0  0  0  0  0  0  0  0
   41.4500   31.9130   36.3140 H   0  0  0  0  0  0  0  0  0  0  0  0
   39.5670   30.6060   37.3620 H   0  0  0  0  0  0  0  0  0  0  0  0
   41.2480   34.6510   39.5440 H   0  0  0  0  0  0  0  0  0  0  0  0
   36.9370   29.6680   42.4960 N   0  0  0  0  0  0  0  0  0  0  0  0
   35.9370   29.5840   42.3420 H   0  0  0  0  0  0  0  0  0  0  0  0
   38.9030   25.7730   41.8100 H   0  0  0  0  0  0  0  0  0  0  0  0
   38.4930   26.0360   42.7450 N   0  0  0  0  0  0  0  0  0  0  0  0
   37.1570   26.4720   42.4880 C   0  0  0  0  0  2  0  0  0  0  0  0
   36.7390   27.4670   43.5550 C   0  0  0  0  0  2  0  0  0  0  0  0
   37.4640   28.7630   43.4490 C   0  0  0  0  0  3  0  0  0  0  0  0
   38.8860   28.4390   42.9990 C   0  0  0  0  0  2  0  0  0  0  0  0
   39.2820   27.0410   43.4160 C   0  0  0  0  0  2  0  0  0  0  0  0
  1  2  1  0  0  0  0
  2  7  1  0  0  0  0
  2  3  1  0  0  0  0
  2  6  1  0  0  0  0
  3  8  1  1  0  0  0
  3 22  1  0  0  0  0
  4 10  1  0  0  0  0
  4  3  1  0  0  0  0
  5  1  1  0  0  0  0
  5  4  1  0  0  0  0
  9  4  1  0  0  0  0
 11  5  1  0  0  0  0
 12  5  1  0  0  0  0
 13 14  2  0  0  0  0
 13 18  1  0  0  0  0
 14 15  1  0  0  0  0
 15 16  2  0  0  0  0
 15  1  1  0  0  0  0
 17 21  1  0  0  0  0
 17 16  1  0  0  0  0
 18 17  2  0  0  0  0
 19 13  1  0  0  0  0
 20 14  1  0  0  0  0
 22 28  1  0  0  0  0
 23 22  1  0  0  0  0
 24 25  1  0  0  0  0
 25 30  1  0  0  0  0
 26 25  1  0  0  0  0
 26 27  1  0  0  0  0
 28 27  1  0  0  0  0
 29 30  1  0  0  0  0
 29 28  1  0  0  0  0
M  END
>  <minimizedAffinity>
-4.9286046

$$$$

 OpenBabel03242519043D

 30 32  0  0  1  0  0  0  0  0999 V2000
   36.8530   27.8730   41.6010 N   0  0  0  0  0  0  0  0  0  0  0  0
   36.0420   28.9250   41.0520 C   0  0  0  0  0  0  0  0  0  0  0  0
   37.1290   29.9720   40.8780 C   0  0  2  0  0  0  0  0  0  0  0  0
   37.7590   29.9660   42.2370 C   0  0  0  0  0  0  0  0  0  0  0  0
   37.7040   28.4940   42.6110 C   0  0  0  0  0  0  0  0  0  0  0  0
   35.6050   28.6630   40.0670 H   0  0  0  0  0  0  0  0  0  0  0  0
   35.3130   29.3280   41.7520 H   0  0  0  0  0  0  0  0  0  0  0  0
   37.8710   29.7010   40.1370 H   0  0  0  0  0  0  0  0  0  0  0  0
   38.8370   30.2360   42.1420 H   0  0  0  0  0  0  0  0  0  0  0  0
   37.2290   30.6040   42.9690 H   0  0  0  0  0  0  0  0  0  0  0  0
   37.1890   28.4280   43.6010 H   0  0  0  0  0  0  0  0  0  0  0  0
   38.6970   28.0260   42.6060 H   0  0  0  0  0  0  0  0  0  0  0  0
   37.2430   24.1710   41.7870 C   0  0  0  0  0  0  0  0  0  0  0  0
   37.2300   25.4990   42.1960 C   0  0  0  0  0  0  0  0  0  0  0  0
   36.9000   26.5090   41.3050 C   0  0  0  0  0  0  0  0  0  0  0  0
   36.5910   26.1180   40.0140 N   0  0  0  0  0  0  0  0  0  0  0  0
   36.6060   24.8250   39.6220 C   0  0  0  0  0  0  0  0  0  0  0  0
   36.9330   23.8540   40.5120 N   0  0  0  0  0  0  0  0  0  0  0  0
   37.5010   23.3830   42.4810 H   0  0  0  0  0  0  0  0  0  0  0  0
   37.4700   25.7990   43.1980 H   0  0  0  0  0  0  0  0  0  0  0  0
   36.3500   24.6030   38.5870 H   0  0  0  0  0  0  0  0  0  0  0  0
   36.5200   31.2640   40.6690 N   0  0  0  0  0  0  0  0  0  0  0  0
   36.5430   31.8800   41.4750 H   0  0  0  0  0  0  0  0  0  0  0  0
   40.4610   32.3510   38.9970 H   0  0  0  0  0  0  0  0  0  0  0  0
   39.5670   32.7930   38.6560 N   0  0  0  0  0  0  0  0  0  0  0  0
   38.8800   33.2570   39.8200 C   0  0  0  0  0  2  0  0  0  0  0  0
   37.3860   33.2650   39.5510 C   0  0  0  0  0  2  0  0  0  0  0  0
   36.8150   31.8950   39.4370 C   0  0  0  0  0  3  0  0  0  0  0  0
   37.8690   31.0310   38.7480 C   0  0  0  0  0  2  0  0  0  0  0  0
   38.7740   31.8730   37.8770 C   0  0  0  0  0  2  0  0  0  0  0  0
  1  5  1  0  0  0  0
  2  1  1  0  0  0  0
  2  7  1  0  0  0  0
  3  8  1  6  0  0  0
  3  2  1  0  0  0  0
  3  4  1  0  0  0  0
  4  5  1  0  0  0  0
  4 10  1  0  0  0  0
  5 11  1  0  0  0  0
  6  2  1  0  0  0  0
  9  4  1  0  0  0  0
 12  5  1  0  0  0  0
 13 14  1  0  0  0  0
 13 19  1  0  0  0  0
 14 20  1  0  0  0  0
 15  1  1  0  0  0  0
 15 14  2  0  0  0  0
 16 15  1  0  0  0  0
 17 16  2  0  0  0  0
 17 18  1  0  0  0  0
 18 13  2  0  0  0  0
 21 17  1  0  0  0  0
 22  3  1  0  0  0  0
 22 23  1  0  0  0  0
 25 24  1  0  0  0  0
 25 26  1  0  0  0  0
 27 26  1  0  0  0  0
 28 27  1  0  0  0  0
 28 22  1  0  0  0  0
 29 28  1  0  0  0  0
 30 25  1  0  0  0  0
 30 29  1  0  0  0  0
M  END
>  <minimizedAffinity>
-4.8825326

$$$$

 OpenBabel03242519043D

 30 32  0  0  1  0  0  0  0  0999 V2000
   37.5530   30.7370   41.2020 N   0  0  0  0  0  0  0  0  0  0  0  0
   37.9600   29.5680   41.9330 C   0  0  0  0  0  0  0  0  0  0  0  0
   37.3150   28.5170   41.0460 C   0  0  2  0  0  0  0  0  0  0  0  0
   35.9180   29.0450   40.9390 C   0  0  0  0  0  0  0  0  0  0  0  0
   36.1430   30.5460   40.8740 C   0  0  0  0  0  0  0  0  0  0  0  0
   39.0600   29.4310   41.9480 H   0  0  0  0  0  0  0  0  0  0  0  0
   37.5040   29.4850   42.9170 H   0  0  0  0  0  0  0  0  0  0  0  0
   37.7550   28.4620   40.0570 H   0  0  0  0  0  0  0  0  0  0  0  0
   35.4850   28.7400   39.9580 H   0  0  0  0  0  0  0  0  0  0  0  0
   35.2730   28.7540   41.7900 H   0  0  0  0  0  0  0  0  0  0  0  0
   35.5240   31.0040   41.6840 H   0  0  0  0  0  0  0  0  0  0  0  0
   35.9300   30.9560   39.8790 H   0  0  0  0  0  0  0  0  0  0  0  0
   38.5480   34.0950   39.9300 C   0  0  0  0  0  0  0  0  0  0  0  0
   37.7320   33.0210   40.2630 C   0  0  0  0  0  0  0  0  0  0  0  0
   38.2710   31.8740   40.8270 C   0  0  0  0  0  0  0  0  0  0  0  0
   39.6400   31.8680   41.0300 N   0  0  0  0  0  0  0  0  0  0  0  0
   40.4290   32.9160   40.7030 C   0  0  0  0  0  0  0  0  0  0  0  0
   39.8790   34.0280   40.1530 N   0  0  0  0  0  0  0  0  0  0  0  0
   38.1300   34.9900   39.4900 H   0  0  0  0  0  0  0  0  0  0  0  0
   36.6710   33.0290   40.1040 H   0  0  0  0  0  0  0  0  0  0  0  0
   41.4960   32.8310   40.8960 H   0  0  0  0  0  0  0  0  0  0  0  0
   37.2700   27.2580   41.7510 N   0  0  0  0  0  0  0  0  0  0  0  0
   36.3880   27.0610   42.2110 H   0  0  0  0  0  0  0  0  0  0  0  0
   38.3860   23.3100   43.3880 H   0  0  0  0  0  0  0  0  0  0  0  0
   38.7830   23.6730   42.4810 N   0  0  0  0  0  0  0  0  0  0  0  0
   39.2850   24.9820   42.7590 C   0  0  0  0  0  2  0  0  0  0  0  0
   39.2360   25.8180   41.4940 C   0  0  0  0  0  2  0  0  0  0  0  0
   37.8450   26.1530   41.0800 C   0  0  0  0  0  3  0  0  0  0  0  0
   36.9790   24.9420   41.4170 C   0  0  0  0  0  2  0  0  0  0  0  0
   37.8010   23.6730   41.4240 C   0  0  0  0  0  2  0  0  0  0  0  0
  1  2  1  0  0  0  0
  2  6  1  0  0  0  0
  2  7  1  0  0  0  0
  3  8  1  6  0  0  0
  3 22  1  0  0  0  0
  3  2  1  0  0  0  0
  4  3  1  0  0  0  0
  4 10  1  0  0  0  0
  5  4  1  0  0  0  0
  5  1  1  0  0  0  0
  5 11  1  0  0  0  0
  9  4  1  0  0  0  0
 12  5  1  0  0  0  0
 13 18  2  0  0  0  0
 13 14  1  0  0  0  0
 14 15  2  0  0  0  0
 15 16  1  0  0  0  0
 15  1  1  0  0  0  0
 17 21  1  0  0  0  0
 17 16  2  0  0  0  0
 18 17  1  0  0  0  0
 19 13  1  0  0  0  0
 20 14  1  0  0  0  0
 22 23  1  0  0  0  0
 25 26  1  0  0  0  0
 25 24  1  0  0  0  0
 27 26  1  0  0  0  0
 28 29  1  0  0  0  0
 28 27  1  0  0  0  0
 28 22  1  0  0  0  0
 29 30  1  0  0  0  0
 30 25  1  0  0  0  0
M  END
>  <minimizedAffinity>
-4.8726449

$$$$

 OpenBabel03242519043D

 30 32  0  0  1  0  0  0  0  0999 V2000
   38.0620   28.1370   42.4270 N   0  0  0  0  0  0  0  0  0  0  0  0
   36.9550   28.9690   42.0410 C   0  0  0  0  0  0  0  0  0  0  0  0
   37.7260   30.0010   41.2350 C   0  0  2  0  0  0  0  0  0  0  0  0
   38.8110   30.3710   42.1980 C   0  0  0  0  0  0  0  0  0  0  0  0
   39.1240   29.0390   42.8600 C   0  0  0  0  0  0  0  0  0  0  0  0
   36.2270   28.4440   41.3900 H   0  0  0  0  0  0  0  0  0  0  0  0
   36.4880   29.4920   42.8730 H   0  0  0  0  0  0  0  0  0  0  0  0
   38.1690   29.5960   40.3330 H   0  0  0  0  0  0  0  0  0  0  0  0
   39.7210   30.6700   41.6280 H   0  0  0  0  0  0  0  0  0  0  0  0
   38.5030   31.1410   42.9310 H   0  0  0  0  0  0  0  0  0  0  0  0
   39.0320   29.1940   43.9630 H   0  0  0  0  0  0  0  0  0  0  0  0
   40.1010   28.6430   42.5560 H   0  0  0  0  0  0  0  0  0  0  0  0
   37.4760   24.4720   42.0940 C   0  0  0  0  0  0  0  0  0  0  0  0
   37.2230   25.8370   42.0530 C   0  0  0  0  0  0  0  0  0  0  0  0
   38.2010   26.7470   42.4270 C   0  0  0  0  0  0  0  0  0  0  0  0
   39.4150   26.2210   42.8320 N   0  0  0  0  0  0  0  0  0  0  0  0
   39.6550   24.8910   42.8690 C   0  0  0  0  0  0  0  0  0  0  0  0
   38.6820   24.0190   42.5000 N   0  0  0  0  0  0  0  0  0  0  0  0
   36.7150   23.7610   41.8030 H   0  0  0  0  0  0  0  0  0  0  0  0
   36.2810   26.2420   41.7380 H   0  0  0  0  0  0  0  0  0  0  0  0
   40.6370   24.5600   43.2010 H   0  0  0  0  0  0  0  0  0  0  0  0
   36.8950   31.1620   41.0230 N   0  0  0  0  0  0  0  0  0  0  0  0
   36.9450   31.8600   41.7580 H   0  0  0  0  0  0  0  0  0  0  0  0
   40.3320   32.0690   38.4010 H   0  0  0  0  0  0  0  0  0  0  0  0
   39.3800   32.4920   38.2420 N   0  0  0  0  0  0  0  0  0  0  0  0
   38.9760   33.0550   39.4920 C   0  0  0  0  0  2  0  0  0  0  0  0
   37.4620   33.0570   39.5770 C   0  0  0  0  0  2  0  0  0  0  0  0
   36.8910   31.6880   39.7090 C   0  0  0  0  0  3  0  0  0  0  0  0
   37.7640   30.7610   38.8670 C   0  0  0  0  0  2  0  0  0  0  0  0
   38.4360   31.5200   37.7450 C   0  0  0  0  0  2  0  0  0  0  0  0
  1  5  1  0  0  0  0
  2  1  1  0  0  0  0
  2  7  1  0  0  0  0
  3  8  1  6  0  0  0
  3  2  1  0  0  0  0
  3  4  1  0  0  0  0
  4  5  1  0  0  0  0
  4 10  1  0  0  0  0
  5 11  1  0  0  0  0
  6  2  1  0  0  0  0
  9  4  1  0  0  0  0
 12  5  1  0  0  0  0
 13 18  1  0  0  0  0
 14 13  2  0  0  0  0
 14 15  1  0  0  0  0
 15  1  1  0  0  0  0
 15 16  2  0  0  0  0
 16 17  1  0  0  0  0
 17 21  1  0  0  0  0
 18 17  2  0  0  0  0
 19 13  1  0  0  0  0
 20 14  1  0  0  0  0
 22  3  1  0  0  0  0
 22 23  1  0  0  0  0
 25 24  1  0  0  0  0
 25 26  1  0  0  0  0
 26 27  1  0  0  0  0
 27 28  1  0  0  0  0
 28 22  1  0  0  0  0
 29 28  1  0  0  0  0
 30 25  1  0  0  0  0
 30 29  1  0  0  0  0
M  END
>  <minimizedAffinity>
-4.85523176

$$$$

 OpenBabel03242519043D

 30 32  0  0  1  0  0  0  0  0999 V2000
   37.4100   28.0230   41.8660 N   0  0  0  0  0  0  0  0  0  0  0  0
   37.0660   29.2930   41.2880 C   0  0  0  0  0  0  0  0  0  0  0  0
   38.4190   29.9710   41.4290 C   0  0  2  0  0  0  0  0  0  0  0  0
   38.7240   29.7160   42.8720 C   0  0  0  0  0  0  0  0  0  0  0  0
   38.1740   28.3140   43.0760 C   0  0  0  0  0  0  0  0  0  0  0  0
   36.7880   29.2180   40.2180 H   0  0  0  0  0  0  0  0  0  0  0  0
   36.3540   29.8660   41.8780 H   0  0  0  0  0  0  0  0  0  0  0  0
   39.1900   29.5220   40.8140 H   0  0  0  0  0  0  0  0  0  0  0  0
   39.8280   29.6530   43.0080 H   0  0  0  0  0  0  0  0  0  0  0  0
   38.2580   30.4510   43.5560 H   0  0  0  0  0  0  0  0  0  0  0  0
   37.4670   28.3620   43.9400 H   0  0  0  0  0  0  0  0  0  0  0  0
   38.9690   27.5700   43.2060 H   0  0  0  0  0  0  0  0  0  0  0  0
   36.8670   24.3390   41.7070 C   0  0  0  0  0  0  0  0  0  0  0  0
   37.1720   25.5860   42.2380 C   0  0  0  0  0  0  0  0  0  0  0  0
   37.1250   26.7220   41.4440 C   0  0  0  0  0  0  0  0  0  0  0  0
   36.7630   26.5380   40.1210 N   0  0  0  0  0  0  0  0  0  0  0  0
   36.4680   25.3230   39.6100 C   0  0  0  0  0  0  0  0  0  0  0  0
   36.5210   24.2250   40.4060 N   0  0  0  0  0  0  0  0  0  0  0  0
   36.9030   23.4520   42.3250 H   0  0  0  0  0  0  0  0  0  0  0  0
   37.4520   25.7250   43.2650 H   0  0  0  0  0  0  0  0  0  0  0  0
   36.1930   25.2650   38.5590 H   0  0  0  0  0  0  0  0  0  0  0  0
   38.2620   31.3940   41.2450 N   0  0  0  0  0  0  0  0  0  0  0  0
   37.5380   31.8190   41.8160 H   0  0  0  0  0  0  0  0  0  0  0  0
   39.7940   33.7740   37.8540 H   0  0  0  0  0  0  0  0  0  0  0  0
   40.4220   33.4410   38.6330 N   0  0  0  0  0  0  0  0  0  0  0  0
   40.1860   32.0380   38.7660 C   0  0  0  0  0  2  0  0  0  0  0  0
   40.4660   31.6150   40.1960 C   0  0  0  0  0  2  0  0  0  0  0  0
   39.4600   32.1430   41.1600 C   0  0  0  0  0  3  0  0  0  0  0  0
   39.0680   33.5350   40.6720 C   0  0  0  0  0  2  0  0  0  0  0  0
   40.1820   34.1590   39.8610 C   0  0  0  0  0  2  0  0  0  0  0  0
  1  5  1  0  0  0  0
  2  3  1  0  0  0  0
  2  1  1  0  0  0  0
  2  7  1  0  0  0  0
  3  8  1  6  0  0  0
  3  4  1  0  0  0  0
  4  9  1  0  0  0  0
  4  5  1  0  0  0  0
  4 10  1  0  0  0  0
  5 12  1  0  0  0  0
  5 11  1  0  0  0  0
  6  2  1  0  0  0  0
 13 14  1  0  0  0  0
 13 19  1  0  0  0  0
 14 20  1  0  0  0  0
 15  1  1  0  0  0  0
 15 14  2  0  0  0  0
 16 15  1  0  0  0  0
 17 16  2  0  0  0  0
 17 18  1  0  0  0  0
 18 13  2  0  0  0  0
 21 17  1  0  0  0  0
 22  3  1  0  0  0  0
 22 23  1  0  0  0  0
 24 25  1  0  0  0  0
 25 26  1  0  0  0  0
 25 30  1  0  0  0  0
 26 27  1  0  0  0  0
 27 28  1  0  0  0  0
 28 22  1  0  0  0  0
 29 28  1  0  0  0  0
 30 29  1  0  0  0  0
M  END
>  <minimizedAffinity>
-4.6276145

$$$$

 OpenBabel03242519043D

 30 32  0  0  1  0  0  0  0  0999 V2000
   37.3310   27.0120   41.8360 N   0  0  0  0  0  0  0  0  0  0  0  0
   37.0270   28.1690   41.0390 C   0  0  0  0  0  0  0  0  0  0  0  0
   37.9300   29.1660   41.7460 C   0  0  2  0  0  0  0  0  0  0  0  0
   37.5350   28.9530   43.1750 C   0  0  0  0  0  0  0  0  0  0  0  0
   37.3070   27.4520   43.2280 C   0  0  0  0  0  0  0  0  0  0  0  0
   37.3380   28.0570   39.9810 H   0  0  0  0  0  0  0  0  0  0  0  0
   36.0040   28.5220   41.1520 H   0  0  0  0  0  0  0  0  0  0  0  0
   38.9840   28.9480   41.6290 H   0  0  0  0  0  0  0  0  0  0  0  0
   38.4090   29.1710   43.8330 H   0  0  0  0  0  0  0  0  0  0  0  0
   36.6340   29.5250   43.4710 H   0  0  0  0  0  0  0  0  0  0  0  0
   36.2780   27.2920   43.6340 H   0  0  0  0  0  0  0  0  0  0  0  0
   38.0850   26.9330   43.8000 H   0  0  0  0  0  0  0  0  0  0  0  0
   37.0690   23.4740   40.6920 C   0  0  0  0  0  0  0  0  0  0  0  0
   36.6750   24.7600   41.0400 C   0  0  0  0  0  0  0  0  0  0  0  0
   37.6090   25.6950   41.4630 C   0  0  0  0  0  0  0  0  0  0  0  0
   38.9260   25.2740   41.5140 N   0  0  0  0  0  0  0  0  0  0  0  0
   39.3040   24.0220   41.1750 C   0  0  0  0  0  0  0  0  0  0  0  0
   38.3720   23.1240   40.7640 N   0  0  0  0  0  0  0  0  0  0  0  0
   36.3430   22.7450   40.3630 H   0  0  0  0  0  0  0  0  0  0  0  0
   35.6530   25.0840   40.9990 H   0  0  0  0  0  0  0  0  0  0  0  0
   40.3600   23.7710   41.2440 H   0  0  0  0  0  0  0  0  0  0  0  0
   37.5510   30.5060   41.3680 N   0  0  0  0  0  0  0  0  0  0  0  0
   37.7850   31.2220   42.0480 H   0  0  0  0  0  0  0  0  0  0  0  0
   39.5410   34.1300   39.8100 H   0  0  0  0  0  0  0  0  0  0  0  0
   38.9200   33.5280   39.2060 N   0  0  0  0  0  0  0  0  0  0  0  0
   37.6970   33.3640   39.9270 C   0  0  0  0  0  2  0  0  0  0  0  0
   37.0520   32.0490   39.5300 C   0  0  0  0  0  2  0  0  0  0  0  0
   37.8090   30.8650   40.0230 C   0  0  0  0  0  3  0  0  0  0  0  0
   39.2910   31.2240   39.9460 C   0  0  0  0  0  2  0  0  0  0  0  0
   39.5420   32.2680   38.8810 C   0  0  0  0  0  2  0  0  0  0  0  0
  1  5  1  0  0  0  0
  2  7  1  0  0  0  0
  2  3  1  0  0  0  0
  2  1  1  0  0  0  0
  3  8  1  6  0  0  0
  3  4  1  0  0  0  0
  4  5  1  0  0  0  0
  4 10  1  0  0  0  0
  4  9  1  0  0  0  0
  5 11  1  0  0  0  0
  5 12  1  0  0  0  0
  6  2  1  0  0  0  0
 13 18  2  0  0  0  0
 13 14  1  0  0  0  0
 14 15  2  0  0  0  0
 15 16  1  0  0  0  0
 15  1  1  0  0  0  0
 17 21  1  0  0  0  0
 17 16  2  0  0  0  0
 18 17  1  0  0  0  0
 19 13  1  0  0  0  0
 20 14  1  0  0  0  0
 22  3  1  0  0  0  0
 22 23  1  0  0  0  0
 25 24  1  0  0  0  0
 25 26  1  0  0  0  0
 27 26  1  0  0  0  0
 27 28  1  0  0  0  0
 28 22  1  0  0  0  0
 29 28  1  0  0  0  0
 30 25  1  0  0  0  0
 30 29  1  0  0  0  0
M  END
>  <minimizedAffinity>
-4.53184938

$$$$

 OpenBabel03242519043D

 30 32  0  0  1  0  0  0  0  0999 V2000
   37.9980   30.2340   41.3080 N   0  0  0  0  0  0  0  0  0  0  0  0
   39.0250   29.2450   41.4900 C   0  0  0  0  0  0  0  0  0  0  0  0
   38.2890   28.0530   40.9020 C   0  0  2  0  0  0  0  0  0  0  0  0
   36.9900   28.1180   41.6440 C   0  0  0  0  0  0  0  0  0  0  0  0
   36.7490   29.6150   41.7430 C   0  0  0  0  0  0  0  0  0  0  0  0
   39.9380   29.4580   40.8990 H   0  0  0  0  0  0  0  0  0  0  0  0
   39.2330   29.0140   42.5330 H   0  0  0  0  0  0  0  0  0  0  0  0
   38.1010   28.1470   39.8390 H   0  0  0  0  0  0  0  0  0  0  0  0
   36.1800   27.7020   41.0010 H   0  0  0  0  0  0  0  0  0  0  0  0
   37.0280   27.6330   42.6380 H   0  0  0  0  0  0  0  0  0  0  0  0
   36.5940   29.8500   42.8250 H   0  0  0  0  0  0  0  0  0  0  0  0
   35.9220   29.9470   41.1030 H   0  0  0  0  0  0  0  0  0  0  0  0
   37.3120   33.4600   39.5730 C   0  0  0  0  0  0  0  0  0  0  0  0
   37.1380   32.1460   39.9910 C   0  0  0  0  0  0  0  0  0  0  0  0
   38.0670   31.5420   40.8250 C   0  0  0  0  0  0  0  0  0  0  0  0
   39.1530   32.3130   41.2030 N   0  0  0  0  0  0  0  0  0  0  0  0
   39.3170   33.5900   40.7920 C   0  0  0  0  0  0  0  0  0  0  0  0
   38.3940   34.1600   39.9770 N   0  0  0  0  0  0  0  0  0  0  0  0
   36.5890   33.9320   38.9230 H   0  0  0  0  0  0  0  0  0  0  0  0
   36.2950   31.5510   39.6960 H   0  0  0  0  0  0  0  0  0  0  0  0
   40.1990   34.1260   41.1360 H   0  0  0  0  0  0  0  0  0  0  0  0
   38.9660   26.8370   41.2830 N   0  0  0  0  0  0  0  0  0  0  0  0
   39.0710   26.1570   40.5370 H   0  0  0  0  0  0  0  0  0  0  0  0
   42.0530   23.8540   42.3260 H   0  0  0  0  0  0  0  0  0  0  0  0
   41.9060   24.7290   42.8950 N   0  0  0  0  0  0  0  0  0  0  0  0
   40.5100   24.7810   43.1950 C   0  0  0  0  0  2  0  0  0  0  0  0
   40.0890   26.2280   43.3750 C   0  0  0  0  0  2  0  0  0  0  0  0
   40.1110   26.9970   42.1000 C   0  0  0  0  0  3  0  0  0  0  0  0
   41.2980   26.4770   41.2920 C   0  0  0  0  0  2  0  0  0  0  0  0
   42.3640   25.9070   42.1990 C   0  0  0  0  0  2  0  0  0  0  0  0
  1  2  1  0  0  0  0
  1  5  1  0  0  0  0
  2  7  1  0  0  0  0
  3  8  1  6  0  0  0
  3 22  1  0  0  0  0
  3  2  1  0  0  0  0
  3  4  1  0  0  0  0
  4  5  1  0  0  0  0
  4 10  1  0  0  0  0
  5 11  1  0  0  0  0
  6  2  1  0  0  0  0
  9  4  1  0  0  0  0
 12  5  1  0  0  0  0
 13 18  2  0  0  0  0
 13 14  1  0  0  0  0
 14 15  2  0  0  0  0
 15 16  1  0  0  0  0
 15  1  1  0  0  0  0
 17 21  1  0  0  0  0
 17 16  2  0  0  0  0
 18 17  1  0  0  0  0
 19 13  1  0  0  0  0
 20 14  1  0  0  0  0
 22 28  1  0  0  0  0
 23 22  1  0  0  0  0
 24 25  1  0  0  0  0
 25 26  1  0  0  0  0
 26 27  1  0  0  0  0
 28 27  1  0  0  0  0
 29 28  1  0  0  0  0
 29 30  1  0  0  0  0
 30 25  1  0  0  0  0
M  END
>  <minimizedAffinity>
-4.51908302

$$$$

 OpenBabel03242519043D

 30 32  0  0  1  0  0  0  0  0999 V2000
   37.0870   27.4640   40.3860 N   0  0  0  0  0  0  0  0  0  0  0  0
   37.7940   28.6950   40.6160 C   0  0  0  0  0  0  0  0  0  0  0  0
   36.6530   29.4940   41.2220 C   0  0  2  0  0  0  0  0  0  0  0  0
   35.5740   29.2760   40.2060 C   0  0  0  0  0  0  0  0  0  0  0  0
   35.8040   27.8310   39.7950 C   0  0  0  0  0  0  0  0  0  0  0  0
   38.6170   28.5880   41.3520 H   0  0  0  0  0  0  0  0  0  0  0  0
   38.0970   29.2040   39.7040 H   0  0  0  0  0  0  0  0  0  0  0  0
   36.3240   29.1130   42.1820 H   0  0  0  0  0  0  0  0  0  0  0  0
   34.5810   29.3150   40.7120 H   0  0  0  0  0  0  0  0  0  0  0  0
   35.6350   29.9710   39.3470 H   0  0  0  0  0  0  0  0  0  0  0  0
   35.9080   27.8210   38.6820 H   0  0  0  0  0  0  0  0  0  0  0  0
   35.0160   27.1640   40.1640 H   0  0  0  0  0  0  0  0  0  0  0  0
   37.6080   24.1160   41.9370 C   0  0  0  0  0  0  0  0  0  0  0  0
   37.1920   25.4350   41.8000 C   0  0  0  0  0  0  0  0  0  0  0  0
   37.4560   26.1410   40.6360 C   0  0  0  0  0  0  0  0  0  0  0  0
   38.1440   25.4640   39.6440 N   0  0  0  0  0  0  0  0  0  0  0  0
   38.5470   24.1820   39.7830 C   0  0  0  0  0  0  0  0  0  0  0  0
   38.2770   23.5110   40.9320 N   0  0  0  0  0  0  0  0  0  0  0  0
   37.4030   23.5640   42.8440 H   0  0  0  0  0  0  0  0  0  0  0  0
   36.6580   25.9560   42.5710 H   0  0  0  0  0  0  0  0  0  0  0  0
   39.0830   23.7230   38.9550 H   0  0  0  0  0  0  0  0  0  0  0  0
   36.9970   30.8950   41.2220 N   0  0  0  0  0  0  0  0  0  0  0  0
   37.1050   31.3060   42.1430 H   0  0  0  0  0  0  0  0  0  0  0  0
   38.5220   34.9520   40.3630 H   0  0  0  0  0  0  0  0  0  0  0  0
   38.6330   34.1560   39.6810 N   0  0  0  0  0  0  0  0  0  0  0  0
   37.3330   33.5850   39.5150 C   0  0  0  0  0  2  0  0  0  0  0  0
   37.4710   32.1180   39.1510 C   0  0  0  0  0  2  0  0  0  0  0  0
   37.9780   31.2910   40.2810 C   0  0  0  0  0  3  0  0  0  0  0  0
   38.9860   32.1500   41.0410 C   0  0  0  0  0  2  0  0  0  0  0  0
   39.6050   33.1900   40.1340 C   0  0  0  0  0  2  0  0  0  0  0  0
  1  2  1  0  0  0  0
  1 15  1  0  0  0  0
  2  3  1  0  0  0  0
  2  6  1  0  0  0  0
  3 22  1  0  0  0  0
  3  8  1  1  0  0  0
  4  9  1  0  0  0  0
  4  3  1  0  0  0  0
  5 12  1  0  0  0  0
  5  4  1  0  0  0  0
  5  1  1  0  0  0  0
  7  2  1  0  0  0  0
 10  4  1  0  0  0  0
 11  5  1  0  0  0  0
 13 19  1  0  0  0  0
 14 13  1  0  0  0  0
 14 20  1  0  0  0  0
 15 14  2  0  0  0  0
 16 17  2  0  0  0  0
 16 15  1  0  0  0  0
 17 18  1  0  0  0  0
 18 13  2  0  0  0  0
 21 17  1  0  0  0  0
 22 23  1  0  0  0  0
 25 30  1  0  0  0  0
 25 24  1  0  0  0  0
 26 25  1  0  0  0  0
 27 26  1  0  0  0  0
 27 28  1  0  0  0  0
 28 29  1  0  0  0  0
 28 22  1  0  0  0  0
 30 29  1  0  0  0  0
M  END
>  <minimizedAffinity>
-4.43825865

$$$$

 OpenBabel03242519043D

 30 32  0  0  1  0  0  0  0  0999 V2000
   39.6150   29.5320   42.5850 N   0  0  0  0  0  0  0  0  0  0  0  0
   39.4050   30.9270   42.3110 C   0  0  0  0  0  0  0  0  0  0  0  0
   40.5100   31.1180   41.2850 C   0  0  2  0  0  0  0  0  0  0  0  0
   41.6820   30.5290   42.0070 C   0  0  0  0  0  0  0  0  0  0  0  0
   41.0550   29.3540   42.7380 C   0  0  0  0  0  0  0  0  0  0  0  0
   38.4180   31.1330   41.8510 H   0  0  0  0  0  0  0  0  0  0  0  0
   39.6300   31.5780   43.1530 H   0  0  0  0  0  0  0  0  0  0  0  0
   40.3410   30.5680   40.3660 H   0  0  0  0  0  0  0  0  0  0  0  0
   42.3950   30.1050   41.2630 H   0  0  0  0  0  0  0  0  0  0  0  0
   42.1720   31.2400   42.7000 H   0  0  0  0  0  0  0  0  0  0  0  0
   41.3150   29.4650   43.8190 H   0  0  0  0  0  0  0  0  0  0  0  0
   41.3620   28.3890   42.3140 H   0  0  0  0  0  0  0  0  0  0  0  0
   36.6560   27.4200   43.4100 C   0  0  0  0  0  0  0  0  0  0  0  0
   37.4830   28.5360   43.3580 C   0  0  0  0  0  0  0  0  0  0  0  0
   38.7040   28.4790   42.7030 C   0  0  0  0  0  0  0  0  0  0  0  0
   39.0380   27.2700   42.1190 N   0  0  0  0  0  0  0  0  0  0  0  0
   38.2300   26.1880   42.1730 C   0  0  0  0  0  0  0  0  0  0  0  0
   37.0390   26.2670   42.8200 N   0  0  0  0  0  0  0  0  0  0  0  0
   35.7040   27.4630   43.9200 H   0  0  0  0  0  0  0  0  0  0  0  0
   37.2210   29.4720   43.8110 H   0  0  0  0  0  0  0  0  0  0  0  0
   38.5670   25.2740   41.6880 H   0  0  0  0  0  0  0  0  0  0  0  0
   40.7540   32.5280   41.1010 N   0  0  0  0  0  0  0  0  0  0  0  0
   41.7170   32.8150   41.2430 H   0  0  0  0  0  0  0  0  0  0  0  0
   41.8060   32.1980   36.8240 H   0  0  0  0  0  0  0  0  0  0  0  0
   41.2060   32.9820   37.1930 N   0  0  0  0  0  0  0  0  0  0  0  0
   41.9180   33.5470   38.2960 C   0  0  0  0  0  2  0  0  0  0  0  0
   40.9300   34.1530   39.2750 C   0  0  0  0  0  2  0  0  0  0  0  0
   40.1200   33.1250   39.9850 C   0  0  0  0  0  3  0  0  0  0  0  0
   39.8530   32.0030   38.9850 C   0  0  0  0  0  2  0  0  0  0  0  0
   39.8900   32.5220   37.5650 C   0  0  0  0  0  2  0  0  0  0  0  0
  1 15  1  0  0  0  0
  1  5  1  0  0  0  0
  2  1  1  0  0  0  0
  2  7  1  0  0  0  0
  3  8  1  6  0  0  0
  3  4  1  0  0  0  0
  3  2  1  0  0  0  0
  4 10  1  0  0  0  0
  4  5  1  0  0  0  0
  5 11  1  0  0  0  0
  6  2  1  0  0  0  0
  9  4  1  0  0  0  0
 12  5  1  0  0  0  0
 13 19  1  0  0  0  0
 14 13  1  0  0  0  0
 14 20  1  0  0  0  0
 15 14  2  0  0  0  0
 16 17  2  0  0  0  0
 16 15  1  0  0  0  0
 17 18  1  0  0  0  0
 18 13  2  0  0  0  0
 21 17  1  0  0  0  0
 22 23  1  0  0  0  0
 22  3  1  0  0  0  0
 24 25  1  0  0  0  0
 25 30  1  0  0  0  0
 25 26  1  0  0  0  0
 26 27  1  0  0  0  0
 27 28  1  0  0  0  0
 28 22  1  0  0  0  0
 29 28  1  0  0  0  0
 30 29  1  0  0  0  0
M  END
>  <minimizedAffinity>
-4.31988001

$$$$
