
 OpenBabel03242519043D

 30 32  0  0  1  0  0  0  0  0999 V2000
   47.3750   34.3000   42.3090 N   0  0  0  0  0  0  0  0  0  0  0  0
   47.9740   35.0560   41.2430 C   0  0  0  0  0  0  0  0  0  0  0  0
   47.8530   34.0150   40.1420 C   0  0  2  0  0  0  0  0  0  0  0  0
   48.4470   32.8140   40.8100 C   0  0  0  0  0  0  0  0  0  0  0  0
   47.9510   32.9610   42.2390 C   0  0  0  0  0  0  0  0  0  0  0  0
   47.3920   35.9610   40.9770 H   0  0  0  0  0  0  0  0  0  0  0  0
   49.0340   35.2530   41.3860 H   0  0  0  0  0  0  0  0  0  0  0  0
   46.8270   33.8010   39.8650 H   0  0  0  0  0  0  0  0  0  0  0  0
   47.9740   31.8930   40.3970 H   0  0  0  0  0  0  0  0  0  0  0  0
   49.5520   32.7810   40.7510 H   0  0  0  0  0  0  0  0  0  0  0  0
   48.8510   32.9250   42.9020 H   0  0  0  0  0  0  0  0  0  0  0  0
   47.1930   32.2110   42.4950 H   0  0  0  0  0  0  0  0  0  0  0  0
   44.6650   36.0230   44.2010 C   0  0  0  0  0  0  0  0  0  0  0  0
   45.5670   35.7520   43.1800 C   0  0  0  0  0  0  0  0  0  0  0  0
   46.4300   34.6690   43.2690 C   0  0  0  0  0  0  0  0  0  0  0  0
   46.3360   33.8950   44.4130 N   0  0  0  0  0  0  0  0  0  0  0  0
   45.4570   34.1640   45.4030 C   0  0  0  0  0  0  0  0  0  0  0  0
   44.6220   35.2290   45.2940 N   0  0  0  0  0  0  0  0  0  0  0  0
   43.9920   36.8660   44.1340 H   0  0  0  0  0  0  0  0  0  0  0  0
   45.6380   36.3540   42.2950 H   0  0  0  0  0  0  0  0  0  0  0  0
   45.4470   33.5060   46.2690 H   0  0  0  0  0  0  0  0  0  0  0  0
   48.7050   34.3860   39.0380 N   0  0  0  0  0  0  0  0  0  0  0  0
   49.6600   34.0490   39.1060 H   0  0  0  0  0  0  0  0  0  0  0  0
   47.0730   30.7960   37.0500 H   0  0  0  0  0  0  0  0  0  0  0  0
   47.3560   31.6540   36.5100 N   0  0  0  0  0  0  0  0  0  0  0  0
   48.6850   31.9730   36.9310 C   0  0  0  0  0  2  0  0  0  0  0  0
   48.9170   33.4640   36.7770 C   0  0  0  0  0  2  0  0  0  0  0  0
   48.1320   34.2730   37.7490 C   0  0  0  0  0  3  0  0  0  0  0  0
   46.7910   33.5650   37.9330 C   0  0  0  0  0  2  0  0  0  0  0  0
   46.4380   32.7480   36.7100 C   0  0  0  0  0  2  0  0  0  0  0  0
  1 15  1  0  0  0  0
  2  7  1  0  0  0  0
  2  1  1  0  0  0  0
  3  8  1  6  0  0  0
  3  4  1  0  0  0  0
  3  2  1  0  0  0  0
  4  5  1  0  0  0  0
  5  1  1  0  0  0  0
  5 12  1  0  0  0  0
  5 11  1  0  0  0  0
  6  2  1  0  0  0  0
  9  4  1  0  0  0  0
 10  4  1  0  0  0  0
 13 18  1  0  0  0  0
 14 15  1  0  0  0  0
 14 13  2  0  0  0  0
 15 16  2  0  0  0  0
 16 17  1  0  0  0  0
 17 21  1  0  0  0  0
 18 17  2  0  0  0  0
 19 13  1  0  0  0  0
 20 14  1  0  0  0  0
 22 23  1  0  0  0  0
 22  3  1  0  0  0  0
 25 30  1  0  0  0  0
 25 26  1  0  0  0  0
 25 24  1  0  0  0  0
 27 26  1  0  0  0  0
 27 28  1  0  0  0  0
 28 29  1  0  0  0  0
 28 22  1  0  0  0  0
 30 29  1  0  0  0  0
M  END
>  <minimizedAffinity>
-4.80394983

>  <minimizedRMSD>
0.849728286

$$$$
