
 OpenBabel03242519033D

 30 32  0  0  1  0  0  0  0  0999 V2000
   47.5570   33.8730   42.7500 N   0  0  0  0  0  0  0  0  0  0  0  0
   48.1750   34.2580   41.5110 C   0  0  0  0  0  0  0  0  0  0  0  0
   48.2110   32.8900   40.8500 C   0  0  2  0  0  0  0  0  0  0  0  0
   48.8410   32.0620   41.9280 C   0  0  0  0  0  0  0  0  0  0  0  0
   48.2320   32.6560   43.1880 C   0  0  0  0  0  0  0  0  0  0  0  0
   47.5500   34.9520   40.9150 H   0  0  0  0  0  0  0  0  0  0  0  0
   49.2050   34.5920   41.6200 H   0  0  0  0  0  0  0  0  0  0  0  0
   47.2280   32.4970   40.6240 H   0  0  0  0  0  0  0  0  0  0  0  0
   48.4670   31.0150   41.8500 H   0  0  0  0  0  0  0  0  0  0  0  0
   49.9460   32.1150   41.9320 H   0  0  0  0  0  0  0  0  0  0  0  0
   49.0810   32.9400   43.8570 H   0  0  0  0  0  0  0  0  0  0  0  0
   47.5130   31.9760   43.6620 H   0  0  0  0  0  0  0  0  0  0  0  0
   44.7590   36.0650   43.8720 C   0  0  0  0  0  0  0  0  0  0  0  0
   45.7710   35.5600   43.0650 C   0  0  0  0  0  0  0  0  0  0  0  0
   46.5190   34.4660   43.4740 C   0  0  0  0  0  0  0  0  0  0  0  0
   46.2010   33.9230   44.7070 N   0  0  0  0  0  0  0  0  0  0  0  0
   45.2160   34.4190   45.4870 C   0  0  0  0  0  0  0  0  0  0  0  0
   44.4970   35.4910   45.0670 N   0  0  0  0  0  0  0  0  0  0  0  0
   44.1750   36.9180   43.5560 H   0  0  0  0  0  0  0  0  0  0  0  0
   46.0150   35.9820   42.1100 H   0  0  0  0  0  0  0  0  0  0  0  0
   45.0290   33.9340   46.4430 H   0  0  0  0  0  0  0  0  0  0  0  0
   49.1130   32.9260   39.7240 N   0  0  0  0  0  0  0  0  0  0  0  0
   50.0980   32.9120   39.9680 H   0  0  0  0  0  0  0  0  0  0  0  0
   49.9290   33.5620   35.4290 H   0  0  0  0  0  0  0  0  0  0  0  0
   49.1810   32.9000   35.7650 N   0  0  0  0  0  0  0  0  0  0  0  0
   48.3780   33.6380   36.6890 C   0  0  0  0  0  2  0  0  0  0  0  0
   47.7620   32.6840   37.6940 C   0  0  0  0  0  2  0  0  0  0  0  0
   48.7660   32.1030   38.6260 C   0  0  0  0  0  3  0  0  0  0  0  0
   50.0460   31.8920   37.8220 C   0  0  0  0  0  2  0  0  0  0  0  0
   49.7390   31.7070   36.3520 C   0  0  0  0  0  2  0  0  0  0  0  0
  1  5  1  0  0  0  0
  1 15  1  0  0  0  0
  2  7  1  0  0  0  0
  2  1  1  0  0  0  0
  3  8  1  6  0  0  0
  3  2  1  0  0  0  0
  3  4  1  0  0  0  0
  4 10  1  0  0  0  0
  4  5  1  0  0  0  0
  5 12  1  0  0  0  0
  5 11  1  0  0  0  0
  6  2  1  0  0  0  0
  9  4  1  0  0  0  0
 13 18  1  0  0  0  0
 14 15  1  0  0  0  0
 14 13  2  0  0  0  0
 15 16  2  0  0  0  0
 16 17  1  0  0  0  0
 17 21  1  0  0  0  0
 18 17  2  0  0  0  0
 19 13  1  0  0  0  0
 20 14  1  0  0  0  0
 22 23  1  0  0  0  0
 22  3  1  0  0  0  0
 24 25  1  0  0  0  0
 25 30  1  0  0  0  0
 25 26  1  0  0  0  0
 26 27  1  0  0  0  0
 27 28  1  0  0  0  0
 28 22  1  0  0  0  0
 29 28  1  0  0  0  0
 30 29  1  0  0  0  0
M  END
>  <minimizedAffinity>
-4.61416054

>  <minimizedRMSD>
1.48524499

$$$$
