
 OpenBabel03242513453D

 44 47  0  0  0  0  0  0  0  0999 V2000
   40.8820   31.6320   40.6690 C   0  0  0  0  0  0  0  0  0  0  0  0
   40.8900   30.8870   41.8330 C   0  0  0  0  0  0  0  0  0  0  0  0
   41.8230   31.1830   42.7820 C   0  0  0  0  0  0  0  0  0  0  0  0
   42.7550   32.1900   42.6340 C   0  0  0  0  0  0  0  0  0  0  0  0
   43.7720   32.7200   43.3570 N   0  0  0  0  0  0  0  0  0  0  0  0
   44.3510   33.7400   42.6590 C   0  0  0  0  0  0  0  0  0  0  0  0
   43.6820   33.8380   41.4940 N   0  0  0  0  0  0  0  0  0  0  0  0
   42.7170   32.9080   41.4690 C   0  0  0  0  0  0  0  0  0  0  0  0
   41.8140   32.6690   40.4750 C   0  0  0  0  0  0  0  0  0  0  0  0
   40.1640   31.4350   39.8870 H   0  0  0  0  0  0  0  0  0  0  0  0
   41.8430   30.6080   43.6990 H   0  0  0  0  0  0  0  0  0  0  0  0
   44.0160   32.3430   44.3090 H   0  0  0  0  0  0  0  0  0  0  0  0
   45.1930   34.3340   43.0210 H   0  0  0  0  0  0  0  0  0  0  0  0
   39.1100   27.7180   41.4580 C   0  0  0  0  0  0  0  0  0  0  0  0
   38.0730   27.8260   42.4170 C   0  0  0  0  0  0  0  0  0  0  0  0
   38.0330   29.0250   43.1740 C   0  0  0  0  0  0  0  0  0  0  0  0
   38.9490   29.9910   42.9660 N   0  0  0  0  0  0  0  0  0  0  0  0
   39.9150   29.8090   42.0240 C   0  0  0  0  0  0  0  0  0  0  0  0
   40.0080   28.7040   41.2790 N   0  0  0  0  0  0  0  0  0  0  0  0
   39.2470   26.8580   40.8250 H   0  0  0  0  0  0  0  0  0  0  0  0
   37.2460   29.0940   43.8900 H   0  0  0  0  0  0  0  0  0  0  0  0
   37.1290   26.7010   42.5460 C   0  0  0  0  0  0  0  0  0  0  0  0
   36.4870   26.6270   41.3330 F   0  0  0  0  0  0  0  0  0  0  0  0
   36.2460   26.9890   43.5340 F   0  0  0  0  0  0  0  0  0  0  0  0
   37.8740   25.5510   42.8230 F   0  0  0  0  0  0  0  0  0  0  0  0
   41.8120   33.4210   39.3100 O   0  0  0  0  0  0  0  0  0  0  0  0
   43.5220   32.1530   37.8370 O   0  0  0  0  0  0  0  0  0  0  0  0
   42.1650   32.8380   37.7750 P   0  0  2  0  0  0  0  0  0  0  0  0
   42.3320   34.1890   36.7450 O   0  0  0  0  0  0  0  0  0  0  0  0
   43.2270   34.6050   36.8600 H   0  0  0  0  0  0  0  0  0  0  0  0
   41.0220   31.7920   37.1630 O   0  0  0  0  0  0  0  0  0  0  0  0
   39.7120   32.1860   37.3450 C   0  0  0  0  0  0  0  0  0  0  0  0
   39.2970   32.7750   36.5480 H   0  0  0  0  0  0  0  0  0  0  0  0
   39.7470   32.8790   38.2450 H   0  0  0  0  0  0  0  0  0  0  0  0
   38.9350   30.9860   37.8080 C   0  0  0  0  0  0  0  0  0  0  0  0
   38.9780   30.1800   37.0320 H   0  0  0  0  0  0  0  0  0  0  0  0
   39.2990   30.5620   38.7400 H   0  0  0  0  0  0  0  0  0  0  0  0
   37.5310   31.2970   37.9660 N   0  0  0  0  0  0  0  0  0  0  0  0
   37.3010   32.2750   38.9950 C   0  0  0  0  0  2  0  0  0  0  0  0
   37.2180   31.7930   40.3890 C   0  0  0  0  0  2  0  0  0  0  0  0
   36.0960   30.7470   40.4490 C   0  0  0  0  0  3  0  0  0  0  0  0
   35.9510   30.3560   41.4640 H   0  0  0  0  0  0  0  0  0  0  0  0
   36.5620   29.6490   39.5430 C   0  0  0  0  0  2  0  0  0  0  0  0
   36.7060   30.1310   38.1150 C   0  0  0  0  0  2  0  0  0  0  0  0
  1  2  1  0  0  0  0
  2 18  1  0  0  0  0
  2  3  2  0  0  0  0
  3 11  1  0  0  0  0
  4  3  1  0  0  0  0
  4  5  1  0  0  0  0
  5 12  1  0  0  0  0
  6 13  1  0  0  0  0
  6  5  1  0  0  0  0
  7  6  2  0  0  0  0
  8  7  1  0  0  0  0
  8  4  2  0  0  0  0
  9  1  2  0  0  0  0
  9  8  1  0  0  0  0
 10  1  1  0  0  0  0
 14 15  1  0  0  0  0
 15 22  1  0  0  0  0
 15 16  2  0  0  0  0
 16 21  1  0  0  0  0
 17 16  1  0  0  0  0
 18 17  2  0  0  0  0
 19 14  2  0  0  0  0
 19 18  1  0  0  0  0
 20 14  1  0  0  0  0
 22 25  1  0  0  0  0
 22 24  1  0  0  0  0
 23 22  1  0  0  0  0
 26  9  1  0  0  0  0
 28 27  2  1  0  0  0
 28 26  1  0  0  0  0
 29 30  1  0  0  0  0
 29 28  1  0  0  0  0
 31 32  1  0  0  0  0
 31 28  1  0  0  0  0
 32 35  1  0  0  0  0
 32 34  1  0  0  0  0
 33 32  1  0  0  0  0
 35 38  1  0  0  0  0
 35 37  1  0  0  0  0
 36 35  1  0  0  0  0
 38 44  1  0  0  0  0
 38 39  1  0  0  0  0
 39 40  1  0  0  0  0
 40 41  1  0  0  0  0
 41 42  1  0  0  0  0
 43 41  1  0  0  0  0
 44 43  1  0  0  0  0
M  END
>  <minimizedAffinity>
-6.59644985

$$$$

 OpenBabel03242513453D

 44 47  0  0  0  0  0  0  0  0999 V2000
   38.6340   30.7930   39.5730 C   0  0  0  0  0  0  0  0  0  0  0  0
   37.4140   31.2120   39.0780 C   0  0  0  0  0  0  0  0  0  0  0  0
   37.1080   32.5390   39.1560 C   0  0  0  0  0  0  0  0  0  0  0  0
   37.9600   33.4770   39.7020 C   0  0  0  0  0  0  0  0  0  0  0  0
   37.9590   34.8160   39.9190 N   0  0  0  0  0  0  0  0  0  0  0  0
   39.1280   35.1850   40.5180 C   0  0  0  0  0  0  0  0  0  0  0  0
   39.8550   34.0620   40.6710 N   0  0  0  0  0  0  0  0  0  0  0  0
   39.1600   33.0270   40.1820 C   0  0  0  0  0  0  0  0  0  0  0  0
   39.5330   31.7150   40.1400 C   0  0  0  0  0  0  0  0  0  0  0  0
   38.9220   29.7520   39.5360 H   0  0  0  0  0  0  0  0  0  0  0  0
   36.1560   32.8830   38.7730 H   0  0  0  0  0  0  0  0  0  0  0  0
   37.1380   35.4120   39.6370 H   0  0  0  0  0  0  0  0  0  0  0  0
   39.3800   36.2110   40.7980 H   0  0  0  0  0  0  0  0  0  0  0  0
   35.7480   29.0320   36.6650 C   0  0  0  0  0  0  0  0  0  0  0  0
   34.7250   28.4310   37.4400 C   0  0  0  0  0  0  0  0  0  0  0  0
   34.6550   28.8170   38.8030 C   0  0  0  0  0  0  0  0  0  0  0  0
   35.5300   29.7110   39.3030 N   0  0  0  0  0  0  0  0  0  0  0  0
   36.4840   30.2430   38.4910 C   0  0  0  0  0  0  0  0  0  0  0  0
   36.6050   29.9210   37.2000 N   0  0  0  0  0  0  0  0  0  0  0  0
   35.9050   28.8190   35.6220 H   0  0  0  0  0  0  0  0  0  0  0  0
   33.8790   28.3590   39.3740 H   0  0  0  0  0  0  0  0  0  0  0  0
   33.8270   27.4700   36.7750 C   0  0  0  0  0  0  0  0  0  0  0  0
   33.8890   26.3290   37.5390 F   0  0  0  0  0  0  0  0  0  0  0  0
   34.2980   27.2320   35.5260 F   0  0  0  0  0  0  0  0  0  0  0  0
   32.5460   28.0290   36.7580 F   0  0  0  0  0  0  0  0  0  0  0  0
   40.7600   31.3010   40.6380 O   0  0  0  0  0  0  0  0  0  0  0  0
   39.7250   30.8090   42.9590 O   0  0  0  0  0  0  0  0  0  0  0  0
   41.0530   30.8120   42.2180 P   0  0  2  0  0  0  0  0  0  0  0  0
   42.0300   32.0080   42.9450 O   0  0  0  0  0  0  0  0  0  0  0  0
   41.4790   32.7870   43.2230 H   0  0  0  0  0  0  0  0  0  0  0  0
   41.7850   29.3210   42.3470 O   0  0  0  0  0  0  0  0  0  0  0  0
   41.0240   28.3480   42.9600 C   0  0  0  0  0  0  0  0  0  0  0  0
   40.5120   28.6620   43.8510 H   0  0  0  0  0  0  0  0  0  0  0  0
   41.7790   27.5710   43.3050 H   0  0  0  0  0  0  0  0  0  0  0  0
   40.2180   27.6600   41.8940 C   0  0  0  0  0  0  0  0  0  0  0  0
   39.5990   28.4100   41.3390 H   0  0  0  0  0  0  0  0  0  0  0  0
   40.8220   27.1290   41.1630 H   0  0  0  0  0  0  0  0  0  0  0  0
   39.2730   26.7270   42.4690 N   0  0  0  0  0  0  0  0  0  0  0  0
   38.2070   26.3990   41.5620 C   0  0  0  0  0  2  0  0  0  0  0  0
   37.0560   27.3240   41.4980 C   0  0  0  0  0  2  0  0  0  0  0  0
   36.4760   27.4340   42.9140 C   0  0  0  0  0  3  0  0  0  0  0  0
   35.5940   28.0870   42.9480 H   0  0  0  0  0  0  0  0  0  0  0  0
   37.5840   28.0330   43.7260 C   0  0  0  0  0  2  0  0  0  0  0  0
   38.7960   27.1280   43.7630 C   0  0  0  0  0  2  0  0  0  0  0  0
  1  9  1  0  0  0  0
  2  3  1  0  0  0  0
  2  1  2  0  0  0  0
  3  4  2  0  0  0  0
  4  5  1  0  0  0  0
  4  8  1  0  0  0  0
  5  6  1  0  0  0  0
  6  7  2  0  0  0  0
  6 13  1  0  0  0  0
  8  7  1  0  0  0  0
  9  8  2  0  0  0  0
  9 26  1  0  0  0  0
 10  1  1  0  0  0  0
 11  3  1  0  0  0  0
 12  5  1  0  0  0  0
 14 19  2  0  0  0  0
 14 15  1  0  0  0  0
 15 16  2  0  0  0  0
 16 17  1  0  0  0  0
 16 21  1  0  0  0  0
 18  2  1  0  0  0  0
 18 17  2  0  0  0  0
 19 18  1  0  0  0  0
 20 14  1  0  0  0  0
 22 15  1  0  0  0  0
 22 23  1  0  0  0  0
 24 22  1  0  0  0  0
 25 22  1  0  0  0  0
 26 28  1  0  0  0  0
 28 31  1  0  0  0  0
 28 29  1  0  0  0  0
 28 27  2  1  0  0  0
 29 30  1  0  0  0  0
 31 32  1  0  0  0  0
 32 34  1  0  0  0  0
 32 33  1  0  0  0  0
 35 38  1  0  0  0  0
 35 32  1  0  0  0  0
 36 35  1  0  0  0  0
 37 35  1  0  0  0  0
 38 44  1  0  0  0  0
 39 38  1  0  0  0  0
 40 39  1  0  0  0  0
 40 41  1  0  0  0  0
 41 42  1  0  0  0  0
 41 43  1  0  0  0  0
 43 44  1  0  0  0  0
M  END
>  <minimizedAffinity>
-6.32050467

$$$$

 OpenBabel03242513453D

 44 47  0  0  0  0  0  0  0  0999 V2000
   40.6530   31.0300   41.3350 C   0  0  0  0  0  0  0  0  0  0  0  0
   40.8800   29.9790   42.2030 C   0  0  0  0  0  0  0  0  0  0  0  0
   41.9220   30.0780   43.0780 C   0  0  0  0  0  0  0  0  0  0  0  0
   42.7540   31.1780   43.1360 C   0  0  0  0  0  0  0  0  0  0  0  0
   43.8300   31.5740   43.8600 N   0  0  0  0  0  0  0  0  0  0  0  0
   44.2320   32.8110   43.4460 C   0  0  0  0  0  0  0  0  0  0  0  0
   43.3940   33.1780   42.4570 N   0  0  0  0  0  0  0  0  0  0  0  0
   42.4990   32.2000   42.2630 C   0  0  0  0  0  0  0  0  0  0  0  0
   41.4780   32.1710   41.3600 C   0  0  0  0  0  0  0  0  0  0  0  0
   39.8420   30.9990   40.6220 H   0  0  0  0  0  0  0  0  0  0  0  0
   42.1130   29.2630   43.7640 H   0  0  0  0  0  0  0  0  0  0  0  0
   44.2350   30.9600   44.6130 H   0  0  0  0  0  0  0  0  0  0  0  0
   45.0780   33.3580   43.8700 H   0  0  0  0  0  0  0  0  0  0  0  0
   38.1050   27.6950   42.8560 C   0  0  0  0  0  0  0  0  0  0  0  0
   38.4390   26.5630   42.0720 C   0  0  0  0  0  0  0  0  0  0  0  0
   39.6440   26.6420   41.3290 C   0  0  0  0  0  0  0  0  0  0  0  0
   40.4090   27.7500   41.3890 N   0  0  0  0  0  0  0  0  0  0  0  0
   40.0170   28.7950   42.1680 C   0  0  0  0  0  0  0  0  0  0  0  0
   38.8930   28.7850   42.8910 N   0  0  0  0  0  0  0  0  0  0  0  0
   37.2160   27.7570   43.4610 H   0  0  0  0  0  0  0  0  0  0  0  0
   39.8850   25.7830   40.7450 H   0  0  0  0  0  0  0  0  0  0  0  0
   37.5210   25.4100   42.0950 C   0  0  0  0  0  0  0  0  0  0  0  0
   36.4410   25.8220   42.8370 F   0  0  0  0  0  0  0  0  0  0  0  0
   38.1470   24.3720   42.7020 F   0  0  0  0  0  0  0  0  0  0  0  0
   37.1750   25.1160   40.7730 F   0  0  0  0  0  0  0  0  0  0  0  0
   41.2550   33.2300   40.4920 O   0  0  0  0  0  0  0  0  0  0  0  0
   39.9830   35.2850   39.5620 O   0  0  0  0  0  0  0  0  0  0  0  0
   39.7550   33.8930   40.1320 P   0  0  2  0  0  0  0  0  0  0  0  0
   38.9190   34.0860   41.6070 O   0  0  0  0  0  0  0  0  0  0  0  0
   39.2330   34.9010   42.0810 H   0  0  0  0  0  0  0  0  0  0  0  0
   38.8430   32.9830   39.0740 O   0  0  0  0  0  0  0  0  0  0  0  0
   37.5010   32.8980   39.3840 C   0  0  0  0  0  0  0  0  0  0  0  0
   36.9170   33.7630   39.1260 H   0  0  0  0  0  0  0  0  0  0  0  0
   37.4740   32.8450   40.5200 H   0  0  0  0  0  0  0  0  0  0  0  0
   37.0100   31.5560   38.9200 C   0  0  0  0  0  0  0  0  0  0  0  0
   35.8960   31.5730   38.8110 H   0  0  0  0  0  0  0  0  0  0  0  0
   37.4270   31.2430   37.9660 H   0  0  0  0  0  0  0  0  0  0  0  0
   37.2900   30.5260   39.8980 N   0  0  0  0  0  0  0  0  0  0  0  0
   37.7580   29.3100   39.2930 C   0  0  0  0  0  2  0  0  0  0  0  0
   36.7420   28.3660   38.7810 C   0  0  0  0  0  2  0  0  0  0  0  0
   35.8180   28.0050   39.9520 C   0  0  0  0  0  3  0  0  0  0  0  0
   35.0450   27.2820   39.6600 H   0  0  0  0  0  0  0  0  0  0  0  0
   35.1790   29.3050   40.3370 C   0  0  0  0  0  2  0  0  0  0  0  0
   36.2060   30.3080   40.8150 C   0  0  0  0  0  2  0  0  0  0  0  0
  1  9  2  0  0  0  0
  1  2  1  0  0  0  0
  2  3  2  0  0  0  0
  3  4  1  0  0  0  0
  3 11  1  0  0  0  0
  4  5  1  0  0  0  0
  5 12  1  0  0  0  0
  6  5  1  0  0  0  0
  6 13  1  0  0  0  0
  7  6  2  0  0  0  0
  8  7  1  0  0  0  0
  8  4  2  0  0  0  0
  9  8  1  0  0  0  0
 10  1  1  0  0  0  0
 14 19  1  0  0  0  0
 14 20  1  0  0  0  0
 15 22  1  0  0  0  0
 15 14  2  0  0  0  0
 16 17  2  0  0  0  0
 16 15  1  0  0  0  0
 17 18  1  0  0  0  0
 18  2  1  0  0  0  0
 18 19  2  0  0  0  0
 21 16  1  0  0  0  0
 22 24  1  0  0  0  0
 22 23  1  0  0  0  0
 25 22  1  0  0  0  0
 26  9  1  0  0  0  0
 28 27  2  6  0  0  0
 28 26  1  0  0  0  0
 28 29  1  0  0  0  0
 29 30  1  0  0  0  0
 31 32  1  0  0  0  0
 31 28  1  0  0  0  0
 32 34  1  0  0  0  0
 33 32  1  0  0  0  0
 35 32  1  0  0  0  0
 35 38  1  0  0  0  0
 36 35  1  0  0  0  0
 37 35  1  0  0  0  0
 38 44  1  0  0  0  0
 39 38  1  0  0  0  0
 40 39  1  0  0  0  0
 40 41  1  0  0  0  0
 41 43  1  0  0  0  0
 42 41  1  0  0  0  0
 43 44  1  0  0  0  0
M  END
>  <minimizedAffinity>
-5.99835157

$$$$

 OpenBabel03242513453D

 44 47  0  0  0  0  0  0  0  0999 V2000
   39.4460   30.9480   39.1530 C   0  0  0  0  0  0  0  0  0  0  0  0
   38.8210   30.7070   40.3610 C   0  0  0  0  0  0  0  0  0  0  0  0
   38.6030   31.7630   41.1960 C   0  0  0  0  0  0  0  0  0  0  0  0
   38.9770   33.0560   40.8890 C   0  0  0  0  0  0  0  0  0  0  0  0
   38.9070   34.2780   41.4730 N   0  0  0  0  0  0  0  0  0  0  0  0
   39.4660   35.2130   40.6510 C   0  0  0  0  0  0  0  0  0  0  0  0
   39.8840   34.5580   39.5510 N   0  0  0  0  0  0  0  0  0  0  0  0
   39.5940   33.2580   39.6850 C   0  0  0  0  0  0  0  0  0  0  0  0
   39.8460   32.2510   38.7990 C   0  0  0  0  0  0  0  0  0  0  0  0
   39.6420   30.1450   38.4580 H   0  0  0  0  0  0  0  0  0  0  0  0
   38.1140   31.5910   42.1470 H   0  0  0  0  0  0  0  0  0  0  0  0
   38.4690   34.4030   42.4230 H   0  0  0  0  0  0  0  0  0  0  0  0
   39.5350   36.2780   40.8870 H   0  0  0  0  0  0  0  0  0  0  0  0
   38.5790   27.5090   42.1110 C   0  0  0  0  0  0  0  0  0  0  0  0
   37.6120   26.8080   41.3500 C   0  0  0  0  0  0  0  0  0  0  0  0
   37.0690   27.4920   40.2320 C   0  0  0  0  0  0  0  0  0  0  0  0
   37.4740   28.7420   39.9370 N   0  0  0  0  0  0  0  0  0  0  0  0
   38.4100   29.3470   40.7200 C   0  0  0  0  0  0  0  0  0  0  0  0
   38.9590   28.7590   41.7860 N   0  0  0  0  0  0  0  0  0  0  0  0
   39.0620   27.0990   42.9810 H   0  0  0  0  0  0  0  0  0  0  0  0
   36.3440   26.9520   39.6660 H   0  0  0  0  0  0  0  0  0  0  0  0
   37.2560   25.4410   41.7720 C   0  0  0  0  0  0  0  0  0  0  0  0
   38.4480   24.8450   42.1090 F   0  0  0  0  0  0  0  0  0  0  0  0
   36.6830   24.8000   40.7240 F   0  0  0  0  0  0  0  0  0  0  0  0
   36.3890   25.5460   42.8640 F   0  0  0  0  0  0  0  0  0  0  0  0
   40.4740   32.5000   37.5880 O   0  0  0  0  0  0  0  0  0  0  0  0
   42.8010   32.5320   38.7220 O   0  0  0  0  0  0  0  0  0  0  0  0
   42.1340   32.6000   37.3560 P   0  0  2  0  0  0  0  0  0  0  0  0
   42.4640   34.1470   36.7140 O   0  0  0  0  0  0  0  0  0  0  0  0
   42.4610   34.8310   37.4350 H   0  0  0  0  0  0  0  0  0  0  0  0
   42.7570   31.4230   36.3550 O   0  0  0  0  0  0  0  0  0  0  0  0
   43.0340   30.2190   36.9700 C   0  0  0  0  0  0  0  0  0  0  0  0
   43.3910   30.2940   37.9810 H   0  0  0  0  0  0  0  0  0  0  0  0
   43.9020   29.7890   36.3750 H   0  0  0  0  0  0  0  0  0  0  0  0
   41.8810   29.2940   36.7000 C   0  0  0  0  0  0  0  0  0  0  0  0
   40.9890   29.6090   37.2990 H   0  0  0  0  0  0  0  0  0  0  0  0
   41.5790   29.2630   35.6560 H   0  0  0  0  0  0  0  0  0  0  0  0
   42.1790   27.9440   37.1280 N   0  0  0  0  0  0  0  0  0  0  0  0
   41.0870   27.0400   36.8860 C   0  0  0  0  0  2  0  0  0  0  0  0
   40.0100   26.9830   37.8960 C   0  0  0  0  0  2  0  0  0  0  0  0
   40.6570   26.6200   39.2390 C   0  0  0  0  0  3  0  0  0  0  0  0
   39.9150   26.5310   40.0430 H   0  0  0  0  0  0  0  0  0  0  0  0
   41.5860   27.7600   39.5270 C   0  0  0  0  0  2  0  0  0  0  0  0
   42.6690   27.8720   38.4770 C   0  0  0  0  0  2  0  0  0  0  0  0
  1  2  1  0  0  0  0
  2 18  1  0  0  0  0
  2  3  2  0  0  0  0
  3 11  1  0  0  0  0
  4  3  1  0  0  0  0
  4  5  1  0  0  0  0
  5 12  1  0  0  0  0
  6 13  1  0  0  0  0
  6  5  1  0  0  0  0
  7  8  1  0  0  0  0
  7  6  2  0  0  0  0
  8  4  2  0  0  0  0
  9  1  2  0  0  0  0
  9  8  1  0  0  0  0
 10  1  1  0  0  0  0
 14 20  1  0  0  0  0
 15 22  1  0  0  0  0
 15 14  2  0  0  0  0
 16 15  1  0  0  0  0
 17 16  2  0  0  0  0
 17 18  1  0  0  0  0
 18 19  2  0  0  0  0
 19 14  1  0  0  0  0
 21 16  1  0  0  0  0
 22 23  1  0  0  0  0
 22 25  1  0  0  0  0
 24 22  1  0  0  0  0
 26  9  1  0  0  0  0
 28 26  1  0  0  0  0
 28 27  2  1  0  0  0
 29 28  1  0  0  0  0
 29 30  1  0  0  0  0
 31 32  1  0  0  0  0
 31 28  1  0  0  0  0
 32 33  1  0  0  0  0
 34 32  1  0  0  0  0
 35 32  1  0  0  0  0
 35 38  1  0  0  0  0
 35 36  1  0  0  0  0
 37 35  1  0  0  0  0
 38 44  1  0  0  0  0
 39 38  1  0  0  0  0
 39 40  1  0  0  0  0
 40 41  1  0  0  0  0
 41 43  1  0  0  0  0
 41 42  1  0  0  0  0
 44 43  1  0  0  0  0
M  END
>  <minimizedAffinity>
-5.93821478

$$$$

 OpenBabel03242513453D

 44 47  0  0  0  0  0  0  0  0999 V2000
   40.1760   31.1900   40.4460 C   0  0  0  0  0  0  0  0  0  0  0  0
   41.2470   30.3180   40.4420 C   0  0  0  0  0  0  0  0  0  0  0  0
   42.3830   30.6950   39.7900 C   0  0  0  0  0  0  0  0  0  0  0  0
   42.5110   31.9040   39.1370 C   0  0  0  0  0  0  0  0  0  0  0  0
   43.4640   32.5570   38.4260 N   0  0  0  0  0  0  0  0  0  0  0  0
   42.9860   33.7690   38.0200 C   0  0  0  0  0  0  0  0  0  0  0  0
   41.7260   33.8620   38.4870 N   0  0  0  0  0  0  0  0  0  0  0  0
   41.4300   32.7440   39.1620 C   0  0  0  0  0  0  0  0  0  0  0  0
   40.2610   32.4340   39.7930 C   0  0  0  0  0  0  0  0  0  0  0  0
   39.2530   30.9360   40.9480 H   0  0  0  0  0  0  0  0  0  0  0  0
   43.2320   30.0220   39.7770 H   0  0  0  0  0  0  0  0  0  0  0  0
   44.4080   32.1230   38.2570 H   0  0  0  0  0  0  0  0  0  0  0  0
   43.5580   34.4910   37.4320 H   0  0  0  0  0  0  0  0  0  0  0  0
   40.8580   27.8070   43.0670 C   0  0  0  0  0  0  0  0  0  0  0  0
   40.9690   26.5880   42.3540 C   0  0  0  0  0  0  0  0  0  0  0  0
   41.1790   26.6900   40.9550 C   0  0  0  0  0  0  0  0  0  0  0  0
   41.2650   27.8990   40.3670 N   0  0  0  0  0  0  0  0  0  0  0  0
   41.1470   29.0240   41.1250 C   0  0  0  0  0  0  0  0  0  0  0  0
   40.9480   28.9960   42.4460 N   0  0  0  0  0  0  0  0  0  0  0  0
   40.6960   27.8600   44.1300 H   0  0  0  0  0  0  0  0  0  0  0  0
   41.2640   25.7650   40.4300 H   0  0  0  0  0  0  0  0  0  0  0  0
   40.8630   25.3290   43.1130 C   0  0  0  0  0  0  0  0  0  0  0  0
   42.1600   24.9530   43.3730 F   0  0  0  0  0  0  0  0  0  0  0  0
   40.2480   24.4050   42.3340 F   0  0  0  0  0  0  0  0  0  0  0  0
   40.1440   25.5970   44.2820 F   0  0  0  0  0  0  0  0  0  0  0  0
   39.1890   33.3140   39.7930 O   0  0  0  0  0  0  0  0  0  0  0  0
   37.6380   32.1840   38.0560 O   0  0  0  0  0  0  0  0  0  0  0  0
   37.6080   32.9220   39.3860 P   0  0  2  0  0  0  0  0  0  0  0  0
   36.7730   34.3880   39.1270 O   0  0  0  0  0  0  0  0  0  0  0  0
   36.9790   34.7520   38.2250 H   0  0  0  0  0  0  0  0  0  0  0  0
   36.8150   32.0080   40.5320 O   0  0  0  0  0  0  0  0  0  0  0  0
   36.4930   30.7260   40.1360 C   0  0  0  0  0  0  0  0  0  0  0  0
   37.1370   30.3040   39.3860 H   0  0  0  0  0  0  0  0  0  0  0  0
   35.4770   30.8290   39.6360 H   0  0  0  0  0  0  0  0  0  0  0  0
   36.2370   29.9170   41.3760 C   0  0  0  0  0  0  0  0  0  0  0  0
   36.0280   30.5970   42.2400 H   0  0  0  0  0  0  0  0  0  0  0  0
   35.3970   29.2330   41.2860 H   0  0  0  0  0  0  0  0  0  0  0  0
   37.4060   29.1540   41.7570 N   0  0  0  0  0  0  0  0  0  0  0  0
   37.6700   28.0690   40.8520 C   0  0  0  0  0  2  0  0  0  0  0  0
   36.9360   26.8050   41.0670 C   0  0  0  0  0  2  0  0  0  0  0  0
   37.2390   26.3340   42.4950 C   0  0  0  0  0  3  0  0  0  0  0  0
   36.7480   25.3800   42.7280 H   0  0  0  0  0  0  0  0  0  0  0  0
   36.6850   27.4170   43.3710 C   0  0  0  0  0  2  0  0  0  0  0  0
   37.3860   28.7360   43.1320 C   0  0  0  0  0  2  0  0  0  0  0  0
  1 10  1  0  0  0  0
  2  1  1  0  0  0  0
  2 18  1  0  0  0  0
  3  2  2  0  0  0  0
  4  8  2  0  0  0  0
  4  3  1  0  0  0  0
  5  4  1  0  0  0  0
  6  5  1  0  0  0  0
  6  7  2  0  0  0  0
  7  8  1  0  0  0  0
  8  9  1  0  0  0  0
  9 26  1  0  0  0  0
  9  1  2  0  0  0  0
 11  3  1  0  0  0  0
 12  5  1  0  0  0  0
 13  6  1  0  0  0  0
 14 20  1  0  0  0  0
 15 14  2  0  0  0  0
 15 22  1  0  0  0  0
 16 15  1  0  0  0  0
 17 16  2  0  0  0  0
 17 18  1  0  0  0  0
 18 19  2  0  0  0  0
 19 14  1  0  0  0  0
 21 16  1  0  0  0  0
 22 23  1  0  0  0  0
 22 25  1  0  0  0  0
 24 22  1  0  0  0  0
 28 27  2  6  0  0  0
 28 26  1  0  0  0  0
 28 31  1  0  0  0  0
 29 28  1  0  0  0  0
 30 29  1  0  0  0  0
 32 31  1  0  0  0  0
 32 35  1  0  0  0  0
 33 32  1  0  0  0  0
 34 32  1  0  0  0  0
 35 38  1  0  0  0  0
 35 36  1  0  0  0  0
 37 35  1  0  0  0  0
 38 44  1  0  0  0  0
 39 40  1  0  0  0  0
 39 38  1  0  0  0  0
 40 41  1  0  0  0  0
 41 42  1  0  0  0  0
 41 43  1  0  0  0  0
 44 43  1  0  0  0  0
M  END
>  <minimizedAffinity>
-5.91343498

$$$$

 OpenBabel03242513453D

 44 47  0  0  0  0  0  0  0  0999 V2000
   40.8370   31.9930   40.6420 C   0  0  0  0  0  0  0  0  0  0  0  0
   40.8500   31.2850   41.8280 C   0  0  0  0  0  0  0  0  0  0  0  0
   41.8700   31.5120   42.7040 C   0  0  0  0  0  0  0  0  0  0  0  0
   42.8850   32.4150   42.4590 C   0  0  0  0  0  0  0  0  0  0  0  0
   43.9980   32.8590   43.0960 N   0  0  0  0  0  0  0  0  0  0  0  0
   44.6250   33.7940   42.3250 C   0  0  0  0  0  0  0  0  0  0  0  0
   43.8920   33.9260   41.2040 N   0  0  0  0  0  0  0  0  0  0  0  0
   42.8400   33.0990   41.2750 C   0  0  0  0  0  0  0  0  0  0  0  0
   41.8520   32.9230   40.3510 C   0  0  0  0  0  0  0  0  0  0  0  0
   40.0510   31.8470   39.9150 H   0  0  0  0  0  0  0  0  0  0  0  0
   41.8960   30.9640   43.6370 H   0  0  0  0  0  0  0  0  0  0  0  0
   44.2670   32.4870   44.0430 H   0  0  0  0  0  0  0  0  0  0  0  0
   45.5450   34.3100   42.6110 H   0  0  0  0  0  0  0  0  0  0  0  0
   37.5670   29.6900   42.0020 C   0  0  0  0  0  0  0  0  0  0  0  0
   37.8420   28.4820   42.6910 C   0  0  0  0  0  0  0  0  0  0  0  0
   39.1890   28.2660   43.0760 C   0  0  0  0  0  0  0  0  0  0  0  0
   40.1350   29.1810   42.7870 N   0  0  0  0  0  0  0  0  0  0  0  0
   39.7880   30.3170   42.1210 C   0  0  0  0  0  0  0  0  0  0  0  0
   38.5380   30.5800   41.7290 N   0  0  0  0  0  0  0  0  0  0  0  0
   36.5860   29.9660   41.6560 H   0  0  0  0  0  0  0  0  0  0  0  0
   39.3820   27.3550   43.5960 H   0  0  0  0  0  0  0  0  0  0  0  0
   36.7190   27.5640   42.9520 C   0  0  0  0  0  0  0  0  0  0  0  0
   37.1910   26.3150   42.6260 F   0  0  0  0  0  0  0  0  0  0  0  0
   35.6840   27.9060   42.1450 F   0  0  0  0  0  0  0  0  0  0  0  0
   36.3900   27.6700   44.3060 F   0  0  0  0  0  0  0  0  0  0  0  0
   41.8450   33.6380   39.1620 O   0  0  0  0  0  0  0  0  0  0  0  0
   43.9410   32.6610   37.9990 O   0  0  0  0  0  0  0  0  0  0  0  0
   42.5200   33.1220   37.7140 P   0  0  2  0  0  0  0  0  0  0  0  0
   42.6310   34.4860   36.6920 O   0  0  0  0  0  0  0  0  0  0  0  0
   43.4210   35.0390   36.9340 H   0  0  0  0  0  0  0  0  0  0  0  0
   41.6640   31.9100   36.9550 O   0  0  0  0  0  0  0  0  0  0  0  0
   42.4020   30.7930   36.6240 C   0  0  0  0  0  0  0  0  0  0  0  0
   43.4590   30.8750   36.8020 H   0  0  0  0  0  0  0  0  0  0  0  0
   42.2930   30.7030   35.4960 H   0  0  0  0  0  0  0  0  0  0  0  0
   41.6890   29.5940   37.1810 C   0  0  0  0  0  0  0  0  0  0  0  0
   41.0470   29.8980   38.0460 H   0  0  0  0  0  0  0  0  0  0  0  0
   41.0490   29.0910   36.4590 H   0  0  0  0  0  0  0  0  0  0  0  0
   42.6230   28.6250   37.7120 N   0  0  0  0  0  0  0  0  0  0  0  0
   41.9700   27.5960   38.4750 C   0  0  0  0  0  2  0  0  0  0  0  0
   41.6640   27.8850   39.8910 C   0  0  0  0  0  2  0  0  0  0  0  0
   42.9870   28.2410   40.5840 C   0  0  0  0  0  3  0  0  0  0  0  0
   42.8500   28.4450   41.6540 H   0  0  0  0  0  0  0  0  0  0  0  0
   43.4520   29.4820   39.8850 C   0  0  0  0  0  2  0  0  0  0  0  0
   43.7210   29.2260   38.4180 C   0  0  0  0  0  2  0  0  0  0  0  0
  1  2  1  0  0  0  0
  2 18  1  0  0  0  0
  2  3  2  0  0  0  0
  3 11  1  0  0  0  0
  4  3  1  0  0  0  0
  4  5  1  0  0  0  0
  5 12  1  0  0  0  0
  6 13  1  0  0  0  0
  6  5  1  0  0  0  0
  7  8  1  0  0  0  0
  7  6  2  0  0  0  0
  8  4  2  0  0  0  0
  9  1  2  0  0  0  0
  9  8  1  0  0  0  0
 10  1  1  0  0  0  0
 14 15  1  0  0  0  0
 15 22  1  0  0  0  0
 15 16  2  0  0  0  0
 16 21  1  0  0  0  0
 17 16  1  0  0  0  0
 18 17  2  0  0  0  0
 19 14  2  0  0  0  0
 19 18  1  0  0  0  0
 20 14  1  0  0  0  0
 22 25  1  0  0  0  0
 23 22  1  0  0  0  0
 24 22  1  0  0  0  0
 26  9  1  0  0  0  0
 28 27  2  1  0  0  0
 28 26  1  0  0  0  0
 29 30  1  0  0  0  0
 29 28  1  0  0  0  0
 31 28  1  0  0  0  0
 32 33  1  0  0  0  0
 32 31  1  0  0  0  0
 32 35  1  0  0  0  0
 34 32  1  0  0  0  0
 35 38  1  0  0  0  0
 35 36  1  0  0  0  0
 37 35  1  0  0  0  0
 38 44  1  0  0  0  0
 38 39  1  0  0  0  0
 39 40  1  0  0  0  0
 40 41  1  0  0  0  0
 41 42  1  0  0  0  0
 43 41  1  0  0  0  0
 44 43  1  0  0  0  0
M  END
>  <minimizedAffinity>
-5.90338755

$$$$

 OpenBabel03242513453D

 44 47  0  0  0  0  0  0  0  0999 V2000
   40.3180   31.8850   40.1750 C   0  0  0  0  0  0  0  0  0  0  0  0
   39.6350   31.7380   38.9830 C   0  0  0  0  0  0  0  0  0  0  0  0
   40.1740   32.2890   37.8580 C   0  0  0  0  0  0  0  0  0  0  0  0
   41.3670   32.9830   37.8580 C   0  0  0  0  0  0  0  0  0  0  0  0
   42.1460   33.6240   36.9500 N   0  0  0  0  0  0  0  0  0  0  0  0
   43.2490   34.1350   37.5710 C   0  0  0  0  0  0  0  0  0  0  0  0
   43.1470   33.8050   38.8720 N   0  0  0  0  0  0  0  0  0  0  0  0
   42.0170   33.1100   39.0560 C   0  0  0  0  0  0  0  0  0  0  0  0
   41.5370   32.5870   40.2210 C   0  0  0  0  0  0  0  0  0  0  0  0
   39.9310   31.4690   41.0930 H   0  0  0  0  0  0  0  0  0  0  0  0
   39.6520   32.1830   36.9160 H   0  0  0  0  0  0  0  0  0  0  0  0
   41.8690   33.6750   35.9360 H   0  0  0  0  0  0  0  0  0  0  0  0
   44.0370   34.6960   37.0630 H   0  0  0  0  0  0  0  0  0  0  0  0
   36.9640   29.4840   37.9170 C   0  0  0  0  0  0  0  0  0  0  0  0
   35.9810   29.6670   38.9210 C   0  0  0  0  0  0  0  0  0  0  0  0
   36.2940   30.5880   39.9520 C   0  0  0  0  0  0  0  0  0  0  0  0
   37.4730   31.2390   39.9480 N   0  0  0  0  0  0  0  0  0  0  0  0
   38.3650   31.0070   38.9460 C   0  0  0  0  0  0  0  0  0  0  0  0
   38.1320   30.1510   37.9470 N   0  0  0  0  0  0  0  0  0  0  0  0
   36.8460   28.8110   37.0850 H   0  0  0  0  0  0  0  0  0  0  0  0
   35.5440   30.7190   40.7000 H   0  0  0  0  0  0  0  0  0  0  0  0
   34.7280   28.8990   38.8100 C   0  0  0  0  0  0  0  0  0  0  0  0
   34.1210   29.3600   37.6660 F   0  0  0  0  0  0  0  0  0  0  0  0
   33.9600   29.1660   39.8960 F   0  0  0  0  0  0  0  0  0  0  0  0
   35.0650   27.5450   38.7240 F   0  0  0  0  0  0  0  0  0  0  0  0
   42.2280   32.7380   41.4140 O   0  0  0  0  0  0  0  0  0  0  0  0
   43.7110   32.1090   43.4400 O   0  0  0  0  0  0  0  0  0  0  0  0
   42.8910   31.4890   42.3190 P   0  0  2  0  0  0  0  0  0  0  0  0
   43.9800   30.6520   41.3050 O   0  0  0  0  0  0  0  0  0  0  0  0
   44.8420   31.1430   41.2390 H   0  0  0  0  0  0  0  0  0  0  0  0
   41.7680   30.4300   42.9480 O   0  0  0  0  0  0  0  0  0  0  0  0
   41.7760   29.1700   42.3870 C   0  0  0  0  0  0  0  0  0  0  0  0
   42.7030   28.6340   42.4800 H   0  0  0  0  0  0  0  0  0  0  0  0
   41.6460   29.3540   41.2720 H   0  0  0  0  0  0  0  0  0  0  0  0
   40.5160   28.4730   42.8150 C   0  0  0  0  0  0  0  0  0  0  0  0
   40.5710   27.3870   42.5510 H   0  0  0  0  0  0  0  0  0  0  0  0
   40.3200   28.5400   43.8830 H   0  0  0  0  0  0  0  0  0  0  0  0
   39.3630   28.9870   42.1070 N   0  0  0  0  0  0  0  0  0  0  0  0
   38.3270   29.4320   42.9990 C   0  0  0  0  0  2  0  0  0  0  0  0
   37.3910   28.4160   43.5210 C   0  0  0  0  0  2  0  0  0  0  0  0
   36.7350   27.7310   42.3150 C   0  0  0  0  0  3  0  0  0  0  0  0
   36.0000   26.9750   42.6180 H   0  0  0  0  0  0  0  0  0  0  0  0
   37.8730   27.0740   41.5940 C   0  0  0  0  0  2  0  0  0  0  0  0
   38.8750   28.0920   41.0940 C   0  0  0  0  0  2  0  0  0  0  0  0
  1  9  1  0  0  0  0
  1 10  1  0  0  0  0
  2  1  2  0  0  0  0
  3  4  2  0  0  0  0
  3  2  1  0  0  0  0
  4  8  1  0  0  0  0
  5  6  1  0  0  0  0
  5  4  1  0  0  0  0
  6  7  2  0  0  0  0
  7  8  1  0  0  0  0
  8  9  2  0  0  0  0
  9 26  1  0  0  0  0
 11  3  1  0  0  0  0
 12  5  1  0  0  0  0
 13  6  1  0  0  0  0
 14 19  2  0  0  0  0
 14 15  1  0  0  0  0
 15 16  2  0  0  0  0
 16 21  1  0  0  0  0
 17 16  1  0  0  0  0
 18  2  1  0  0  0  0
 18 17  2  0  0  0  0
 19 18  1  0  0  0  0
 20 14  1  0  0  0  0
 22 15  1  0  0  0  0
 22 24  1  0  0  0  0
 23 22  1  0  0  0  0
 25 22  1  0  0  0  0
 26 28  1  0  0  0  0
 28 31  1  0  0  0  0
 28 27  2  1  0  0  0
 29 28  1  0  0  0  0
 30 29  1  0  0  0  0
 32 33  1  0  0  0  0
 32 35  1  0  0  0  0
 32 31  1  0  0  0  0
 34 32  1  0  0  0  0
 35 37  1  0  0  0  0
 36 35  1  0  0  0  0
 38 35  1  0  0  0  0
 38 39  1  0  0  0  0
 39 40  1  0  0  0  0
 41 42  1  0  0  0  0
 41 40  1  0  0  0  0
 43 41  1  0  0  0  0
 44 43  1  0  0  0  0
 44 38  1  0  0  0  0
M  END
>  <minimizedAffinity>
-5.85208988

$$$$

 OpenBabel03242513453D

 44 47  0  0  0  0  0  0  0  0999 V2000
   39.1330   30.2940   38.4670 C   0  0  0  0  0  0  0  0  0  0  0  0
   40.4210   30.7930   38.4230 C   0  0  0  0  0  0  0  0  0  0  0  0
   40.6270   32.0840   38.8100 C   0  0  0  0  0  0  0  0  0  0  0  0
   39.6110   32.9110   39.2450 C   0  0  0  0  0  0  0  0  0  0  0  0
   39.4850   34.1870   39.6840 N   0  0  0  0  0  0  0  0  0  0  0  0
   38.1780   34.4450   39.9800 C   0  0  0  0  0  0  0  0  0  0  0  0
   37.4940   33.3150   39.7200 N   0  0  0  0  0  0  0  0  0  0  0  0
   38.3480   32.3840   39.2760 C   0  0  0  0  0  0  0  0  0  0  0  0
   38.0660   31.1020   38.9030 C   0  0  0  0  0  0  0  0  0  0  0  0
   38.9190   29.2780   38.1690 H   0  0  0  0  0  0  0  0  0  0  0  0
   41.6300   32.4900   38.7810 H   0  0  0  0  0  0  0  0  0  0  0  0
   40.3220   34.8220   39.7570 H   0  0  0  0  0  0  0  0  0  0  0  0
   37.8090   35.4020   40.3570 H   0  0  0  0  0  0  0  0  0  0  0  0
   43.3400   28.5950   38.4450 C   0  0  0  0  0  0  0  0  0  0  0  0
   43.5720   28.3670   37.0660 C   0  0  0  0  0  0  0  0  0  0  0  0
   42.6820   29.0020   36.1620 C   0  0  0  0  0  0  0  0  0  0  0  0
   41.6800   29.7750   36.6240 N   0  0  0  0  0  0  0  0  0  0  0  0
   41.5250   29.9430   37.9660 C   0  0  0  0  0  0  0  0  0  0  0  0
   42.3270   29.3730   38.8700 N   0  0  0  0  0  0  0  0  0  0  0  0
   43.9440   28.1670   39.2280 H   0  0  0  0  0  0  0  0  0  0  0  0
   42.8690   28.8250   35.1270 H   0  0  0  0  0  0  0  0  0  0  0  0
   44.7060   27.5050   36.6880 C   0  0  0  0  0  0  0  0  0  0  0  0
   44.2020   26.6380   35.7480 F   0  0  0  0  0  0  0  0  0  0  0  0
   45.1190   26.8280   37.7870 F   0  0  0  0  0  0  0  0  0  0  0  0
   45.7090   28.3270   36.1670 F   0  0  0  0  0  0  0  0  0  0  0  0
   36.7710   30.6080   38.9510 O   0  0  0  0  0  0  0  0  0  0  0  0
   34.7450   29.2600   39.8340 O   0  0  0  0  0  0  0  0  0  0  0  0
   36.0530   29.8900   40.2880 P   0  0  2  0  0  0  0  0  0  0  0  0
   35.6550   31.1390   41.3810 O   0  0  0  0  0  0  0  0  0  0  0  0
   34.8180   31.5940   41.1000 H   0  0  0  0  0  0  0  0  0  0  0  0
   37.0060   28.7510   41.0450 O   0  0  0  0  0  0  0  0  0  0  0  0
   36.3470   27.9490   41.9530 C   0  0  0  0  0  0  0  0  0  0  0  0
   35.6280   27.2720   41.5290 H   0  0  0  0  0  0  0  0  0  0  0  0
   35.7400   28.6740   42.5850 H   0  0  0  0  0  0  0  0  0  0  0  0
   37.3750   27.3830   42.8920 C   0  0  0  0  0  0  0  0  0  0  0  0
   37.7360   28.1810   43.5900 H   0  0  0  0  0  0  0  0  0  0  0  0
   37.0070   26.5600   43.4990 H   0  0  0  0  0  0  0  0  0  0  0  0
   38.5490   26.9330   42.1760 N   0  0  0  0  0  0  0  0  0  0  0  0
   38.3700   25.6300   41.5960 C   0  0  0  0  0  2  0  0  0  0  0  0
   38.6070   24.4570   42.4620 C   0  0  0  0  0  2  0  0  0  0  0  0
   40.0430   24.5610   42.9940 C   0  0  0  0  0  3  0  0  0  0  0  0
   40.3110   23.7080   43.6300 H   0  0  0  0  0  0  0  0  0  0  0  0
   40.0510   25.8220   43.8050 C   0  0  0  0  0  2  0  0  0  0  0  0
   39.7570   27.0340   42.9480 C   0  0  0  0  0  2  0  0  0  0  0  0
  1  9  1  0  0  0  0
  2  1  2  0  0  0  0
  2  3  1  0  0  0  0
  3  4  2  0  0  0  0
  4  8  1  0  0  0  0
  4  5  1  0  0  0  0
  5 12  1  0  0  0  0
  5  6  1  0  0  0  0
  6 13  1  0  0  0  0
  7  6  2  0  0  0  0
  8  7  1  0  0  0  0
  9 26  1  0  0  0  0
  9  8  2  0  0  0  0
 10  1  1  0  0  0  0
 11  3  1  0  0  0  0
 14 19  1  0  0  0  0
 14 20  1  0  0  0  0
 15 14  2  0  0  0  0
 16 17  2  0  0  0  0
 16 15  1  0  0  0  0
 17 18  1  0  0  0  0
 18  2  1  0  0  0  0
 18 19  2  0  0  0  0
 21 16  1  0  0  0  0
 22 15  1  0  0  0  0
 22 24  1  0  0  0  0
 23 22  1  0  0  0  0
 25 22  1  0  0  0  0
 26 28  1  0  0  0  0
 28 27  2  6  0  0  0
 28 31  1  0  0  0  0
 28 29  1  0  0  0  0
 30 29  1  0  0  0  0
 31 32  1  0  0  0  0
 32 34  1  0  0  0  0
 32 35  1  0  0  0  0
 33 32  1  0  0  0  0
 35 37  1  0  0  0  0
 35 36  1  0  0  0  0
 38 35  1  0  0  0  0
 38 44  1  0  0  0  0
 39 38  1  0  0  0  0
 39 40  1  0  0  0  0
 40 41  1  0  0  0  0
 41 42  1  0  0  0  0
 41 43  1  0  0  0  0
 44 43  1  0  0  0  0
M  END
>  <minimizedAffinity>
-5.82312298

$$$$

 OpenBabel03242513453D

 44 47  0  0  0  0  0  0  0  0999 V2000
   36.7440   27.4790   39.9320 C   0  0  0  0  0  0  0  0  0  0  0  0
   36.9050   26.9630   38.6600 C   0  0  0  0  0  0  0  0  0  0  0  0
   37.2510   25.6500   38.5350 C   0  0  0  0  0  0  0  0  0  0  0  0
   37.4460   24.8170   39.6180 C   0  0  0  0  0  0  0  0  0  0  0  0
   37.7780   23.5190   39.8290 N   0  0  0  0  0  0  0  0  0  0  0  0
   37.8160   23.2660   41.1690 C   0  0  0  0  0  0  0  0  0  0  0  0
   37.5030   24.4200   41.7890 N   0  0  0  0  0  0  0  0  0  0  0  0
   37.2780   25.3610   40.8630 C   0  0  0  0  0  0  0  0  0  0  0  0
   36.9340   26.6660   41.0650 C   0  0  0  0  0  0  0  0  0  0  0  0
   36.4720   28.5130   40.0830 H   0  0  0  0  0  0  0  0  0  0  0  0
   37.3810   25.2310   37.5460 H   0  0  0  0  0  0  0  0  0  0  0  0
   37.9640   22.8680   39.0230 H   0  0  0  0  0  0  0  0  0  0  0  0
   38.0560   22.2930   41.6060 H   0  0  0  0  0  0  0  0  0  0  0  0
   35.4200   29.3430   36.3190 C   0  0  0  0  0  0  0  0  0  0  0  0
   36.3800   29.4000   35.2790 C   0  0  0  0  0  0  0  0  0  0  0  0
   37.5330   28.5890   35.4370 C   0  0  0  0  0  0  0  0  0  0  0  0
   37.6760   27.8170   36.5320 N   0  0  0  0  0  0  0  0  0  0  0  0
   36.7060   27.8190   37.4860 C   0  0  0  0  0  0  0  0  0  0  0  0
   35.5970   28.5600   37.3980 N   0  0  0  0  0  0  0  0  0  0  0  0
   34.5060   29.9120   36.3150 H   0  0  0  0  0  0  0  0  0  0  0  0
   38.2460   28.6400   34.6460 H   0  0  0  0  0  0  0  0  0  0  0  0
   36.1040   30.2810   34.1290 C   0  0  0  0  0  0  0  0  0  0  0  0
   34.7370   30.4130   34.0950 F   0  0  0  0  0  0  0  0  0  0  0  0
   36.5510   29.6730   33.0030 F   0  0  0  0  0  0  0  0  0  0  0  0
   36.7500   31.4980   34.3640 F   0  0  0  0  0  0  0  0  0  0  0  0
   36.7740   27.1770   42.3440 O   0  0  0  0  0  0  0  0  0  0  0  0
   38.6740   26.9680   44.0900 O   0  0  0  0  0  0  0  0  0  0  0  0
   37.9540   27.9880   43.2210 P   0  0  2  0  0  0  0  0  0  0  0  0
   37.1520   29.0660   44.2740 O   0  0  0  0  0  0  0  0  0  0  0  0
   36.8060   28.5820   45.0710 H   0  0  0  0  0  0  0  0  0  0  0  0
   39.0520   28.8190   42.2830 O   0  0  0  0  0  0  0  0  0  0  0  0
   38.9830   30.1930   42.3820 C   0  0  0  0  0  0  0  0  0  0  0  0
   39.9310   30.6960   42.4440 H   0  0  0  0  0  0  0  0  0  0  0  0
   38.4750   30.3810   43.3820 H   0  0  0  0  0  0  0  0  0  0  0  0
   38.0010   30.6750   41.3510 C   0  0  0  0  0  0  0  0  0  0  0  0
   37.7100   29.8310   40.6760 H   0  0  0  0  0  0  0  0  0  0  0  0
   37.0870   31.0850   41.7750 H   0  0  0  0  0  0  0  0  0  0  0  0
   38.5910   31.6770   40.4890 N   0  0  0  0  0  0  0  0  0  0  0  0
   37.6030   32.4170   39.7540 C   0  0  0  0  0  2  0  0  0  0  0  0
   37.0980   31.8230   38.4990 C   0  0  0  0  0  2  0  0  0  0  0  0
   38.3060   31.5800   37.5850 C   0  0  0  0  0  3  0  0  0  0  0  0
   38.0120   31.1610   36.6140 H   0  0  0  0  0  0  0  0  0  0  0  0
   39.1470   30.5900   38.3330 C   0  0  0  0  0  2  0  0  0  0  0  0
   39.6340   31.1570   39.6490 C   0  0  0  0  0  2  0  0  0  0  0  0
  1 10  1  0  0  0  0
  1  9  1  0  0  0  0
  2  1  2  0  0  0  0
  3  2  1  0  0  0  0
  3  4  2  0  0  0  0
  4  5  1  0  0  0  0
  4  8  1  0  0  0  0
  5  6  1  0  0  0  0
  6 13  1  0  0  0  0
  6  7  2  0  0  0  0
  8  9  2  0  0  0  0
  8  7  1  0  0  0  0
  9 26  1  0  0  0  0
 11  3  1  0  0  0  0
 12  5  1  0  0  0  0
 14 19  1  0  0  0  0
 15 16  1  0  0  0  0
 15 14  2  0  0  0  0
 16 17  2  0  0  0  0
 17 18  1  0  0  0  0
 18  2  1  0  0  0  0
 19 18  2  0  0  0  0
 20 14  1  0  0  0  0
 21 16  1  0  0  0  0
 22 25  1  0  0  0  0
 22 15  1  0  0  0  0
 23 22  1  0  0  0  0
 24 22  1  0  0  0  0
 26 28  1  0  0  0  0
 28 27  2  1  0  0  0
 28 29  1  0  0  0  0
 29 30  1  0  0  0  0
 31 32  1  0  0  0  0
 31 28  1  0  0  0  0
 32 33  1  0  0  0  0
 32 34  1  0  0  0  0
 35 37  1  0  0  0  0
 35 32  1  0  0  0  0
 36 35  1  0  0  0  0
 38 35  1  0  0  0  0
 39 38  1  0  0  0  0
 40 39  1  0  0  0  0
 41 43  1  0  0  0  0
 41 40  1  0  0  0  0
 42 41  1  0  0  0  0
 43 44  1  0  0  0  0
 44 38  1  0  0  0  0
M  END
>  <minimizedAffinity>
-5.73555422

$$$$
