
 OpenBabel03242513433D

 44 47  0  0  0  0  0  0  0  0999 V2000
   47.7340   31.0400   46.0230 C   0  0  0  0  0  0  0  0  0  0  0  0
   46.9830   32.0960   45.5430 C   0  0  0  0  0  0  0  0  0  0  0  0
   45.9810   32.5850   46.3280 C   0  0  0  0  0  0  0  0  0  0  0  0
   45.6860   32.0750   47.5760 C   0  0  0  0  0  0  0  0  0  0  0  0
   44.7950   32.3240   48.5680 N   0  0  0  0  0  0  0  0  0  0  0  0
   45.0020   31.4550   49.6000 C   0  0  0  0  0  0  0  0  0  0  0  0
   46.0300   30.6650   49.2380 N   0  0  0  0  0  0  0  0  0  0  0  0
   46.4500   31.0300   48.0200 C   0  0  0  0  0  0  0  0  0  0  0  0
   47.4670   30.4880   47.2900 C   0  0  0  0  0  0  0  0  0  0  0  0
   48.5370   30.6170   45.4380 H   0  0  0  0  0  0  0  0  0  0  0  0
   45.3830   33.4120   45.9660 H   0  0  0  0  0  0  0  0  0  0  0  0
   44.0820   33.0930   48.4780 H   0  0  0  0  0  0  0  0  0  0  0  0
   44.4190   31.4460   50.5240 H   0  0  0  0  0  0  0  0  0  0  0  0
   47.1710   34.4370   42.7440 C   0  0  0  0  0  0  0  0  0  0  0  0
   47.8200   33.6750   41.7410 C   0  0  0  0  0  0  0  0  0  0  0  0
   48.1760   32.3470   42.0870 C   0  0  0  0  0  0  0  0  0  0  0  0
   47.8950   31.8650   43.3140 N   0  0  0  0  0  0  0  0  0  0  0  0
   47.2680   32.6630   44.2210 C   0  0  0  0  0  0  0  0  0  0  0  0
   46.9080   33.9220   43.9590 N   0  0  0  0  0  0  0  0  0  0  0  0
   46.8550   35.4570   42.6040 H   0  0  0  0  0  0  0  0  0  0  0  0
   48.6620   31.7830   41.3230 H   0  0  0  0  0  0  0  0  0  0  0  0
   48.0670   34.3150   40.4360 C   0  0  0  0  0  0  0  0  0  0  0  0
   48.5800   35.5550   40.7330 F   0  0  0  0  0  0  0  0  0  0  0  0
   46.8840   34.4330   39.7830 F   0  0  0  0  0  0  0  0  0  0  0  0
   48.9780   33.5170   39.7380 F   0  0  0  0  0  0  0  0  0  0  0  0
   48.2170   29.4290   47.7780 O   0  0  0  0  0  0  0  0  0  0  0  0
   49.8040   28.1510   49.3760 O   0  0  0  0  0  0  0  0  0  0  0  0
   49.4650   29.5540   48.8940 P   0  0  2  0  0  0  0  0  0  0  0  0
   48.8580   30.4130   50.2390 O   0  0  0  0  0  0  0  0  0  0  0  0
   48.3170   29.8140   50.8190 H   0  0  0  0  0  0  0  0  0  0  0  0
   50.8330   30.3050   48.3080 O   0  0  0  0  0  0  0  0  0  0  0  0
   51.8380   30.4920   49.2330 C   0  0  0  0  0  0  0  0  0  0  0  0
   52.6930   29.8500   49.1160 H   0  0  0  0  0  0  0  0  0  0  0  0
   51.3710   30.1920   50.2260 H   0  0  0  0  0  0  0  0  0  0  0  0
   52.0820   31.9700   49.3490 C   0  0  0  0  0  0  0  0  0  0  0  0
   53.1490   32.1610   49.6300 H   0  0  0  0  0  0  0  0  0  0  0  0
   51.8820   32.5190   48.4320 H   0  0  0  0  0  0  0  0  0  0  0  0
   51.2900   32.5530   50.4110 N   0  0  0  0  0  0  0  0  0  0  0  0
   51.3800   33.9870   50.4350 C   0  0  0  0  0  0  0  0  0  0  0  0
   52.5310   34.5880   51.1400 C   0  0  0  0  0  0  0  0  0  0  0  0
   52.5030   34.0760   52.5860 C   0  0  0  0  0  0  0  0  0  0  0  0
   53.3170   34.4990   53.1900 H   0  0  0  0  0  0  0  0  0  0  0  0
   52.6820   32.5930   52.4610 C   0  0  0  0  0  0  0  0  0  0  0  0
   51.5410   31.9600   51.6950 C   0  0  0  0  0  0  0  0  0  0  0  0
  1  9  1  0  0  0  0
  2  1  2  0  0  0  0
  2  3  1  0  0  0  0
  3  4  2  0  0  0  0
  4  8  1  0  0  0  0
  4  5  1  0  0  0  0
  5  6  1  0  0  0  0
  6 13  1  0  0  0  0
  7  6  2  0  0  0  0
  8  7  1  0  0  0  0
  9 26  1  0  0  0  0
  9  8  2  0  0  0  0
 10  1  1  0  0  0  0
 11  3  1  0  0  0  0
 12  5  1  0  0  0  0
 14 19  1  0  0  0  0
 15 16  1  0  0  0  0
 15 14  2  0  0  0  0
 16 17  2  0  0  0  0
 17 18  1  0  0  0  0
 18  2  1  0  0  0  0
 19 18  2  0  0  0  0
 20 14  1  0  0  0  0
 21 16  1  0  0  0  0
 22 23  1  0  0  0  0
 22 15  1  0  0  0  0
 24 22  1  0  0  0  0
 25 22  1  0  0  0  0
 26 28  1  0  0  0  0
 28 27  2  1  0  0  0
 28 29  1  0  0  0  0
 29 30  1  0  0  0  0
 31 28  1  0  0  0  0
 31 32  1  0  0  0  0
 32 35  1  0  0  0  0
 32 34  1  0  0  0  0
 33 32  1  0  0  0  0
 35 36  1  0  0  0  0
 35 38  1  0  0  0  0
 37 35  1  0  0  0  0
 38 39  1  0  0  0  0
 38 44  1  0  0  0  0
 39 40  1  0  0  0  0
 40 41  1  0  0  0  0
 41 42  1  0  0  0  0
 43 41  1  0  0  0  0
 44 43  1  0  0  0  0
M  END
>  <minimizedAffinity>
-6.16578579

>  <minimizedRMSD>
1.4800961

$$$$
