
 OpenBabel03242518243D

 43 47  0  0  1  0  0  0  0  0999 V2000
   48.8680   32.3750   39.8990 C   0  0  0  0  0  0  0  0  0  0  0  0
   47.9390   32.5590   38.8820 C   0  0  0  0  0  0  0  0  0  0  0  0
   46.6330   32.8710   39.2540 C   0  0  0  0  0  0  0  0  0  0  0  0
   46.3060   32.9850   40.5630 N   0  0  0  0  0  0  0  0  0  0  0  0
   47.2550   32.7960   41.5250 C   0  0  0  0  0  0  0  0  0  0  0  0
   48.5170   32.4940   41.1980 N   0  0  0  0  0  0  0  0  0  0  0  0
   49.8880   32.1340   39.6820 H   0  0  0  0  0  0  0  0  0  0  0  0
   45.9260   33.0090   38.4460 H   0  0  0  0  0  0  0  0  0  0  0  0
   48.4090   32.4100   37.5590 N   0  0  0  0  0  0  0  0  0  0  0  0
   49.3300   31.3510   37.2870 C   0  0  0  0  0  0  0  0  0  0  0  0
   49.8430   31.3300   35.8940 C   0  0  0  0  0  0  0  0  0  0  0  0
   48.8080   31.4620   34.9290 N   0  0  0  0  0  0  0  0  0  0  0  0
   47.7350   32.3280   35.2170 C   0  0  0  0  0  0  0  0  0  0  0  0
   48.0670   33.2170   36.4170 C   0  0  0  0  0  0  0  0  0  0  0  0
   48.8090   30.3770   37.4770 H   0  0  0  0  0  0  0  0  0  0  0  0
   50.1980   31.3380   37.9750 H   0  0  0  0  0  0  0  0  0  0  0  0
   50.6090   32.1390   35.7710 H   0  0  0  0  0  0  0  0  0  0  0  0
   50.3630   30.3800   35.7240 H   0  0  0  0  0  0  0  0  0  0  0  0
   49.1090   31.3690   33.9590 H   0  0  0  0  0  0  0  0  0  0  0  0
   46.7650   31.8610   35.3880 H   0  0  0  0  0  0  0  0  0  0  0  0
   47.6120   33.0360   34.3530 H   0  0  0  0  0  0  0  0  0  0  0  0
   48.9240   33.8510   36.1120 H   0  0  0  0  0  0  0  0  0  0  0  0
   47.1910   33.8710   36.6140 H   0  0  0  0  0  0  0  0  0  0  0  0
   45.7700   33.6890   43.2890 C   0  0  0  0  0  0  0  0  0  0  0  0
   46.8310   32.9350   42.9330 C   0  0  0  0  0  0  0  0  0  0  0  0
   47.5420   32.2730   43.9300 C   0  0  0  0  0  0  0  0  0  0  0  0
   47.1560   32.3960   45.2470 C   0  0  0  0  0  0  0  0  0  0  0  0
   46.0520   33.1830   45.5960 C   0  0  0  0  0  0  0  0  0  0  0  0
   45.3440   33.8440   44.5940 C   0  0  0  0  0  0  0  0  0  0  0  0
   45.9100   33.1110   46.9900 O   0  0  0  0  0  0  0  0  0  0  0  0
   47.1510   32.6270   47.5040 C   0  0  2  0  0  0  0  0  0  0  0  0
   47.6520   31.8700   46.4360 O   0  0  0  0  0  0  0  0  0  0  0  0
   45.2160   34.2060   42.5140 H   0  0  0  0  0  0  0  0  0  0  0  0
   48.3990   31.6630   43.6480 H   0  0  0  0  0  0  0  0  0  0  0  0
   44.4910   34.4530   44.8530 H   0  0  0  0  0  0  0  0  0  0  0  0
   47.8040   33.5130   47.6340 H   0  0  0  0  0  0  0  0  0  0  0  0
   46.9710   31.8530   48.7070 N   0  0  0  0  0  0  0  0  0  0  0  0
   47.3440   30.4830   48.5650 C   0  0  0  0  0  0  0  0  0  0  0  0
   46.5430   29.7680   47.4990 C   0  0  0  0  0  0  0  0  0  0  0  0
   45.0780   29.8870   47.8490 C   0  0  0  0  0  0  0  0  0  0  0  0
   44.4910   30.2150   46.9750 H   0  0  0  0  0  0  0  0  0  0  0  0
   44.8280   30.7030   49.0830 C   0  0  0  0  0  0  0  0  0  0  0  0
   45.5790   32.0140   49.0980 C   0  0  0  0  0  0  0  0  0  0  0  0
  1  6  1  0  0  0  0
  2  3  1  0  0  0  0
  2  1  2  0  0  0  0
  3  4  2  0  0  0  0
  4  5  1  0  0  0  0
  5 25  1  0  0  0  0
  6  5  2  0  0  0  0
  7  1  1  0  0  0  0
  8  3  1  0  0  0  0
  9  2  1  0  0  0  0
 10 15  1  0  0  0  0
 10  9  1  0  0  0  0
 10 16  1  0  0  0  0
 11 10  1  0  0  0  0
 12 13  1  0  0  0  0
 12 11  1  0  0  0  0
 13 20  1  0  0  0  0
 13 14  1  0  0  0  0
 14 23  1  0  0  0  0
 14  9  1  0  0  0  0
 17 11  1  0  0  0  0
 18 11  1  0  0  0  0
 19 12  1  0  0  0  0
 21 13  1  0  0  0  0
 22 14  1  0  0  0  0
 24 29  1  0  0  0  0
 25 24  2  0  0  0  0
 25 26  1  0  0  0  0
 26 27  2  0  0  0  0
 27 28  1  0  0  0  0
 27 32  1  0  0  0  0
 28 30  1  0  0  0  0
 29 35  1  0  0  0  0
 29 28  2  0  0  0  0
 30 31  1  0  0  0  0
 31 36  1  1  0  0  0
 31 37  1  0  0  0  0
 32 31  1  0  0  0  0
 33 24  1  0  0  0  0
 34 26  1  0  0  0  0
 37 43  1  0  0  0  0
 38 37  1  0  0  0  0
 39 40  1  0  0  0  0
 39 38  1  0  0  0  0
 40 42  1  0  0  0  0
 41 40  1  0  0  0  0
 42 43  1  0  0  0  0
M  END
>  <minimizedAffinity>
-5.50802994

>  <minimizedRMSD>
5.18532276

$$$$
