
 OpenBabel03252507303D

 47 50  0  0  1  0  0  0  0  0999 V2000
   46.9730   32.7540   45.5070 C   0  0  0  0  0  0  0  0  0  0  0  0
   45.8810   33.4220   46.0420 C   0  0  0  0  0  0  0  0  0  0  0  0
   45.1950   34.3800   45.2570 C   0  0  0  0  0  0  0  0  0  0  0  0
   45.6850   34.5900   43.9690 N   0  0  0  0  0  0  0  0  0  0  0  0
   46.7460   33.9130   43.5180 C   0  0  0  0  0  0  0  0  0  0  0  0
   47.3770   33.0120   44.2710 N   0  0  0  0  0  0  0  0  0  0  0  0
   45.3690   33.4480   46.9840 H   0  0  0  0  0  0  0  0  0  0  0  0
   44.3550   34.9760   45.4910 H   0  0  0  0  0  0  0  0  0  0  0  0
   47.6270   31.7680   46.3440 C   0  0  2  0  0  0  0  0  0  0  0  0
   47.3970   30.3210   45.8080 C   0  0  0  0  0  0  0  0  0  0  0  0
   48.2310   29.3710   46.6000 C   0  0  0  0  0  0  0  0  0  0  0  0
   48.2010   29.5590   48.0810 C   0  0  0  0  0  0  0  0  0  0  0  0
   48.1790   30.9360   48.5050 C   0  0  0  0  0  0  0  0  0  0  0  0
   47.1810   31.8150   47.7220 C   0  0  2  0  0  0  0  0  0  0  0  0
   48.7330   31.8730   46.2460 H   0  0  0  0  0  0  0  0  0  0  0  0
   47.7550   30.3700   44.7600 H   0  0  0  0  0  0  0  0  0  0  0  0
   46.3410   30.0800   45.7520 H   0  0  0  0  0  0  0  0  0  0  0  0
   47.8590   28.3300   46.4060 H   0  0  0  0  0  0  0  0  0  0  0  0
   49.2340   29.3880   46.1250 H   0  0  0  0  0  0  0  0  0  0  0  0
   47.8330   28.7370   48.6950 H   0  0  0  0  0  0  0  0  0  0  0  0
   49.3140   29.3110   48.3120 H   0  0  0  0  0  0  0  0  0  0  0  0
   49.1310   31.5230   48.4940 H   0  0  0  0  0  0  0  0  0  0  0  0
   47.8090   31.0050   49.5670 H   0  0  0  0  0  0  0  0  0  0  0  0
   47.2850   32.7640   48.2500 H   0  0  0  0  0  0  0  0  0  0  0  0
   45.8480   31.2180   47.8370 N   0  0  0  0  0  0  0  0  0  0  0  0
   45.1610   30.6770   48.9380 C   0  0  0  0  0  0  0  0  0  0  0  0
   44.6020   31.4030   49.8380 O   0  0  0  0  0  0  0  0  0  0  0  0
   45.1210   29.2510   48.9760 N   0  0  0  0  0  0  0  0  0  0  0  0
   45.2130   31.0580   46.9670 H   0  0  0  0  0  0  0  0  0  0  0  0
   45.4200   28.3890   49.4750 H   0  0  0  0  0  0  0  0  0  0  0  0
   44.6910   28.4990   48.3870 H   0  0  0  0  0  0  0  0  0  0  0  0
   47.2210   34.1970   42.1600 C   0  0  0  0  0  0  0  0  0  0  0  0
   48.2320   35.1040   41.9330 C   0  0  0  0  0  0  0  0  0  0  0  0
   48.7370   35.4300   40.7010 C   0  0  0  0  0  0  0  0  0  0  0  0
   48.1370   34.7570   39.6470 C   0  0  0  0  0  0  0  0  0  0  0  0
   47.1270   33.8470   39.8490 C   0  0  0  0  0  0  0  0  0  0  0  0
   46.6670   33.5660   41.1120 N   0  0  0  0  0  0  0  0  0  0  0  0
   48.6530   35.5920   42.8090 H   0  0  0  0  0  0  0  0  0  0  0  0
   49.5330   36.1490   40.5650 H   0  0  0  0  0  0  0  0  0  0  0  0
   48.4770   34.9550   38.6380 H   0  0  0  0  0  0  0  0  0  0  0  0
   46.5140   33.1590   38.7670 N   0  0  0  0  0  0  0  0  0  0  0  0
   45.4550   32.1960   38.9490 C   0  0  0  0  0  2  0  0  0  0  0  0
   45.3340   31.2530   37.7760 C   0  0  0  0  0  2  0  0  0  0  0  0
   46.6830   30.9110   37.1830 C   0  0  0  0  0  3  0  0  0  0  0  0
   47.2550   30.2460   37.8750 H   0  0  0  0  0  0  0  0  0  0  0  0
   47.5140   32.1050   36.8500 C   0  0  0  0  0  2  0  0  0  0  0  0
   46.9140   33.3800   37.3920 C   0  0  0  0  0  2  0  0  0  0  0  0
  1  2  1  0  0  0  0
  1  9  1  0  0  0  0
  2  7  1  0  0  0  0
  3  8  1  0  0  0  0
  3  2  2  0  0  0  0
  4  3  1  0  0  0  0
  5  4  2  0  0  0  0
  5  6  1  0  0  0  0
  6  1  2  0  0  0  0
  9 15  1  6  0  0  0
  9 14  1  0  0  0  0
 10  9  1  0  0  0  0
 10 11  1  0  0  0  0
 11 12  1  0  0  0  0
 12 21  1  0  0  0  0
 12 13  1  0  0  0  0
 12 20  1  0  0  0  0
 13 23  1  0  0  0  0
 14 25  1  0  0  0  0
 14 24  1  1  0  0  0
 14 13  1  0  0  0  0
 16 10  1  0  0  0  0
 17 10  1  0  0  0  0
 18 11  1  0  0  0  0
 19 11  1  0  0  0  0
 22 13  1  0  0  0  0
 25 26  1  0  0  0  0
 26 28  1  0  0  0  0
 26 27  2  0  0  0  0
 28 30  1  0  0  0  0
 29 25  1  0  0  0  0
 31 28  1  0  0  0  0
 32  5  1  0  0  0  0
 33 32  1  0  0  0  0
 33 38  1  0  0  0  0
 34 33  2  0  0  0  0
 35 36  2  0  0  0  0
 35 34  1  0  0  0  0
 36 37  1  0  0  0  0
 37 32  2  0  0  0  0
 39 34  1  0  0  0  0
 40 35  1  0  0  0  0
 41 42  1  0  0  0  0
 41 36  1  0  0  0  0
 43 42  1  0  0  0  0
 44 43  1  0  0  0  0
 44 45  1  0  0  0  0
 46 44  1  0  0  0  0
 46 47  1  0  0  0  0
 47 41  1  0  0  0  0
M  END
>  <minimizedAffinity>
-6.64118385

>  <minimizedRMSD>
0.211511046

$$$$
