
 OpenBabel03252507303D

 47 50  0  0  1  0  0  0  0  0999 V2000
   46.9630   32.7760   45.4410 C   0  0  0  0  0  0  0  0  0  0  0  0
   45.8580   33.4450   45.9480 C   0  0  0  0  0  0  0  0  0  0  0  0
   45.1860   34.3960   45.1410 C   0  0  0  0  0  0  0  0  0  0  0  0
   45.7020   34.5970   43.8620 N   0  0  0  0  0  0  0  0  0  0  0  0
   46.7730   33.9180   43.4380 C   0  0  0  0  0  0  0  0  0  0  0  0
   47.3910   33.0250   44.2110 N   0  0  0  0  0  0  0  0  0  0  0  0
   45.3270   33.4780   46.8790 H   0  0  0  0  0  0  0  0  0  0  0  0
   44.3410   34.9910   45.3530 H   0  0  0  0  0  0  0  0  0  0  0  0
   47.6010   31.7980   46.2990 C   0  0  2  0  0  0  0  0  0  0  0  0
   47.3310   30.3430   45.8050 C   0  0  0  0  0  0  0  0  0  0  0  0
   48.1510   29.3960   46.6160 C   0  0  0  0  0  0  0  0  0  0  0  0
   48.1400   29.6250   48.0910 C   0  0  0  0  0  0  0  0  0  0  0  0
   48.1550   31.0130   48.4770 C   0  0  0  0  0  0  0  0  0  0  0  0
   47.1700   31.8940   47.6790 C   0  0  2  0  0  0  0  0  0  0  0  0
   48.7080   31.8740   46.1880 H   0  0  0  0  0  0  0  0  0  0  0  0
   47.6800   30.3540   44.7530 H   0  0  0  0  0  0  0  0  0  0  0  0
   46.2700   30.1260   45.7660 H   0  0  0  0  0  0  0  0  0  0  0  0
   47.7520   28.3590   46.4540 H   0  0  0  0  0  0  0  0  0  0  0  0
   49.1490   29.3750   46.1310 H   0  0  0  0  0  0  0  0  0  0  0  0
   47.7580   28.8290   48.7320 H   0  0  0  0  0  0  0  0  0  0  0  0
   49.2490   29.3570   48.3190 H   0  0  0  0  0  0  0  0  0  0  0  0
   49.1200   31.5760   48.4410 H   0  0  0  0  0  0  0  0  0  0  0  0
   47.7970   31.1210   49.5390 H   0  0  0  0  0  0  0  0  0  0  0  0
   47.3020   32.8550   48.1790 H   0  0  0  0  0  0  0  0  0  0  0  0
   45.8250   31.3320   47.8230 N   0  0  0  0  0  0  0  0  0  0  0  0
   45.1680   30.7560   48.9250 C   0  0  0  0  0  0  0  0  0  0  0  0
   44.6720   31.4500   49.8840 O   0  0  0  0  0  0  0  0  0  0  0  0
   45.0840   29.3310   48.8910 N   0  0  0  0  0  0  0  0  0  0  0  0
   45.1480   31.2370   46.9740 H   0  0  0  0  0  0  0  0  0  0  0  0
   45.3760   28.4360   49.3330 H   0  0  0  0  0  0  0  0  0  0  0  0
   44.6040   28.6250   48.2850 H   0  0  0  0  0  0  0  0  0  0  0  0
   47.2760   34.1920   42.0880 C   0  0  0  0  0  0  0  0  0  0  0  0
   48.2020   35.1850   41.8590 C   0  0  0  0  0  0  0  0  0  0  0  0
   48.7250   35.5090   40.6340 C   0  0  0  0  0  0  0  0  0  0  0  0
   48.2380   34.7380   39.5890 C   0  0  0  0  0  0  0  0  0  0  0  0
   47.3140   33.7420   39.7920 C   0  0  0  0  0  0  0  0  0  0  0  0
   46.8300   33.4680   41.0490 N   0  0  0  0  0  0  0  0  0  0  0  0
   48.5360   35.7470   42.7280 H   0  0  0  0  0  0  0  0  0  0  0  0
   49.4520   36.2970   40.4960 H   0  0  0  0  0  0  0  0  0  0  0  0
   48.6000   34.9280   38.5850 H   0  0  0  0  0  0  0  0  0  0  0  0
   46.8160   32.9530   38.7200 N   0  0  0  0  0  0  0  0  0  0  0  0
   46.3920   31.5840   38.8840 C   0  0  0  0  0  2  0  0  0  0  0  0
   46.4060   30.8220   37.5810 C   0  0  0  0  0  2  0  0  0  0  0  0
   47.5570   31.2400   36.6930 C   0  0  0  0  0  3  0  0  0  0  0  0
   48.5250   30.8720   37.1120 H   0  0  0  0  0  0  0  0  0  0  0  0
   47.6450   32.7130   36.4740 C   0  0  0  0  0  2  0  0  0  0  0  0
   46.7000   33.4750   37.3730 C   0  0  0  0  0  2  0  0  0  0  0  0
  1  2  1  0  0  0  0
  1  9  1  0  0  0  0
  2  7  1  0  0  0  0
  3  8  1  0  0  0  0
  3  2  2  0  0  0  0
  4  3  1  0  0  0  0
  5  4  2  0  0  0  0
  5  6  1  0  0  0  0
  6  1  2  0  0  0  0
  9 15  1  6  0  0  0
  9 14  1  0  0  0  0
 10  9  1  0  0  0  0
 10 11  1  0  0  0  0
 11 12  1  0  0  0  0
 12 21  1  0  0  0  0
 12 13  1  0  0  0  0
 12 20  1  0  0  0  0
 13 23  1  0  0  0  0
 14 25  1  0  0  0  0
 14 24  1  1  0  0  0
 14 13  1  0  0  0  0
 16 10  1  0  0  0  0
 17 10  1  0  0  0  0
 18 11  1  0  0  0  0
 19 11  1  0  0  0  0
 22 13  1  0  0  0  0
 25 26  1  0  0  0  0
 26 27  2  0  0  0  0
 28 26  1  0  0  0  0
 28 30  1  0  0  0  0
 29 25  1  0  0  0  0
 31 28  1  0  0  0  0
 32  5  1  0  0  0  0
 33 32  1  0  0  0  0
 33 38  1  0  0  0  0
 34 33  2  0  0  0  0
 35 36  2  0  0  0  0
 35 34  1  0  0  0  0
 36 37  1  0  0  0  0
 37 32  2  0  0  0  0
 39 34  1  0  0  0  0
 40 35  1  0  0  0  0
 41 42  1  0  0  0  0
 41 36  1  0  0  0  0
 43 42  1  0  0  0  0
 44 45  1  0  0  0  0
 44 43  1  0  0  0  0
 46 44  1  0  0  0  0
 46 47  1  0  0  0  0
 47 41  1  0  0  0  0
M  END
>  <minimizedAffinity>
-6.71630287

>  <minimizedRMSD>
0.218207762

$$$$
