
 OpenBabel03252507303D

 47 50  0  0  1  0  0  0  0  0999 V2000
   46.9780   32.7510   45.5150 C   0  0  0  0  0  0  0  0  0  0  0  0
   45.8920   33.4460   46.0280 C   0  0  0  0  0  0  0  0  0  0  0  0
   45.2060   34.3740   45.2070 C   0  0  0  0  0  0  0  0  0  0  0  0
   45.6890   34.5270   43.9090 N   0  0  0  0  0  0  0  0  0  0  0  0
   46.7430   33.8260   43.4810 C   0  0  0  0  0  0  0  0  0  0  0  0
   47.3750   32.9550   44.2660 N   0  0  0  0  0  0  0  0  0  0  0  0
   45.3870   33.5150   46.9710 H   0  0  0  0  0  0  0  0  0  0  0  0
   44.3700   34.9830   45.4210 H   0  0  0  0  0  0  0  0  0  0  0  0
   47.6320   31.7980   46.3890 C   0  0  2  0  0  0  0  0  0  0  0  0
   47.4400   30.3350   45.8840 C   0  0  0  0  0  0  0  0  0  0  0  0
   48.2750   29.4200   46.7150 C   0  0  0  0  0  0  0  0  0  0  0  0
   48.2100   29.6420   48.1900 C   0  0  0  0  0  0  0  0  0  0  0  0
   48.1540   31.0280   48.5800 C   0  0  0  0  0  0  0  0  0  0  0  0
   47.1560   31.8700   47.7560 C   0  0  2  0  0  0  0  0  0  0  0  0
   48.7380   31.9220   46.3120 H   0  0  0  0  0  0  0  0  0  0  0  0
   47.8190   30.3660   44.8420 H   0  0  0  0  0  0  0  0  0  0  0  0
   46.3910   30.0720   45.8120 H   0  0  0  0  0  0  0  0  0  0  0  0
   47.9270   28.3680   46.5390 H   0  0  0  0  0  0  0  0  0  0  0  0
   49.2870   29.4450   46.2610 H   0  0  0  0  0  0  0  0  0  0  0  0
   47.8450   28.8280   48.8170 H   0  0  0  0  0  0  0  0  0  0  0  0
   49.3230   29.4220   48.4510 H   0  0  0  0  0  0  0  0  0  0  0  0
   49.0950   31.6330   48.5750 H   0  0  0  0  0  0  0  0  0  0  0  0
   47.7600   31.1160   49.6320 H   0  0  0  0  0  0  0  0  0  0  0  0
   47.2310   32.8330   48.2630 H   0  0  0  0  0  0  0  0  0  0  0  0
   45.8330   31.2490   47.8580 N   0  0  0  0  0  0  0  0  0  0  0  0
   45.1490   30.6860   48.9490 C   0  0  0  0  0  0  0  0  0  0  0  0
   44.5740   31.3920   49.8540 O   0  0  0  0  0  0  0  0  0  0  0  0
   45.1320   29.2590   48.9710 N   0  0  0  0  0  0  0  0  0  0  0  0
   45.2050   31.0890   46.9820 H   0  0  0  0  0  0  0  0  0  0  0  0
   45.4430   28.3960   49.4630 H   0  0  0  0  0  0  0  0  0  0  0  0
   44.7170   28.5070   48.3720 H   0  0  0  0  0  0  0  0  0  0  0  0
   47.2110   34.0500   42.1090 C   0  0  0  0  0  0  0  0  0  0  0  0
   48.0800   35.0760   41.8090 C   0  0  0  0  0  0  0  0  0  0  0  0
   48.5670   35.3580   40.5600 C   0  0  0  0  0  0  0  0  0  0  0  0
   48.1090   34.5040   39.5680 C   0  0  0  0  0  0  0  0  0  0  0  0
   47.2420   33.4740   39.8410 C   0  0  0  0  0  0  0  0  0  0  0  0
   46.7910   33.2460   41.1190 N   0  0  0  0  0  0  0  0  0  0  0  0
   48.3950   35.7030   42.6400 H   0  0  0  0  0  0  0  0  0  0  0  0
   49.2490   36.1740   40.3660 H   0  0  0  0  0  0  0  0  0  0  0  0
   48.4450   34.6560   38.5490 H   0  0  0  0  0  0  0  0  0  0  0  0
   46.7730   32.6010   38.8230 N   0  0  0  0  0  0  0  0  0  0  0  0
   47.0070   31.1770   38.8410 C   0  0  0  0  0  2  0  0  0  0  0  0
   46.8890   30.5610   37.4680 C   0  0  0  0  0  2  0  0  0  0  0  0
   47.4140   31.4820   36.3890 C   0  0  0  0  0  3  0  0  0  0  0  0
   48.5270   31.5520   36.4450 H   0  0  0  0  0  0  0  0  0  0  0  0
   46.8330   32.8550   36.4310 C   0  0  0  0  0  2  0  0  0  0  0  0
   46.0210   33.0840   37.6840 C   0  0  0  0  0  2  0  0  0  0  0  0
  1  2  1  0  0  0  0
  1  9  1  0  0  0  0
  2  7  1  0  0  0  0
  3  8  1  0  0  0  0
  3  2  2  0  0  0  0
  4  3  1  0  0  0  0
  5  4  2  0  0  0  0
  5  6  1  0  0  0  0
  6  1  2  0  0  0  0
  9 15  1  1  0  0  0
  9 14  1  0  0  0  0
 10  9  1  0  0  0  0
 10 11  1  0  0  0  0
 11 12  1  0  0  0  0
 12 21  1  0  0  0  0
 12 13  1  0  0  0  0
 12 20  1  0  0  0  0
 13 23  1  0  0  0  0
 14 25  1  0  0  0  0
 14 24  1  1  0  0  0
 14 13  1  0  0  0  0
 16 10  1  0  0  0  0
 17 10  1  0  0  0  0
 18 11  1  0  0  0  0
 19 11  1  0  0  0  0
 22 13  1  0  0  0  0
 25 26  1  0  0  0  0
 26 28  1  0  0  0  0
 26 27  2  0  0  0  0
 28 30  1  0  0  0  0
 29 25  1  0  0  0  0
 31 28  1  0  0  0  0
 32  5  1  0  0  0  0
 33 32  1  0  0  0  0
 33 38  1  0  0  0  0
 34 33  2  0  0  0  0
 35 36  2  0  0  0  0
 35 34  1  0  0  0  0
 36 37  1  0  0  0  0
 37 32  2  0  0  0  0
 39 34  1  0  0  0  0
 40 35  1  0  0  0  0
 41 42  1  0  0  0  0
 41 36  1  0  0  0  0
 43 42  1  0  0  0  0
 44 46  1  0  0  0  0
 44 45  1  0  0  0  0
 44 43  1  0  0  0  0
 46 47  1  0  0  0  0
 47 41  1  0  0  0  0
M  END
>  <minimizedAffinity>
-6.48089314

>  <minimizedRMSD>
0.335353881

$$$$
