
 OpenBabel03252507303D

 47 50  0  0  1  0  0  0  0  0999 V2000
   46.9430   32.8100   45.4630 C   0  0  0  0  0  0  0  0  0  0  0  0
   45.8410   33.4880   45.9670 C   0  0  0  0  0  0  0  0  0  0  0  0
   45.1620   34.4230   45.1490 C   0  0  0  0  0  0  0  0  0  0  0  0
   45.6670   34.6010   43.8630 N   0  0  0  0  0  0  0  0  0  0  0  0
   46.7350   33.9160   43.4420 C   0  0  0  0  0  0  0  0  0  0  0  0
   47.3600   33.0380   44.2250 N   0  0  0  0  0  0  0  0  0  0  0  0
   45.3190   33.5370   46.9020 H   0  0  0  0  0  0  0  0  0  0  0  0
   44.3180   35.0220   45.3570 H   0  0  0  0  0  0  0  0  0  0  0  0
   47.5890   31.8490   46.3330 C   0  0  2  0  0  0  0  0  0  0  0  0
   47.3640   30.3880   45.8370 C   0  0  0  0  0  0  0  0  0  0  0  0
   48.1920   29.4610   46.6630 C   0  0  0  0  0  0  0  0  0  0  0  0
   48.1490   29.6910   48.1370 C   0  0  0  0  0  0  0  0  0  0  0  0
   48.1230   31.0790   48.5220 C   0  0  0  0  0  0  0  0  0  0  0  0
   47.1320   31.9360   47.7060 C   0  0  2  0  0  0  0  0  0  0  0  0
   48.6960   31.9520   46.2420 H   0  0  0  0  0  0  0  0  0  0  0  0
   47.7310   30.4070   44.7910 H   0  0  0  0  0  0  0  0  0  0  0  0
   46.3090   30.1450   45.7790 H   0  0  0  0  0  0  0  0  0  0  0  0
   47.8220   28.4150   46.4960 H   0  0  0  0  0  0  0  0  0  0  0  0
   49.1980   29.4640   46.1960 H   0  0  0  0  0  0  0  0  0  0  0  0
   47.7760   28.8860   48.7720 H   0  0  0  0  0  0  0  0  0  0  0  0
   49.2610   29.4500   48.3850 H   0  0  0  0  0  0  0  0  0  0  0  0
   49.0750   31.6660   48.5030 H   0  0  0  0  0  0  0  0  0  0  0  0
   47.7440   31.1790   49.5780 H   0  0  0  0  0  0  0  0  0  0  0  0
   47.2310   32.8990   48.2070 H   0  0  0  0  0  0  0  0  0  0  0  0
   45.7980   31.3410   47.8260 N   0  0  0  0  0  0  0  0  0  0  0  0
   45.1390   30.7420   48.9150 C   0  0  0  0  0  0  0  0  0  0  0  0
   44.6140   31.4180   49.8710 O   0  0  0  0  0  0  0  0  0  0  0  0
   45.0900   29.3160   48.8710 N   0  0  0  0  0  0  0  0  0  0  0  0
   45.1360   31.2360   46.9680 H   0  0  0  0  0  0  0  0  0  0  0  0
   45.3960   28.4250   49.3110 H   0  0  0  0  0  0  0  0  0  0  0  0
   44.6360   28.6030   48.2530 H   0  0  0  0  0  0  0  0  0  0  0  0
   47.2260   34.1660   42.0820 C   0  0  0  0  0  0  0  0  0  0  0  0
   48.1710   35.1350   41.8320 C   0  0  0  0  0  0  0  0  0  0  0  0
   48.6850   35.4360   40.5970 C   0  0  0  0  0  0  0  0  0  0  0  0
   48.1680   34.6660   39.5660 C   0  0  0  0  0  0  0  0  0  0  0  0
   47.2240   33.6930   39.7910 C   0  0  0  0  0  0  0  0  0  0  0  0
   46.7500   33.4420   41.0570 N   0  0  0  0  0  0  0  0  0  0  0  0
   48.5300   35.6980   42.6910 H   0  0  0  0  0  0  0  0  0  0  0  0
   49.4280   36.2050   40.4420 H   0  0  0  0  0  0  0  0  0  0  0  0
   48.5200   34.8380   38.5560 H   0  0  0  0  0  0  0  0  0  0  0  0
   46.6940   32.9060   38.7330 N   0  0  0  0  0  0  0  0  0  0  0  0
   46.2700   33.4690   37.4730 C   0  0  0  0  0  2  0  0  0  0  0  0
   45.3020   32.5690   36.7440 C   0  0  0  0  0  2  0  0  0  0  0  0
   44.3710   31.8520   37.6940 C   0  0  0  0  0  3  0  0  0  0  0  0
   43.6350   32.5690   38.1330 H   0  0  0  0  0  0  0  0  0  0  0  0
   45.0720   31.1310   38.7970 C   0  0  0  0  0  2  0  0  0  0  0  0
   46.5430   31.4700   38.8460 C   0  0  0  0  0  2  0  0  0  0  0  0
  1  2  1  0  0  0  0
  1  9  1  0  0  0  0
  2  7  1  0  0  0  0
  3  8  1  0  0  0  0
  3  2  2  0  0  0  0
  4  3  1  0  0  0  0
  5  4  2  0  0  0  0
  5  6  1  0  0  0  0
  6  1  2  0  0  0  0
  9 15  1  6  0  0  0
  9 14  1  0  0  0  0
 10  9  1  0  0  0  0
 10 11  1  0  0  0  0
 11 12  1  0  0  0  0
 12 21  1  0  0  0  0
 12 13  1  0  0  0  0
 12 20  1  0  0  0  0
 13 23  1  0  0  0  0
 14 25  1  0  0  0  0
 14 24  1  1  0  0  0
 14 13  1  0  0  0  0
 16 10  1  0  0  0  0
 17 10  1  0  0  0  0
 18 11  1  0  0  0  0
 19 11  1  0  0  0  0
 22 13  1  0  0  0  0
 25 26  1  0  0  0  0
 26 27  2  0  0  0  0
 28 26  1  0  0  0  0
 28 30  1  0  0  0  0
 29 25  1  0  0  0  0
 31 28  1  0  0  0  0
 32  5  1  0  0  0  0
 33 32  1  0  0  0  0
 33 38  1  0  0  0  0
 34 33  2  0  0  0  0
 35 36  2  0  0  0  0
 35 34  1  0  0  0  0
 36 37  1  0  0  0  0
 37 32  2  0  0  0  0
 39 34  1  0  0  0  0
 40 35  1  0  0  0  0
 41 47  1  0  0  0  0
 41 36  1  0  0  0  0
 42 41  1  0  0  0  0
 43 42  1  0  0  0  0
 43 44  1  0  0  0  0
 44 45  1  0  0  0  0
 44 46  1  0  0  0  0
 46 47  1  0  0  0  0
M  END
>  <minimizedAffinity>
-6.56391525

>  <minimizedRMSD>
0.17179811

$$$$
