
 OpenBabel03252507303D

 47 50  0  0  1  0  0  0  0  0999 V2000
   46.9710   32.7530   45.4470 C   0  0  0  0  0  0  0  0  0  0  0  0
   45.8900   33.4470   45.9700 C   0  0  0  0  0  0  0  0  0  0  0  0
   45.1970   34.3770   45.1570 C   0  0  0  0  0  0  0  0  0  0  0  0
   45.6700   34.5330   43.8560 N   0  0  0  0  0  0  0  0  0  0  0  0
   46.7200   33.8320   43.4170 C   0  0  0  0  0  0  0  0  0  0  0  0
   47.3580   32.9590   44.1950 N   0  0  0  0  0  0  0  0  0  0  0  0
   45.3930   33.5140   46.9180 H   0  0  0  0  0  0  0  0  0  0  0  0
   44.3640   34.9860   45.3790 H   0  0  0  0  0  0  0  0  0  0  0  0
   47.6320   31.7970   46.3130 C   0  0  2  0  0  0  0  0  0  0  0  0
   47.4290   30.3350   45.8100 C   0  0  0  0  0  0  0  0  0  0  0  0
   48.2710   29.4170   46.6320 C   0  0  0  0  0  0  0  0  0  0  0  0
   48.2240   29.6400   48.1080 C   0  0  0  0  0  0  0  0  0  0  0  0
   48.1770   31.0260   48.4980 C   0  0  0  0  0  0  0  0  0  0  0  0
   47.1730   31.8700   47.6860 C   0  0  2  0  0  0  0  0  0  0  0  0
   48.7370   31.9170   46.2230 H   0  0  0  0  0  0  0  0  0  0  0  0
   47.7960   30.3640   44.7640 H   0  0  0  0  0  0  0  0  0  0  0  0
   46.3780   30.0760   45.7500 H   0  0  0  0  0  0  0  0  0  0  0  0
   47.9170   28.3660   46.4600 H   0  0  0  0  0  0  0  0  0  0  0  0
   49.2770   29.4380   46.1660 H   0  0  0  0  0  0  0  0  0  0  0  0
   47.8630   28.8270   48.7380 H   0  0  0  0  0  0  0  0  0  0  0  0
   49.3390   29.4150   48.3550 H   0  0  0  0  0  0  0  0  0  0  0  0
   49.1190   31.6270   48.4820 H   0  0  0  0  0  0  0  0  0  0  0  0
   47.7960   31.1150   49.5550 H   0  0  0  0  0  0  0  0  0  0  0  0
   47.2570   32.8330   48.1920 H   0  0  0  0  0  0  0  0  0  0  0  0
   45.8480   31.2550   47.8030 N   0  0  0  0  0  0  0  0  0  0  0  0
   45.1670   30.7100   48.9060 C   0  0  0  0  0  0  0  0  0  0  0  0
   44.5980   31.4330   49.8020 O   0  0  0  0  0  0  0  0  0  0  0  0
   45.1480   29.2840   48.9510 N   0  0  0  0  0  0  0  0  0  0  0  0
   45.2160   31.0820   46.9330 H   0  0  0  0  0  0  0  0  0  0  0  0
   45.4590   28.4290   49.4550 H   0  0  0  0  0  0  0  0  0  0  0  0
   44.7290   28.5230   48.3660 H   0  0  0  0  0  0  0  0  0  0  0  0
   47.1760   34.0590   42.0410 C   0  0  0  0  0  0  0  0  0  0  0  0
   48.1050   35.0330   41.7490 C   0  0  0  0  0  0  0  0  0  0  0  0
   48.5870   35.3130   40.4970 C   0  0  0  0  0  0  0  0  0  0  0  0
   48.0550   34.5160   39.4940 C   0  0  0  0  0  0  0  0  0  0  0  0
   47.1270   33.5380   39.7610 C   0  0  0  0  0  0  0  0  0  0  0  0
   46.6860   33.3080   41.0420 N   0  0  0  0  0  0  0  0  0  0  0  0
   48.4770   35.6170   42.5880 H   0  0  0  0  0  0  0  0  0  0  0  0
   49.3180   36.0870   40.3090 H   0  0  0  0  0  0  0  0  0  0  0  0
   48.3820   34.6710   38.4730 H   0  0  0  0  0  0  0  0  0  0  0  0
   46.5830   32.7230   38.7320 N   0  0  0  0  0  0  0  0  0  0  0  0
   45.5920   33.1980   37.7960 C   0  0  0  0  0  2  0  0  0  0  0  0
   44.8130   32.0690   37.1670 C   0  0  0  0  0  2  0  0  0  0  0  0
   44.5690   30.9380   38.1420 C   0  0  0  0  0  3  0  0  0  0  0  0
   43.8240   31.2440   38.9150 H   0  0  0  0  0  0  0  0  0  0  0  0
   45.8060   30.4490   38.8190 C   0  0  0  0  0  2  0  0  0  0  0  0
   46.9900   31.3460   38.5470 C   0  0  0  0  0  2  0  0  0  0  0  0
  1  2  1  0  0  0  0
  1  9  1  0  0  0  0
  2  7  1  0  0  0  0
  3  8  1  0  0  0  0
  3  2  2  0  0  0  0
  4  3  1  0  0  0  0
  5  4  2  0  0  0  0
  5  6  1  0  0  0  0
  6  1  2  0  0  0  0
  9 15  1  6  0  0  0
  9 14  1  0  0  0  0
 10  9  1  0  0  0  0
 10 11  1  0  0  0  0
 11 12  1  0  0  0  0
 12 21  1  0  0  0  0
 12 13  1  0  0  0  0
 12 20  1  0  0  0  0
 13 23  1  0  0  0  0
 14 25  1  0  0  0  0
 14 24  1  1  0  0  0
 14 13  1  0  0  0  0
 16 10  1  0  0  0  0
 17 10  1  0  0  0  0
 18 11  1  0  0  0  0
 19 11  1  0  0  0  0
 22 13  1  0  0  0  0
 25 26  1  0  0  0  0
 26 28  1  0  0  0  0
 26 27  2  0  0  0  0
 28 30  1  0  0  0  0
 29 25  1  0  0  0  0
 31 28  1  0  0  0  0
 32  5  1  0  0  0  0
 33 32  1  0  0  0  0
 33 38  1  0  0  0  0
 34 33  2  0  0  0  0
 35 36  2  0  0  0  0
 35 34  1  0  0  0  0
 36 37  1  0  0  0  0
 37 32  2  0  0  0  0
 39 34  1  0  0  0  0
 40 35  1  0  0  0  0
 41 36  1  0  0  0  0
 42 41  1  0  0  0  0
 43 42  1  0  0  0  0
 43 44  1  0  0  0  0
 44 46  1  0  0  0  0
 44 45  1  0  0  0  0
 47 41  1  0  0  0  0
 47 46  1  0  0  0  0
M  END
>  <minimizedAffinity>
-6.36956835

>  <minimizedRMSD>
0.275612444

$$$$
