
 OpenBabel03252508303D

 30 32  0  0  1  0  0  0  0  0999 V2000
   45.2200   33.8090   41.4030 N   0  0  0  0  0  0  0  0  0  0  0  0
   46.2620   33.2390   40.6320 C   0  0  1  0  0  0  0  0  0  0  0  0
   46.0480   33.2800   39.1640 C   0  0  0  0  0  0  0  0  0  0  0  0
   44.7510   32.9340   38.7560 N   0  0  0  0  0  0  0  0  0  0  0  0
   43.6850   33.3760   39.5600 C   0  0  0  0  0  0  0  0  0  0  0  0
   44.1400   34.3470   40.6290 C   0  0  0  0  0  0  0  0  0  0  0  0
   46.3110   32.1530   40.9090 H   0  0  0  0  0  0  0  0  0  0  0  0
   46.8080   32.6120   38.7010 H   0  0  0  0  0  0  0  0  0  0  0  0
   46.2850   34.2870   38.7090 H   0  0  0  0  0  0  0  0  0  0  0  0
   44.6000   32.7610   37.7650 H   0  0  0  0  0  0  0  0  0  0  0  0
   42.9210   33.9090   38.9450 H   0  0  0  0  0  0  0  0  0  0  0  0
   43.1270   32.5530   40.0920 H   0  0  0  0  0  0  0  0  0  0  0  0
   44.4260   35.3210   40.1320 H   0  0  0  0  0  0  0  0  0  0  0  0
   43.2280   34.5690   41.2130 H   0  0  0  0  0  0  0  0  0  0  0  0
   45.1290   35.0160   43.4670 C   0  0  0  0  0  0  0  0  0  0  0  0
   45.3260   33.8030   42.8150 C   0  0  0  0  0  0  0  0  0  0  0  0
   45.6110   32.6950   43.5930 C   0  0  0  0  0  0  0  0  0  0  0  0
   45.6950   32.7920   44.9470 N   0  0  0  0  0  0  0  0  0  0  0  0
   45.4940   34.0060   45.5440 C   0  0  0  0  0  0  0  0  0  0  0  0
   45.2140   35.1000   44.8070 N   0  0  0  0  0  0  0  0  0  0  0  0
   44.9020   35.9830   43.0450 H   0  0  0  0  0  0  0  0  0  0  0  0
   45.7630   31.7430   43.1100 H   0  0  0  0  0  0  0  0  0  0  0  0
   45.5950   33.9140   46.6160 H   0  0  0  0  0  0  0  0  0  0  0  0
   47.5770   33.7530   40.9520 N   0  0  0  0  0  0  0  0  0  0  0  0
   48.3810   32.9290   41.7860 C   0  0  0  0  0  0  0  0  0  0  0  0
   48.9340   33.6810   42.9650 C   0  0  0  0  0  0  0  0  0  0  0  0
   49.6360   34.9550   42.5610 C   0  0  0  0  0  0  0  0  0  0  0  0
   49.6270   35.6460   43.4290 H   0  0  0  0  0  0  0  0  0  0  0  0
   48.9120   35.6630   41.4330 C   0  0  0  0  0  0  0  0  0  0  0  0
   47.4830   35.1180   41.4330 C   0  0  0  0  0  0  0  0  0  0  0  0
  1 16  1  0  0  0  0
  2  7  1  1  0  0  0
  2 24  1  0  0  0  0
  2  1  1  0  0  0  0
  3  2  1  0  0  0  0
  4  3  1  0  0  0  0
  4  5  1  0  0  0  0
  5 12  1  0  0  0  0
  5  6  1  0  0  0  0
  6 14  1  0  0  0  0
  6  1  1  0  0  0  0
  8  3  1  0  0  0  0
  9  3  1  0  0  0  0
 10  4  1  0  0  0  0
 11  5  1  0  0  0  0
 13  6  1  0  0  0  0
 15 20  1  0  0  0  0
 16 15  2  0  0  0  0
 16 17  1  0  0  0  0
 17 18  2  0  0  0  0
 18 19  1  0  0  0  0
 19 23  1  0  0  0  0
 20 19  2  0  0  0  0
 21 15  1  0  0  0  0
 22 17  1  0  0  0  0
 24 30  1  0  0  0  0
 24 25  1  0  0  0  0
 25 26  1  0  0  0  0
 27 26  1  0  0  0  0
 27 28  1  0  0  0  0
 29 27  1  0  0  0  0
 30 29  1  0  0  0  0
M  END
>  <minimizedAffinity>
-4.61334658

>  <minimizedRMSD>
2.37350988

$$$$
