
 OpenBabel03252505533D

 31 33  0  0  0  0  0  0  0  0999 V2000
   45.3960   31.2830   47.7530 C   0  0  0  0  0  0  0  0  0  0  0  0
   44.7960   31.0570   46.8380 H   0  0  0  0  0  0  0  0  0  0  0  0
   44.7580   31.1870   48.6570 H   0  0  0  0  0  0  0  0  0  0  0  0
   46.5980   30.4560   47.7780 C   0  0  0  0  0  0  0  0  0  0  0  0
   46.9350   29.3390   47.0340 C   0  0  0  0  0  0  0  0  0  0  0  0
   48.1270   28.7270   47.2360 C   0  0  0  0  0  0  0  0  0  0  0  0
   48.9950   29.1850   48.1510 N   0  0  0  0  0  0  0  0  0  0  0  0
   48.6780   30.2660   48.8750 C   0  0  0  0  0  0  0  0  0  0  0  0
   47.4930   30.9060   48.7040 N   0  0  0  0  0  0  0  0  0  0  0  0
   46.1680   29.0650   46.3370 H   0  0  0  0  0  0  0  0  0  0  0  0
   48.2900   27.8660   46.6030 H   0  0  0  0  0  0  0  0  0  0  0  0
   49.6250   30.7230   49.8390 N   0  0  0  0  0  0  0  0  0  0  0  0
   50.1510   32.0620   49.7000 C   0  0  0  0  0  0  0  0  0  0  0  0
   51.4010   32.1370   50.5450 C   0  0  0  0  0  0  0  0  0  0  0  0
   52.2490   30.9160   50.4470 C   0  0  0  0  0  0  0  0  0  0  0  0
   52.7730   30.9310   49.4610 H   0  0  0  0  0  0  0  0  0  0  0  0
   51.5470   29.6210   50.7060 C   0  0  0  0  0  0  0  0  0  0  0  0
   50.0770   29.8990   50.9460 C   0  0  0  0  0  0  0  0  0  0  0  0
   45.7990   32.6290   47.6660 O   0  0  0  0  0  0  0  0  0  0  0  0
   44.9430   34.9520   45.0980 C   0  0  0  0  0  0  0  0  0  0  0  0
   45.8200   34.6450   44.0610 C   0  0  0  0  0  0  0  0  0  0  0  0
   46.7320   33.5970   44.2750 C   0  0  0  0  0  0  0  0  0  0  0  0
   46.7120   32.9500   45.4580 N   0  0  0  0  0  0  0  0  0  0  0  0
   45.8380   33.2840   46.4380 C   0  0  0  0  0  0  0  0  0  0  0  0
   44.9560   34.2770   46.2690 N   0  0  0  0  0  0  0  0  0  0  0  0
   44.2180   35.7490   44.9900 H   0  0  0  0  0  0  0  0  0  0  0  0
   47.4030   33.3670   43.4740 H   0  0  0  0  0  0  0  0  0  0  0  0
   45.7360   35.4430   42.8020 C   0  0  0  0  0  0  0  0  0  0  0  0
   45.2570   36.6800   43.1930 F   0  0  0  0  0  0  0  0  0  0  0  0
   44.7910   34.7910   41.9960 F   0  0  0  0  0  0  0  0  0  0  0  0
   46.9680   35.4970   42.2320 F   0  0  0  0  0  0  0  0  0  0  0  0
  1  4  1  0  0  0  0
  1  3  1  0  0  0  0
  2  1  1  0  0  0  0
  4  9  1  0  0  0  0
  5  6  1  0  0  0  0
  5  4  2  0  0  0  0
  6  7  2  0  0  0  0
  7  8  1  0  0  0  0
  8 12  1  0  0  0  0
  9  8  2  0  0  0  0
 10  5  1  0  0  0  0
 11  6  1  0  0  0  0
 12 18  1  0  0  0  0
 13 12  1  0  0  0  0
 13 14  1  0  0  0  0
 15 14  1  0  0  0  0
 15 17  1  0  0  0  0
 16 15  1  0  0  0  0
 17 18  1  0  0  0  0
 19  1  1  0  0  0  0
 20 25  1  0  0  0  0
 21 22  1  0  0  0  0
 21 20  2  0  0  0  0
 22 23  2  0  0  0  0
 23 24  1  0  0  0  0
 24 19  1  0  0  0  0
 25 24  2  0  0  0  0
 26 20  1  0  0  0  0
 27 22  1  0  0  0  0
 28 29  1  0  0  0  0
 28 21  1  0  0  0  0
 30 28  1  0  0  0  0
 31 28  1  0  0  0  0
M  END
>  <minimizedAffinity>
-5.84789515

>  <minimizedRMSD>
0.798220217

$$$$
