
 OpenBabel03252509253D

 28 30  0  0  1  0  0  0  0  0999 V2000
   46.5520   35.0870   41.9160 C   0  0  1  0  0  0  0  0  0  0  0  0
   48.0860   35.3560   41.9260 C   0  0  0  0  0  0  0  0  0  0  0  0
   47.3840   34.1340   41.3050 C   0  0  2  0  0  0  0  0  0  0  0  0
   45.9920   35.8560   41.3610 H   0  0  0  0  0  0  0  0  0  0  0  0
   48.4420   36.1270   41.1970 H   0  0  0  0  0  0  0  0  0  0  0  0
   48.6390   35.2630   42.8510 H   0  0  0  0  0  0  0  0  0  0  0  0
   47.7560   33.1910   41.8080 H   0  0  0  0  0  0  0  0  0  0  0  0
   44.6780   35.3820   45.1560 C   0  0  0  0  0  0  0  0  0  0  0  0
   45.1340   35.7050   43.8510 C   0  0  0  0  0  0  0  0  0  0  0  0
   46.0560   34.8650   43.3250 C   0  0  0  0  0  0  0  0  0  0  0  0
   46.5250   33.7650   44.0190 N   0  0  0  0  0  0  0  0  0  0  0  0
   46.0710   33.4850   45.2580 C   0  0  0  0  0  0  0  0  0  0  0  0
   45.1380   34.3030   45.8320 N   0  0  0  0  0  0  0  0  0  0  0  0
   43.9420   36.0410   45.5870 H   0  0  0  0  0  0  0  0  0  0  0  0
   46.4650   32.6200   45.7600 H   0  0  0  0  0  0  0  0  0  0  0  0
   44.6790   36.8480   43.1490 N   0  0  0  0  0  0  0  0  0  0  0  0
   43.6990   37.2110   43.0440 H   0  0  0  0  0  0  0  0  0  0  0  0
   45.3810   37.4410   42.6540 H   0  0  0  0  0  0  0  0  0  0  0  0
   47.4230   33.9650   39.8040 C   0  0  0  0  0  0  0  0  0  0  0  0
   46.3950   34.1300   39.4130 H   0  0  0  0  0  0  0  0  0  0  0  0
   48.0840   34.6930   39.3070 H   0  0  0  0  0  0  0  0  0  0  0  0
   47.7740   32.5950   39.4820 N   0  0  0  0  0  0  0  0  0  0  0  0
   47.4010   32.2760   38.1350 C   0  0  0  0  0  2  0  0  0  0  0  0
   47.3500   30.8060   37.8800 C   0  0  0  0  0  2  0  0  0  0  0  0
   48.0290   30.0590   39.0280 C   0  0  0  0  0  3  0  0  0  0  0  0
   48.0960   28.9800   38.7890 H   0  0  0  0  0  0  0  0  0  0  0  0
   47.1540   30.3160   40.2310 C   0  0  0  0  0  2  0  0  0  0  0  0
   47.0060   31.7880   40.4120 C   0  0  0  0  0  2  0  0  0  0  0  0
  1  4  1  6  0  0  0
  1  2  1  0  0  0  0
  1 10  1  0  0  0  0
  2  6  1  0  0  0  0
  3  7  1  1  0  0  0
  3  1  1  0  0  0  0
  3  2  1  0  0  0  0
  5  2  1  0  0  0  0
  8 14  1  0  0  0  0
  8 13  1  0  0  0  0
  9  8  2  0  0  0  0
 10  9  1  0  0  0  0
 10 11  2  0  0  0  0
 11 12  1  0  0  0  0
 12 15  1  0  0  0  0
 12 13  2  0  0  0  0
 16  9  1  0  0  0  0
 17 16  1  0  0  0  0
 18 16  1  0  0  0  0
 19  3  1  0  0  0  0
 20 19  1  0  0  0  0
 21 19  1  0  0  0  0
 22 19  1  0  0  0  0
 22 28  1  0  0  0  0
 23 22  1  0  0  0  0
 24 23  1  0  0  0  0
 24 25  1  0  0  0  0
 25 27  1  0  0  0  0
 26 25  1  0  0  0  0
 27 28  1  0  0  0  0
M  END
>  <minimizedAffinity>
-4.29312086

>  <minimizedRMSD>
2.37013197

$$$$
