
 OpenBabel03252509253D

 28 30  0  0  1  0  0  0  0  0999 V2000
   46.6830   35.1460   41.9200 C   0  0  1  0  0  0  0  0  0  0  0  0
   48.2090   35.4480   41.9770 C   0  0  0  0  0  0  0  0  0  0  0  0
   47.5510   34.2270   41.3070 C   0  0  2  0  0  0  0  0  0  0  0  0
   46.1200   35.9170   41.3700 H   0  0  0  0  0  0  0  0  0  0  0  0
   48.5670   36.2460   41.2770 H   0  0  0  0  0  0  0  0  0  0  0  0
   48.7410   35.3440   42.9140 H   0  0  0  0  0  0  0  0  0  0  0  0
   47.9320   33.2800   41.7960 H   0  0  0  0  0  0  0  0  0  0  0  0
   44.7040   35.3000   45.1070 C   0  0  0  0  0  0  0  0  0  0  0  0
   45.1840   35.6660   43.8220 C   0  0  0  0  0  0  0  0  0  0  0  0
   46.1570   34.8770   43.3100 C   0  0  0  0  0  0  0  0  0  0  0  0
   46.6520   33.7850   43.9980 N   0  0  0  0  0  0  0  0  0  0  0  0
   46.1750   33.4630   45.2180 C   0  0  0  0  0  0  0  0  0  0  0  0
   45.1910   34.2300   45.7780 N   0  0  0  0  0  0  0  0  0  0  0  0
   43.9280   35.9190   45.5270 H   0  0  0  0  0  0  0  0  0  0  0  0
   46.5910   32.6060   45.7160 H   0  0  0  0  0  0  0  0  0  0  0  0
   44.7000   36.8020   43.1270 N   0  0  0  0  0  0  0  0  0  0  0  0
   43.7090   37.1240   42.9980 H   0  0  0  0  0  0  0  0  0  0  0  0
   45.3900   37.4340   42.6630 H   0  0  0  0  0  0  0  0  0  0  0  0
   47.6330   34.0990   39.8030 C   0  0  0  0  0  0  0  0  0  0  0  0
   46.9450   34.8500   39.3570 H   0  0  0  0  0  0  0  0  0  0  0  0
   48.6410   34.3010   39.4090 H   0  0  0  0  0  0  0  0  0  0  0  0
   47.1380   32.7950   39.4040 N   0  0  0  0  0  0  0  0  0  0  0  0
   45.7130   32.8200   39.2370 C   0  0  0  0  0  2  0  0  0  0  0  0
   45.1070   31.4550   39.2380 C   0  0  0  0  0  2  0  0  0  0  0  0
   46.2040   30.4020   39.0830 C   0  0  0  0  0  3  0  0  0  0  0  0
   45.7490   29.3980   38.9680 H   0  0  0  0  0  0  0  0  0  0  0  0
   47.0230   30.5070   40.3470 C   0  0  0  0  0  2  0  0  0  0  0  0
   47.4930   31.9140   40.5010 C   0  0  0  0  0  2  0  0  0  0  0  0
  1  4  1  6  0  0  0
  1  2  1  0  0  0  0
  1 10  1  0  0  0  0
  2  6  1  0  0  0  0
  3  7  1  1  0  0  0
  3  1  1  0  0  0  0
  3  2  1  0  0  0  0
  5  2  1  0  0  0  0
  8 14  1  0  0  0  0
  8 13  1  0  0  0  0
  9  8  2  0  0  0  0
 10  9  1  0  0  0  0
 10 11  2  0  0  0  0
 11 12  1  0  0  0  0
 12 15  1  0  0  0  0
 12 13  2  0  0  0  0
 16  9  1  0  0  0  0
 17 16  1  0  0  0  0
 18 16  1  0  0  0  0
 19  3  1  0  0  0  0
 20 19  1  0  0  0  0
 21 19  1  0  0  0  0
 22 19  1  0  0  0  0
 22 28  1  0  0  0  0
 23 24  1  0  0  0  0
 23 22  1  0  0  0  0
 25 24  1  0  0  0  0
 25 27  1  0  0  0  0
 26 25  1  0  0  0  0
 27 28  1  0  0  0  0
M  END
>  <minimizedAffinity>
-4.30674458

>  <minimizedRMSD>
1.65937972

$$$$
