
 OpenBabel03252508273D

 39 43  0  0  1  0  0  0  0  0999 V2000
   38.4880   29.3660   42.6200 C   0  0  1  0  0  0  0  0  0  0  0  0
   37.5670   29.0110   43.7090 C   0  0  0  0  0  0  0  0  0  0  0  0
   37.8940   28.0490   42.4990 C   0  0  2  0  0  0  0  0  0  0  0  0
   39.4850   29.6020   43.1420 H   0  0  0  0  0  0  0  0  0  0  0  0
   36.5430   29.4130   43.7670 H   0  0  0  0  0  0  0  0  0  0  0  0
   37.8750   28.5250   44.6500 H   0  0  0  0  0  0  0  0  0  0  0  0
   36.8590   27.8600   42.0840 H   0  0  0  0  0  0  0  0  0  0  0  0
   38.5880   26.7830   42.7450 C   0  0  0  0  0  0  0  0  0  0  0  0
   39.6530   26.5700   43.5660 C   0  0  0  0  0  0  0  0  0  0  0  0
   40.3720   25.3870   43.6810 C   0  0  0  0  0  0  0  0  0  0  0  0
   39.9460   24.3220   42.8650 C   0  0  0  0  0  0  0  0  0  0  0  0
   38.8550   24.5080   42.0150 C   0  0  0  0  0  0  0  0  0  0  0  0
   38.4340   23.4170   41.2790 C   0  0  0  0  0  0  0  0  0  0  0  0
   37.3120   23.5390   40.4750 C   0  0  0  0  0  0  0  0  0  0  0  0
   36.6180   24.7310   40.4100 C   0  0  0  0  0  0  0  0  0  0  0  0
   37.0810   25.7870   41.1610 C   0  0  0  0  0  0  0  0  0  0  0  0
   38.1990   25.7180   41.9700 C   0  0  0  0  0  0  0  0  0  0  0  0
   39.9470   27.4180   44.1760 H   0  0  0  0  0  0  0  0  0  0  0  0
   41.2090   25.2870   44.3540 H   0  0  0  0  0  0  0  0  0  0  0  0
   40.4680   23.3890   42.9120 H   0  0  0  0  0  0  0  0  0  0  0  0
   38.9990   22.4900   41.3530 H   0  0  0  0  0  0  0  0  0  0  0  0
   37.0720   22.6090   39.9360 H   0  0  0  0  0  0  0  0  0  0  0  0
   35.7830   24.6270   39.7420 H   0  0  0  0  0  0  0  0  0  0  0  0
   36.3540   26.5340   41.0120 H   0  0  0  0  0  0  0  0  0  0  0  0
   36.5360   31.4730   40.3060 C   0  0  0  0  0  0  0  0  0  0  0  0
   37.5400   32.3370   39.7470 C   0  0  0  0  0  0  0  0  0  0  0  0
   38.8830   32.1540   40.2130 C   0  0  0  0  0  0  0  0  0  0  0  0
   39.1460   31.2180   41.1240 N   0  0  0  0  0  0  0  0  0  0  0  0
   38.1380   30.4180   41.6260 C   0  0  0  0  0  0  0  0  0  0  0  0
   36.8770   30.5470   41.2250 N   0  0  0  0  0  0  0  0  0  0  0  0
   35.5360   31.6240   39.9450 H   0  0  0  0  0  0  0  0  0  0  0  0
   37.2890   33.0750   39.0200 H   0  0  0  0  0  0  0  0  0  0  0  0
   39.8520   33.0180   39.6420 N   0  0  0  0  0  0  0  0  0  0  0  0
   40.6470   32.5750   38.5150 C   0  0  0  0  0  2  0  0  0  0  0  0
   41.5990   33.7130   38.1650 C   0  0  0  0  0  2  0  0  0  0  0  0
   42.3900   34.2060   39.3310 C   0  0  0  0  0  3  0  0  0  0  0  0
   42.7610   35.2320   39.0580 H   0  0  0  0  0  0  0  0  0  0  0  0
   41.5460   34.3770   40.5750 C   0  0  0  0  0  2  0  0  0  0  0  0
   40.0950   34.3570   40.1400 C   0  0  0  0  0  2  0  0  0  0  0  0
  1  4  1  1  0  0  0
  1  2  1  0  0  0  0
  2  5  1  0  0  0  0
  2  6  1  0  0  0  0
  3  7  1  6  0  0  0
  3  1  1  0  0  0  0
  3  8  1  0  0  0  0
  3  2  1  0  0  0  0
  8  9  1  0  0  0  0
  9 10  2  0  0  0  0
  9 18  1  0  0  0  0
 10 19  1  0  0  0  0
 11 20  1  0  0  0  0
 11 10  1  0  0  0  0
 12 11  2  0  0  0  0
 13 21  1  0  0  0  0
 13 12  1  0  0  0  0
 14 13  2  0  0  0  0
 15 14  1  0  0  0  0
 15 16  2  0  0  0  0
 16 17  1  0  0  0  0
 17 12  1  0  0  0  0
 17  8  2  0  0  0  0
 22 14  1  0  0  0  0
 23 15  1  0  0  0  0
 24 16  1  0  0  0  0
 25 30  1  0  0  0  0
 26 27  1  0  0  0  0
 26 25  2  0  0  0  0
 27 28  2  0  0  0  0
 28 29  1  0  0  0  0
 29  1  1  0  0  0  0
 30 29  2  0  0  0  0
 31 25  1  0  0  0  0
 32 26  1  0  0  0  0
 33 39  1  0  0  0  0
 33 27  1  0  0  0  0
 34 33  1  0  0  0  0
 35 34  1  0  0  0  0
 35 36  1  0  0  0  0
 36 38  1  0  0  0  0
 37 36  1  0  0  0  0
 39 38  1  0  0  0  0
M  END
>  <minimizedAffinity>
-6.85248709

$$$$

 OpenBabel03252508273D

 39 43  0  0  1  0  0  0  0  0999 V2000
   37.7070   31.5290   40.9790 C   0  0  1  0  0  0  0  0  0  0  0  0
   36.5690   31.0890   40.1590 C   0  0  0  0  0  0  0  0  0  0  0  0
   37.7290   30.1230   40.6270 C   0  0  2  0  0  0  0  0  0  0  0  0
   37.2340   31.9720   41.9280 H   0  0  0  0  0  0  0  0  0  0  0  0
   36.5020   31.3070   39.0810 H   0  0  0  0  0  0  0  0  0  0  0  0
   35.6110   30.7290   40.5690 H   0  0  0  0  0  0  0  0  0  0  0  0
   38.0970   29.7280   39.6330 H   0  0  0  0  0  0  0  0  0  0  0  0
   37.4290   29.0180   41.5400 C   0  0  0  0  0  0  0  0  0  0  0  0
   37.3860   29.0590   42.9000 C   0  0  0  0  0  0  0  0  0  0  0  0
   37.2270   27.9680   43.7450 C   0  0  0  0  0  0  0  0  0  0  0  0
   37.1020   26.7130   43.1190 C   0  0  0  0  0  0  0  0  0  0  0  0
   37.1390   26.6390   41.7260 C   0  0  0  0  0  0  0  0  0  0  0  0
   36.9490   25.3950   41.1540 C   0  0  0  0  0  0  0  0  0  0  0  0
   36.9090   25.2890   39.7730 C   0  0  0  0  0  0  0  0  0  0  0  0
   37.0520   26.4060   38.9750 C   0  0  0  0  0  0  0  0  0  0  0  0
   37.2400   27.6200   39.5950 C   0  0  0  0  0  0  0  0  0  0  0  0
   37.2970   27.7770   40.9670 C   0  0  0  0  0  0  0  0  0  0  0  0
   37.4870   30.0460   43.3400 H   0  0  0  0  0  0  0  0  0  0  0  0
   37.2020   28.0710   44.8190 H   0  0  0  0  0  0  0  0  0  0  0  0
   36.9810   25.8390   43.7250 H   0  0  0  0  0  0  0  0  0  0  0  0
   36.8370   24.5330   41.8090 H   0  0  0  0  0  0  0  0  0  0  0  0
   36.7560   24.2530   39.4320 H   0  0  0  0  0  0  0  0  0  0  0  0
   36.9890   26.1220   37.9410 H   0  0  0  0  0  0  0  0  0  0  0  0
   37.2360   28.3080   38.7980 H   0  0  0  0  0  0  0  0  0  0  0  0
   39.7540   34.5360   40.3660 C   0  0  0  0  0  0  0  0  0  0  0  0
   40.6590   34.0950   39.3400 C   0  0  0  0  0  0  0  0  0  0  0  0
   40.5240   32.7380   38.8990 C   0  0  0  0  0  0  0  0  0  0  0  0
   39.5930   31.9550   39.4410 N   0  0  0  0  0  0  0  0  0  0  0  0
   38.7520   32.4360   40.4250 C   0  0  0  0  0  0  0  0  0  0  0  0
   38.8360   33.6860   40.8680 N   0  0  0  0  0  0  0  0  0  0  0  0
   39.8680   35.5560   40.6840 H   0  0  0  0  0  0  0  0  0  0  0  0
   41.3920   34.7530   38.9320 H   0  0  0  0  0  0  0  0  0  0  0  0
   41.4300   32.3310   37.8850 N   0  0  0  0  0  0  0  0  0  0  0  0
   41.4990   30.9400   37.4900 C   0  0  0  0  0  2  0  0  0  0  0  0
   42.5750   30.8340   36.4150 C   0  0  0  0  0  2  0  0  0  0  0  0
   43.8810   31.4340   36.8200 C   0  0  0  0  0  3  0  0  0  0  0  0
   44.4550   31.6260   35.8720 H   0  0  0  0  0  0  0  0  0  0  0  0
   43.7180   32.7780   37.4960 C   0  0  0  0  0  2  0  0  0  0  0  0
   42.3110   33.2590   37.2060 C   0  0  0  0  0  2  0  0  0  0  0  0
  1  4  1  1  0  0  0
  2  6  1  0  0  0  0
  2  3  1  0  0  0  0
  2  1  1  0  0  0  0
  3  7  1  6  0  0  0
  3  1  1  0  0  0  0
  3  8  1  0  0  0  0
  5  2  1  0  0  0  0
  8  9  1  0  0  0  0
  9 18  1  0  0  0  0
  9 10  2  0  0  0  0
 10 19  1  0  0  0  0
 11 20  1  0  0  0  0
 11 10  1  0  0  0  0
 12 11  2  0  0  0  0
 13 12  1  0  0  0  0
 13 21  1  0  0  0  0
 14 13  2  0  0  0  0
 15 16  2  0  0  0  0
 15 14  1  0  0  0  0
 16 17  1  0  0  0  0
 17  8  2  0  0  0  0
 17 12  1  0  0  0  0
 22 14  1  0  0  0  0
 23 15  1  0  0  0  0
 24 16  1  0  0  0  0
 25 31  1  0  0  0  0
 25 30  1  0  0  0  0
 26 25  2  0  0  0  0
 27 26  1  0  0  0  0
 27 28  2  0  0  0  0
 28 29  1  0  0  0  0
 29 30  2  0  0  0  0
 29  1  1  0  0  0  0
 32 26  1  0  0  0  0
 33 27  1  0  0  0  0
 34 33  1  0  0  0  0
 35 36  1  0  0  0  0
 35 34  1  0  0  0  0
 36 38  1  0  0  0  0
 37 36  1  0  0  0  0
 39 38  1  0  0  0  0
 39 33  1  0  0  0  0
M  END
>  <minimizedAffinity>
-6.46634102

$$$$

 OpenBabel03252508273D

 39 43  0  0  1  0  0  0  0  0999 V2000
   38.7850   29.3660   41.8380 C   0  0  1  0  0  0  0  0  0  0  0  0
   38.4130   29.4860   43.2540 C   0  0  0  0  0  0  0  0  0  0  0  0
   38.0250   28.2460   42.3550 C   0  0  2  0  0  0  0  0  0  0  0  0
   39.9320   29.4460   41.8270 H   0  0  0  0  0  0  0  0  0  0  0  0
   37.5900   30.1360   43.5930 H   0  0  0  0  0  0  0  0  0  0  0  0
   39.0400   29.1410   44.0930 H   0  0  0  0  0  0  0  0  0  0  0  0
   36.8990   28.2430   42.4600 H   0  0  0  0  0  0  0  0  0  0  0  0
   38.5730   26.9240   42.6660 C   0  0  0  0  0  0  0  0  0  0  0  0
   39.5450   26.6240   43.5710 C   0  0  0  0  0  0  0  0  0  0  0  0
   40.1370   25.3810   43.7530 C   0  0  0  0  0  0  0  0  0  0  0  0
   39.6770   24.3480   42.9130 C   0  0  0  0  0  0  0  0  0  0  0  0
   38.6790   24.6230   41.9770 C   0  0  0  0  0  0  0  0  0  0  0  0
   38.2160   23.5650   41.2190 C   0  0  0  0  0  0  0  0  0  0  0  0
   37.1770   23.7800   40.3270 C   0  0  0  0  0  0  0  0  0  0  0  0
   36.6080   25.0300   40.1970 C   0  0  0  0  0  0  0  0  0  0  0  0
   37.1080   26.0500   40.9730 C   0  0  0  0  0  0  0  0  0  0  0  0
   38.1470   25.8890   41.8700 C   0  0  0  0  0  0  0  0  0  0  0  0
   39.8690   27.4500   44.1960 H   0  0  0  0  0  0  0  0  0  0  0  0
   40.9040   25.2120   44.4920 H   0  0  0  0  0  0  0  0  0  0  0  0
   40.1020   23.3710   43.0100 H   0  0  0  0  0  0  0  0  0  0  0  0
   38.6830   22.5900   41.3450 H   0  0  0  0  0  0  0  0  0  0  0  0
   36.8940   22.8690   39.7770 H   0  0  0  0  0  0  0  0  0  0  0  0
   35.8220   24.9960   39.4650 H   0  0  0  0  0  0  0  0  0  0  0  0
   36.4700   26.8600   40.7610 H   0  0  0  0  0  0  0  0  0  0  0  0
   37.6260   32.3840   40.0610 C   0  0  0  0  0  0  0  0  0  0  0  0
   36.9880   31.8360   38.8960 C   0  0  0  0  0  0  0  0  0  0  0  0
   36.9940   30.4080   38.7670 C   0  0  0  0  0  0  0  0  0  0  0  0
   37.5760   29.6610   39.7040 N   0  0  0  0  0  0  0  0  0  0  0  0
   38.1740   30.2470   40.8020 C   0  0  0  0  0  0  0  0  0  0  0  0
   38.1940   31.5650   40.9690 N   0  0  0  0  0  0  0  0  0  0  0  0
   37.6110   33.4550   40.1420 H   0  0  0  0  0  0  0  0  0  0  0  0
   36.5340   32.4680   38.1670 H   0  0  0  0  0  0  0  0  0  0  0  0
   36.3560   29.8960   37.6080 N   0  0  0  0  0  0  0  0  0  0  0  0
   35.0850   29.2110   37.7220 C   0  0  0  0  0  2  0  0  0  0  0  0
   34.6900   28.7660   36.3190 C   0  0  0  0  0  2  0  0  0  0  0  0
   35.7570   27.9890   35.6200 C   0  0  0  0  0  3  0  0  0  0  0  0
   35.5190   28.0310   34.5210 H   0  0  0  0  0  0  0  0  0  0  0  0
   37.1270   28.6090   35.7820 C   0  0  0  0  0  2  0  0  0  0  0  0
   36.9240   30.0240   36.2810 C   0  0  0  0  0  2  0  0  0  0  0  0
  1  4  1  6  0  0  0
  1  3  1  0  0  0  0
  1  2  1  0  0  0  0
  2  5  1  0  0  0  0
  2  6  1  0  0  0  0
  3  7  1  6  0  0  0
  3  8  1  0  0  0  0
  3  2  1  0  0  0  0
  8  9  1  0  0  0  0
  9 10  2  0  0  0  0
  9 18  1  0  0  0  0
 10 19  1  0  0  0  0
 11 20  1  0  0  0  0
 11 10  1  0  0  0  0
 12 11  2  0  0  0  0
 13 21  1  0  0  0  0
 13 12  1  0  0  0  0
 14 13  2  0  0  0  0
 15 14  1  0  0  0  0
 15 16  2  0  0  0  0
 16 17  1  0  0  0  0
 17 12  1  0  0  0  0
 17  8  2  0  0  0  0
 22 14  1  0  0  0  0
 23 15  1  0  0  0  0
 24 16  1  0  0  0  0
 25 31  1  0  0  0  0
 25 30  1  0  0  0  0
 26 25  2  0  0  0  0
 27 26  1  0  0  0  0
 27 28  2  0  0  0  0
 28 29  1  0  0  0  0
 29 30  2  0  0  0  0
 29  1  1  0  0  0  0
 32 26  1  0  0  0  0
 33 34  1  0  0  0  0
 33 27  1  0  0  0  0
 35 34  1  0  0  0  0
 36 38  1  0  0  0  0
 36 35  1  0  0  0  0
 37 36  1  0  0  0  0
 38 39  1  0  0  0  0
 39 33  1  0  0  0  0
M  END
>  <minimizedAffinity>
-6.45018005

$$$$

 OpenBabel03252508273D

 39 43  0  0  1  0  0  0  0  0999 V2000
   36.0010   28.8860   39.4770 C   0  0  1  0  0  0  0  0  0  0  0  0
   35.4570   29.8630   40.4310 C   0  0  0  0  0  0  0  0  0  0  0  0
   35.9480   28.4200   40.8480 C   0  0  2  0  0  0  0  0  0  0  0  0
   36.8950   29.4180   38.9870 H   0  0  0  0  0  0  0  0  0  0  0  0
   34.3780   30.0680   40.5110 H   0  0  0  0  0  0  0  0  0  0  0  0
   36.0620   30.6170   40.9600 H   0  0  0  0  0  0  0  0  0  0  0  0
   35.0160   28.0060   41.3380 H   0  0  0  0  0  0  0  0  0  0  0  0
   37.1030   28.2750   41.7380 C   0  0  0  0  0  0  0  0  0  0  0  0
   37.8340   29.2700   42.3110 C   0  0  0  0  0  0  0  0  0  0  0  0
   39.0020   29.1070   43.0450 C   0  0  0  0  0  0  0  0  0  0  0  0
   39.4570   27.7830   43.1960 C   0  0  0  0  0  0  0  0  0  0  0  0
   38.7290   26.7410   42.6220 C   0  0  0  0  0  0  0  0  0  0  0  0
   39.1800   25.4540   42.8490 C   0  0  0  0  0  0  0  0  0  0  0  0
   38.4460   24.3870   42.3550 C   0  0  0  0  0  0  0  0  0  0  0  0
   37.2800   24.6000   41.6500 C   0  0  0  0  0  0  0  0  0  0  0  0
   36.8760   25.9000   41.4490 C   0  0  0  0  0  0  0  0  0  0  0  0
   37.5760   26.9980   41.9130 C   0  0  0  0  0  0  0  0  0  0  0  0
   37.4460   30.2740   42.1690 H   0  0  0  0  0  0  0  0  0  0  0  0
   39.5330   29.9420   43.4740 H   0  0  0  0  0  0  0  0  0  0  0  0
   40.3550   27.6020   43.7490 H   0  0  0  0  0  0  0  0  0  0  0  0
   40.1010   25.3180   43.4110 H   0  0  0  0  0  0  0  0  0  0  0  0
   38.9010   23.4130   42.5950 H   0  0  0  0  0  0  0  0  0  0  0  0
   36.8570   23.6570   41.3560 H   0  0  0  0  0  0  0  0  0  0  0  0
   35.9420   25.8000   40.9740 H   0  0  0  0  0  0  0  0  0  0  0  0
   34.5680   26.3590   37.2040 C   0  0  0  0  0  0  0  0  0  0  0  0
   33.5430   27.0990   36.5190 C   0  0  0  0  0  0  0  0  0  0  0  0
   33.3820   28.4750   36.8890 C   0  0  0  0  0  0  0  0  0  0  0  0
   34.1640   29.0030   37.8290 N   0  0  0  0  0  0  0  0  0  0  0  0
   35.1320   28.2410   38.4530 C   0  0  0  0  0  0  0  0  0  0  0  0
   35.3220   26.9610   38.1450 N   0  0  0  0  0  0  0  0  0  0  0  0
   34.6750   25.3310   36.9130 H   0  0  0  0  0  0  0  0  0  0  0  0
   32.9370   26.6390   35.7720 H   0  0  0  0  0  0  0  0  0  0  0  0
   32.3650   29.1800   36.1960 N   0  0  0  0  0  0  0  0  0  0  0  0
   32.6390   29.7600   34.8980 C   0  0  0  0  0  2  0  0  0  0  0  0
   31.3650   30.4620   34.4440 C   0  0  0  0  0  2  0  0  0  0  0  0
   30.8230   31.4200   35.4530 C   0  0  0  0  0  3  0  0  0  0  0  0
   29.7440   31.5910   35.1870 H   0  0  0  0  0  0  0  0  0  0  0  0
   30.8300   30.8520   36.8550 C   0  0  0  0  0  2  0  0  0  0  0  0
   31.0310   29.3560   36.7330 C   0  0  0  0  0  2  0  0  0  0  0  0
  1  4  1  6  0  0  0
  1  2  1  0  0  0  0
  1  3  1  0  0  0  0
  2  5  1  0  0  0  0
  2  3  1  0  0  0  0
  2  6  1  0  0  0  0
  3  7  1  1  0  0  0
  3  8  1  0  0  0  0
  8 17  2  0  0  0  0
  8  9  1  0  0  0  0
  9 10  2  0  0  0  0
 10 11  1  0  0  0  0
 10 19  1  0  0  0  0
 11 20  1  0  0  0  0
 12 13  1  0  0  0  0
 12 11  2  0  0  0  0
 13 21  1  0  0  0  0
 14 22  1  0  0  0  0
 14 13  2  0  0  0  0
 15 14  1  0  0  0  0
 16 15  2  0  0  0  0
 16 17  1  0  0  0  0
 17 12  1  0  0  0  0
 18  9  1  0  0  0  0
 23 15  1  0  0  0  0
 24 16  1  0  0  0  0
 25 30  1  0  0  0  0
 26 27  1  0  0  0  0
 26 25  2  0  0  0  0
 27 28  2  0  0  0  0
 28 29  1  0  0  0  0
 29  1  1  0  0  0  0
 30 29  2  0  0  0  0
 31 25  1  0  0  0  0
 32 26  1  0  0  0  0
 33 39  1  0  0  0  0
 33 27  1  0  0  0  0
 34 33  1  0  0  0  0
 35 34  1  0  0  0  0
 35 36  1  0  0  0  0
 36 38  1  0  0  0  0
 37 36  1  0  0  0  0
 39 38  1  0  0  0  0
M  END
>  <minimizedAffinity>
-6.38188314

$$$$

 OpenBabel03252508273D

 39 43  0  0  1  0  0  0  0  0999 V2000
   38.1570   29.1250   41.7380 C   0  0  1  0  0  0  0  0  0  0  0  0
   37.4970   28.9500   43.0390 C   0  0  0  0  0  0  0  0  0  0  0  0
   36.9620   28.3060   41.6990 C   0  0  2  0  0  0  0  0  0  0  0  0
   39.2270   28.7360   41.8960 H   0  0  0  0  0  0  0  0  0  0  0  0
   36.8800   29.7400   43.4960 H   0  0  0  0  0  0  0  0  0  0  0  0
   37.7370   28.1470   43.7550 H   0  0  0  0  0  0  0  0  0  0  0  0
   35.9120   28.7240   41.6600 H   0  0  0  0  0  0  0  0  0  0  0  0
   36.9400   26.8480   41.5530 C   0  0  0  0  0  0  0  0  0  0  0  0
   37.3100   25.9200   42.4770 C   0  0  0  0  0  0  0  0  0  0  0  0
   37.4020   24.5500   42.2660 C   0  0  0  0  0  0  0  0  0  0  0  0
   37.0820   24.1000   40.9710 C   0  0  0  0  0  0  0  0  0  0  0  0
   36.6970   25.0280   40.0020 C   0  0  0  0  0  0  0  0  0  0  0  0
   36.3310   24.5340   38.7640 C   0  0  0  0  0  0  0  0  0  0  0  0
   35.8760   25.4140   37.7960 C   0  0  0  0  0  0  0  0  0  0  0  0
   35.7830   26.7650   38.0600 C   0  0  0  0  0  0  0  0  0  0  0  0
   36.1610   27.2060   39.3080 C   0  0  0  0  0  0  0  0  0  0  0  0
   36.6290   26.3700   40.3040 C   0  0  0  0  0  0  0  0  0  0  0  0
   37.5480   26.3110   43.4610 H   0  0  0  0  0  0  0  0  0  0  0  0
   37.7030   23.8680   43.0460 H   0  0  0  0  0  0  0  0  0  0  0  0
   37.1400   23.0540   40.7550 H   0  0  0  0  0  0  0  0  0  0  0  0
   36.4140   23.4630   38.5870 H   0  0  0  0  0  0  0  0  0  0  0  0
   35.6170   24.9100   36.8520 H   0  0  0  0  0  0  0  0  0  0  0  0
   35.4080   27.2790   37.1940 H   0  0  0  0  0  0  0  0  0  0  0  0
   35.9230   28.2310   39.2920 H   0  0  0  0  0  0  0  0  0  0  0  0
   36.9790   32.2500   40.1730 C   0  0  0  0  0  0  0  0  0  0  0  0
   38.2010   32.8520   39.7150 C   0  0  0  0  0  0  0  0  0  0  0  0
   39.4130   32.1350   39.9810 C   0  0  0  0  0  0  0  0  0  0  0  0
   39.3660   30.9710   40.6280 N   0  0  0  0  0  0  0  0  0  0  0  0
   38.1600   30.4440   41.0450 C   0  0  0  0  0  0  0  0  0  0  0  0
   37.0080   31.0690   40.8220 N   0  0  0  0  0  0  0  0  0  0  0  0
   36.0800   32.8010   39.9640 H   0  0  0  0  0  0  0  0  0  0  0  0
   38.1970   33.7860   39.2010 H   0  0  0  0  0  0  0  0  0  0  0  0
   40.6040   32.7510   39.5150 N   0  0  0  0  0  0  0  0  0  0  0  0
   40.8720   34.1390   39.8270 C   0  0  0  0  0  2  0  0  0  0  0  0
   42.1970   34.4980   39.1650 C   0  0  0  0  0  2  0  0  0  0  0  0
   42.2440   34.1650   37.7100 C   0  0  0  0  0  3  0  0  0  0  0  0
   43.3310   34.1260   37.4240 H   0  0  0  0  0  0  0  0  0  0  0  0
   41.6760   32.7950   37.4100 C   0  0  0  0  0  2  0  0  0  0  0  0
   41.5910   32.0460   38.7240 C   0  0  0  0  0  2  0  0  0  0  0  0
  1  4  1  6  0  0  0
  1  2  1  0  0  0  0
  2  5  1  0  0  0  0
  2  6  1  0  0  0  0
  3  7  1  6  0  0  0
  3  1  1  0  0  0  0
  3  2  1  0  0  0  0
  8  3  1  0  0  0  0
  8  9  1  0  0  0  0
  9 18  1  0  0  0  0
 10  9  2  0  0  0  0
 10 19  1  0  0  0  0
 11 10  1  0  0  0  0
 12 17  1  0  0  0  0
 12 11  2  0  0  0  0
 13 12  1  0  0  0  0
 14 15  1  0  0  0  0
 14 13  2  0  0  0  0
 15 16  2  0  0  0  0
 16 17  1  0  0  0  0
 17  8  2  0  0  0  0
 20 11  1  0  0  0  0
 21 13  1  0  0  0  0
 22 14  1  0  0  0  0
 23 15  1  0  0  0  0
 24 16  1  0  0  0  0
 25 30  1  0  0  0  0
 26 27  1  0  0  0  0
 26 25  2  0  0  0  0
 27 28  2  0  0  0  0
 28 29  1  0  0  0  0
 29  1  1  0  0  0  0
 30 29  2  0  0  0  0
 31 25  1  0  0  0  0
 32 26  1  0  0  0  0
 33 34  1  0  0  0  0
 33 27  1  0  0  0  0
 35 34  1  0  0  0  0
 36 35  1  0  0  0  0
 37 36  1  0  0  0  0
 38 36  1  0  0  0  0
 38 39  1  0  0  0  0
 39 33  1  0  0  0  0
M  END
>  <minimizedAffinity>
-6.32772446

$$$$

 OpenBabel03252508273D

 39 43  0  0  1  0  0  0  0  0999 V2000
   34.4280   28.9020   36.5360 C   0  0  1  0  0  0  0  0  0  0  0  0
   33.5100   27.7600   36.6450 C   0  0  0  0  0  0  0  0  0  0  0  0
   33.1020   29.2420   37.0110 C   0  0  2  0  0  0  0  0  0  0  0  0
   34.7640   28.9070   35.4370 H   0  0  0  0  0  0  0  0  0  0  0  0
   33.5670   27.0360   37.4740 H   0  0  0  0  0  0  0  0  0  0  0  0
   32.8660   27.4000   35.8260 H   0  0  0  0  0  0  0  0  0  0  0  0
   32.7650   29.1160   38.0840 H   0  0  0  0  0  0  0  0  0  0  0  0
   32.0720   29.9260   36.2260 C   0  0  0  0  0  0  0  0  0  0  0  0
   32.1320   30.2790   34.9130 C   0  0  0  0  0  0  0  0  0  0  0  0
   31.1950   31.0410   34.2280 C   0  0  0  0  0  0  0  0  0  0  0  0
   30.0880   31.4820   34.9790 C   0  0  0  0  0  0  0  0  0  0  0  0
   29.9960   31.1350   36.3270 C   0  0  0  0  0  0  0  0  0  0  0  0
   28.8620   31.5370   37.0080 C   0  0  0  0  0  0  0  0  0  0  0  0
   28.6990   31.1530   38.3290 C   0  0  0  0  0  0  0  0  0  0  0  0
   29.6500   30.3770   38.9600 C   0  0  0  0  0  0  0  0  0  0  0  0
   30.7610   30.0060   38.2390 C   0  0  0  0  0  0  0  0  0  0  0  0
   30.9740   30.3700   36.9230 C   0  0  0  0  0  0  0  0  0  0  0  0
   33.0020   29.9180   34.3730 H   0  0  0  0  0  0  0  0  0  0  0  0
   31.3050   31.2850   33.1830 H   0  0  0  0  0  0  0  0  0  0  0  0
   29.3380   32.0770   34.5000 H   0  0  0  0  0  0  0  0  0  0  0  0
   28.1300   32.1460   36.4820 H   0  0  0  0  0  0  0  0  0  0  0  0
   27.7630   31.5330   38.7680 H   0  0  0  0  0  0  0  0  0  0  0  0
   29.3450   30.1830   39.9720 H   0  0  0  0  0  0  0  0  0  0  0  0
   31.2800   29.3660   38.8940 H   0  0  0  0  0  0  0  0  0  0  0  0
   37.6800   29.9690   37.9120 C   0  0  0  0  0  0  0  0  0  0  0  0
   37.7470   29.2470   39.1530 C   0  0  0  0  0  0  0  0  0  0  0  0
   36.6310   28.4060   39.4730 C   0  0  0  0  0  0  0  0  0  0  0  0
   35.5990   28.3280   38.6340 N   0  0  0  0  0  0  0  0  0  0  0  0
   35.5920   29.0470   37.4550 C   0  0  0  0  0  0  0  0  0  0  0  0
   36.6030   29.8390   37.1120 N   0  0  0  0  0  0  0  0  0  0  0  0
   38.5250   30.5930   37.6880 H   0  0  0  0  0  0  0  0  0  0  0  0
   38.5910   29.3370   39.7990 H   0  0  0  0  0  0  0  0  0  0  0  0
   36.7250   27.7050   40.7030 N   0  0  0  0  0  0  0  0  0  0  0  0
   36.5320   28.4070   41.9550 C   0  0  0  0  0  2  0  0  0  0  0  0
   36.7250   27.3880   43.0720 C   0  0  0  0  0  2  0  0  0  0  0  0
   38.0100   26.6330   42.9720 C   0  0  0  0  0  3  0  0  0  0  0  0
   37.8860   25.7030   43.5920 H   0  0  0  0  0  0  0  0  0  0  0  0
   38.3010   26.1680   41.5620 C   0  0  0  0  0  2  0  0  0  0  0  0
   37.0130   26.2870   40.7740 C   0  0  0  0  0  2  0  0  0  0  0  0
  1  4  1  6  0  0  0
  1  2  1  0  0  0  0
  1  3  1  0  0  0  0
  1 29  1  0  0  0  0
  2  3  1  0  0  0  0
  2  5  1  0  0  0  0
  3  7  1  1  0  0  0
  6  2  1  0  0  0  0
  8 17  1  0  0  0  0
  8  3  1  0  0  0  0
  9  8  2  0  0  0  0
 10  9  1  0  0  0  0
 10 11  2  0  0  0  0
 11 12  1  0  0  0  0
 12 17  2  0  0  0  0
 12 13  1  0  0  0  0
 13 14  2  0  0  0  0
 14 22  1  0  0  0  0
 14 15  1  0  0  0  0
 15 23  1  0  0  0  0
 16 24  1  0  0  0  0
 16 15  2  0  0  0  0
 17 16  1  0  0  0  0
 18  9  1  0  0  0  0
 19 10  1  0  0  0  0
 20 11  1  0  0  0  0
 21 13  1  0  0  0  0
 25 26  1  0  0  0  0
 26 27  2  0  0  0  0
 26 32  1  0  0  0  0
 27 33  1  0  0  0  0
 28 27  1  0  0  0  0
 29 28  2  0  0  0  0
 30 29  1  0  0  0  0
 30 25  2  0  0  0  0
 31 25  1  0  0  0  0
 33 39  1  0  0  0  0
 33 34  1  0  0  0  0
 34 35  1  0  0  0  0
 36 35  1  0  0  0  0
 36 37  1  0  0  0  0
 38 36  1  0  0  0  0
 39 38  1  0  0  0  0
M  END
>  <minimizedAffinity>
-6.31795835

$$$$

 OpenBabel03252508273D

 39 43  0  0  1  0  0  0  0  0999 V2000
   36.7860   29.3370   38.3070 C   0  0  1  0  0  0  0  0  0  0  0  0
   36.9890   30.7580   37.9910 C   0  0  0  0  0  0  0  0  0  0  0  0
   36.5920   30.2350   39.4290 C   0  0  2  0  0  0  0  0  0  0  0  0
   37.7760   28.8280   38.0250 H   0  0  0  0  0  0  0  0  0  0  0  0
   36.2370   31.3540   37.4490 H   0  0  0  0  0  0  0  0  0  0  0  0
   37.9610   31.2750   38.0510 H   0  0  0  0  0  0  0  0  0  0  0  0
   35.6380   30.8140   39.6160 H   0  0  0  0  0  0  0  0  0  0  0  0
   37.5240   30.4060   40.5460 C   0  0  0  0  0  0  0  0  0  0  0  0
   38.5170   31.3310   40.6600 C   0  0  0  0  0  0  0  0  0  0  0  0
   39.4680   31.3870   41.6710 C   0  0  0  0  0  0  0  0  0  0  0  0
   39.3820   30.3860   42.6580 C   0  0  0  0  0  0  0  0  0  0  0  0
   38.3740   29.4260   42.5700 C   0  0  0  0  0  0  0  0  0  0  0  0
   38.2910   28.5020   43.5940 C   0  0  0  0  0  0  0  0  0  0  0  0
   37.2610   27.5740   43.5810 C   0  0  0  0  0  0  0  0  0  0  0  0
   36.3280   27.5710   42.5650 C   0  0  0  0  0  0  0  0  0  0  0  0
   36.4570   28.5110   41.5690 C   0  0  0  0  0  0  0  0  0  0  0  0
   37.4700   29.4510   41.5310 C   0  0  0  0  0  0  0  0  0  0  0  0
   38.5450   32.0820   39.8780 H   0  0  0  0  0  0  0  0  0  0  0  0
   40.2300   32.1500   41.7010 H   0  0  0  0  0  0  0  0  0  0  0  0
   40.0940   30.3820   43.4570 H   0  0  0  0  0  0  0  0  0  0  0  0
   39.0400   28.5300   44.3820 H   0  0  0  0  0  0  0  0  0  0  0  0
   37.2970   26.8890   44.4430 H   0  0  0  0  0  0  0  0  0  0  0  0
   35.6130   26.7870   42.7320 H   0  0  0  0  0  0  0  0  0  0  0  0
   35.6000   28.3630   40.9750 H   0  0  0  0  0  0  0  0  0  0  0  0
   34.5890   26.5510   37.3000 C   0  0  0  0  0  0  0  0  0  0  0  0
   33.4720   27.2310   36.7050 C   0  0  0  0  0  0  0  0  0  0  0  0
   33.5240   28.6640   36.6850 C   0  0  0  0  0  0  0  0  0  0  0  0
   34.5750   29.2950   37.2060 N   0  0  0  0  0  0  0  0  0  0  0  0
   35.6190   28.5860   37.7650 C   0  0  0  0  0  0  0  0  0  0  0  0
   35.6190   27.2570   37.8070 N   0  0  0  0  0  0  0  0  0  0  0  0
   34.5340   25.4780   37.3060 H   0  0  0  0  0  0  0  0  0  0  0  0
   32.6480   26.6900   36.3000 H   0  0  0  0  0  0  0  0  0  0  0  0
   32.4090   29.3090   36.0900 N   0  0  0  0  0  0  0  0  0  0  0  0
   32.5430   29.9410   34.7940 C   0  0  0  0  0  2  0  0  0  0  0  0
   31.1900   30.5570   34.4560 C   0  0  0  0  0  2  0  0  0  0  0  0
   30.6570   31.4450   35.5320 C   0  0  0  0  0  3  0  0  0  0  0  0
   29.5510   31.5420   35.3510 H   0  0  0  0  0  0  0  0  0  0  0  0
   30.8100   30.8430   36.9110 C   0  0  0  0  0  2  0  0  0  0  0  0
   31.1100   29.3700   36.7280 C   0  0  0  0  0  2  0  0  0  0  0  0
  1  4  1  1  0  0  0
  1  3  1  0  0  0  0
  2  6  1  0  0  0  0
  2  1  1  0  0  0  0
  2  3  1  0  0  0  0
  3  7  1  1  0  0  0
  3  8  1  0  0  0  0
  5  2  1  0  0  0  0
  8  9  2  0  0  0  0
  8 17  1  0  0  0  0
  9 10  1  0  0  0  0
 10 19  1  0  0  0  0
 10 11  2  0  0  0  0
 11 20  1  0  0  0  0
 12 11  1  0  0  0  0
 12 13  1  0  0  0  0
 13 21  1  0  0  0  0
 14 13  2  0  0  0  0
 14 22  1  0  0  0  0
 15 23  1  0  0  0  0
 15 14  1  0  0  0  0
 16 15  2  0  0  0  0
 17 16  1  0  0  0  0
 17 12  2  0  0  0  0
 18  9  1  0  0  0  0
 24 16  1  0  0  0  0
 25 31  1  0  0  0  0
 25 30  1  0  0  0  0
 26 25  2  0  0  0  0
 27 26  1  0  0  0  0
 27 28  2  0  0  0  0
 28 29  1  0  0  0  0
 29 30  2  0  0  0  0
 29  1  1  0  0  0  0
 32 26  1  0  0  0  0
 33 27  1  0  0  0  0
 33 39  1  0  0  0  0
 34 33  1  0  0  0  0
 35 34  1  0  0  0  0
 35 36  1  0  0  0  0
 36 38  1  0  0  0  0
 37 36  1  0  0  0  0
 39 38  1  0  0  0  0
M  END
>  <minimizedAffinity>
-6.13134098

$$$$

 OpenBabel03252508273D

 39 43  0  0  1  0  0  0  0  0999 V2000
   37.7060   31.0530   41.0000 C   0  0  1  0  0  0  0  0  0  0  0  0
   36.9790   30.3610   39.9260 C   0  0  0  0  0  0  0  0  0  0  0  0
   38.2600   29.7640   40.6340 C   0  0  2  0  0  0  0  0  0  0  0  0
   36.9200   31.2320   41.8200 H   0  0  0  0  0  0  0  0  0  0  0  0
   37.0810   30.6490   38.8670 H   0  0  0  0  0  0  0  0  0  0  0  0
   36.1270   29.6810   40.0900 H   0  0  0  0  0  0  0  0  0  0  0  0
   38.9430   29.6010   39.7480 H   0  0  0  0  0  0  0  0  0  0  0  0
   38.1460   28.5380   41.4270 C   0  0  0  0  0  0  0  0  0  0  0  0
   37.0510   27.7400   41.5610 C   0  0  0  0  0  0  0  0  0  0  0  0
   36.9310   26.6560   42.4210 C   0  0  0  0  0  0  0  0  0  0  0  0
   38.0550   26.3750   43.2220 C   0  0  0  0  0  0  0  0  0  0  0  0
   39.1930   27.1740   43.1070 C   0  0  0  0  0  0  0  0  0  0  0  0
   40.2920   26.8210   43.8670 C   0  0  0  0  0  0  0  0  0  0  0  0
   41.4650   27.5470   43.7300 C   0  0  0  0  0  0  0  0  0  0  0  0
   41.5410   28.6030   42.8460 C   0  0  0  0  0  0  0  0  0  0  0  0
   40.4180   28.9140   42.1140 C   0  0  0  0  0  0  0  0  0  0  0  0
   39.2230   28.2280   42.2210 C   0  0  0  0  0  0  0  0  0  0  0  0
   36.2090   27.9930   40.9250 H   0  0  0  0  0  0  0  0  0  0  0  0
   36.0320   26.0630   42.4770 H   0  0  0  0  0  0  0  0  0  0  0  0
   38.0130   25.5520   43.9060 H   0  0  0  0  0  0  0  0  0  0  0  0
   40.2020   25.9820   44.5540 H   0  0  0  0  0  0  0  0  0  0  0  0
   42.2700   27.1780   44.3850 H   0  0  0  0  0  0  0  0  0  0  0  0
   42.5250   29.0330   42.8800 H   0  0  0  0  0  0  0  0  0  0  0  0
   40.7450   29.6780   41.4690 H   0  0  0  0  0  0  0  0  0  0  0  0
   38.5450   34.5340   40.1160 C   0  0  0  0  0  0  0  0  0  0  0  0
   39.9810   34.5360   40.1810 C   0  0  0  0  0  0  0  0  0  0  0  0
   40.6140   33.3020   40.5460 C   0  0  0  0  0  0  0  0  0  0  0  0
   39.8690   32.2290   40.8070 N   0  0  0  0  0  0  0  0  0  0  0  0
   38.4920   32.2890   40.7290 C   0  0  0  0  0  0  0  0  0  0  0  0
   37.8580   33.4080   40.3930 N   0  0  0  0  0  0  0  0  0  0  0  0
   38.0880   35.4660   39.8400 H   0  0  0  0  0  0  0  0  0  0  0  0
   40.5420   35.4170   39.9660 H   0  0  0  0  0  0  0  0  0  0  0  0
   42.0310   33.3340   40.6000 N   0  0  0  0  0  0  0  0  0  0  0  0
   42.7110   34.4950   41.1350 C   0  0  0  0  0  2  0  0  0  0  0  0
   44.2070   34.2260   41.0270 C   0  0  0  0  0  2  0  0  0  0  0  0
   44.6410   33.8250   39.6550 C   0  0  0  0  0  3  0  0  0  0  0  0
   45.6380   33.3170   39.7680 H   0  0  0  0  0  0  0  0  0  0  0  0
   43.7140   32.8070   39.0270 C   0  0  0  0  0  2  0  0  0  0  0  0
   42.8550   32.2370   40.1360 C   0  0  0  0  0  2  0  0  0  0  0  0
  1  4  1  1  0  0  0
  2  6  1  0  0  0  0
  2  3  1  0  0  0  0
  2  1  1  0  0  0  0
  3  7  1  6  0  0  0
  3  1  1  0  0  0  0
  3  8  1  0  0  0  0
  5  2  1  0  0  0  0
  8  9  2  0  0  0  0
  8 17  1  0  0  0  0
  9 10  1  0  0  0  0
 10 19  1  0  0  0  0
 10 11  2  0  0  0  0
 11 20  1  0  0  0  0
 12 11  1  0  0  0  0
 12 13  1  0  0  0  0
 13 21  1  0  0  0  0
 14 13  2  0  0  0  0
 14 22  1  0  0  0  0
 15 23  1  0  0  0  0
 15 14  1  0  0  0  0
 16 17  1  0  0  0  0
 16 15  2  0  0  0  0
 17 12  2  0  0  0  0
 18  9  1  0  0  0  0
 24 16  1  0  0  0  0
 25 26  2  0  0  0  0
 25 30  1  0  0  0  0
 26 27  1  0  0  0  0
 27 33  1  0  0  0  0
 27 28  2  0  0  0  0
 29 28  1  0  0  0  0
 29  1  1  0  0  0  0
 30 29  2  0  0  0  0
 31 25  1  0  0  0  0
 32 26  1  0  0  0  0
 33 34  1  0  0  0  0
 35 34  1  0  0  0  0
 36 37  1  0  0  0  0
 36 35  1  0  0  0  0
 38 36  1  0  0  0  0
 38 39  1  0  0  0  0
 39 33  1  0  0  0  0
M  END
>  <minimizedAffinity>
-6.0806756

$$$$

 OpenBabel03252508273D

 39 43  0  0  1  0  0  0  0  0999 V2000
   37.1630   31.2370   40.8590 C   0  0  1  0  0  0  0  0  0  0  0  0
   36.4330   30.6280   39.7370 C   0  0  0  0  0  0  0  0  0  0  0  0
   37.5720   29.8830   40.5410 C   0  0  2  0  0  0  0  0  0  0  0  0
   36.3490   31.5270   41.6170 H   0  0  0  0  0  0  0  0  0  0  0  0
   36.6470   30.8860   38.6880 H   0  0  0  0  0  0  0  0  0  0  0  0
   35.4910   30.0660   39.8410 H   0  0  0  0  0  0  0  0  0  0  0  0
   38.2910   29.6210   39.7080 H   0  0  0  0  0  0  0  0  0  0  0  0
   37.2430   28.6930   41.3300 C   0  0  0  0  0  0  0  0  0  0  0  0
   36.9300   28.6410   42.6540 C   0  0  0  0  0  0  0  0  0  0  0  0
   36.7510   27.4860   43.4050 C   0  0  0  0  0  0  0  0  0  0  0  0
   36.9130   26.2690   42.7170 C   0  0  0  0  0  0  0  0  0  0  0  0
   37.2320   26.2900   41.3590 C   0  0  0  0  0  0  0  0  0  0  0  0
   37.3190   25.0720   40.7110 C   0  0  0  0  0  0  0  0  0  0  0  0
   37.5650   25.0510   39.3480 C   0  0  0  0  0  0  0  0  0  0  0  0
   37.7160   26.2260   38.6410 C   0  0  0  0  0  0  0  0  0  0  0  0
   37.6210   27.4120   39.3330 C   0  0  0  0  0  0  0  0  0  0  0  0
   37.3870   27.4850   40.6930 C   0  0  0  0  0  0  0  0  0  0  0  0
   36.8150   29.6020   43.1440 H   0  0  0  0  0  0  0  0  0  0  0  0
   36.5020   27.5160   44.4550 H   0  0  0  0  0  0  0  0  0  0  0  0
   36.7890   25.3490   43.2510 H   0  0  0  0  0  0  0  0  0  0  0  0
   37.1940   24.1620   41.2950 H   0  0  0  0  0  0  0  0  0  0  0  0
   37.6170   24.0290   38.9420 H   0  0  0  0  0  0  0  0  0  0  0  0
   37.8940   26.0050   37.6050 H   0  0  0  0  0  0  0  0  0  0  0  0
   37.6840   28.1450   38.5800 H   0  0  0  0  0  0  0  0  0  0  0  0
   38.5220   34.5350   39.9190 C   0  0  0  0  0  0  0  0  0  0  0  0
   39.9240   34.3860   40.1970 C   0  0  0  0  0  0  0  0  0  0  0  0
   40.3490   33.1210   40.7190 C   0  0  0  0  0  0  0  0  0  0  0  0
   39.4550   32.1550   40.9250 N   0  0  0  0  0  0  0  0  0  0  0  0
   38.1190   32.3580   40.6390 C   0  0  0  0  0  0  0  0  0  0  0  0
   37.6750   33.5130   40.1520 N   0  0  0  0  0  0  0  0  0  0  0  0
   38.2210   35.4890   39.5270 H   0  0  0  0  0  0  0  0  0  0  0  0
   40.6090   35.1840   40.0190 H   0  0  0  0  0  0  0  0  0  0  0  0
   41.7390   33.0020   40.9820 N   0  0  0  0  0  0  0  0  0  0  0  0
   42.2680   31.7810   41.5520 C   0  0  0  0  0  2  0  0  0  0  0  0
   43.7670   31.9860   41.7340 C   0  0  0  0  0  2  0  0  0  0  0  0
   44.1100   33.2280   42.4900 C   0  0  0  0  0  3  0  0  0  0  0  0
   45.1840   33.4620   42.2540 H   0  0  0  0  0  0  0  0  0  0  0  0
   43.3040   34.4250   42.0350 C   0  0  0  0  0  2  0  0  0  0  0  0
   42.6800   34.0670   40.7020 C   0  0  0  0  0  2  0  0  0  0  0  0
  1  4  1  1  0  0  0
  2  6  1  0  0  0  0
  2  3  1  0  0  0  0
  2  1  1  0  0  0  0
  3  7  1  6  0  0  0
  3  1  1  0  0  0  0
  3  8  1  0  0  0  0
  5  2  1  0  0  0  0
  8  9  1  0  0  0  0
  9 18  1  0  0  0  0
  9 10  2  0  0  0  0
 10 19  1  0  0  0  0
 11 20  1  0  0  0  0
 11 10  1  0  0  0  0
 12 11  2  0  0  0  0
 13 21  1  0  0  0  0
 13 12  1  0  0  0  0
 14 13  2  0  0  0  0
 15 16  2  0  0  0  0
 15 14  1  0  0  0  0
 16 17  1  0  0  0  0
 17  8  2  0  0  0  0
 17 12  1  0  0  0  0
 22 14  1  0  0  0  0
 23 15  1  0  0  0  0
 24 16  1  0  0  0  0
 25 30  2  0  0  0  0
 25 26  1  0  0  0  0
 26 27  2  0  0  0  0
 27 28  1  0  0  0  0
 27 33  1  0  0  0  0
 29  1  1  0  0  0  0
 29 28  2  0  0  0  0
 30 29  1  0  0  0  0
 31 25  1  0  0  0  0
 32 26  1  0  0  0  0
 33 34  1  0  0  0  0
 34 35  1  0  0  0  0
 35 36  1  0  0  0  0
 37 36  1  0  0  0  0
 38 36  1  0  0  0  0
 39 33  1  0  0  0  0
 39 38  1  0  0  0  0
M  END
>  <minimizedAffinity>
-6.07547426

$$$$
