
 OpenBabel03252507183D

 42 45  0  0  1  0  0  0  0  0999 V2000
   47.1090   33.5420   42.8500 C   0  0  0  0  0  0  0  0  0  0  0  0
   48.2290   33.2910   43.3790 O   0  0  0  0  0  0  0  0  0  0  0  0
   46.6960   33.0440   41.5710 N   0  0  0  0  0  0  0  0  0  0  0  0
   45.4270   32.4650   41.1370 C   0  0  0  0  0  0  0  0  0  0  0  0
   44.9390   33.1880   39.8780 C   0  0  0  0  0  0  0  0  0  0  0  0
   45.9170   32.9530   38.7620 C   0  0  0  0  0  0  0  0  0  0  0  0
   47.2030   32.3990   39.2900 C   0  0  0  0  0  0  0  0  0  0  0  0
   47.6710   33.1160   40.5180 C   0  0  2  0  0  0  0  0  0  0  0  0
   45.4670   31.3880   40.9660 H   0  0  0  0  0  0  0  0  0  0  0  0
   44.7080   32.7700   41.9580 H   0  0  0  0  0  0  0  0  0  0  0  0
   43.9190   32.8820   39.6490 H   0  0  0  0  0  0  0  0  0  0  0  0
   45.0100   34.2780   40.1550 H   0  0  0  0  0  0  0  0  0  0  0  0
   45.4670   32.1470   38.1290 H   0  0  0  0  0  0  0  0  0  0  0  0
   46.0490   33.8140   38.0770 H   0  0  0  0  0  0  0  0  0  0  0  0
   47.1130   31.3260   39.5360 H   0  0  0  0  0  0  0  0  0  0  0  0
   47.9600   32.5410   38.4880 H   0  0  0  0  0  0  0  0  0  0  0  0
   47.7930   34.1890   40.2680 H   0  0  0  0  0  0  0  0  0  0  0  0
   45.8100   35.6100   42.9990 C   0  0  0  0  0  0  0  0  0  0  0  0
   46.1960   34.3800   43.5840 C   0  0  0  0  0  0  0  0  0  0  0  0
   45.6930   34.0340   44.8160 C   0  0  0  0  0  0  0  0  0  0  0  0
   44.8440   34.8830   45.4310 N   0  0  0  0  0  0  0  0  0  0  0  0
   44.4640   36.0670   44.8840 C   0  0  0  0  0  0  0  0  0  0  0  0
   44.9570   36.4060   43.6740 N   0  0  0  0  0  0  0  0  0  0  0  0
   46.1960   35.9030   42.0250 H   0  0  0  0  0  0  0  0  0  0  0  0
   43.7800   36.6950   45.4360 H   0  0  0  0  0  0  0  0  0  0  0  0
   46.1020   32.7760   45.4050 C   0  0  0  0  0  0  0  0  0  0  0  0
   45.6840   31.5960   44.8630 C   0  0  0  0  0  0  0  0  0  0  0  0
   46.0840   30.4120   45.4370 C   0  0  0  0  0  0  0  0  0  0  0  0
   46.9020   30.3570   46.5560 C   0  0  0  0  0  0  0  0  0  0  0  0
   47.2950   31.5750   47.0650 C   0  0  0  0  0  0  0  0  0  0  0  0
   46.8880   32.7110   46.4820 N   0  0  0  0  0  0  0  0  0  0  0  0
   45.0510   31.4590   44.0100 H   0  0  0  0  0  0  0  0  0  0  0  0
   45.7850   29.4250   45.0530 H   0  0  0  0  0  0  0  0  0  0  0  0
   47.2090   29.4190   47.0000 H   0  0  0  0  0  0  0  0  0  0  0  0
   47.9360   31.6030   47.9420 H   0  0  0  0  0  0  0  0  0  0  0  0
   48.9270   32.6470   40.9960 N   0  0  0  0  0  0  0  0  0  0  0  0
   49.6020   33.5100   41.9160 C   0  0  0  0  0  0  0  0  0  0  0  0
   51.0210   33.0320   42.1220 C   0  0  0  0  0  0  0  0  0  0  0  0
   51.0520   31.6020   42.6120 C   0  0  0  0  0  0  0  0  0  0  0  0
   51.7560   31.0500   41.9580 H   0  0  0  0  0  0  0  0  0  0  0  0
   49.6870   30.9590   42.6190 C   0  0  0  0  0  0  0  0  0  0  0  0
   49.0210   31.2620   41.3000 C   0  0  0  0  0  0  0  0  0  0  0  0
  1  2  2  0  0  0  0
  1 19  1  0  0  0  0
  3  1  1  0  0  0  0
  4  3  1  0  0  0  0
  4 10  1  0  0  0  0
  5 12  1  0  0  0  0
  5  4  1  0  0  0  0
  6  7  1  0  0  0  0
  6  5  1  0  0  0  0
  7 15  1  0  0  0  0
  7  8  1  0  0  0  0
  8 17  1  6  0  0  0
  8 36  1  0  0  0  0
  8  3  1  0  0  0  0
  9  4  1  0  0  0  0
 11  5  1  0  0  0  0
 13  6  1  0  0  0  0
 14  6  1  0  0  0  0
 16  7  1  0  0  0  0
 18 19  2  0  0  0  0
 18 23  1  0  0  0  0
 19 20  1  0  0  0  0
 20 26  1  0  0  0  0
 20 21  2  0  0  0  0
 22 21  1  0  0  0  0
 22 25  1  0  0  0  0
 23 22  2  0  0  0  0
 24 18  1  0  0  0  0
 26 31  1  0  0  0  0
 27 26  2  0  0  0  0
 27 28  1  0  0  0  0
 28 29  2  0  0  0  0
 29 34  1  0  0  0  0
 29 30  1  0  0  0  0
 30 35  1  0  0  0  0
 31 30  2  0  0  0  0
 32 27  1  0  0  0  0
 33 28  1  0  0  0  0
 36 42  1  0  0  0  0
 36 37  1  0  0  0  0
 37 38  1  0  0  0  0
 38 39  1  0  0  0  0
 39 41  1  0  0  0  0
 40 39  1  0  0  0  0
 42 41  1  0  0  0  0
M  END
>  <minimizedAffinity>
-5.6942358

>  <minimizedRMSD>
0.575482368

$$$$
