
 OpenBabel03252509253D

 28 30  0  0  1  0  0  0  0  0999 V2000
   46.7820   35.0730   41.8860 C   0  0  1  0  0  0  0  0  0  0  0  0
   48.2680   35.5310   41.9700 C   0  0  0  0  0  0  0  0  0  0  0  0
   47.7570   34.2220   41.3400 C   0  0  2  0  0  0  0  0  0  0  0  0
   46.1620   35.7590   41.2860 H   0  0  0  0  0  0  0  0  0  0  0  0
   48.5650   36.3290   41.2440 H   0  0  0  0  0  0  0  0  0  0  0  0
   48.7780   35.5210   42.9250 H   0  0  0  0  0  0  0  0  0  0  0  0
   48.2150   33.3400   41.8820 H   0  0  0  0  0  0  0  0  0  0  0  0
   44.7670   35.2410   45.0500 C   0  0  0  0  0  0  0  0  0  0  0  0
   45.2590   35.6000   43.7670 C   0  0  0  0  0  0  0  0  0  0  0  0
   46.2420   34.8120   43.2720 C   0  0  0  0  0  0  0  0  0  0  0  0
   46.7370   33.7290   43.9750 N   0  0  0  0  0  0  0  0  0  0  0  0
   46.2480   33.4150   45.1920 C   0  0  0  0  0  0  0  0  0  0  0  0
   45.2530   34.1790   45.7350 N   0  0  0  0  0  0  0  0  0  0  0  0
   43.9830   35.8590   45.4560 H   0  0  0  0  0  0  0  0  0  0  0  0
   46.6640   32.5640   45.7020 H   0  0  0  0  0  0  0  0  0  0  0  0
   44.7760   36.7260   43.0570 N   0  0  0  0  0  0  0  0  0  0  0  0
   43.7850   37.0420   42.9150 H   0  0  0  0  0  0  0  0  0  0  0  0
   45.4670   37.3580   42.5960 H   0  0  0  0  0  0  0  0  0  0  0  0
   47.8980   34.0370   39.8470 C   0  0  0  0  0  0  0  0  0  0  0  0
   47.0620   34.5800   39.3530 H   0  0  0  0  0  0  0  0  0  0  0  0
   48.8390   34.4510   39.4500 H   0  0  0  0  0  0  0  0  0  0  0  0
   47.7330   32.6340   39.5170 N   0  0  0  0  0  0  0  0  0  0  0  0
   46.3440   32.3040   39.3780 C   0  0  0  0  0  2  0  0  0  0  0  0
   46.0880   30.8340   39.4530 C   0  0  0  0  0  2  0  0  0  0  0  0
   47.4070   30.0730   39.3240 C   0  0  0  0  0  3  0  0  0  0  0  0
   47.2110   28.9840   39.2640 H   0  0  0  0  0  0  0  0  0  0  0  0
   48.1880   30.4360   40.5640 C   0  0  0  0  0  2  0  0  0  0  0  0
   48.3020   31.9200   40.6450 C   0  0  0  0  0  2  0  0  0  0  0  0
  1  4  1  6  0  0  0
  1  2  1  0  0  0  0
  1 10  1  0  0  0  0
  2  6  1  0  0  0  0
  3  7  1  1  0  0  0
  3  1  1  0  0  0  0
  3  2  1  0  0  0  0
  5  2  1  0  0  0  0
  8 14  1  0  0  0  0
  8 13  1  0  0  0  0
  9  8  2  0  0  0  0
 10  9  1  0  0  0  0
 10 11  2  0  0  0  0
 11 12  1  0  0  0  0
 12 15  1  0  0  0  0
 12 13  2  0  0  0  0
 16  9  1  0  0  0  0
 17 16  1  0  0  0  0
 18 16  1  0  0  0  0
 19  3  1  0  0  0  0
 20 19  1  0  0  0  0
 21 19  1  0  0  0  0
 22 19  1  0  0  0  0
 22 28  1  0  0  0  0
 23 24  1  0  0  0  0
 23 22  1  0  0  0  0
 25 24  1  0  0  0  0
 25 27  1  0  0  0  0
 26 25  1  0  0  0  0
 27 28  1  0  0  0  0
M  END
>  <minimizedAffinity>
-4.25405169

>  <minimizedRMSD>
2.00932264

$$$$
