
 OpenBabel03252505553D

 31 33  0  0  0  0  0  0  0  0999 V2000
   37.9330   27.9620   43.5270 C   0  0  0  0  0  0  0  0  0  0  0  0
   37.2850   27.8180   44.4260 H   0  0  0  0  0  0  0  0  0  0  0  0
   38.6610   28.7810   43.7140 H   0  0  0  0  0  0  0  0  0  0  0  0
   38.5440   26.6930   43.1440 C   0  0  0  0  0  0  0  0  0  0  0  0
   39.6290   26.0220   43.6790 C   0  0  0  0  0  0  0  0  0  0  0  0
   40.0200   24.8380   43.1480 C   0  0  0  0  0  0  0  0  0  0  0  0
   39.3710   24.2990   42.1040 N   0  0  0  0  0  0  0  0  0  0  0  0
   38.3190   24.9410   41.5800 C   0  0  0  0  0  0  0  0  0  0  0  0
   37.8980   26.1300   42.0830 N   0  0  0  0  0  0  0  0  0  0  0  0
   40.0670   26.5440   44.5060 H   0  0  0  0  0  0  0  0  0  0  0  0
   40.8760   24.3980   43.6410 H   0  0  0  0  0  0  0  0  0  0  0  0
   37.6550   24.3380   40.4710 N   0  0  0  0  0  0  0  0  0  0  0  0
   36.2570   24.0010   40.6120 C   0  0  0  0  0  2  0  0  0  0  0  0
   35.9250   23.0210   39.5100 C   0  0  0  0  0  2  0  0  0  0  0  0
   36.9900   22.0020   39.2920 C   0  0  0  0  0  3  0  0  0  0  0  0
   36.9430   21.2600   40.1260 H   0  0  0  0  0  0  0  0  0  0  0  0
   38.3680   22.5450   39.0800 C   0  0  0  0  0  2  0  0  0  0  0  0
   38.3270   24.0530   39.2160 C   0  0  0  0  0  2  0  0  0  0  0  0
   37.0980   28.3760   42.4720 O   0  0  0  0  0  0  0  0  0  0  0  0
   38.7570   31.3520   41.4170 C   0  0  0  0  0  0  0  0  0  0  0  0
   37.7980   32.0230   40.6640 C   0  0  0  0  0  0  0  0  0  0  0  0
   36.5390   31.4110   40.5260 C   0  0  0  0  0  0  0  0  0  0  0  0
   36.3290   30.2190   41.1230 N   0  0  0  0  0  0  0  0  0  0  0  0
   37.2940   29.6050   41.8470 C   0  0  0  0  0  0  0  0  0  0  0  0
   38.5040   30.1580   41.9990 N   0  0  0  0  0  0  0  0  0  0  0  0
   39.7440   31.7750   41.5570 H   0  0  0  0  0  0  0  0  0  0  0  0
   35.8070   31.9320   39.9460 H   0  0  0  0  0  0  0  0  0  0  0  0
   38.1640   33.3360   40.0560 C   0  0  0  0  0  0  0  0  0  0  0  0
   36.9810   33.8350   39.5420 F   0  0  0  0  0  0  0  0  0  0  0  0
   39.0590   33.0430   39.0160 F   0  0  0  0  0  0  0  0  0  0  0  0
   38.7110   34.1280   41.0140 F   0  0  0  0  0  0  0  0  0  0  0  0
  1  3  1  0  0  0  0
  1  2  1  0  0  0  0
  4  1  1  0  0  0  0
  4  5  1  0  0  0  0
  5 10  1  0  0  0  0
  6 11  1  0  0  0  0
  6  5  2  0  0  0  0
  7  6  1  0  0  0  0
  8  9  1  0  0  0  0
  8  7  2  0  0  0  0
  9  4  2  0  0  0  0
 12 13  1  0  0  0  0
 12  8  1  0  0  0  0
 14 13  1  0  0  0  0
 15 14  1  0  0  0  0
 15 16  1  0  0  0  0
 17 18  1  0  0  0  0
 17 15  1  0  0  0  0
 18 12  1  0  0  0  0
 19  1  1  0  0  0  0
 20 26  1  0  0  0  0
 20 25  1  0  0  0  0
 21 20  2  0  0  0  0
 22 21  1  0  0  0  0
 22 23  2  0  0  0  0
 23 24  1  0  0  0  0
 24 25  2  0  0  0  0
 24 19  1  0  0  0  0
 27 22  1  0  0  0  0
 28 21  1  0  0  0  0
 28 31  1  0  0  0  0
 29 28  1  0  0  0  0
 30 28  1  0  0  0  0
M  END
>  <minimizedAffinity>
-5.81693888

$$$$

 OpenBabel03252505553D

 31 33  0  0  0  0  0  0  0  0999 V2000
   36.5610   31.0770   40.1750 C   0  0  0  0  0  0  0  0  0  0  0  0
   35.5850   31.5760   39.9580 H   0  0  0  0  0  0  0  0  0  0  0  0
   36.7510   30.2770   39.4280 H   0  0  0  0  0  0  0  0  0  0  0  0
   37.6220   32.0760   40.2660 C   0  0  0  0  0  0  0  0  0  0  0  0
   37.6170   33.4220   39.9450 C   0  0  0  0  0  0  0  0  0  0  0  0
   38.7400   34.1610   40.1170 C   0  0  0  0  0  0  0  0  0  0  0  0
   39.8660   33.6100   40.5950 N   0  0  0  0  0  0  0  0  0  0  0  0
   39.8800   32.3080   40.9090 C   0  0  0  0  0  0  0  0  0  0  0  0
   38.7760   31.5340   40.7510 N   0  0  0  0  0  0  0  0  0  0  0  0
   36.6670   33.7510   39.5740 H   0  0  0  0  0  0  0  0  0  0  0  0
   38.6280   35.1990   39.8360 H   0  0  0  0  0  0  0  0  0  0  0  0
   41.0950   31.7570   41.4140 N   0  0  0  0  0  0  0  0  0  0  0  0
   41.0830   31.1690   42.7340 C   0  0  0  0  0  2  0  0  0  0  0  0
   42.5220   31.0650   43.1850 C   0  0  0  0  0  2  0  0  0  0  0  0
   43.3340   32.2640   42.8350 C   0  0  0  0  0  3  0  0  0  0  0  0
   43.0540   33.0930   43.5300 H   0  0  0  0  0  0  0  0  0  0  0  0
   43.2890   32.6770   41.3980 C   0  0  0  0  0  2  0  0  0  0  0  0
   42.3340   31.7650   40.6560 C   0  0  0  0  0  2  0  0  0  0  0  0
   36.4430   30.4560   41.4330 O   0  0  0  0  0  0  0  0  0  0  0  0
   36.7970   27.0170   40.5600 C   0  0  0  0  0  0  0  0  0  0  0  0
   37.1580   26.4020   41.7550 C   0  0  0  0  0  0  0  0  0  0  0  0
   37.2780   27.2200   42.8930 C   0  0  0  0  0  0  0  0  0  0  0  0
   37.0420   28.5420   42.7690 N   0  0  0  0  0  0  0  0  0  0  0  0
   36.6920   29.0950   41.5830 C   0  0  0  0  0  0  0  0  0  0  0  0
   36.5680   28.3470   40.4800 N   0  0  0  0  0  0  0  0  0  0  0  0
   36.6890   26.4370   39.6510 H   0  0  0  0  0  0  0  0  0  0  0  0
   37.5560   26.7400   43.8080 H   0  0  0  0  0  0  0  0  0  0  0  0
   37.3920   24.9270   41.7520 C   0  0  0  0  0  0  0  0  0  0  0  0
   36.3890   24.4040   42.5480 F   0  0  0  0  0  0  0  0  0  0  0  0
   38.6420   24.7340   42.3580 F   0  0  0  0  0  0  0  0  0  0  0  0
   37.3520   24.4780   40.4710 F   0  0  0  0  0  0  0  0  0  0  0  0
  1  4  1  0  0  0  0
  1 19  1  0  0  0  0
  2  1  1  0  0  0  0
  3  1  1  0  0  0  0
  4  9  1  0  0  0  0
  5  6  1  0  0  0  0
  5  4  2  0  0  0  0
  6  7  2  0  0  0  0
  7  8  1  0  0  0  0
  8 12  1  0  0  0  0
  9  8  2  0  0  0  0
 10  5  1  0  0  0  0
 11  6  1  0  0  0  0
 12 13  1  0  0  0  0
 13 14  1  0  0  0  0
 15 14  1  0  0  0  0
 15 16  1  0  0  0  0
 17 15  1  0  0  0  0
 18 17  1  0  0  0  0
 18 12  1  0  0  0  0
 19 24  1  0  0  0  0
 20 21  1  0  0  0  0
 21 22  2  0  0  0  0
 22 27  1  0  0  0  0
 23 22  1  0  0  0  0
 24 23  2  0  0  0  0
 25 20  2  0  0  0  0
 25 24  1  0  0  0  0
 26 20  1  0  0  0  0
 28 21  1  0  0  0  0
 28 30  1  0  0  0  0
 28 29  1  0  0  0  0
 31 28  1  0  0  0  0
M  END
>  <minimizedAffinity>
-5.75844336

$$$$

 OpenBabel03252505553D

 31 33  0  0  0  0  0  0  0  0999 V2000
   36.9450   31.2220   38.3370 C   0  0  0  0  0  0  0  0  0  0  0  0
   36.0370   31.1920   38.9890 H   0  0  0  0  0  0  0  0  0  0  0  0
   36.6510   31.4470   37.2900 H   0  0  0  0  0  0  0  0  0  0  0  0
   37.9280   32.1460   38.8950 C   0  0  0  0  0  0  0  0  0  0  0  0
   37.8060   33.0860   39.9030 C   0  0  0  0  0  0  0  0  0  0  0  0
   38.8740   33.8410   40.2550 C   0  0  0  0  0  0  0  0  0  0  0  0
   40.0590   33.6950   39.6420 N   0  0  0  0  0  0  0  0  0  0  0  0
   40.1870   32.7880   38.6660 C   0  0  0  0  0  0  0  0  0  0  0  0
   39.1400   32.0120   38.2830 N   0  0  0  0  0  0  0  0  0  0  0  0
   36.8190   33.1140   40.3190 H   0  0  0  0  0  0  0  0  0  0  0  0
   38.6710   34.5430   41.0520 H   0  0  0  0  0  0  0  0  0  0  0  0
   41.4600   32.6620   38.0350 N   0  0  0  0  0  0  0  0  0  0  0  0
   42.1340   31.3850   38.1030 C   0  0  0  0  0  2  0  0  0  0  0  0
   43.5850   31.6310   37.7600 C   0  0  0  0  0  2  0  0  0  0  0  0
   44.1300   32.8720   38.3780 C   0  0  0  0  0  3  0  0  0  0  0  0
   44.2990   32.6790   39.4650 H   0  0  0  0  0  0  0  0  0  0  0  0
   43.3400   34.1180   38.1290 C   0  0  0  0  0  2  0  0  0  0  0  0
   42.1000   33.7610   37.3350 C   0  0  0  0  0  2  0  0  0  0  0  0
   37.5090   29.9320   38.3470 O   0  0  0  0  0  0  0  0  0  0  0  0
   36.2510   28.5960   41.4040 C   0  0  0  0  0  0  0  0  0  0  0  0
   37.1670   27.6030   41.7400 C   0  0  0  0  0  0  0  0  0  0  0  0
   38.2510   27.4020   40.8670 C   0  0  0  0  0  0  0  0  0  0  0  0
   38.3460   28.1720   39.7640 N   0  0  0  0  0  0  0  0  0  0  0  0
   37.4300   29.1270   39.4790 C   0  0  0  0  0  0  0  0  0  0  0  0
   36.3850   29.3460   40.2870 N   0  0  0  0  0  0  0  0  0  0  0  0
   35.3960   28.7970   42.0390 H   0  0  0  0  0  0  0  0  0  0  0  0
   38.9500   26.6370   41.1320 H   0  0  0  0  0  0  0  0  0  0  0  0
   36.9400   26.8230   42.9920 C   0  0  0  0  0  0  0  0  0  0  0  0
   38.1450   26.8770   43.6700 F   0  0  0  0  0  0  0  0  0  0  0  0
   36.6720   25.5080   42.5840 F   0  0  0  0  0  0  0  0  0  0  0  0
   35.9100   27.3820   43.6790 F   0  0  0  0  0  0  0  0  0  0  0  0
  1 19  1  0  0  0  0
  1  4  1  0  0  0  0
  1  2  1  0  0  0  0
  3  1  1  0  0  0  0
  4  5  1  0  0  0  0
  5  6  2  0  0  0  0
  5 10  1  0  0  0  0
  6 11  1  0  0  0  0
  7  6  1  0  0  0  0
  8  7  2  0  0  0  0
  9  8  1  0  0  0  0
  9  4  2  0  0  0  0
 12 13  1  0  0  0  0
 12  8  1  0  0  0  0
 14 13  1  0  0  0  0
 14 15  1  0  0  0  0
 15 16  1  0  0  0  0
 17 15  1  0  0  0  0
 18 12  1  0  0  0  0
 18 17  1  0  0  0  0
 19 24  1  0  0  0  0
 20 21  1  0  0  0  0
 20 26  1  0  0  0  0
 21 28  1  0  0  0  0
 22 27  1  0  0  0  0
 22 21  2  0  0  0  0
 23 22  1  0  0  0  0
 24 23  2  0  0  0  0
 24 25  1  0  0  0  0
 25 20  2  0  0  0  0
 28 29  1  0  0  0  0
 28 31  1  0  0  0  0
 30 28  1  0  0  0  0
M  END
>  <minimizedAffinity>
-5.6106987

$$$$

 OpenBabel03252505553D

 31 33  0  0  0  0  0  0  0  0999 V2000
   37.6100   30.7620   37.6170 C   0  0  0  0  0  0  0  0  0  0  0  0
   37.2480   31.2230   36.6650 H   0  0  0  0  0  0  0  0  0  0  0  0
   38.4060   30.0190   37.3980 H   0  0  0  0  0  0  0  0  0  0  0  0
   38.0070   31.8060   38.5560 C   0  0  0  0  0  0  0  0  0  0  0  0
   37.2670   32.8240   39.1330 C   0  0  0  0  0  0  0  0  0  0  0  0
   37.8620   33.6880   39.9910 C   0  0  0  0  0  0  0  0  0  0  0  0
   39.1640   33.5770   40.2950 N   0  0  0  0  0  0  0  0  0  0  0  0
   39.8870   32.5950   39.7420 C   0  0  0  0  0  0  0  0  0  0  0  0
   39.3290   31.7100   38.8780 N   0  0  0  0  0  0  0  0  0  0  0  0
   36.2430   32.8140   38.8180 H   0  0  0  0  0  0  0  0  0  0  0  0
   37.1950   34.4430   40.3840 H   0  0  0  0  0  0  0  0  0  0  0  0
   41.2690   32.5090   40.0890 N   0  0  0  0  0  0  0  0  0  0  0  0
   41.7410   31.2990   40.7230 C   0  0  0  0  0  2  0  0  0  0  0  0
   43.0740   31.6230   41.3560 C   0  0  0  0  0  2  0  0  0  0  0  0
   43.0980   32.9540   42.0240 C   0  0  0  0  0  3  0  0  0  0  0  0
   42.5300   32.8760   42.9830 H   0  0  0  0  0  0  0  0  0  0  0  0
   42.6520   34.1070   41.1820 C   0  0  0  0  0  2  0  0  0  0  0  0
   42.2100   33.5840   39.8300 C   0  0  0  0  0  2  0  0  0  0  0  0
   36.5260   30.0620   38.1800 O   0  0  0  0  0  0  0  0  0  0  0  0
   35.9200   28.6070   41.3790 C   0  0  0  0  0  0  0  0  0  0  0  0
   36.9560   27.6900   41.5330 C   0  0  0  0  0  0  0  0  0  0  0  0
   37.8870   27.5840   40.4840 C   0  0  0  0  0  0  0  0  0  0  0  0
   37.7310   28.3660   39.3970 N   0  0  0  0  0  0  0  0  0  0  0  0
   36.7060   29.2450   39.2930 C   0  0  0  0  0  0  0  0  0  0  0  0
   35.8010   29.3730   40.2710 N   0  0  0  0  0  0  0  0  0  0  0  0
   35.1740   28.7320   42.1540 H   0  0  0  0  0  0  0  0  0  0  0  0
   38.6800   26.8770   40.6100 H   0  0  0  0  0  0  0  0  0  0  0  0
   37.0100   26.8850   42.7890 C   0  0  0  0  0  0  0  0  0  0  0  0
   35.9890   27.3830   43.5780 F   0  0  0  0  0  0  0  0  0  0  0  0
   38.2540   27.1670   43.3740 F   0  0  0  0  0  0  0  0  0  0  0  0
   36.8590   25.5720   42.4780 F   0  0  0  0  0  0  0  0  0  0  0  0
  1 19  1  0  0  0  0
  1  4  1  0  0  0  0
  2  1  1  0  0  0  0
  3  1  1  0  0  0  0
  4  9  2  0  0  0  0
  4  5  1  0  0  0  0
  5  6  2  0  0  0  0
  6  7  1  0  0  0  0
  6 11  1  0  0  0  0
  8 12  1  0  0  0  0
  8  7  2  0  0  0  0
  9  8  1  0  0  0  0
 10  5  1  0  0  0  0
 12 13  1  0  0  0  0
 13 14  1  0  0  0  0
 14 15  1  0  0  0  0
 15 16  1  0  0  0  0
 17 15  1  0  0  0  0
 18 12  1  0  0  0  0
 18 17  1  0  0  0  0
 19 24  1  0  0  0  0
 20 21  1  0  0  0  0
 20 26  1  0  0  0  0
 21 28  1  0  0  0  0
 22 27  1  0  0  0  0
 22 21  2  0  0  0  0
 23 22  1  0  0  0  0
 24 23  2  0  0  0  0
 24 25  1  0  0  0  0
 25 20  2  0  0  0  0
 28 30  1  0  0  0  0
 28 29  1  0  0  0  0
 31 28  1  0  0  0  0
M  END
>  <minimizedAffinity>
-5.55519819

$$$$

 OpenBabel03252505553D

 31 33  0  0  0  0  0  0  0  0999 V2000
   36.5850   31.1640   40.2400 C   0  0  0  0  0  0  0  0  0  0  0  0
   35.6200   31.7280   40.2220 H   0  0  0  0  0  0  0  0  0  0  0  0
   36.5390   30.3150   39.5250 H   0  0  0  0  0  0  0  0  0  0  0  0
   37.7010   32.0770   40.0150 C   0  0  0  0  0  0  0  0  0  0  0  0
   37.8460   33.4140   40.3420 C   0  0  0  0  0  0  0  0  0  0  0  0
   38.9920   34.0650   40.0270 C   0  0  0  0  0  0  0  0  0  0  0  0
   39.9980   33.4350   39.3990 N   0  0  0  0  0  0  0  0  0  0  0  0
   39.8660   32.1410   39.0800 C   0  0  0  0  0  0  0  0  0  0  0  0
   38.7330   31.4540   39.3770 N   0  0  0  0  0  0  0  0  0  0  0  0
   36.9840   33.8110   40.8390 H   0  0  0  0  0  0  0  0  0  0  0  0
   39.0030   35.1030   40.3270 H   0  0  0  0  0  0  0  0  0  0  0  0
   40.9540   31.5050   38.4130 N   0  0  0  0  0  0  0  0  0  0  0  0
   41.5810   30.3710   39.0530 C   0  0  0  0  0  2  0  0  0  0  0  0
   42.9210   30.1700   38.3840 C   0  0  0  0  0  2  0  0  0  0  0  0
   43.6370   31.4480   38.1100 C   0  0  0  0  0  3  0  0  0  0  0  0
   44.0450   31.8360   39.0750 H   0  0  0  0  0  0  0  0  0  0  0  0
   42.8530   32.4770   37.3600 C   0  0  0  0  0  2  0  0  0  0  0  0
   41.4520   31.9510   37.1240 C   0  0  0  0  0  2  0  0  0  0  0  0
   36.7250   30.6180   41.5300 O   0  0  0  0  0  0  0  0  0  0  0  0
   36.9880   27.1550   40.7190 C   0  0  0  0  0  0  0  0  0  0  0  0
   37.2670   26.5440   41.9380 C   0  0  0  0  0  0  0  0  0  0  0  0
   37.3650   27.3740   43.0700 C   0  0  0  0  0  0  0  0  0  0  0  0
   37.1850   28.7020   42.9180 N   0  0  0  0  0  0  0  0  0  0  0  0
   36.9150   29.2510   41.7100 C   0  0  0  0  0  0  0  0  0  0  0  0
   36.8150   28.4910   40.6110 N   0  0  0  0  0  0  0  0  0  0  0  0
   36.9000   26.5670   39.8140 H   0  0  0  0  0  0  0  0  0  0  0  0
   37.5800   26.8970   44.0030 H   0  0  0  0  0  0  0  0  0  0  0  0
   37.4440   25.0620   41.9650 C   0  0  0  0  0  0  0  0  0  0  0  0
   38.6250   24.8550   42.6540 F   0  0  0  0  0  0  0  0  0  0  0  0
   37.5880   24.6670   40.6270 F   0  0  0  0  0  0  0  0  0  0  0  0
   36.3640   24.5010   42.5670 F   0  0  0  0  0  0  0  0  0  0  0  0
  1 19  1  0  0  0  0
  2  1  1  0  0  0  0
  3  1  1  0  0  0  0
  4  1  1  0  0  0  0
  4  5  1  0  0  0  0
  5 10  1  0  0  0  0
  6 11  1  0  0  0  0
  6  5  2  0  0  0  0
  7  6  1  0  0  0  0
  8  9  1  0  0  0  0
  8  7  2  0  0  0  0
  9  4  2  0  0  0  0
 12 13  1  0  0  0  0
 12  8  1  0  0  0  0
 14 13  1  0  0  0  0
 15 14  1  0  0  0  0
 15 16  1  0  0  0  0
 17 15  1  0  0  0  0
 18 17  1  0  0  0  0
 18 12  1  0  0  0  0
 19 24  1  0  0  0  0
 20 21  1  0  0  0  0
 21 28  1  0  0  0  0
 21 22  2  0  0  0  0
 22 27  1  0  0  0  0
 23 22  1  0  0  0  0
 24 23  2  0  0  0  0
 25 20  2  0  0  0  0
 25 24  1  0  0  0  0
 26 20  1  0  0  0  0
 28 31  1  0  0  0  0
 28 29  1  0  0  0  0
 30 28  1  0  0  0  0
M  END
>  <minimizedAffinity>
-5.46324062

$$$$

 OpenBabel03252505553D

 31 33  0  0  0  0  0  0  0  0999 V2000
   36.5430   27.6050   42.8510 C   0  0  0  0  0  0  0  0  0  0  0  0
   35.9070   27.8160   41.9560 H   0  0  0  0  0  0  0  0  0  0  0  0
   35.8990   27.3750   43.7260 H   0  0  0  0  0  0  0  0  0  0  0  0
   37.5190   26.5670   42.5350 C   0  0  0  0  0  0  0  0  0  0  0  0
   37.3370   25.2750   42.0720 C   0  0  0  0  0  0  0  0  0  0  0  0
   38.4130   24.4820   41.8470 C   0  0  0  0  0  0  0  0  0  0  0  0
   39.6600   24.9260   42.0660 N   0  0  0  0  0  0  0  0  0  0  0  0
   39.8450   26.1740   42.5140 C   0  0  0  0  0  0  0  0  0  0  0  0
   38.7940   27.0000   42.7520 N   0  0  0  0  0  0  0  0  0  0  0  0
   36.3030   25.0310   41.9340 H   0  0  0  0  0  0  0  0  0  0  0  0
   38.1600   23.4940   41.4870 H   0  0  0  0  0  0  0  0  0  0  0  0
   41.1850   26.6110   42.7360 N   0  0  0  0  0  0  0  0  0  0  0  0
   41.6650   27.7510   41.9900 C   0  0  0  0  0  2  0  0  0  0  0  0
   43.1740   27.7340   42.0780 C   0  0  0  0  0  2  0  0  0  0  0  0
   43.7530   26.3690   41.9390 C   0  0  0  0  0  3  0  0  0  0  0  0
   43.6960   26.0700   40.8640 H   0  0  0  0  0  0  0  0  0  0  0  0
   43.1870   25.3320   42.8570 C   0  0  0  0  0  2  0  0  0  0  0  0
   42.0760   25.9560   43.6760 C   0  0  0  0  0  2  0  0  0  0  0  0
   37.2490   28.7860   43.1490 O   0  0  0  0  0  0  0  0  0  0  0  0
   36.4370   31.0950   40.5560 C   0  0  0  0  0  0  0  0  0  0  0  0
   37.6500   31.7100   40.2610 C   0  0  0  0  0  0  0  0  0  0  0  0
   38.7780   31.3000   40.9940 C   0  0  0  0  0  0  0  0  0  0  0  0
   38.6280   30.3440   41.9340 N   0  0  0  0  0  0  0  0  0  0  0  0
   37.4250   29.7740   42.1850 C   0  0  0  0  0  0  0  0  0  0  0  0
   36.3310   30.1400   41.5060 N   0  0  0  0  0  0  0  0  0  0  0  0
   35.5350   31.3700   40.0230 H   0  0  0  0  0  0  0  0  0  0  0  0
   39.7070   31.7780   40.7620 H   0  0  0  0  0  0  0  0  0  0  0  0
   37.6750   32.7560   39.1960 C   0  0  0  0  0  0  0  0  0  0  0  0
   39.0170   32.9820   38.9480 F   0  0  0  0  0  0  0  0  0  0  0  0
   37.0890   33.8980   39.7630 F   0  0  0  0  0  0  0  0  0  0  0  0
   36.9970   32.2980   38.1120 F   0  0  0  0  0  0  0  0  0  0  0  0
  1 19  1  0  0  0  0
  1  3  1  0  0  0  0
  2  1  1  0  0  0  0
  4  9  1  0  0  0  0
  4  1  1  0  0  0  0
  5  4  2  0  0  0  0
  6  7  2  0  0  0  0
  6  5  1  0  0  0  0
  7  8  1  0  0  0  0
  8 12  1  0  0  0  0
  8  9  2  0  0  0  0
 10  5  1  0  0  0  0
 11  6  1  0  0  0  0
 12 18  1  0  0  0  0
 13 14  1  0  0  0  0
 13 12  1  0  0  0  0
 15 14  1  0  0  0  0
 15 17  1  0  0  0  0
 16 15  1  0  0  0  0
 17 18  1  0  0  0  0
 20 25  1  0  0  0  0
 21 20  2  0  0  0  0
 21 22  1  0  0  0  0
 22 23  2  0  0  0  0
 23 24  1  0  0  0  0
 24 19  1  0  0  0  0
 25 24  2  0  0  0  0
 26 20  1  0  0  0  0
 27 22  1  0  0  0  0
 28 30  1  0  0  0  0
 28 21  1  0  0  0  0
 29 28  1  0  0  0  0
 31 28  1  0  0  0  0
M  END
>  <minimizedAffinity>
-5.40688705

$$$$

 OpenBabel03252505553D

 31 33  0  0  0  0  0  0  0  0999 V2000
   34.7880   28.1610   36.9600 C   0  0  0  0  0  0  0  0  0  0  0  0
   35.0370   29.1170   36.4370 H   0  0  0  0  0  0  0  0  0  0  0  0
   35.2040   27.3020   36.3930 H   0  0  0  0  0  0  0  0  0  0  0  0
   35.2220   28.2270   38.3520 C   0  0  0  0  0  0  0  0  0  0  0  0
   34.9860   29.1860   39.3210 C   0  0  0  0  0  0  0  0  0  0  0  0
   35.5000   29.0300   40.5650 C   0  0  0  0  0  0  0  0  0  0  0  0
   36.2410   27.9550   40.8790 N   0  0  0  0  0  0  0  0  0  0  0  0
   36.4750   27.0230   39.9470 C   0  0  0  0  0  0  0  0  0  0  0  0
   35.9780   27.1430   38.6900 N   0  0  0  0  0  0  0  0  0  0  0  0
   34.3840   29.9950   38.9590 H   0  0  0  0  0  0  0  0  0  0  0  0
   35.2560   29.8340   41.2450 H   0  0  0  0  0  0  0  0  0  0  0  0
   37.2670   25.8950   40.3170 N   0  0  0  0  0  0  0  0  0  0  0  0
   36.6750   24.5810   40.2190 C   0  0  0  0  0  2  0  0  0  0  0  0
   37.5280   23.6490   41.0480 C   0  0  0  0  0  2  0  0  0  0  0  0
   37.9680   24.2490   42.3390 C   0  0  0  0  0  3  0  0  0  0  0  0
   37.0950   24.2600   43.0360 H   0  0  0  0  0  0  0  0  0  0  0  0
   38.6400   25.5810   42.2350 C   0  0  0  0  0  2  0  0  0  0  0  0
   38.6360   26.0200   40.7850 C   0  0  0  0  0  2  0  0  0  0  0  0
   33.3870   28.0310   36.9490 O   0  0  0  0  0  0  0  0  0  0  0  0
   32.0250   30.4430   34.7020 C   0  0  0  0  0  0  0  0  0  0  0  0
   31.0470   31.0880   35.4530 C   0  0  0  0  0  0  0  0  0  0  0  0
   30.8650   30.6610   36.7810 C   0  0  0  0  0  0  0  0  0  0  0  0
   31.6380   29.6610   37.2520 N   0  0  0  0  0  0  0  0  0  0  0  0
   32.5780   29.0640   36.4830 C   0  0  0  0  0  0  0  0  0  0  0  0
   32.7790   29.4440   35.2150 N   0  0  0  0  0  0  0  0  0  0  0  0
   32.2100   30.7290   33.6740 H   0  0  0  0  0  0  0  0  0  0  0  0
   30.1110   31.1620   37.3510 H   0  0  0  0  0  0  0  0  0  0  0  0
   30.2610   32.1800   34.8060 C   0  0  0  0  0  0  0  0  0  0  0  0
   31.1610   32.8260   33.9780 F   0  0  0  0  0  0  0  0  0  0  0  0
   29.8600   33.0330   35.8450 F   0  0  0  0  0  0  0  0  0  0  0  0
   29.2120   31.6330   34.1390 F   0  0  0  0  0  0  0  0  0  0  0  0
  1  4  1  0  0  0  0
  2  1  1  0  0  0  0
  3  1  1  0  0  0  0
  4  9  2  0  0  0  0
  4  5  1  0  0  0  0
  5  6  2  0  0  0  0
  6  7  1  0  0  0  0
  6 11  1  0  0  0  0
  8 12  1  0  0  0  0
  8  7  2  0  0  0  0
  9  8  1  0  0  0  0
 10  5  1  0  0  0  0
 12 18  1  0  0  0  0
 13 12  1  0  0  0  0
 13 14  1  0  0  0  0
 14 15  1  0  0  0  0
 15 16  1  0  0  0  0
 17 15  1  0  0  0  0
 18 17  1  0  0  0  0
 19  1  1  0  0  0  0
 20 25  2  0  0  0  0
 20 21  1  0  0  0  0
 21 22  2  0  0  0  0
 22 23  1  0  0  0  0
 22 27  1  0  0  0  0
 24 19  1  0  0  0  0
 24 23  2  0  0  0  0
 25 24  1  0  0  0  0
 26 20  1  0  0  0  0
 28 21  1  0  0  0  0
 28 30  1  0  0  0  0
 29 28  1  0  0  0  0
 31 28  1  0  0  0  0
M  END
>  <minimizedAffinity>
-5.26814222

$$$$

 OpenBabel03252505553D

 31 33  0  0  0  0  0  0  0  0999 V2000
   35.1620   29.4100   40.0400 C   0  0  0  0  0  0  0  0  0  0  0  0
   35.0290   30.0520   39.1350 H   0  0  0  0  0  0  0  0  0  0  0  0
   34.1700   29.1320   40.4550 H   0  0  0  0  0  0  0  0  0  0  0  0
   36.0180   28.2720   39.7230 C   0  0  0  0  0  0  0  0  0  0  0  0
   36.3310   27.6960   38.5040 C   0  0  0  0  0  0  0  0  0  0  0  0
   37.1630   26.6280   38.4550 C   0  0  0  0  0  0  0  0  0  0  0  0
   37.6950   26.1120   39.5740 N   0  0  0  0  0  0  0  0  0  0  0  0
   37.3990   26.6630   40.7580 C   0  0  0  0  0  0  0  0  0  0  0  0
   36.5680   27.7330   40.8490 N   0  0  0  0  0  0  0  0  0  0  0  0
   35.8500   28.1890   37.6830 H   0  0  0  0  0  0  0  0  0  0  0  0
   37.3410   26.2560   37.4560 H   0  0  0  0  0  0  0  0  0  0  0  0
   37.9820   26.0870   41.9260 N   0  0  0  0  0  0  0  0  0  0  0  0
   38.8320   26.9190   42.7470 C   0  0  0  0  0  2  0  0  0  0  0  0
   39.6370   25.9940   43.6300 C   0  0  0  0  0  2  0  0  0  0  0  0
   40.1300   24.7830   42.9150 C   0  0  0  0  0  3  0  0  0  0  0  0
   40.9800   25.0860   42.2570 H   0  0  0  0  0  0  0  0  0  0  0  0
   39.0870   23.9970   42.1850 C   0  0  0  0  0  2  0  0  0  0  0  0
   37.7560   24.7070   42.3160 C   0  0  0  0  0  2  0  0  0  0  0  0
   35.8190   30.1880   41.0120 O   0  0  0  0  0  0  0  0  0  0  0  0
   39.1300   31.5020   41.1870 C   0  0  0  0  0  0  0  0  0  0  0  0
   39.1930   32.3970   40.1230 C   0  0  0  0  0  0  0  0  0  0  0  0
   38.0420   32.5390   39.3280 C   0  0  0  0  0  0  0  0  0  0  0  0
   36.9490   31.8100   39.6330 N   0  0  0  0  0  0  0  0  0  0  0  0
   36.9360   30.9500   40.6790 C   0  0  0  0  0  0  0  0  0  0  0  0
   38.0130   30.7900   41.4570 N   0  0  0  0  0  0  0  0  0  0  0  0
   39.9860   31.3510   41.8340 H   0  0  0  0  0  0  0  0  0  0  0  0
   38.0990   33.2290   38.5120 H   0  0  0  0  0  0  0  0  0  0  0  0
   40.4680   33.1420   39.8970 C   0  0  0  0  0  0  0  0  0  0  0  0
   40.4050   33.5690   38.5830 F   0  0  0  0  0  0  0  0  0  0  0  0
   41.4960   32.2000   40.0510 F   0  0  0  0  0  0  0  0  0  0  0  0
   40.5470   34.1600   40.7910 F   0  0  0  0  0  0  0  0  0  0  0  0
  1  3  1  0  0  0  0
  1 19  1  0  0  0  0
  2  1  1  0  0  0  0
  4  1  1  0  0  0  0
  4  9  1  0  0  0  0
  5  4  2  0  0  0  0
  6  5  1  0  0  0  0
  6  7  2  0  0  0  0
  7  8  1  0  0  0  0
  8  9  2  0  0  0  0
  8 12  1  0  0  0  0
 10  5  1  0  0  0  0
 11  6  1  0  0  0  0
 12 18  1  0  0  0  0
 12 13  1  0  0  0  0
 13 14  1  0  0  0  0
 15 14  1  0  0  0  0
 16 15  1  0  0  0  0
 17 18  1  0  0  0  0
 17 15  1  0  0  0  0
 20 25  1  0  0  0  0
 20 26  1  0  0  0  0
 21 20  2  0  0  0  0
 22 23  2  0  0  0  0
 22 21  1  0  0  0  0
 23 24  1  0  0  0  0
 24 19  1  0  0  0  0
 24 25  2  0  0  0  0
 27 22  1  0  0  0  0
 28 30  1  0  0  0  0
 28 21  1  0  0  0  0
 28 31  1  0  0  0  0
 29 28  1  0  0  0  0
M  END
>  <minimizedAffinity>
-5.14390469

$$$$

 OpenBabel03252505553D

 31 33  0  0  0  0  0  0  0  0999 V2000
   37.7110   31.0750   37.9330 C   0  0  0  0  0  0  0  0  0  0  0  0
   38.0080   30.2610   37.2270 H   0  0  0  0  0  0  0  0  0  0  0  0
   36.9720   31.7460   37.4460 H   0  0  0  0  0  0  0  0  0  0  0  0
   37.2550   30.4980   39.1940 C   0  0  0  0  0  0  0  0  0  0  0  0
   36.6220   31.0870   40.2740 C   0  0  0  0  0  0  0  0  0  0  0  0
   36.2900   30.3380   41.3530 C   0  0  0  0  0  0  0  0  0  0  0  0
   36.5650   29.0250   41.3970 N   0  0  0  0  0  0  0  0  0  0  0  0
   37.1780   28.4460   40.3570 C   0  0  0  0  0  0  0  0  0  0  0  0
   37.5280   29.1620   39.2570 N   0  0  0  0  0  0  0  0  0  0  0  0
   36.4530   32.1350   40.1280 H   0  0  0  0  0  0  0  0  0  0  0  0
   35.7990   30.8950   42.1390 H   0  0  0  0  0  0  0  0  0  0  0  0
   37.4550   27.0490   40.4390 N   0  0  0  0  0  0  0  0  0  0  0  0
   36.8710   26.1750   39.4480 C   0  0  0  0  0  2  0  0  0  0  0  0
   36.9540   24.7690   39.9940 C   0  0  0  0  0  2  0  0  0  0  0  0
   36.6300   24.6840   41.4460 C   0  0  0  0  0  3  0  0  0  0  0  0
   35.5250   24.7900   41.5660 H   0  0  0  0  0  0  0  0  0  0  0  0
   37.3990   25.6100   42.3330 C   0  0  0  0  0  2  0  0  0  0  0  0
   38.2970   26.4780   41.4750 C   0  0  0  0  0  2  0  0  0  0  0  0
   38.8620   31.8400   38.1980 O   0  0  0  0  0  0  0  0  0  0  0  0
   42.1600   32.1300   36.8720 C   0  0  0  0  0  0  0  0  0  0  0  0
   42.5800   30.8110   36.7260 C   0  0  0  0  0  0  0  0  0  0  0  0
   41.6800   29.7990   37.1030 C   0  0  0  0  0  0  0  0  0  0  0  0
   40.4700   30.1540   37.5830 N   0  0  0  0  0  0  0  0  0  0  0  0
   40.1050   31.4520   37.7070 C   0  0  0  0  0  0  0  0  0  0  0  0
   40.9370   32.4410   37.3570 N   0  0  0  0  0  0  0  0  0  0  0  0
   42.8110   32.9510   36.5970 H   0  0  0  0  0  0  0  0  0  0  0  0
   42.0100   28.7880   36.9880 H   0  0  0  0  0  0  0  0  0  0  0  0
   43.9480   30.5590   36.1830 C   0  0  0  0  0  0  0  0  0  0  0  0
   43.7550   30.2890   34.8400 F   0  0  0  0  0  0  0  0  0  0  0  0
   44.4200   29.4150   36.8430 F   0  0  0  0  0  0  0  0  0  0  0  0
   44.7200   31.6530   36.4070 F   0  0  0  0  0  0  0  0  0  0  0  0
  1 19  1  0  0  0  0
  1  4  1  0  0  0  0
  2  1  1  0  0  0  0
  3  1  1  0  0  0  0
  4  9  2  0  0  0  0
  4  5  1  0  0  0  0
  5  6  2  0  0  0  0
  6  7  1  0  0  0  0
  6 11  1  0  0  0  0
  8 12  1  0  0  0  0
  8  7  2  0  0  0  0
  9  8  1  0  0  0  0
 10  5  1  0  0  0  0
 12 18  1  0  0  0  0
 13 14  1  0  0  0  0
 13 12  1  0  0  0  0
 14 15  1  0  0  0  0
 15 16  1  0  0  0  0
 15 17  1  0  0  0  0
 18 17  1  0  0  0  0
 20 25  1  0  0  0  0
 21 20  2  0  0  0  0
 21 22  1  0  0  0  0
 22 23  2  0  0  0  0
 23 24  1  0  0  0  0
 24 19  1  0  0  0  0
 25 24  2  0  0  0  0
 26 20  1  0  0  0  0
 27 22  1  0  0  0  0
 28 31  1  0  0  0  0
 28 21  1  0  0  0  0
 28 30  1  0  0  0  0
 29 28  1  0  0  0  0
M  END
>  <minimizedAffinity>
-5.13644075

$$$$
