
 OpenBabel03252503183D

 37 40  0  0  0  0  0  0  0  0999 V2000
   44.7460   34.8350   41.4170 C   0  0  0  0  0  0  0  0  0  0  0  0
   43.5590   35.5120   41.2510 C   0  0  0  0  0  0  0  0  0  0  0  0
   42.9660   34.9220   40.1760 N   0  0  0  0  0  0  0  0  0  0  0  0
   43.7530   33.9500   39.7250 C   0  0  0  0  0  0  0  0  0  0  0  0
   44.8570   33.8810   40.4790 N   0  0  0  0  0  0  0  0  0  0  0  0
   43.5860   33.0680   38.6380 N   0  0  0  0  0  0  0  0  0  0  0  0
   43.1810   36.3170   41.8320 H   0  0  0  0  0  0  0  0  0  0  0  0
   43.6680   32.0340   38.6420 H   0  0  0  0  0  0  0  0  0  0  0  0
   43.3540   33.3590   37.6610 H   0  0  0  0  0  0  0  0  0  0  0  0
   41.6860   35.2540   39.5770 C   0  0  0  0  0  0  0  0  0  0  0  0
   41.2600   36.0940   40.1760 H   0  0  0  0  0  0  0  0  0  0  0  0
   41.8700   35.7220   38.5660 H   0  0  0  0  0  0  0  0  0  0  0  0
   40.7780   34.1490   39.4450 N   0  0  0  0  0  0  0  0  0  0  0  0
   39.8520   34.1990   40.5460 C   0  0  0  0  0  0  0  0  0  0  0  0
   38.6270   33.3600   40.3510 C   0  0  0  0  0  0  0  0  0  0  0  0
   37.9930   33.5940   38.9990 C   0  0  0  0  0  0  0  0  0  0  0  0
   37.8730   34.7010   38.8110 H   0  0  0  0  0  0  0  0  0  0  0  0
   39.0670   33.1590   37.9910 C   0  0  0  0  0  0  0  0  0  0  0  0
   40.1510   34.1990   38.1620 C   0  0  0  0  0  0  0  0  0  0  0  0
   45.7850   35.0950   42.4720 C   0  0  0  0  0  0  0  0  0  0  0  0
   46.9230   35.6040   42.2510 O   0  0  0  0  0  0  0  0  0  0  0  0
   44.7540   35.6380   44.6300 C   0  0  0  0  0  0  0  0  0  0  0  0
   45.5150   34.7620   43.8260 C   0  0  0  0  0  0  0  0  0  0  0  0
   45.9420   33.6120   44.4670 C   0  0  0  0  0  0  0  0  0  0  0  0
   45.6660   33.3430   45.7380 N   0  0  0  0  0  0  0  0  0  0  0  0
   44.9280   34.2160   46.4810 C   0  0  0  0  0  0  0  0  0  0  0  0
   44.4810   35.3570   45.9110 N   0  0  0  0  0  0  0  0  0  0  0  0
   44.4030   36.5380   44.1750 H   0  0  0  0  0  0  0  0  0  0  0  0
   44.7050   33.9900   47.5210 H   0  0  0  0  0  0  0  0  0  0  0  0
   46.7170   32.6760   43.7180 C   0  0  0  0  0  0  0  0  0  0  0  0
   48.0460   32.5310   43.4450 C   0  0  0  0  0  0  0  0  0  0  0  0
   48.4960   31.5450   42.7080 C   0  0  0  0  0  0  0  0  0  0  0  0
   47.5850   30.6670   42.2250 C   0  0  0  0  0  0  0  0  0  0  0  0
   46.0040   31.3000   42.8660 S   0  0  0  0  0  0  0  0  0  0  0  0
   48.6870   33.3150   43.8990 H   0  0  0  0  0  0  0  0  0  0  0  0
   49.5290   31.3590   42.4460 H   0  0  0  0  0  0  0  0  0  0  0  0
   47.6760   29.7680   41.5960 H   0  0  0  0  0  0  0  0  0  0  0  0
  1 20  1  0  0  0  0
  2  1  2  0  0  0  0
  2  7  1  0  0  0  0
  3  2  1  0  0  0  0
  4  3  1  0  0  0  0
  4  5  2  0  0  0  0
  5  1  1  0  0  0  0
  6  8  1  0  0  0  0
  6  4  1  0  0  0  0
  9  6  1  0  0  0  0
 10  3  1  0  0  0  0
 10 11  1  0  0  0  0
 12 10  1  0  0  0  0
 13 10  1  0  0  0  0
 13 14  1  0  0  0  0
 15 14  1  0  0  0  0
 16 15  1  0  0  0  0
 17 16  1  0  0  0  0
 18 19  1  0  0  0  0
 18 16  1  0  0  0  0
 19 13  1  0  0  0  0
 20 23  1  0  0  0  0
 21 20  2  0  0  0  0
 22 27  1  0  0  0  0
 23 24  1  0  0  0  0
 23 22  2  0  0  0  0
 24 25  2  0  0  0  0
 25 26  1  0  0  0  0
 26 29  1  0  0  0  0
 27 26  2  0  0  0  0
 28 22  1  0  0  0  0
 30 24  1  0  0  0  0
 31 30  2  0  0  0  0
 31 35  1  0  0  0  0
 32 31  1  0  0  0  0
 33 32  2  0  0  0  0
 33 34  1  0  0  0  0
 34 30  1  0  0  0  0
 36 32  1  0  0  0  0
 37 33  1  0  0  0  0
M  END
>  <minimizedAffinity>
-5.90970707

>  <minimizedRMSD>
2.02035546

$$$$
