
 OpenBabel03252508163D

 45 49  0  0  1  0  0  0  0  0999 V2000
   47.1650   31.1240   46.9160 C   0  0  0  0  0  0  0  0  0  0  0  0
   46.4020   30.3300   46.6570 H   0  0  0  0  0  0  0  0  0  0  0  0
   48.1240   30.6700   46.7740 H   0  0  0  0  0  0  0  0  0  0  0  0
   46.7830   31.6250   48.2630 C   0  0  1  0  0  0  0  0  0  0  0  0
   46.2990   30.5850   49.2140 C   0  0  0  0  0  0  0  0  0  0  0  0
   47.5720   31.2580   49.4520 C   0  0  1  0  0  0  0  0  0  0  0  0
   46.0480   32.4800   48.2430 H   0  0  0  0  0  0  0  0  0  0  0  0
   46.3040   29.5190   48.8800 H   0  0  0  0  0  0  0  0  0  0  0  0
   45.4620   30.7730   49.9160 H   0  0  0  0  0  0  0  0  0  0  0  0
   47.5890   32.0110   50.2680 H   0  0  0  0  0  0  0  0  0  0  0  0
   48.8830   30.5740   49.2340 C   0  0  2  0  0  0  0  0  0  0  0  0
   49.6100   30.1630   50.5400 C   0  0  0  0  0  0  0  0  0  0  0  0
   50.1370   31.2780   49.7610 C   0  0  1  0  0  0  0  0  0  0  0  0
   49.0300   29.8040   48.4700 H   0  0  0  0  0  0  0  0  0  0  0  0
   49.0850   30.4190   51.5090 H   0  0  0  0  0  0  0  0  0  0  0  0
   50.0690   29.1810   50.6230 H   0  0  0  0  0  0  0  0  0  0  0  0
   49.9650   32.3050   50.1490 H   0  0  0  0  0  0  0  0  0  0  0  0
   51.2490   31.2020   48.8710 N   0  0  0  0  0  0  0  0  0  0  0  0
   51.6310   29.9230   48.4090 C   0  0  0  0  0  0  0  0  0  0  0  0
   52.9690   29.4570   48.9620 C   0  0  0  0  0  0  0  0  0  0  0  0
   54.0860   30.3880   48.5540 C   0  0  0  0  0  0  0  0  0  0  0  0
   54.4900   30.1430   47.5350 H   0  0  0  0  0  0  0  0  0  0  0  0
   53.6040   31.8080   48.5500 C   0  0  0  0  0  0  0  0  0  0  0  0
   52.3480   31.9870   49.3640 C   0  0  0  0  0  0  0  0  0  0  0  0
   46.0710   33.0710   46.1670 C   0  0  0  0  0  0  0  0  0  0  0  0
   46.9090   32.1750   45.8570 C   0  0  0  0  0  0  0  0  0  0  0  0
   44.5380   35.9240   44.4030 C   0  0  0  0  0  0  0  0  0  0  0  0
   45.1730   35.9000   43.1650 C   0  0  0  0  0  0  0  0  0  0  0  0
   46.1010   34.9130   42.9750 C   0  0  0  0  0  0  0  0  0  0  0  0
   46.3550   34.0240   43.9700 N   0  0  0  0  0  0  0  0  0  0  0  0
   45.7210   34.0750   45.1590 C   0  0  0  0  0  0  0  0  0  0  0  0
   44.8250   35.0280   45.3430 N   0  0  0  0  0  0  0  0  0  0  0  0
   43.7940   36.6980   44.5880 H   0  0  0  0  0  0  0  0  0  0  0  0
   44.9530   36.6200   42.3900 H   0  0  0  0  0  0  0  0  0  0  0  0
   46.8420   34.7670   41.7320 C   0  0  0  0  0  0  0  0  0  0  0  0
   48.0480   35.3540   41.4780 C   0  0  0  0  0  0  0  0  0  0  0  0
   48.7390   35.2060   40.2890 C   0  0  0  0  0  0  0  0  0  0  0  0
   48.2080   34.4300   39.2840 C   0  0  0  0  0  0  0  0  0  0  0  0
   46.9950   33.8150   39.4880 C   0  0  0  0  0  0  0  0  0  0  0  0
   46.3550   34.0000   40.6940 C   0  0  0  0  0  0  0  0  0  0  0  0
   48.5050   35.9790   42.2510 H   0  0  0  0  0  0  0  0  0  0  0  0
   49.7030   35.7220   40.1850 H   0  0  0  0  0  0  0  0  0  0  0  0
   48.8150   34.3670   38.3840 H   0  0  0  0  0  0  0  0  0  0  0  0
   46.5980   33.2120   38.6870 H   0  0  0  0  0  0  0  0  0  0  0  0
   45.4050   33.4770   40.7610 H   0  0  0  0  0  0  0  0  0  0  0  0
  1  4  1  0  0  0  0
  2  1  1  0  0  0  0
  3  1  1  0  0  0  0
  4  7  1  1  0  0  0
  4  5  1  0  0  0  0
  4  6  1  0  0  0  0
  5  6  1  0  0  0  0
  5  9  1  0  0  0  0
  6 10  1  1  0  0  0
  8  5  1  0  0  0  0
 11 14  1  6  0  0  0
 11  6  1  0  0  0  0
 11 13  1  0  0  0  0
 11 12  1  0  0  0  0
 12 16  1  0  0  0  0
 12 15  1  0  0  0  0
 13 17  1  1  0  0  0
 13 12  1  0  0  0  0
 18 24  1  0  0  0  0
 18 13  1  0  0  0  0
 19 18  1  0  0  0  0
 19 20  1  0  0  0  0
 21 20  1  0  0  0  0
 22 21  1  0  0  0  0
 23 21  1  0  0  0  0
 23 24  1  0  0  0  0
 26 25  2  0  0  0  0
 26  1  1  0  0  0  0
 27 33  1  0  0  0  0
 27 32  1  0  0  0  0
 28 27  2  0  0  0  0
 29 28  1  0  0  0  0
 29 30  2  0  0  0  0
 30 31  1  0  0  0  0
 31 32  2  0  0  0  0
 31 25  1  0  0  0  0
 34 28  1  0  0  0  0
 35 29  1  0  0  0  0
 36 35  1  0  0  0  0
 36 41  1  0  0  0  0
 37 36  2  0  0  0  0
 38 39  2  0  0  0  0
 38 37  1  0  0  0  0
 39 40  1  0  0  0  0
 40 45  1  0  0  0  0
 40 35  2  0  0  0  0
 42 37  1  0  0  0  0
 43 38  1  0  0  0  0
 44 39  1  0  0  0  0
M  END
>  <minimizedAffinity>
-6.44042253

>  <minimizedRMSD>
0.798406065

$$$$
