
 OpenBabel03252505263D

 41 44  0  0  1  0  0  0  0  0999 V2000
   35.9180   26.2860   38.1690 F   0  0  0  0  0  0  0  0  0  0  0  0
   35.9840   27.2170   39.1620 C   0  0  0  0  0  0  0  0  0  0  0  0
   35.3350   28.4230   38.9670 C   0  0  0  0  0  0  0  0  0  0  0  0
   35.4070   29.3550   39.9720 C   0  0  0  0  0  0  0  0  0  0  0  0
   36.1140   29.0670   41.1270 C   0  0  0  0  0  0  0  0  0  0  0  0
   36.7560   27.8690   41.3150 C   0  0  0  0  0  0  0  0  0  0  0  0
   36.6790   26.9210   40.2850 C   0  0  0  0  0  0  0  0  0  0  0  0
   34.8930   30.2910   39.7990 H   0  0  0  0  0  0  0  0  0  0  0  0
   36.1580   29.8180   41.9070 H   0  0  0  0  0  0  0  0  0  0  0  0
   37.3040   27.6730   42.2350 H   0  0  0  0  0  0  0  0  0  0  0  0
   37.3610   25.6980   40.5320 N   0  0  0  0  0  0  0  0  0  0  0  0
   38.7580   25.3580   40.4210 C   0  0  0  0  0  0  0  0  0  0  0  0
   39.0330   24.6780   41.7720 C   0  0  0  0  0  0  0  0  0  0  0  0
   37.6750   24.1790   42.2060 C   0  0  0  0  0  0  0  0  0  0  0  0
   36.8430   24.4100   40.9750 C   0  0  2  0  0  0  0  0  0  0  0  0
   39.3500   26.2620   40.2810 H   0  0  0  0  0  0  0  0  0  0  0  0
   38.9770   24.6260   39.6160 H   0  0  0  0  0  0  0  0  0  0  0  0
   39.7990   23.8950   41.6920 H   0  0  0  0  0  0  0  0  0  0  0  0
   39.3130   25.5160   42.4520 H   0  0  0  0  0  0  0  0  0  0  0  0
   37.7450   23.0770   42.3620 H   0  0  0  0  0  0  0  0  0  0  0  0
   37.3020   24.6630   43.1080 H   0  0  0  0  0  0  0  0  0  0  0  0
   35.7910   24.5770   41.3490 H   0  0  0  0  0  0  0  0  0  0  0  0
   36.9570   23.3360   39.9570 C   0  0  0  0  0  0  0  0  0  0  0  0
   37.1890   23.6860   38.9410 H   0  0  0  0  0  0  0  0  0  0  0  0
   37.6700   22.5610   40.3190 H   0  0  0  0  0  0  0  0  0  0  0  0
   35.9650   22.8250   39.8890 H   0  0  0  0  0  0  0  0  0  0  0  0
   34.4920   28.6340   35.4160 C   0  0  0  0  0  0  0  0  0  0  0  0
   33.1970   29.1660   35.4090 C   0  0  0  0  0  0  0  0  0  0  0  0
   32.6600   29.4350   36.6650 C   0  0  0  0  0  0  0  0  0  0  0  0
   33.3880   29.1770   37.7740 N   0  0  0  0  0  0  0  0  0  0  0  0
   34.6070   28.6750   37.7360 C   0  0  0  0  0  0  0  0  0  0  0  0
   35.1640   28.4010   36.5510 N   0  0  0  0  0  0  0  0  0  0  0  0
   34.9290   28.4180   34.4450 H   0  0  0  0  0  0  0  0  0  0  0  0
   32.6040   29.3770   34.5410 H   0  0  0  0  0  0  0  0  0  0  0  0
   31.3570   29.9790   36.8620 N   0  0  0  0  0  0  0  0  0  0  0  0
   30.5360   30.5990   35.8410 C   0  0  0  0  0  2  0  0  0  0  0  0
   30.2590   32.0260   36.2790 C   0  0  0  0  0  2  0  0  0  0  0  0
   29.8430   32.1380   37.7140 C   0  0  0  0  0  3  0  0  0  0  0  0
   28.9000   32.7380   37.8530 H   0  0  0  0  0  0  0  0  0  0  0  0
   29.5730   30.7720   38.3140 C   0  0  0  0  0  2  0  0  0  0  0  0
   30.7870   29.9120   38.1950 C   0  0  0  0  0  2  0  0  0  0  0  0
  1  2  1  0  0  0  0
  2  7  1  0  0  0  0
  3  2  2  0  0  0  0
  3  4  1  0  0  0  0
  4  5  2  0  0  0  0
  5  6  1  0  0  0  0
  5  9  1  0  0  0  0
  6 10  1  0  0  0  0
  7 11  1  0  0  0  0
  7  6  2  0  0  0  0
  8  4  1  0  0  0  0
 11 15  1  0  0  0  0
 12 11  1  0  0  0  0
 12 13  1  0  0  0  0
 13 14  1  0  0  0  0
 13 19  1  0  0  0  0
 14 20  1  0  0  0  0
 14 21  1  0  0  0  0
 15 22  1  1  0  0  0
 15 14  1  0  0  0  0
 16 12  1  0  0  0  0
 17 12  1  0  0  0  0
 18 13  1  0  0  0  0
 23 25  1  0  0  0  0
 23 15  1  0  0  0  0
 24 23  1  0  0  0  0
 26 23  1  0  0  0  0
 27 32  1  0  0  0  0
 28 27  2  0  0  0  0
 28 29  1  0  0  0  0
 29 35  1  0  0  0  0
 29 30  2  0  0  0  0
 31 30  1  0  0  0  0
 31  3  1  0  0  0  0
 32 31  2  0  0  0  0
 33 27  1  0  0  0  0
 34 28  1  0  0  0  0
 35 41  1  0  0  0  0
 36 37  1  0  0  0  0
 36 35  1  0  0  0  0
 37 38  1  0  0  0  0
 38 39  1  0  0  0  0
 38 40  1  0  0  0  0
 41 40  1  0  0  0  0
M  END
>  <minimizedAffinity>
-6.01335478

$$$$

 OpenBabel03252505263D

 41 44  0  0  1  0  0  0  0  0999 V2000
   38.0680   28.2790   39.6830 F   0  0  0  0  0  0  0  0  0  0  0  0
   37.8540   28.1460   41.0230 C   0  0  0  0  0  0  0  0  0  0  0  0
   37.8900   29.2870   41.8030 C   0  0  0  0  0  0  0  0  0  0  0  0
   37.6750   29.1440   43.1520 C   0  0  0  0  0  0  0  0  0  0  0  0
   37.4340   27.8870   43.6790 C   0  0  0  0  0  0  0  0  0  0  0  0
   37.4000   26.7580   42.9000 C   0  0  0  0  0  0  0  0  0  0  0  0
   37.6200   26.9110   41.5240 C   0  0  0  0  0  0  0  0  0  0  0  0
   37.7070   30.0500   43.7430 H   0  0  0  0  0  0  0  0  0  0  0  0
   37.2670   27.7980   44.7460 H   0  0  0  0  0  0  0  0  0  0  0  0
   37.2070   25.7840   43.3460 H   0  0  0  0  0  0  0  0  0  0  0  0
   37.5740   25.7100   40.7640 N   0  0  0  0  0  0  0  0  0  0  0  0
   38.5240   24.6320   40.6440 C   0  0  0  0  0  0  0  0  0  0  0  0
   37.6390   23.3960   40.8720 C   0  0  0  0  0  0  0  0  0  0  0  0
   36.2560   23.8670   40.4880 C   0  0  0  0  0  0  0  0  0  0  0  0
   36.5380   25.2090   39.8700 C   0  0  2  0  0  0  0  0  0  0  0  0
   39.3000   24.7350   41.4020 H   0  0  0  0  0  0  0  0  0  0  0  0
   38.9790   24.5470   39.6350 H   0  0  0  0  0  0  0  0  0  0  0  0
   37.9940   22.5230   40.3070 H   0  0  0  0  0  0  0  0  0  0  0  0
   37.6460   23.2500   41.9780 H   0  0  0  0  0  0  0  0  0  0  0  0
   35.8750   23.1980   39.6810 H   0  0  0  0  0  0  0  0  0  0  0  0
   35.5560   23.8850   41.3230 H   0  0  0  0  0  0  0  0  0  0  0  0
   35.6090   25.8230   40.0470 H   0  0  0  0  0  0  0  0  0  0  0  0
   36.9550   25.1430   38.4470 C   0  0  0  0  0  0  0  0  0  0  0  0
   37.8800   25.6890   38.2120 H   0  0  0  0  0  0  0  0  0  0  0  0
   36.9900   24.0790   38.1220 H   0  0  0  0  0  0  0  0  0  0  0  0
   36.1510   25.6190   37.8340 H   0  0  0  0  0  0  0  0  0  0  0  0
   37.3750   32.5140   40.1640 C   0  0  0  0  0  0  0  0  0  0  0  0
   38.6660   33.0450   40.0540 C   0  0  0  0  0  0  0  0  0  0  0  0
   39.6820   32.2430   40.5650 C   0  0  0  0  0  0  0  0  0  0  0  0
   39.3790   31.0460   41.1160 N   0  0  0  0  0  0  0  0  0  0  0  0
   38.1470   30.5820   41.1990 C   0  0  0  0  0  0  0  0  0  0  0  0
   37.1380   31.3190   40.7210 N   0  0  0  0  0  0  0  0  0  0  0  0
   36.5680   33.1260   39.7700 H   0  0  0  0  0  0  0  0  0  0  0  0
   38.9270   33.9910   39.6210 H   0  0  0  0  0  0  0  0  0  0  0  0
   41.0600   32.6110   40.5440 N   0  0  0  0  0  0  0  0  0  0  0  0
   42.1670   31.7670   40.9510 C   0  0  0  0  0  2  0  0  0  0  0  0
   42.8850   32.4680   42.0900 C   0  0  0  0  0  2  0  0  0  0  0  0
   43.1360   33.9220   41.8310 C   0  0  0  0  0  3  0  0  0  0  0  0
   44.2070   34.2210   42.0050 H   0  0  0  0  0  0  0  0  0  0  0  0
   42.8200   34.2840   40.3930 C   0  0  0  0  0  2  0  0  0  0  0  0
   41.4020   33.9420   40.0790 C   0  0  0  0  0  2  0  0  0  0  0  0
  1  2  1  0  0  0  0
  2  7  2  0  0  0  0
  2  3  1  0  0  0  0
  3  4  2  0  0  0  0
  4  5  1  0  0  0  0
  4  8  1  0  0  0  0
  5  9  1  0  0  0  0
  6 10  1  0  0  0  0
  6  5  2  0  0  0  0
  7  6  1  0  0  0  0
 11  7  1  0  0  0  0
 12 11  1  0  0  0  0
 12 13  1  0  0  0  0
 12 16  1  0  0  0  0
 13 19  1  0  0  0  0
 14 13  1  0  0  0  0
 14 21  1  0  0  0  0
 15 22  1  1  0  0  0
 15 14  1  0  0  0  0
 15 11  1  0  0  0  0
 17 12  1  0  0  0  0
 18 13  1  0  0  0  0
 20 14  1  0  0  0  0
 23 15  1  0  0  0  0
 24 23  1  0  0  0  0
 25 23  1  0  0  0  0
 26 23  1  0  0  0  0
 27 32  1  0  0  0  0
 28 27  2  0  0  0  0
 28 29  1  0  0  0  0
 29 30  2  0  0  0  0
 30 31  1  0  0  0  0
 31  3  1  0  0  0  0
 32 31  2  0  0  0  0
 33 27  1  0  0  0  0
 34 28  1  0  0  0  0
 35 29  1  0  0  0  0
 35 36  1  0  0  0  0
 36 37  1  0  0  0  0
 38 39  1  0  0  0  0
 38 37  1  0  0  0  0
 40 38  1  0  0  0  0
 41 40  1  0  0  0  0
 41 35  1  0  0  0  0
M  END
>  <minimizedAffinity>
-6.00635529

$$$$

 OpenBabel03252505263D

 41 44  0  0  1  0  0  0  0  0999 V2000
   40.2930   30.5820   41.2180 F   0  0  0  0  0  0  0  0  0  0  0  0
   39.1960   31.2220   40.7210 C   0  0  0  0  0  0  0  0  0  0  0  0
   37.9570   30.6470   40.9330 C   0  0  0  0  0  0  0  0  0  0  0  0
   36.8580   31.2980   40.4290 C   0  0  0  0  0  0  0  0  0  0  0  0
   37.0210   32.4850   39.7370 C   0  0  0  0  0  0  0  0  0  0  0  0
   38.2540   33.0510   39.5290 C   0  0  0  0  0  0  0  0  0  0  0  0
   39.3720   32.3820   40.0460 C   0  0  0  0  0  0  0  0  0  0  0  0
   35.8980   30.8310   40.6070 H   0  0  0  0  0  0  0  0  0  0  0  0
   36.1400   32.9810   39.3480 H   0  0  0  0  0  0  0  0  0  0  0  0
   38.3480   33.9860   38.9800 H   0  0  0  0  0  0  0  0  0  0  0  0
   40.6240   33.0110   39.8030 N   0  0  0  0  0  0  0  0  0  0  0  0
   41.2300   34.1710   40.4070 C   0  0  0  0  0  0  0  0  0  0  0  0
   42.6360   33.6560   40.7550 C   0  0  0  0  0  0  0  0  0  0  0  0
   42.8520   32.5170   39.7870 C   0  0  0  0  0  0  0  0  0  0  0  0
   41.6770   32.6610   38.8590 C   0  0  2  0  0  0  0  0  0  0  0  0
   40.6640   34.4690   41.2880 H   0  0  0  0  0  0  0  0  0  0  0  0
   41.3410   35.0300   39.7110 H   0  0  0  0  0  0  0  0  0  0  0  0
   43.3930   34.4500   40.6970 H   0  0  0  0  0  0  0  0  0  0  0  0
   42.5240   33.2120   41.7720 H   0  0  0  0  0  0  0  0  0  0  0  0
   43.7750   32.7340   39.1990 H   0  0  0  0  0  0  0  0  0  0  0  0
   42.9360   31.5450   40.2720 H   0  0  0  0  0  0  0  0  0  0  0  0
   41.4640   31.6200   38.4800 H   0  0  0  0  0  0  0  0  0  0  0  0
   41.8760   33.6650   37.7850 C   0  0  0  0  0  0  0  0  0  0  0  0
   41.0700   34.4080   37.6920 H   0  0  0  0  0  0  0  0  0  0  0  0
   42.8800   34.1320   37.8980 H   0  0  0  0  0  0  0  0  0  0  0  0
   41.9060   33.1190   36.8090 H   0  0  0  0  0  0  0  0  0  0  0  0
   37.6030   28.2540   43.6750 C   0  0  0  0  0  0  0  0  0  0  0  0
   37.6230   27.0080   43.0380 C   0  0  0  0  0  0  0  0  0  0  0  0
   37.7620   27.0520   41.6530 C   0  0  0  0  0  0  0  0  0  0  0  0
   37.8640   28.2460   41.0280 N   0  0  0  0  0  0  0  0  0  0  0  0
   37.8410   29.3990   41.6670 C   0  0  0  0  0  0  0  0  0  0  0  0
   37.7100   29.4050   42.9980 N   0  0  0  0  0  0  0  0  0  0  0  0
   37.4960   28.2410   44.7570 H   0  0  0  0  0  0  0  0  0  0  0  0
   37.5430   26.0510   43.5160 H   0  0  0  0  0  0  0  0  0  0  0  0
   37.8040   25.8880   40.8300 N   0  0  0  0  0  0  0  0  0  0  0  0
   36.6920   25.3500   40.0700 C   0  0  0  0  0  2  0  0  0  0  0  0
   36.4380   23.9380   40.5660 C   0  0  0  0  0  2  0  0  0  0  0  0
   37.6860   23.1220   40.7070 C   0  0  0  0  0  3  0  0  0  0  0  0
   37.6170   22.1210   40.1960 H   0  0  0  0  0  0  0  0  0  0  0  0
   38.8770   23.8330   40.0930 C   0  0  0  0  0  2  0  0  0  0  0  0
   39.0600   25.1690   40.7320 C   0  0  0  0  0  2  0  0  0  0  0  0
  2  3  1  0  0  0  0
  2  1  1  0  0  0  0
  3 31  1  0  0  0  0
  4  8  1  0  0  0  0
  4  3  2  0  0  0  0
  5  4  1  0  0  0  0
  6  5  2  0  0  0  0
  6  7  1  0  0  0  0
  7  2  2  0  0  0  0
  9  5  1  0  0  0  0
 10  6  1  0  0  0  0
 11  7  1  0  0  0  0
 11 12  1  0  0  0  0
 12 13  1  0  0  0  0
 12 16  1  0  0  0  0
 13 19  1  0  0  0  0
 14 21  1  0  0  0  0
 14 13  1  0  0  0  0
 15 22  1  6  0  0  0
 15 14  1  0  0  0  0
 15 11  1  0  0  0  0
 17 12  1  0  0  0  0
 18 13  1  0  0  0  0
 20 14  1  0  0  0  0
 23 25  1  0  0  0  0
 23 15  1  0  0  0  0
 24 23  1  0  0  0  0
 26 23  1  0  0  0  0
 27 33  1  0  0  0  0
 28 34  1  0  0  0  0
 28 27  1  0  0  0  0
 29 28  2  0  0  0  0
 30 29  1  0  0  0  0
 30 31  2  0  0  0  0
 31 32  1  0  0  0  0
 32 27  2  0  0  0  0
 35 29  1  0  0  0  0
 36 37  1  0  0  0  0
 36 35  1  0  0  0  0
 37 38  1  0  0  0  0
 39 38  1  0  0  0  0
 40 38  1  0  0  0  0
 40 41  1  0  0  0  0
 41 35  1  0  0  0  0
M  END
>  <minimizedAffinity>
-5.92778778

$$$$

 OpenBabel03252505263D

 41 44  0  0  1  0  0  0  0  0999 V2000
   40.1560   30.7260   40.8990 F   0  0  0  0  0  0  0  0  0  0  0  0
   39.6070   31.9410   40.6140 C   0  0  0  0  0  0  0  0  0  0  0  0
   38.2330   32.0200   40.4870 C   0  0  0  0  0  0  0  0  0  0  0  0
   37.6880   33.2470   40.1990 C   0  0  0  0  0  0  0  0  0  0  0  0
   38.5160   34.3460   40.0470 C   0  0  0  0  0  0  0  0  0  0  0  0
   39.8800   34.2620   40.1730 C   0  0  0  0  0  0  0  0  0  0  0  0
   40.4290   33.0060   40.4670 C   0  0  0  0  0  0  0  0  0  0  0  0
   36.6110   33.2860   40.1050 H   0  0  0  0  0  0  0  0  0  0  0  0
   38.0650   35.3040   39.8190 H   0  0  0  0  0  0  0  0  0  0  0  0
   40.5030   35.1450   40.0470 H   0  0  0  0  0  0  0  0  0  0  0  0
   41.8460   32.9750   40.5880 N   0  0  0  0  0  0  0  0  0  0  0  0
   42.8660   32.6280   39.6300 C   0  0  0  0  0  0  0  0  0  0  0  0
   43.8370   33.8140   39.7490 C   0  0  0  0  0  0  0  0  0  0  0  0
   43.5820   34.3490   41.1390 C   0  0  0  0  0  0  0  0  0  0  0  0
   42.6940   33.2890   41.7290 C   0  0  2  0  0  0  0  0  0  0  0  0
   42.4300   32.5450   38.6360 H   0  0  0  0  0  0  0  0  0  0  0  0
   43.4220   31.7020   39.8850 H   0  0  0  0  0  0  0  0  0  0  0  0
   44.8780   33.5170   39.5610 H   0  0  0  0  0  0  0  0  0  0  0  0
   43.4440   34.5670   39.0260 H   0  0  0  0  0  0  0  0  0  0  0  0
   44.5480   34.3300   41.6980 H   0  0  0  0  0  0  0  0  0  0  0  0
   43.1640   35.3550   41.1470 H   0  0  0  0  0  0  0  0  0  0  0  0
   42.0560   33.8220   42.4920 H   0  0  0  0  0  0  0  0  0  0  0  0
   43.4280   32.1180   42.2700 C   0  0  0  0  0  0  0  0  0  0  0  0
   43.0700   31.1420   41.9110 H   0  0  0  0  0  0  0  0  0  0  0  0
   44.5200   32.2610   42.1090 H   0  0  0  0  0  0  0  0  0  0  0  0
   43.2860   32.1090   43.3790 H   0  0  0  0  0  0  0  0  0  0  0  0
   35.4130   29.6990   40.3080 C   0  0  0  0  0  0  0  0  0  0  0  0
   35.8650   28.5670   40.9990 C   0  0  0  0  0  0  0  0  0  0  0  0
   37.1570   28.6610   41.5080 C   0  0  0  0  0  0  0  0  0  0  0  0
   37.8740   29.7910   41.3150 N   0  0  0  0  0  0  0  0  0  0  0  0
   37.4100   30.8350   40.6580 C   0  0  0  0  0  0  0  0  0  0  0  0
   36.1730   30.7910   40.1510 N   0  0  0  0  0  0  0  0  0  0  0  0
   34.4070   29.6450   39.9030 H   0  0  0  0  0  0  0  0  0  0  0  0
   35.3130   27.6630   41.1620 H   0  0  0  0  0  0  0  0  0  0  0  0
   37.7910   27.6130   42.2400 N   0  0  0  0  0  0  0  0  0  0  0  0
   38.3940   27.7450   43.5520 C   0  0  0  0  0  2  0  0  0  0  0  0
   39.8600   27.3720   43.4230 C   0  0  0  0  0  2  0  0  0  0  0  0
   40.0890   26.1170   42.6390 C   0  0  0  0  0  3  0  0  0  0  0  0
   40.7520   25.3800   43.1730 H   0  0  0  0  0  0  0  0  0  0  0  0
   38.7830   25.3960   42.3660 C   0  0  0  0  0  2  0  0  0  0  0  0
   37.8450   26.2960   41.6340 C   0  0  0  0  0  2  0  0  0  0  0  0
  2  1  1  0  0  0  0
  3  2  1  0  0  0  0
  3 31  1  0  0  0  0
  4  3  2  0  0  0  0
  5  6  2  0  0  0  0
  5  4  1  0  0  0  0
  6  7  1  0  0  0  0
  7 11  1  0  0  0  0
  7  2  2  0  0  0  0
  8  4  1  0  0  0  0
  9  5  1  0  0  0  0
 10  6  1  0  0  0  0
 11 15  1  0  0  0  0
 12 13  1  0  0  0  0
 12 17  1  0  0  0  0
 12 11  1  0  0  0  0
 13 14  1  0  0  0  0
 14 21  1  0  0  0  0
 14 20  1  0  0  0  0
 14 15  1  0  0  0  0
 15 23  1  0  0  0  0
 15 22  1  1  0  0  0
 16 12  1  0  0  0  0
 18 13  1  0  0  0  0
 19 13  1  0  0  0  0
 23 26  1  0  0  0  0
 24 23  1  0  0  0  0
 25 23  1  0  0  0  0
 27 28  1  0  0  0  0
 28 34  1  0  0  0  0
 28 29  2  0  0  0  0
 29 35  1  0  0  0  0
 30 29  1  0  0  0  0
 31 30  2  0  0  0  0
 32 27  2  0  0  0  0
 32 31  1  0  0  0  0
 33 27  1  0  0  0  0
 35 36  1  0  0  0  0
 37 36  1  0  0  0  0
 38 39  1  0  0  0  0
 38 37  1  0  0  0  0
 40 38  1  0  0  0  0
 41 35  1  0  0  0  0
 41 40  1  0  0  0  0
M  END
>  <minimizedAffinity>
-5.92754698

$$$$

 OpenBabel03252505263D

 41 44  0  0  1  0  0  0  0  0999 V2000
   35.5870   27.5700   39.7800 F   0  0  0  0  0  0  0  0  0  0  0  0
   36.2970   28.6870   39.4520 C   0  0  0  0  0  0  0  0  0  0  0  0
   35.9830   29.3330   38.2710 C   0  0  0  0  0  0  0  0  0  0  0  0
   36.7030   30.4570   37.9470 C   0  0  0  0  0  0  0  0  0  0  0  0
   37.7020   30.9000   38.7970 C   0  0  0  0  0  0  0  0  0  0  0  0
   38.0100   30.2550   39.9680 C   0  0  0  0  0  0  0  0  0  0  0  0
   37.2710   29.1080   40.2920 C   0  0  0  0  0  0  0  0  0  0  0  0
   36.4400   30.9470   37.0190 H   0  0  0  0  0  0  0  0  0  0  0  0
   38.2570   31.7880   38.5210 H   0  0  0  0  0  0  0  0  0  0  0  0
   38.8020   30.6290   40.6140 H   0  0  0  0  0  0  0  0  0  0  0  0
   37.6310   28.4790   41.5160 N   0  0  0  0  0  0  0  0  0  0  0  0
   37.4540   28.9030   42.8820 C   0  0  0  0  0  0  0  0  0  0  0  0
   36.8300   27.6560   43.5290 C   0  0  0  0  0  0  0  0  0  0  0  0
   37.2860   26.5230   42.6400 C   0  0  0  0  0  0  0  0  0  0  0  0
   38.2910   27.2010   41.7510 C   0  0  2  0  0  0  0  0  0  0  0  0
   36.7940   29.7680   42.9200 H   0  0  0  0  0  0  0  0  0  0  0  0
   38.4070   29.1220   43.4080 H   0  0  0  0  0  0  0  0  0  0  0  0
   37.1180   27.5490   44.5840 H   0  0  0  0  0  0  0  0  0  0  0  0
   35.7330   27.7820   43.3710 H   0  0  0  0  0  0  0  0  0  0  0  0
   37.8380   25.7880   43.2730 H   0  0  0  0  0  0  0  0  0  0  0  0
   36.4700   26.0270   42.1150 H   0  0  0  0  0  0  0  0  0  0  0  0
   38.2730   26.6250   40.7810 H   0  0  0  0  0  0  0  0  0  0  0  0
   39.6420   27.3280   42.3520 C   0  0  0  0  0  0  0  0  0  0  0  0
   40.0670   28.3410   42.3240 H   0  0  0  0  0  0  0  0  0  0  0  0
   39.6310   26.8940   43.3770 H   0  0  0  0  0  0  0  0  0  0  0  0
   40.3400   26.6850   41.7600 H   0  0  0  0  0  0  0  0  0  0  0  0
   34.1790   27.3370   35.7950 C   0  0  0  0  0  0  0  0  0  0  0  0
   32.8900   27.8840   35.7970 C   0  0  0  0  0  0  0  0  0  0  0  0
   32.6980   28.9460   36.6760 C   0  0  0  0  0  0  0  0  0  0  0  0
   33.7240   29.3710   37.4480 N   0  0  0  0  0  0  0  0  0  0  0  0
   34.9240   28.8270   37.4150 C   0  0  0  0  0  0  0  0  0  0  0  0
   35.1550   27.8040   36.5840 N   0  0  0  0  0  0  0  0  0  0  0  0
   34.3490   26.5070   35.1140 H   0  0  0  0  0  0  0  0  0  0  0  0
   32.0650   27.5610   35.1930 H   0  0  0  0  0  0  0  0  0  0  0  0
   31.4560   29.6320   36.8210 N   0  0  0  0  0  0  0  0  0  0  0  0
   30.6270   30.1170   35.7340 C   0  0  0  0  0  2  0  0  0  0  0  0
   30.4910   31.6200   35.8960 C   0  0  0  0  0  2  0  0  0  0  0  0
   30.1740   32.0420   37.2970 C   0  0  0  0  0  3  0  0  0  0  0  0
   29.2920   32.7390   37.3580 H   0  0  0  0  0  0  0  0  0  0  0  0
   29.8330   30.8470   38.1660 C   0  0  0  0  0  2  0  0  0  0  0  0
   30.9650   29.8750   38.1640 C   0  0  0  0  0  2  0  0  0  0  0  0
  2  1  1  0  0  0  0
  2  7  1  0  0  0  0
  3  2  2  0  0  0  0
  4  3  1  0  0  0  0
  4  5  2  0  0  0  0
  5  6  1  0  0  0  0
  6  7  2  0  0  0  0
  6 10  1  0  0  0  0
  7 11  1  0  0  0  0
  8  4  1  0  0  0  0
  9  5  1  0  0  0  0
 11 15  1  0  0  0  0
 11 12  1  0  0  0  0
 12 16  1  0  0  0  0
 12 17  1  0  0  0  0
 12 13  1  0  0  0  0
 13 18  1  0  0  0  0
 14 20  1  0  0  0  0
 14 13  1  0  0  0  0
 15 22  1  6  0  0  0
 15 23  1  0  0  0  0
 15 14  1  0  0  0  0
 19 13  1  0  0  0  0
 21 14  1  0  0  0  0
 23 25  1  0  0  0  0
 24 23  1  0  0  0  0
 26 23  1  0  0  0  0
 27 28  2  0  0  0  0
 27 32  1  0  0  0  0
 28 29  1  0  0  0  0
 29 35  1  0  0  0  0
 29 30  2  0  0  0  0
 31 30  1  0  0  0  0
 31  3  1  0  0  0  0
 32 31  2  0  0  0  0
 33 27  1  0  0  0  0
 34 28  1  0  0  0  0
 35 41  1  0  0  0  0
 36 37  1  0  0  0  0
 36 35  1  0  0  0  0
 37 38  1  0  0  0  0
 38 39  1  0  0  0  0
 38 40  1  0  0  0  0
 41 40  1  0  0  0  0
M  END
>  <minimizedAffinity>
-5.85904074

$$$$

 OpenBabel03252505263D

 41 44  0  0  1  0  0  0  0  0999 V2000
   32.6660   29.3910   39.1460 F   0  0  0  0  0  0  0  0  0  0  0  0
   33.1950   29.2100   37.9030 C   0  0  0  0  0  0  0  0  0  0  0  0
   34.5080   28.7860   37.8120 C   0  0  0  0  0  0  0  0  0  0  0  0
   35.0340   28.6070   36.5560 C   0  0  0  0  0  0  0  0  0  0  0  0
   34.2500   28.8510   35.4420 C   0  0  0  0  0  0  0  0  0  0  0  0
   32.9470   29.2720   35.5390 C   0  0  0  0  0  0  0  0  0  0  0  0
   32.4160   29.4530   36.8230 C   0  0  0  0  0  0  0  0  0  0  0  0
   36.0630   28.2750   36.5080 H   0  0  0  0  0  0  0  0  0  0  0  0
   34.6860   28.7030   34.4610 H   0  0  0  0  0  0  0  0  0  0  0  0
   32.3570   29.4550   34.6430 H   0  0  0  0  0  0  0  0  0  0  0  0
   31.0630   29.8900   36.8670 N   0  0  0  0  0  0  0  0  0  0  0  0
   29.8320   29.1420   36.9270 C   0  0  0  0  0  0  0  0  0  0  0  0
   29.0930   29.8310   38.0850 C   0  0  0  0  0  0  0  0  0  0  0  0
   29.6960   31.2150   38.1240 C   0  0  0  0  0  0  0  0  0  0  0  0
   30.5160   31.2400   36.8640 C   0  0  2  0  0  0  0  0  0  0  0  0
   30.0440   28.0940   37.1330 H   0  0  0  0  0  0  0  0  0  0  0  0
   29.2070   29.2370   36.0150 H   0  0  0  0  0  0  0  0  0  0  0  0
   28.0030   29.8150   37.9470 H   0  0  0  0  0  0  0  0  0  0  0  0
   29.4400   29.2910   38.9970 H   0  0  0  0  0  0  0  0  0  0  0  0
   28.8700   31.9560   38.0030 H   0  0  0  0  0  0  0  0  0  0  0  0
   30.2530   31.4200   39.0380 H   0  0  0  0  0  0  0  0  0  0  0  0
   31.3660   31.9520   37.0730 H   0  0  0  0  0  0  0  0  0  0  0  0
   29.7390   31.5690   35.6430 C   0  0  0  0  0  0  0  0  0  0  0  0
   29.8690   30.8640   34.8090 H   0  0  0  0  0  0  0  0  0  0  0  0
   28.6710   31.7200   35.9160 H   0  0  0  0  0  0  0  0  0  0  0  0
   30.0980   32.5600   35.2680 H   0  0  0  0  0  0  0  0  0  0  0  0
   36.0840   29.2500   41.0780 C   0  0  0  0  0  0  0  0  0  0  0  0
   36.7800   28.0540   41.2880 C   0  0  0  0  0  0  0  0  0  0  0  0
   36.6720   27.1170   40.2650 C   0  0  0  0  0  0  0  0  0  0  0  0
   35.9290   27.4020   39.1710 N   0  0  0  0  0  0  0  0  0  0  0  0
   35.2880   28.5440   39.0130 C   0  0  0  0  0  0  0  0  0  0  0  0
   35.3640   29.4740   39.9710 N   0  0  0  0  0  0  0  0  0  0  0  0
   36.1560   29.9950   41.8670 H   0  0  0  0  0  0  0  0  0  0  0  0
   37.3730   27.8100   42.1470 H   0  0  0  0  0  0  0  0  0  0  0  0
   37.3090   25.8420   40.2950 N   0  0  0  0  0  0  0  0  0  0  0  0
   36.6950   24.6010   40.7250 C   0  0  0  0  0  2  0  0  0  0  0  0
   37.5020   24.0710   41.8980 C   0  0  0  0  0  2  0  0  0  0  0  0
   38.9820   24.1110   41.6690 C   0  0  0  0  0  3  0  0  0  0  0  0
   39.4860   23.1270   41.8830 H   0  0  0  0  0  0  0  0  0  0  0  0
   39.3040   24.4510   40.2270 C   0  0  0  0  0  2  0  0  0  0  0  0
   38.6910   25.7610   39.8610 C   0  0  0  0  0  2  0  0  0  0  0  0
  2  1  1  0  0  0  0
  3  2  1  0  0  0  0
  3 31  1  0  0  0  0
  4  3  2  0  0  0  0
  5  6  2  0  0  0  0
  5  4  1  0  0  0  0
  6  7  1  0  0  0  0
  7 11  1  0  0  0  0
  7  2  2  0  0  0  0
  8  4  1  0  0  0  0
  9  5  1  0  0  0  0
 10  6  1  0  0  0  0
 11 12  1  0  0  0  0
 12 16  1  0  0  0  0
 12 13  1  0  0  0  0
 13 14  1  0  0  0  0
 13 19  1  0  0  0  0
 14 21  1  0  0  0  0
 15 11  1  0  0  0  0
 15 22  1  1  0  0  0
 15 14  1  0  0  0  0
 17 12  1  0  0  0  0
 18 13  1  0  0  0  0
 20 14  1  0  0  0  0
 23 25  1  0  0  0  0
 23 15  1  0  0  0  0
 24 23  1  0  0  0  0
 26 23  1  0  0  0  0
 27 28  1  0  0  0  0
 27 33  1  0  0  0  0
 28 34  1  0  0  0  0
 29 35  1  0  0  0  0
 29 28  2  0  0  0  0
 30 29  1  0  0  0  0
 31 30  2  0  0  0  0
 31 32  1  0  0  0  0
 32 27  2  0  0  0  0
 35 36  1  0  0  0  0
 36 37  1  0  0  0  0
 38 39  1  0  0  0  0
 38 37  1  0  0  0  0
 40 38  1  0  0  0  0
 41 40  1  0  0  0  0
 41 35  1  0  0  0  0
M  END
>  <minimizedAffinity>
-5.84674644

$$$$

 OpenBabel03252505263D

 41 44  0  0  1  0  0  0  0  0999 V2000
   38.2630   27.2900   39.6770 F   0  0  0  0  0  0  0  0  0  0  0  0
   38.0390   27.8710   40.8900 C   0  0  0  0  0  0  0  0  0  0  0  0
   37.8760   29.2430   40.9330 C   0  0  0  0  0  0  0  0  0  0  0  0
   37.6520   29.8200   42.1580 C   0  0  0  0  0  0  0  0  0  0  0  0
   37.5980   29.0260   43.2910 C   0  0  0  0  0  0  0  0  0  0  0  0
   37.7610   27.6650   43.2420 C   0  0  0  0  0  0  0  0  0  0  0  0
   37.9890   27.0820   41.9880 C   0  0  0  0  0  0  0  0  0  0  0  0
   37.5280   30.8950   42.1690 H   0  0  0  0  0  0  0  0  0  0  0  0
   37.4210   29.5030   44.2480 H   0  0  0  0  0  0  0  0  0  0  0  0
   37.7120   27.0690   44.1520 H   0  0  0  0  0  0  0  0  0  0  0  0
   38.1500   25.6690   41.9940 N   0  0  0  0  0  0  0  0  0  0  0  0
   37.1810   24.6090   42.1230 C   0  0  0  0  0  0  0  0  0  0  0  0
   37.5510   23.6890   40.9480 C   0  0  0  0  0  0  0  0  0  0  0  0
   39.0050   24.0040   40.6890 C   0  0  0  0  0  0  0  0  0  0  0  0
   39.3600   24.8650   41.8690 C   0  0  2  0  0  0  0  0  0  0  0  0
   36.1740   25.0140   42.0350 H   0  0  0  0  0  0  0  0  0  0  0  0
   37.2810   24.0250   43.0620 H   0  0  0  0  0  0  0  0  0  0  0  0
   37.3470   22.6330   41.1700 H   0  0  0  0  0  0  0  0  0  0  0  0
   36.9660   24.0910   40.0870 H   0  0  0  0  0  0  0  0  0  0  0  0
   39.5850   23.0540   40.7800 H   0  0  0  0  0  0  0  0  0  0  0  0
   39.1850   24.4610   39.7170 H   0  0  0  0  0  0  0  0  0  0  0  0
   40.1850   25.5450   41.5080 H   0  0  0  0  0  0  0  0  0  0  0  0
   39.7010   24.1010   43.0950 C   0  0  0  0  0  0  0  0  0  0  0  0
   39.1550   24.4110   43.9980 H   0  0  0  0  0  0  0  0  0  0  0  0
   39.6070   23.0120   42.8880 H   0  0  0  0  0  0  0  0  0  0  0  0
   40.7830   24.2750   43.3140 H   0  0  0  0  0  0  0  0  0  0  0  0
   37.0380   30.6600   37.6690 C   0  0  0  0  0  0  0  0  0  0  0  0
   38.0940   31.5390   37.4020 C   0  0  0  0  0  0  0  0  0  0  0  0
   39.0750   31.6030   38.3890 C   0  0  0  0  0  0  0  0  0  0  0  0
   38.9560   30.8460   39.5020 N   0  0  0  0  0  0  0  0  0  0  0  0
   37.9420   30.0300   39.7140 C   0  0  0  0  0  0  0  0  0  0  0  0
   36.9770   29.9350   38.7930 N   0  0  0  0  0  0  0  0  0  0  0  0
   36.2620   30.5960   36.9100 H   0  0  0  0  0  0  0  0  0  0  0  0
   38.2060   32.1480   36.5270 H   0  0  0  0  0  0  0  0  0  0  0  0
   40.2270   32.4390   38.2980 N   0  0  0  0  0  0  0  0  0  0  0  0
   41.2560   32.3530   37.2800 C   0  0  0  0  0  2  0  0  0  0  0  0
   42.5740   32.0760   37.9820 C   0  0  0  0  0  2  0  0  0  0  0  0
   42.8060   32.9470   39.1790 C   0  0  0  0  0  3  0  0  0  0  0  0
   43.8120   33.4520   39.1660 H   0  0  0  0  0  0  0  0  0  0  0  0
   41.7730   34.0540   39.2590 C   0  0  0  0  0  2  0  0  0  0  0  0
   40.4000   33.4710   39.3040 C   0  0  0  0  0  2  0  0  0  0  0  0
  1  2  1  0  0  0  0
  2  3  2  0  0  0  0
  2  7  1  0  0  0  0
  3  4  1  0  0  0  0
  4  8  1  0  0  0  0
  4  5  2  0  0  0  0
  5  9  1  0  0  0  0
  6  5  1  0  0  0  0
  6 10  1  0  0  0  0
  7 11  1  0  0  0  0
  7  6  2  0  0  0  0
 11 12  1  0  0  0  0
 12 17  1  0  0  0  0
 13 18  1  0  0  0  0
 13 12  1  0  0  0  0
 14 20  1  0  0  0  0
 14 13  1  0  0  0  0
 14 15  1  0  0  0  0
 15 22  1  6  0  0  0
 15 11  1  0  0  0  0
 15 23  1  0  0  0  0
 16 12  1  0  0  0  0
 19 13  1  0  0  0  0
 21 14  1  0  0  0  0
 23 26  1  0  0  0  0
 23 24  1  0  0  0  0
 25 23  1  0  0  0  0
 27 32  1  0  0  0  0
 28 27  2  0  0  0  0
 28 29  1  0  0  0  0
 29 30  2  0  0  0  0
 30 31  1  0  0  0  0
 31  3  1  0  0  0  0
 32 31  2  0  0  0  0
 33 27  1  0  0  0  0
 34 28  1  0  0  0  0
 35 29  1  0  0  0  0
 35 41  1  0  0  0  0
 36 37  1  0  0  0  0
 36 35  1  0  0  0  0
 37 38  1  0  0  0  0
 38 40  1  0  0  0  0
 39 38  1  0  0  0  0
 40 41  1  0  0  0  0
M  END
>  <minimizedAffinity>
-5.82510376

$$$$

 OpenBabel03252505263D

 41 44  0  0  1  0  0  0  0  0999 V2000
   40.0130   30.7950   38.7280 F   0  0  0  0  0  0  0  0  0  0  0  0
   39.4720   31.9310   39.2530 C   0  0  0  0  0  0  0  0  0  0  0  0
   38.1290   31.9190   39.5810 C   0  0  0  0  0  0  0  0  0  0  0  0
   37.5920   33.0680   40.1080 C   0  0  0  0  0  0  0  0  0  0  0  0
   38.3950   34.1800   40.2920 C   0  0  0  0  0  0  0  0  0  0  0  0
   39.7270   34.1860   39.9650 C   0  0  0  0  0  0  0  0  0  0  0  0
   40.2700   33.0110   39.4270 C   0  0  0  0  0  0  0  0  0  0  0  0
   36.5390   33.0360   40.3580 H   0  0  0  0  0  0  0  0  0  0  0  0
   37.9500   35.0750   40.7090 H   0  0  0  0  0  0  0  0  0  0  0  0
   40.3320   35.0770   40.1220 H   0  0  0  0  0  0  0  0  0  0  0  0
   41.6540   33.0710   39.1050 N   0  0  0  0  0  0  0  0  0  0  0  0
   42.8170   33.1430   39.9540 C   0  0  0  0  0  0  0  0  0  0  0  0
   43.7080   32.0320   39.3760 C   0  0  0  0  0  0  0  0  0  0  0  0
   43.2310   31.8940   37.9500 C   0  0  0  0  0  0  0  0  0  0  0  0
   42.3130   33.0750   37.8060 C   0  0  2  0  0  0  0  0  0  0  0  0
   42.5340   32.9560   40.9890 H   0  0  0  0  0  0  0  0  0  0  0  0
   43.3690   34.1030   39.8740 H   0  0  0  0  0  0  0  0  0  0  0  0
   44.7770   32.2650   39.4770 H   0  0  0  0  0  0  0  0  0  0  0  0
   43.3930   31.1120   39.9230 H   0  0  0  0  0  0  0  0  0  0  0  0
   44.1040   32.0610   37.2760 H   0  0  0  0  0  0  0  0  0  0  0  0
   42.7730   30.9280   37.7370 H   0  0  0  0  0  0  0  0  0  0  0  0
   41.5470   32.7700   37.0350 H   0  0  0  0  0  0  0  0  0  0  0  0
   43.0100   34.3480   37.4920 C   0  0  0  0  0  0  0  0  0  0  0  0
   42.7500   35.1900   38.1490 H   0  0  0  0  0  0  0  0  0  0  0  0
   44.1060   34.1640   37.4410 H   0  0  0  0  0  0  0  0  0  0  0  0
   42.7070   34.6560   36.4610 H   0  0  0  0  0  0  0  0  0  0  0  0
   35.8190   29.5100   38.0890 C   0  0  0  0  0  0  0  0  0  0  0  0
   35.8210   28.4400   38.9910 C   0  0  0  0  0  0  0  0  0  0  0  0
   36.6420   28.6030   40.1030 C   0  0  0  0  0  0  0  0  0  0  0  0
   37.3620   29.7390   40.2440 N   0  0  0  0  0  0  0  0  0  0  0  0
   37.3310   30.7250   39.3680 C   0  0  0  0  0  0  0  0  0  0  0  0
   36.5560   30.6120   38.2840 N   0  0  0  0  0  0  0  0  0  0  0  0
   35.1840   29.4020   37.2130 H   0  0  0  0  0  0  0  0  0  0  0  0
   35.2580   27.5320   38.8970 H   0  0  0  0  0  0  0  0  0  0  0  0
   36.7760   27.6240   41.1310 N   0  0  0  0  0  0  0  0  0  0  0  0
   36.4830   27.8290   42.5360 C   0  0  0  0  0  2  0  0  0  0  0  0
   37.7610   27.5710   43.3150 C   0  0  0  0  0  2  0  0  0  0  0  0
   38.4730   26.3220   42.8940 C   0  0  0  0  0  3  0  0  0  0  0  0
   38.7320   25.6510   43.7600 H   0  0  0  0  0  0  0  0  0  0  0  0
   37.6180   25.4950   41.9540 C   0  0  0  0  0  2  0  0  0  0  0  0
   37.2460   26.3040   40.7560 C   0  0  0  0  0  2  0  0  0  0  0  0
  1  2  1  0  0  0  0
  2  7  2  0  0  0  0
  2  3  1  0  0  0  0
  3  4  2  0  0  0  0
  4  5  1  0  0  0  0
  4  8  1  0  0  0  0
  5  9  1  0  0  0  0
  6 10  1  0  0  0  0
  6  5  2  0  0  0  0
  7  6  1  0  0  0  0
 11  7  1  0  0  0  0
 11 12  1  0  0  0  0
 12 16  1  0  0  0  0
 13 18  1  0  0  0  0
 13 19  1  0  0  0  0
 13 12  1  0  0  0  0
 14 13  1  0  0  0  0
 15 22  1  6  0  0  0
 15 14  1  0  0  0  0
 15 11  1  0  0  0  0
 17 12  1  0  0  0  0
 20 14  1  0  0  0  0
 21 14  1  0  0  0  0
 23 15  1  0  0  0  0
 23 24  1  0  0  0  0
 25 23  1  0  0  0  0
 26 23  1  0  0  0  0
 27 32  2  0  0  0  0
 27 28  1  0  0  0  0
 28 29  2  0  0  0  0
 29 30  1  0  0  0  0
 29 35  1  0  0  0  0
 31  3  1  0  0  0  0
 31 30  2  0  0  0  0
 32 31  1  0  0  0  0
 33 27  1  0  0  0  0
 34 28  1  0  0  0  0
 35 36  1  0  0  0  0
 36 37  1  0  0  0  0
 38 37  1  0  0  0  0
 38 39  1  0  0  0  0
 40 38  1  0  0  0  0
 41 35  1  0  0  0  0
 41 40  1  0  0  0  0
M  END
>  <minimizedAffinity>
-5.82178974

$$$$

 OpenBabel03252505263D

 41 44  0  0  1  0  0  0  0  0999 V2000
   39.0760   29.5030   41.2520 F   0  0  0  0  0  0  0  0  0  0  0  0
   37.9850   29.3660   40.4470 C   0  0  0  0  0  0  0  0  0  0  0  0
   37.5980   30.4530   39.6860 C   0  0  0  0  0  0  0  0  0  0  0  0
   36.4970   30.3070   38.8790 C   0  0  0  0  0  0  0  0  0  0  0  0
   35.8210   29.0990   38.8520 C   0  0  0  0  0  0  0  0  0  0  0  0
   36.2090   28.0230   39.6090 C   0  0  0  0  0  0  0  0  0  0  0  0
   37.3340   28.1790   40.4310 C   0  0  0  0  0  0  0  0  0  0  0  0
   36.2120   31.1710   38.2920 H   0  0  0  0  0  0  0  0  0  0  0  0
   34.9550   29.0070   38.2080 H   0  0  0  0  0  0  0  0  0  0  0  0
   35.6560   27.0870   39.5650 H   0  0  0  0  0  0  0  0  0  0  0  0
   37.6930   27.0340   41.1950 N   0  0  0  0  0  0  0  0  0  0  0  0
   37.1470   26.5090   42.4210 C   0  0  0  0  0  0  0  0  0  0  0  0
   36.9330   25.0270   42.0710 C   0  0  0  0  0  0  0  0  0  0  0  0
   37.9190   24.7760   40.9540 C   0  0  0  0  0  0  0  0  0  0  0  0
   38.7320   26.0410   40.9570 C   0  0  2  0  0  0  0  0  0  0  0  0
   36.2160   27.0190   42.6620 H   0  0  0  0  0  0  0  0  0  0  0  0
   37.8480   26.5610   43.2810 H   0  0  0  0  0  0  0  0  0  0  0  0
   37.0600   24.3740   42.9450 H   0  0  0  0  0  0  0  0  0  0  0  0
   35.9110   24.9930   41.6260 H   0  0  0  0  0  0  0  0  0  0  0  0
   38.5910   23.9420   41.2680 H   0  0  0  0  0  0  0  0  0  0  0  0
   37.4450   24.5380   40.0020 H   0  0  0  0  0  0  0  0  0  0  0  0
   39.0910   26.1700   39.8960 H   0  0  0  0  0  0  0  0  0  0  0  0
   39.8190   26.0580   41.9680 C   0  0  0  0  0  0  0  0  0  0  0  0
   39.8340   26.9470   42.6140 H   0  0  0  0  0  0  0  0  0  0  0  0
   39.8000   25.1070   42.5460 H   0  0  0  0  0  0  0  0  0  0  0  0
   40.7930   26.0580   41.4190 H   0  0  0  0  0  0  0  0  0  0  0  0
   38.6380   33.8290   40.6300 C   0  0  0  0  0  0  0  0  0  0  0  0
   39.7800   34.0580   39.8530 C   0  0  0  0  0  0  0  0  0  0  0  0
   40.1480   33.0080   39.0160 C   0  0  0  0  0  0  0  0  0  0  0  0
   39.4130   31.8730   39.0020 N   0  0  0  0  0  0  0  0  0  0  0  0
   38.3420   31.6980   39.7510 C   0  0  0  0  0  0  0  0  0  0  0  0
   37.9510   32.6800   40.5710 N   0  0  0  0  0  0  0  0  0  0  0  0
   38.3340   34.6370   41.2910 H   0  0  0  0  0  0  0  0  0  0  0  0
   40.3750   34.9500   39.8510 H   0  0  0  0  0  0  0  0  0  0  0  0
   41.2800   33.0540   38.1500 N   0  0  0  0  0  0  0  0  0  0  0  0
   41.5530   32.1290   37.0670 C   0  0  0  0  0  2  0  0  0  0  0  0
   42.8850   31.4600   37.3590 C   0  0  0  0  0  2  0  0  0  0  0  0
   43.9530   32.4210   37.7830 C   0  0  0  0  0  3  0  0  0  0  0  0
   44.9070   32.3040   37.1960 H   0  0  0  0  0  0  0  0  0  0  0  0
   43.5070   33.8570   37.5890 C   0  0  0  0  0  2  0  0  0  0  0  0
   42.2520   34.1110   38.3560 C   0  0  0  0  0  2  0  0  0  0  0  0
  2  1  1  0  0  0  0
  3 31  1  0  0  0  0
  3  2  2  0  0  0  0
  4  3  1  0  0  0  0
  5  4  2  0  0  0  0
  5  6  1  0  0  0  0
  6  7  2  0  0  0  0
  7  2  1  0  0  0  0
  7 11  1  0  0  0  0
  8  4  1  0  0  0  0
  9  5  1  0  0  0  0
 10  6  1  0  0  0  0
 11 12  1  0  0  0  0
 12 16  1  0  0  0  0
 12 17  1  0  0  0  0
 13 12  1  0  0  0  0
 13 18  1  0  0  0  0
 14 15  1  0  0  0  0
 14 20  1  0  0  0  0
 14 13  1  0  0  0  0
 15 22  1  6  0  0  0
 15 11  1  0  0  0  0
 15 23  1  0  0  0  0
 19 13  1  0  0  0  0
 21 14  1  0  0  0  0
 23 25  1  0  0  0  0
 23 24  1  0  0  0  0
 26 23  1  0  0  0  0
 27 33  1  0  0  0  0
 28 27  2  0  0  0  0
 29 28  1  0  0  0  0
 30 29  2  0  0  0  0
 30 31  1  0  0  0  0
 31 32  2  0  0  0  0
 32 27  1  0  0  0  0
 34 28  1  0  0  0  0
 35 41  1  0  0  0  0
 35 29  1  0  0  0  0
 36 37  1  0  0  0  0
 36 35  1  0  0  0  0
 37 38  1  0  0  0  0
 39 38  1  0  0  0  0
 40 38  1  0  0  0  0
 40 41  1  0  0  0  0
M  END
>  <minimizedAffinity>
-5.71671581

$$$$
