
 OpenBabel03252503583D

 18 19  0  0  0  0  0  0  0  0999 V2000
   38.0850   32.0850   40.0390 C   0  0  0  0  0  0  0  0  0  0  0  0
   37.3110   31.8930   38.8720 C   0  0  0  0  0  0  0  0  0  0  0  0
   36.5400   30.7370   38.8110 C   0  0  0  0  0  0  0  0  0  0  0  0
   36.5840   29.8830   39.8660 N   0  0  0  0  0  0  0  0  0  0  0  0
   37.3410   30.1060   40.9680 C   0  0  0  0  0  0  0  0  0  0  0  0
   38.0810   31.2060   41.0370 N   0  0  0  0  0  0  0  0  0  0  0  0
   37.3100   32.6070   38.0520 H   0  0  0  0  0  0  0  0  0  0  0  0
   35.9180   30.5140   37.9510 H   0  0  0  0  0  0  0  0  0  0  0  0
   37.2950   29.1300   42.0020 N   0  0  0  0  0  0  0  0  0  0  0  0
   38.0590   29.2800   43.2000 C   0  0  0  0  0  2  0  0  0  0  0  0
   39.1260   28.1800   43.1710 C   0  0  0  0  0  2  0  0  0  0  0  0
   38.4880   26.8790   42.7970 C   0  0  0  0  0  3  0  0  0  0  0  0
   38.6940   26.6610   41.7160 H   0  0  0  0  0  0  0  0  0  0  0  0
   36.9670   26.9360   42.9040 C   0  0  0  0  0  2  0  0  0  0  0  0
   36.4710   27.9430   41.8830 C   0  0  0  0  0  2  0  0  0  0  0  0
   38.8620   33.2960   40.0490 C   0  0  0  0  0  0  0  0  0  0  0  0
   38.8820   34.1610   40.9780 O   0  0  0  0  0  0  0  0  0  0  0  0
   39.5480   33.6600   39.2690 H   0  0  0  0  0  0  0  0  0  0  0  0
  1 16  1  0  0  0  0
  1  6  1  0  0  0  0
  2  1  2  0  0  0  0
  3  2  1  0  0  0  0
  3  4  2  0  0  0  0
  4  5  1  0  0  0  0
  5  6  2  0  0  0  0
  5  9  1  0  0  0  0
  7  2  1  0  0  0  0
  8  3  1  0  0  0  0
  9 10  1  0  0  0  0
 11 10  1  0  0  0  0
 12 14  1  0  0  0  0
 12 11  1  0  0  0  0
 13 12  1  0  0  0  0
 15  9  1  0  0  0  0
 15 14  1  0  0  0  0
 16 17  2  0  0  0  0
 18 16  1  0  0  0  0
M  END
>  <minimizedAffinity>
-4.37056398

$$$$

 OpenBabel03252503583D

 18 19  0  0  0  0  0  0  0  0999 V2000
   37.4580   30.6940   38.4110 C   0  0  0  0  0  0  0  0  0  0  0  0
   37.2900   32.0240   38.8560 C   0  0  0  0  0  0  0  0  0  0  0  0
   37.3720   32.2440   40.2270 C   0  0  0  0  0  0  0  0  0  0  0  0
   37.6040   31.1760   41.0330 N   0  0  0  0  0  0  0  0  0  0  0  0
   37.7590   29.9140   40.5630 C   0  0  0  0  0  0  0  0  0  0  0  0
   37.6840   29.6930   39.2560 N   0  0  0  0  0  0  0  0  0  0  0  0
   37.1050   32.8470   38.1710 H   0  0  0  0  0  0  0  0  0  0  0  0
   37.2540   33.2350   40.6520 H   0  0  0  0  0  0  0  0  0  0  0  0
   37.9980   28.8850   41.5160 N   0  0  0  0  0  0  0  0  0  0  0  0
   38.1740   27.5250   41.1140 C   0  0  0  0  0  2  0  0  0  0  0  0
   36.9540   26.7600   41.6370 C   0  0  0  0  0  2  0  0  0  0  0  0
   36.7050   27.1370   43.0640 C   0  0  0  0  0  3  0  0  0  0  0  0
   35.8610   27.8740   43.1120 H   0  0  0  0  0  0  0  0  0  0  0  0
   37.8980   27.8630   43.6790 C   0  0  0  0  0  2  0  0  0  0  0  0
   38.0730   29.1730   42.9350 C   0  0  0  0  0  2  0  0  0  0  0  0
   37.3650   30.5240   36.9840 C   0  0  0  0  0  0  0  0  0  0  0  0
   36.7760   29.5720   36.3840 O   0  0  0  0  0  0  0  0  0  0  0  0
   37.7800   31.1780   36.2020 H   0  0  0  0  0  0  0  0  0  0  0  0
  1  2  2  0  0  0  0
  1  6  1  0  0  0  0
  2  3  1  0  0  0  0
  3  8  1  0  0  0  0
  3  4  2  0  0  0  0
  5  4  1  0  0  0  0
  5  9  1  0  0  0  0
  6  5  2  0  0  0  0
  7  2  1  0  0  0  0
  9 15  1  0  0  0  0
 10  9  1  0  0  0  0
 10 11  1  0  0  0  0
 11 12  1  0  0  0  0
 12 13  1  0  0  0  0
 12 14  1  0  0  0  0
 15 14  1  0  0  0  0
 16  1  1  0  0  0  0
 17 16  2  0  0  0  0
 18 16  1  0  0  0  0
M  END
>  <minimizedAffinity>
-4.26996946

$$$$

 OpenBabel03252503583D

 18 19  0  0  0  0  0  0  0  0999 V2000
   37.4960   26.5040   42.2080 C   0  0  0  0  0  0  0  0  0  0  0  0
   38.6340   26.7080   43.0200 C   0  0  0  0  0  0  0  0  0  0  0  0
   39.1470   28.0000   43.0730 C   0  0  0  0  0  0  0  0  0  0  0  0
   38.5240   28.9650   42.3480 N   0  0  0  0  0  0  0  0  0  0  0  0
   37.4310   28.7250   41.5810 C   0  0  0  0  0  0  0  0  0  0  0  0
   36.9340   27.4950   41.5240 N   0  0  0  0  0  0  0  0  0  0  0  0
   39.0990   25.9020   43.5820 H   0  0  0  0  0  0  0  0  0  0  0  0
   40.0180   28.2410   43.6720 H   0  0  0  0  0  0  0  0  0  0  0  0
   36.8750   29.8270   40.8730 N   0  0  0  0  0  0  0  0  0  0  0  0
   35.7250   29.6700   40.0400 C   0  0  0  0  0  2  0  0  0  0  0  0
   36.2020   29.8880   38.6000 C   0  0  0  0  0  2  0  0  0  0  0  0
   37.0610   31.1120   38.5410 C   0  0  0  0  0  3  0  0  0  0  0  0
   38.1400   30.8080   38.5120 H   0  0  0  0  0  0  0  0  0  0  0  0
   36.9250   31.9660   39.7980 C   0  0  0  0  0  2  0  0  0  0  0  0
   37.4520   31.1530   40.9660 C   0  0  0  0  0  2  0  0  0  0  0  0
   37.0080   25.1490   42.1910 C   0  0  0  0  0  0  0  0  0  0  0  0
   37.7150   24.1020   42.3160 O   0  0  0  0  0  0  0  0  0  0  0  0
   35.9680   24.8120   42.0670 H   0  0  0  0  0  0  0  0  0  0  0  0
  1  2  1  0  0  0  0
  2  3  2  0  0  0  0
  2  7  1  0  0  0  0
  3  8  1  0  0  0  0
  4  3  1  0  0  0  0
  5  4  2  0  0  0  0
  6  5  1  0  0  0  0
  6  1  2  0  0  0  0
  9 15  1  0  0  0  0
  9  5  1  0  0  0  0
 10  9  1  0  0  0  0
 11 10  1  0  0  0  0
 12 11  1  0  0  0  0
 12 14  1  0  0  0  0
 13 12  1  0  0  0  0
 14 15  1  0  0  0  0
 16  1  1  0  0  0  0
 16 17  2  0  0  0  0
 18 16  1  0  0  0  0
M  END
>  <minimizedAffinity>
-4.22313261

$$$$

 OpenBabel03252503583D

 18 19  0  0  0  0  0  0  0  0999 V2000
   37.3330   29.2400   37.7520 C   0  0  0  0  0  0  0  0  0  0  0  0
   36.9850   30.6090   37.7140 C   0  0  0  0  0  0  0  0  0  0  0  0
   36.9390   31.2810   38.9310 C   0  0  0  0  0  0  0  0  0  0  0  0
   37.2290   30.5820   40.0590 N   0  0  0  0  0  0  0  0  0  0  0  0
   37.5590   29.2670   40.0490 C   0  0  0  0  0  0  0  0  0  0  0  0
   37.6060   28.6160   38.8930 N   0  0  0  0  0  0  0  0  0  0  0  0
   36.7600   31.1260   36.7840 H   0  0  0  0  0  0  0  0  0  0  0  0
   36.6800   32.3320   38.9900 H   0  0  0  0  0  0  0  0  0  0  0  0
   37.8410   28.6550   41.3020 N   0  0  0  0  0  0  0  0  0  0  0  0
   38.1970   27.2740   41.3910 C   0  0  0  0  0  2  0  0  0  0  0  0
   37.0360   26.5730   42.1040 C   0  0  0  0  0  2  0  0  0  0  0  0
   36.6400   27.3680   43.3090 C   0  0  0  0  0  3  0  0  0  0  0  0
   35.7180   27.9620   43.0770 H   0  0  0  0  0  0  0  0  0  0  0  0
   37.6950   28.4060   43.6800 C   0  0  0  0  0  2  0  0  0  0  0  0
   37.7770   29.4050   42.5410 C   0  0  0  0  0  2  0  0  0  0  0  0
   37.3660   28.5960   36.4650 C   0  0  0  0  0  0  0  0  0  0  0  0
   38.3750   28.0330   35.9390 O   0  0  0  0  0  0  0  0  0  0  0  0
   36.5390   28.4900   35.7460 H   0  0  0  0  0  0  0  0  0  0  0  0
  1  6  1  0  0  0  0
  2  1  2  0  0  0  0
  2  3  1  0  0  0  0
  3  8  1  0  0  0  0
  3  4  2  0  0  0  0
  5  4  1  0  0  0  0
  5  9  1  0  0  0  0
  6  5  2  0  0  0  0
  7  2  1  0  0  0  0
  9 10  1  0  0  0  0
  9 15  1  0  0  0  0
 10 11  1  0  0  0  0
 11 12  1  0  0  0  0
 12 14  1  0  0  0  0
 13 12  1  0  0  0  0
 15 14  1  0  0  0  0
 16  1  1  0  0  0  0
 17 16  2  0  0  0  0
 18 16  1  0  0  0  0
M  END
>  <minimizedAffinity>
-4.11499405

$$$$

 OpenBabel03252503583D

 18 19  0  0  0  0  0  0  0  0999 V2000
   37.6060   25.4180   41.7660 C   0  0  0  0  0  0  0  0  0  0  0  0
   38.7990   25.5120   42.5180 C   0  0  0  0  0  0  0  0  0  0  0  0
   39.2460   26.7910   42.8320 C   0  0  0  0  0  0  0  0  0  0  0  0
   38.5120   27.8490   42.3990 N   0  0  0  0  0  0  0  0  0  0  0  0
   37.3710   27.7130   41.6800 C   0  0  0  0  0  0  0  0  0  0  0  0
   36.9360   26.4970   41.3740 N   0  0  0  0  0  0  0  0  0  0  0  0
   39.3530   24.6350   42.8410 H   0  0  0  0  0  0  0  0  0  0  0  0
   40.1520   26.9520   43.4050 H   0  0  0  0  0  0  0  0  0  0  0  0
   36.6980   28.9050   41.2900 N   0  0  0  0  0  0  0  0  0  0  0  0
   35.4890   28.8600   40.5300 C   0  0  0  0  0  2  0  0  0  0  0  0
   35.8260   29.4340   39.1490 C   0  0  0  0  0  2  0  0  0  0  0  0
   36.6110   30.6970   39.3140 C   0  0  0  0  0  3  0  0  0  0  0  0
   37.6980   30.4860   39.1370 H   0  0  0  0  0  0  0  0  0  0  0  0
   36.5420   31.2310   40.7410 C   0  0  0  0  0  2  0  0  0  0  0  0
   37.2110   30.2130   41.6460 C   0  0  0  0  0  2  0  0  0  0  0  0
   37.1910   24.0720   41.4700 C   0  0  0  0  0  0  0  0  0  0  0  0
   36.2590   23.7380   40.6740 O   0  0  0  0  0  0  0  0  0  0  0  0
   37.6040   23.1370   41.8770 H   0  0  0  0  0  0  0  0  0  0  0  0
  1  2  1  0  0  0  0
  2  3  2  0  0  0  0
  2  7  1  0  0  0  0
  3  8  1  0  0  0  0
  4  3  1  0  0  0  0
  5  4  2  0  0  0  0
  6  5  1  0  0  0  0
  6  1  2  0  0  0  0
  9 15  1  0  0  0  0
  9  5  1  0  0  0  0
 10  9  1  0  0  0  0
 11 12  1  0  0  0  0
 11 10  1  0  0  0  0
 12 14  1  0  0  0  0
 13 12  1  0  0  0  0
 14 15  1  0  0  0  0
 16  1  1  0  0  0  0
 16 18  1  0  0  0  0
 17 16  2  0  0  0  0
M  END
>  <minimizedAffinity>
-4.09943295

$$$$

 OpenBabel03252503583D

 18 19  0  0  0  0  0  0  0  0999 V2000
   39.4810   27.9180   42.9720 C   0  0  0  0  0  0  0  0  0  0  0  0
   38.2990   27.5670   43.6640 C   0  0  0  0  0  0  0  0  0  0  0  0
   37.1590   28.3100   43.3800 C   0  0  0  0  0  0  0  0  0  0  0  0
   37.2590   29.3110   42.4670 N   0  0  0  0  0  0  0  0  0  0  0  0
   38.4140   29.6140   41.8260 C   0  0  0  0  0  0  0  0  0  0  0  0
   39.5090   28.9110   42.0890 N   0  0  0  0  0  0  0  0  0  0  0  0
   38.2690   26.7560   44.3870 H   0  0  0  0  0  0  0  0  0  0  0  0
   36.2120   28.1050   43.8660 H   0  0  0  0  0  0  0  0  0  0  0  0
   38.3810   30.6880   40.8920 N   0  0  0  0  0  0  0  0  0  0  0  0
   39.5490   31.0800   40.1690 C   0  0  0  0  0  2  0  0  0  0  0  0
   39.9310   32.4700   40.6880 C   0  0  0  0  0  2  0  0  0  0  0  0
   38.7090   33.3320   40.7450 C   0  0  0  0  0  3  0  0  0  0  0  0
   38.3440   33.3900   41.8040 H   0  0  0  0  0  0  0  0  0  0  0  0
   37.5480   32.7310   39.9600 C   0  0  0  0  0  2  0  0  0  0  0  0
   37.1610   31.4290   40.6360 C   0  0  0  0  0  2  0  0  0  0  0  0
   40.6290   27.1160   43.3040 C   0  0  0  0  0  0  0  0  0  0  0  0
   40.8500   25.9310   42.9070 O   0  0  0  0  0  0  0  0  0  0  0  0
   41.4810   27.3960   43.9430 H   0  0  0  0  0  0  0  0  0  0  0  0
  1 16  1  0  0  0  0
  1  2  1  0  0  0  0
  2  7  1  0  0  0  0
  3  2  2  0  0  0  0
  3  8  1  0  0  0  0
  4  3  1  0  0  0  0
  5  6  1  0  0  0  0
  5  4  2  0  0  0  0
  6  1  2  0  0  0  0
  9  5  1  0  0  0  0
 10 11  1  0  0  0  0
 10  9  1  0  0  0  0
 11 12  1  0  0  0  0
 12 13  1  0  0  0  0
 14 15  1  0  0  0  0
 14 12  1  0  0  0  0
 15  9  1  0  0  0  0
 16 18  1  0  0  0  0
 17 16  2  0  0  0  0
M  END
>  <minimizedAffinity>
-4.07130289

$$$$

 OpenBabel03252503583D

 18 19  0  0  0  0  0  0  0  0999 V2000
   37.4660   29.0530   41.6520 C   0  0  0  0  0  0  0  0  0  0  0  0
   37.6570   29.0790   43.0520 C   0  0  0  0  0  0  0  0  0  0  0  0
   37.8790   27.8580   43.6800 C   0  0  0  0  0  0  0  0  0  0  0  0
   37.8970   26.7380   42.9120 N   0  0  0  0  0  0  0  0  0  0  0  0
   37.7090   26.7580   41.5690 C   0  0  0  0  0  0  0  0  0  0  0  0
   37.4960   27.9180   40.9590 N   0  0  0  0  0  0  0  0  0  0  0  0
   37.6330   30.0030   43.6240 H   0  0  0  0  0  0  0  0  0  0  0  0
   38.0340   27.7900   44.7510 H   0  0  0  0  0  0  0  0  0  0  0  0
   37.7520   25.5120   40.8840 N   0  0  0  0  0  0  0  0  0  0  0  0
   37.5660   25.4350   39.4690 C   0  0  0  0  0  2  0  0  0  0  0  0
   36.2330   24.7110   39.2490 C   0  0  0  0  0  2  0  0  0  0  0  0
   36.1770   23.4970   40.1220 C   0  0  0  0  0  3  0  0  0  0  0  0
   35.5430   23.7140   41.0210 H   0  0  0  0  0  0  0  0  0  0  0  0
   37.5480   23.1340   40.6850 C   0  0  0  0  0  2  0  0  0  0  0  0
   37.9880   24.2690   41.5910 C   0  0  0  0  0  2  0  0  0  0  0  0
   37.2410   30.3430   41.0540 C   0  0  0  0  0  0  0  0  0  0  0  0
   36.1950   31.0510   41.1820 O   0  0  0  0  0  0  0  0  0  0  0  0
   37.9250   30.9110   40.4050 H   0  0  0  0  0  0  0  0  0  0  0  0
  1  2  1  0  0  0  0
  2  7  1  0  0  0  0
  2  3  2  0  0  0  0
  3  8  1  0  0  0  0
  4  3  1  0  0  0  0
  5  4  2  0  0  0  0
  6  5  1  0  0  0  0
  6  1  2  0  0  0  0
  9  5  1  0  0  0  0
  9 15  1  0  0  0  0
 10  9  1  0  0  0  0
 11 10  1  0  0  0  0
 11 12  1  0  0  0  0
 12 14  1  0  0  0  0
 12 13  1  0  0  0  0
 14 15  1  0  0  0  0
 16 17  2  0  0  0  0
 16  1  1  0  0  0  0
 18 16  1  0  0  0  0
M  END
>  <minimizedAffinity>
-4.01215506

$$$$

 OpenBabel03252503583D

 18 19  0  0  0  0  0  0  0  0999 V2000
   38.8910   26.6660   42.5470 C   0  0  0  0  0  0  0  0  0  0  0  0
   38.7710   27.5040   43.6790 C   0  0  0  0  0  0  0  0  0  0  0  0
   37.7650   28.4630   43.6480 C   0  0  0  0  0  0  0  0  0  0  0  0
   36.9760   28.5270   42.5440 N   0  0  0  0  0  0  0  0  0  0  0  0
   37.1260   27.7020   41.4790 C   0  0  0  0  0  0  0  0  0  0  0  0
   38.0830   26.7820   41.4980 N   0  0  0  0  0  0  0  0  0  0  0  0
   39.4290   27.4150   44.5400 H   0  0  0  0  0  0  0  0  0  0  0  0
   37.6050   29.1460   44.4750 H   0  0  0  0  0  0  0  0  0  0  0  0
   36.2300   27.8750   40.3870 N   0  0  0  0  0  0  0  0  0  0  0  0
   36.3120   27.0520   39.2210 C   0  0  0  0  0  2  0  0  0  0  0  0
   36.7710   27.9660   38.0800 C   0  0  0  0  0  2  0  0  0  0  0  0
   35.9690   29.2290   38.1020 C   0  0  0  0  0  3  0  0  0  0  0  0
   36.5760   30.0470   38.5710 H   0  0  0  0  0  0  0  0  0  0  0  0
   34.7300   29.1040   38.9820 C   0  0  0  0  0  2  0  0  0  0  0  0
   35.1990   28.8930   40.4100 C   0  0  0  0  0  2  0  0  0  0  0  0
   39.9480   25.6920   42.6330 C   0  0  0  0  0  0  0  0  0  0  0  0
   39.8670   24.5520   43.1870 O   0  0  0  0  0  0  0  0  0  0  0  0
   40.9730   25.7780   42.2420 H   0  0  0  0  0  0  0  0  0  0  0  0
  1 16  1  0  0  0  0
  1  2  1  0  0  0  0
  2  7  1  0  0  0  0
  3  2  2  0  0  0  0
  3  8  1  0  0  0  0
  4  3  1  0  0  0  0
  5  6  1  0  0  0  0
  5  4  2  0  0  0  0
  6  1  2  0  0  0  0
  9 15  1  0  0  0  0
  9  5  1  0  0  0  0
 10  9  1  0  0  0  0
 11 12  1  0  0  0  0
 11 10  1  0  0  0  0
 12 13  1  0  0  0  0
 12 14  1  0  0  0  0
 14 15  1  0  0  0  0
 16 17  2  0  0  0  0
 18 16  1  0  0  0  0
M  END
>  <minimizedAffinity>
-3.93337941

$$$$

 OpenBabel03252503583D

 18 19  0  0  0  0  0  0  0  0999 V2000
   37.0700   30.7640   40.5670 C   0  0  0  0  0  0  0  0  0  0  0  0
   35.8160   30.1560   40.3330 C   0  0  0  0  0  0  0  0  0  0  0  0
   35.5980   28.9150   40.9220 C   0  0  0  0  0  0  0  0  0  0  0  0
   36.5960   28.3800   41.6730 N   0  0  0  0  0  0  0  0  0  0  0  0
   37.7860   28.9990   41.8710 C   0  0  0  0  0  0  0  0  0  0  0  0
   38.0040   30.1840   41.3130 N   0  0  0  0  0  0  0  0  0  0  0  0
   35.0480   30.6240   39.7230 H   0  0  0  0  0  0  0  0  0  0  0  0
   34.6640   28.3810   40.7930 H   0  0  0  0  0  0  0  0  0  0  0  0
   38.7450   28.3280   42.6800 N   0  0  0  0  0  0  0  0  0  0  0  0
   40.0270   28.9020   42.9440 C   0  0  0  0  0  2  0  0  0  0  0  0
   41.0520   28.0190   42.2250 C   0  0  0  0  0  2  0  0  0  0  0  0
   40.7550   26.5800   42.5120 C   0  0  0  0  0  3  0  0  0  0  0  0
   40.2270   26.1270   41.6320 H   0  0  0  0  0  0  0  0  0  0  0  0
   39.7880   26.4180   43.6800 C   0  0  0  0  0  2  0  0  0  0  0  0
   38.4630   27.0340   43.2690 C   0  0  0  0  0  2  0  0  0  0  0  0
   37.2400   32.0460   39.9340 C   0  0  0  0  0  0  0  0  0  0  0  0
   37.9020   32.2710   38.8730 O   0  0  0  0  0  0  0  0  0  0  0  0
   36.8340   33.0150   40.2600 H   0  0  0  0  0  0  0  0  0  0  0  0
  1  6  1  0  0  0  0
  2  1  2  0  0  0  0
  2  3  1  0  0  0  0
  3  4  2  0  0  0  0
  4  5  1  0  0  0  0
  5  9  1  0  0  0  0
  6  5  2  0  0  0  0
  7  2  1  0  0  0  0
  8  3  1  0  0  0  0
  9 10  1  0  0  0  0
  9 15  1  0  0  0  0
 11 12  1  0  0  0  0
 11 10  1  0  0  0  0
 12 14  1  0  0  0  0
 13 12  1  0  0  0  0
 15 14  1  0  0  0  0
 16 18  1  0  0  0  0
 16  1  1  0  0  0  0
 17 16  2  0  0  0  0
M  END
>  <minimizedAffinity>
-3.87292099

$$$$
