
 OpenBabel03252509283D

 19 20  0  0  0  0  0  0  0  0999 V2000
   46.6270   35.0180   41.9540 C   0  0  0  0  0  0  0  0  0  0  0  0
   47.6870   34.6370   42.0200 H   0  0  0  0  0  0  0  0  0  0  0  0
   46.7100   36.0470   41.5820 H   0  0  0  0  0  0  0  0  0  0  0  0
   44.4940   35.9850   44.8400 C   0  0  0  0  0  0  0  0  0  0  0  0
   45.1220   36.0250   43.5750 C   0  0  0  0  0  0  0  0  0  0  0  0
   45.9810   34.9710   43.2640 C   0  0  0  0  0  0  0  0  0  0  0  0
   46.1690   33.9820   44.1740 N   0  0  0  0  0  0  0  0  0  0  0  0
   45.5440   33.9870   45.3750 C   0  0  0  0  0  0  0  0  0  0  0  0
   44.7160   34.9870   45.6930 N   0  0  0  0  0  0  0  0  0  0  0  0
   43.8210   36.8110   45.0830 H   0  0  0  0  0  0  0  0  0  0  0  0
   44.9540   36.8200   42.8760 H   0  0  0  0  0  0  0  0  0  0  0  0
   45.6620   33.2310   46.1210 H   0  0  0  0  0  0  0  0  0  0  0  0
   45.8870   34.2640   40.9750 N   0  0  0  0  0  0  0  0  0  0  0  0
   44.4960   34.1120   41.2380 C   0  0  0  0  0  2  0  0  0  0  0  0
   43.8170   33.9710   39.8780 C   0  0  0  0  0  2  0  0  0  0  0  0
   44.4310   32.7810   39.2080 C   0  0  0  0  0  3  0  0  0  0  0  0
   44.9180   33.0290   38.2210 H   0  0  0  0  0  0  0  0  0  0  0  0
   45.4660   32.0680   40.0400 C   0  0  0  0  0  2  0  0  0  0  0  0
   46.4650   32.9880   40.6800 C   0  0  0  0  0  2  0  0  0  0  0  0
  1  2  1  0  0  0  0
  1  6  1  0  0  0  0
  3  1  1  0  0  0  0
  4 10  1  0  0  0  0
  4  9  1  0  0  0  0
  5  4  2  0  0  0  0
  6  5  1  0  0  0  0
  6  7  2  0  0  0  0
  7  8  1  0  0  0  0
  8  9  2  0  0  0  0
  8 12  1  0  0  0  0
 11  5  1  0  0  0  0
 13 14  1  0  0  0  0
 13  1  1  0  0  0  0
 15 14  1  0  0  0  0
 16 15  1  0  0  0  0
 16 18  1  0  0  0  0
 17 16  1  0  0  0  0
 18 19  1  0  0  0  0
 19 13  1  0  0  0  0
M  END
>  <minimizedAffinity>
-3.6309824

>  <minimizedRMSD>
0.864504576

$$$$
