
 OpenBabel03252506583D

 36 40  0  0  0  0  0  0  0  0999 V2000
   41.1890   31.7570   41.4640 C   0  0  0  0  0  0  0  0  0  0  0  0
   41.6130   32.9920   40.9840 C   0  0  0  0  0  0  0  0  0  0  0  0
   40.7870   33.8770   40.3300 C   0  0  0  0  0  0  0  0  0  0  0  0
   39.4480   33.5460   40.1230 C   0  0  0  0  0  0  0  0  0  0  0  0
   38.3690   34.1440   39.5380 N   0  0  0  0  0  0  0  0  0  0  0  0
   37.3030   33.3080   39.6500 C   0  0  0  0  0  0  0  0  0  0  0  0
   37.7410   32.2080   40.3000 N   0  0  0  0  0  0  0  0  0  0  0  0
   39.0400   32.3330   40.5960 C   0  0  0  0  0  0  0  0  0  0  0  0
   39.8350   31.4290   41.2510 C   0  0  0  0  0  0  0  0  0  0  0  0
   41.8560   31.0760   41.9760 H   0  0  0  0  0  0  0  0  0  0  0  0
   41.1320   34.8360   39.9620 H   0  0  0  0  0  0  0  0  0  0  0  0
   38.4410   35.0930   39.0990 H   0  0  0  0  0  0  0  0  0  0  0  0
   36.3540   33.5920   39.2520 H   0  0  0  0  0  0  0  0  0  0  0  0
   45.0510   34.1040   40.3180 C   0  0  0  0  0  0  0  0  0  0  0  0
   45.6370   34.0660   41.5760 C   0  0  0  0  0  0  0  0  0  0  0  0
   44.8540   33.6600   42.6510 C   0  0  0  0  0  0  0  0  0  0  0  0
   43.5520   33.3170   42.4320 N   0  0  0  0  0  0  0  0  0  0  0  0
   43.0150   33.3670   41.1880 C   0  0  0  0  0  0  0  0  0  0  0  0
   43.7530   33.7570   40.1290 N   0  0  0  0  0  0  0  0  0  0  0  0
   45.6360   34.4130   39.4810 H   0  0  0  0  0  0  0  0  0  0  0  0
   46.6770   34.3420   41.7410 H   0  0  0  0  0  0  0  0  0  0  0  0
   45.2520   33.6080   43.6670 H   0  0  0  0  0  0  0  0  0  0  0  0
   39.3080   30.1510   41.7240 C   0  0  0  0  0  0  0  0  0  0  0  0
   38.8390   29.9080   42.9980 C   0  0  0  0  0  0  0  0  0  0  0  0
   38.4470   28.5730   42.9880 C   0  0  0  0  0  0  0  0  0  0  0  0
   38.6960   28.0810   41.7250 C   0  0  0  0  0  0  0  0  0  0  0  0
   39.2110   29.0660   41.0120 O   0  0  0  0  0  0  0  0  0  0  0  0
   38.7720   30.5770   43.8490 H   0  0  0  0  0  0  0  0  0  0  0  0
   38.0310   28.0660   43.8420 H   0  0  0  0  0  0  0  0  0  0  0  0
   38.4500   26.7580   41.2610 N   0  0  0  0  0  0  0  0  0  0  0  0
   39.2670   25.5930   41.5260 C   0  0  0  0  0  2  0  0  0  0  0  0
   38.4920   24.5120   42.2440 C   0  0  0  0  0  2  0  0  0  0  0  0
   37.0070   24.6070   41.9550 C   0  0  0  0  0  3  0  0  0  0  0  0
   36.5920   25.3620   42.6480 H   0  0  0  0  0  0  0  0  0  0  0  0
   36.7760   25.1010   40.5440 C   0  0  0  0  0  2  0  0  0  0  0  0
   37.2830   26.5010   40.4410 C   0  0  0  0  0  2  0  0  0  0  0  0
  1 10  1  0  0  0  0
  2 18  1  0  0  0  0
  2  1  2  0  0  0  0
  3  2  1  0  0  0  0
  4  3  2  0  0  0  0
  4  8  1  0  0  0  0
  5  6  1  0  0  0  0
  5  4  1  0  0  0  0
  6  7  2  0  0  0  0
  7  8  1  0  0  0  0
  8  9  2  0  0  0  0
  9  1  1  0  0  0  0
  9 23  1  0  0  0  0
 11  3  1  0  0  0  0
 12  5  1  0  0  0  0
 13  6  1  0  0  0  0
 14 15  1  0  0  0  0
 15 21  1  0  0  0  0
 15 16  2  0  0  0  0
 16 22  1  0  0  0  0
 17 16  1  0  0  0  0
 18 17  2  0  0  0  0
 19 14  2  0  0  0  0
 19 18  1  0  0  0  0
 20 14  1  0  0  0  0
 23 24  2  0  0  0  0
 24 28  1  0  0  0  0
 25 24  1  0  0  0  0
 25 29  1  0  0  0  0
 26 25  2  0  0  0  0
 27 23  1  0  0  0  0
 27 26  1  0  0  0  0
 30 31  1  0  0  0  0
 30 26  1  0  0  0  0
 31 32  1  0  0  0  0
 33 32  1  0  0  0  0
 33 34  1  0  0  0  0
 35 33  1  0  0  0  0
 36 35  1  0  0  0  0
 36 30  1  0  0  0  0
M  END
>  <minimizedAffinity>
-6.1925106

$$$$

 OpenBabel03252506583D

 36 40  0  0  0  0  0  0  0  0999 V2000
   37.1620   29.4930   39.2270 C   0  0  0  0  0  0  0  0  0  0  0  0
   36.9310   30.3120   38.1250 C   0  0  0  0  0  0  0  0  0  0  0  0
   37.3310   31.6260   38.0590 C   0  0  0  0  0  0  0  0  0  0  0  0
   38.0070   32.1970   39.1380 C   0  0  0  0  0  0  0  0  0  0  0  0
   38.5380   33.4210   39.4260 N   0  0  0  0  0  0  0  0  0  0  0  0
   39.0850   33.3690   40.6700 C   0  0  0  0  0  0  0  0  0  0  0  0
   38.8810   32.1150   41.1290 N   0  0  0  0  0  0  0  0  0  0  0  0
   38.2290   31.3880   40.2140 C   0  0  0  0  0  0  0  0  0  0  0  0
   37.8450   30.0770   40.3130 C   0  0  0  0  0  0  0  0  0  0  0  0
   36.8380   28.4620   39.2580 H   0  0  0  0  0  0  0  0  0  0  0  0
   37.1440   32.2510   37.1940 H   0  0  0  0  0  0  0  0  0  0  0  0
   38.4880   34.2130   38.7420 H   0  0  0  0  0  0  0  0  0  0  0  0
   39.5560   34.2320   41.0860 H   0  0  0  0  0  0  0  0  0  0  0  0
   34.3510   28.6580   36.0980 C   0  0  0  0  0  0  0  0  0  0  0  0
   34.9050   28.6690   34.8250 C   0  0  0  0  0  0  0  0  0  0  0  0
   36.1620   29.2420   34.6630 C   0  0  0  0  0  0  0  0  0  0  0  0
   36.7970   29.7680   35.7490 N   0  0  0  0  0  0  0  0  0  0  0  0
   36.2230   29.7390   36.9770 C   0  0  0  0  0  0  0  0  0  0  0  0
   35.0060   29.1890   37.1620 N   0  0  0  0  0  0  0  0  0  0  0  0
   33.3870   28.2240   36.2420 H   0  0  0  0  0  0  0  0  0  0  0  0
   34.3900   28.2470   33.9650 H   0  0  0  0  0  0  0  0  0  0  0  0
   36.6550   29.2830   33.6890 H   0  0  0  0  0  0  0  0  0  0  0  0
   38.1270   29.2860   41.5090 C   0  0  0  0  0  0  0  0  0  0  0  0
   37.3200   29.2190   42.6260 C   0  0  0  0  0  0  0  0  0  0  0  0
   37.9820   28.3580   43.4950 C   0  0  0  0  0  0  0  0  0  0  0  0
   39.1410   27.9530   42.8710 C   0  0  0  0  0  0  0  0  0  0  0  0
   39.1770   28.5380   41.6880 O   0  0  0  0  0  0  0  0  0  0  0  0
   36.3740   29.7100   42.8250 H   0  0  0  0  0  0  0  0  0  0  0  0
   37.6090   28.0910   44.4700 H   0  0  0  0  0  0  0  0  0  0  0  0
   40.1270   27.0680   43.3920 N   0  0  0  0  0  0  0  0  0  0  0  0
   39.9470   25.6610   43.6790 C   0  0  0  0  0  2  0  0  0  0  0  0
   40.8980   24.7960   42.8830 C   0  0  0  0  0  2  0  0  0  0  0  0
   42.1560   25.5540   42.5080 C   0  0  0  0  0  3  0  0  0  0  0  0
   41.9230   26.1340   41.5950 H   0  0  0  0  0  0  0  0  0  0  0  0
   42.5230   26.5390   43.5960 C   0  0  0  0  0  2  0  0  0  0  0  0
   41.4530   27.5760   43.6800 C   0  0  0  0  0  2  0  0  0  0  0  0
  1 10  1  0  0  0  0
  1  9  1  0  0  0  0
  2  1  2  0  0  0  0
  3  2  1  0  0  0  0
  3  4  2  0  0  0  0
  4  5  1  0  0  0  0
  4  8  1  0  0  0  0
  5  6  1  0  0  0  0
  6 13  1  0  0  0  0
  6  7  2  0  0  0  0
  8  9  2  0  0  0  0
  8  7  1  0  0  0  0
  9 23  1  0  0  0  0
 11  3  1  0  0  0  0
 12  5  1  0  0  0  0
 14 20  1  0  0  0  0
 14 19  1  0  0  0  0
 15 14  2  0  0  0  0
 16 15  1  0  0  0  0
 16 17  2  0  0  0  0
 17 18  1  0  0  0  0
 18 19  2  0  0  0  0
 18  2  1  0  0  0  0
 21 15  1  0  0  0  0
 22 16  1  0  0  0  0
 23 27  1  0  0  0  0
 23 24  2  0  0  0  0
 24 28  1  0  0  0  0
 24 25  1  0  0  0  0
 25 29  1  0  0  0  0
 26 30  1  0  0  0  0
 26 25  2  0  0  0  0
 27 26  1  0  0  0  0
 30 31  1  0  0  0  0
 30 36  1  0  0  0  0
 32 31  1  0  0  0  0
 33 32  1  0  0  0  0
 33 35  1  0  0  0  0
 34 33  1  0  0  0  0
 35 36  1  0  0  0  0
M  END
>  <minimizedAffinity>
-6.10841846

$$$$

 OpenBabel03252506583D

 36 40  0  0  0  0  0  0  0  0999 V2000
   36.6100   25.4220   40.2730 C   0  0  0  0  0  0  0  0  0  0  0  0
   36.7660   24.0380   40.2660 C   0  0  0  0  0  0  0  0  0  0  0  0
   37.6650   23.3720   41.0660 C   0  0  0  0  0  0  0  0  0  0  0  0
   38.4770   24.0940   41.9420 C   0  0  0  0  0  0  0  0  0  0  0  0
   39.4470   23.7930   42.8540 N   0  0  0  0  0  0  0  0  0  0  0  0
   39.8830   24.9520   43.4140 C   0  0  0  0  0  0  0  0  0  0  0  0
   39.1770   25.9490   42.8380 N   0  0  0  0  0  0  0  0  0  0  0  0
   38.3180   25.4490   41.9420 C   0  0  0  0  0  0  0  0  0  0  0  0
   37.4330   26.1440   41.1600 C   0  0  0  0  0  0  0  0  0  0  0  0
   35.8970   25.9250   39.6350 H   0  0  0  0  0  0  0  0  0  0  0  0
   37.7750   22.2940   41.0500 H   0  0  0  0  0  0  0  0  0  0  0  0
   39.7440   22.8030   43.0290 H   0  0  0  0  0  0  0  0  0  0  0  0
   40.6480   24.9340   44.1580 H   0  0  0  0  0  0  0  0  0  0  0  0
   35.6680   22.0990   37.3460 C   0  0  0  0  0  0  0  0  0  0  0  0
   34.3510   21.7880   37.6590 C   0  0  0  0  0  0  0  0  0  0  0  0
   33.8410   22.2440   38.8700 C   0  0  0  0  0  0  0  0  0  0  0  0
   34.6450   22.9710   39.6970 N   0  0  0  0  0  0  0  0  0  0  0  0
   35.9260   23.2540   39.3560 C   0  0  0  0  0  0  0  0  0  0  0  0
   36.4450   22.8250   38.1880 N   0  0  0  0  0  0  0  0  0  0  0  0
   36.0760   21.7570   36.4210 H   0  0  0  0  0  0  0  0  0  0  0  0
   33.7170   21.2070   36.9930 H   0  0  0  0  0  0  0  0  0  0  0  0
   32.8140   22.0350   39.1780 H   0  0  0  0  0  0  0  0  0  0  0  0
   37.3320   27.6000   41.2290 C   0  0  0  0  0  0  0  0  0  0  0  0
   36.5530   28.3000   42.1270 C   0  0  0  0  0  0  0  0  0  0  0  0
   36.7710   29.6400   41.8220 C   0  0  0  0  0  0  0  0  0  0  0  0
   37.6590   29.6840   40.7690 C   0  0  0  0  0  0  0  0  0  0  0  0
   37.9600   28.4370   40.4550 O   0  0  0  0  0  0  0  0  0  0  0  0
   35.9020   27.9310   42.9110 H   0  0  0  0  0  0  0  0  0  0  0  0
   36.3030   30.4560   42.3480 H   0  0  0  0  0  0  0  0  0  0  0  0
   38.1660   30.8490   40.1280 N   0  0  0  0  0  0  0  0  0  0  0  0
   38.1960   31.0960   38.7020 C   0  0  0  0  0  2  0  0  0  0  0  0
   37.4140   32.3350   38.3270 C   0  0  0  0  0  2  0  0  0  0  0  0
   37.3460   33.3180   39.4790 C   0  0  0  0  0  3  0  0  0  0  0  0
   36.5150   32.9940   40.1320 H   0  0  0  0  0  0  0  0  0  0  0  0
   38.6190   33.2630   40.2950 C   0  0  0  0  0  2  0  0  0  0  0  0
   38.7150   31.9190   40.9360 C   0  0  0  0  0  2  0  0  0  0  0  0
  1  9  1  0  0  0  0
  2  1  2  0  0  0  0
  2  3  1  0  0  0  0
  3  4  2  0  0  0  0
  4  5  1  0  0  0  0
  5 12  1  0  0  0  0
  5  6  1  0  0  0  0
  6 13  1  0  0  0  0
  7  6  2  0  0  0  0
  8  4  1  0  0  0  0
  8  7  1  0  0  0  0
  9 23  1  0  0  0  0
  9  8  2  0  0  0  0
 10  1  1  0  0  0  0
 11  3  1  0  0  0  0
 14 15  2  0  0  0  0
 14 19  1  0  0  0  0
 15 16  1  0  0  0  0
 16 22  1  0  0  0  0
 16 17  2  0  0  0  0
 18 17  1  0  0  0  0
 18  2  1  0  0  0  0
 19 18  2  0  0  0  0
 20 14  1  0  0  0  0
 21 15  1  0  0  0  0
 23 24  2  0  0  0  0
 24 28  1  0  0  0  0
 25 24  1  0  0  0  0
 25 29  1  0  0  0  0
 26 25  2  0  0  0  0
 27 26  1  0  0  0  0
 27 23  1  0  0  0  0
 30 26  1  0  0  0  0
 30 36  1  0  0  0  0
 31 30  1  0  0  0  0
 32 31  1  0  0  0  0
 32 33  1  0  0  0  0
 33 34  1  0  0  0  0
 33 35  1  0  0  0  0
 35 36  1  0  0  0  0
M  END
>  <minimizedAffinity>
-6.06631756

$$$$

 OpenBabel03252506583D

 36 40  0  0  0  0  0  0  0  0999 V2000
   36.4680   30.6090   38.6800 C   0  0  0  0  0  0  0  0  0  0  0  0
   35.6400   29.4910   38.7310 C   0  0  0  0  0  0  0  0  0  0  0  0
   35.5530   28.6590   39.8220 C   0  0  0  0  0  0  0  0  0  0  0  0
   36.3250   28.9230   40.9540 C   0  0  0  0  0  0  0  0  0  0  0  0
   36.5010   28.3450   42.1780 N   0  0  0  0  0  0  0  0  0  0  0  0
   37.4110   29.0790   42.8720 C   0  0  0  0  0  0  0  0  0  0  0  0
   37.7830   30.0960   42.0650 N   0  0  0  0  0  0  0  0  0  0  0  0
   37.1350   30.0200   40.8970 C   0  0  0  0  0  0  0  0  0  0  0  0
   37.2450   30.8690   39.8270 C   0  0  0  0  0  0  0  0  0  0  0  0
   36.5200   31.2500   37.8110 H   0  0  0  0  0  0  0  0  0  0  0  0
   34.9030   27.7920   39.8460 H   0  0  0  0  0  0  0  0  0  0  0  0
   35.9790   27.4800   42.4540 H   0  0  0  0  0  0  0  0  0  0  0  0
   37.6900   28.7920   43.8610 H   0  0  0  0  0  0  0  0  0  0  0  0
   34.6230   28.9280   35.2450 C   0  0  0  0  0  0  0  0  0  0  0  0
   33.2730   28.6250   35.3630 C   0  0  0  0  0  0  0  0  0  0  0  0
   32.7120   28.6140   36.6360 C   0  0  0  0  0  0  0  0  0  0  0  0
   33.5020   28.8980   37.7110 N   0  0  0  0  0  0  0  0  0  0  0  0
   34.8170   29.1900   37.5560 C   0  0  0  0  0  0  0  0  0  0  0  0
   35.3840   29.2080   36.3330 N   0  0  0  0  0  0  0  0  0  0  0  0
   35.0700   28.9410   34.2770 H   0  0  0  0  0  0  0  0  0  0  0  0
   32.6510   28.3990   34.4990 H   0  0  0  0  0  0  0  0  0  0  0  0
   31.6570   28.3840   36.7990 H   0  0  0  0  0  0  0  0  0  0  0  0
   38.1410   32.0230   39.8570 C   0  0  0  0  0  0  0  0  0  0  0  0
   37.7550   33.3220   40.1100 C   0  0  0  0  0  0  0  0  0  0  0  0
   38.9270   34.0670   40.0350 C   0  0  0  0  0  0  0  0  0  0  0  0
   39.9520   33.1930   39.7420 C   0  0  0  0  0  0  0  0  0  0  0  0
   39.4250   31.9860   39.6460 O   0  0  0  0  0  0  0  0  0  0  0  0
   36.7690   33.7210   40.3260 H   0  0  0  0  0  0  0  0  0  0  0  0
   38.9690   35.1320   40.1870 H   0  0  0  0  0  0  0  0  0  0  0  0
   41.3280   33.5160   39.5720 N   0  0  0  0  0  0  0  0  0  0  0  0
   42.3710   33.3620   40.5640 C   0  0  0  0  0  2  0  0  0  0  0  0
   43.4670   32.4340   40.0900 C   0  0  0  0  0  2  0  0  0  0  0  0
   43.5570   32.4080   38.5770 C   0  0  0  0  0  3  0  0  0  0  0  0
   42.7970   31.6890   38.2200 H   0  0  0  0  0  0  0  0  0  0  0  0
   43.2090   33.7660   38.0040 C   0  0  0  0  0  2  0  0  0  0  0  0
   41.7760   34.0550   38.3040 C   0  0  0  0  0  2  0  0  0  0  0  0
  1  2  2  0  0  0  0
  1  9  1  0  0  0  0
  2  3  1  0  0  0  0
  3 11  1  0  0  0  0
  3  4  2  0  0  0  0
  4  5  1  0  0  0  0
  5 12  1  0  0  0  0
  5  6  1  0  0  0  0
  6 13  1  0  0  0  0
  7  6  2  0  0  0  0
  8  4  1  0  0  0  0
  8  7  1  0  0  0  0
  9 23  1  0  0  0  0
  9  8  2  0  0  0  0
 10  1  1  0  0  0  0
 14 15  2  0  0  0  0
 14 19  1  0  0  0  0
 15 16  1  0  0  0  0
 16 22  1  0  0  0  0
 16 17  2  0  0  0  0
 18 17  1  0  0  0  0
 18  2  1  0  0  0  0
 19 18  2  0  0  0  0
 20 14  1  0  0  0  0
 21 15  1  0  0  0  0
 23 24  2  0  0  0  0
 24 28  1  0  0  0  0
 25 24  1  0  0  0  0
 25 29  1  0  0  0  0
 26 25  2  0  0  0  0
 27 26  1  0  0  0  0
 27 23  1  0  0  0  0
 30 26  1  0  0  0  0
 30 31  1  0  0  0  0
 32 31  1  0  0  0  0
 33 32  1  0  0  0  0
 34 33  1  0  0  0  0
 35 36  1  0  0  0  0
 35 33  1  0  0  0  0
 36 30  1  0  0  0  0
M  END
>  <minimizedAffinity>
-5.96843624

$$$$

 OpenBabel03252506583D

 36 40  0  0  0  0  0  0  0  0999 V2000
   33.5660   29.1830   38.5640 C   0  0  0  0  0  0  0  0  0  0  0  0
   32.9110   29.2240   37.3360 C   0  0  0  0  0  0  0  0  0  0  0  0
   33.5510   29.0660   36.1280 C   0  0  0  0  0  0  0  0  0  0  0  0
   34.9300   28.8520   36.1010 C   0  0  0  0  0  0  0  0  0  0  0  0
   35.8740   28.6600   35.1350 N   0  0  0  0  0  0  0  0  0  0  0  0
   37.0810   28.5040   35.7390 C   0  0  0  0  0  0  0  0  0  0  0  0
   36.8630   28.6030   37.0690 N   0  0  0  0  0  0  0  0  0  0  0  0
   35.5640   28.8150   37.3090 C   0  0  0  0  0  0  0  0  0  0  0  0
   34.9580   28.9680   38.5280 C   0  0  0  0  0  0  0  0  0  0  0  0
   33.0420   29.3100   39.5010 H   0  0  0  0  0  0  0  0  0  0  0  0
   33.0280   29.0990   35.1800 H   0  0  0  0  0  0  0  0  0  0  0  0
   35.6210   28.6490   34.1180 H   0  0  0  0  0  0  0  0  0  0  0  0
   37.9580   28.3400   35.1530 H   0  0  0  0  0  0  0  0  0  0  0  0
   29.4030   29.2960   36.2460 C   0  0  0  0  0  0  0  0  0  0  0  0
   28.7540   29.8640   37.3340 C   0  0  0  0  0  0  0  0  0  0  0  0
   29.5180   30.2220   38.4400 C   0  0  0  0  0  0  0  0  0  0  0  0
   30.8640   30.0030   38.4150 N   0  0  0  0  0  0  0  0  0  0  0  0
   31.4620   29.4460   37.3330 C   0  0  0  0  0  0  0  0  0  0  0  0
   30.7440   29.0910   36.2480 N   0  0  0  0  0  0  0  0  0  0  0  0
   28.8330   29.0150   35.3890 H   0  0  0  0  0  0  0  0  0  0  0  0
   27.6790   30.0340   37.3450 H   0  0  0  0  0  0  0  0  0  0  0  0
   29.0710   30.6730   39.3280 H   0  0  0  0  0  0  0  0  0  0  0  0
   35.7210   28.9120   39.7730 C   0  0  0  0  0  0  0  0  0  0  0  0
   36.0370   29.9990   40.5600 C   0  0  0  0  0  0  0  0  0  0  0  0
   36.7600   29.4740   41.6250 C   0  0  0  0  0  0  0  0  0  0  0  0
   36.8460   28.1120   41.4330 C   0  0  0  0  0  0  0  0  0  0  0  0
   36.2080   27.8310   40.3110 O   0  0  0  0  0  0  0  0  0  0  0  0
   35.7960   31.0480   40.4190 H   0  0  0  0  0  0  0  0  0  0  0  0
   37.1590   30.0700   42.4290 H   0  0  0  0  0  0  0  0  0  0  0  0
   37.4970   27.1690   42.2780 N   0  0  0  0  0  0  0  0  0  0  0  0
   37.3560   25.7290   42.2210 C   0  0  0  0  0  2  0  0  0  0  0  0
   38.6770   25.0430   41.9600 C   0  0  0  0  0  2  0  0  0  0  0  0
   39.8440   25.8830   42.4390 C   0  0  0  0  0  3  0  0  0  0  0  0
   40.0680   26.6120   41.6390 H   0  0  0  0  0  0  0  0  0  0  0  0
   39.4590   26.6640   43.6770 C   0  0  0  0  0  2  0  0  0  0  0  0
   38.3980   27.6460   43.3080 C   0  0  0  0  0  2  0  0  0  0  0  0
  1 10  1  0  0  0  0
  2  1  2  0  0  0  0
  3  2  1  0  0  0  0
  4  3  2  0  0  0  0
  4  8  1  0  0  0  0
  5  6  1  0  0  0  0
  5  4  1  0  0  0  0
  6  7  2  0  0  0  0
  7  8  1  0  0  0  0
  8  9  2  0  0  0  0
  9  1  1  0  0  0  0
  9 23  1  0  0  0  0
 11  3  1  0  0  0  0
 12  5  1  0  0  0  0
 13  6  1  0  0  0  0
 14 19  2  0  0  0  0
 14 15  1  0  0  0  0
 15 21  1  0  0  0  0
 15 16  2  0  0  0  0
 16 22  1  0  0  0  0
 17 16  1  0  0  0  0
 18  2  1  0  0  0  0
 18 17  2  0  0  0  0
 19 18  1  0  0  0  0
 20 14  1  0  0  0  0
 23 27  1  0  0  0  0
 23 24  2  0  0  0  0
 24 25  1  0  0  0  0
 25 29  1  0  0  0  0
 26 25  2  0  0  0  0
 26 30  1  0  0  0  0
 27 26  1  0  0  0  0
 28 24  1  0  0  0  0
 30 36  1  0  0  0  0
 31 30  1  0  0  0  0
 32 31  1  0  0  0  0
 32 33  1  0  0  0  0
 33 35  1  0  0  0  0
 34 33  1  0  0  0  0
 36 35  1  0  0  0  0
M  END
>  <minimizedAffinity>
-5.85770559

$$$$

 OpenBabel03252506583D

 36 40  0  0  0  0  0  0  0  0999 V2000
   36.0070   26.6900   38.8060 C   0  0  0  0  0  0  0  0  0  0  0  0
   36.6620   26.2940   39.9690 C   0  0  0  0  0  0  0  0  0  0  0  0
   36.9400   27.1480   41.0110 C   0  0  0  0  0  0  0  0  0  0  0  0
   36.5590   28.4870   40.9270 C   0  0  0  0  0  0  0  0  0  0  0  0
   36.6590   29.5880   41.7270 N   0  0  0  0  0  0  0  0  0  0  0  0
   36.0850   30.6400   41.0850 C   0  0  0  0  0  0  0  0  0  0  0  0
   35.6400   30.1710   39.8990 N   0  0  0  0  0  0  0  0  0  0  0  0
   35.9170   28.8670   39.7840 C   0  0  0  0  0  0  0  0  0  0  0  0
   35.6240   28.0440   38.7280 C   0  0  0  0  0  0  0  0  0  0  0  0
   35.7970   26.0020   37.9990 H   0  0  0  0  0  0  0  0  0  0  0  0
   37.4510   26.8250   41.9110 H   0  0  0  0  0  0  0  0  0  0  0  0
   37.1190   29.5400   42.6680 H   0  0  0  0  0  0  0  0  0  0  0  0
   36.0590   31.6020   41.5470 H   0  0  0  0  0  0  0  0  0  0  0  0
   36.7620   22.6480   39.5300 C   0  0  0  0  0  0  0  0  0  0  0  0
   37.8500   22.2740   40.3070 C   0  0  0  0  0  0  0  0  0  0  0  0
   38.5470   23.2710   40.9810 C   0  0  0  0  0  0  0  0  0  0  0  0
   38.1420   24.5660   40.8550 N   0  0  0  0  0  0  0  0  0  0  0  0
   37.0740   24.8930   40.0850 C   0  0  0  0  0  0  0  0  0  0  0  0
   36.3800   23.9460   39.4220 N   0  0  0  0  0  0  0  0  0  0  0  0
   36.2160   21.8980   39.0050 H   0  0  0  0  0  0  0  0  0  0  0  0
   38.1660   21.2370   40.4020 H   0  0  0  0  0  0  0  0  0  0  0  0
   39.4120   23.0450   41.6100 H   0  0  0  0  0  0  0  0  0  0  0  0
   34.9320   28.5410   37.5410 C   0  0  0  0  0  0  0  0  0  0  0  0
   35.5080   28.7140   36.3000 C   0  0  0  0  0  0  0  0  0  0  0  0
   34.4840   29.1990   35.4940 C   0  0  0  0  0  0  0  0  0  0  0  0
   33.3540   29.2970   36.2760 C   0  0  0  0  0  0  0  0  0  0  0  0
   33.6790   28.8910   37.4900 O   0  0  0  0  0  0  0  0  0  0  0  0
   36.5270   28.5250   35.9790 H   0  0  0  0  0  0  0  0  0  0  0  0
   34.6080   29.4400   34.4510 H   0  0  0  0  0  0  0  0  0  0  0  0
   32.0680   29.7490   35.8670 N   0  0  0  0  0  0  0  0  0  0  0  0
   31.0350   30.2840   36.7290 C   0  0  0  0  0  2  0  0  0  0  0  0
   30.6530   31.6950   36.3430 C   0  0  0  0  0  2  0  0  0  0  0  0
   30.9240   31.9620   34.8760 C   0  0  0  0  0  3  0  0  0  0  0  0
   31.9930   32.2300   34.7880 H   0  0  0  0  0  0  0  0  0  0  0  0
   30.6970   30.7070   34.0600 C   0  0  0  0  0  2  0  0  0  0  0  0
   31.7100   29.6890   34.4640 C   0  0  0  0  0  2  0  0  0  0  0  0
  1  2  1  0  0  0  0
  2 18  1  0  0  0  0
  2  3  2  0  0  0  0
  3 11  1  0  0  0  0
  4  3  1  0  0  0  0
  4  5  1  0  0  0  0
  5 12  1  0  0  0  0
  6 13  1  0  0  0  0
  6  5  1  0  0  0  0
  7  6  2  0  0  0  0
  8  7  1  0  0  0  0
  8  4  2  0  0  0  0
  9  1  2  0  0  0  0
  9  8  1  0  0  0  0
 10  1  1  0  0  0  0
 14 15  1  0  0  0  0
 15 21  1  0  0  0  0
 15 16  2  0  0  0  0
 16 22  1  0  0  0  0
 17 16  1  0  0  0  0
 18 17  2  0  0  0  0
 19 14  2  0  0  0  0
 19 18  1  0  0  0  0
 20 14  1  0  0  0  0
 23  9  1  0  0  0  0
 24 23  2  0  0  0  0
 25 26  2  0  0  0  0
 25 24  1  0  0  0  0
 26 27  1  0  0  0  0
 27 23  1  0  0  0  0
 28 24  1  0  0  0  0
 29 25  1  0  0  0  0
 30 26  1  0  0  0  0
 30 31  1  0  0  0  0
 32 31  1  0  0  0  0
 33 32  1  0  0  0  0
 34 33  1  0  0  0  0
 35 36  1  0  0  0  0
 35 33  1  0  0  0  0
 36 30  1  0  0  0  0
M  END
>  <minimizedAffinity>
-5.8020339

$$$$

 OpenBabel03252506583D

 36 40  0  0  0  0  0  0  0  0999 V2000
   35.7190   28.2060   39.1020 C   0  0  0  0  0  0  0  0  0  0  0  0
   36.5590   27.4180   39.8840 C   0  0  0  0  0  0  0  0  0  0  0  0
   36.7670   26.0770   39.6600 C   0  0  0  0  0  0  0  0  0  0  0  0
   36.1160   25.4450   38.5990 C   0  0  0  0  0  0  0  0  0  0  0  0
   36.0750   24.1810   38.0860 N   0  0  0  0  0  0  0  0  0  0  0  0
   35.2370   24.1790   37.0160 C   0  0  0  0  0  0  0  0  0  0  0  0
   34.7730   25.4410   36.8870 N   0  0  0  0  0  0  0  0  0  0  0  0
   35.2950   26.2250   37.8380 C   0  0  0  0  0  0  0  0  0  0  0  0
   35.0650   27.5620   38.0330 C   0  0  0  0  0  0  0  0  0  0  0  0
   35.5710   29.2600   39.2960 H   0  0  0  0  0  0  0  0  0  0  0  0
   37.4230   25.4760   40.2780 H   0  0  0  0  0  0  0  0  0  0  0  0
   36.6310   23.4010   38.5100 H   0  0  0  0  0  0  0  0  0  0  0  0
   35.0650   23.2790   36.4700 H   0  0  0  0  0  0  0  0  0  0  0  0
   39.0250   29.3500   41.8020 C   0  0  0  0  0  0  0  0  0  0  0  0
   38.5560   29.2420   43.1050 C   0  0  0  0  0  0  0  0  0  0  0  0
   37.3960   28.5070   43.3250 C   0  0  0  0  0  0  0  0  0  0  0  0
   36.7680   27.9260   42.2630 N   0  0  0  0  0  0  0  0  0  0  0  0
   37.2560   28.0540   41.0050 C   0  0  0  0  0  0  0  0  0  0  0  0
   38.3790   28.7610   40.7650 N   0  0  0  0  0  0  0  0  0  0  0  0
   39.9130   29.9110   41.6140 H   0  0  0  0  0  0  0  0  0  0  0  0
   39.0650   29.7100   43.9460 H   0  0  0  0  0  0  0  0  0  0  0  0
   36.9740   28.3820   44.3250 H   0  0  0  0  0  0  0  0  0  0  0  0
   34.1670   28.3180   37.1630 C   0  0  0  0  0  0  0  0  0  0  0  0
   34.4230   28.6430   35.8470 C   0  0  0  0  0  0  0  0  0  0  0  0
   33.3030   29.3550   35.4290 C   0  0  0  0  0  0  0  0  0  0  0  0
   32.4370   29.4250   36.4990 C   0  0  0  0  0  0  0  0  0  0  0  0
   33.0040   28.7900   37.5080 O   0  0  0  0  0  0  0  0  0  0  0  0
   35.2890   28.4160   35.2350 H   0  0  0  0  0  0  0  0  0  0  0  0
   33.1870   29.7570   34.4370 H   0  0  0  0  0  0  0  0  0  0  0  0
   31.1640   30.0620   36.5260 N   0  0  0  0  0  0  0  0  0  0  0  0
   30.0070   29.6280   37.2810 C   0  0  0  0  0  2  0  0  0  0  0  0
   29.5450   30.6840   38.2590 C   0  0  0  0  0  2  0  0  0  0  0  0
   29.9370   32.0750   37.8010 C   0  0  0  0  0  3  0  0  0  0  0  0
   30.9810   32.2390   38.1230 H   0  0  0  0  0  0  0  0  0  0  0  0
   29.9020   32.1630   36.2910 C   0  0  0  0  0  2  0  0  0  0  0  0
   30.9550   31.2600   35.7390 C   0  0  0  0  0  2  0  0  0  0  0  0
  1 10  1  0  0  0  0
  1  2  1  0  0  0  0
  2 18  1  0  0  0  0
  3  2  2  0  0  0  0
  3 11  1  0  0  0  0
  4  3  1  0  0  0  0
  5 12  1  0  0  0  0
  5  4  1  0  0  0  0
  6  5  1  0  0  0  0
  7  6  2  0  0  0  0
  7  8  1  0  0  0  0
  8  9  1  0  0  0  0
  8  4  2  0  0  0  0
  9  1  2  0  0  0  0
 13  6  1  0  0  0  0
 14 15  1  0  0  0  0
 15 16  2  0  0  0  0
 15 21  1  0  0  0  0
 16 22  1  0  0  0  0
 17 16  1  0  0  0  0
 18 17  2  0  0  0  0
 19 18  1  0  0  0  0
 19 14  2  0  0  0  0
 20 14  1  0  0  0  0
 23 27  1  0  0  0  0
 23  9  1  0  0  0  0
 24 23  2  0  0  0  0
 25 24  1  0  0  0  0
 25 26  2  0  0  0  0
 26 30  1  0  0  0  0
 26 27  1  0  0  0  0
 28 24  1  0  0  0  0
 29 25  1  0  0  0  0
 30 31  1  0  0  0  0
 31 32  1  0  0  0  0
 33 34  1  0  0  0  0
 33 32  1  0  0  0  0
 35 33  1  0  0  0  0
 36 35  1  0  0  0  0
 36 30  1  0  0  0  0
M  END
>  <minimizedAffinity>
-5.76653051

$$$$

 OpenBabel03252506583D

 36 40  0  0  0  0  0  0  0  0999 V2000
   37.6420   28.7480   40.0600 C   0  0  0  0  0  0  0  0  0  0  0  0
   38.3400   29.1210   41.2050 C   0  0  0  0  0  0  0  0  0  0  0  0
   38.5560   30.4300   41.5710 C   0  0  0  0  0  0  0  0  0  0  0  0
   38.0610   31.4600   40.7700 C   0  0  0  0  0  0  0  0  0  0  0  0
   38.0760   32.8240   40.8060 N   0  0  0  0  0  0  0  0  0  0  0  0
   37.4090   33.2900   39.7180 C   0  0  0  0  0  0  0  0  0  0  0  0
   36.9930   32.2060   39.0270 N   0  0  0  0  0  0  0  0  0  0  0  0
   37.3790   31.0860   39.6490 C   0  0  0  0  0  0  0  0  0  0  0  0
   37.1460   29.7940   39.2560 C   0  0  0  0  0  0  0  0  0  0  0  0
   37.4840   27.7120   39.7920 H   0  0  0  0  0  0  0  0  0  0  0  0
   39.1010   30.7040   42.4660 H   0  0  0  0  0  0  0  0  0  0  0  0
   38.5490   33.3450   41.5840 H   0  0  0  0  0  0  0  0  0  0  0  0
   37.3070   34.3400   39.5590 H   0  0  0  0  0  0  0  0  0  0  0  0
   38.7740   25.8640   42.8490 C   0  0  0  0  0  0  0  0  0  0  0  0
   39.8670   26.0800   43.6770 C   0  0  0  0  0  0  0  0  0  0  0  0
   40.4540   27.3400   43.6720 C   0  0  0  0  0  0  0  0  0  0  0  0
   39.9400   28.3090   42.8620 N   0  0  0  0  0  0  0  0  0  0  0  0
   38.8710   28.0600   42.0660 C   0  0  0  0  0  0  0  0  0  0  0  0
   38.2820   26.8460   42.0530 N   0  0  0  0  0  0  0  0  0  0  0  0
   38.3110   24.9030   42.8390 H   0  0  0  0  0  0  0  0  0  0  0  0
   40.2710   25.3000   44.3210 H   0  0  0  0  0  0  0  0  0  0  0  0
   41.3170   27.5770   44.3000 H   0  0  0  0  0  0  0  0  0  0  0  0
   36.4020   29.4880   38.0360 C   0  0  0  0  0  0  0  0  0  0  0  0
   36.9660   29.1000   36.8390 C   0  0  0  0  0  0  0  0  0  0  0  0
   35.8900   28.9220   35.9760 C   0  0  0  0  0  0  0  0  0  0  0  0
   34.7430   29.2080   36.6840 C   0  0  0  0  0  0  0  0  0  0  0  0
   35.1080   29.5410   37.9090 O   0  0  0  0  0  0  0  0  0  0  0  0
   38.0100   28.9530   36.5820 H   0  0  0  0  0  0  0  0  0  0  0  0
   35.9920   28.6150   34.9490 H   0  0  0  0  0  0  0  0  0  0  0  0
   33.4050   29.1590   36.1990 N   0  0  0  0  0  0  0  0  0  0  0  0
   32.2290   28.8100   36.9690 C   0  0  0  0  0  2  0  0  0  0  0  0
   31.2170   29.9320   36.9920 C   0  0  0  0  0  2  0  0  0  0  0  0
   31.3470   30.8230   35.7720 C   0  0  0  0  0  3  0  0  0  0  0  0
   32.1520   31.5490   35.9870 H   0  0  0  0  0  0  0  0  0  0  0  0
   31.7690   30.0100   34.5680 C   0  0  0  0  0  2  0  0  0  0  0  0
   33.1430   29.4800   34.8110 C   0  0  0  0  0  2  0  0  0  0  0  0
  1  2  1  0  0  0  0
  2  3  2  0  0  0  0
  2 18  1  0  0  0  0
  3 11  1  0  0  0  0
  4  5  1  0  0  0  0
  4  3  1  0  0  0  0
  5 12  1  0  0  0  0
  6  5  1  0  0  0  0
  7  8  1  0  0  0  0
  7  6  2  0  0  0  0
  8  4  2  0  0  0  0
  9  8  1  0  0  0  0
  9  1  2  0  0  0  0
 10  1  1  0  0  0  0
 13  6  1  0  0  0  0
 14 15  1  0  0  0  0
 15 21  1  0  0  0  0
 16 15  2  0  0  0  0
 16 22  1  0  0  0  0
 17 16  1  0  0  0  0
 18 17  2  0  0  0  0
 19 18  1  0  0  0  0
 19 14  2  0  0  0  0
 20 14  1  0  0  0  0
 23  9  1  0  0  0  0
 24 23  2  0  0  0  0
 25 26  2  0  0  0  0
 25 24  1  0  0  0  0
 26 27  1  0  0  0  0
 27 23  1  0  0  0  0
 28 24  1  0  0  0  0
 29 25  1  0  0  0  0
 30 26  1  0  0  0  0
 30 31  1  0  0  0  0
 31 32  1  0  0  0  0
 33 34  1  0  0  0  0
 33 32  1  0  0  0  0
 35 36  1  0  0  0  0
 35 33  1  0  0  0  0
 36 30  1  0  0  0  0
M  END
>  <minimizedAffinity>
-5.69788408

$$$$

 OpenBabel03252506583D

 36 40  0  0  0  0  0  0  0  0999 V2000
   40.4560   30.5170   37.7960 C   0  0  0  0  0  0  0  0  0  0  0  0
   41.3990   31.5370   37.7050 C   0  0  0  0  0  0  0  0  0  0  0  0
   41.2200   32.7860   38.2510 C   0  0  0  0  0  0  0  0  0  0  0  0
   40.0410   33.0770   38.9380 C   0  0  0  0  0  0  0  0  0  0  0  0
   39.5270   34.1610   39.5890 N   0  0  0  0  0  0  0  0  0  0  0  0
   38.3000   33.8290   40.0720 C   0  0  0  0  0  0  0  0  0  0  0  0
   38.0770   32.5470   39.7110 N   0  0  0  0  0  0  0  0  0  0  0  0
   39.1220   32.0720   39.0230 C   0  0  0  0  0  0  0  0  0  0  0  0
   39.2680   30.8180   38.4920 C   0  0  0  0  0  0  0  0  0  0  0  0
   40.6180   29.5410   37.3590 H   0  0  0  0  0  0  0  0  0  0  0  0
   41.9640   33.5710   38.1720 H   0  0  0  0  0  0  0  0  0  0  0  0
   40.0590   35.0620   39.6560 H   0  0  0  0  0  0  0  0  0  0  0  0
   37.7260   34.5450   40.6170 H   0  0  0  0  0  0  0  0  0  0  0  0
   44.9120   31.7030   36.6430 C   0  0  0  0  0  0  0  0  0  0  0  0
   44.9790   30.7380   35.6470 C   0  0  0  0  0  0  0  0  0  0  0  0
   43.8210   30.0310   35.3400 C   0  0  0  0  0  0  0  0  0  0  0  0
   42.6740   30.3090   36.0230 N   0  0  0  0  0  0  0  0  0  0  0  0
   42.6470   31.2600   36.9890 C   0  0  0  0  0  0  0  0  0  0  0  0
   43.7560   31.9600   37.3050 N   0  0  0  0  0  0  0  0  0  0  0  0
   45.7900   32.2550   36.8920 H   0  0  0  0  0  0  0  0  0  0  0  0
   45.9000   30.5230   35.1080 H   0  0  0  0  0  0  0  0  0  0  0  0
   43.8050   29.2590   34.5680 H   0  0  0  0  0  0  0  0  0  0  0  0
   38.2260   29.8020   38.6330 C   0  0  0  0  0  0  0  0  0  0  0  0
   37.0700   29.7410   37.8830 C   0  0  0  0  0  0  0  0  0  0  0  0
   36.3910   28.6260   38.3610 C   0  0  0  0  0  0  0  0  0  0  0  0
   37.1580   28.0750   39.3640 C   0  0  0  0  0  0  0  0  0  0  0  0
   38.2430   28.8180   39.4850 O   0  0  0  0  0  0  0  0  0  0  0  0
   36.7270   30.3940   37.0880 H   0  0  0  0  0  0  0  0  0  0  0  0
   35.4380   28.2970   37.9790 H   0  0  0  0  0  0  0  0  0  0  0  0
   36.8520   26.9190   40.1370 N   0  0  0  0  0  0  0  0  0  0  0  0
   36.4540   25.6260   39.6200 C   0  0  0  0  0  2  0  0  0  0  0  0
   37.4140   24.5340   40.0330 C   0  0  0  0  0  2  0  0  0  0  0  0
   38.1310   24.8830   41.3230 C   0  0  0  0  0  3  0  0  0  0  0  0
   38.9860   25.5290   41.0530 H   0  0  0  0  0  0  0  0  0  0  0  0
   37.2220   25.6810   42.2320 C   0  0  0  0  0  2  0  0  0  0  0  0
   36.9310   26.9920   41.5820 C   0  0  0  0  0  2  0  0  0  0  0  0
  1  9  1  0  0  0  0
  2  1  2  0  0  0  0
  2  3  1  0  0  0  0
  3  4  2  0  0  0  0
  4  8  1  0  0  0  0
  4  5  1  0  0  0  0
  5 12  1  0  0  0  0
  5  6  1  0  0  0  0
  6 13  1  0  0  0  0
  7  6  2  0  0  0  0
  8  7  1  0  0  0  0
  9 23  1  0  0  0  0
  9  8  2  0  0  0  0
 10  1  1  0  0  0  0
 11  3  1  0  0  0  0
 14 20  1  0  0  0  0
 14 19  1  0  0  0  0
 15 14  2  0  0  0  0
 16 15  1  0  0  0  0
 16 17  2  0  0  0  0
 17 18  1  0  0  0  0
 18 19  2  0  0  0  0
 18  2  1  0  0  0  0
 21 15  1  0  0  0  0
 22 16  1  0  0  0  0
 23 27  1  0  0  0  0
 24 25  1  0  0  0  0
 24 23  2  0  0  0  0
 25 26  2  0  0  0  0
 26 27  1  0  0  0  0
 26 30  1  0  0  0  0
 28 24  1  0  0  0  0
 29 25  1  0  0  0  0
 30 36  1  0  0  0  0
 31 32  1  0  0  0  0
 31 30  1  0  0  0  0
 32 33  1  0  0  0  0
 33 35  1  0  0  0  0
 34 33  1  0  0  0  0
 36 35  1  0  0  0  0
M  END
>  <minimizedAffinity>
-5.68530941

$$$$
