
 OpenBabel03242518173D

 21 22  0  0  0  0  0  0  0  0999 V2000
   44.5250   35.4900   44.9640 C   0  0  0  0  0  0  0  0  0  0  0  0
   45.0290   35.5680   43.6600 C   0  0  0  0  0  0  0  0  0  0  0  0
   46.0690   34.7330   43.3310 C   0  0  0  0  0  0  0  0  0  0  0  0
   46.5520   33.8900   44.2510 N   0  0  0  0  0  0  0  0  0  0  0  0
   46.0590   33.8250   45.4990 C   0  0  0  0  0  0  0  0  0  0  0  0
   45.0320   34.6340   45.8640 N   0  0  0  0  0  0  0  0  0  0  0  0
   43.7010   36.1340   45.2720 H   0  0  0  0  0  0  0  0  0  0  0  0
   46.4430   34.8010   42.3400 H   0  0  0  0  0  0  0  0  0  0  0  0
   44.4020   36.5170   42.8110 N   0  0  0  0  0  0  0  0  0  0  0  0
   43.3570   36.6830   42.9070 H   0  0  0  0  0  0  0  0  0  0  0  0
   44.8920   37.0790   42.0800 H   0  0  0  0  0  0  0  0  0  0  0  0
   46.5730   32.8970   46.5510 C   0  0  0  0  0  0  0  0  0  0  0  0
   47.6290   32.6870   46.3400 H   0  0  0  0  0  0  0  0  0  0  0  0
   46.4850   33.3900   47.5560 H   0  0  0  0  0  0  0  0  0  0  0  0
   45.8580   31.6680   46.6460 N   0  0  0  0  0  0  0  0  0  0  0  0
   46.4230   30.5790   45.9230 C   0  0  0  0  0  0  0  0  0  0  0  0
   45.3930   29.4920   45.7210 C   0  0  0  0  0  0  0  0  0  0  0  0
   44.5760   29.2010   46.9450 C   0  0  0  0  0  0  0  0  0  0  0  0
   43.4900   29.4000   46.8180 H   0  0  0  0  0  0  0  0  0  0  0  0
   45.0970   29.9080   48.1790 C   0  0  0  0  0  0  0  0  0  0  0  0
   45.3700   31.3540   47.9530 C   0  0  0  0  0  0  0  0  0  0  0  0
  1  7  1  0  0  0  0
  1  6  1  0  0  0  0
  2  1  2  0  0  0  0
  3  2  1  0  0  0  0
  3  4  2  0  0  0  0
  4  5  1  0  0  0  0
  5  6  2  0  0  0  0
  5 12  1  0  0  0  0
  8  3  1  0  0  0  0
  9 10  1  0  0  0  0
  9  2  1  0  0  0  0
 11  9  1  0  0  0  0
 12 15  1  0  0  0  0
 12 14  1  0  0  0  0
 13 12  1  0  0  0  0
 15 21  1  0  0  0  0
 16 15  1  0  0  0  0
 17 16  1  0  0  0  0
 17 18  1  0  0  0  0
 18 20  1  0  0  0  0
 19 18  1  0  0  0  0
 21 20  1  0  0  0  0
M  END
>  <minimizedAffinity>
-4.44982481

>  <minimizedRMSD>
1.05157435

$$$$
