
 OpenBabel03252508563D

 22 23  0  0  0  0  0  0  0  0999 V2000
   46.3220   34.9110   41.8040 C   0  0  0  0  0  0  0  0  0  0  0  0
   46.0040   33.9400   41.3640 H   0  0  0  0  0  0  0  0  0  0  0  0
   45.9170   35.7760   41.2550 H   0  0  0  0  0  0  0  0  0  0  0  0
   44.4710   35.9790   44.8930 C   0  0  0  0  0  0  0  0  0  0  0  0
   44.9780   35.9890   43.5670 C   0  0  0  0  0  0  0  0  0  0  0  0
   45.7820   34.9290   43.1780 C   0  0  0  0  0  0  0  0  0  0  0  0
   46.0410   33.9480   44.0740 N   0  0  0  0  0  0  0  0  0  0  0  0
   45.5440   33.9640   45.3310 C   0  0  0  0  0  0  0  0  0  0  0  0
   44.7590   34.9740   45.7520 N   0  0  0  0  0  0  0  0  0  0  0  0
   43.8460   36.8220   45.1610 H   0  0  0  0  0  0  0  0  0  0  0  0
   44.7240   36.8130   42.9090 H   0  0  0  0  0  0  0  0  0  0  0  0
   45.7600   33.1720   46.0380 H   0  0  0  0  0  0  0  0  0  0  0  0
   47.8240   34.9190   41.8480 C   0  0  0  0  0  0  0  0  0  0  0  0
   48.1740   35.9770   41.7180 H   0  0  0  0  0  0  0  0  0  0  0  0
   48.1900   34.6010   42.8300 H   0  0  0  0  0  0  0  0  0  0  0  0
   48.3750   34.1810   40.7560 N   0  0  0  0  0  0  0  0  0  0  0  0
   49.2530   33.1320   41.1070 C   0  0  0  0  0  0  0  0  0  0  0  0
   49.1630   31.8600   40.3320 C   0  0  0  0  0  0  0  0  0  0  0  0
   48.6840   32.0020   38.9190 C   0  0  0  0  0  0  0  0  0  0  0  0
   47.6770   31.5160   38.8390 H   0  0  0  0  0  0  0  0  0  0  0  0
   48.4580   33.4400   38.5160 C   0  0  0  0  0  0  0  0  0  0  0  0
   47.5450   33.9990   39.6190 C   0  0  0  0  0  0  0  0  0  0  0  0
  1 13  1  0  0  0  0
  1  6  1  0  0  0  0
  2  1  1  0  0  0  0
  3  1  1  0  0  0  0
  4 10  1  0  0  0  0
  4  9  1  0  0  0  0
  5  4  2  0  0  0  0
  6  5  1  0  0  0  0
  6  7  2  0  0  0  0
  7  8  1  0  0  0  0
  8  9  2  0  0  0  0
  8 12  1  0  0  0  0
 11  5  1  0  0  0  0
 13 15  1  0  0  0  0
 14 13  1  0  0  0  0
 16 17  1  0  0  0  0
 16 13  1  0  0  0  0
 18 17  1  0  0  0  0
 19 18  1  0  0  0  0
 20 19  1  0  0  0  0
 21 19  1  0  0  0  0
 21 22  1  0  0  0  0
 22 16  1  0  0  0  0
M  END
>  <minimizedAffinity>
-3.93838573

>  <minimizedRMSD>
1.27474713

$$$$
