
 OpenBabel03242522123D

 18 19  0  0  0  0  0  0  0  0999 V2000
   36.9740   32.2930   40.1220 C   0  0  0  0  0  0  0  0  0  0  0  0
   37.0500   31.0730   40.8040 C   0  0  0  0  0  0  0  0  0  0  0  0
   38.2500   30.3780   40.8260 C   0  0  0  0  0  0  0  0  0  0  0  0
   39.3030   30.9310   40.1760 N   0  0  0  0  0  0  0  0  0  0  0  0
   39.2190   32.1020   39.5260 C   0  0  0  0  0  0  0  0  0  0  0  0
   38.0550   32.7890   39.4960 N   0  0  0  0  0  0  0  0  0  0  0  0
   36.0930   32.9120   40.0420 H   0  0  0  0  0  0  0  0  0  0  0  0
   40.1630   32.4000   39.0570 H   0  0  0  0  0  0  0  0  0  0  0  0
   38.2590   29.1590   41.5270 N   0  0  0  0  0  0  0  0  0  0  0  0
   38.5810   28.9570   42.9350 C   0  0  0  0  0  2  0  0  0  0  0  0
   37.3280   28.5660   43.6800 C   0  0  0  0  0  2  0  0  0  0  0  0
   36.6020   27.4180   43.0360 C   0  0  0  0  0  3  0  0  0  0  0  0
   35.5170   27.5180   43.3290 H   0  0  0  0  0  0  0  0  0  0  0  0
   36.6640   27.3980   41.5530 C   0  0  0  0  0  2  0  0  0  0  0  0
   37.9410   27.8740   40.9450 C   0  0  0  0  0  2  0  0  0  0  0  0
   35.8230   30.6550   41.4290 N   0  0  0  0  0  0  0  0  0  0  0  0
   35.6620   31.2540   42.2940 H   0  0  0  0  0  0  0  0  0  0  0  0
   35.1390   29.9080   41.1640 H   0  0  0  0  0  0  0  0  0  0  0  0
  1  2  1  0  0  0  0
  2  3  2  0  0  0  0
  2 16  1  0  0  0  0
  3  9  1  0  0  0  0
  4  3  1  0  0  0  0
  5  4  2  0  0  0  0
  6  5  1  0  0  0  0
  6  1  2  0  0  0  0
  7  1  1  0  0  0  0
  8  5  1  0  0  0  0
  9 10  1  0  0  0  0
 10 11  1  0  0  0  0
 12 13  1  0  0  0  0
 12 11  1  0  0  0  0
 14 12  1  0  0  0  0
 15  9  1  0  0  0  0
 15 14  1  0  0  0  0
 16 17  1  0  0  0  0
 18 16  1  0  0  0  0
M  END
>  <minimizedAffinity>
-4.51860189

$$$$

 OpenBabel03242522123D

 18 19  0  0  0  0  0  0  0  0999 V2000
   37.1120   31.8960   39.6460 C   0  0  0  0  0  0  0  0  0  0  0  0
   36.8860   30.9090   40.6130 C   0  0  0  0  0  0  0  0  0  0  0  0
   37.8350   29.9170   40.8080 C   0  0  0  0  0  0  0  0  0  0  0  0
   38.9490   29.9590   40.0380 N   0  0  0  0  0  0  0  0  0  0  0  0
   39.1550   30.9110   39.1130 C   0  0  0  0  0  0  0  0  0  0  0  0
   38.2380   31.8840   38.9130 N   0  0  0  0  0  0  0  0  0  0  0  0
   36.4410   32.7100   39.4140 H   0  0  0  0  0  0  0  0  0  0  0  0
   40.1060   30.7940   38.5830 H   0  0  0  0  0  0  0  0  0  0  0  0
   37.5480   28.9560   41.7920 N   0  0  0  0  0  0  0  0  0  0  0  0
   36.7230   27.7630   41.6420 C   0  0  0  0  0  2  0  0  0  0  0  0
   37.6030   26.5380   41.7050 C   0  0  0  0  0  2  0  0  0  0  0  0
   38.5010   26.5260   42.9110 C   0  0  0  0  0  3  0  0  0  0  0  0
   39.4000   25.9020   42.6370 H   0  0  0  0  0  0  0  0  0  0  0  0
   38.9950   27.8620   43.3290 C   0  0  0  0  0  2  0  0  0  0  0  0
   38.0430   28.9980   43.1510 C   0  0  0  0  0  2  0  0  0  0  0  0
   35.6430   31.0370   41.3250 N   0  0  0  0  0  0  0  0  0  0  0  0
   35.7270   31.8460   42.0120 H   0  0  0  0  0  0  0  0  0  0  0  0
   34.7560   30.4860   41.2580 H   0  0  0  0  0  0  0  0  0  0  0  0
  1  2  1  0  0  0  0
  2  3  2  0  0  0  0
  2 16  1  0  0  0  0
  3  9  1  0  0  0  0
  4  3  1  0  0  0  0
  5  4  2  0  0  0  0
  6  5  1  0  0  0  0
  6  1  2  0  0  0  0
  7  1  1  0  0  0  0
  8  5  1  0  0  0  0
  9 15  1  0  0  0  0
 10 11  1  0  0  0  0
 10  9  1  0  0  0  0
 11 12  1  0  0  0  0
 12 14  1  0  0  0  0
 13 12  1  0  0  0  0
 15 14  1  0  0  0  0
 16 17  1  0  0  0  0
 18 16  1  0  0  0  0
M  END
>  <minimizedAffinity>
-4.47279739

$$$$

 OpenBabel03242522123D

 18 19  0  0  0  0  0  0  0  0999 V2000
   37.0200   28.6690   42.9750 C   0  0  0  0  0  0  0  0  0  0  0  0
   37.2150   29.6190   41.9660 C   0  0  0  0  0  0  0  0  0  0  0  0
   38.4750   29.7740   41.4090 C   0  0  0  0  0  0  0  0  0  0  0  0
   39.4680   28.9810   41.8820 N   0  0  0  0  0  0  0  0  0  0  0  0
   39.2700   28.0740   42.8510 C   0  0  0  0  0  0  0  0  0  0  0  0
   38.0450   27.9120   43.4020 N   0  0  0  0  0  0  0  0  0  0  0  0
   36.0840   28.4700   43.4740 H   0  0  0  0  0  0  0  0  0  0  0  0
   40.1780   27.5200   43.1120 H   0  0  0  0  0  0  0  0  0  0  0  0
   38.6040   30.7450   40.4010 N   0  0  0  0  0  0  0  0  0  0  0  0
   38.3770   30.5620   38.9710 C   0  0  0  0  0  2  0  0  0  0  0  0
   37.1380   31.3210   38.5640 C   0  0  0  0  0  2  0  0  0  0  0  0
   37.1580   32.7560   39.0140 C   0  0  0  0  0  3  0  0  0  0  0  0
   36.0810   33.0780   39.1140 H   0  0  0  0  0  0  0  0  0  0  0  0
   37.8160   32.9860   40.3240 C   0  0  0  0  0  2  0  0  0  0  0  0
   38.9930   32.1190   40.6270 C   0  0  0  0  0  2  0  0  0  0  0  0
   36.0370   30.3620   41.6030 N   0  0  0  0  0  0  0  0  0  0  0  0
   35.3970   29.7280   41.0360 H   0  0  0  0  0  0  0  0  0  0  0  0
   35.7620   31.3510   41.8070 H   0  0  0  0  0  0  0  0  0  0  0  0
  1  6  1  0  0  0  0
  1  7  1  0  0  0  0
  2  1  2  0  0  0  0
  3  4  2  0  0  0  0
  3  2  1  0  0  0  0
  4  5  1  0  0  0  0
  5  8  1  0  0  0  0
  5  6  2  0  0  0  0
  9 15  1  0  0  0  0
  9  3  1  0  0  0  0
 10  9  1  0  0  0  0
 11 10  1  0  0  0  0
 11 12  1  0  0  0  0
 12 13  1  0  0  0  0
 12 14  1  0  0  0  0
 14 15  1  0  0  0  0
 16 18  1  0  0  0  0
 16  2  1  0  0  0  0
 17 16  1  0  0  0  0
M  END
>  <minimizedAffinity>
-4.17956114

$$$$

 OpenBabel03242522123D

 18 19  0  0  0  0  0  0  0  0999 V2000
   42.1410   33.2310   37.2800 C   0  0  0  0  0  0  0  0  0  0  0  0
   40.9440   32.8350   37.8890 C   0  0  0  0  0  0  0  0  0  0  0  0
   40.8200   32.9210   39.2670 C   0  0  0  0  0  0  0  0  0  0  0  0
   41.8850   33.3920   39.9610 N   0  0  0  0  0  0  0  0  0  0  0  0
   43.0280   33.7680   39.3670 C   0  0  0  0  0  0  0  0  0  0  0  0
   43.1620   33.6900   38.0230 N   0  0  0  0  0  0  0  0  0  0  0  0
   42.3420   33.2040   36.2190 H   0  0  0  0  0  0  0  0  0  0  0  0
   43.7830   34.1240   40.0760 H   0  0  0  0  0  0  0  0  0  0  0  0
   39.5940   32.5080   39.8170 N   0  0  0  0  0  0  0  0  0  0  0  0
   38.4410   33.3470   40.1240 C   0  0  0  0  0  2  0  0  0  0  0  0
   37.3190   33.0190   39.1700 C   0  0  0  0  0  2  0  0  0  0  0  0
   37.0190   31.5470   39.1070 C   0  0  0  0  0  3  0  0  0  0  0  0
   36.5690   31.3530   38.0900 H   0  0  0  0  0  0  0  0  0  0  0  0
   38.2050   30.6660   39.2460 C   0  0  0  0  0  2  0  0  0  0  0  0
   39.2710   31.1450   40.1740 C   0  0  0  0  0  2  0  0  0  0  0  0
   39.9330   32.3630   36.9810 N   0  0  0  0  0  0  0  0  0  0  0  0
   39.5230   33.1980   36.4640 H   0  0  0  0  0  0  0  0  0  0  0  0
   39.5870   31.3940   36.7860 H   0  0  0  0  0  0  0  0  0  0  0  0
  1  2  2  0  0  0  0
  1  6  1  0  0  0  0
  2  3  1  0  0  0  0
  3  9  1  0  0  0  0
  3  4  2  0  0  0  0
  5  4  1  0  0  0  0
  5  8  1  0  0  0  0
  6  5  2  0  0  0  0
  7  1  1  0  0  0  0
  9 10  1  0  0  0  0
  9 15  1  0  0  0  0
 11 10  1  0  0  0  0
 12 11  1  0  0  0  0
 12 14  1  0  0  0  0
 13 12  1  0  0  0  0
 14 15  1  0  0  0  0
 16  2  1  0  0  0  0
 17 16  1  0  0  0  0
 18 16  1  0  0  0  0
M  END
>  <minimizedAffinity>
-4.0675869

$$$$

 OpenBabel03242522123D

 18 19  0  0  0  0  0  0  0  0999 V2000
   38.6620   32.6030   40.7490 C   0  0  0  0  0  0  0  0  0  0  0  0
   38.8690   31.4380   41.4970 C   0  0  0  0  0  0  0  0  0  0  0  0
   38.0570   30.3350   41.2810 C   0  0  0  0  0  0  0  0  0  0  0  0
   37.0880   30.4490   40.3390 N   0  0  0  0  0  0  0  0  0  0  0  0
   36.8980   31.5720   39.6280 C   0  0  0  0  0  0  0  0  0  0  0  0
   37.6840   32.6540   39.8290 N   0  0  0  0  0  0  0  0  0  0  0  0
   39.2340   33.5140   40.8380 H   0  0  0  0  0  0  0  0  0  0  0  0
   36.0730   31.4910   38.9110 H   0  0  0  0  0  0  0  0  0  0  0  0
   38.3170   29.1970   42.0630 N   0  0  0  0  0  0  0  0  0  0  0  0
   37.7710   28.8940   43.3820 C   0  0  0  0  0  2  0  0  0  0  0  0
   36.8160   27.7310   43.2690 C   0  0  0  0  0  2  0  0  0  0  0  0
   37.4150   26.5510   42.5560 C   0  0  0  0  0  3  0  0  0  0  0  0
   36.5560   25.9780   42.1020 H   0  0  0  0  0  0  0  0  0  0  0  0
   38.3500   26.8990   41.4570 C   0  0  0  0  0  2  0  0  0  0  0  0
   39.1910   28.1140   41.6730 C   0  0  0  0  0  2  0  0  0  0  0  0
   39.9470   31.5160   42.4470 N   0  0  0  0  0  0  0  0  0  0  0  0
   40.8700   31.4740   41.9180 H   0  0  0  0  0  0  0  0  0  0  0  0
   39.9340   31.6000   43.4900 H   0  0  0  0  0  0  0  0  0  0  0  0
  1  7  1  0  0  0  0
  1  2  1  0  0  0  0
  2 16  1  0  0  0  0
  3  2  2  0  0  0  0
  3  9  1  0  0  0  0
  4  3  1  0  0  0  0
  5  6  1  0  0  0  0
  5  4  2  0  0  0  0
  6  1  2  0  0  0  0
  8  5  1  0  0  0  0
  9 10  1  0  0  0  0
 11 10  1  0  0  0  0
 12 11  1  0  0  0  0
 13 12  1  0  0  0  0
 14 15  1  0  0  0  0
 14 12  1  0  0  0  0
 15  9  1  0  0  0  0
 16 18  1  0  0  0  0
 17 16  1  0  0  0  0
M  END
>  <minimizedAffinity>
-4.03366852

$$$$

 OpenBabel03242522123D

 18 19  0  0  0  0  0  0  0  0999 V2000
   37.1710   26.9870   42.8490 C   0  0  0  0  0  0  0  0  0  0  0  0
   37.3120   28.3450   42.5410 C   0  0  0  0  0  0  0  0  0  0  0  0
   37.4740   28.7320   41.2190 C   0  0  0  0  0  0  0  0  0  0  0  0
   37.4860   27.7540   40.2810 N   0  0  0  0  0  0  0  0  0  0  0  0
   37.3510   26.4540   40.5870 C   0  0  0  0  0  0  0  0  0  0  0  0
   37.1920   26.0640   41.8720 N   0  0  0  0  0  0  0  0  0  0  0  0
   37.0410   26.5800   43.8410 H   0  0  0  0  0  0  0  0  0  0  0  0
   37.3840   25.8000   39.7090 H   0  0  0  0  0  0  0  0  0  0  0  0
   37.6100   30.1090   40.9780 N   0  0  0  0  0  0  0  0  0  0  0  0
   38.8390   30.8930   41.0260 C   0  0  0  0  0  2  0  0  0  0  0  0
   39.2070   31.3280   39.6290 C   0  0  0  0  0  2  0  0  0  0  0  0
   38.0710   31.9960   38.9070 C   0  0  0  0  0  3  0  0  0  0  0  0
   38.2500   31.8380   37.8040 H   0  0  0  0  0  0  0  0  0  0  0  0
   36.7280   31.4490   39.2230 C   0  0  0  0  0  2  0  0  0  0  0  0
   36.5210   30.9950   40.6300 C   0  0  0  0  0  2  0  0  0  0  0  0
   37.2730   29.2270   43.6770 N   0  0  0  0  0  0  0  0  0  0  0  0
   36.2680   29.2950   44.0200 H   0  0  0  0  0  0  0  0  0  0  0  0
   38.0370   29.7570   44.1590 H   0  0  0  0  0  0  0  0  0  0  0  0
  1  7  1  0  0  0  0
  2  1  1  0  0  0  0
  2 16  1  0  0  0  0
  3  2  2  0  0  0  0
  4  5  2  0  0  0  0
  4  3  1  0  0  0  0
  5  6  1  0  0  0  0
  6  1  2  0  0  0  0
  8  5  1  0  0  0  0
  9 10  1  0  0  0  0
  9  3  1  0  0  0  0
 11 10  1  0  0  0  0
 12 14  1  0  0  0  0
 12 11  1  0  0  0  0
 13 12  1  0  0  0  0
 14 15  1  0  0  0  0
 15  9  1  0  0  0  0
 16 17  1  0  0  0  0
 16 18  1  0  0  0  0
M  END
>  <minimizedAffinity>
-3.94507265

$$$$

 OpenBabel03242522123D

 18 19  0  0  0  0  0  0  0  0999 V2000
   37.5510   27.3260   42.9750 C   0  0  0  0  0  0  0  0  0  0  0  0
   37.0060   28.2690   42.0950 C   0  0  0  0  0  0  0  0  0  0  0  0
   36.6320   27.8740   40.8190 C   0  0  0  0  0  0  0  0  0  0  0  0
   36.8170   26.5720   40.4900 N   0  0  0  0  0  0  0  0  0  0  0  0
   37.3410   25.6770   41.3410 C   0  0  0  0  0  0  0  0  0  0  0  0
   37.7100   26.0490   42.5880 N   0  0  0  0  0  0  0  0  0  0  0  0
   37.8750   27.5270   43.9850 H   0  0  0  0  0  0  0  0  0  0  0  0
   37.4200   24.6720   40.9120 H   0  0  0  0  0  0  0  0  0  0  0  0
   36.0920   28.8680   39.9850 N   0  0  0  0  0  0  0  0  0  0  0  0
   36.8260   29.7750   39.1100 C   0  0  0  0  0  2  0  0  0  0  0  0
   36.5490   29.4100   37.6720 C   0  0  0  0  0  2  0  0  0  0  0  0
   35.0800   29.3050   37.3690 C   0  0  0  0  0  3  0  0  0  0  0  0
   34.9800   28.5940   36.4990 H   0  0  0  0  0  0  0  0  0  0  0  0
   34.2550   28.7700   38.4810 C   0  0  0  0  0  2  0  0  0  0  0  0
   34.6810   29.1570   39.8580 C   0  0  0  0  0  2  0  0  0  0  0  0
   36.8910   29.5980   42.6330 N   0  0  0  0  0  0  0  0  0  0  0  0
   36.0840   29.6150   43.3260 H   0  0  0  0  0  0  0  0  0  0  0  0
   37.4480   30.4640   42.4430 H   0  0  0  0  0  0  0  0  0  0  0  0
  1  7  1  0  0  0  0
  2 16  1  0  0  0  0
  2  1  2  0  0  0  0
  3  2  1  0  0  0  0
  4  3  2  0  0  0  0
  4  5  1  0  0  0  0
  5  6  2  0  0  0  0
  6  1  1  0  0  0  0
  8  5  1  0  0  0  0
  9  3  1  0  0  0  0
 10  9  1  0  0  0  0
 11 10  1  0  0  0  0
 12 11  1  0  0  0  0
 12 14  1  0  0  0  0
 13 12  1  0  0  0  0
 14 15  1  0  0  0  0
 15  9  1  0  0  0  0
 16 17  1  0  0  0  0
 18 16  1  0  0  0  0
M  END
>  <minimizedAffinity>
-3.92286921

$$$$

 OpenBabel03242522123D

 18 19  0  0  0  0  0  0  0  0999 V2000
   35.5610   29.6920   39.3100 C   0  0  0  0  0  0  0  0  0  0  0  0
   36.3280   30.5810   40.0730 C   0  0  0  0  0  0  0  0  0  0  0  0
   37.5430   31.0310   39.5780 C   0  0  0  0  0  0  0  0  0  0  0  0
   37.9270   30.5780   38.3600 N   0  0  0  0  0  0  0  0  0  0  0  0
   37.1840   29.7250   37.6370 C   0  0  0  0  0  0  0  0  0  0  0  0
   35.9970   29.2790   38.1080 N   0  0  0  0  0  0  0  0  0  0  0  0
   34.6060   29.2810   39.6010 H   0  0  0  0  0  0  0  0  0  0  0  0
   37.6430   29.4620   36.6780 H   0  0  0  0  0  0  0  0  0  0  0  0
   38.2640   31.9210   40.3920 N   0  0  0  0  0  0  0  0  0  0  0  0
   39.1790   31.5770   41.4750 C   0  0  0  0  0  2  0  0  0  0  0  0
   40.5890   31.9210   41.0620 C   0  0  0  0  0  2  0  0  0  0  0  0
   40.7230   33.3310   40.5580 C   0  0  0  0  0  3  0  0  0  0  0  0
   41.6050   33.3410   39.8550 H   0  0  0  0  0  0  0  0  0  0  0  0
   39.5470   33.8340   39.8050 C   0  0  0  0  0  2  0  0  0  0  0  0
   38.2130   33.3620   40.2810 C   0  0  0  0  0  2  0  0  0  0  0  0
   35.7490   30.9430   41.3390 N   0  0  0  0  0  0  0  0  0  0  0  0
   34.9430   31.6160   41.1640 H   0  0  0  0  0  0  0  0  0  0  0  0
   35.9990   30.6550   42.3140 H   0  0  0  0  0  0  0  0  0  0  0  0
  1  7  1  0  0  0  0
  1  2  1  0  0  0  0
  2 16  1  0  0  0  0
  3  2  2  0  0  0  0
  3  9  1  0  0  0  0
  4  3  1  0  0  0  0
  5  6  1  0  0  0  0
  5  4  2  0  0  0  0
  6  1  2  0  0  0  0
  8  5  1  0  0  0  0
  9 10  1  0  0  0  0
 11 10  1  0  0  0  0
 12 11  1  0  0  0  0
 13 12  1  0  0  0  0
 14 15  1  0  0  0  0
 14 12  1  0  0  0  0
 15  9  1  0  0  0  0
 16 18  1  0  0  0  0
 17 16  1  0  0  0  0
M  END
>  <minimizedAffinity>
-3.88012886

$$$$

 OpenBabel03242522123D

 18 19  0  0  0  0  0  0  0  0999 V2000
   35.3030   29.2980   38.4420 C   0  0  0  0  0  0  0  0  0  0  0  0
   35.9350   29.0020   39.6560 C   0  0  0  0  0  0  0  0  0  0  0  0
   37.0510   28.1790   39.6610 C   0  0  0  0  0  0  0  0  0  0  0  0
   37.4770   27.6990   38.4670 N   0  0  0  0  0  0  0  0  0  0  0  0
   36.8630   27.9890   37.3090 C   0  0  0  0  0  0  0  0  0  0  0  0
   35.7740   28.7910   37.2910 N   0  0  0  0  0  0  0  0  0  0  0  0
   34.4310   29.9250   38.3270 H   0  0  0  0  0  0  0  0  0  0  0  0
   37.3390   27.5180   36.4420 H   0  0  0  0  0  0  0  0  0  0  0  0
   37.6380   27.9210   40.9120 N   0  0  0  0  0  0  0  0  0  0  0  0
   38.7070   28.6770   41.5540 C   0  0  0  0  0  2  0  0  0  0  0  0
   38.1510   29.4020   42.7540 C   0  0  0  0  0  2  0  0  0  0  0  0
   37.3850   28.4980   43.6800 C   0  0  0  0  0  3  0  0  0  0  0  0
   36.6390   29.1490   44.2220 H   0  0  0  0  0  0  0  0  0  0  0  0
   36.6250   27.4180   43.0020 C   0  0  0  0  0  2  0  0  0  0  0  0
   37.2630   26.8320   41.7870 C   0  0  0  0  0  2  0  0  0  0  0  0
   35.3300   29.6080   40.8130 N   0  0  0  0  0  0  0  0  0  0  0  0
   35.5680   30.6460   40.8160 H   0  0  0  0  0  0  0  0  0  0  0  0
   34.7460   29.1940   41.5760 H   0  0  0  0  0  0  0  0  0  0  0  0
  1  2  1  0  0  0  0
  2  3  2  0  0  0  0
  2 16  1  0  0  0  0
  3  9  1  0  0  0  0
  4  3  1  0  0  0  0
  5  4  2  0  0  0  0
  6  5  1  0  0  0  0
  6  1  2  0  0  0  0
  7  1  1  0  0  0  0
  8  5  1  0  0  0  0
  9 10  1  0  0  0  0
  9 15  1  0  0  0  0
 10 11  1  0  0  0  0
 11 12  1  0  0  0  0
 12 13  1  0  0  0  0
 14 12  1  0  0  0  0
 15 14  1  0  0  0  0
 16 17  1  0  0  0  0
 16 18  1  0  0  0  0
M  END
>  <minimizedAffinity>
-3.82437038

$$$$
