
 OpenBabel03252506543D

 36 40  0  0  0  0  0  0  0  0999 V2000
   46.5710   31.2770   45.0690 C   0  0  0  0  0  0  0  0  0  0  0  0
   46.5640   32.6600   45.2330 C   0  0  0  0  0  0  0  0  0  0  0  0
   46.2570   33.2820   46.4210 C   0  0  0  0  0  0  0  0  0  0  0  0
   45.9320   32.5120   47.5390 C   0  0  0  0  0  0  0  0  0  0  0  0
   45.5860   32.7630   48.8350 N   0  0  0  0  0  0  0  0  0  0  0  0
   45.3830   31.5740   49.4620 C   0  0  0  0  0  0  0  0  0  0  0  0
   45.6060   30.6100   48.5430 N   0  0  0  0  0  0  0  0  0  0  0  0
   45.9410   31.1580   47.3700 C   0  0  0  0  0  0  0  0  0  0  0  0
   46.2410   30.5070   46.2020 C   0  0  0  0  0  0  0  0  0  0  0  0
   46.8150   30.8100   44.1250 H   0  0  0  0  0  0  0  0  0  0  0  0
   46.2560   34.3590   46.5340 H   0  0  0  0  0  0  0  0  0  0  0  0
   45.5120   33.7420   49.2020 H   0  0  0  0  0  0  0  0  0  0  0  0
   45.1020   31.5510   50.4910 H   0  0  0  0  0  0  0  0  0  0  0  0
   46.3460   35.2140   42.6020 C   0  0  0  0  0  0  0  0  0  0  0  0
   47.5400   35.0490   41.9120 C   0  0  0  0  0  0  0  0  0  0  0  0
   48.4180   34.0620   42.3480 C   0  0  0  0  0  0  0  0  0  0  0  0
   48.0770   33.3020   43.4280 N   0  0  0  0  0  0  0  0  0  0  0  0
   46.9020   33.4930   44.0760 C   0  0  0  0  0  0  0  0  0  0  0  0
   46.0330   34.4420   43.6730 N   0  0  0  0  0  0  0  0  0  0  0  0
   45.6610   35.9660   42.2810 H   0  0  0  0  0  0  0  0  0  0  0  0
   47.8030   35.6610   41.0510 H   0  0  0  0  0  0  0  0  0  0  0  0
   49.3730   33.8800   41.8510 H   0  0  0  0  0  0  0  0  0  0  0  0
   46.2250   29.0480   46.1150 C   0  0  0  0  0  0  0  0  0  0  0  0
   47.2490   28.2720   45.6140 C   0  0  0  0  0  0  0  0  0  0  0  0
   46.7960   26.9620   45.7290 C   0  0  0  0  0  0  0  0  0  0  0  0
   45.5360   27.0100   46.2850 C   0  0  0  0  0  0  0  0  0  0  0  0
   45.2450   28.2810   46.4940 O   0  0  0  0  0  0  0  0  0  0  0  0
   48.2110   28.5710   45.2110 H   0  0  0  0  0  0  0  0  0  0  0  0
   47.3680   26.1020   45.4220 H   0  0  0  0  0  0  0  0  0  0  0  0
   44.6910   25.9030   46.5840 N   0  0  0  0  0  0  0  0  0  0  0  0
   43.9000   25.7310   47.7840 C   0  0  0  0  0  0  0  0  0  0  0  0
   42.4260   25.6090   47.4750 C   0  0  0  0  0  0  0  0  0  0  0  0
   42.1940   25.0710   46.0770 C   0  0  0  0  0  0  0  0  0  0  0  0
   42.2650   25.9290   45.3840 H   0  0  0  0  0  0  0  0  0  0  0  0
   43.2820   24.0870   45.7030 C   0  0  0  0  0  0  0  0  0  0  0  0
   44.5800   24.8200   45.6280 C   0  0  0  0  0  0  0  0  0  0  0  0
  1  2  2  0  0  0  0
  1  9  1  0  0  0  0
  2  3  1  0  0  0  0
  3 11  1  0  0  0  0
  3  4  2  0  0  0  0
  4  5  1  0  0  0  0
  5 12  1  0  0  0  0
  5  6  1  0  0  0  0
  6 13  1  0  0  0  0
  7  6  2  0  0  0  0
  8  4  1  0  0  0  0
  8  7  1  0  0  0  0
  9  8  2  0  0  0  0
 10  1  1  0  0  0  0
 14 19  1  0  0  0  0
 15 16  1  0  0  0  0
 15 14  2  0  0  0  0
 16 17  2  0  0  0  0
 17 18  1  0  0  0  0
 18  2  1  0  0  0  0
 19 18  2  0  0  0  0
 20 14  1  0  0  0  0
 21 15  1  0  0  0  0
 22 16  1  0  0  0  0
 23  9  1  0  0  0  0
 23 27  1  0  0  0  0
 24 25  1  0  0  0  0
 24 23  2  0  0  0  0
 25 26  2  0  0  0  0
 26 27  1  0  0  0  0
 26 30  1  0  0  0  0
 28 24  1  0  0  0  0
 29 25  1  0  0  0  0
 30 31  1  0  0  0  0
 32 31  1  0  0  0  0
 33 32  1  0  0  0  0
 34 33  1  0  0  0  0
 35 33  1  0  0  0  0
 36 35  1  0  0  0  0
 36 30  1  0  0  0  0
M  END
>  <minimizedAffinity>
-5.96021414

>  <minimizedRMSD>
1.40150607

$$$$
