
 OpenBabel03252502493D

 32 34  0  0  0  0  0  0  0  0999 V2000
   44.6650   36.3330   44.0130 C   0  0  0  0  0  0  0  0  0  0  0  0
   44.7580   35.5050   45.1320 C   0  0  0  0  0  0  0  0  0  0  0  0
   45.3780   34.2760   44.9690 C   0  0  0  0  0  0  0  0  0  0  0  0
   45.8650   33.9300   43.7490 N   0  0  0  0  0  0  0  0  0  0  0  0
   45.7550   34.7670   42.6770 C   0  0  0  0  0  0  0  0  0  0  0  0
   45.1550   35.9660   42.8160 N   0  0  0  0  0  0  0  0  0  0  0  0
   44.1900   37.3110   44.0750 H   0  0  0  0  0  0  0  0  0  0  0  0
   44.3510   35.8400   46.0710 H   0  0  0  0  0  0  0  0  0  0  0  0
   48.5410   35.6590   42.1230 Cl  0  0  0  0  0  0  0  0  0  0  0  0
   47.5610   34.7040   41.0260 C   0  0  0  0  0  0  0  0  0  0  0  0
   46.2990   34.3500   41.3780 C   0  0  0  0  0  0  0  0  0  0  0  0
   45.4990   33.5940   40.5220 C   0  0  0  0  0  0  0  0  0  0  0  0
   46.0420   33.2260   39.3160 C   0  0  0  0  0  0  0  0  0  0  0  0
   47.3030   33.5820   38.9690 C   0  0  0  0  0  0  0  0  0  0  0  0
   48.0800   34.3210   39.8090 C   0  0  0  0  0  0  0  0  0  0  0  0
   44.5010   33.3450   40.8610 H   0  0  0  0  0  0  0  0  0  0  0  0
   45.3380   32.6380   38.7230 H   0  0  0  0  0  0  0  0  0  0  0  0
   47.6170   33.2320   37.9960 H   0  0  0  0  0  0  0  0  0  0  0  0
   49.0880   34.5770   39.4760 H   0  0  0  0  0  0  0  0  0  0  0  0
   45.4940   33.3750   46.1360 C   0  0  0  0  0  0  0  0  0  0  0  0
   44.6910   32.6390   46.0660 H   0  0  0  0  0  0  0  0  0  0  0  0
   45.3070   33.9820   47.0530 H   0  0  0  0  0  0  0  0  0  0  0  0
   46.8600   32.7500   46.2970 C   0  0  0  0  0  0  0  0  0  0  0  0
   47.6440   33.4820   46.1250 H   0  0  0  0  0  0  0  0  0  0  0  0
   46.9490   31.9130   45.5800 H   0  0  0  0  0  0  0  0  0  0  0  0
   46.9700   32.1930   47.6320 N   0  0  0  0  0  0  0  0  0  0  0  0
   47.2890   30.7860   47.6040 C   0  0  0  0  0  0  0  0  0  0  0  0
   46.1270   29.8600   47.5850 C   0  0  0  0  0  0  0  0  0  0  0  0
   45.1110   30.1310   48.6630 C   0  0  0  0  0  0  0  0  0  0  0  0
   45.0220   29.3170   49.4140 H   0  0  0  0  0  0  0  0  0  0  0  0
   45.4580   31.3940   49.4040 C   0  0  0  0  0  0  0  0  0  0  0  0
   45.7610   32.4660   48.3770 C   0  0  0  0  0  0  0  0  0  0  0  0
  1  7  1  0  0  0  0
  1  2  1  0  0  0  0
  2  8  1  0  0  0  0
  3  2  2  0  0  0  0
  3 20  1  0  0  0  0
  4  3  1  0  0  0  0
  5  6  1  0  0  0  0
  5  4  2  0  0  0  0
  6  1  2  0  0  0  0
 10 11  1  0  0  0  0
 10  9  1  0  0  0  0
 11  5  1  0  0  0  0
 12 16  1  0  0  0  0
 12 11  2  0  0  0  0
 13 12  1  0  0  0  0
 14 13  2  0  0  0  0
 14 15  1  0  0  0  0
 15 10  2  0  0  0  0
 17 13  1  0  0  0  0
 18 14  1  0  0  0  0
 19 15  1  0  0  0  0
 20 23  1  0  0  0  0
 20 22  1  0  0  0  0
 21 20  1  0  0  0  0
 23 26  1  0  0  0  0
 24 23  1  0  0  0  0
 25 23  1  0  0  0  0
 26 32  1  0  0  0  0
 27 26  1  0  0  0  0
 28 27  1  0  0  0  0
 28 29  1  0  0  0  0
 29 31  1  0  0  0  0
 29 30  1  0  0  0  0
 32 31  1  0  0  0  0
M  END
>  <minimizedAffinity>
-6.14801025

>  <minimizedRMSD>
0.536019206

$$$$
