
 OpenBabel03252509283D

 19 20  0  0  0  0  0  0  0  0999 V2000
   46.8430   35.0920   41.9410 C   0  0  0  0  0  0  0  0  0  0  0  0
   47.9560   35.1700   42.1080 H   0  0  0  0  0  0  0  0  0  0  0  0
   46.5650   36.0050   41.4010 H   0  0  0  0  0  0  0  0  0  0  0  0
   44.5320   35.8980   44.7390 C   0  0  0  0  0  0  0  0  0  0  0  0
   45.2170   35.9940   43.5070 C   0  0  0  0  0  0  0  0  0  0  0  0
   46.1380   34.9860   43.2170 C   0  0  0  0  0  0  0  0  0  0  0  0
   46.3270   33.9870   44.1150 N   0  0  0  0  0  0  0  0  0  0  0  0
   45.6460   33.9370   45.2840 C   0  0  0  0  0  0  0  0  0  0  0  0
   44.7590   34.8920   45.5810 N   0  0  0  0  0  0  0  0  0  0  0  0
   43.8110   36.6870   44.9650 H   0  0  0  0  0  0  0  0  0  0  0  0
   45.0470   36.7960   42.8160 H   0  0  0  0  0  0  0  0  0  0  0  0
   45.7630   33.1710   46.0190 H   0  0  0  0  0  0  0  0  0  0  0  0
   46.5450   33.9750   41.0810 N   0  0  0  0  0  0  0  0  0  0  0  0
   47.4590   33.7620   40.0100 C   0  0  0  0  0  2  0  0  0  0  0  0
   47.4240   32.2660   39.7090 C   0  0  0  0  0  2  0  0  0  0  0  0
   46.0060   31.9280   39.3620 C   0  0  0  0  0  3  0  0  0  0  0  0
   45.5560   31.1480   40.0430 H   0  0  0  0  0  0  0  0  0  0  0  0
   45.0690   33.1080   39.3670 C   0  0  0  0  0  2  0  0  0  0  0  0
   45.2060   33.9810   40.5790 C   0  0  0  0  0  2  0  0  0  0  0  0
  1  2  1  0  0  0  0
  1  6  1  0  0  0  0
  3  1  1  0  0  0  0
  4 10  1  0  0  0  0
  4  9  1  0  0  0  0
  5  4  2  0  0  0  0
  6  5  1  0  0  0  0
  6  7  2  0  0  0  0
  7  8  1  0  0  0  0
  8  9  2  0  0  0  0
  8 12  1  0  0  0  0
 11  5  1  0  0  0  0
 13  1  1  0  0  0  0
 14 13  1  0  0  0  0
 15 14  1  0  0  0  0
 16 18  1  0  0  0  0
 16 15  1  0  0  0  0
 16 17  1  0  0  0  0
 18 19  1  0  0  0  0
 19 13  1  0  0  0  0
M  END
>  <minimizedAffinity>
-3.58113742

>  <minimizedRMSD>
0.804963946

$$$$
