
 OpenBabel03252508483D

 43 45  0  0  0  0  0  0  0  0999 V2000
   37.7230   31.2000   38.1230 C   0  0  0  0  0  0  0  0  0  0  0  0
   38.3150   32.0220   38.5480 H   0  0  0  0  0  0  0  0  0  0  0  0
   37.2850   31.6010   37.1660 H   0  0  0  0  0  0  0  0  0  0  0  0
   40.0290   30.2820   37.8080 C   0  0  0  0  0  0  0  0  0  0  0  0
   38.6590   30.1270   37.6920 C   0  0  0  0  0  0  0  0  0  0  0  0
   38.1780   28.9480   37.1630 C   0  0  0  0  0  0  0  0  0  0  0  0
   39.0450   27.9580   36.7660 C   0  0  0  0  0  0  0  0  0  0  0  0
   40.4090   28.0950   36.8750 C   0  0  0  0  0  0  0  0  0  0  0  0
   40.8550   29.2910   37.4090 C   0  0  0  0  0  0  0  0  0  0  0  0
   37.1220   28.7580   37.0440 H   0  0  0  0  0  0  0  0  0  0  0  0
   38.6970   27.0180   36.3460 H   0  0  0  0  0  0  0  0  0  0  0  0
   41.1380   27.3650   36.5840 H   0  0  0  0  0  0  0  0  0  0  0  0
   41.9070   29.5180   37.5450 H   0  0  0  0  0  0  0  0  0  0  0  0
   41.4280   33.7570   38.2860 C   0  0  0  0  0  0  0  0  0  0  0  0
   41.0240   32.5830   37.6250 C   0  0  0  0  0  0  0  0  0  0  0  0
   40.4840   31.5480   38.3730 C   0  0  0  0  0  0  0  0  0  0  0  0
   40.3750   31.7300   39.7270 N   0  0  0  0  0  0  0  0  0  0  0  0
   40.7750   32.8790   40.3370 C   0  0  0  0  0  0  0  0  0  0  0  0
   41.2970   33.8760   39.6020 N   0  0  0  0  0  0  0  0  0  0  0  0
   41.8520   34.5690   37.6930 H   0  0  0  0  0  0  0  0  0  0  0  0
   41.1080   32.4430   36.5770 H   0  0  0  0  0  0  0  0  0  0  0  0
   40.6270   32.8760   41.4080 H   0  0  0  0  0  0  0  0  0  0  0  0
   36.6480   30.7590   38.9480 N   0  0  0  0  0  0  0  0  0  0  0  0
   35.7010   30.9790   38.5790 H   0  0  0  0  0  0  0  0  0  0  0  0
   36.8250   31.2350   40.5860 S   0  0  0  0  0  0  0  0  0  0  0  0
   35.5420   31.0450   41.3400 O   0  0  0  0  0  0  0  0  0  0  0  0
   35.2940   30.1720   41.7510 H   0  0  0  0  0  0  0  0  0  0  0  0
   37.2690   32.6620   40.6810 O   0  0  0  0  0  0  0  0  0  0  0  0
   37.3400   33.2350   39.8790 H   0  0  0  0  0  0  0  0  0  0  0  0
   38.0070   30.2650   41.2680 O   0  0  0  0  0  0  0  0  0  0  0  0
   37.3890   29.3430   42.1040 C   0  0  0  0  0  0  0  0  0  0  0  0
   37.8500   29.2220   43.0800 H   0  0  0  0  0  0  0  0  0  0  0  0
   36.3410   29.6880   42.2510 H   0  0  0  0  0  0  0  0  0  0  0  0
   37.3770   27.9770   41.4030 C   0  0  0  0  0  0  0  0  0  0  0  0
   37.8550   28.0560   40.4070 H   0  0  0  0  0  0  0  0  0  0  0  0
   36.3230   27.6570   41.2830 H   0  0  0  0  0  0  0  0  0  0  0  0
   38.0970   27.0690   42.2080 N   0  0  0  0  0  0  0  0  0  0  0  0
   38.5860   27.5310   43.4460 C   0  0  0  0  0  2  0  0  0  0  0  0
   39.9480   26.8650   43.6790 C   0  0  0  0  0  2  0  0  0  0  0  0
   39.8790   25.3770   43.5260 C   0  0  0  0  0  3  0  0  0  0  0  0
   39.4920   24.9350   44.4740 H   0  0  0  0  0  0  0  0  0  0  0  0
   39.1040   24.9030   42.3350 C   0  0  0  0  0  2  0  0  0  0  0  0
   37.8440   25.6950   42.0650 C   0  0  0  0  0  2  0  0  0  0  0  0
  1  2  1  0  0  0  0
  1 23  1  0  0  0  0
  3  1  1  0  0  0  0
  4 16  1  0  0  0  0
  5  4  1  0  0  0  0
  5  1  1  0  0  0  0
  6  5  2  0  0  0  0
  7  8  2  0  0  0  0
  7  6  1  0  0  0  0
  8  9  1  0  0  0  0
  9 13  1  0  0  0  0
  9  4  2  0  0  0  0
 10  6  1  0  0  0  0
 11  7  1  0  0  0  0
 12  8  1  0  0  0  0
 14 19  1  0  0  0  0
 15 14  2  0  0  0  0
 15 16  1  0  0  0  0
 16 17  2  0  0  0  0
 17 18  1  0  0  0  0
 18 22  1  0  0  0  0
 19 18  2  0  0  0  0
 20 14  1  0  0  0  0
 21 15  1  0  0  0  0
 23 25  1  0  0  0  0
 24 23  1  0  0  0  0
 25 28  1  0  0  0  0
 25 30  1  0  0  0  0
 25 26  1  0  0  0  0
 26 27  1  0  0  0  0
 29 28  1  0  0  0  0
 30 31  1  0  0  0  0
 31 33  1  0  0  0  0
 31 32  1  0  0  0  0
 34 31  1  0  0  0  0
 34 37  1  0  0  0  0
 35 34  1  0  0  0  0
 36 34  1  0  0  0  0
 37 38  1  0  0  0  0
 38 39  1  0  0  0  0
 40 39  1  0  0  0  0
 40 41  1  0  0  0  0
 42 40  1  0  0  0  0
 43 37  1  0  0  0  0
 43 42  1  0  0  0  0
M  END
>  <minimizedAffinity>
-5.71397448

$$$$

 OpenBabel03252508483D

 43 45  0  0  0  0  0  0  0  0999 V2000
   36.4180   30.6690   41.4530 C   0  0  0  0  0  0  0  0  0  0  0  0
   37.0050   31.5970   41.4030 H   0  0  0  0  0  0  0  0  0  0  0  0
   35.4060   30.9670   41.8480 H   0  0  0  0  0  0  0  0  0  0  0  0
   36.7860   30.8030   38.9820 C   0  0  0  0  0  0  0  0  0  0  0  0
   36.1630   30.2050   40.0640 C   0  0  0  0  0  0  0  0  0  0  0  0
   35.2930   29.1620   39.8210 C   0  0  0  0  0  0  0  0  0  0  0  0
   35.0580   28.7350   38.5360 C   0  0  0  0  0  0  0  0  0  0  0  0
   35.6680   29.3170   37.4500 C   0  0  0  0  0  0  0  0  0  0  0  0
   36.5340   30.3600   37.7310 C   0  0  0  0  0  0  0  0  0  0  0  0
   34.7730   28.6490   40.6160 H   0  0  0  0  0  0  0  0  0  0  0  0
   34.3790   27.9170   38.3140 H   0  0  0  0  0  0  0  0  0  0  0  0
   35.5300   29.0350   36.4260 H   0  0  0  0  0  0  0  0  0  0  0  0
   37.0750   30.8990   36.9610 H   0  0  0  0  0  0  0  0  0  0  0  0
   38.2570   34.1610   39.8840 C   0  0  0  0  0  0  0  0  0  0  0  0
   37.2830   33.1870   39.6030 C   0  0  0  0  0  0  0  0  0  0  0  0
   37.6950   31.9000   39.2940 C   0  0  0  0  0  0  0  0  0  0  0  0
   39.0420   31.6480   39.2820 N   0  0  0  0  0  0  0  0  0  0  0  0
   39.9600   32.6130   39.5590 C   0  0  0  0  0  0  0  0  0  0  0  0
   39.5500   33.8580   39.8570 N   0  0  0  0  0  0  0  0  0  0  0  0
   37.9270   35.1730   40.1270 H   0  0  0  0  0  0  0  0  0  0  0  0
   36.2400   33.3820   39.6130 H   0  0  0  0  0  0  0  0  0  0  0  0
   40.9840   32.2660   39.5110 H   0  0  0  0  0  0  0  0  0  0  0  0
   36.9560   29.6770   42.3250 N   0  0  0  0  0  0  0  0  0  0  0  0
   36.6260   29.7410   43.3080 H   0  0  0  0  0  0  0  0  0  0  0  0
   38.6650   29.5600   42.2280 S   0  0  0  0  0  0  0  0  0  0  0  0
   39.3080   30.8870   42.4990 O   0  0  0  0  0  0  0  0  0  0  0  0
   39.5070   31.2000   43.4240 H   0  0  0  0  0  0  0  0  0  0  0  0
   39.0890   29.0490   40.8850 O   0  0  0  0  0  0  0  0  0  0  0  0
   38.4360   28.9080   40.1570 H   0  0  0  0  0  0  0  0  0  0  0  0
   39.1610   28.4640   43.3940 O   0  0  0  0  0  0  0  0  0  0  0  0
   38.2250   27.4400   43.4570 C   0  0  0  0  0  0  0  0  0  0  0  0
   37.7780   27.2830   44.4360 H   0  0  0  0  0  0  0  0  0  0  0  0
   37.4150   27.6920   42.7370 H   0  0  0  0  0  0  0  0  0  0  0  0
   38.9000   26.1310   43.0210 C   0  0  0  0  0  0  0  0  0  0  0  0
   39.0450   25.4680   43.8960 H   0  0  0  0  0  0  0  0  0  0  0  0
   39.8840   26.3790   42.5770 H   0  0  0  0  0  0  0  0  0  0  0  0
   38.0610   25.5020   42.0770 N   0  0  0  0  0  0  0  0  0  0  0  0
   37.9050   24.1040   42.1630 C   0  0  0  0  0  2  0  0  0  0  0  0
   37.8090   23.5640   40.7300 C   0  0  0  0  0  2  0  0  0  0  0  0
   36.7670   24.2820   39.9290 C   0  0  0  0  0  3  0  0  0  0  0  0
   35.7670   23.8500   40.1690 H   0  0  0  0  0  0  0  0  0  0  0  0
   36.7770   25.7730   40.0770 C   0  0  0  0  0  2  0  0  0  0  0  0
   37.0270   26.2500   41.4910 C   0  0  0  0  0  2  0  0  0  0  0  0
  1  3  1  0  0  0  0
  1 23  1  0  0  0  0
  2  1  1  0  0  0  0
  4 16  1  0  0  0  0
  4  5  1  0  0  0  0
  5  1  1  0  0  0  0
  6  5  2  0  0  0  0
  6 10  1  0  0  0  0
  7  6  1  0  0  0  0
  8  9  1  0  0  0  0
  8  7  2  0  0  0  0
  9  4  2  0  0  0  0
 11  7  1  0  0  0  0
 12  8  1  0  0  0  0
 13  9  1  0  0  0  0
 14 20  1  0  0  0  0
 15 21  1  0  0  0  0
 15 14  2  0  0  0  0
 16 15  1  0  0  0  0
 17 16  2  0  0  0  0
 17 18  1  0  0  0  0
 18 19  2  0  0  0  0
 19 14  1  0  0  0  0
 22 18  1  0  0  0  0
 23 24  1  0  0  0  0
 25 23  1  0  0  0  0
 25 26  1  0  0  0  0
 25 30  1  0  0  0  0
 26 27  1  0  0  0  0
 28 25  1  0  0  0  0
 29 28  1  0  0  0  0
 30 31  1  0  0  0  0
 31 32  1  0  0  0  0
 33 31  1  0  0  0  0
 34 31  1  0  0  0  0
 34 35  1  0  0  0  0
 36 34  1  0  0  0  0
 37 38  1  0  0  0  0
 37 34  1  0  0  0  0
 39 38  1  0  0  0  0
 40 42  1  0  0  0  0
 40 41  1  0  0  0  0
 40 39  1  0  0  0  0
 42 43  1  0  0  0  0
 43 37  1  0  0  0  0
M  END
>  <minimizedAffinity>
-5.64659262

$$$$

 OpenBabel03252508483D

 43 45  0  0  0  0  0  0  0  0999 V2000
   37.8210   30.8500   37.4200 C   0  0  0  0  0  0  0  0  0  0  0  0
   37.3520   31.1270   36.4650 H   0  0  0  0  0  0  0  0  0  0  0  0
   38.1030   31.8210   37.9160 H   0  0  0  0  0  0  0  0  0  0  0  0
   36.5530   30.7540   39.5740 C   0  0  0  0  0  0  0  0  0  0  0  0
   36.7750   30.2630   38.2990 C   0  0  0  0  0  0  0  0  0  0  0  0
   35.9990   29.2110   37.8600 C   0  0  0  0  0  0  0  0  0  0  0  0
   35.0320   28.6710   38.6750 C   0  0  0  0  0  0  0  0  0  0  0  0
   34.7990   29.1450   39.9440 C   0  0  0  0  0  0  0  0  0  0  0  0
   35.5960   30.2010   40.3500 C   0  0  0  0  0  0  0  0  0  0  0  0
   36.1160   28.7790   36.8780 H   0  0  0  0  0  0  0  0  0  0  0  0
   34.4060   27.8420   38.3580 H   0  0  0  0  0  0  0  0  0  0  0  0
   34.0650   28.7710   40.6280 H   0  0  0  0  0  0  0  0  0  0  0  0
   35.5070   30.6620   41.3280 H   0  0  0  0  0  0  0  0  0  0  0  0
   38.1140   34.1610   40.0330 C   0  0  0  0  0  0  0  0  0  0  0  0
   37.2280   33.1740   39.5640 C   0  0  0  0  0  0  0  0  0  0  0  0
   37.4000   31.8660   39.9880 C   0  0  0  0  0  0  0  0  0  0  0  0
   38.4340   31.6070   40.8500 N   0  0  0  0  0  0  0  0  0  0  0  0
   39.2740   32.5850   41.2860 C   0  0  0  0  0  0  0  0  0  0  0  0
   39.0980   33.8500   40.8680 N   0  0  0  0  0  0  0  0  0  0  0  0
   37.9730   35.1900   39.6960 H   0  0  0  0  0  0  0  0  0  0  0  0
   36.4280   33.3750   38.8970 H   0  0  0  0  0  0  0  0  0  0  0  0
   40.0410   32.2300   41.9620 H   0  0  0  0  0  0  0  0  0  0  0  0
   39.0020   30.0630   37.2890 N   0  0  0  0  0  0  0  0  0  0  0  0
   38.9720   29.1510   37.7880 H   0  0  0  0  0  0  0  0  0  0  0  0
   40.4320   30.9410   37.6460 S   0  0  0  0  0  0  0  0  0  0  0  0
   40.1450   32.4100   37.7490 O   0  0  0  0  0  0  0  0  0  0  0  0
   39.8270   32.8290   38.5960 H   0  0  0  0  0  0  0  0  0  0  0  0
   41.4820   30.6960   36.6050 O   0  0  0  0  0  0  0  0  0  0  0  0
   41.2890   30.1680   35.7930 H   0  0  0  0  0  0  0  0  0  0  0  0
   41.0070   30.3920   39.1200 O   0  0  0  0  0  0  0  0  0  0  0  0
   40.4010   29.1730   39.3980 C   0  0  0  0  0  0  0  0  0  0  0  0
   39.3160   29.1680   39.3210 H   0  0  0  0  0  0  0  0  0  0  0  0
   40.8070   28.4330   38.6740 H   0  0  0  0  0  0  0  0  0  0  0  0
   40.7840   28.7490   40.8230 C   0  0  0  0  0  0  0  0  0  0  0  0
   41.1710   29.6210   41.3880 H   0  0  0  0  0  0  0  0  0  0  0  0
   41.5730   27.9740   40.7550 H   0  0  0  0  0  0  0  0  0  0  0  0
   39.6280   28.2450   41.4540 N   0  0  0  0  0  0  0  0  0  0  0  0
   39.1430   26.9900   41.0340 C   0  0  0  0  0  2  0  0  0  0  0  0
   37.6110   27.0500   41.0830 C   0  0  0  0  0  2  0  0  0  0  0  0
   37.1100   27.5250   42.4120 C   0  0  0  0  0  3  0  0  0  0  0  0
   37.1070   26.6660   43.1230 H   0  0  0  0  0  0  0  0  0  0  0  0
   37.8390   28.7080   42.9720 C   0  0  0  0  0  2  0  0  0  0  0  0
   39.3360   28.6650   42.7610 C   0  0  0  0  0  2  0  0  0  0  0  0
  1  3  1  0  0  0  0
  1  5  1  0  0  0  0
  2  1  1  0  0  0  0
  4 16  1  0  0  0  0
  4  9  1  0  0  0  0
  5  4  2  0  0  0  0
  6  5  1  0  0  0  0
  6  7  2  0  0  0  0
  7  8  1  0  0  0  0
  8  9  2  0  0  0  0
  8 12  1  0  0  0  0
  9 13  1  0  0  0  0
 10  6  1  0  0  0  0
 11  7  1  0  0  0  0
 14 19  1  0  0  0  0
 15 16  1  0  0  0  0
 15 14  2  0  0  0  0
 16 17  2  0  0  0  0
 17 18  1  0  0  0  0
 18 22  1  0  0  0  0
 19 18  2  0  0  0  0
 20 14  1  0  0  0  0
 21 15  1  0  0  0  0
 23  1  1  0  0  0  0
 23 25  1  0  0  0  0
 23 24  1  0  0  0  0
 25 26  1  0  0  0  0
 25 30  1  0  0  0  0
 26 27  1  0  0  0  0
 28 25  1  0  0  0  0
 29 28  1  0  0  0  0
 30 31  1  0  0  0  0
 31 34  1  0  0  0  0
 32 31  1  0  0  0  0
 33 31  1  0  0  0  0
 34 35  1  0  0  0  0
 34 37  1  0  0  0  0
 36 34  1  0  0  0  0
 37 43  1  0  0  0  0
 38 39  1  0  0  0  0
 38 37  1  0  0  0  0
 39 40  1  0  0  0  0
 40 42  1  0  0  0  0
 40 41  1  0  0  0  0
 43 42  1  0  0  0  0
M  END
>  <minimizedAffinity>
-5.52232409

$$$$

 OpenBabel03252508483D

 43 45  0  0  0  0  0  0  0  0999 V2000
   37.5690   28.0270   41.0790 C   0  0  0  0  0  0  0  0  0  0  0  0
   38.5990   28.0990   41.4560 H   0  0  0  0  0  0  0  0  0  0  0  0
   37.6110   28.3640   40.0050 H   0  0  0  0  0  0  0  0  0  0  0  0
   36.8490   25.9930   39.8130 C   0  0  0  0  0  0  0  0  0  0  0  0
   37.1970   26.5890   41.0130 C   0  0  0  0  0  0  0  0  0  0  0  0
   37.1920   25.8130   42.1530 C   0  0  0  0  0  0  0  0  0  0  0  0
   36.8480   24.4830   42.0890 C   0  0  0  0  0  0  0  0  0  0  0  0
   36.4990   23.8750   40.9060 C   0  0  0  0  0  0  0  0  0  0  0  0
   36.5160   24.6850   39.7830 C   0  0  0  0  0  0  0  0  0  0  0  0
   37.4530   26.2100   43.1210 H   0  0  0  0  0  0  0  0  0  0  0  0
   36.8340   23.8460   42.9690 H   0  0  0  0  0  0  0  0  0  0  0  0
   36.2220   22.8470   40.7860 H   0  0  0  0  0  0  0  0  0  0  0  0
   36.2610   24.3220   38.7930 H   0  0  0  0  0  0  0  0  0  0  0  0
   37.9190   28.0800   36.8540 C   0  0  0  0  0  0  0  0  0  0  0  0
   38.0270   27.2390   37.9760 C   0  0  0  0  0  0  0  0  0  0  0  0
   36.8710   26.8580   38.6390 C   0  0  0  0  0  0  0  0  0  0  0  0
   35.6770   27.3280   38.1580 N   0  0  0  0  0  0  0  0  0  0  0  0
   35.6060   28.1410   37.0690 C   0  0  0  0  0  0  0  0  0  0  0  0
   36.7330   28.5040   36.4330 N   0  0  0  0  0  0  0  0  0  0  0  0
   38.8330   28.3760   36.3350 H   0  0  0  0  0  0  0  0  0  0  0  0
   38.9520   26.8750   38.3470 H   0  0  0  0  0  0  0  0  0  0  0  0
   34.5960   28.4310   36.8080 H   0  0  0  0  0  0  0  0  0  0  0  0
   36.6310   28.8550   41.7630 N   0  0  0  0  0  0  0  0  0  0  0  0
   35.9470   28.3390   42.3510 H   0  0  0  0  0  0  0  0  0  0  0  0
   35.8640   29.9880   40.7300 S   0  0  0  0  0  0  0  0  0  0  0  0
   35.5880   31.2720   41.4550 O   0  0  0  0  0  0  0  0  0  0  0  0
   36.2700   31.9940   41.5310 H   0  0  0  0  0  0  0  0  0  0  0  0
   34.5890   29.4270   40.1770 O   0  0  0  0  0  0  0  0  0  0  0  0
   34.2360   28.5550   40.4780 H   0  0  0  0  0  0  0  0  0  0  0  0
   36.9050   30.2940   39.4550 O   0  0  0  0  0  0  0  0  0  0  0  0
   37.4100   31.5800   39.6020 C   0  0  0  0  0  0  0  0  0  0  0  0
   37.4070   32.1840   38.6980 H   0  0  0  0  0  0  0  0  0  0  0  0
   36.7850   32.0910   40.3670 H   0  0  0  0  0  0  0  0  0  0  0  0
   38.8550   31.4840   40.1120 C   0  0  0  0  0  0  0  0  0  0  0  0
   39.1830   30.4260   40.1290 H   0  0  0  0  0  0  0  0  0  0  0  0
   38.8890   31.8970   41.1400 H   0  0  0  0  0  0  0  0  0  0  0  0
   39.6760   32.2260   39.2380 N   0  0  0  0  0  0  0  0  0  0  0  0
   39.6370   31.9060   37.8660 C   0  0  0  0  0  2  0  0  0  0  0  0
   41.0590   32.0710   37.3150 C   0  0  0  0  0  2  0  0  0  0  0  0
   41.6380   33.4110   37.6500 C   0  0  0  0  0  3  0  0  0  0  0  0
   41.2590   34.1610   36.9170 H   0  0  0  0  0  0  0  0  0  0  0  0
   41.4190   33.8550   39.0640 C   0  0  0  0  0  2  0  0  0  0  0  0
   40.0450   33.5310   39.6050 C   0  0  0  0  0  2  0  0  0  0  0  0
  1  2  1  0  0  0  0
  1 23  1  0  0  0  0
  3  1  1  0  0  0  0
  4  5  1  0  0  0  0
  5  1  1  0  0  0  0
  5  6  2  0  0  0  0
  6 10  1  0  0  0  0
  7  6  1  0  0  0  0
  7 11  1  0  0  0  0
  8  7  2  0  0  0  0
  9  4  2  0  0  0  0
  9  8  1  0  0  0  0
 12  8  1  0  0  0  0
 13  9  1  0  0  0  0
 14 15  1  0  0  0  0
 15 21  1  0  0  0  0
 15 16  2  0  0  0  0
 16  4  1  0  0  0  0
 17 16  1  0  0  0  0
 18 17  2  0  0  0  0
 19 14  2  0  0  0  0
 19 18  1  0  0  0  0
 20 14  1  0  0  0  0
 22 18  1  0  0  0  0
 23 24  1  0  0  0  0
 25 26  1  0  0  0  0
 25 23  1  0  0  0  0
 26 27  1  0  0  0  0
 28 29  1  0  0  0  0
 28 25  1  0  0  0  0
 30 31  1  0  0  0  0
 30 25  1  0  0  0  0
 31 34  1  0  0  0  0
 31 33  1  0  0  0  0
 32 31  1  0  0  0  0
 34 35  1  0  0  0  0
 34 36  1  0  0  0  0
 37 43  1  0  0  0  0
 37 34  1  0  0  0  0
 38 37  1  0  0  0  0
 39 40  1  0  0  0  0
 39 38  1  0  0  0  0
 40 42  1  0  0  0  0
 41 40  1  0  0  0  0
 42 43  1  0  0  0  0
M  END
>  <minimizedAffinity>
-5.47411156

$$$$

 OpenBabel03252508483D

 43 45  0  0  0  0  0  0  0  0999 V2000
   36.7560   27.4570   41.6640 C   0  0  0  0  0  0  0  0  0  0  0  0
   36.8260   27.4570   40.5670 H   0  0  0  0  0  0  0  0  0  0  0  0
   35.9230   26.7430   41.9180 H   0  0  0  0  0  0  0  0  0  0  0  0
   38.4050   25.5780   41.7630 C   0  0  0  0  0  0  0  0  0  0  0  0
   37.9830   26.8180   42.2090 C   0  0  0  0  0  0  0  0  0  0  0  0
   38.7330   27.4530   43.1780 C   0  0  0  0  0  0  0  0  0  0  0  0
   39.8680   26.8600   43.6800 C   0  0  0  0  0  0  0  0  0  0  0  0
   40.3000   25.6290   43.2480 C   0  0  0  0  0  0  0  0  0  0  0  0
   39.5230   25.0220   42.2770 C   0  0  0  0  0  0  0  0  0  0  0  0
   38.4650   28.4210   43.5710 H   0  0  0  0  0  0  0  0  0  0  0  0
   40.4780   27.3350   44.4430 H   0  0  0  0  0  0  0  0  0  0  0  0
   41.1720   25.1120   43.5970 H   0  0  0  0  0  0  0  0  0  0  0  0
   39.7610   24.0510   41.8560 H   0  0  0  0  0  0  0  0  0  0  0  0
   35.8370   23.5020   39.9310 C   0  0  0  0  0  0  0  0  0  0  0  0
   36.5660   24.0400   41.0070 C   0  0  0  0  0  0  0  0  0  0  0  0
   37.5760   24.9510   40.7390 C   0  0  0  0  0  0  0  0  0  0  0  0
   37.8070   25.2800   39.4290 N   0  0  0  0  0  0  0  0  0  0  0  0
   37.0820   24.7420   38.4100 C   0  0  0  0  0  0  0  0  0  0  0  0
   36.1050   23.8590   38.6810 N   0  0  0  0  0  0  0  0  0  0  0  0
   35.0420   22.7850   40.1480 H   0  0  0  0  0  0  0  0  0  0  0  0
   36.3870   23.7860   42.0210 H   0  0  0  0  0  0  0  0  0  0  0  0
   37.3780   25.0960   37.4320 H   0  0  0  0  0  0  0  0  0  0  0  0
   36.4380   28.7240   42.2340 N   0  0  0  0  0  0  0  0  0  0  0  0
   35.5370   28.7510   42.7520 H   0  0  0  0  0  0  0  0  0  0  0  0
   36.5730   30.0140   41.1120 S   0  0  0  0  0  0  0  0  0  0  0  0
   35.5940   31.1050   41.4300 O   0  0  0  0  0  0  0  0  0  0  0  0
   35.7980   31.8240   42.0890 H   0  0  0  0  0  0  0  0  0  0  0  0
   36.3600   29.5260   39.7110 O   0  0  0  0  0  0  0  0  0  0  0  0
   36.0840   28.5960   39.5250 H   0  0  0  0  0  0  0  0  0  0  0  0
   38.1280   30.6240   41.2290 O   0  0  0  0  0  0  0  0  0  0  0  0
   38.4130   31.3220   40.0620 C   0  0  0  0  0  0  0  0  0  0  0  0
   37.7640   31.0970   39.2190 H   0  0  0  0  0  0  0  0  0  0  0  0
   38.3200   32.4060   40.2970 H   0  0  0  0  0  0  0  0  0  0  0  0
   39.8600   31.0170   39.6490 C   0  0  0  0  0  0  0  0  0  0  0  0
   39.9300   30.9230   38.5480 H   0  0  0  0  0  0  0  0  0  0  0  0
   40.1620   30.0610   40.1210 H   0  0  0  0  0  0  0  0  0  0  0  0
   40.6730   32.0820   40.0910 N   0  0  0  0  0  0  0  0  0  0  0  0
   40.3190   33.3880   39.6970 C   0  0  0  0  0  2  0  0  0  0  0  0
   41.6210   34.1610   39.4500 C   0  0  0  0  0  2  0  0  0  0  0  0
   42.5580   34.0690   40.6140 C   0  0  0  0  0  3  0  0  0  0  0  0
   42.2500   34.8160   41.3840 H   0  0  0  0  0  0  0  0  0  0  0  0
   42.7010   32.6970   41.1990 C   0  0  0  0  0  2  0  0  0  0  0  0
   41.4040   31.9230   41.2790 C   0  0  0  0  0  2  0  0  0  0  0  0
  1  3  1  0  0  0  0
  1  5  1  0  0  0  0
  1 23  1  0  0  0  0
  2  1  1  0  0  0  0
  4  5  2  0  0  0  0
  4  9  1  0  0  0  0
  5  6  1  0  0  0  0
  6 10  1  0  0  0  0
  6  7  2  0  0  0  0
  7 11  1  0  0  0  0
  8 12  1  0  0  0  0
  8  7  1  0  0  0  0
  9  8  2  0  0  0  0
 13  9  1  0  0  0  0
 14 20  1  0  0  0  0
 14 15  1  0  0  0  0
 15 21  1  0  0  0  0
 16 15  2  0  0  0  0
 16  4  1  0  0  0  0
 17 16  1  0  0  0  0
 18 19  1  0  0  0  0
 18 17  2  0  0  0  0
 19 14  2  0  0  0  0
 22 18  1  0  0  0  0
 23 24  1  0  0  0  0
 25 30  1  0  0  0  0
 25 26  1  0  0  0  0
 25 23  1  0  0  0  0
 26 27  1  0  0  0  0
 28 25  1  0  0  0  0
 29 28  1  0  0  0  0
 31 33  1  0  0  0  0
 31 30  1  0  0  0  0
 32 31  1  0  0  0  0
 34 31  1  0  0  0  0
 34 37  1  0  0  0  0
 34 36  1  0  0  0  0
 35 34  1  0  0  0  0
 37 43  1  0  0  0  0
 38 37  1  0  0  0  0
 39 38  1  0  0  0  0
 39 40  1  0  0  0  0
 40 42  1  0  0  0  0
 40 41  1  0  0  0  0
 42 43  1  0  0  0  0
M  END
>  <minimizedAffinity>
-5.43380213

$$$$

 OpenBabel03252508483D

 43 45  0  0  0  0  0  0  0  0999 V2000
   36.1410   30.0250   41.2620 C   0  0  0  0  0  0  0  0  0  0  0  0
   35.4990   29.7530   42.1110 H   0  0  0  0  0  0  0  0  0  0  0  0
   37.2000   29.9080   41.6280 H   0  0  0  0  0  0  0  0  0  0  0  0
   36.7750   27.8500   40.2010 C   0  0  0  0  0  0  0  0  0  0  0  0
   35.9860   28.9870   40.2090 C   0  0  0  0  0  0  0  0  0  0  0  0
   35.0460   29.1370   39.2100 C   0  0  0  0  0  0  0  0  0  0  0  0
   34.9040   28.1750   38.2380 C   0  0  0  0  0  0  0  0  0  0  0  0
   35.6800   27.0400   38.2150 C   0  0  0  0  0  0  0  0  0  0  0  0
   36.6120   26.9250   39.2310 C   0  0  0  0  0  0  0  0  0  0  0  0
   34.3960   29.9960   39.1540 H   0  0  0  0  0  0  0  0  0  0  0  0
   34.1740   28.2650   37.4390 H   0  0  0  0  0  0  0  0  0  0  0  0
   35.6210   26.2550   37.4880 H   0  0  0  0  0  0  0  0  0  0  0  0
   37.2800   26.0760   39.3220 H   0  0  0  0  0  0  0  0  0  0  0  0
   38.5730   26.9800   43.4050 C   0  0  0  0  0  0  0  0  0  0  0  0
   37.5540   27.0050   42.4360 C   0  0  0  0  0  0  0  0  0  0  0  0
   37.7520   27.7430   41.2780 C   0  0  0  0  0  0  0  0  0  0  0  0
   38.9410   28.4110   41.1440 N   0  0  0  0  0  0  0  0  0  0  0  0
   39.9070   28.3660   42.1010 C   0  0  0  0  0  0  0  0  0  0  0  0
   39.7060   27.6480   43.2200 N   0  0  0  0  0  0  0  0  0  0  0  0
   38.4120   26.3980   44.3140 H   0  0  0  0  0  0  0  0  0  0  0  0
   36.6340   26.4880   42.5400 H   0  0  0  0  0  0  0  0  0  0  0  0
   40.7900   28.9420   41.8550 H   0  0  0  0  0  0  0  0  0  0  0  0
   35.9790   31.3670   40.8070 N   0  0  0  0  0  0  0  0  0  0  0  0
   35.2360   31.4940   40.0920 H   0  0  0  0  0  0  0  0  0  0  0  0
   37.4580   32.0940   40.3330 S   0  0  0  0  0  0  0  0  0  0  0  0
   38.6000   31.5660   41.1510 O   0  0  0  0  0  0  0  0  0  0  0  0
   39.0800   30.7270   40.9090 H   0  0  0  0  0  0  0  0  0  0  0  0
   37.3840   33.5850   40.4600 O   0  0  0  0  0  0  0  0  0  0  0  0
   36.5990   34.0300   40.8610 H   0  0  0  0  0  0  0  0  0  0  0  0
   37.7150   31.7100   38.7230 O   0  0  0  0  0  0  0  0  0  0  0  0
   38.8620   30.9300   38.6380 C   0  0  0  0  0  0  0  0  0  0  0  0
   39.3620   30.7390   39.5840 H   0  0  0  0  0  0  0  0  0  0  0  0
   38.5610   29.9540   38.1960 H   0  0  0  0  0  0  0  0  0  0  0  0
   39.8580   31.6250   37.6990 C   0  0  0  0  0  0  0  0  0  0  0  0
   40.3050   32.5050   38.2020 H   0  0  0  0  0  0  0  0  0  0  0  0
   39.3110   31.9560   36.7940 H   0  0  0  0  0  0  0  0  0  0  0  0
   40.8680   30.6960   37.3710 N   0  0  0  0  0  0  0  0  0  0  0  0
   42.1890   31.1730   37.2540 C   0  0  0  0  0  2  0  0  0  0  0  0
   42.8580   30.3950   36.1140 C   0  0  0  0  0  2  0  0  0  0  0  0
   42.7190   28.9150   36.2870 C   0  0  0  0  0  3  0  0  0  0  0  0
   43.5010   28.5600   36.9990 H   0  0  0  0  0  0  0  0  0  0  0  0
   41.3520   28.4550   36.6900 C   0  0  0  0  0  2  0  0  0  0  0  0
   40.6780   29.3470   37.7090 C   0  0  0  0  0  2  0  0  0  0  0  0
  1  3  1  0  0  0  0
  1  2  1  0  0  0  0
  4  5  1  0  0  0  0
  4 16  1  0  0  0  0
  5  1  1  0  0  0  0
  6  5  2  0  0  0  0
  7  6  1  0  0  0  0
  8  7  2  0  0  0  0
  8  9  1  0  0  0  0
  9 13  1  0  0  0  0
  9  4  2  0  0  0  0
 10  6  1  0  0  0  0
 11  7  1  0  0  0  0
 12  8  1  0  0  0  0
 14 20  1  0  0  0  0
 15 21  1  0  0  0  0
 15 14  2  0  0  0  0
 16 15  1  0  0  0  0
 17 16  2  0  0  0  0
 17 18  1  0  0  0  0
 18 19  2  0  0  0  0
 19 14  1  0  0  0  0
 22 18  1  0  0  0  0
 23  1  1  0  0  0  0
 24 23  1  0  0  0  0
 25 28  1  0  0  0  0
 25 23  1  0  0  0  0
 25 26  1  0  0  0  0
 27 26  1  0  0  0  0
 28 29  1  0  0  0  0
 30 25  1  0  0  0  0
 31 30  1  0  0  0  0
 31 32  1  0  0  0  0
 33 31  1  0  0  0  0
 34 35  1  0  0  0  0
 34 31  1  0  0  0  0
 36 34  1  0  0  0  0
 37 34  1  0  0  0  0
 37 43  1  0  0  0  0
 38 37  1  0  0  0  0
 39 40  1  0  0  0  0
 39 38  1  0  0  0  0
 40 42  1  0  0  0  0
 40 41  1  0  0  0  0
 42 43  1  0  0  0  0
M  END
>  <minimizedAffinity>
-5.38635588

$$$$

 OpenBabel03252508483D

 43 45  0  0  0  0  0  0  0  0999 V2000
   35.8810   29.0920   40.9950 C   0  0  0  0  0  0  0  0  0  0  0  0
   35.3650   29.5270   41.8620 H   0  0  0  0  0  0  0  0  0  0  0  0
   35.0780   28.6080   40.3710 H   0  0  0  0  0  0  0  0  0  0  0  0
   36.3630   30.1330   38.7720 C   0  0  0  0  0  0  0  0  0  0  0  0
   36.3970   30.2040   40.1540 C   0  0  0  0  0  0  0  0  0  0  0  0
   36.9250   31.3370   40.7360 C   0  0  0  0  0  0  0  0  0  0  0  0
   37.4010   32.3640   39.9560 C   0  0  0  0  0  0  0  0  0  0  0  0
   37.3750   32.3100   38.5820 C   0  0  0  0  0  0  0  0  0  0  0  0
   36.8400   31.1580   38.0330 C   0  0  0  0  0  0  0  0  0  0  0  0
   36.9830   31.4610   41.8060 H   0  0  0  0  0  0  0  0  0  0  0  0
   37.8230   33.2690   40.3850 H   0  0  0  0  0  0  0  0  0  0  0  0
   37.7290   33.0720   37.9170 H   0  0  0  0  0  0  0  0  0  0  0  0
   36.7630   30.9970   36.9630 H   0  0  0  0  0  0  0  0  0  0  0  0
   34.0460   27.5540   37.2750 C   0  0  0  0  0  0  0  0  0  0  0  0
   34.4760   28.7850   37.8040 C   0  0  0  0  0  0  0  0  0  0  0  0
   35.7960   28.9130   38.2080 C   0  0  0  0  0  0  0  0  0  0  0  0
   36.6140   27.8220   38.0680 N   0  0  0  0  0  0  0  0  0  0  0  0
   36.1670   26.6450   37.5520 C   0  0  0  0  0  0  0  0  0  0  0  0
   34.8850   26.5310   37.1630 N   0  0  0  0  0  0  0  0  0  0  0  0
   33.0060   27.4590   36.9580 H   0  0  0  0  0  0  0  0  0  0  0  0
   33.8430   29.6290   37.9110 H   0  0  0  0  0  0  0  0  0  0  0  0
   36.9260   25.8760   37.5030 H   0  0  0  0  0  0  0  0  0  0  0  0
   36.8450   28.0940   41.3230 N   0  0  0  0  0  0  0  0  0  0  0  0
   36.6550   27.1580   40.9120 H   0  0  0  0  0  0  0  0  0  0  0  0
   37.1650   28.0030   43.0060 S   0  0  0  0  0  0  0  0  0  0  0  0
   36.2210   27.0520   43.6790 O   0  0  0  0  0  0  0  0  0  0  0  0
   36.3960   26.0720   43.7210 H   0  0  0  0  0  0  0  0  0  0  0  0
   37.0700   29.3570   43.6400 O   0  0  0  0  0  0  0  0  0  0  0  0
   36.7630   30.1450   43.1300 H   0  0  0  0  0  0  0  0  0  0  0  0
   38.7320   27.4400   43.1910 O   0  0  0  0  0  0  0  0  0  0  0  0
   39.1630   26.9400   41.9690 C   0  0  0  0  0  0  0  0  0  0  0  0
   38.4390   27.0050   41.1610 H   0  0  0  0  0  0  0  0  0  0  0  0
   40.0670   27.5210   41.6790 H   0  0  0  0  0  0  0  0  0  0  0  0
   39.5480   25.4640   42.1520 C   0  0  0  0  0  0  0  0  0  0  0  0
   39.4860   25.1850   43.2220 H   0  0  0  0  0  0  0  0  0  0  0  0
   40.5880   25.3300   41.7950 H   0  0  0  0  0  0  0  0  0  0  0  0
   38.6460   24.6820   41.4000 N   0  0  0  0  0  0  0  0  0  0  0  0
   39.1620   23.9380   40.3200 C   0  0  0  0  0  2  0  0  0  0  0  0
   38.1090   23.9580   39.2040 C   0  0  0  0  0  2  0  0  0  0  0  0
   36.7610   23.5330   39.6970 C   0  0  0  0  0  3  0  0  0  0  0  0
   36.7230   22.4190   39.7240 H   0  0  0  0  0  0  0  0  0  0  0  0
   36.3520   24.1350   41.0070 C   0  0  0  0  0  2  0  0  0  0  0  0
   37.4720   24.2270   42.0190 C   0  0  0  0  0  2  0  0  0  0  0  0
  1 23  1  0  0  0  0
  1  2  1  0  0  0  0
  3  1  1  0  0  0  0
  4  5  1  0  0  0  0
  5  6  2  0  0  0  0
  5  1  1  0  0  0  0
  6 10  1  0  0  0  0
  7 11  1  0  0  0  0
  7  6  1  0  0  0  0
  8  7  2  0  0  0  0
  9  8  1  0  0  0  0
  9  4  2  0  0  0  0
 12  8  1  0  0  0  0
 13  9  1  0  0  0  0
 14 15  1  0  0  0  0
 15 21  1  0  0  0  0
 15 16  2  0  0  0  0
 16  4  1  0  0  0  0
 17 16  1  0  0  0  0
 18 17  2  0  0  0  0
 19 14  2  0  0  0  0
 19 18  1  0  0  0  0
 20 14  1  0  0  0  0
 22 18  1  0  0  0  0
 23 25  1  0  0  0  0
 24 23  1  0  0  0  0
 25 30  1  0  0  0  0
 25 28  1  0  0  0  0
 25 26  1  0  0  0  0
 26 27  1  0  0  0  0
 29 28  1  0  0  0  0
 31 34  1  0  0  0  0
 31 30  1  0  0  0  0
 32 31  1  0  0  0  0
 33 31  1  0  0  0  0
 34 35  1  0  0  0  0
 36 34  1  0  0  0  0
 37 43  1  0  0  0  0
 37 34  1  0  0  0  0
 38 37  1  0  0  0  0
 39 40  1  0  0  0  0
 39 38  1  0  0  0  0
 40 41  1  0  0  0  0
 40 42  1  0  0  0  0
 42 43  1  0  0  0  0
M  END
>  <minimizedAffinity>
-5.36125088

$$$$

 OpenBabel03252508483D

 43 45  0  0  0  0  0  0  0  0999 V2000
   36.6330   28.4050   42.3170 C   0  0  0  0  0  0  0  0  0  0  0  0
   35.8080   28.1810   43.0060 H   0  0  0  0  0  0  0  0  0  0  0  0
   37.3870   27.5810   42.4630 H   0  0  0  0  0  0  0  0  0  0  0  0
   36.5310   27.1430   40.1590 C   0  0  0  0  0  0  0  0  0  0  0  0
   36.1400   28.2280   40.9260 C   0  0  0  0  0  0  0  0  0  0  0  0
   35.2770   29.1460   40.3650 C   0  0  0  0  0  0  0  0  0  0  0  0
   34.8220   28.9790   39.0790 C   0  0  0  0  0  0  0  0  0  0  0  0
   35.2000   27.9090   38.3040 C   0  0  0  0  0  0  0  0  0  0  0  0
   36.0670   27.0080   38.8980 C   0  0  0  0  0  0  0  0  0  0  0  0
   34.9300   30.0140   40.9040 H   0  0  0  0  0  0  0  0  0  0  0  0
   34.1420   29.6850   38.6100 H   0  0  0  0  0  0  0  0  0  0  0  0
   34.8840   27.7200   37.2970 H   0  0  0  0  0  0  0  0  0  0  0  0
   36.4360   26.1240   38.3900 H   0  0  0  0  0  0  0  0  0  0  0  0
   38.0130   24.2870   42.1340 C   0  0  0  0  0  0  0  0  0  0  0  0
   37.0350   25.1230   41.5660 C   0  0  0  0  0  0  0  0  0  0  0  0
   37.4440   26.2040   40.8000 C   0  0  0  0  0  0  0  0  0  0  0  0
   38.7910   26.3960   40.6380 N   0  0  0  0  0  0  0  0  0  0  0  0
   39.7130   25.5680   41.2010 C   0  0  0  0  0  0  0  0  0  0  0  0
   39.3060   24.5240   41.9420 N   0  0  0  0  0  0  0  0  0  0  0  0
   37.6860   23.4370   42.7370 H   0  0  0  0  0  0  0  0  0  0  0  0
   35.9930   24.9730   41.6910 H   0  0  0  0  0  0  0  0  0  0  0  0
   40.7360   25.8460   40.9850 H   0  0  0  0  0  0  0  0  0  0  0  0
   37.2870   29.6480   42.5650 N   0  0  0  0  0  0  0  0  0  0  0  0
   36.8150   30.4750   42.1490 H   0  0  0  0  0  0  0  0  0  0  0  0
   38.9610   29.6080   42.1920 S   0  0  0  0  0  0  0  0  0  0  0  0
   39.1760   29.3470   40.7300 O   0  0  0  0  0  0  0  0  0  0  0  0
   39.1720   30.0800   40.0560 H   0  0  0  0  0  0  0  0  0  0  0  0
   39.6640   28.5670   43.0080 O   0  0  0  0  0  0  0  0  0  0  0  0
   39.1660   27.9470   43.5950 H   0  0  0  0  0  0  0  0  0  0  0  0
   39.6000   31.1060   42.5790 O   0  0  0  0  0  0  0  0  0  0  0  0
   40.6080   31.4000   41.6690 C   0  0  0  0  0  0  0  0  0  0  0  0
   41.6080   31.4620   42.0910 H   0  0  0  0  0  0  0  0  0  0  0  0
   40.6000   30.5940   40.9010 H   0  0  0  0  0  0  0  0  0  0  0  0
   40.2840   32.7420   40.9960 C   0  0  0  0  0  0  0  0  0  0  0  0
   41.2030   33.1790   40.5580 H   0  0  0  0  0  0  0  0  0  0  0  0
   39.8800   33.4280   41.7660 H   0  0  0  0  0  0  0  0  0  0  0  0
   39.3360   32.5020   39.9790 N   0  0  0  0  0  0  0  0  0  0  0  0
   38.0560   33.0710   40.1250 C   0  0  0  0  0  2  0  0  0  0  0  0
   37.0400   32.0670   39.5660 C   0  0  0  0  0  2  0  0  0  0  0  0
   37.3950   31.6220   38.1810 C   0  0  0  0  0  3  0  0  0  0  0  0
   37.0460   32.3930   37.4540 H   0  0  0  0  0  0  0  0  0  0  0  0
   38.8420   31.2850   37.9800 C   0  0  0  0  0  2  0  0  0  0  0  0
   39.7960   32.2270   38.6810 C   0  0  0  0  0  2  0  0  0  0  0  0
  1  3  1  0  0  0  0
  1 23  1  0  0  0  0
  1  2  1  0  0  0  0
  4 16  1  0  0  0  0
  4  5  1  0  0  0  0
  5  1  1  0  0  0  0
  6 10  1  0  0  0  0
  6  5  2  0  0  0  0
  7  6  1  0  0  0  0
  8  9  1  0  0  0  0
  8  7  2  0  0  0  0
  9  4  2  0  0  0  0
 11  7  1  0  0  0  0
 12  8  1  0  0  0  0
 13  9  1  0  0  0  0
 14 20  1  0  0  0  0
 15 21  1  0  0  0  0
 15 14  2  0  0  0  0
 16 15  1  0  0  0  0
 17 16  2  0  0  0  0
 17 18  1  0  0  0  0
 18 19  2  0  0  0  0
 19 14  1  0  0  0  0
 22 18  1  0  0  0  0
 24 23  1  0  0  0  0
 25 23  1  0  0  0  0
 25 30  1  0  0  0  0
 25 28  1  0  0  0  0
 26 25  1  0  0  0  0
 27 26  1  0  0  0  0
 28 29  1  0  0  0  0
 31 32  1  0  0  0  0
 31 30  1  0  0  0  0
 33 31  1  0  0  0  0
 34 31  1  0  0  0  0
 34 36  1  0  0  0  0
 35 34  1  0  0  0  0
 37 38  1  0  0  0  0
 37 34  1  0  0  0  0
 39 38  1  0  0  0  0
 40 39  1  0  0  0  0
 41 40  1  0  0  0  0
 42 40  1  0  0  0  0
 42 43  1  0  0  0  0
 43 37  1  0  0  0  0
M  END
>  <minimizedAffinity>
-5.35987329

$$$$

 OpenBabel03252508483D

 43 45  0  0  0  0  0  0  0  0999 V2000
   37.9060   27.0790   40.8480 C   0  0  0  0  0  0  0  0  0  0  0  0
   38.5600   27.7940   40.3300 H   0  0  0  0  0  0  0  0  0  0  0  0
   37.6060   26.3200   40.0710 H   0  0  0  0  0  0  0  0  0  0  0  0
   38.7640   24.9350   41.8080 C   0  0  0  0  0  0  0  0  0  0  0  0
   38.7280   26.3180   41.8250 C   0  0  0  0  0  0  0  0  0  0  0  0
   39.4780   26.9790   42.7760 C   0  0  0  0  0  0  0  0  0  0  0  0
   40.2380   26.2740   43.6780 C   0  0  0  0  0  0  0  0  0  0  0  0
   40.2850   24.9000   43.6760 C   0  0  0  0  0  0  0  0  0  0  0  0
   39.5210   24.2700   42.7090 C   0  0  0  0  0  0  0  0  0  0  0  0
   39.4980   28.0560   42.8470 H   0  0  0  0  0  0  0  0  0  0  0  0
   40.8380   26.7660   44.4380 H   0  0  0  0  0  0  0  0  0  0  0  0
   40.8550   24.2900   44.3490 H   0  0  0  0  0  0  0  0  0  0  0  0
   39.4760   23.1920   42.6050 H   0  0  0  0  0  0  0  0  0  0  0  0
   37.5840   23.1260   38.7110 C   0  0  0  0  0  0  0  0  0  0  0  0
   38.4700   23.7230   39.6260 C   0  0  0  0  0  0  0  0  0  0  0  0
   37.9540   24.2860   40.7840 C   0  0  0  0  0  0  0  0  0  0  0  0
   36.5980   24.2270   40.9710 N   0  0  0  0  0  0  0  0  0  0  0  0
   35.7680   23.6410   40.0660 C   0  0  0  0  0  0  0  0  0  0  0  0
   36.2780   23.0990   38.9470 N   0  0  0  0  0  0  0  0  0  0  0  0
   37.9960   22.6840   37.8010 H   0  0  0  0  0  0  0  0  0  0  0  0
   39.5190   23.7680   39.4810 H   0  0  0  0  0  0  0  0  0  0  0  0
   34.7240   23.6710   40.3510 H   0  0  0  0  0  0  0  0  0  0  0  0
   36.7150   27.6500   41.3850 N   0  0  0  0  0  0  0  0  0  0  0  0
   35.8710   27.5310   40.7900 H   0  0  0  0  0  0  0  0  0  0  0  0
   36.9230   29.2780   41.8850 S   0  0  0  0  0  0  0  0  0  0  0  0
   37.0220   29.3700   43.3790 O   0  0  0  0  0  0  0  0  0  0  0  0
   37.8840   29.2440   43.8610 H   0  0  0  0  0  0  0  0  0  0  0  0
   35.7980   30.1350   41.3910 O   0  0  0  0  0  0  0  0  0  0  0  0
   35.0170   29.7450   40.9280 H   0  0  0  0  0  0  0  0  0  0  0  0
   38.3510   29.8340   41.2080 O   0  0  0  0  0  0  0  0  0  0  0  0
   38.9280   30.7400   42.0900 C   0  0  0  0  0  0  0  0  0  0  0  0
   38.2250   31.3380   42.6640 H   0  0  0  0  0  0  0  0  0  0  0  0
   39.5520   30.1520   42.8000 H   0  0  0  0  0  0  0  0  0  0  0  0
   39.8320   31.6920   41.2920 C   0  0  0  0  0  0  0  0  0  0  0  0
   40.8280   31.2320   41.1410 H   0  0  0  0  0  0  0  0  0  0  0  0
   39.9420   32.6310   41.8700 H   0  0  0  0  0  0  0  0  0  0  0  0
   39.2190   31.9300   40.0440 N   0  0  0  0  0  0  0  0  0  0  0  0
   38.1960   32.8960   39.9860 C   0  0  0  0  0  2  0  0  0  0  0  0
   37.1470   32.3950   38.9850 C   0  0  0  0  0  2  0  0  0  0  0  0
   37.7590   32.0230   37.6710 C   0  0  0  0  0  3  0  0  0  0  0  0
   37.9050   32.9490   37.0660 H   0  0  0  0  0  0  0  0  0  0  0  0
   39.0200   31.2190   37.7690 C   0  0  0  0  0  2  0  0  0  0  0  0
   39.9500   31.6670   38.8740 C   0  0  0  0  0  2  0  0  0  0  0  0
  1 23  1  0  0  0  0
  1  5  1  0  0  0  0
  2  1  1  0  0  0  0
  3  1  1  0  0  0  0
  4  5  2  0  0  0  0
  4  9  1  0  0  0  0
  5  6  1  0  0  0  0
  6 10  1  0  0  0  0
  6  7  2  0  0  0  0
  7 11  1  0  0  0  0
  8  7  1  0  0  0  0
  8 12  1  0  0  0  0
  9  8  2  0  0  0  0
 13  9  1  0  0  0  0
 14 19  2  0  0  0  0
 14 15  1  0  0  0  0
 15 16  2  0  0  0  0
 16 17  1  0  0  0  0
 16  4  1  0  0  0  0
 18 22  1  0  0  0  0
 18 17  2  0  0  0  0
 19 18  1  0  0  0  0
 20 14  1  0  0  0  0
 21 15  1  0  0  0  0
 23 25  1  0  0  0  0
 24 23  1  0  0  0  0
 25 26  1  0  0  0  0
 26 27  1  0  0  0  0
 28 25  1  0  0  0  0
 29 28  1  0  0  0  0
 30 25  1  0  0  0  0
 30 31  1  0  0  0  0
 31 32  1  0  0  0  0
 31 33  1  0  0  0  0
 34 36  1  0  0  0  0
 34 31  1  0  0  0  0
 35 34  1  0  0  0  0
 37 34  1  0  0  0  0
 38 37  1  0  0  0  0
 39 38  1  0  0  0  0
 40 42  1  0  0  0  0
 40 39  1  0  0  0  0
 41 40  1  0  0  0  0
 42 43  1  0  0  0  0
 43 37  1  0  0  0  0
M  END
>  <minimizedAffinity>
-5.34834051

$$$$
