
 OpenBabel03252507583D

 25 27  0  0  1  0  0  0  0  0999 V2000
   38.6900   29.5860   42.6030 C   0  0  1  0  0  0  0  0  0  0  0  0
   37.6530   28.9100   43.4280 C   0  0  0  0  0  0  0  0  0  0  0  0
   38.2360   28.1900   42.2820 C   0  0  2  0  0  0  0  0  0  0  0  0
   39.6220   29.8410   43.0970 H   0  0  0  0  0  0  0  0  0  0  0  0
   36.6240   29.3120   43.3170 H   0  0  0  0  0  0  0  0  0  0  0  0
   37.9010   28.7290   44.4740 H   0  0  0  0  0  0  0  0  0  0  0  0
   37.5690   28.0240   41.4100 H   0  0  0  0  0  0  0  0  0  0  0  0
   38.8760   32.3120   40.1580 C   0  0  0  0  0  0  0  0  0  0  0  0
   37.5540   32.4110   39.6590 C   0  0  0  0  0  0  0  0  0  0  0  0
   36.6080   31.5130   40.1880 C   0  0  0  0  0  0  0  0  0  0  0  0
   37.0020   30.6260   41.1220 N   0  0  0  0  0  0  0  0  0  0  0  0
   38.2940   30.5880   41.5550 C   0  0  0  0  0  0  0  0  0  0  0  0
   39.2400   31.4070   41.0990 N   0  0  0  0  0  0  0  0  0  0  0  0
   37.2830   33.1380   38.9090 H   0  0  0  0  0  0  0  0  0  0  0  0
   35.5840   31.5420   39.8450 H   0  0  0  0  0  0  0  0  0  0  0  0
   39.7950   33.2530   39.5830 C   0  0  0  0  0  0  0  0  0  0  0  0
   40.5590   33.0320   38.6090 O   0  0  0  0  0  0  0  0  0  0  0  0
   39.9320   34.2860   39.9380 H   0  0  0  0  0  0  0  0  0  0  0  0
   39.2610   27.2180   42.3620 N   0  0  0  0  0  0  0  0  0  0  0  0
   39.3570   26.6570   43.6800 C   0  0  0  0  0  2  0  0  0  0  0  0
   40.4760   25.6380   43.6610 C   0  0  0  0  0  2  0  0  0  0  0  0
   39.8710   24.4390   42.9220 C   0  0  0  0  0  3  0  0  0  0  0  0
   38.9990   24.1450   43.5740 H   0  0  0  0  0  0  0  0  0  0  0  0
   39.3300   24.8640   41.6010 C   0  0  0  0  0  2  0  0  0  0  0  0
   39.4740   26.3350   41.2930 C   0  0  0  0  0  2  0  0  0  0  0  0
  1  4  1  1  0  0  0
  1  2  1  0  0  0  0
  2  6  1  0  0  0  0
  3  7  1  6  0  0  0
  3 19  1  0  0  0  0
  3  1  1  0  0  0  0
  3  2  1  0  0  0  0
  5  2  1  0  0  0  0
  8 13  1  0  0  0  0
  9  8  2  0  0  0  0
  9 10  1  0  0  0  0
 10 11  2  0  0  0  0
 11 12  1  0  0  0  0
 12  1  1  0  0  0  0
 13 12  2  0  0  0  0
 14  9  1  0  0  0  0
 15 10  1  0  0  0  0
 16 18  1  0  0  0  0
 16  8  1  0  0  0  0
 17 16  2  0  0  0  0
 19 20  1  0  0  0  0
 21 20  1  0  0  0  0
 22 23  1  0  0  0  0
 22 21  1  0  0  0  0
 24 22  1  0  0  0  0
 25 24  1  0  0  0  0
 25 19  1  0  0  0  0
M  END
>  <minimizedAffinity>
-4.57772684

$$$$

 OpenBabel03252507583D

 25 27  0  0  1  0  0  0  0  0999 V2000
   38.2510   29.0430   42.8110 C   0  0  1  0  0  0  0  0  0  0  0  0
   39.3250   30.0680   42.9110 C   0  0  0  0  0  0  0  0  0  0  0  0
   38.7840   29.7270   41.5840 C   0  0  2  0  0  0  0  0  0  0  0  0
   37.3060   29.2730   43.2920 H   0  0  0  0  0  0  0  0  0  0  0  0
   40.3280   29.6760   43.1770 H   0  0  0  0  0  0  0  0  0  0  0  0
   39.0870   30.9720   43.4710 H   0  0  0  0  0  0  0  0  0  0  0  0
   39.4590   29.1680   40.9030 H   0  0  0  0  0  0  0  0  0  0  0  0
   38.0510   25.4140   42.3300 C   0  0  0  0  0  0  0  0  0  0  0  0
   39.2120   24.9220   42.9760 C   0  0  0  0  0  0  0  0  0  0  0  0
   40.0570   25.8750   43.5730 C   0  0  0  0  0  0  0  0  0  0  0  0
   39.7230   27.1790   43.5020 N   0  0  0  0  0  0  0  0  0  0  0  0
   38.5880   27.5800   42.8620 C   0  0  0  0  0  0  0  0  0  0  0  0
   37.7450   26.7330   42.2760 N   0  0  0  0  0  0  0  0  0  0  0  0
   39.4400   23.8680   43.0090 H   0  0  0  0  0  0  0  0  0  0  0  0
   40.9570   25.5590   44.0810 H   0  0  0  0  0  0  0  0  0  0  0  0
   37.2280   24.3960   41.7410 C   0  0  0  0  0  0  0  0  0  0  0  0
   37.6430   23.3320   41.2130 O   0  0  0  0  0  0  0  0  0  0  0  0
   36.1300   24.4360   41.6880 H   0  0  0  0  0  0  0  0  0  0  0  0
   37.8160   30.4790   40.8760 N   0  0  0  0  0  0  0  0  0  0  0  0
   38.2320   31.8400   40.6940 C   0  0  0  0  0  2  0  0  0  0  0  0
   37.1360   32.5550   39.9350 C   0  0  0  0  0  2  0  0  0  0  0  0
   37.2940   32.0510   38.4970 C   0  0  0  0  0  3  0  0  0  0  0  0
   38.3330   32.3860   38.2160 H   0  0  0  0  0  0  0  0  0  0  0  0
   37.2700   30.5620   38.4640 C   0  0  0  0  0  2  0  0  0  0  0  0
   37.1180   29.8940   39.8090 C   0  0  0  0  0  2  0  0  0  0  0  0
  1 12  1  0  0  0  0
  1  2  1  0  0  0  0
  1  4  1  1  0  0  0
  2  5  1  0  0  0  0
  2  6  1  0  0  0  0
  3  7  1  6  0  0  0
  3  1  1  0  0  0  0
  3  2  1  0  0  0  0
  8  9  1  0  0  0  0
  9 14  1  0  0  0  0
  9 10  2  0  0  0  0
 10 15  1  0  0  0  0
 11 10  1  0  0  0  0
 12 11  2  0  0  0  0
 13  8  2  0  0  0  0
 13 12  1  0  0  0  0
 16  8  1  0  0  0  0
 17 16  2  0  0  0  0
 18 16  1  0  0  0  0
 19  3  1  0  0  0  0
 20 19  1  0  0  0  0
 21 20  1  0  0  0  0
 22 21  1  0  0  0  0
 23 22  1  0  0  0  0
 24 22  1  0  0  0  0
 24 25  1  0  0  0  0
 25 19  1  0  0  0  0
M  END
>  <minimizedAffinity>
-4.56070042

$$$$

 OpenBabel03252507583D

 25 27  0  0  1  0  0  0  0  0999 V2000
   37.7820   28.2410   42.4080 C   0  0  1  0  0  0  0  0  0  0  0  0
   36.5950   27.6390   43.0710 C   0  0  0  0  0  0  0  0  0  0  0  0
   36.9600   27.1920   41.7150 C   0  0  2  0  0  0  0  0  0  0  0  0
   38.7460   28.0690   42.8760 H   0  0  0  0  0  0  0  0  0  0  0  0
   35.7190   28.3140   43.1750 H   0  0  0  0  0  0  0  0  0  0  0  0
   36.7780   27.0770   43.9870 H   0  0  0  0  0  0  0  0  0  0  0  0
   36.2770   27.4940   40.8940 H   0  0  0  0  0  0  0  0  0  0  0  0
   38.7210   31.4990   41.0130 C   0  0  0  0  0  0  0  0  0  0  0  0
   37.4910   32.0470   40.5720 C   0  0  0  0  0  0  0  0  0  0  0  0
   36.3410   31.2600   40.7690 C   0  0  0  0  0  0  0  0  0  0  0  0
   36.4680   30.0540   41.3550 N   0  0  0  0  0  0  0  0  0  0  0  0
   37.6870   29.5900   41.7540 C   0  0  0  0  0  0  0  0  0  0  0  0
   38.8140   30.2800   41.5990 N   0  0  0  0  0  0  0  0  0  0  0  0
   37.4360   33.0190   40.1080 H   0  0  0  0  0  0  0  0  0  0  0  0
   35.3740   31.6260   40.4530 H   0  0  0  0  0  0  0  0  0  0  0  0
   39.8580   32.3460   40.7860 C   0  0  0  0  0  0  0  0  0  0  0  0
   39.8260   33.5970   40.6590 O   0  0  0  0  0  0  0  0  0  0  0  0
   40.8940   31.9880   40.6990 H   0  0  0  0  0  0  0  0  0  0  0  0
   37.6730   26.0090   41.4080 N   0  0  0  0  0  0  0  0  0  0  0  0
   37.1100   24.8650   42.0660 C   0  0  0  0  0  2  0  0  0  0  0  0
   37.9410   23.6610   41.6780 C   0  0  0  0  0  2  0  0  0  0  0  0
   37.5050   23.3610   40.2390 C   0  0  0  0  0  3  0  0  0  0  0  0
   36.4040   23.1400   40.3410 H   0  0  0  0  0  0  0  0  0  0  0  0
   37.6500   24.5760   39.3910 C   0  0  0  0  0  2  0  0  0  0  0  0
   38.1600   25.8020   40.1090 C   0  0  0  0  0  2  0  0  0  0  0  0
  1  4  1  1  0  0  0
  1  2  1  0  0  0  0
  2  5  1  0  0  0  0
  2  6  1  0  0  0  0
  3  7  1  6  0  0  0
  3  1  1  0  0  0  0
  3  2  1  0  0  0  0
  8 13  1  0  0  0  0
  9 10  1  0  0  0  0
  9  8  2  0  0  0  0
 10 11  2  0  0  0  0
 11 12  1  0  0  0  0
 12  1  1  0  0  0  0
 13 12  2  0  0  0  0
 14  9  1  0  0  0  0
 15 10  1  0  0  0  0
 16  8  1  0  0  0  0
 17 16  2  0  0  0  0
 18 16  1  0  0  0  0
 19  3  1  0  0  0  0
 19 20  1  0  0  0  0
 21 20  1  0  0  0  0
 22 23  1  0  0  0  0
 22 21  1  0  0  0  0
 24 25  1  0  0  0  0
 24 22  1  0  0  0  0
 25 19  1  0  0  0  0
M  END
>  <minimizedAffinity>
-4.44885588

$$$$

 OpenBabel03252507583D

 25 27  0  0  1  0  0  0  0  0999 V2000
   37.7430   30.8520   39.4510 C   0  0  1  0  0  0  0  0  0  0  0  0
   38.0170   29.6990   38.5520 C   0  0  0  0  0  0  0  0  0  0  0  0
   38.3560   29.5880   39.9820 C   0  0  2  0  0  0  0  0  0  0  0  0
   36.7040   31.1410   39.5750 H   0  0  0  0  0  0  0  0  0  0  0  0
   38.8510   29.8480   37.8340 H   0  0  0  0  0  0  0  0  0  0  0  0
   37.1550   29.2340   38.0750 H   0  0  0  0  0  0  0  0  0  0  0  0
   39.4370   29.5760   40.2350 H   0  0  0  0  0  0  0  0  0  0  0  0
   40.5370   33.0950   38.6720 C   0  0  0  0  0  0  0  0  0  0  0  0
   40.3850   34.1600   39.5950 C   0  0  0  0  0  0  0  0  0  0  0  0
   39.2950   34.0780   40.4820 C   0  0  0  0  0  0  0  0  0  0  0  0
   38.4730   33.0130   40.4100 N   0  0  0  0  0  0  0  0  0  0  0  0
   38.6810   32.0250   39.4940 C   0  0  0  0  0  0  0  0  0  0  0  0
   39.6900   32.0370   38.6250 N   0  0  0  0  0  0  0  0  0  0  0  0
   41.0690   34.9930   39.6170 H   0  0  0  0  0  0  0  0  0  0  0  0
   39.1290   34.8610   41.2080 H   0  0  0  0  0  0  0  0  0  0  0  0
   41.6650   33.2320   37.7950 C   0  0  0  0  0  0  0  0  0  0  0  0
   42.0460   32.3810   36.9510 O   0  0  0  0  0  0  0  0  0  0  0  0
   42.3270   34.1100   37.7660 H   0  0  0  0  0  0  0  0  0  0  0  0
   37.5710   28.9330   40.9610 N   0  0  0  0  0  0  0  0  0  0  0  0
   37.8400   27.5240   41.0000 C   0  0  0  0  0  2  0  0  0  0  0  0
   36.9550   26.9190   42.0680 C   0  0  0  0  0  2  0  0  0  0  0  0
   37.6250   27.3380   43.3810 C   0  0  0  0  0  3  0  0  0  0  0  0
   38.6460   26.8640   43.3160 H   0  0  0  0  0  0  0  0  0  0  0  0
   37.8090   28.8150   43.4210 C   0  0  0  0  0  2  0  0  0  0  0  0
   37.3290   29.5540   42.1950 C   0  0  0  0  0  2  0  0  0  0  0  0
  1 12  1  0  0  0  0
  1  4  1  1  0  0  0
  1  3  1  0  0  0  0
  2  1  1  0  0  0  0
  2  3  1  0  0  0  0
  3  7  1  1  0  0  0
  3 19  1  0  0  0  0
  5  2  1  0  0  0  0
  6  2  1  0  0  0  0
  8  9  1  0  0  0  0
  9 14  1  0  0  0  0
  9 10  2  0  0  0  0
 10 15  1  0  0  0  0
 11 10  1  0  0  0  0
 12 11  2  0  0  0  0
 13  8  2  0  0  0  0
 13 12  1  0  0  0  0
 16  8  1  0  0  0  0
 17 16  2  0  0  0  0
 18 16  1  0  0  0  0
 19 20  1  0  0  0  0
 19 25  1  0  0  0  0
 20 21  1  0  0  0  0
 21 22  1  0  0  0  0
 22 24  1  0  0  0  0
 23 22  1  0  0  0  0
 25 24  1  0  0  0  0
M  END
>  <minimizedAffinity>
-4.3937974

$$$$

 OpenBabel03252507583D

 25 27  0  0  1  0  0  0  0  0999 V2000
   36.5040   29.1750   41.4070 C   0  0  1  0  0  0  0  0  0  0  0  0
   35.8160   28.4940   40.2770 C   0  0  0  0  0  0  0  0  0  0  0  0
   37.0850   27.9400   40.7790 C   0  0  2  0  0  0  0  0  0  0  0  0
   35.9790   29.2050   42.3560 H   0  0  0  0  0  0  0  0  0  0  0  0
   35.8370   29.0420   39.3120 H   0  0  0  0  0  0  0  0  0  0  0  0
   34.8280   28.0830   40.4820 H   0  0  0  0  0  0  0  0  0  0  0  0
   37.9660   28.0360   40.1110 H   0  0  0  0  0  0  0  0  0  0  0  0
   39.3150   31.5290   41.4270 C   0  0  0  0  0  0  0  0  0  0  0  0
   38.8220   32.6530   40.7200 C   0  0  0  0  0  0  0  0  0  0  0  0
   37.5020   32.5700   40.2390 C   0  0  0  0  0  0  0  0  0  0  0  0
   36.7920   31.4490   40.4740 N   0  0  0  0  0  0  0  0  0  0  0  0
   37.3330   30.4040   41.1630 C   0  0  0  0  0  0  0  0  0  0  0  0
   38.5740   30.4150   41.6460 N   0  0  0  0  0  0  0  0  0  0  0  0
   39.4270   33.5310   40.5560 H   0  0  0  0  0  0  0  0  0  0  0  0
   37.0720   33.3960   39.6930 H   0  0  0  0  0  0  0  0  0  0  0  0
   40.6650   31.6720   41.8940 C   0  0  0  0  0  0  0  0  0  0  0  0
   41.1780   31.0520   42.8600 O   0  0  0  0  0  0  0  0  0  0  0  0
   41.4090   32.3510   41.4500 H   0  0  0  0  0  0  0  0  0  0  0  0
   37.2050   26.8450   41.6670 N   0  0  0  0  0  0  0  0  0  0  0  0
   36.8970   25.6010   41.0200 C   0  0  0  0  0  2  0  0  0  0  0  0
   37.0510   24.5010   42.0470 C   0  0  0  0  0  2  0  0  0  0  0  0
   38.5680   24.3390   42.1890 C   0  0  0  0  0  3  0  0  0  0  0  0
   38.8970   24.0420   41.1520 H   0  0  0  0  0  0  0  0  0  0  0  0
   39.2010   25.6490   42.5100 C   0  0  0  0  0  2  0  0  0  0  0  0
   38.2480   26.8150   42.6060 C   0  0  0  0  0  2  0  0  0  0  0  0
  1  4  1  1  0  0  0
  2  6  1  0  0  0  0
  2  3  1  0  0  0  0
  2  1  1  0  0  0  0
  3  7  1  6  0  0  0
  3  1  1  0  0  0  0
  3 19  1  0  0  0  0
  5  2  1  0  0  0  0
  8 13  1  0  0  0  0
  8 16  1  0  0  0  0
  9  8  2  0  0  0  0
 10 11  2  0  0  0  0
 10  9  1  0  0  0  0
 11 12  1  0  0  0  0
 12  1  1  0  0  0  0
 12 13  2  0  0  0  0
 14  9  1  0  0  0  0
 15 10  1  0  0  0  0
 16 17  2  0  0  0  0
 18 16  1  0  0  0  0
 19 25  1  0  0  0  0
 20 19  1  0  0  0  0
 20 21  1  0  0  0  0
 21 22  1  0  0  0  0
 22 24  1  0  0  0  0
 23 22  1  0  0  0  0
 24 25  1  0  0  0  0
M  END
>  <minimizedAffinity>
-4.37372255

$$$$

 OpenBabel03252507583D

 25 27  0  0  1  0  0  0  0  0999 V2000
   38.8590   29.5420   41.5640 C   0  0  1  0  0  0  0  0  0  0  0  0
   39.0860   30.0300   42.9510 C   0  0  0  0  0  0  0  0  0  0  0  0
   37.8980   29.2050   42.6690 C   0  0  2  0  0  0  0  0  0  0  0  0
   39.6010   28.8650   41.1550 H   0  0  0  0  0  0  0  0  0  0  0  0
   38.9340   31.1200   43.0990 H   0  0  0  0  0  0  0  0  0  0  0  0
   39.9880   29.6800   43.4520 H   0  0  0  0  0  0  0  0  0  0  0  0
   36.9160   29.7200   42.7080 H   0  0  0  0  0  0  0  0  0  0  0  0
   37.4780   30.7550   38.3920 C   0  0  0  0  0  0  0  0  0  0  0  0
   37.1950   32.1210   38.6450 C   0  0  0  0  0  0  0  0  0  0  0  0
   37.4920   32.6000   39.9340 C   0  0  0  0  0  0  0  0  0  0  0  0
   38.0200   31.7550   40.8400 N   0  0  0  0  0  0  0  0  0  0  0  0
   38.2650   30.4500   40.5250 C   0  0  0  0  0  0  0  0  0  0  0  0
   38.0090   29.9300   39.3270 N   0  0  0  0  0  0  0  0  0  0  0  0
   36.7730   32.7630   37.8880 H   0  0  0  0  0  0  0  0  0  0  0  0
   37.2980   33.6330   40.1850 H   0  0  0  0  0  0  0  0  0  0  0  0
   37.1560   30.3240   37.0610 C   0  0  0  0  0  0  0  0  0  0  0  0
   37.0480   29.1290   36.6830 O   0  0  0  0  0  0  0  0  0  0  0  0
   36.9660   31.0020   36.2160 H   0  0  0  0  0  0  0  0  0  0  0  0
   37.7850   27.8190   42.9310 N   0  0  0  0  0  0  0  0  0  0  0  0
   37.1660   27.1220   41.8390 C   0  0  0  0  0  2  0  0  0  0  0  0
   37.0890   25.6590   42.2160 C   0  0  0  0  0  2  0  0  0  0  0  0
   38.5270   25.1590   42.0470 C   0  0  0  0  0  3  0  0  0  0  0  0
   38.7380   25.3360   40.9540 H   0  0  0  0  0  0  0  0  0  0  0  0
   39.4660   26.0050   42.8360 C   0  0  0  0  0  2  0  0  0  0  0  0
   38.8220   27.1430   43.5910 C   0  0  0  0  0  2  0  0  0  0  0  0
  1  4  1  6  0  0  0
  1  3  1  0  0  0  0
  1  2  1  0  0  0  0
  2  5  1  0  0  0  0
  2  6  1  0  0  0  0
  3  7  1  6  0  0  0
  3 19  1  0  0  0  0
  3  2  1  0  0  0  0
  8  9  2  0  0  0  0
  8 13  1  0  0  0  0
  9 10  1  0  0  0  0
 10 15  1  0  0  0  0
 10 11  2  0  0  0  0
 12 11  1  0  0  0  0
 12  1  1  0  0  0  0
 13 12  2  0  0  0  0
 14  9  1  0  0  0  0
 16  8  1  0  0  0  0
 17 16  2  0  0  0  0
 18 16  1  0  0  0  0
 19 25  1  0  0  0  0
 20 21  1  0  0  0  0
 20 19  1  0  0  0  0
 22 21  1  0  0  0  0
 22 24  1  0  0  0  0
 23 22  1  0  0  0  0
 24 25  1  0  0  0  0
M  END
>  <minimizedAffinity>
-4.35817051

$$$$

 OpenBabel03252507583D

 25 27  0  0  1  0  0  0  0  0999 V2000
   38.6960   29.4030   40.1610 C   0  0  1  0  0  0  0  0  0  0  0  0
   38.4980   28.9260   38.7660 C   0  0  0  0  0  0  0  0  0  0  0  0
   37.6330   30.0010   39.2830 C   0  0  2  0  0  0  0  0  0  0  0  0
   39.6490   29.8680   40.3910 H   0  0  0  0  0  0  0  0  0  0  0  0
   38.0600   27.9110   38.6720 H   0  0  0  0  0  0  0  0  0  0  0  0
   39.3310   29.0690   38.0780 H   0  0  0  0  0  0  0  0  0  0  0  0
   36.5700   29.7380   39.4640 H   0  0  0  0  0  0  0  0  0  0  0  0
   37.3820   26.6350   42.1750 C   0  0  0  0  0  0  0  0  0  0  0  0
   37.1010   27.2320   43.4300 C   0  0  0  0  0  0  0  0  0  0  0  0
   37.3800   28.6050   43.5540 C   0  0  0  0  0  0  0  0  0  0  0  0
   37.8880   29.2670   42.4960 N   0  0  0  0  0  0  0  0  0  0  0  0
   38.1340   28.6260   41.3180 C   0  0  0  0  0  0  0  0  0  0  0  0
   37.8940   27.3300   41.1300 N   0  0  0  0  0  0  0  0  0  0  0  0
   36.6940   26.6630   44.2510 H   0  0  0  0  0  0  0  0  0  0  0  0
   37.1860   29.1150   44.4870 H   0  0  0  0  0  0  0  0  0  0  0  0
   37.0760   25.2340   42.1080 C   0  0  0  0  0  0  0  0  0  0  0  0
   37.7720   24.3580   41.5340 O   0  0  0  0  0  0  0  0  0  0  0  0
   36.1860   24.7690   42.5580 H   0  0  0  0  0  0  0  0  0  0  0  0
   37.8050   31.3830   39.0300 N   0  0  0  0  0  0  0  0  0  0  0  0
   37.2630   32.1870   40.0890 C   0  0  0  0  0  2  0  0  0  0  0  0
   37.4930   33.6370   39.7240 C   0  0  0  0  0  2  0  0  0  0  0  0
   38.9870   33.8510   39.9880 C   0  0  0  0  0  3  0  0  0  0  0  0
   39.0900   33.6380   41.0900 H   0  0  0  0  0  0  0  0  0  0  0  0
   39.7940   32.8390   39.2510 C   0  0  0  0  0  2  0  0  0  0  0  0
   38.9930   31.8450   38.4440 C   0  0  0  0  0  2  0  0  0  0  0  0
  1  4  1  1  0  0  0
  1 12  1  0  0  0  0
  2  3  1  0  0  0  0
  2  1  1  0  0  0  0
  3  7  1  1  0  0  0
  3  1  1  0  0  0  0
  5  2  1  0  0  0  0
  6  2  1  0  0  0  0
  8  9  1  0  0  0  0
  9 10  2  0  0  0  0
  9 14  1  0  0  0  0
 10 15  1  0  0  0  0
 11 10  1  0  0  0  0
 12 11  2  0  0  0  0
 13 12  1  0  0  0  0
 13  8  2  0  0  0  0
 16  8  1  0  0  0  0
 16 18  1  0  0  0  0
 17 16  2  0  0  0  0
 19  3  1  0  0  0  0
 19 20  1  0  0  0  0
 21 22  1  0  0  0  0
 21 20  1  0  0  0  0
 22 23  1  0  0  0  0
 24 22  1  0  0  0  0
 25 19  1  0  0  0  0
 25 24  1  0  0  0  0
M  END
>  <minimizedAffinity>
-4.33230209

$$$$

 OpenBabel03252507583D

 25 27  0  0  1  0  0  0  0  0999 V2000
   40.5270   30.1850   41.1590 C   0  0  1  0  0  0  0  0  0  0  0  0
   41.0670   29.9210   42.5200 C   0  0  0  0  0  0  0  0  0  0  0  0
   39.6200   29.7730   42.2850 C   0  0  2  0  0  0  0  0  0  0  0  0
   40.8660   29.5320   40.3610 H   0  0  0  0  0  0  0  0  0  0  0  0
   41.4110   30.8200   43.0740 H   0  0  0  0  0  0  0  0  0  0  0  0
   41.7740   29.0980   42.6150 H   0  0  0  0  0  0  0  0  0  0  0  0
   38.9620   30.5330   42.7550 H   0  0  0  0  0  0  0  0  0  0  0  0
   40.9980   33.4300   39.5200 C   0  0  0  0  0  0  0  0  0  0  0  0
   39.8340   34.1600   39.8720 C   0  0  0  0  0  0  0  0  0  0  0  0
   38.8930   33.4990   40.6820 C   0  0  0  0  0  0  0  0  0  0  0  0
   39.1430   32.2340   41.0740 N   0  0  0  0  0  0  0  0  0  0  0  0
   40.2860   31.5930   40.6960 C   0  0  0  0  0  0  0  0  0  0  0  0
   41.2180   32.1580   39.9310 N   0  0  0  0  0  0  0  0  0  0  0  0
   39.6760   35.1720   39.5350 H   0  0  0  0  0  0  0  0  0  0  0  0
   37.9870   34.0050   40.9820 H   0  0  0  0  0  0  0  0  0  0  0  0
   41.9210   34.1560   38.6950 C   0  0  0  0  0  0  0  0  0  0  0  0
   42.0690   34.0080   37.4550 O   0  0  0  0  0  0  0  0  0  0  0  0
   42.6090   34.9320   39.0630 H   0  0  0  0  0  0  0  0  0  0  0  0
   38.9490   28.5470   42.0650 N   0  0  0  0  0  0  0  0  0  0  0  0
   39.0590   27.6720   43.1970 C   0  0  0  0  0  2  0  0  0  0  0  0
   38.3150   26.3970   42.8630 C   0  0  0  0  0  2  0  0  0  0  0  0
   36.8390   26.7870   42.9910 C   0  0  0  0  0  3  0  0  0  0  0  0
   36.7450   27.0980   44.0710 H   0  0  0  0  0  0  0  0  0  0  0  0
   36.5420   27.9770   42.1460 C   0  0  0  0  0  2  0  0  0  0  0  0
   37.7210   28.5330   41.3850 C   0  0  0  0  0  2  0  0  0  0  0  0
  1  4  1  6  0  0  0
  1  3  1  0  0  0  0
  1  2  1  0  0  0  0
  2  6  1  0  0  0  0
  2  5  1  0  0  0  0
  3  2  1  0  0  0  0
  3  7  1  1  0  0  0
  8  9  2  0  0  0  0
  8 13  1  0  0  0  0
  9 10  1  0  0  0  0
 10 15  1  0  0  0  0
 10 11  2  0  0  0  0
 12 11  1  0  0  0  0
 12  1  1  0  0  0  0
 13 12  2  0  0  0  0
 14  9  1  0  0  0  0
 16 18  1  0  0  0  0
 16  8  1  0  0  0  0
 17 16  2  0  0  0  0
 19  3  1  0  0  0  0
 19 20  1  0  0  0  0
 21 22  1  0  0  0  0
 21 20  1  0  0  0  0
 22 23  1  0  0  0  0
 24 22  1  0  0  0  0
 25 19  1  0  0  0  0
 25 24  1  0  0  0  0
M  END
>  <minimizedAffinity>
-4.26916552

$$$$

 OpenBabel03252507583D

 25 27  0  0  1  0  0  0  0  0999 V2000
   36.0510   28.2440   39.4760 C   0  0  1  0  0  0  0  0  0  0  0  0
   35.9660   27.0480   38.5960 C   0  0  0  0  0  0  0  0  0  0  0  0
   37.0850   27.1570   39.5490 C   0  0  2  0  0  0  0  0  0  0  0  0
   35.2460   28.3880   40.1890 H   0  0  0  0  0  0  0  0  0  0  0  0
   36.1820   27.2350   37.5240 H   0  0  0  0  0  0  0  0  0  0  0  0
   35.0950   26.4070   38.7240 H   0  0  0  0  0  0  0  0  0  0  0  0
   38.0900   27.3350   39.1140 H   0  0  0  0  0  0  0  0  0  0  0  0
   37.3400   31.6740   39.3460 C   0  0  0  0  0  0  0  0  0  0  0  0
   37.5810   31.8950   37.9670 C   0  0  0  0  0  0  0  0  0  0  0  0
   37.2880   30.8290   37.0960 C   0  0  0  0  0  0  0  0  0  0  0  0
   36.8040   29.6810   37.6070 N   0  0  0  0  0  0  0  0  0  0  0  0
   36.5980   29.5410   38.9480 C   0  0  0  0  0  0  0  0  0  0  0  0
   36.8520   30.5060   39.8290 N   0  0  0  0  0  0  0  0  0  0  0  0
   37.9700   32.8320   37.6010 H   0  0  0  0  0  0  0  0  0  0  0  0
   37.4510   30.9390   36.0330 H   0  0  0  0  0  0  0  0  0  0  0  0
   37.6560   32.7960   40.1850 C   0  0  0  0  0  0  0  0  0  0  0  0
   37.6510   34.0020   39.8300 O   0  0  0  0  0  0  0  0  0  0  0  0
   37.9390   32.7200   41.2460 H   0  0  0  0  0  0  0  0  0  0  0  0
   37.1540   26.5110   40.8070 N   0  0  0  0  0  0  0  0  0  0  0  0
   36.9120   25.1010   40.6920 C   0  0  0  0  0  2  0  0  0  0  0  0
   37.0050   24.5080   42.0810 C   0  0  0  0  0  2  0  0  0  0  0  0
   38.5100   24.4800   42.3700 C   0  0  0  0  0  3  0  0  0  0  0  0
   38.9180   23.8090   41.5610 H   0  0  0  0  0  0  0  0  0  0  0  0
   39.0990   25.8340   42.1790 C   0  0  0  0  0  2  0  0  0  0  0  0
   38.1250   26.9010   41.7420 C   0  0  0  0  0  2  0  0  0  0  0  0
  1  3  1  0  0  0  0
  1  4  1  1  0  0  0
  2  6  1  0  0  0  0
  2  1  1  0  0  0  0
  2  3  1  0  0  0  0
  3  7  1  6  0  0  0
  3 19  1  0  0  0  0
  5  2  1  0  0  0  0
  8 13  1  0  0  0  0
  8 16  1  0  0  0  0
  9  8  2  0  0  0  0
 10 11  2  0  0  0  0
 10  9  1  0  0  0  0
 11 12  1  0  0  0  0
 12  1  1  0  0  0  0
 12 13  2  0  0  0  0
 14  9  1  0  0  0  0
 15 10  1  0  0  0  0
 16 18  1  0  0  0  0
 17 16  2  0  0  0  0
 19 25  1  0  0  0  0
 20 19  1  0  0  0  0
 20 21  1  0  0  0  0
 21 22  1  0  0  0  0
 23 22  1  0  0  0  0
 24 22  1  0  0  0  0
 25 24  1  0  0  0  0
M  END
>  <minimizedAffinity>
-4.20494175

$$$$
