
 OpenBabel03252504213D

 17 18  0  0  0  0  0  0  0  0999 V2000
   39.3090   32.2310   40.7280 C   0  0  0  0  0  0  0  0  0  0  0  0
   38.1340   32.8110   40.2550 C   0  0  0  0  0  0  0  0  0  0  0  0
   36.9530   32.0320   40.3210 C   0  0  0  0  0  0  0  0  0  0  0  0
   37.0340   30.7840   40.8340 N   0  0  0  0  0  0  0  0  0  0  0  0
   38.1990   30.2660   41.2800 C   0  0  0  0  0  0  0  0  0  0  0  0
   39.3410   30.9730   41.2340 N   0  0  0  0  0  0  0  0  0  0  0  0
   38.0920   33.8120   39.8490 H   0  0  0  0  0  0  0  0  0  0  0  0
   36.0080   32.4060   39.9780 H   0  0  0  0  0  0  0  0  0  0  0  0
   38.2350   28.9450   41.8120 N   0  0  0  0  0  0  0  0  0  0  0  0
   38.1670   27.7500   40.9920 C   0  0  0  0  0  2  0  0  0  0  0  0
   37.0410   26.8430   41.4430 C   0  0  0  0  0  2  0  0  0  0  0  0
   37.0890   26.6210   42.9280 C   0  0  0  0  0  3  0  0  0  0  0  0
   38.0530   26.1550   43.2040 H   0  0  0  0  0  0  0  0  0  0  0  0
   37.0510   27.9750   43.6080 C   0  0  0  0  0  2  0  0  0  0  0  0
   38.3430   28.7170   43.2420 C   0  0  0  0  0  2  0  0  0  0  0  0
   40.7590   33.2930   40.6040 S   0  0  0  0  0  0  0  0  0  0  0  0
   41.6860   32.7510   41.5260 H   0  0  0  0  0  0  0  0  0  0  0  0
  1  6  1  0  0  0  0
  2  3  1  0  0  0  0
  2  1  2  0  0  0  0
  3  4  2  0  0  0  0
  4  5  1  0  0  0  0
  5  9  1  0  0  0  0
  6  5  2  0  0  0  0
  7  2  1  0  0  0  0
  8  3  1  0  0  0  0
  9 15  1  0  0  0  0
 10 11  1  0  0  0  0
 10  9  1  0  0  0  0
 11 12  1  0  0  0  0
 12 13  1  0  0  0  0
 12 14  1  0  0  0  0
 15 14  1  0  0  0  0
 16  1  1  0  0  0  0
 16 17  1  0  0  0  0
M  END
>  <minimizedAffinity>
-4.20648384

$$$$

 OpenBabel03252504213D

 17 18  0  0  0  0  0  0  0  0999 V2000
   39.3410   27.4420   42.6930 C   0  0  0  0  0  0  0  0  0  0  0  0
   38.3570   27.4150   43.6790 C   0  0  0  0  0  0  0  0  0  0  0  0
   37.3310   28.3890   43.6000 C   0  0  0  0  0  0  0  0  0  0  0  0
   37.3660   29.2770   42.5820 N   0  0  0  0  0  0  0  0  0  0  0  0
   38.3430   29.2620   41.6490 C   0  0  0  0  0  0  0  0  0  0  0  0
   39.3340   28.3550   41.6900 N   0  0  0  0  0  0  0  0  0  0  0  0
   38.3490   26.6940   44.4850 H   0  0  0  0  0  0  0  0  0  0  0  0
   36.5370   28.4350   44.3200 H   0  0  0  0  0  0  0  0  0  0  0  0
   38.3370   30.2200   40.5950 N   0  0  0  0  0  0  0  0  0  0  0  0
   38.7090   31.6110   40.7750 C   0  0  0  0  0  2  0  0  0  0  0  0
   37.6100   32.5360   40.2960 C   0  0  0  0  0  2  0  0  0  0  0  0
   37.1440   32.1520   38.9200 C   0  0  0  0  0  3  0  0  0  0  0  0
   37.9910   32.2080   38.2110 H   0  0  0  0  0  0  0  0  0  0  0  0
   36.7060   30.7010   38.9590 C   0  0  0  0  0  2  0  0  0  0  0  0
   37.9480   29.8470   39.2460 C   0  0  0  0  0  2  0  0  0  0  0  0
   40.6030   26.1700   42.8760 S   0  0  0  0  0  0  0  0  0  0  0  0
   41.1920   26.0560   41.5920 H   0  0  0  0  0  0  0  0  0  0  0  0
  1 16  1  0  0  0  0
  1  2  1  0  0  0  0
  2  7  1  0  0  0  0
  3  2  2  0  0  0  0
  3  8  1  0  0  0  0
  4  3  1  0  0  0  0
  5  6  1  0  0  0  0
  5  4  2  0  0  0  0
  6  1  2  0  0  0  0
  9 10  1  0  0  0  0
  9  5  1  0  0  0  0
 11 10  1  0  0  0  0
 12 14  1  0  0  0  0
 12 11  1  0  0  0  0
 13 12  1  0  0  0  0
 14 15  1  0  0  0  0
 15  9  1  0  0  0  0
 17 16  1  0  0  0  0
M  END
>  <minimizedAffinity>
-4.11437368

$$$$

 OpenBabel03252504213D

 17 18  0  0  0  0  0  0  0  0999 V2000
   37.1410   30.2450   38.2330 C   0  0  0  0  0  0  0  0  0  0  0  0
   37.0440   31.5580   38.6920 C   0  0  0  0  0  0  0  0  0  0  0  0
   37.1990   31.7730   40.0830 C   0  0  0  0  0  0  0  0  0  0  0  0
   37.4310   30.7040   40.8760 N   0  0  0  0  0  0  0  0  0  0  0  0
   37.5170   29.4490   40.3830 C   0  0  0  0  0  0  0  0  0  0  0  0
   37.3750   29.2040   39.0700 N   0  0  0  0  0  0  0  0  0  0  0  0
   36.8580   32.3990   38.0380 H   0  0  0  0  0  0  0  0  0  0  0  0
   37.1390   32.7530   40.5150 H   0  0  0  0  0  0  0  0  0  0  0  0
   37.7620   28.3530   41.2600 N   0  0  0  0  0  0  0  0  0  0  0  0
   36.7580   27.7970   42.1470 C   0  0  0  0  0  2  0  0  0  0  0  0
   37.2460   27.7780   43.5800 C   0  0  0  0  0  2  0  0  0  0  0  0
   38.6170   27.1700   43.6750 C   0  0  0  0  0  3  0  0  0  0  0  0
   38.5910   26.1320   43.2940 H   0  0  0  0  0  0  0  0  0  0  0  0
   39.5400   27.9470   42.7570 C   0  0  0  0  0  2  0  0  0  0  0  0
   39.0660   27.7170   41.3160 C   0  0  0  0  0  2  0  0  0  0  0  0
   36.9290   30.0680   36.4530 S   0  0  0  0  0  0  0  0  0  0  0  0
   37.5160   28.8170   36.1410 H   0  0  0  0  0  0  0  0  0  0  0  0
  1  2  2  0  0  0  0
  1  6  1  0  0  0  0
  2  3  1  0  0  0  0
  3  8  1  0  0  0  0
  3  4  2  0  0  0  0
  5  4  1  0  0  0  0
  5  9  1  0  0  0  0
  6  5  2  0  0  0  0
  7  2  1  0  0  0  0
  9 15  1  0  0  0  0
  9 10  1  0  0  0  0
 10 11  1  0  0  0  0
 11 12  1  0  0  0  0
 13 12  1  0  0  0  0
 14 12  1  0  0  0  0
 15 14  1  0  0  0  0
 16  1  1  0  0  0  0
 17 16  1  0  0  0  0
M  END
>  <minimizedAffinity>
-4.11058998

$$$$

 OpenBabel03252504213D

 17 18  0  0  0  0  0  0  0  0999 V2000
   37.3790   26.9060   41.5980 C   0  0  0  0  0  0  0  0  0  0  0  0
   37.0840   27.0290   42.9540 C   0  0  0  0  0  0  0  0  0  0  0  0
   37.2080   28.3160   43.5320 C   0  0  0  0  0  0  0  0  0  0  0  0
   37.6000   29.3400   42.7410 N   0  0  0  0  0  0  0  0  0  0  0  0
   37.8750   29.1700   41.4290 C   0  0  0  0  0  0  0  0  0  0  0  0
   37.7700   27.9640   40.8450 N   0  0  0  0  0  0  0  0  0  0  0  0
   36.7710   26.1950   43.5680 H   0  0  0  0  0  0  0  0  0  0  0  0
   36.9990   28.4950   44.5690 H   0  0  0  0  0  0  0  0  0  0  0  0
   38.2860   30.2800   40.6370 N   0  0  0  0  0  0  0  0  0  0  0  0
   39.6110   30.8650   40.7050 C   0  0  0  0  0  2  0  0  0  0  0  0
   39.5370   32.3520   40.9850 C   0  0  0  0  0  2  0  0  0  0  0  0
   38.5660   33.0270   40.0580 C   0  0  0  0  0  3  0  0  0  0  0  0
   38.8860   32.8780   39.0110 H   0  0  0  0  0  0  0  0  0  0  0  0
   37.2220   32.3410   40.2040 C   0  0  0  0  0  2  0  0  0  0  0  0
   37.3750   30.9020   39.6920 C   0  0  0  0  0  2  0  0  0  0  0  0
   37.1950   25.2350   40.9510 S   0  0  0  0  0  0  0  0  0  0  0  0
   37.0650   25.4000   39.5510 H   0  0  0  0  0  0  0  0  0  0  0  0
  1  2  1  0  0  0  0
  2  3  2  0  0  0  0
  2  7  1  0  0  0  0
  3  8  1  0  0  0  0
  4  3  1  0  0  0  0
  5  4  2  0  0  0  0
  6  5  1  0  0  0  0
  6  1  2  0  0  0  0
  9 10  1  0  0  0  0
  9  5  1  0  0  0  0
 10 11  1  0  0  0  0
 12 14  1  0  0  0  0
 12 11  1  0  0  0  0
 13 12  1  0  0  0  0
 15 14  1  0  0  0  0
 15  9  1  0  0  0  0
 16  1  1  0  0  0  0
 17 16  1  0  0  0  0
M  END
>  <minimizedAffinity>
-3.94555187

$$$$

 OpenBabel03252504213D

 17 18  0  0  0  0  0  0  0  0999 V2000
   38.6810   26.6050   42.6050 C   0  0  0  0  0  0  0  0  0  0  0  0
   38.3220   27.4170   43.6800 C   0  0  0  0  0  0  0  0  0  0  0  0
   37.5420   28.5640   43.3960 C   0  0  0  0  0  0  0  0  0  0  0  0
   37.1920   28.8010   42.1120 N   0  0  0  0  0  0  0  0  0  0  0  0
   37.5650   27.9830   41.1030 C   0  0  0  0  0  0  0  0  0  0  0  0
   38.3070   26.8860   41.3320 N   0  0  0  0  0  0  0  0  0  0  0  0
   38.6130   27.2060   44.7000 H   0  0  0  0  0  0  0  0  0  0  0  0
   37.2240   29.2380   44.1670 H   0  0  0  0  0  0  0  0  0  0  0  0
   37.1730   28.2770   39.7650 N   0  0  0  0  0  0  0  0  0  0  0  0
   37.7780   29.3250   38.9650 C   0  0  0  0  0  2  0  0  0  0  0  0
   36.7300   30.2820   38.4370 C   0  0  0  0  0  2  0  0  0  0  0  0
   35.5940   29.5360   37.7960 C   0  0  0  0  0  3  0  0  0  0  0  0
   35.9760   28.9270   36.9550 H   0  0  0  0  0  0  0  0  0  0  0  0
   35.0330   28.5650   38.8150 C   0  0  0  0  0  2  0  0  0  0  0  0
   36.1190   27.5210   39.1120 C   0  0  0  0  0  2  0  0  0  0  0  0
   39.6730   25.1720   43.0600 S   0  0  0  0  0  0  0  0  0  0  0  0
   39.5250   24.2700   41.9790 H   0  0  0  0  0  0  0  0  0  0  0  0
  1 16  1  0  0  0  0
  1  2  1  0  0  0  0
  2  7  1  0  0  0  0
  3  2  2  0  0  0  0
  3  8  1  0  0  0  0
  4  3  1  0  0  0  0
  5  6  1  0  0  0  0
  5  4  2  0  0  0  0
  6  1  2  0  0  0  0
  9  5  1  0  0  0  0
 10  9  1  0  0  0  0
 11 10  1  0  0  0  0
 12 11  1  0  0  0  0
 12 14  1  0  0  0  0
 13 12  1  0  0  0  0
 14 15  1  0  0  0  0
 15  9  1  0  0  0  0
 17 16  1  0  0  0  0
M  END
>  <minimizedAffinity>
-3.93362403

$$$$

 OpenBabel03252504213D

 17 18  0  0  0  0  0  0  0  0999 V2000
   39.1850   31.4520   38.6850 C   0  0  0  0  0  0  0  0  0  0  0  0
   38.0000   32.1670   38.5220 C   0  0  0  0  0  0  0  0  0  0  0  0
   36.8930   31.7800   39.3160 C   0  0  0  0  0  0  0  0  0  0  0  0
   37.0500   30.7510   40.1790 N   0  0  0  0  0  0  0  0  0  0  0  0
   38.2220   30.0890   40.3010 C   0  0  0  0  0  0  0  0  0  0  0  0
   39.2940   30.4260   39.5640 N   0  0  0  0  0  0  0  0  0  0  0  0
   37.8970   32.9870   37.8250 H   0  0  0  0  0  0  0  0  0  0  0  0
   35.9460   32.2790   39.2500 H   0  0  0  0  0  0  0  0  0  0  0  0
   38.3380   29.0100   41.2240 N   0  0  0  0  0  0  0  0  0  0  0  0
   37.7680   27.6960   40.9950 C   0  0  0  0  0  2  0  0  0  0  0  0
   36.8690   27.2840   42.1420 C   0  0  0  0  0  2  0  0  0  0  0  0
   37.5550   27.4830   43.4630 C   0  0  0  0  0  3  0  0  0  0  0  0
   38.4780   26.8750   43.4990 H   0  0  0  0  0  0  0  0  0  0  0  0
   37.9870   28.9330   43.5560 C   0  0  0  0  0  2  0  0  0  0  0  0
   39.0530   29.1720   42.4780 C   0  0  0  0  0  2  0  0  0  0  0  0
   40.5360   32.0130   37.6340 S   0  0  0  0  0  0  0  0  0  0  0  0
   41.7090   31.5260   38.2590 H   0  0  0  0  0  0  0  0  0  0  0  0
  1  6  1  0  0  0  0
  2  1  2  0  0  0  0
  2  3  1  0  0  0  0
  3  4  2  0  0  0  0
  4  5  1  0  0  0  0
  5  9  1  0  0  0  0
  6  5  2  0  0  0  0
  7  2  1  0  0  0  0
  8  3  1  0  0  0  0
  9 15  1  0  0  0  0
 10  9  1  0  0  0  0
 10 11  1  0  0  0  0
 11 12  1  0  0  0  0
 12 13  1  0  0  0  0
 12 14  1  0  0  0  0
 15 14  1  0  0  0  0
 16 17  1  0  0  0  0
 16  1  1  0  0  0  0
M  END
>  <minimizedAffinity>
-3.89936447

$$$$

 OpenBabel03252504213D

 17 18  0  0  0  0  0  0  0  0999 V2000
   37.9290   32.0040   39.8330 C   0  0  0  0  0  0  0  0  0  0  0  0
   37.7650   31.3690   38.6030 C   0  0  0  0  0  0  0  0  0  0  0  0
   37.9320   29.9630   38.5700 C   0  0  0  0  0  0  0  0  0  0  0  0
   38.2370   29.3260   39.7230 N   0  0  0  0  0  0  0  0  0  0  0  0
   38.3860   29.9870   40.8920 C   0  0  0  0  0  0  0  0  0  0  0  0
   38.2360   31.3200   40.9630 N   0  0  0  0  0  0  0  0  0  0  0  0
   37.5210   31.9000   37.6940 H   0  0  0  0  0  0  0  0  0  0  0  0
   37.8230   29.4010   37.6640 H   0  0  0  0  0  0  0  0  0  0  0  0
   38.7080   29.2710   42.0800 N   0  0  0  0  0  0  0  0  0  0  0  0
   40.0290   28.7400   42.3610 C   0  0  0  0  0  2  0  0  0  0  0  0
   39.9690   27.2570   42.6600 C   0  0  0  0  0  2  0  0  0  0  0  0
   38.9070   26.9540   43.6790 C   0  0  0  0  0  3  0  0  0  0  0  0
   39.1260   27.4970   44.6170 H   0  0  0  0  0  0  0  0  0  0  0  0
   37.5890   27.4970   43.1610 C   0  0  0  0  0  2  0  0  0  0  0  0
   37.7060   29.0260   43.1010 C   0  0  0  0  0  2  0  0  0  0  0  0
   37.6990   33.7900   39.7780 S   0  0  0  0  0  0  0  0  0  0  0  0
   37.4340   34.1630   41.1190 H   0  0  0  0  0  0  0  0  0  0  0  0
  1  6  1  0  0  0  0
  2  1  2  0  0  0  0
  3  2  1  0  0  0  0
  3  4  2  0  0  0  0
  4  5  1  0  0  0  0
  5  6  2  0  0  0  0
  5  9  1  0  0  0  0
  7  2  1  0  0  0  0
  8  3  1  0  0  0  0
  9 10  1  0  0  0  0
  9 15  1  0  0  0  0
 10 11  1  0  0  0  0
 11 12  1  0  0  0  0
 12 13  1  0  0  0  0
 14 12  1  0  0  0  0
 15 14  1  0  0  0  0
 16  1  1  0  0  0  0
 16 17  1  0  0  0  0
M  END
>  <minimizedAffinity>
-3.83205891

$$$$

 OpenBabel03252504213D

 17 18  0  0  0  0  0  0  0  0999 V2000
   36.3100   28.6830   37.4210 C   0  0  0  0  0  0  0  0  0  0  0  0
   34.9670   29.0450   37.5110 C   0  0  0  0  0  0  0  0  0  0  0  0
   34.3850   29.0700   38.8020 C   0  0  0  0  0  0  0  0  0  0  0  0
   35.1590   28.7450   39.8610 N   0  0  0  0  0  0  0  0  0  0  0  0
   36.4590   28.4000   39.7230 C   0  0  0  0  0  0  0  0  0  0  0  0
   37.0460   28.3640   38.5150 N   0  0  0  0  0  0  0  0  0  0  0  0
   34.3670   29.3010   36.6490 H   0  0  0  0  0  0  0  0  0  0  0  0
   33.3580   29.3380   38.9560 H   0  0  0  0  0  0  0  0  0  0  0  0
   37.2330   28.0650   40.8700 N   0  0  0  0  0  0  0  0  0  0  0  0
   37.1090   26.8050   41.5800 C   0  0  0  0  0  2  0  0  0  0  0  0
   36.8340   27.0340   43.0510 C   0  0  0  0  0  2  0  0  0  0  0  0
   37.8010   28.0260   43.6330 C   0  0  0  0  0  3  0  0  0  0  0  0
   38.8340   27.6490   43.5190 H   0  0  0  0  0  0  0  0  0  0  0  0
   37.7120   29.3020   42.8210 C   0  0  0  0  0  2  0  0  0  0  0  0
   38.2160   28.9900   41.4050 C   0  0  0  0  0  2  0  0  0  0  0  0
   36.9630   28.6780   35.7420 S   0  0  0  0  0  0  0  0  0  0  0  0
   38.3680   28.7640   35.8990 H   0  0  0  0  0  0  0  0  0  0  0  0
  1  2  2  0  0  0  0
  1  6  1  0  0  0  0
  2  3  1  0  0  0  0
  3  8  1  0  0  0  0
  3  4  2  0  0  0  0
  5  4  1  0  0  0  0
  5  9  1  0  0  0  0
  6  5  2  0  0  0  0
  7  2  1  0  0  0  0
  9 15  1  0  0  0  0
  9 10  1  0  0  0  0
 10 11  1  0  0  0  0
 11 12  1  0  0  0  0
 13 12  1  0  0  0  0
 14 12  1  0  0  0  0
 15 14  1  0  0  0  0
 16 17  1  0  0  0  0
 16  1  1  0  0  0  0
M  END
>  <minimizedAffinity>
-3.82069635

$$$$

 OpenBabel03252504213D

 17 18  0  0  0  0  0  0  0  0999 V2000
   38.4700   28.9390   42.3070 C   0  0  0  0  0  0  0  0  0  0  0  0
   37.6840   28.9150   43.4570 C   0  0  0  0  0  0  0  0  0  0  0  0
   36.8820   27.7680   43.6730 C   0  0  0  0  0  0  0  0  0  0  0  0
   36.9270   26.7720   42.7590 N   0  0  0  0  0  0  0  0  0  0  0  0
   37.7070   26.8430   41.6580 C   0  0  0  0  0  0  0  0  0  0  0  0
   38.4810   27.9150   41.4190 N   0  0  0  0  0  0  0  0  0  0  0  0
   37.6640   29.7240   44.1750 H   0  0  0  0  0  0  0  0  0  0  0  0
   36.2490   27.6720   44.5340 H   0  0  0  0  0  0  0  0  0  0  0  0
   37.7190   25.7680   40.7240 N   0  0  0  0  0  0  0  0  0  0  0  0
   36.6430   25.5090   39.7860 C   0  0  0  0  0  2  0  0  0  0  0  0
   36.1340   24.0890   39.9170 C   0  0  0  0  0  2  0  0  0  0  0  0
   37.2700   23.1060   39.9020 C   0  0  0  0  0  3  0  0  0  0  0  0
   37.8290   23.1970   38.9530 H   0  0  0  0  0  0  0  0  0  0  0  0
   38.2330   23.4830   41.0110 C   0  0  0  0  0  2  0  0  0  0  0  0
   38.8400   24.8470   40.6570 C   0  0  0  0  0  2  0  0  0  0  0  0
   39.4540   30.4360   42.1160 S   0  0  0  0  0  0  0  0  0  0  0  0
   40.4850   30.0800   41.2130 H   0  0  0  0  0  0  0  0  0  0  0  0
  1  2  1  0  0  0  0
  2  3  2  0  0  0  0
  2  7  1  0  0  0  0
  3  8  1  0  0  0  0
  4  3  1  0  0  0  0
  5  4  2  0  0  0  0
  6  5  1  0  0  0  0
  6  1  2  0  0  0  0
  9  5  1  0  0  0  0
 10 11  1  0  0  0  0
 10  9  1  0  0  0  0
 12 11  1  0  0  0  0
 12 14  1  0  0  0  0
 13 12  1  0  0  0  0
 15  9  1  0  0  0  0
 15 14  1  0  0  0  0
 16  1  1  0  0  0  0
 17 16  1  0  0  0  0
M  END
>  <minimizedAffinity>
-3.82050061

$$$$
