
 OpenBabel03252506273D

 45 49  0  0  0  0  0  0  0  0999 V2000
   46.3490   31.0550   49.0520 C   0  0  0  0  0  0  0  0  0  0  0  0
   47.0970   30.2870   49.3030 H   0  0  0  0  0  0  0  0  0  0  0  0
   46.4220   31.8510   49.8170 H   0  0  0  0  0  0  0  0  0  0  0  0
   46.4300   32.8440   45.9520 C   0  0  0  0  0  0  0  0  0  0  0  0
   47.3960   31.8510   45.7440 C   0  0  0  0  0  0  0  0  0  0  0  0
   47.4870   31.0810   46.8410 C   0  0  0  0  0  0  0  0  0  0  0  0
   46.5970   31.5780   47.7170 N   0  0  0  0  0  0  0  0  0  0  0  0
   45.9600   32.6290   47.2000 N   0  0  0  0  0  0  0  0  0  0  0  0
   47.9650   31.7510   44.8250 H   0  0  0  0  0  0  0  0  0  0  0  0
   48.1420   30.2370   46.9810 H   0  0  0  0  0  0  0  0  0  0  0  0
   44.6350   35.5930   44.3550 C   0  0  0  0  0  0  0  0  0  0  0  0
   45.3380   35.7910   43.1810 C   0  0  0  0  0  0  0  0  0  0  0  0
   46.4380   34.9760   42.9300 C   0  0  0  0  0  0  0  0  0  0  0  0
   46.7310   34.0430   43.8750 N   0  0  0  0  0  0  0  0  0  0  0  0
   46.0510   33.8650   44.9930 C   0  0  0  0  0  0  0  0  0  0  0  0
   44.9870   34.6500   45.2390 N   0  0  0  0  0  0  0  0  0  0  0  0
   43.7900   36.2600   44.4920 H   0  0  0  0  0  0  0  0  0  0  0  0
   45.1560   36.5100   42.4000 H   0  0  0  0  0  0  0  0  0  0  0  0
   47.3120   34.9850   41.8050 N   0  0  0  0  0  0  0  0  0  0  0  0
   47.0640   34.2650   40.5650 C   0  0  0  0  0  0  0  0  0  0  0  0
   48.1280   33.2080   40.4430 C   0  0  0  0  0  0  0  0  0  0  0  0
   49.1520   33.2840   41.5490 C   0  0  0  0  0  0  0  0  0  0  0  0
   48.7780   32.7900   42.4750 H   0  0  0  0  0  0  0  0  0  0  0  0
   49.6540   34.6780   41.8150 C   0  0  0  0  0  0  0  0  0  0  0  0
   48.5640   35.7230   41.7720 C   0  0  0  0  0  0  0  0  0  0  0  0
   45.0040   30.4310   49.1200 C   0  0  0  0  0  0  0  0  0  0  0  0
   44.2320   31.2000   48.8640 H   0  0  0  0  0  0  0  0  0  0  0  0
   44.8070   30.2060   50.1960 H   0  0  0  0  0  0  0  0  0  0  0  0
   44.9620   27.8900   48.7400 C   0  0  0  0  0  0  0  0  0  0  0  0
   44.8090   29.2110   48.3560 C   0  0  0  0  0  0  0  0  0  0  0  0
   44.4060   29.4100   47.0330 C   0  0  0  0  0  0  0  0  0  0  0  0
   44.1770   28.3620   46.1740 C   0  0  0  0  0  0  0  0  0  0  0  0
   43.7960   28.2580   44.8950 N   0  0  0  0  0  0  0  0  0  0  0  0
   43.7150   26.9840   44.5060 C   0  0  0  0  0  0  0  0  0  0  0  0
   44.0620   26.1710   45.5840 C   0  0  0  0  0  0  0  0  0  0  0  0
   44.3370   27.0640   46.5830 C   0  0  0  0  0  0  0  0  0  0  0  0
   44.7340   26.8500   47.8830 C   0  0  0  0  0  0  0  0  0  0  0  0
   45.2790   27.7870   49.7830 H   0  0  0  0  0  0  0  0  0  0  0  0
   44.2490   30.3900   46.6030 H   0  0  0  0  0  0  0  0  0  0  0  0
   43.5800   29.0520   44.2530 H   0  0  0  0  0  0  0  0  0  0  0  0
   43.4300   26.6130   43.5220 H   0  0  0  0  0  0  0  0  0  0  0  0
   44.0990   25.0790   45.6040 H   0  0  0  0  0  0  0  0  0  0  0  0
   44.9210   25.4910   48.3770 C   0  0  0  0  0  0  0  0  0  0  0  0
   45.2850   25.2490   49.5520 O   0  0  0  0  0  0  0  0  0  0  0  0
   44.7420   24.6450   47.7100 H   0  0  0  0  0  0  0  0  0  0  0  0
  1 26  1  0  0  0  0
  1  2  1  0  0  0  0
  1  3  1  0  0  0  0
  4  8  2  0  0  0  0
  5  4  1  0  0  0  0
  5  6  2  0  0  0  0
  6 10  1  0  0  0  0
  6  7  1  0  0  0  0
  7  1  1  0  0  0  0
  8  7  1  0  0  0  0
  9  5  1  0  0  0  0
 11 17  1  0  0  0  0
 11 16  1  0  0  0  0
 12 11  2  0  0  0  0
 13 12  1  0  0  0  0
 13 14  2  0  0  0  0
 14 15  1  0  0  0  0
 15 16  2  0  0  0  0
 15  4  1  0  0  0  0
 18 12  1  0  0  0  0
 19 13  1  0  0  0  0
 20 19  1  0  0  0  0
 21 20  1  0  0  0  0
 21 22  1  0  0  0  0
 22 24  1  0  0  0  0
 22 23  1  0  0  0  0
 25 19  1  0  0  0  0
 25 24  1  0  0  0  0
 26 28  1  0  0  0  0
 27 26  1  0  0  0  0
 29 38  1  0  0  0  0
 30 29  1  0  0  0  0
 30 26  1  0  0  0  0
 31 30  2  0  0  0  0
 32 36  2  0  0  0  0
 32 31  1  0  0  0  0
 33 32  1  0  0  0  0
 34 33  1  0  0  0  0
 34 35  2  0  0  0  0
 35 42  1  0  0  0  0
 35 36  1  0  0  0  0
 36 37  1  0  0  0  0
 37 43  1  0  0  0  0
 37 29  2  0  0  0  0
 39 31  1  0  0  0  0
 40 33  1  0  0  0  0
 41 34  1  0  0  0  0
 43 44  2  0  0  0  0
 45 43  1  0  0  0  0
M  END
>  <minimizedAffinity>
-5.94676638

>  <minimizedRMSD>
1.19417393

$$$$
