
 OpenBabel03252501303D

 36 38  0  0  0  0  0  0  0  0999 V2000
   36.2760   28.8460   40.4880 C   0  0  0  0  0  0  0  0  0  0  0  0
   36.2000   27.9100   39.4850 C   0  0  0  0  0  0  0  0  0  0  0  0
   36.5650   26.6050   39.6330 C   0  0  0  0  0  0  0  0  0  0  0  0
   37.0300   26.1960   40.8300 C   0  0  0  0  0  0  0  0  0  0  0  0
   37.1210   27.1080   41.8650 C   0  0  0  0  0  0  0  0  0  0  0  0
   36.7430   28.4420   41.7010 C   0  0  0  0  0  0  0  0  0  0  0  0
   35.8090   28.3420   38.5470 H   0  0  0  0  0  0  0  0  0  0  0  0
   36.4240   26.0380   38.7260 H   0  0  0  0  0  0  0  0  0  0  0  0
   37.5170   26.6350   42.7810 H   0  0  0  0  0  0  0  0  0  0  0  0
   37.4200   24.8260   40.9690 N   0  0  0  0  0  0  0  0  0  0  0  0
   36.6190   23.6910   40.5670 C   0  0  0  0  0  2  0  0  0  0  0  0
   37.5420   22.5280   40.2320 C   0  0  0  0  0  2  0  0  0  0  0  0
   38.8070   22.9720   39.5450 C   0  0  0  0  0  3  0  0  0  0  0  0
   38.5910   23.2820   38.5070 H   0  0  0  0  0  0  0  0  0  0  0  0
   39.5430   24.0330   40.3340 C   0  0  0  0  0  2  0  0  0  0  0  0
   38.6740   24.4090   41.5460 C   0  0  0  0  0  2  0  0  0  0  0  0
   38.3220   29.3230   43.3040 C   0  0  0  0  0  0  0  0  0  0  0  0
   39.5040   29.1360   42.8310 O   0  0  0  0  0  0  0  0  0  0  0  0
   36.9520   29.0690   42.9670 N   0  0  0  0  0  0  0  0  0  0  0  0
   38.6880   29.8280   44.2120 H   0  0  0  0  0  0  0  0  0  0  0  0
   36.3500   29.3960   43.7240 H   0  0  0  0  0  0  0  0  0  0  0  0
   35.9400   30.2720   40.4590 C   0  0  0  0  0  0  0  0  0  0  0  0
   36.2600   30.8070   41.3920 H   0  0  0  0  0  0  0  0  0  0  0  0
   34.8310   30.3520   40.4520 H   0  0  0  0  0  0  0  0  0  0  0  0
   36.5720   30.9700   39.2860 C   0  0  0  0  0  0  0  0  0  0  0  0
   35.7610   31.5120   38.7350 H   0  0  0  0  0  0  0  0  0  0  0  0
   37.0460   30.2310   38.5870 H   0  0  0  0  0  0  0  0  0  0  0  0
   38.2150   34.1600   40.0100 C   0  0  0  0  0  0  0  0  0  0  0  0
   39.3560   33.7660   40.7390 C   0  0  0  0  0  0  0  0  0  0  0  0
   39.5100   32.3990   40.9540 C   0  0  0  0  0  0  0  0  0  0  0  0
   38.6010   31.5290   40.4780 N   0  0  0  0  0  0  0  0  0  0  0  0
   37.5280   31.9750   39.7860 C   0  0  0  0  0  0  0  0  0  0  0  0
   37.3250   33.2490   39.5500 N   0  0  0  0  0  0  0  0  0  0  0  0
   37.9970   35.2160   39.7830 H   0  0  0  0  0  0  0  0  0  0  0  0
   40.0370   34.5090   41.0870 H   0  0  0  0  0  0  0  0  0  0  0  0
   40.3880   32.0660   41.5180 H   0  0  0  0  0  0  0  0  0  0  0  0
  1  6  1  0  0  0  0
  2  3  1  0  0  0  0
  2  1  2  0  0  0  0
  3  4  2  0  0  0  0
  4 10  1  0  0  0  0
  4  5  1  0  0  0  0
  5  9  1  0  0  0  0
  6  5  2  0  0  0  0
  6 19  1  0  0  0  0
  7  2  1  0  0  0  0
  8  3  1  0  0  0  0
 10 16  1  0  0  0  0
 11 10  1  0  0  0  0
 12 11  1  0  0  0  0
 13 12  1  0  0  0  0
 13 15  1  0  0  0  0
 14 13  1  0  0  0  0
 15 16  1  0  0  0  0
 17 20  1  0  0  0  0
 18 17  2  0  0  0  0
 19 17  1  0  0  0  0
 19 21  1  0  0  0  0
 22  1  1  0  0  0  0
 22 23  1  0  0  0  0
 24 22  1  0  0  0  0
 25 32  1  0  0  0  0
 25 22  1  0  0  0  0
 26 25  1  0  0  0  0
 27 25  1  0  0  0  0
 28 29  1  0  0  0  0
 29 30  2  0  0  0  0
 29 35  1  0  0  0  0
 30 36  1  0  0  0  0
 31 30  1  0  0  0  0
 32 31  2  0  0  0  0
 33 32  1  0  0  0  0
 33 28  2  0  0  0  0
 34 28  1  0  0  0  0
M  END
>  <minimizedAffinity>
-5.56196451

$$$$

 OpenBabel03252501303D

 36 38  0  0  0  0  0  0  0  0999 V2000
   35.9140   28.3050   39.3480 C   0  0  0  0  0  0  0  0  0  0  0  0
   36.4740   27.0560   39.2270 C   0  0  0  0  0  0  0  0  0  0  0  0
   37.1670   26.4330   40.2220 C   0  0  0  0  0  0  0  0  0  0  0  0
   37.3200   27.0710   41.4000 C   0  0  0  0  0  0  0  0  0  0  0  0
   36.7700   28.3300   41.5610 C   0  0  0  0  0  0  0  0  0  0  0  0
   36.0620   28.9570   40.5340 C   0  0  0  0  0  0  0  0  0  0  0  0
   36.2950   26.6180   38.2290 H   0  0  0  0  0  0  0  0  0  0  0  0
   37.5190   25.4580   39.9240 H   0  0  0  0  0  0  0  0  0  0  0  0
   36.9740   28.7290   42.5700 H   0  0  0  0  0  0  0  0  0  0  0  0
   38.0580   26.4120   42.4330 N   0  0  0  0  0  0  0  0  0  0  0  0
   38.4520   25.0200   42.4120 C   0  0  0  0  0  2  0  0  0  0  0  0
   39.7140   24.8510   43.2470 C   0  0  0  0  0  2  0  0  0  0  0  0
   40.6620   26.0130   43.1070 C   0  0  0  0  0  3  0  0  0  0  0  0
   41.1470   25.9940   42.1150 H   0  0  0  0  0  0  0  0  0  0  0  0
   39.9920   27.3360   43.4070 C   0  0  0  0  0  2  0  0  0  0  0  0
   38.4960   27.0660   43.6410 C   0  0  0  0  0  2  0  0  0  0  0  0
   36.5430   31.3020   40.8570 C   0  0  0  0  0  0  0  0  0  0  0  0
   37.7050   31.5360   40.3540 O   0  0  0  0  0  0  0  0  0  0  0  0
   35.6340   30.2130   41.0600 N   0  0  0  0  0  0  0  0  0  0  0  0
   36.3820   32.3510   41.1530 H   0  0  0  0  0  0  0  0  0  0  0  0
   34.8110   30.5470   41.5650 H   0  0  0  0  0  0  0  0  0  0  0  0
   35.1690   29.0910   38.3600 C   0  0  0  0  0  0  0  0  0  0  0  0
   35.5120   28.8960   37.3110 H   0  0  0  0  0  0  0  0  0  0  0  0
   35.4070   30.1620   38.5420 H   0  0  0  0  0  0  0  0  0  0  0  0
   33.6920   28.8120   38.4240 C   0  0  0  0  0  0  0  0  0  0  0  0
   33.2540   29.4780   39.2120 H   0  0  0  0  0  0  0  0  0  0  0  0
   33.4970   27.7450   38.7100 H   0  0  0  0  0  0  0  0  0  0  0  0
   33.2080   29.4310   34.8490 C   0  0  0  0  0  0  0  0  0  0  0  0
   31.8740   29.8840   34.7880 C   0  0  0  0  0  0  0  0  0  0  0  0
   31.1890   29.9550   35.9980 C   0  0  0  0  0  0  0  0  0  0  0  0
   31.7980   29.6030   37.1460 N   0  0  0  0  0  0  0  0  0  0  0  0
   33.0810   29.1760   37.1340 C   0  0  0  0  0  0  0  0  0  0  0  0
   33.7800   29.0870   36.0280 N   0  0  0  0  0  0  0  0  0  0  0  0
   33.8390   29.3370   33.9520 H   0  0  0  0  0  0  0  0  0  0  0  0
   31.4530   30.1460   33.8450 H   0  0  0  0  0  0  0  0  0  0  0  0
   30.1500   30.3030   35.9790 H   0  0  0  0  0  0  0  0  0  0  0  0
  1  6  1  0  0  0  0
  2  1  2  0  0  0  0
  2  3  1  0  0  0  0
  3  4  2  0  0  0  0
  4  5  1  0  0  0  0
  4 10  1  0  0  0  0
  5  9  1  0  0  0  0
  6 19  1  0  0  0  0
  6  5  2  0  0  0  0
  7  2  1  0  0  0  0
  8  3  1  0  0  0  0
 10 16  1  0  0  0  0
 11 10  1  0  0  0  0
 11 12  1  0  0  0  0
 13 12  1  0  0  0  0
 13 15  1  0  0  0  0
 14 13  1  0  0  0  0
 15 16  1  0  0  0  0
 17 19  1  0  0  0  0
 17 20  1  0  0  0  0
 18 17  2  0  0  0  0
 19 21  1  0  0  0  0
 22 25  1  0  0  0  0
 22 24  1  0  0  0  0
 22  1  1  0  0  0  0
 23 22  1  0  0  0  0
 25 27  1  0  0  0  0
 25 26  1  0  0  0  0
 28 33  1  0  0  0  0
 29 28  2  0  0  0  0
 29 30  1  0  0  0  0
 30 31  2  0  0  0  0
 32 31  1  0  0  0  0
 32 25  1  0  0  0  0
 33 32  2  0  0  0  0
 34 28  1  0  0  0  0
 35 29  1  0  0  0  0
 36 30  1  0  0  0  0
M  END
>  <minimizedAffinity>
-5.46970463

$$$$

 OpenBabel03252501303D

 36 38  0  0  0  0  0  0  0  0999 V2000
   38.0940   29.3500   42.8120 C   0  0  0  0  0  0  0  0  0  0  0  0
   39.2760   30.0460   42.8930 C   0  0  0  0  0  0  0  0  0  0  0  0
   39.6240   31.0560   42.0470 C   0  0  0  0  0  0  0  0  0  0  0  0
   38.7650   31.4040   41.0670 C   0  0  0  0  0  0  0  0  0  0  0  0
   37.5640   30.7270   40.9530 C   0  0  0  0  0  0  0  0  0  0  0  0
   37.2190   29.6940   41.8270 C   0  0  0  0  0  0  0  0  0  0  0  0
   39.9090   29.6870   43.7240 H   0  0  0  0  0  0  0  0  0  0  0  0
   40.5910   31.4720   42.2860 H   0  0  0  0  0  0  0  0  0  0  0  0
   36.9650   31.1160   40.1110 H   0  0  0  0  0  0  0  0  0  0  0  0
   39.1460   32.4590   40.1800 N   0  0  0  0  0  0  0  0  0  0  0  0
   39.9760   33.5880   40.5410 C   0  0  0  0  0  2  0  0  0  0  0  0
   40.6990   34.0870   39.2980 C   0  0  0  0  0  2  0  0  0  0  0  0
   41.1250   32.9660   38.3860 C   0  0  0  0  0  3  0  0  0  0  0  0
   41.9720   32.4130   38.8280 H   0  0  0  0  0  0  0  0  0  0  0  0
   39.9680   32.0660   38.0100 C   0  0  0  0  0  2  0  0  0  0  0  0
   38.7330   32.5280   38.8010 C   0  0  0  0  0  2  0  0  0  0  0  0
   35.9050   28.3310   40.3260 C   0  0  0  0  0  0  0  0  0  0  0  0
   36.7160   27.7540   39.5100 O   0  0  0  0  0  0  0  0  0  0  0  0
   35.9230   29.2530   41.4230 N   0  0  0  0  0  0  0  0  0  0  0  0
   35.0140   27.8500   39.8930 H   0  0  0  0  0  0  0  0  0  0  0  0
   34.9660   29.4350   41.7300 H   0  0  0  0  0  0  0  0  0  0  0  0
   37.6090   28.2380   43.6340 C   0  0  0  0  0  0  0  0  0  0  0  0
   36.6230   27.8400   43.2780 H   0  0  0  0  0  0  0  0  0  0  0  0
   37.4010   28.6420   44.6490 H   0  0  0  0  0  0  0  0  0  0  0  0
   38.5870   27.0960   43.6610 C   0  0  0  0  0  0  0  0  0  0  0  0
   38.4090   26.5170   44.6040 H   0  0  0  0  0  0  0  0  0  0  0  0
   39.6440   27.4720   43.6670 H   0  0  0  0  0  0  0  0  0  0  0  0
   36.9180   24.7500   41.3990 C   0  0  0  0  0  0  0  0  0  0  0  0
   37.8800   24.5540   40.3860 C   0  0  0  0  0  0  0  0  0  0  0  0
   39.0770   25.2510   40.5280 C   0  0  0  0  0  0  0  0  0  0  0  0
   39.2730   26.0590   41.5860 N   0  0  0  0  0  0  0  0  0  0  0  0
   38.3080   26.2010   42.5230 C   0  0  0  0  0  0  0  0  0  0  0  0
   37.1590   25.5740   42.4470 N   0  0  0  0  0  0  0  0  0  0  0  0
   35.9380   24.2480   41.3850 H   0  0  0  0  0  0  0  0  0  0  0  0
   37.6590   23.9000   39.5750 H   0  0  0  0  0  0  0  0  0  0  0  0
   39.8420   25.1170   39.7550 H   0  0  0  0  0  0  0  0  0  0  0  0
  1  2  1  0  0  0  0
  1 22  1  0  0  0  0
  2  7  1  0  0  0  0
  3  8  1  0  0  0  0
  3  2  2  0  0  0  0
  4  3  1  0  0  0  0
  5  4  2  0  0  0  0
  5  6  1  0  0  0  0
  6  1  2  0  0  0  0
  9  5  1  0  0  0  0
 10 11  1  0  0  0  0
 10  4  1  0  0  0  0
 12 11  1  0  0  0  0
 13 14  1  0  0  0  0
 13 12  1  0  0  0  0
 15 13  1  0  0  0  0
 15 16  1  0  0  0  0
 16 10  1  0  0  0  0
 17 19  1  0  0  0  0
 18 17  2  0  0  0  0
 19 21  1  0  0  0  0
 19  6  1  0  0  0  0
 20 17  1  0  0  0  0
 22 25  1  0  0  0  0
 22 24  1  0  0  0  0
 23 22  1  0  0  0  0
 25 27  1  0  0  0  0
 25 26  1  0  0  0  0
 28 33  1  0  0  0  0
 29 30  1  0  0  0  0
 29 28  2  0  0  0  0
 30 31  2  0  0  0  0
 31 32  1  0  0  0  0
 32 25  1  0  0  0  0
 33 32  2  0  0  0  0
 34 28  1  0  0  0  0
 35 29  1  0  0  0  0
 36 30  1  0  0  0  0
M  END
>  <minimizedAffinity>
-5.40164089

$$$$

 OpenBabel03252501303D

 36 38  0  0  0  0  0  0  0  0999 V2000
   36.5680   28.1710   41.1220 C   0  0  0  0  0  0  0  0  0  0  0  0
   36.6680   27.0770   40.2980 C   0  0  0  0  0  0  0  0  0  0  0  0
   36.2430   27.0580   39.0030 C   0  0  0  0  0  0  0  0  0  0  0  0
   35.6880   28.1740   38.4890 C   0  0  0  0  0  0  0  0  0  0  0  0
   35.5700   29.2970   39.2870 C   0  0  0  0  0  0  0  0  0  0  0  0
   36.0110   29.3040   40.6120 C   0  0  0  0  0  0  0  0  0  0  0  0
   37.1340   26.2160   40.8100 H   0  0  0  0  0  0  0  0  0  0  0  0
   36.4180   26.1040   38.5310 H   0  0  0  0  0  0  0  0  0  0  0  0
   35.0990   30.1310   38.7360 H   0  0  0  0  0  0  0  0  0  0  0  0
   35.2370   28.1390   37.1320 N   0  0  0  0  0  0  0  0  0  0  0  0
   34.0340   28.7740   36.6400 C   0  0  0  0  0  2  0  0  0  0  0  0
   34.2180   29.1080   35.1670 C   0  0  0  0  0  2  0  0  0  0  0  0
   35.6190   29.5600   34.8450 C   0  0  0  0  0  3  0  0  0  0  0  0
   35.7940   30.5750   35.2420 H   0  0  0  0  0  0  0  0  0  0  0  0
   36.6590   28.5610   35.3040 C   0  0  0  0  0  2  0  0  0  0  0  0
   35.9360   27.4470   36.0770 C   0  0  0  0  0  2  0  0  0  0  0  0
   36.6870   31.6210   40.7040 C   0  0  0  0  0  0  0  0  0  0  0  0
   37.7750   31.7390   40.0260 O   0  0  0  0  0  0  0  0  0  0  0  0
   35.7480   30.6160   41.1080 N   0  0  0  0  0  0  0  0  0  0  0  0
   36.6400   32.6940   40.9490 H   0  0  0  0  0  0  0  0  0  0  0  0
   35.0320   31.0390   41.7010 H   0  0  0  0  0  0  0  0  0  0  0  0
   36.9610   28.3190   42.5270 C   0  0  0  0  0  0  0  0  0  0  0  0
   37.0060   27.3360   43.0640 H   0  0  0  0  0  0  0  0  0  0  0  0
   36.1550   28.8870   43.0390 H   0  0  0  0  0  0  0  0  0  0  0  0
   38.3050   28.9830   42.6620 C   0  0  0  0  0  0  0  0  0  0  0  0
   38.2400   29.7120   43.5100 H   0  0  0  0  0  0  0  0  0  0  0  0
   38.5720   29.5440   41.7280 H   0  0  0  0  0  0  0  0  0  0  0  0
   39.8560   25.8260   43.6760 C   0  0  0  0  0  0  0  0  0  0  0  0
   41.2310   26.1400   43.6790 C   0  0  0  0  0  0  0  0  0  0  0  0
   41.5680   27.4430   43.3230 C   0  0  0  0  0  0  0  0  0  0  0  0
   40.6090   28.3300   43.0010 N   0  0  0  0  0  0  0  0  0  0  0  0
   39.3070   27.9630   43.0190 C   0  0  0  0  0  0  0  0  0  0  0  0
   38.9240   26.7510   43.3440 N   0  0  0  0  0  0  0  0  0  0  0  0
   39.4800   24.8250   43.9420 H   0  0  0  0  0  0  0  0  0  0  0  0
   41.9390   25.3890   43.9450 H   0  0  0  0  0  0  0  0  0  0  0  0
   42.6300   27.7130   43.3170 H   0  0  0  0  0  0  0  0  0  0  0  0
  1 22  1  0  0  0  0
  2  7  1  0  0  0  0
  2  1  2  0  0  0  0
  3  2  1  0  0  0  0
  4  3  2  0  0  0  0
  4  5  1  0  0  0  0
  5  6  2  0  0  0  0
  6 19  1  0  0  0  0
  6  1  1  0  0  0  0
  8  3  1  0  0  0  0
  9  5  1  0  0  0  0
 10  4  1  0  0  0  0
 11 10  1  0  0  0  0
 12 11  1  0  0  0  0
 13 12  1  0  0  0  0
 13 14  1  0  0  0  0
 13 15  1  0  0  0  0
 15 16  1  0  0  0  0
 16 10  1  0  0  0  0
 17 20  1  0  0  0  0
 17 19  1  0  0  0  0
 18 17  2  0  0  0  0
 19 21  1  0  0  0  0
 22 25  1  0  0  0  0
 22 24  1  0  0  0  0
 22 23  1  0  0  0  0
 25 32  1  0  0  0  0
 25 26  1  0  0  0  0
 27 25  1  0  0  0  0
 28 29  1  0  0  0  0
 28 34  1  0  0  0  0
 29 35  1  0  0  0  0
 30 29  2  0  0  0  0
 31 32  2  0  0  0  0
 31 30  1  0  0  0  0
 32 33  1  0  0  0  0
 33 28  2  0  0  0  0
 36 30  1  0  0  0  0
M  END
>  <minimizedAffinity>
-5.38228369

$$$$

 OpenBabel03252501303D

 36 38  0  0  0  0  0  0  0  0999 V2000
   35.7730   28.2790   39.7160 C   0  0  0  0  0  0  0  0  0  0  0  0
   36.2570   26.9990   39.5890 C   0  0  0  0  0  0  0  0  0  0  0  0
   37.0530   26.3900   40.5130 C   0  0  0  0  0  0  0  0  0  0  0  0
   37.3950   27.0760   41.6220 C   0  0  0  0  0  0  0  0  0  0  0  0
   36.9280   28.3670   41.7880 C   0  0  0  0  0  0  0  0  0  0  0  0
   36.1120   28.9780   40.8340 C   0  0  0  0  0  0  0  0  0  0  0  0
   35.9220   26.5240   38.6500 H   0  0  0  0  0  0  0  0  0  0  0  0
   37.3180   25.3860   40.2230 H   0  0  0  0  0  0  0  0  0  0  0  0
   37.2870   28.8030   42.7370 H   0  0  0  0  0  0  0  0  0  0  0  0
   38.2390   26.4300   42.5800 N   0  0  0  0  0  0  0  0  0  0  0  0
   38.5660   25.0210   42.5820 C   0  0  0  0  0  2  0  0  0  0  0  0
   39.9220   24.8280   43.2450 C   0  0  0  0  0  2  0  0  0  0  0  0
   40.8910   25.9330   42.9140 C   0  0  0  0  0  3  0  0  0  0  0  0
   41.2340   25.8410   41.8680 H   0  0  0  0  0  0  0  0  0  0  0  0
   40.3280   27.3010   43.2300 C   0  0  0  0  0  2  0  0  0  0  0  0
   38.8680   27.1180   43.6800 C   0  0  0  0  0  2  0  0  0  0  0  0
   36.7540   31.3020   40.9910 C   0  0  0  0  0  0  0  0  0  0  0  0
   37.8620   31.4460   40.3520 O   0  0  0  0  0  0  0  0  0  0  0  0
   35.8160   30.2780   41.3440 N   0  0  0  0  0  0  0  0  0  0  0  0
   36.6850   32.3700   41.2530 H   0  0  0  0  0  0  0  0  0  0  0  0
   35.0750   30.6810   41.9210 H   0  0  0  0  0  0  0  0  0  0  0  0
   34.9340   29.0540   38.7980 C   0  0  0  0  0  0  0  0  0  0  0  0
   35.4870   29.9110   38.3320 H   0  0  0  0  0  0  0  0  0  0  0  0
   34.1320   29.5290   39.4030 H   0  0  0  0  0  0  0  0  0  0  0  0
   34.3860   28.1990   37.6880 C   0  0  0  0  0  0  0  0  0  0  0  0
   33.3040   28.4610   37.5590 H   0  0  0  0  0  0  0  0  0  0  0  0
   34.4610   27.1100   37.9460 H   0  0  0  0  0  0  0  0  0  0  0  0
   36.5440   29.8560   35.2390 C   0  0  0  0  0  0  0  0  0  0  0  0
   36.3280   29.0990   34.0690 C   0  0  0  0  0  0  0  0  0  0  0  0
   35.4370   28.0340   34.1780 C   0  0  0  0  0  0  0  0  0  0  0  0
   34.8330   27.7690   35.3500 N   0  0  0  0  0  0  0  0  0  0  0  0
   35.0850   28.5370   36.4350 C   0  0  0  0  0  0  0  0  0  0  0  0
   35.9130   29.5530   36.3990 N   0  0  0  0  0  0  0  0  0  0  0  0
   37.2270   30.7190   35.2640 H   0  0  0  0  0  0  0  0  0  0  0  0
   36.8400   29.3640   33.1730 H   0  0  0  0  0  0  0  0  0  0  0  0
   35.2520   27.4290   33.2830 H   0  0  0  0  0  0  0  0  0  0  0  0
  1  6  1  0  0  0  0
  2  1  2  0  0  0  0
  2  3  1  0  0  0  0
  3  4  2  0  0  0  0
  4  5  1  0  0  0  0
  4 10  1  0  0  0  0
  5  9  1  0  0  0  0
  6 19  1  0  0  0  0
  6  5  2  0  0  0  0
  7  2  1  0  0  0  0
  8  3  1  0  0  0  0
 10 11  1  0  0  0  0
 10 16  1  0  0  0  0
 11 12  1  0  0  0  0
 13 15  1  0  0  0  0
 13 12  1  0  0  0  0
 14 13  1  0  0  0  0
 15 16  1  0  0  0  0
 17 20  1  0  0  0  0
 17 19  1  0  0  0  0
 18 17  2  0  0  0  0
 19 21  1  0  0  0  0
 22 24  1  0  0  0  0
 22  1  1  0  0  0  0
 23 22  1  0  0  0  0
 25 27  1  0  0  0  0
 25 22  1  0  0  0  0
 26 25  1  0  0  0  0
 28 34  1  0  0  0  0
 28 33  1  0  0  0  0
 29 30  1  0  0  0  0
 29 28  2  0  0  0  0
 30 31  2  0  0  0  0
 31 32  1  0  0  0  0
 32 25  1  0  0  0  0
 33 32  2  0  0  0  0
 35 29  1  0  0  0  0
 36 30  1  0  0  0  0
M  END
>  <minimizedAffinity>
-5.37402391

$$$$

 OpenBabel03252501303D

 36 38  0  0  0  0  0  0  0  0999 V2000
   34.2530   28.8800   37.9490 C   0  0  0  0  0  0  0  0  0  0  0  0
   33.9840   29.2060   39.2560 C   0  0  0  0  0  0  0  0  0  0  0  0
   34.8820   29.0740   40.2730 C   0  0  0  0  0  0  0  0  0  0  0  0
   36.1110   28.5950   39.9930 C   0  0  0  0  0  0  0  0  0  0  0  0
   36.4200   28.2570   38.6880 C   0  0  0  0  0  0  0  0  0  0  0  0
   35.4920   28.3980   37.6550 C   0  0  0  0  0  0  0  0  0  0  0  0
   32.9560   29.5870   39.3830 H   0  0  0  0  0  0  0  0  0  0  0  0
   34.4720   29.3890   41.2200 H   0  0  0  0  0  0  0  0  0  0  0  0
   37.4560   27.8810   38.6080 H   0  0  0  0  0  0  0  0  0  0  0  0
   37.0410   28.4520   41.0700 N   0  0  0  0  0  0  0  0  0  0  0  0
   37.4180   29.5050   41.9870 C   0  0  0  0  0  2  0  0  0  0  0  0
   37.8350   28.8820   43.3120 C   0  0  0  0  0  2  0  0  0  0  0  0
   36.9970   27.6860   43.6790 C   0  0  0  0  0  3  0  0  0  0  0  0
   35.9860   28.0060   43.9870 H   0  0  0  0  0  0  0  0  0  0  0  0
   36.9740   26.6460   42.5800 C   0  0  0  0  0  2  0  0  0  0  0  0
   37.7290   27.2210   41.3700 C   0  0  0  0  0  2  0  0  0  0  0  0
   36.0740   26.5740   36.1810 C   0  0  0  0  0  0  0  0  0  0  0  0
   35.5920   25.4930   36.6870 O   0  0  0  0  0  0  0  0  0  0  0  0
   36.1590   27.9760   36.4650 N   0  0  0  0  0  0  0  0  0  0  0  0
   36.4880   26.0610   35.2980 H   0  0  0  0  0  0  0  0  0  0  0  0
   36.7040   28.4380   35.7360 H   0  0  0  0  0  0  0  0  0  0  0  0
   33.3820   28.9530   36.7720 C   0  0  0  0  0  0  0  0  0  0  0  0
   33.3560   27.9890   36.1990 H   0  0  0  0  0  0  0  0  0  0  0  0
   33.8310   29.6880   36.0710 H   0  0  0  0  0  0  0  0  0  0  0  0
   31.9680   29.3070   37.1470 C   0  0  0  0  0  0  0  0  0  0  0  0
   31.9870   29.7300   38.1830 H   0  0  0  0  0  0  0  0  0  0  0  0
   31.3120   28.3970   37.1440 H   0  0  0  0  0  0  0  0  0  0  0  0
   30.2870   32.2890   35.8500 C   0  0  0  0  0  0  0  0  0  0  0  0
   30.6180   32.2630   34.4790 C   0  0  0  0  0  0  0  0  0  0  0  0
   31.4200   31.2060   34.0560 C   0  0  0  0  0  0  0  0  0  0  0  0
   31.8380   30.2760   34.9350 N   0  0  0  0  0  0  0  0  0  0  0  0
   31.4830   30.3600   36.2370 C   0  0  0  0  0  0  0  0  0  0  0  0
   30.7320   31.3310   36.6980 N   0  0  0  0  0  0  0  0  0  0  0  0
   29.6600   33.0800   36.2890 H   0  0  0  0  0  0  0  0  0  0  0  0
   30.2530   33.0320   33.8380 H   0  0  0  0  0  0  0  0  0  0  0  0
   31.6920   31.1620   32.9960 H   0  0  0  0  0  0  0  0  0  0  0  0
  1  2  1  0  0  0  0
  2  7  1  0  0  0  0
  2  3  2  0  0  0  0
  3  8  1  0  0  0  0
  4  3  1  0  0  0  0
  4 10  1  0  0  0  0
  5  4  2  0  0  0  0
  6  1  2  0  0  0  0
  6  5  1  0  0  0  0
  9  5  1  0  0  0  0
 10 16  1  0  0  0  0
 10 11  1  0  0  0  0
 11 12  1  0  0  0  0
 12 13  1  0  0  0  0
 13 14  1  0  0  0  0
 15 13  1  0  0  0  0
 16 15  1  0  0  0  0
 17 19  1  0  0  0  0
 17 18  2  0  0  0  0
 19  6  1  0  0  0  0
 20 17  1  0  0  0  0
 21 19  1  0  0  0  0
 22 25  1  0  0  0  0
 22  1  1  0  0  0  0
 23 22  1  0  0  0  0
 24 22  1  0  0  0  0
 25 26  1  0  0  0  0
 27 25  1  0  0  0  0
 28 34  1  0  0  0  0
 28 33  1  0  0  0  0
 29 28  2  0  0  0  0
 30 29  1  0  0  0  0
 30 31  2  0  0  0  0
 31 32  1  0  0  0  0
 32 33  2  0  0  0  0
 32 25  1  0  0  0  0
 35 29  1  0  0  0  0
 36 30  1  0  0  0  0
M  END
>  <minimizedAffinity>
-5.35227537

$$$$

 OpenBabel03252501303D

 36 38  0  0  0  0  0  0  0  0999 V2000
   35.6450   28.0550   38.6780 C   0  0  0  0  0  0  0  0  0  0  0  0
   35.0720   27.7000   37.4810 C   0  0  0  0  0  0  0  0  0  0  0  0
   33.8480   28.1310   37.0650 C   0  0  0  0  0  0  0  0  0  0  0  0
   33.1450   28.9540   37.8690 C   0  0  0  0  0  0  0  0  0  0  0  0
   33.6880   29.3350   39.0830 C   0  0  0  0  0  0  0  0  0  0  0  0
   34.9440   28.8880   39.4960 C   0  0  0  0  0  0  0  0  0  0  0  0
   35.7230   27.0250   36.8970 H   0  0  0  0  0  0  0  0  0  0  0  0
   33.5870   27.7390   36.0950 H   0  0  0  0  0  0  0  0  0  0  0  0
   33.0040   30.0070   39.6330 H   0  0  0  0  0  0  0  0  0  0  0  0
   31.8570   29.3910   37.4260 N   0  0  0  0  0  0  0  0  0  0  0  0
   30.8970   30.1030   38.2410 C   0  0  0  0  0  2  0  0  0  0  0  0
   30.0180   30.9570   37.3370 C   0  0  0  0  0  2  0  0  0  0  0  0
   30.7830   31.5590   36.1870 C   0  0  0  0  0  3  0  0  0  0  0  0
   31.4410   32.3700   36.5480 H   0  0  0  0  0  0  0  0  0  0  0  0
   31.5240   30.5130   35.3840 C   0  0  0  0  0  2  0  0  0  0  0  0
   31.3520   29.1610   36.0960 C   0  0  0  0  0  2  0  0  0  0  0  0
   35.9810   30.6790   40.7430 C   0  0  0  0  0  0  0  0  0  0  0  0
   36.6300   31.4120   39.9080 O   0  0  0  0  0  0  0  0  0  0  0  0
   35.1780   29.4920   40.7680 N   0  0  0  0  0  0  0  0  0  0  0  0
   36.2430   31.3080   41.6080 H   0  0  0  0  0  0  0  0  0  0  0  0
   34.9070   29.2850   41.7310 H   0  0  0  0  0  0  0  0  0  0  0  0
   36.9320   27.6520   39.2520 C   0  0  0  0  0  0  0  0  0  0  0  0
   37.4010   28.4650   39.8650 H   0  0  0  0  0  0  0  0  0  0  0  0
   37.6360   27.4910   38.4070 H   0  0  0  0  0  0  0  0  0  0  0  0
   36.7960   26.4340   40.1250 C   0  0  0  0  0  0  0  0  0  0  0  0
   37.2850   25.5780   39.5930 H   0  0  0  0  0  0  0  0  0  0  0  0
   35.7170   26.1790   40.2940 H   0  0  0  0  0  0  0  0  0  0  0  0
   37.7650   27.7310   43.4080 C   0  0  0  0  0  0  0  0  0  0  0  0
   38.9610   27.0360   43.6790 C   0  0  0  0  0  0  0  0  0  0  0  0
   39.3860   26.1350   42.7050 C   0  0  0  0  0  0  0  0  0  0  0  0
   38.6700   25.9630   41.5790 N   0  0  0  0  0  0  0  0  0  0  0  0
   37.5300   26.6630   41.3820 C   0  0  0  0  0  0  0  0  0  0  0  0
   37.0760   27.5260   42.2600 N   0  0  0  0  0  0  0  0  0  0  0  0
   37.3400   28.4660   44.1100 H   0  0  0  0  0  0  0  0  0  0  0  0
   39.4790   27.2200   44.5920 H   0  0  0  0  0  0  0  0  0  0  0  0
   40.3130   25.5810   42.8910 H   0  0  0  0  0  0  0  0  0  0  0  0
  1 22  1  0  0  0  0
  1  6  1  0  0  0  0
  2  1  2  0  0  0  0
  3  2  1  0  0  0  0
  3  4  2  0  0  0  0
  4  5  1  0  0  0  0
  5  6  2  0  0  0  0
  5  9  1  0  0  0  0
  6 19  1  0  0  0  0
  7  2  1  0  0  0  0
  8  3  1  0  0  0  0
 10  4  1  0  0  0  0
 10 11  1  0  0  0  0
 12 11  1  0  0  0  0
 13 14  1  0  0  0  0
 13 12  1  0  0  0  0
 15 16  1  0  0  0  0
 15 13  1  0  0  0  0
 16 10  1  0  0  0  0
 17 19  1  0  0  0  0
 17 20  1  0  0  0  0
 18 17  2  0  0  0  0
 19 21  1  0  0  0  0
 22 23  1  0  0  0  0
 22 25  1  0  0  0  0
 24 22  1  0  0  0  0
 25 27  1  0  0  0  0
 25 32  1  0  0  0  0
 26 25  1  0  0  0  0
 28 29  1  0  0  0  0
 28 34  1  0  0  0  0
 29 35  1  0  0  0  0
 30 36  1  0  0  0  0
 30 29  2  0  0  0  0
 31 30  1  0  0  0  0
 32 31  2  0  0  0  0
 32 33  1  0  0  0  0
 33 28  2  0  0  0  0
M  END
>  <minimizedAffinity>
-5.29846191

$$$$

 OpenBabel03252501303D

 36 38  0  0  0  0  0  0  0  0999 V2000
   37.1630   28.0820   41.8850 C   0  0  0  0  0  0  0  0  0  0  0  0
   37.3130   26.9850   42.7000 C   0  0  0  0  0  0  0  0  0  0  0  0
   37.1870   25.6970   42.2730 C   0  0  0  0  0  0  0  0  0  0  0  0
   36.8960   25.4720   40.9760 C   0  0  0  0  0  0  0  0  0  0  0  0
   36.7380   26.5500   40.1240 C   0  0  0  0  0  0  0  0  0  0  0  0
   36.8710   27.8650   40.5740 C   0  0  0  0  0  0  0  0  0  0  0  0
   37.5490   27.2730   43.7400 H   0  0  0  0  0  0  0  0  0  0  0  0
   37.3470   24.9870   43.0690 H   0  0  0  0  0  0  0  0  0  0  0  0
   36.5030   26.2160   39.0970 H   0  0  0  0  0  0  0  0  0  0  0  0
   36.7560   24.1160   40.5420 N   0  0  0  0  0  0  0  0  0  0  0  0
   35.6170   23.5880   39.8230 C   0  0  0  0  0  2  0  0  0  0  0  0
   36.0710   22.4070   38.9770 C   0  0  0  0  0  2  0  0  0  0  0  0
   37.4400   22.6110   38.3830 C   0  0  0  0  0  3  0  0  0  0  0  0
   37.3980   23.3580   37.5700 H   0  0  0  0  0  0  0  0  0  0  0  0
   38.4740   22.9470   39.4370 C   0  0  0  0  0  2  0  0  0  0  0  0
   37.7460   23.0960   40.7830 C   0  0  0  0  0  2  0  0  0  0  0  0
   35.3260   29.1830   39.2660 C   0  0  0  0  0  0  0  0  0  0  0  0
   34.1680   29.0930   39.8210 O   0  0  0  0  0  0  0  0  0  0  0  0
   36.6630   28.6950   39.4310 N   0  0  0  0  0  0  0  0  0  0  0  0
   34.9720   29.8620   38.4740 H   0  0  0  0  0  0  0  0  0  0  0  0
   37.2480   29.0430   38.6700 H   0  0  0  0  0  0  0  0  0  0  0  0
   37.2510   29.5070   42.2160 C   0  0  0  0  0  0  0  0  0  0  0  0
   36.9300   29.7230   43.2690 H   0  0  0  0  0  0  0  0  0  0  0  0
   36.5120   30.0410   41.5790 H   0  0  0  0  0  0  0  0  0  0  0  0
   38.6480   30.0350   42.0410 C   0  0  0  0  0  0  0  0  0  0  0  0
   39.2130   29.3000   41.4130 H   0  0  0  0  0  0  0  0  0  0  0  0
   39.1670   30.1340   43.0300 H   0  0  0  0  0  0  0  0  0  0  0  0
   39.5390   33.2990   40.6420 C   0  0  0  0  0  0  0  0  0  0  0  0
   38.3850   33.6530   39.9120 C   0  0  0  0  0  0  0  0  0  0  0  0
   37.3360   32.7360   39.9330 C   0  0  0  0  0  0  0  0  0  0  0  0
   37.4510   31.5860   40.6210 N   0  0  0  0  0  0  0  0  0  0  0  0
   38.5880   31.3090   41.3010 C   0  0  0  0  0  0  0  0  0  0  0  0
   39.6110   32.1290   41.3210 N   0  0  0  0  0  0  0  0  0  0  0  0
   40.4250   33.9510   40.6930 H   0  0  0  0  0  0  0  0  0  0  0  0
   38.3600   34.5800   39.3890 H   0  0  0  0  0  0  0  0  0  0  0  0
   36.4280   32.9860   39.3730 H   0  0  0  0  0  0  0  0  0  0  0  0
  1 22  1  0  0  0  0
  1  2  1  0  0  0  0
  2  7  1  0  0  0  0
  3  2  2  0  0  0  0
  3  8  1  0  0  0  0
  4  3  1  0  0  0  0
  5  6  1  0  0  0  0
  5  4  2  0  0  0  0
  6  1  2  0  0  0  0
  9  5  1  0  0  0  0
 10 16  1  0  0  0  0
 10  4  1  0  0  0  0
 11 10  1  0  0  0  0
 12 11  1  0  0  0  0
 13 12  1  0  0  0  0
 13 15  1  0  0  0  0
 14 13  1  0  0  0  0
 15 16  1  0  0  0  0
 17 19  1  0  0  0  0
 17 18  2  0  0  0  0
 19  6  1  0  0  0  0
 20 17  1  0  0  0  0
 21 19  1  0  0  0  0
 22 23  1  0  0  0  0
 24 22  1  0  0  0  0
 25 22  1  0  0  0  0
 25 27  1  0  0  0  0
 26 25  1  0  0  0  0
 28 34  1  0  0  0  0
 28 33  1  0  0  0  0
 29 30  1  0  0  0  0
 29 28  2  0  0  0  0
 30 31  2  0  0  0  0
 31 32  1  0  0  0  0
 32 33  2  0  0  0  0
 32 25  1  0  0  0  0
 35 29  1  0  0  0  0
 36 30  1  0  0  0  0
M  END
>  <minimizedAffinity>
-5.11710215

$$$$

 OpenBabel03252501303D

 36 38  0  0  0  0  0  0  0  0999 V2000
   35.2070   28.7080   38.3870 C   0  0  0  0  0  0  0  0  0  0  0  0
   34.9400   29.3660   39.5640 C   0  0  0  0  0  0  0  0  0  0  0  0
   35.5600   29.0930   40.7460 C   0  0  0  0  0  0  0  0  0  0  0  0
   36.4930   28.1200   40.7770 C   0  0  0  0  0  0  0  0  0  0  0  0
   36.7910   27.4350   39.6140 C   0  0  0  0  0  0  0  0  0  0  0  0
   36.1490   27.7250   38.4080 C   0  0  0  0  0  0  0  0  0  0  0  0
   34.1640   30.1410   39.4350 H   0  0  0  0  0  0  0  0  0  0  0  0
   35.2070   29.7260   41.5460 H   0  0  0  0  0  0  0  0  0  0  0  0
   37.5690   26.6710   39.7880 H   0  0  0  0  0  0  0  0  0  0  0  0
   37.1290   27.8360   42.0270 N   0  0  0  0  0  0  0  0  0  0  0  0
   37.6910   26.5570   42.4000 C   0  0  0  0  0  2  0  0  0  0  0  0
   38.8110   26.7830   43.4060 C   0  0  0  0  0  2  0  0  0  0  0  0
   39.6180   28.0200   43.1060 C   0  0  0  0  0  3  0  0  0  0  0  0
   40.2570   27.8550   42.2210 H   0  0  0  0  0  0  0  0  0  0  0  0
   38.7480   29.2520   42.9840 C   0  0  0  0  0  2  0  0  0  0  0  0
   37.2800   28.8070   43.0830 C   0  0  0  0  0  2  0  0  0  0  0  0
   36.0450   25.5900   37.2810 C   0  0  0  0  0  0  0  0  0  0  0  0
   35.0540   24.9350   37.7750 O   0  0  0  0  0  0  0  0  0  0  0  0
   36.7180   26.8460   37.4380 N   0  0  0  0  0  0  0  0  0  0  0  0
   36.3040   24.7960   36.5630 H   0  0  0  0  0  0  0  0  0  0  0  0
   37.5160   26.8860   36.8010 H   0  0  0  0  0  0  0  0  0  0  0  0
   34.6050   28.8850   37.0630 C   0  0  0  0  0  0  0  0  0  0  0  0
   35.1700   28.3430   36.2600 H   0  0  0  0  0  0  0  0  0  0  0  0
   34.6980   29.9600   36.7980 H   0  0  0  0  0  0  0  0  0  0  0  0
   33.1800   28.4060   37.0300 C   0  0  0  0  0  0  0  0  0  0  0  0
   32.8420   28.2710   38.0890 H   0  0  0  0  0  0  0  0  0  0  0  0
   33.0990   27.4200   36.5000 H   0  0  0  0  0  0  0  0  0  0  0  0
   30.6670   31.0270   36.5600 C   0  0  0  0  0  0  0  0  0  0  0  0
   30.8170   31.3640   35.1980 C   0  0  0  0  0  0  0  0  0  0  0  0
   31.7940   30.6650   34.4930 C   0  0  0  0  0  0  0  0  0  0  0  0
   32.5350   29.7250   35.1070 N   0  0  0  0  0  0  0  0  0  0  0  0
   32.3390   29.4510   36.4170 C   0  0  0  0  0  0  0  0  0  0  0  0
   31.4370   30.0730   37.1370 N   0  0  0  0  0  0  0  0  0  0  0  0
   29.9250   31.5180   37.2090 H   0  0  0  0  0  0  0  0  0  0  0  0
   30.1960   32.1190   34.7750 H   0  0  0  0  0  0  0  0  0  0  0  0
   31.9310   30.9070   33.4330 H   0  0  0  0  0  0  0  0  0  0  0  0
  1  6  2  0  0  0  0
  1  2  1  0  0  0  0
  2  3  2  0  0  0  0
  3  4  1  0  0  0  0
  3  8  1  0  0  0  0
  4 10  1  0  0  0  0
  5  9  1  0  0  0  0
  5  4  2  0  0  0  0
  6  5  1  0  0  0  0
  7  2  1  0  0  0  0
 10 11  1  0  0  0  0
 10 16  1  0  0  0  0
 11 12  1  0  0  0  0
 13 12  1  0  0  0  0
 14 13  1  0  0  0  0
 15 16  1  0  0  0  0
 15 13  1  0  0  0  0
 17 19  1  0  0  0  0
 17 18  2  0  0  0  0
 19  6  1  0  0  0  0
 20 17  1  0  0  0  0
 21 19  1  0  0  0  0
 22  1  1  0  0  0  0
 23 22  1  0  0  0  0
 24 22  1  0  0  0  0
 25 22  1  0  0  0  0
 25 26  1  0  0  0  0
 27 25  1  0  0  0  0
 28 33  1  0  0  0  0
 28 34  1  0  0  0  0
 29 28  2  0  0  0  0
 30 31  2  0  0  0  0
 30 29  1  0  0  0  0
 31 32  1  0  0  0  0
 32 25  1  0  0  0  0
 32 33  2  0  0  0  0
 35 29  1  0  0  0  0
 36 30  1  0  0  0  0
M  END
>  <minimizedAffinity>
-5.10153866

$$$$
