
 OpenBabel03252509283D

 19 20  0  0  0  0  0  0  0  0999 V2000
   46.6960   35.1100   41.9790 C   0  0  0  0  0  0  0  0  0  0  0  0
   47.8140   35.1890   42.1060 H   0  0  0  0  0  0  0  0  0  0  0  0
   46.3970   36.0250   41.4530 H   0  0  0  0  0  0  0  0  0  0  0  0
   44.4920   35.9030   44.8650 C   0  0  0  0  0  0  0  0  0  0  0  0
   45.1320   36.0060   43.6100 C   0  0  0  0  0  0  0  0  0  0  0  0
   46.0380   34.9970   43.2790 C   0  0  0  0  0  0  0  0  0  0  0  0
   46.2560   33.9910   44.1630 N   0  0  0  0  0  0  0  0  0  0  0  0
   45.6180   33.9350   45.3550 C   0  0  0  0  0  0  0  0  0  0  0  0
   44.7450   34.8900   45.6910 N   0  0  0  0  0  0  0  0  0  0  0  0
   43.7820   36.6930   45.1220 H   0  0  0  0  0  0  0  0  0  0  0  0
   44.9390   36.8130   42.9310 H   0  0  0  0  0  0  0  0  0  0  0  0
   45.7590   33.1630   46.0800 H   0  0  0  0  0  0  0  0  0  0  0  0
   46.3700   33.9960   41.1250 N   0  0  0  0  0  0  0  0  0  0  0  0
   47.2630   33.7700   40.0390 C   0  0  0  0  0  2  0  0  0  0  0  0
   47.2020   32.2740   39.7410 C   0  0  0  0  0  2  0  0  0  0  0  0
   45.7750   31.9550   39.4180 C   0  0  0  0  0  3  0  0  0  0  0  0
   45.3260   31.1810   40.1060 H   0  0  0  0  0  0  0  0  0  0  0  0
   44.8550   33.1470   39.4360 C   0  0  0  0  0  2  0  0  0  0  0  0
   45.0220   34.0210   40.6450 C   0  0  0  0  0  2  0  0  0  0  0  0
  1  2  1  0  0  0  0
  1  6  1  0  0  0  0
  3  1  1  0  0  0  0
  4 10  1  0  0  0  0
  4  9  1  0  0  0  0
  5  4  2  0  0  0  0
  6  5  1  0  0  0  0
  6  7  2  0  0  0  0
  7  8  1  0  0  0  0
  8  9  2  0  0  0  0
  8 12  1  0  0  0  0
 11  5  1  0  0  0  0
 13  1  1  0  0  0  0
 14 13  1  0  0  0  0
 15 14  1  0  0  0  0
 16 18  1  0  0  0  0
 16 15  1  0  0  0  0
 16 17  1  0  0  0  0
 18 19  1  0  0  0  0
 19 13  1  0  0  0  0
M  END
>  <minimizedAffinity>
-3.56961966

>  <minimizedRMSD>
0.633792281

$$$$
