
 OpenBabel03252509283D

 19 20  0  0  0  0  0  0  0  0999 V2000
   46.9490   34.2920   42.1800 C   0  0  0  0  0  0  0  0  0  0  0  0
   47.6500   33.4360   42.4000 H   0  0  0  0  0  0  0  0  0  0  0  0
   47.5950   35.1290   41.8860 H   0  0  0  0  0  0  0  0  0  0  0  0
   44.5940   36.0940   44.4220 C   0  0  0  0  0  0  0  0  0  0  0  0
   45.3700   35.7730   43.2850 C   0  0  0  0  0  0  0  0  0  0  0  0
   46.1500   34.6180   43.3590 C   0  0  0  0  0  0  0  0  0  0  0  0
   46.1260   33.8780   44.4960 N   0  0  0  0  0  0  0  0  0  0  0  0
   45.3660   34.2250   45.5610 C   0  0  0  0  0  0  0  0  0  0  0  0
   44.6110   35.3280   45.5110 N   0  0  0  0  0  0  0  0  0  0  0  0
   43.9840   36.9980   44.3630 H   0  0  0  0  0  0  0  0  0  0  0  0
   45.3690   36.3780   42.4000 H   0  0  0  0  0  0  0  0  0  0  0  0
   45.3160   33.6740   46.4740 H   0  0  0  0  0  0  0  0  0  0  0  0
   46.1150   33.9740   41.0500 N   0  0  0  0  0  0  0  0  0  0  0  0
   45.2190   32.8830   41.2330 C   0  0  0  0  0  2  0  0  0  0  0  0
   44.0240   33.1530   40.3240 C   0  0  0  0  0  2  0  0  0  0  0  0
   44.5570   33.2600   38.9280 C   0  0  0  0  0  3  0  0  0  0  0  0
   44.3330   34.2530   38.4420 H   0  0  0  0  0  0  0  0  0  0  0  0
   46.0420   33.0390   38.8150 C   0  0  0  0  0  2  0  0  0  0  0  0
   46.8450   33.7990   39.8310 C   0  0  0  0  0  2  0  0  0  0  0  0
  1  2  1  0  0  0  0
  1  6  1  0  0  0  0
  3  1  1  0  0  0  0
  4  9  1  0  0  0  0
  5  6  1  0  0  0  0
  5  4  2  0  0  0  0
  6  7  2  0  0  0  0
  7  8  1  0  0  0  0
  8 12  1  0  0  0  0
  9  8  2  0  0  0  0
 10  4  1  0  0  0  0
 11  5  1  0  0  0  0
 13 14  1  0  0  0  0
 13  1  1  0  0  0  0
 15 14  1  0  0  0  0
 16 15  1  0  0  0  0
 17 16  1  0  0  0  0
 18 16  1  0  0  0  0
 18 19  1  0  0  0  0
 19 13  1  0  0  0  0
M  END
>  <minimizedAffinity>
-3.59280229

>  <minimizedRMSD>
0.534271657

$$$$
