
 OpenBabel03252502033D

 44 48  0  0  0  0  0  0  0  0999 V2000
   47.4730   31.9030   47.7520 C   0  0  0  0  0  0  0  0  0  0  0  0
   46.9120   30.6340   47.8000 C   0  0  0  0  0  0  0  0  0  0  0  0
   45.8930   30.3870   46.9470 C   0  0  0  0  0  0  0  0  0  0  0  0
   45.4710   31.3380   46.1030 N   0  0  0  0  0  0  0  0  0  0  0  0
   45.9940   32.5540   46.0330 C   0  0  0  0  0  0  0  0  0  0  0  0
   47.0090   32.8010   46.8910 N   0  0  0  0  0  0  0  0  0  0  0  0
   45.2610   29.1530   46.9020 N   0  0  0  0  0  0  0  0  0  0  0  0
   44.0210   28.8340   46.1720 C   0  0  0  0  0  0  0  0  0  0  0  0
   43.9070   27.3290   46.2040 C   0  0  0  0  0  0  0  0  0  0  0  0
   44.6410   26.9530   47.4620 C   0  0  0  0  0  0  0  0  0  0  0  0
   45.7230   27.9620   47.5810 C   0  0  0  0  0  0  0  0  0  0  0  0
   48.2950   32.1290   48.4360 H   0  0  0  0  0  0  0  0  0  0  0  0
   43.1460   29.3420   46.6010 H   0  0  0  0  0  0  0  0  0  0  0  0
   44.2120   29.1330   45.1110 H   0  0  0  0  0  0  0  0  0  0  0  0
   42.8350   27.0790   46.2820 H   0  0  0  0  0  0  0  0  0  0  0  0
   44.4300   26.8480   45.3590 H   0  0  0  0  0  0  0  0  0  0  0  0
   43.8900   26.9380   48.2700 H   0  0  0  0  0  0  0  0  0  0  0  0
   45.0360   25.9030   47.4210 H   0  0  0  0  0  0  0  0  0  0  0  0
   45.7540   28.0920   48.7070 H   0  0  0  0  0  0  0  0  0  0  0  0
   46.6400   27.5410   47.1690 H   0  0  0  0  0  0  0  0  0  0  0  0
   45.6790   33.7110   45.1940 C   0  0  0  0  0  0  0  0  0  0  0  0
   44.9310   34.7580   45.6420 N   0  0  0  0  0  0  0  0  0  0  0  0
   44.6330   35.8430   44.9320 C   0  0  0  0  0  0  0  0  0  0  0  0
   45.0920   35.9520   43.6640 N   0  0  0  0  0  0  0  0  0  0  0  0
   45.8470   34.9710   43.1140 C   0  0  0  0  0  0  0  0  0  0  0  0
   46.3210   35.1180   41.8420 C   0  0  0  0  0  0  0  0  0  0  0  0
   47.1090   34.1440   41.2870 C   0  0  0  0  0  0  0  0  0  0  0  0
   47.3980   33.0230   42.0570 C   0  0  0  0  0  0  0  0  0  0  0  0
   46.8790   32.9400   43.3410 C   0  0  0  0  0  0  0  0  0  0  0  0
   46.1020   33.8920   43.9110 C   0  0  0  0  0  0  0  0  0  0  0  0
   44.0330   36.6480   45.3370 H   0  0  0  0  0  0  0  0  0  0  0  0
   46.0370   36.0340   41.3160 H   0  0  0  0  0  0  0  0  0  0  0  0
   47.4240   34.3770   40.2700 H   0  0  0  0  0  0  0  0  0  0  0  0
   48.0240   32.3800   41.4550 H   0  0  0  0  0  0  0  0  0  0  0  0
   47.3170   31.6500   43.7370 N   0  0  0  0  0  0  0  0  0  0  0  0
   46.4270   30.5240   43.3660 C   0  0  0  0  0  0  0  0  0  0  0  0
   47.1020   29.7730   42.2320 C   0  0  0  0  0  0  0  0  0  0  0  0
   48.5040   29.4050   42.4980 C   0  0  0  0  0  0  0  0  0  0  0  0
   48.5560   28.3150   42.7500 H   0  0  0  0  0  0  0  0  0  0  0  0
   49.3000   30.2350   43.4440 C   0  0  0  0  0  0  0  0  0  0  0  0
   48.4970   31.0920   44.3770 C   0  0  0  0  0  0  0  0  0  0  0  0
   47.4640   29.6840   48.6540 N   0  0  0  0  0  0  0  0  0  0  0  0
   48.1180   28.9000   48.4840 H   0  0  0  0  0  0  0  0  0  0  0  0
   47.1340   29.8100   49.6570 H   0  0  0  0  0  0  0  0  0  0  0  0
  1  2  1  0  0  0  0
  1 12  1  0  0  0  0
  2 42  1  0  0  0  0
  3  2  2  0  0  0  0
  4  3  1  0  0  0  0
  5  4  2  0  0  0  0
  5  6  1  0  0  0  0
  6  1  2  0  0  0  0
  7  3  1  0  0  0  0
  7 11  1  0  0  0  0
  8  9  1  0  0  0  0
  8 13  1  0  0  0  0
  8  7  1  0  0  0  0
  9 15  1  0  0  0  0
  9 10  1  0  0  0  0
 10 11  1  0  0  0  0
 10 17  1  0  0  0  0
 11 19  1  0  0  0  0
 14  8  1  0  0  0  0
 16  9  1  0  0  0  0
 18 10  1  0  0  0  0
 20 11  1  0  0  0  0
 21 22  1  0  0  0  0
 21  5  1  0  0  0  0
 23 31  1  0  0  0  0
 23 22  2  0  0  0  0
 24 23  1  0  0  0  0
 25 24  2  0  0  0  0
 25 30  1  0  0  0  0
 26 25  1  0  0  0  0
 27 26  2  0  0  0  0
 27 28  1  0  0  0  0
 28 29  2  0  0  0  0
 29 35  1  0  0  0  0
 29 30  1  0  0  0  0
 30 21  2  0  0  0  0
 32 26  1  0  0  0  0
 33 27  1  0  0  0  0
 34 28  1  0  0  0  0
 35 41  1  0  0  0  0
 36 35  1  0  0  0  0
 37 38  1  0  0  0  0
 37 36  1  0  0  0  0
 38 39  1  0  0  0  0
 38 40  1  0  0  0  0
 40 41  1  0  0  0  0
 42 44  1  0  0  0  0
 43 42  1  0  0  0  0
M  END
>  <minimizedAffinity>
-5.97148418

>  <minimizedRMSD>
0.722426414

$$$$
