
 OpenBabel03252507563D

 25 27  0  0  1  0  0  0  0  0999 V2000
   46.8910   32.3650   46.3510 C   0  0  1  0  0  0  0  0  0  0  0  0
   47.1910   32.6220   47.7860 C   0  0  0  0  0  0  0  0  0  0  0  0
   45.9690   31.8780   47.4330 C   0  0  2  0  0  0  0  0  0  0  0  0
   47.5950   31.7440   45.8060 H   0  0  0  0  0  0  0  0  0  0  0  0
   47.0760   33.6780   48.1090 H   0  0  0  0  0  0  0  0  0  0  0  0
   48.1030   32.1780   48.1820 H   0  0  0  0  0  0  0  0  0  0  0  0
   45.0050   32.4010   47.5980 H   0  0  0  0  0  0  0  0  0  0  0  0
   46.2220   34.5800   43.5080 C   0  0  0  0  0  0  0  0  0  0  0  0
   45.1610   35.4030   43.9610 C   0  0  0  0  0  0  0  0  0  0  0  0
   44.6890   35.1660   45.2650 C   0  0  0  0  0  0  0  0  0  0  0  0
   45.2600   34.1920   45.9990 N   0  0  0  0  0  0  0  0  0  0  0  0
   46.2790   33.4380   45.4960 C   0  0  0  0  0  0  0  0  0  0  0  0
   46.7750   33.6070   44.2720 N   0  0  0  0  0  0  0  0  0  0  0  0
   44.7340   36.1730   43.3380 H   0  0  0  0  0  0  0  0  0  0  0  0
   43.8820   35.7630   45.6650 H   0  0  0  0  0  0  0  0  0  0  0  0
   46.6620   34.8680   42.1720 C   0  0  0  0  0  0  0  0  0  0  0  0
   47.7730   35.3650   41.8560 O   0  0  0  0  0  0  0  0  0  0  0  0
   46.0650   34.6830   41.2660 H   0  0  0  0  0  0  0  0  0  0  0  0
   45.8270   30.4700   47.4790 N   0  0  0  0  0  0  0  0  0  0  0  0
   45.0050   29.9850   46.4070 C   0  0  0  0  0  0  0  0  0  0  0  0
   44.9140   28.4810   46.5460 C   0  0  0  0  0  0  0  0  0  0  0  0
   46.2790   27.9830   46.0590 C   0  0  0  0  0  0  0  0  0  0  0  0
   46.3190   28.3380   44.9900 H   0  0  0  0  0  0  0  0  0  0  0  0
   47.3740   28.6590   46.8070 C   0  0  0  0  0  0  0  0  0  0  0  0
   46.9210   29.6670   47.8360 C   0  0  0  0  0  0  0  0  0  0  0  0
  1  4  1  6  0  0  0
  1  3  1  0  0  0  0
  1  2  1  0  0  0  0
  2  5  1  0  0  0  0
  2  6  1  0  0  0  0
  3 19  1  0  0  0  0
  3  7  1  1  0  0  0
  3  2  1  0  0  0  0
  8  9  2  0  0  0  0
  8 13  1  0  0  0  0
  9 10  1  0  0  0  0
 10 15  1  0  0  0  0
 10 11  2  0  0  0  0
 12 11  1  0  0  0  0
 12  1  1  0  0  0  0
 13 12  2  0  0  0  0
 14  9  1  0  0  0  0
 16  8  1  0  0  0  0
 17 16  2  0  0  0  0
 18 16  1  0  0  0  0
 19 25  1  0  0  0  0
 20 21  1  0  0  0  0
 20 19  1  0  0  0  0
 22 21  1  0  0  0  0
 22 24  1  0  0  0  0
 23 22  1  0  0  0  0
 24 25  1  0  0  0  0
M  END
>  <minimizedAffinity>
-4.31250858

>  <minimizedRMSD>
1.5001334

$$$$
