
 OpenBabel03252505043D

 32 34  0  0  1  0  0  0  0  0999 V2000
   37.4460   29.8270   40.0530 C   0  0  2  0  0  0  0  0  0  0  0  0
   38.7680   29.9810   39.3770 C   0  0  0  0  0  0  0  0  0  0  0  0
   39.4290   31.2910   39.5150 C   0  0  0  0  0  0  0  0  0  0  0  0
   38.4160   32.3180   39.0260 C   0  0  0  0  0  0  0  0  0  0  0  0
   37.2270   32.3880   39.8920 C   0  0  0  0  0  0  0  0  0  0  0  0
   36.7540   31.0570   40.4080 C   0  0  0  0  0  0  0  0  0  0  0  0
   36.7830   29.2150   39.4030 H   0  0  0  0  0  0  0  0  0  0  0  0
   38.6280   29.7960   38.2770 H   0  0  0  0  0  0  0  0  0  0  0  0
   39.4990   29.1970   39.6820 H   0  0  0  0  0  0  0  0  0  0  0  0
   39.6080   31.4910   40.5830 H   0  0  0  0  0  0  0  0  0  0  0  0
   40.2940   31.3440   38.8580 H   0  0  0  0  0  0  0  0  0  0  0  0
   38.1760   32.1020   37.9850 H   0  0  0  0  0  0  0  0  0  0  0  0
   38.9320   33.2970   39.1930 H   0  0  0  0  0  0  0  0  0  0  0  0
   36.6280   33.2220   40.2290 H   0  0  0  0  0  0  0  0  0  0  0  0
   38.0560   28.8000   43.5600 C   0  0  0  0  0  0  0  0  0  0  0  0
   38.1360   27.3990   43.4480 C   0  0  0  0  0  0  0  0  0  0  0  0
   37.9800   26.8270   42.1620 C   0  0  0  0  0  0  0  0  0  0  0  0
   37.7640   27.6610   41.1140 N   0  0  0  0  0  0  0  0  0  0  0  0
   37.6940   28.9880   41.2550 C   0  0  0  0  0  0  0  0  0  0  0  0
   37.8390   29.5820   42.4820 N   0  0  0  0  0  0  0  0  0  0  0  0
   38.1790   29.1950   44.5500 H   0  0  0  0  0  0  0  0  0  0  0  0
   38.3040   26.7230   44.2490 H   0  0  0  0  0  0  0  0  0  0  0  0
   38.0330   25.4370   41.8730 N   0  0  0  0  0  0  0  0  0  0  0  0
   39.1910   24.8070   41.2720 C   0  0  0  0  0  2  0  0  0  0  0  0
   38.8870   23.9560   40.0860 C   0  0  0  0  0  2  0  0  0  0  0  0
   37.6230   23.1630   40.2150 C   0  0  0  0  0  3  0  0  0  0  0  0
   37.3200   22.8400   39.1870 H   0  0  0  0  0  0  0  0  0  0  0  0
   36.4970   24.0150   40.7580 C   0  0  0  0  0  2  0  0  0  0  0  0
   36.9650   24.5050   42.1350 C   0  0  0  0  0  2  0  0  0  0  0  0
   35.6220   30.9900   41.2550 N   0  0  0  0  0  0  0  0  0  0  0  0
   34.9090   30.6330   40.5850 H   0  0  0  0  0  0  0  0  0  0  0  0
   35.8480   31.3010   42.2230 H   0  0  0  0  0  0  0  0  0  0  0  0
  1  7  1  6  0  0  0
  1  6  1  0  0  0  0
  1 19  1  0  0  0  0
  2  3  1  0  0  0  0
  2  9  1  0  0  0  0
  2  1  1  0  0  0  0
  3 10  1  0  0  0  0
  4 13  1  0  0  0  0
  4  3  1  0  0  0  0
  4  5  1  0  0  0  0
  5 14  1  0  0  0  0
  5  6  2  0  0  0  0
  6 30  1  0  0  0  0
  8  2  1  0  0  0  0
 11  3  1  0  0  0  0
 12  4  1  0  0  0  0
 15 21  1  0  0  0  0
 16 15  1  0  0  0  0
 16 22  1  0  0  0  0
 17 16  2  0  0  0  0
 18 19  2  0  0  0  0
 18 17  1  0  0  0  0
 19 20  1  0  0  0  0
 20 15  2  0  0  0  0
 23 29  1  0  0  0  0
 23 17  1  0  0  0  0
 24 23  1  0  0  0  0
 25 26  1  0  0  0  0
 25 24  1  0  0  0  0
 26 28  1  0  0  0  0
 27 26  1  0  0  0  0
 28 29  1  0  0  0  0
 30 32  1  0  0  0  0
 31 30  1  0  0  0  0
M  END
>  <minimizedAffinity>
-5.83614731

$$$$

 OpenBabel03252505043D

 32 34  0  0  1  0  0  0  0  0999 V2000
   40.9010   32.0510   39.2420 C   0  0  2  0  0  0  0  0  0  0  0  0
   41.6460   32.7100   40.3540 C   0  0  0  0  0  0  0  0  0  0  0  0
   42.0270   34.1190   40.1470 C   0  0  0  0  0  0  0  0  0  0  0  0
   42.8100   34.1470   38.8410 C   0  0  0  0  0  0  0  0  0  0  0  0
   41.9750   33.7940   37.6800 C   0  0  0  0  0  0  0  0  0  0  0  0
   40.9870   32.6900   37.9370 C   0  0  0  0  0  0  0  0  0  0  0  0
   41.2510   30.9990   39.1530 H   0  0  0  0  0  0  0  0  0  0  0  0
   42.5950   32.1360   40.5350 H   0  0  0  0  0  0  0  0  0  0  0  0
   41.1110   32.6420   41.3290 H   0  0  0  0  0  0  0  0  0  0  0  0
   41.1160   34.7180   39.9950 H   0  0  0  0  0  0  0  0  0  0  0  0
   42.6980   34.4460   40.9390 H   0  0  0  0  0  0  0  0  0  0  0  0
   43.6880   33.5100   38.9470 H   0  0  0  0  0  0  0  0  0  0  0  0
   43.0350   35.2330   38.6920 H   0  0  0  0  0  0  0  0  0  0  0  0
   41.9380   34.1830   36.6730 H   0  0  0  0  0  0  0  0  0  0  0  0
   37.2920   32.7640   39.6870 C   0  0  0  0  0  0  0  0  0  0  0  0
   36.8890   31.7250   40.5470 C   0  0  0  0  0  0  0  0  0  0  0  0
   37.8700   30.7920   40.9630 C   0  0  0  0  0  0  0  0  0  0  0  0
   39.1380   30.9540   40.5110 N   0  0  0  0  0  0  0  0  0  0  0  0
   39.4880   31.9530   39.6950 C   0  0  0  0  0  0  0  0  0  0  0  0
   38.5700   32.8770   39.2680 N   0  0  0  0  0  0  0  0  0  0  0  0
   36.5210   33.4510   39.3940 H   0  0  0  0  0  0  0  0  0  0  0  0
   35.9060   31.5740   40.9160 H   0  0  0  0  0  0  0  0  0  0  0  0
   37.6340   29.6880   41.8250 N   0  0  0  0  0  0  0  0  0  0  0  0
   38.4290   29.4380   43.0100 C   0  0  0  0  0  2  0  0  0  0  0  0
   38.9530   28.0470   43.1220 C   0  0  0  0  0  2  0  0  0  0  0  0
   37.9870   26.9950   42.6700 C   0  0  0  0  0  3  0  0  0  0  0  0
   38.5720   26.0600   42.4780 H   0  0  0  0  0  0  0  0  0  0  0  0
   37.3330   27.3810   41.3620 C   0  0  0  0  0  2  0  0  0  0  0  0
   36.6000   28.7020   41.6300 C   0  0  0  0  0  2  0  0  0  0  0  0
   40.1230   32.2610   36.9010 N   0  0  0  0  0  0  0  0  0  0  0  0
   40.5830   31.3650   36.6350 H   0  0  0  0  0  0  0  0  0  0  0  0
   39.3460   32.9370   36.7440 H   0  0  0  0  0  0  0  0  0  0  0  0
  1  7  1  6  0  0  0
  1 19  1  0  0  0  0
  1  2  1  0  0  0  0
  2  8  1  0  0  0  0
  2  9  1  0  0  0  0
  3  2  1  0  0  0  0
  3 11  1  0  0  0  0
  4 12  1  0  0  0  0
  4  3  1  0  0  0  0
  5  6  2  0  0  0  0
  5  4  1  0  0  0  0
  6  1  1  0  0  0  0
 10  3  1  0  0  0  0
 13  4  1  0  0  0  0
 14  5  1  0  0  0  0
 15 16  1  0  0  0  0
 16 22  1  0  0  0  0
 16 17  2  0  0  0  0
 17 23  1  0  0  0  0
 18 17  1  0  0  0  0
 19 18  2  0  0  0  0
 20 15  2  0  0  0  0
 20 19  1  0  0  0  0
 21 15  1  0  0  0  0
 23 24  1  0  0  0  0
 24 25  1  0  0  0  0
 26 25  1  0  0  0  0
 27 26  1  0  0  0  0
 28 29  1  0  0  0  0
 28 26  1  0  0  0  0
 29 23  1  0  0  0  0
 30  6  1  0  0  0  0
 31 30  1  0  0  0  0
 32 30  1  0  0  0  0
M  END
>  <minimizedAffinity>
-5.66009092

$$$$

 OpenBabel03252505043D

 32 34  0  0  1  0  0  0  0  0999 V2000
   36.6240   30.5230   38.9860 C   0  0  2  0  0  0  0  0  0  0  0  0
   37.7970   30.7590   38.0940 C   0  0  0  0  0  0  0  0  0  0  0  0
   38.9880   31.3600   38.7190 C   0  0  0  0  0  0  0  0  0  0  0  0
   38.5060   32.6450   39.3770 C   0  0  0  0  0  0  0  0  0  0  0  0
   37.5700   32.3900   40.4870 C   0  0  0  0  0  0  0  0  0  0  0  0
   36.6020   31.2670   40.2370 C   0  0  0  0  0  0  0  0  0  0  0  0
   35.6940   30.7460   38.4180 H   0  0  0  0  0  0  0  0  0  0  0  0
   37.4790   31.4460   37.2630 H   0  0  0  0  0  0  0  0  0  0  0  0
   38.1200   29.8360   37.5590 H   0  0  0  0  0  0  0  0  0  0  0  0
   39.3450   30.6960   39.5210 H   0  0  0  0  0  0  0  0  0  0  0  0
   39.7130   31.6340   37.9560 H   0  0  0  0  0  0  0  0  0  0  0  0
   38.0910   33.2960   38.6080 H   0  0  0  0  0  0  0  0  0  0  0  0
   39.4220   33.0430   39.8820 H   0  0  0  0  0  0  0  0  0  0  0  0
   37.4510   32.8600   41.4520 H   0  0  0  0  0  0  0  0  0  0  0  0
   36.0120   26.8950   38.5490 C   0  0  0  0  0  0  0  0  0  0  0  0
   36.5460   26.3600   39.7360 C   0  0  0  0  0  0  0  0  0  0  0  0
   37.1090   27.2600   40.6730 C   0  0  0  0  0  0  0  0  0  0  0  0
   37.1010   28.5830   40.3740 N   0  0  0  0  0  0  0  0  0  0  0  0
   36.5850   29.0580   39.2360 C   0  0  0  0  0  0  0  0  0  0  0  0
   36.0310   28.2210   38.3020 N   0  0  0  0  0  0  0  0  0  0  0  0
   35.5950   26.1810   37.8640 H   0  0  0  0  0  0  0  0  0  0  0  0
   36.5660   25.3310   39.9970 H   0  0  0  0  0  0  0  0  0  0  0  0
   37.6880   26.8900   41.9170 N   0  0  0  0  0  0  0  0  0  0  0  0
   38.1600   27.8640   42.8800 C   0  0  0  0  0  2  0  0  0  0  0  0
   39.5440   27.6230   43.3780 C   0  0  0  0  0  2  0  0  0  0  0  0
   39.8670   26.1770   43.6000 C   0  0  0  0  0  3  0  0  0  0  0  0
   40.9810   26.0820   43.6400 H   0  0  0  0  0  0  0  0  0  0  0  0
   39.3940   25.3270   42.4420 C   0  0  0  0  0  2  0  0  0  0  0  0
   37.8750   25.5310   42.3620 C   0  0  0  0  0  2  0  0  0  0  0  0
   35.6540   30.9190   41.2290 N   0  0  0  0  0  0  0  0  0  0  0  0
   34.7930   31.3380   40.8180 H   0  0  0  0  0  0  0  0  0  0  0  0
   36.0920   30.3860   42.0090 H   0  0  0  0  0  0  0  0  0  0  0  0
  1  7  1  6  0  0  0
  1 19  1  0  0  0  0
  1  6  1  0  0  0  0
  2  3  1  0  0  0  0
  2  1  1  0  0  0  0
  3  4  1  0  0  0  0
  3 10  1  0  0  0  0
  4 13  1  0  0  0  0
  4  5  1  0  0  0  0
  5 14  1  0  0  0  0
  6  5  2  0  0  0  0
  6 30  1  0  0  0  0
  8  2  1  0  0  0  0
  9  2  1  0  0  0  0
 11  3  1  0  0  0  0
 12  4  1  0  0  0  0
 15 16  1  0  0  0  0
 16 22  1  0  0  0  0
 16 17  2  0  0  0  0
 17 23  1  0  0  0  0
 18 17  1  0  0  0  0
 19 18  2  0  0  0  0
 20 15  2  0  0  0  0
 20 19  1  0  0  0  0
 21 15  1  0  0  0  0
 23 29  1  0  0  0  0
 23 24  1  0  0  0  0
 24 25  1  0  0  0  0
 25 26  1  0  0  0  0
 26 27  1  0  0  0  0
 28 26  1  0  0  0  0
 29 28  1  0  0  0  0
 30 32  1  0  0  0  0
 31 30  1  0  0  0  0
M  END
>  <minimizedAffinity>
-5.61345053

$$$$

 OpenBabel03252505043D

 32 34  0  0  1  0  0  0  0  0999 V2000
   36.6350   31.0940   38.8740 C   0  0  2  0  0  0  0  0  0  0  0  0
   37.8400   31.3000   38.0180 C   0  0  0  0  0  0  0  0  0  0  0  0
   39.1430   31.3090   38.7060 C   0  0  0  0  0  0  0  0  0  0  0  0
   39.0290   32.3690   39.7930 C   0  0  0  0  0  0  0  0  0  0  0  0
   38.0440   32.0070   40.8270 C   0  0  0  0  0  0  0  0  0  0  0  0
   36.8040   31.3400   40.2980 C   0  0  0  0  0  0  0  0  0  0  0  0
   35.8120   31.7370   38.4920 H   0  0  0  0  0  0  0  0  0  0  0  0
   37.7380   32.2890   37.4930 H   0  0  0  0  0  0  0  0  0  0  0  0
   37.9010   30.5670   37.1810 H   0  0  0  0  0  0  0  0  0  0  0  0
   39.2890   30.3400   39.2080 H   0  0  0  0  0  0  0  0  0  0  0  0
   39.9260   31.6250   38.0210 H   0  0  0  0  0  0  0  0  0  0  0  0
   38.8220   33.3300   39.3220 H   0  0  0  0  0  0  0  0  0  0  0  0
   40.0120   32.3100   40.3230 H   0  0  0  0  0  0  0  0  0  0  0  0
   38.0460   32.1310   41.9010 H   0  0  0  0  0  0  0  0  0  0  0  0
   34.8500   28.1750   37.4510 C   0  0  0  0  0  0  0  0  0  0  0  0
   35.3960   27.1070   38.1880 C   0  0  0  0  0  0  0  0  0  0  0  0
   36.3730   27.4090   39.1670 C   0  0  0  0  0  0  0  0  0  0  0  0
   36.7250   28.7080   39.3400 N   0  0  0  0  0  0  0  0  0  0  0  0
   36.1860   29.6990   38.6230 C   0  0  0  0  0  0  0  0  0  0  0  0
   35.2370   29.4500   37.6650 N   0  0  0  0  0  0  0  0  0  0  0  0
   34.1130   27.9060   36.7190 H   0  0  0  0  0  0  0  0  0  0  0  0
   35.1410   26.0830   38.0740 H   0  0  0  0  0  0  0  0  0  0  0  0
   37.0240   26.4550   39.9950 N   0  0  0  0  0  0  0  0  0  0  0  0
   36.9520   25.0290   39.7490 C   0  0  0  0  0  2  0  0  0  0  0  0
   36.5670   24.2150   40.9370 C   0  0  0  0  0  2  0  0  0  0  0  0
   37.1690   24.6940   42.2230 C   0  0  0  0  0  3  0  0  0  0  0  0
   36.5740   24.2490   43.0600 H   0  0  0  0  0  0  0  0  0  0  0  0
   37.0560   26.1970   42.3520 C   0  0  0  0  0  2  0  0  0  0  0  0
   37.8160   26.7810   41.1550 C   0  0  0  0  0  2  0  0  0  0  0  0
   35.7820   30.9380   41.1930 N   0  0  0  0  0  0  0  0  0  0  0  0
   35.0780   31.6860   41.0180 H   0  0  0  0  0  0  0  0  0  0  0  0
   36.0440   30.0740   41.7110 H   0  0  0  0  0  0  0  0  0  0  0  0
  1  7  1  6  0  0  0
  1  6  1  0  0  0  0
  2  3  1  0  0  0  0
  2  1  1  0  0  0  0
  3 10  1  0  0  0  0
  3  4  1  0  0  0  0
  4 13  1  0  0  0  0
  4  5  1  0  0  0  0
  5 14  1  0  0  0  0
  6  5  2  0  0  0  0
  6 30  1  0  0  0  0
  8  2  1  0  0  0  0
  9  2  1  0  0  0  0
 11  3  1  0  0  0  0
 12  4  1  0  0  0  0
 15 20  2  0  0  0  0
 15 16  1  0  0  0  0
 16 17  2  0  0  0  0
 17 18  1  0  0  0  0
 17 23  1  0  0  0  0
 19  1  1  0  0  0  0
 19 18  2  0  0  0  0
 20 19  1  0  0  0  0
 21 15  1  0  0  0  0
 22 16  1  0  0  0  0
 23 29  1  0  0  0  0
 24 23  1  0  0  0  0
 24 25  1  0  0  0  0
 25 26  1  0  0  0  0
 26 28  1  0  0  0  0
 26 27  1  0  0  0  0
 29 28  1  0  0  0  0
 30 32  1  0  0  0  0
 31 30  1  0  0  0  0
M  END
>  <minimizedAffinity>
-5.49017239

$$$$

 OpenBabel03252505043D

 32 34  0  0  1  0  0  0  0  0999 V2000
   37.2690   27.0830   42.5950 C   0  0  2  0  0  0  0  0  0  0  0  0
   38.2230   27.4590   43.6800 C   0  0  0  0  0  0  0  0  0  0  0  0
   39.6280   27.0590   43.4880 C   0  0  0  0  0  0  0  0  0  0  0  0
   39.6000   25.5550   43.2510 C   0  0  0  0  0  0  0  0  0  0  0  0
   38.9190   25.1990   41.9950 C   0  0  0  0  0  0  0  0  0  0  0  0
   37.7010   26.0280   41.6910 C   0  0  0  0  0  0  0  0  0  0  0  0
   36.3020   26.7880   43.0580 H   0  0  0  0  0  0  0  0  0  0  0  0
   37.8740   26.9890   44.6390 H   0  0  0  0  0  0  0  0  0  0  0  0
   38.2070   28.5510   43.9040 H   0  0  0  0  0  0  0  0  0  0  0  0
   40.0120   27.5280   42.5690 H   0  0  0  0  0  0  0  0  0  0  0  0
   40.1960   27.2370   44.3990 H   0  0  0  0  0  0  0  0  0  0  0  0
   39.1660   25.0720   44.1260 H   0  0  0  0  0  0  0  0  0  0  0  0
   40.6730   25.2990   43.0600 H   0  0  0  0  0  0  0  0  0  0  0  0
   39.1320   24.4500   41.2450 H   0  0  0  0  0  0  0  0  0  0  0  0
   35.5540   29.6080   40.4950 C   0  0  0  0  0  0  0  0  0  0  0  0
   36.4760   30.6720   40.5000 C   0  0  0  0  0  0  0  0  0  0  0  0
   37.6780   30.5030   41.2280 C   0  0  0  0  0  0  0  0  0  0  0  0
   37.8730   29.3270   41.8770 N   0  0  0  0  0  0  0  0  0  0  0  0
   36.9770   28.3360   41.8500 C   0  0  0  0  0  0  0  0  0  0  0  0
   35.8000   28.4590   41.1580 N   0  0  0  0  0  0  0  0  0  0  0  0
   34.6550   29.7740   39.9320 H   0  0  0  0  0  0  0  0  0  0  0  0
   36.3500   31.6010   40.0030 H   0  0  0  0  0  0  0  0  0  0  0  0
   38.7110   31.4720   41.3380 N   0  0  0  0  0  0  0  0  0  0  0  0
   38.5850   32.8130   40.8040 C   0  0  0  0  0  2  0  0  0  0  0  0
   39.7260   33.2510   39.9520 C   0  0  0  0  0  2  0  0  0  0  0  0
   41.0650   32.7990   40.4500 C   0  0  0  0  0  3  0  0  0  0  0  0
   41.7870   32.8790   39.5990 H   0  0  0  0  0  0  0  0  0  0  0  0
   41.0310   31.3440   40.8630 C   0  0  0  0  0  2  0  0  0  0  0  0
   39.9830   31.2460   41.9790 C   0  0  0  0  0  2  0  0  0  0  0  0
   36.9600   25.7860   40.5090 N   0  0  0  0  0  0  0  0  0  0  0  0
   36.1370   25.2850   40.9050 H   0  0  0  0  0  0  0  0  0  0  0  0
   37.4440   26.1640   39.6680 H   0  0  0  0  0  0  0  0  0  0  0  0
  1  7  1  1  0  0  0
  1  2  1  0  0  0  0
  2  9  1  0  0  0  0
  2  8  1  0  0  0  0
  3  2  1  0  0  0  0
  3 11  1  0  0  0  0
  4  3  1  0  0  0  0
  4 12  1  0  0  0  0
  5  4  1  0  0  0  0
  6  5  2  0  0  0  0
  6  1  1  0  0  0  0
 10  3  1  0  0  0  0
 13  4  1  0  0  0  0
 14  5  1  0  0  0  0
 15 16  2  0  0  0  0
 15 20  1  0  0  0  0
 16 17  1  0  0  0  0
 17 23  1  0  0  0  0
 17 18  2  0  0  0  0
 19 18  1  0  0  0  0
 19  1  1  0  0  0  0
 20 19  2  0  0  0  0
 21 15  1  0  0  0  0
 22 16  1  0  0  0  0
 23 29  1  0  0  0  0
 24 23  1  0  0  0  0
 25 26  1  0  0  0  0
 25 24  1  0  0  0  0
 26 28  1  0  0  0  0
 27 26  1  0  0  0  0
 28 29  1  0  0  0  0
 30 31  1  0  0  0  0
 30  6  1  0  0  0  0
 32 30  1  0  0  0  0
M  END
>  <minimizedAffinity>
-5.39669657

$$$$

 OpenBabel03252505043D

 32 34  0  0  1  0  0  0  0  0999 V2000
   37.2890   31.6170   38.7730 C   0  0  2  0  0  0  0  0  0  0  0  0
   36.2780   30.7060   39.3860 C   0  0  0  0  0  0  0  0  0  0  0  0
   36.1670   29.3580   38.8010 C   0  0  0  0  0  0  0  0  0  0  0  0
   35.9130   29.5720   37.3150 C   0  0  0  0  0  0  0  0  0  0  0  0
   37.0610   30.1980   36.6360 C   0  0  0  0  0  0  0  0  0  0  0  0
   37.7520   31.2650   37.4390 C   0  0  0  0  0  0  0  0  0  0  0  0
   36.8720   32.6480   38.7500 H   0  0  0  0  0  0  0  0  0  0  0  0
   35.2660   31.1870   39.2980 H   0  0  0  0  0  0  0  0  0  0  0  0
   36.4170   30.5900   40.4860 H   0  0  0  0  0  0  0  0  0  0  0  0
   37.1370   28.8450   38.8970 H   0  0  0  0  0  0  0  0  0  0  0  0
   35.3020   28.8420   39.2110 H   0  0  0  0  0  0  0  0  0  0  0  0
   34.9870   30.1330   37.1970 H   0  0  0  0  0  0  0  0  0  0  0  0
   35.8870   28.5320   36.9000 H   0  0  0  0  0  0  0  0  0  0  0  0
   37.5020   30.0320   35.6630 H   0  0  0  0  0  0  0  0  0  0  0  0
   40.3460   32.7440   40.5380 C   0  0  0  0  0  0  0  0  0  0  0  0
   40.4940   31.7570   41.5310 C   0  0  0  0  0  0  0  0  0  0  0  0
   39.5370   30.7150   41.5770 C   0  0  0  0  0  0  0  0  0  0  0  0
   38.5350   30.7260   40.6630 N   0  0  0  0  0  0  0  0  0  0  0  0
   38.4230   31.6780   39.7320 C   0  0  0  0  0  0  0  0  0  0  0  0
   39.3280   32.7050   39.6530 N   0  0  0  0  0  0  0  0  0  0  0  0
   41.0910   33.5170   40.5350 H   0  0  0  0  0  0  0  0  0  0  0  0
   41.2670   31.7230   42.2580 H   0  0  0  0  0  0  0  0  0  0  0  0
   39.5380   29.6450   42.5120 N   0  0  0  0  0  0  0  0  0  0  0  0
   40.7320   28.8900   42.8350 C   0  0  0  0  0  2  0  0  0  0  0  0
   40.5700   27.4110   42.7550 C   0  0  0  0  0  2  0  0  0  0  0  0
   39.2480   26.9160   43.2600 C   0  0  0  0  0  3  0  0  0  0  0  0
   39.0980   25.8830   42.8570 H   0  0  0  0  0  0  0  0  0  0  0  0
   38.1110   27.7630   42.7320 C   0  0  0  0  0  2  0  0  0  0  0  0
   38.3780   29.1870   43.2350 C   0  0  0  0  0  2  0  0  0  0  0  0
   38.8730   31.9400   36.8980 N   0  0  0  0  0  0  0  0  0  0  0  0
   38.4360   32.8510   36.6440 H   0  0  0  0  0  0  0  0  0  0  0  0
   39.7290   31.3470   36.9240 H   0  0  0  0  0  0  0  0  0  0  0  0
  1  7  1  6  0  0  0
  1  2  1  0  0  0  0
  1 19  1  0  0  0  0
  2  9  1  0  0  0  0
  3 10  1  0  0  0  0
  3 11  1  0  0  0  0
  3  2  1  0  0  0  0
  4  3  1  0  0  0  0
  5  4  1  0  0  0  0
  5  6  2  0  0  0  0
  6  1  1  0  0  0  0
  8  2  1  0  0  0  0
 12  4  1  0  0  0  0
 13  4  1  0  0  0  0
 14  5  1  0  0  0  0
 15 16  1  0  0  0  0
 16 17  2  0  0  0  0
 16 22  1  0  0  0  0
 17 23  1  0  0  0  0
 18 17  1  0  0  0  0
 19 18  2  0  0  0  0
 20 19  1  0  0  0  0
 20 15  2  0  0  0  0
 21 15  1  0  0  0  0
 23 24  1  0  0  0  0
 23 29  1  0  0  0  0
 25 24  1  0  0  0  0
 25 26  1  0  0  0  0
 27 26  1  0  0  0  0
 28 29  1  0  0  0  0
 28 26  1  0  0  0  0
 30 32  1  0  0  0  0
 30  6  1  0  0  0  0
 31 30  1  0  0  0  0
M  END
>  <minimizedAffinity>
-5.25113058

$$$$

 OpenBabel03252505043D

 32 34  0  0  1  0  0  0  0  0999 V2000
   36.3390   29.8390   40.1460 C   0  0  2  0  0  0  0  0  0  0  0  0
   35.0010   29.2210   39.9130 C   0  0  0  0  0  0  0  0  0  0  0  0
   34.8550   28.4090   38.6920 C   0  0  0  0  0  0  0  0  0  0  0  0
   35.2710   29.3150   37.5410 C   0  0  0  0  0  0  0  0  0  0  0  0
   36.6990   29.6750   37.6010 C   0  0  0  0  0  0  0  0  0  0  0  0
   37.2150   29.9410   38.9890 C   0  0  0  0  0  0  0  0  0  0  0  0
   36.1930   30.8530   40.5780 H   0  0  0  0  0  0  0  0  0  0  0  0
   34.2350   30.0420   39.8570 H   0  0  0  0  0  0  0  0  0  0  0  0
   34.6580   28.6040   40.7760 H   0  0  0  0  0  0  0  0  0  0  0  0
   35.5720   27.5750   38.7280 H   0  0  0  0  0  0  0  0  0  0  0  0
   33.8100   28.1460   38.5410 H   0  0  0  0  0  0  0  0  0  0  0  0
   34.6110   30.1810   37.5230 H   0  0  0  0  0  0  0  0  0  0  0  0
   35.1970   28.6510   36.6430 H   0  0  0  0  0  0  0  0  0  0  0  0
   37.4480   29.7840   36.8310 H   0  0  0  0  0  0  0  0  0  0  0  0
   37.9120   28.9140   43.3710 C   0  0  0  0  0  0  0  0  0  0  0  0
   38.1400   27.5350   43.2030 C   0  0  0  0  0  0  0  0  0  0  0  0
   37.7490   26.9430   41.9780 C   0  0  0  0  0  0  0  0  0  0  0  0
   37.1790   27.7370   41.0380 N   0  0  0  0  0  0  0  0  0  0  0  0
   36.9770   29.0440   41.2290 C   0  0  0  0  0  0  0  0  0  0  0  0
   37.3410   29.6560   42.4000 N   0  0  0  0  0  0  0  0  0  0  0  0
   38.2230   29.3250   44.3120 H   0  0  0  0  0  0  0  0  0  0  0  0
   38.5830   26.8890   43.9200 H   0  0  0  0  0  0  0  0  0  0  0  0
   37.9050   25.5700   41.6460 N   0  0  0  0  0  0  0  0  0  0  0  0
   39.0360   25.0720   40.8910 C   0  0  0  0  0  2  0  0  0  0  0  0
   38.6750   24.2130   39.7280 C   0  0  0  0  0  2  0  0  0  0  0  0
   37.5230   23.2910   39.9890 C   0  0  0  0  0  3  0  0  0  0  0  0
   37.1290   22.9540   38.9970 H   0  0  0  0  0  0  0  0  0  0  0  0
   36.3930   24.0130   40.6890 C   0  0  0  0  0  2  0  0  0  0  0  0
   36.9770   24.5280   42.0110 C   0  0  0  0  0  2  0  0  0  0  0  0
   38.5730   30.2920   39.1800 N   0  0  0  0  0  0  0  0  0  0  0  0
   38.4770   31.3150   39.3570 H   0  0  0  0  0  0  0  0  0  0  0  0
   39.2000   29.4660   39.0900 H   0  0  0  0  0  0  0  0  0  0  0  0
  1  7  1  1  0  0  0
  1 19  1  0  0  0  0
  2  1  1  0  0  0  0
  2  9  1  0  0  0  0
  3 10  1  0  0  0  0
  3  2  1  0  0  0  0
  4  5  1  0  0  0  0
  4  3  1  0  0  0  0
  5  6  2  0  0  0  0
  6 30  1  0  0  0  0
  6  1  1  0  0  0  0
  8  2  1  0  0  0  0
 11  3  1  0  0  0  0
 12  4  1  0  0  0  0
 13  4  1  0  0  0  0
 14  5  1  0  0  0  0
 15 21  1  0  0  0  0
 16 15  1  0  0  0  0
 16 22  1  0  0  0  0
 17 16  2  0  0  0  0
 18 19  2  0  0  0  0
 18 17  1  0  0  0  0
 19 20  1  0  0  0  0
 20 15  2  0  0  0  0
 23 17  1  0  0  0  0
 23 29  1  0  0  0  0
 24 23  1  0  0  0  0
 25 26  1  0  0  0  0
 25 24  1  0  0  0  0
 26 28  1  0  0  0  0
 27 26  1  0  0  0  0
 28 29  1  0  0  0  0
 30 31  1  0  0  0  0
 32 30  1  0  0  0  0
M  END
>  <minimizedAffinity>
-5.20272493

$$$$

 OpenBabel03252505043D

 32 34  0  0  1  0  0  0  0  0999 V2000
   37.3220   30.1900   39.7910 C   0  0  2  0  0  0  0  0  0  0  0  0
   37.5400   29.7520   38.3810 C   0  0  0  0  0  0  0  0  0  0  0  0
   36.3540   29.7320   37.5070 C   0  0  0  0  0  0  0  0  0  0  0  0
   35.3290   28.8610   38.2220 C   0  0  0  0  0  0  0  0  0  0  0  0
   34.8710   29.4600   39.4870 C   0  0  0  0  0  0  0  0  0  0  0  0
   35.9510   30.1470   40.2770 C   0  0  0  0  0  0  0  0  0  0  0  0
   37.9610   29.5720   40.4590 H   0  0  0  0  0  0  0  0  0  0  0  0
   37.9580   28.7080   38.3940 H   0  0  0  0  0  0  0  0  0  0  0  0
   38.3330   30.3430   37.8670 H   0  0  0  0  0  0  0  0  0  0  0  0
   35.9350   30.7480   37.4480 H   0  0  0  0  0  0  0  0  0  0  0  0
   36.5930   29.2490   36.5620 H   0  0  0  0  0  0  0  0  0  0  0  0
   35.7460   27.8620   38.3460 H   0  0  0  0  0  0  0  0  0  0  0  0
   34.4300   28.9130   37.5570 H   0  0  0  0  0  0  0  0  0  0  0  0
   33.8980   29.5000   39.9560 H   0  0  0  0  0  0  0  0  0  0  0  0
   37.6090   33.8830   39.6910 C   0  0  0  0  0  0  0  0  0  0  0  0
   38.9450   34.0860   40.0860 C   0  0  0  0  0  0  0  0  0  0  0  0
   39.7300   32.9450   40.3790 C   0  0  0  0  0  0  0  0  0  0  0  0
   39.1510   31.7240   40.2630 N   0  0  0  0  0  0  0  0  0  0  0  0
   37.8780   31.5660   39.8850 C   0  0  0  0  0  0  0  0  0  0  0  0
   37.0840   32.6440   39.5930 N   0  0  0  0  0  0  0  0  0  0  0  0
   37.0470   34.7720   39.4780 H   0  0  0  0  0  0  0  0  0  0  0  0
   39.4240   35.0280   40.1850 H   0  0  0  0  0  0  0  0  0  0  0  0
   41.0900   32.9710   40.7890 N   0  0  0  0  0  0  0  0  0  0  0  0
   41.9190   34.1530   40.6710 C   0  0  0  0  0  2  0  0  0  0  0  0
   43.2340   33.9230   40.0070 C   0  0  0  0  0  2  0  0  0  0  0  0
   43.8820   32.6230   40.3770 C   0  0  0  0  0  3  0  0  0  0  0  0
   44.6570   32.4000   39.6010 H   0  0  0  0  0  0  0  0  0  0  0  0
   42.8850   31.4860   40.3420 C   0  0  0  0  0  2  0  0  0  0  0  0
   41.7950   31.8500   41.3590 C   0  0  0  0  0  2  0  0  0  0  0  0
   35.6370   30.7670   41.5110 N   0  0  0  0  0  0  0  0  0  0  0  0
   36.0290   30.0670   42.1750 H   0  0  0  0  0  0  0  0  0  0  0  0
   35.1440   31.6730   41.3710 H   0  0  0  0  0  0  0  0  0  0  0  0
  1 19  1  0  0  0  0
  1  6  1  0  0  0  0
  1  7  1  1  0  0  0
  2  8  1  0  0  0  0
  2  1  1  0  0  0  0
  3  4  1  0  0  0  0
  3  2  1  0  0  0  0
  4 12  1  0  0  0  0
  4  5  1  0  0  0  0
  5 14  1  0  0  0  0
  5  6  2  0  0  0  0
  6 30  1  0  0  0  0
  9  2  1  0  0  0  0
 10  3  1  0  0  0  0
 11  3  1  0  0  0  0
 13  4  1  0  0  0  0
 15 16  1  0  0  0  0
 16 22  1  0  0  0  0
 16 17  2  0  0  0  0
 17 23  1  0  0  0  0
 18 17  1  0  0  0  0
 19 18  2  0  0  0  0
 20 15  2  0  0  0  0
 20 19  1  0  0  0  0
 21 15  1  0  0  0  0
 23 29  1  0  0  0  0
 24 23  1  0  0  0  0
 25 26  1  0  0  0  0
 25 24  1  0  0  0  0
 27 26  1  0  0  0  0
 28 26  1  0  0  0  0
 28 29  1  0  0  0  0
 30 31  1  0  0  0  0
 32 30  1  0  0  0  0
M  END
>  <minimizedAffinity>
-5.19488907

$$$$

 OpenBabel03252505043D

 32 34  0  0  1  0  0  0  0  0999 V2000
   36.7390   29.2890   40.0670 C   0  0  2  0  0  0  0  0  0  0  0  0
   37.7550   28.9810   39.0170 C   0  0  0  0  0  0  0  0  0  0  0  0
   38.6350   30.0900   38.6080 C   0  0  0  0  0  0  0  0  0  0  0  0
   37.7060   31.2210   38.1870 C   0  0  0  0  0  0  0  0  0  0  0  0
   36.9160   31.7450   39.3140 C   0  0  0  0  0  0  0  0  0  0  0  0
   36.4310   30.6950   40.2750 C   0  0  0  0  0  0  0  0  0  0  0  0
   35.8000   28.7450   39.8240 H   0  0  0  0  0  0  0  0  0  0  0  0
   37.2170   28.6290   38.0950 H   0  0  0  0  0  0  0  0  0  0  0  0
   38.4010   28.1140   39.2880 H   0  0  0  0  0  0  0  0  0  0  0  0
   39.2000   30.4400   39.4850 H   0  0  0  0  0  0  0  0  0  0  0  0
   39.2180   29.8020   37.7360 H   0  0  0  0  0  0  0  0  0  0  0  0
   37.0900   30.8750   37.3560 H   0  0  0  0  0  0  0  0  0  0  0  0
   38.4060   32.0560   37.9340 H   0  0  0  0  0  0  0  0  0  0  0  0
   36.6200   32.7490   39.5820 H   0  0  0  0  0  0  0  0  0  0  0  0
   36.8360   27.4650   43.2910 C   0  0  0  0  0  0  0  0  0  0  0  0
   38.2060   27.5060   43.6130 C   0  0  0  0  0  0  0  0  0  0  0  0
   39.0770   28.1650   42.7130 C   0  0  0  0  0  0  0  0  0  0  0  0
   38.5440   28.7180   41.5950 N   0  0  0  0  0  0  0  0  0  0  0  0
   37.2380   28.6610   41.3190 C   0  0  0  0  0  0  0  0  0  0  0  0
   36.3590   28.0320   42.1630 N   0  0  0  0  0  0  0  0  0  0  0  0
   36.2070   26.9570   43.9970 H   0  0  0  0  0  0  0  0  0  0  0  0
   38.6500   27.0830   44.4790 H   0  0  0  0  0  0  0  0  0  0  0  0
   40.4820   28.2990   42.8840 N   0  0  0  0  0  0  0  0  0  0  0  0
   41.2320   29.4160   42.3480 C   0  0  0  0  0  2  0  0  0  0  0  0
   42.4390   29.0310   41.5630 C   0  0  0  0  0  2  0  0  0  0  0  0
   43.1920   27.8690   42.1360 C   0  0  0  0  0  3  0  0  0  0  0  0
   43.8490   27.4610   41.3270 H   0  0  0  0  0  0  0  0  0  0  0  0
   42.2510   26.7560   42.5410 C   0  0  0  0  0  2  0  0  0  0  0  0
   41.3130   27.3600   43.5950 C   0  0  0  0  0  2  0  0  0  0  0  0
   35.6640   31.0730   41.4040 N   0  0  0  0  0  0  0  0  0  0  0  0
   34.7140   30.7800   41.0900 H   0  0  0  0  0  0  0  0  0  0  0  0
   36.2570   31.4980   42.1470 H   0  0  0  0  0  0  0  0  0  0  0  0
  1  7  1  6  0  0  0
  1  6  1  0  0  0  0
  1 19  1  0  0  0  0
  2  9  1  0  0  0  0
  2  1  1  0  0  0  0
  3  2  1  0  0  0  0
  3 10  1  0  0  0  0
  4  3  1  0  0  0  0
  4  5  1  0  0  0  0
  5 14  1  0  0  0  0
  5  6  2  0  0  0  0
  6 30  1  0  0  0  0
  8  2  1  0  0  0  0
 11  3  1  0  0  0  0
 12  4  1  0  0  0  0
 13  4  1  0  0  0  0
 15 16  1  0  0  0  0
 15 21  1  0  0  0  0
 16 22  1  0  0  0  0
 17 23  1  0  0  0  0
 17 16  2  0  0  0  0
 18 17  1  0  0  0  0
 19 18  2  0  0  0  0
 19 20  1  0  0  0  0
 20 15  2  0  0  0  0
 23 29  1  0  0  0  0
 24 23  1  0  0  0  0
 25 26  1  0  0  0  0
 25 24  1  0  0  0  0
 26 28  1  0  0  0  0
 27 26  1  0  0  0  0
 28 29  1  0  0  0  0
 30 32  1  0  0  0  0
 31 30  1  0  0  0  0
M  END
>  <minimizedAffinity>
-5.15529776

$$$$
