
 OpenBabel03252500333D

 41 44  0  0  1  0  0  0  0  0999 V2000
   36.2640   29.1640   40.0820 N   0  0  0  0  0  0  0  0  0  0  0  0
   34.9320   28.8840   39.7120 C   0  0  0  0  0  0  0  0  0  0  0  0
   34.8310   28.3400   38.2850 C   0  0  0  0  0  0  0  0  0  0  0  0
   35.2380   29.4850   37.3840 C   0  0  0  0  0  0  0  0  0  0  0  0
   36.6900   29.7660   37.7170 C   0  0  0  0  0  0  0  0  0  0  0  0
   36.9600   29.9700   39.1690 C   0  0  1  0  0  0  0  0  0  0  0  0
   34.4540   29.9110   39.6260 H   0  0  0  0  0  0  0  0  0  0  0  0
   34.2920   28.4010   40.4310 H   0  0  0  0  0  0  0  0  0  0  0  0
   35.5940   27.5130   38.2050 H   0  0  0  0  0  0  0  0  0  0  0  0
   33.8390   27.9580   38.0570 H   0  0  0  0  0  0  0  0  0  0  0  0
   35.1640   29.2760   36.3200 H   0  0  0  0  0  0  0  0  0  0  0  0
   34.6500   30.3600   37.7270 H   0  0  0  0  0  0  0  0  0  0  0  0
   37.0350   30.6240   37.1330 H   0  0  0  0  0  0  0  0  0  0  0  0
   37.2820   28.8930   37.3620 H   0  0  0  0  0  0  0  0  0  0  0  0
   38.0550   29.8120   39.3110 H   0  0  0  0  0  0  0  0  0  0  0  0
   36.7230   31.3620   39.5860 N   0  0  0  0  0  0  0  0  0  0  0  0
   37.3500   31.5750   40.8600 C   0  0  0  0  0  2  0  0  0  0  0  0
   38.7070   32.2240   40.7770 C   0  0  0  0  0  2  0  0  0  0  0  0
   38.4530   33.6830   40.4190 C   0  0  0  0  0  3  0  0  0  0  0  0
   39.3540   34.1910   40.0720 H   0  0  0  0  0  0  0  0  0  0  0  0
   37.3410   33.6470   39.3760 C   0  0  0  0  0  2  0  0  0  0  0  0
   37.2890   32.3130   38.6530 C   0  0  0  0  0  2  0  0  0  0  0  0
   36.9680   28.0980   40.7260 C   0  0  0  0  0  0  0  0  0  0  0  0
   36.6170   27.1430   40.2350 H   0  0  0  0  0  0  0  0  0  0  0  0
   38.0460   28.1450   40.5850 H   0  0  0  0  0  0  0  0  0  0  0  0
   36.9180   26.8460   43.0160 C   0  0  1  0  0  0  0  0  0  0  0  0
   37.4680   28.1300   43.2450 C   0  0  0  0  0  0  0  0  0  0  0  0
   36.4880   28.0340   42.1300 C   0  0  1  0  0  0  0  0  0  0  0  0
   36.1400   26.4400   43.7100 H   0  0  0  0  0  0  0  0  0  0  0  0
   38.5140   28.4040   42.9190 H   0  0  0  0  0  0  0  0  0  0  0  0
   37.1800   28.7350   44.1270 H   0  0  0  0  0  0  0  0  0  0  0  0
   35.4110   28.2120   42.2610 H   0  0  0  0  0  0  0  0  0  0  0  0
   36.8210   24.6540   41.8270 C   0  0  0  0  0  0  0  0  0  0  0  0
   37.6190   25.7190   42.3370 C   0  0  0  0  0  0  0  0  0  0  0  0
   38.9820   25.6710   42.1920 C   0  0  0  0  0  0  0  0  0  0  0  0
   39.5120   24.5840   41.5520 N   0  0  0  0  0  0  0  0  0  0  0  0
   38.7310   23.5730   41.0700 C   0  0  0  0  0  0  0  0  0  0  0  0
   37.3690   23.5890   41.1990 N   0  0  0  0  0  0  0  0  0  0  0  0
   35.7430   24.6740   41.9330 H   0  0  0  0  0  0  0  0  0  0  0  0
   39.5690   26.4660   42.5740 H   0  0  0  0  0  0  0  0  0  0  0  0
   39.2220   22.7580   40.5830 H   0  0  0  0  0  0  0  0  0  0  0  0
  1 23  1  0  0  0  0
  2  1  1  0  0  0  0
  2  8  1  0  0  0  0
  3  2  1  0  0  0  0
  4  5  1  0  0  0  0
  4 12  1  0  0  0  0
  4  3  1  0  0  0  0
  5  6  1  0  0  0  0
  6 15  1  1  0  0  0
  6 16  1  0  0  0  0
  6  1  1  0  0  0  0
  7  2  1  0  0  0  0
  9  3  1  0  0  0  0
 10  3  1  0  0  0  0
 11  4  1  0  0  0  0
 13  5  1  0  0  0  0
 14  5  1  0  0  0  0
 16 17  1  0  0  0  0
 18 17  1  0  0  0  0
 19 18  1  0  0  0  0
 20 19  1  0  0  0  0
 21 19  1  0  0  0  0
 22 21  1  0  0  0  0
 22 16  1  0  0  0  0
 23 28  1  0  0  0  0
 24 23  1  0  0  0  0
 25 23  1  0  0  0  0
 26 27  1  0  0  0  0
 26 29  1  1  0  0  0
 27 31  1  0  0  0  0
 28 32  1  1  0  0  0
 28 26  1  0  0  0  0
 28 27  1  0  0  0  0
 30 27  1  0  0  0  0
 33 39  1  0  0  0  0
 33 34  1  0  0  0  0
 34 26  1  0  0  0  0
 35 34  2  0  0  0  0
 35 40  1  0  0  0  0
 36 35  1  0  0  0  0
 37 38  1  0  0  0  0
 37 36  2  0  0  0  0
 38 33  2  0  0  0  0
 41 37  1  0  0  0  0
M  END
>  <minimizedAffinity>
-5.74479961

$$$$

 OpenBabel03252500333D

 41 44  0  0  1  0  0  0  0  0999 V2000
   36.6270   29.1940   40.4840 N   0  0  0  0  0  0  0  0  0  0  0  0
   35.2910   28.8770   40.1600 C   0  0  0  0  0  0  0  0  0  0  0  0
   35.1570   28.3220   38.7400 C   0  0  0  0  0  0  0  0  0  0  0  0
   35.5050   29.4710   37.8200 C   0  0  0  0  0  0  0  0  0  0  0  0
   36.9590   29.7910   38.1020 C   0  0  0  0  0  0  0  0  0  0  0  0
   37.2720   30.0120   39.5430 C   0  0  1  0  0  0  0  0  0  0  0  0
   34.7840   29.8910   40.0840 H   0  0  0  0  0  0  0  0  0  0  0  0
   34.6880   28.3820   40.9030 H   0  0  0  0  0  0  0  0  0  0  0  0
   35.9390   27.5140   38.6390 H   0  0  0  0  0  0  0  0  0  0  0  0
   34.1690   27.9120   38.5470 H   0  0  0  0  0  0  0  0  0  0  0  0
   35.4010   29.2530   36.7600 H   0  0  0  0  0  0  0  0  0  0  0  0
   34.9060   30.3330   38.1770 H   0  0  0  0  0  0  0  0  0  0  0  0
   37.2620   30.6540   37.5020 H   0  0  0  0  0  0  0  0  0  0  0  0
   37.5620   28.9320   37.7320 H   0  0  0  0  0  0  0  0  0  0  0  0
   38.3740   29.8820   39.6500 H   0  0  0  0  0  0  0  0  0  0  0  0
   37.0120   31.4000   39.9600 N   0  0  0  0  0  0  0  0  0  0  0  0
   37.8990   31.7300   41.0410 C   0  0  0  0  0  2  0  0  0  0  0  0
   39.1330   32.4820   40.6150 C   0  0  0  0  0  2  0  0  0  0  0  0
   38.6690   33.8950   40.2820 C   0  0  0  0  0  3  0  0  0  0  0  0
   39.4120   34.4560   39.7140 H   0  0  0  0  0  0  0  0  0  0  0  0
   37.3510   33.7140   39.5370 C   0  0  0  0  0  2  0  0  0  0  0  0
   37.2530   32.3430   38.8900 C   0  0  0  0  0  2  0  0  0  0  0  0
   37.3800   28.1500   41.1100 C   0  0  0  0  0  0  0  0  0  0  0  0
   37.0810   27.1900   40.5950 H   0  0  0  0  0  0  0  0  0  0  0  0
   38.4550   28.2540   40.9780 H   0  0  0  0  0  0  0  0  0  0  0  0
   37.8330   27.4360   43.5790 C   0  0  1  0  0  0  0  0  0  0  0  0
   37.5520   28.8240   43.5820 C   0  0  0  0  0  0  0  0  0  0  0  0
   36.8950   28.0310   42.5080 C   0  0  1  0  0  0  0  0  0  0  0  0
   37.3550   26.7680   44.3390 H   0  0  0  0  0  0  0  0  0  0  0  0
   38.2930   29.5890   43.2050 H   0  0  0  0  0  0  0  0  0  0  0  0
   36.8990   29.2810   44.3510 H   0  0  0  0  0  0  0  0  0  0  0  0
   35.8950   27.5880   42.6160 H   0  0  0  0  0  0  0  0  0  0  0  0
   39.0650   25.4410   42.7250 C   0  0  0  0  0  0  0  0  0  0  0  0
   39.1000   26.8160   43.0950 C   0  0  0  0  0  0  0  0  0  0  0  0
   40.2780   27.5120   42.9990 C   0  0  0  0  0  0  0  0  0  0  0  0
   41.3770   26.8350   42.5430 N   0  0  0  0  0  0  0  0  0  0  0  0
   41.3220   25.5170   42.1920 C   0  0  0  0  0  0  0  0  0  0  0  0
   40.1650   24.7940   42.2770 N   0  0  0  0  0  0  0  0  0  0  0  0
   38.1440   24.8750   42.7950 H   0  0  0  0  0  0  0  0  0  0  0  0
   40.2970   28.5340   43.2770 H   0  0  0  0  0  0  0  0  0  0  0  0
   42.2250   25.0610   41.8460 H   0  0  0  0  0  0  0  0  0  0  0  0
  1 23  1  0  0  0  0
  2  1  1  0  0  0  0
  2  8  1  0  0  0  0
  3  2  1  0  0  0  0
  4  5  1  0  0  0  0
  4 12  1  0  0  0  0
  4  3  1  0  0  0  0
  5  6  1  0  0  0  0
  6 15  1  1  0  0  0
  6 16  1  0  0  0  0
  6  1  1  0  0  0  0
  7  2  1  0  0  0  0
  9  3  1  0  0  0  0
 10  3  1  0  0  0  0
 11  4  1  0  0  0  0
 13  5  1  0  0  0  0
 14  5  1  0  0  0  0
 16 17  1  0  0  0  0
 18 17  1  0  0  0  0
 19 18  1  0  0  0  0
 20 19  1  0  0  0  0
 21 19  1  0  0  0  0
 22 21  1  0  0  0  0
 22 16  1  0  0  0  0
 23 28  1  0  0  0  0
 24 23  1  0  0  0  0
 25 23  1  0  0  0  0
 26 27  1  0  0  0  0
 26 29  1  1  0  0  0
 27 31  1  0  0  0  0
 28 32  1  1  0  0  0
 28 26  1  0  0  0  0
 28 27  1  0  0  0  0
 30 27  1  0  0  0  0
 33 39  1  0  0  0  0
 33 34  1  0  0  0  0
 34 26  1  0  0  0  0
 35 34  2  0  0  0  0
 35 40  1  0  0  0  0
 36 35  1  0  0  0  0
 37 38  1  0  0  0  0
 37 36  2  0  0  0  0
 38 33  2  0  0  0  0
 41 37  1  0  0  0  0
M  END
>  <minimizedAffinity>
-5.54164696

$$$$

 OpenBabel03252500333D

 41 44  0  0  1  0  0  0  0  0999 V2000
   37.4640   29.8330   38.9810 N   0  0  0  0  0  0  0  0  0  0  0  0
   37.1490   29.1060   37.8140 C   0  0  0  0  0  0  0  0  0  0  0  0
   35.6890   29.2930   37.3930 C   0  0  0  0  0  0  0  0  0  0  0  0
   34.8670   28.6350   38.4780 C   0  0  0  0  0  0  0  0  0  0  0  0
   35.1370   29.4380   39.7360 C   0  0  0  0  0  0  0  0  0  0  0  0
   36.5830   29.6160   40.0520 C   0  0  1  0  0  0  0  0  0  0  0  0
   37.1780   28.0230   38.1540 H   0  0  0  0  0  0  0  0  0  0  0  0
   37.8610   29.1040   37.0050 H   0  0  0  0  0  0  0  0  0  0  0  0
   35.4960   30.4050   37.4010 H   0  0  0  0  0  0  0  0  0  0  0  0
   35.4880   28.8840   36.4060 H   0  0  0  0  0  0  0  0  0  0  0  0
   33.7950   28.6310   38.2980 H   0  0  0  0  0  0  0  0  0  0  0  0
   35.3150   27.6320   38.6290 H   0  0  0  0  0  0  0  0  0  0  0  0
   34.6090   28.9800   40.5760 H   0  0  0  0  0  0  0  0  0  0  0  0
   34.6760   30.4400   39.5890 H   0  0  0  0  0  0  0  0  0  0  0  0
   36.6470   30.4830   40.7520 H   0  0  0  0  0  0  0  0  0  0  0  0
   37.1290   28.4780   40.8090 N   0  0  0  0  0  0  0  0  0  0  0  0
   38.3190   28.9060   41.4910 C   0  0  0  0  0  2  0  0  0  0  0  0
   38.0980   29.2800   42.9340 C   0  0  0  0  0  2  0  0  0  0  0  0
   37.8870   27.9680   43.6800 C   0  0  0  0  0  3  0  0  0  0  0  0
   37.4580   28.1160   44.6710 H   0  0  0  0  0  0  0  0  0  0  0  0
   37.0050   27.1280   42.7610 C   0  0  0  0  0  2  0  0  0  0  0  0
   36.2010   27.9930   41.8070 C   0  0  0  0  0  2  0  0  0  0  0  0
   37.9730   31.1540   38.7740 C   0  0  0  0  0  0  0  0  0  0  0  0
   39.0670   31.1210   39.0560 H   0  0  0  0  0  0  0  0  0  0  0  0
   37.9270   31.4770   37.7360 H   0  0  0  0  0  0  0  0  0  0  0  0
   38.1880   33.0370   40.5700 C   0  0  1  0  0  0  0  0  0  0  0  0
   37.3240   33.5140   39.5550 C   0  0  0  0  0  0  0  0  0  0  0  0
   37.3210   32.0420   39.7700 C   0  0  1  0  0  0  0  0  0  0  0  0
   37.9160   33.1760   41.6460 H   0  0  0  0  0  0  0  0  0  0  0  0
   37.7050   33.8320   38.5400 H   0  0  0  0  0  0  0  0  0  0  0  0
   36.3960   34.0670   39.7970 H   0  0  0  0  0  0  0  0  0  0  0  0
   36.6240   31.5380   40.4550 H   0  0  0  0  0  0  0  0  0  0  0  0
   40.3450   33.7750   39.5550 C   0  0  0  0  0  0  0  0  0  0  0  0
   39.6670   32.8920   40.4430 C   0  0  0  0  0  0  0  0  0  0  0  0
   40.3830   31.9510   41.1380 C   0  0  0  0  0  0  0  0  0  0  0  0
   41.7370   31.9120   40.9380 N   0  0  0  0  0  0  0  0  0  0  0  0
   42.3680   32.7680   40.0820 C   0  0  0  0  0  0  0  0  0  0  0  0
   41.6840   33.7160   39.3730 N   0  0  0  0  0  0  0  0  0  0  0  0
   39.7960   34.5240   38.9970 H   0  0  0  0  0  0  0  0  0  0  0  0
   39.8730   31.2970   41.7970 H   0  0  0  0  0  0  0  0  0  0  0  0
   43.4280   32.6720   39.9810 H   0  0  0  0  0  0  0  0  0  0  0  0
  1  6  1  0  0  0  0
  2  7  1  0  0  0  0
  2  1  1  0  0  0  0
  3  9  1  0  0  0  0
  3  2  1  0  0  0  0
  3  4  1  0  0  0  0
  4 12  1  0  0  0  0
  4  5  1  0  0  0  0
  5  6  1  0  0  0  0
  5 13  1  0  0  0  0
  6 15  1  1  0  0  0
  6 16  1  0  0  0  0
  8  2  1  0  0  0  0
 10  3  1  0  0  0  0
 11  4  1  0  0  0  0
 14  5  1  0  0  0  0
 16 17  1  0  0  0  0
 16 22  1  0  0  0  0
 17 18  1  0  0  0  0
 18 19  1  0  0  0  0
 19 20  1  0  0  0  0
 21 19  1  0  0  0  0
 22 21  1  0  0  0  0
 23  1  1  0  0  0  0
 23 24  1  0  0  0  0
 23 28  1  0  0  0  0
 25 23  1  0  0  0  0
 26 29  1  1  0  0  0
 27 28  1  0  0  0  0
 27 31  1  0  0  0  0
 27 26  1  0  0  0  0
 28 32  1  1  0  0  0
 28 26  1  0  0  0  0
 30 27  1  0  0  0  0
 33 34  1  0  0  0  0
 34 26  1  0  0  0  0
 34 35  2  0  0  0  0
 35 40  1  0  0  0  0
 36 35  1  0  0  0  0
 37 36  2  0  0  0  0
 38 33  2  0  0  0  0
 38 37  1  0  0  0  0
 39 33  1  0  0  0  0
 41 37  1  0  0  0  0
M  END
>  <minimizedAffinity>
-5.48973799

$$$$

 OpenBabel03252500333D

 41 44  0  0  1  0  0  0  0  0999 V2000
   38.1400   29.5410   41.5290 N   0  0  0  0  0  0  0  0  0  0  0  0
   36.8740   29.2550   42.0830 C   0  0  0  0  0  0  0  0  0  0  0  0
   35.9150   28.6550   41.0530 C   0  0  0  0  0  0  0  0  0  0  0  0
   35.6470   29.7590   40.0550 C   0  0  0  0  0  0  0  0  0  0  0  0
   36.9820   30.0440   39.3970 C   0  0  0  0  0  0  0  0  0  0  0  0
   38.0960   30.3050   40.3530 C   0  0  1  0  0  0  0  0  0  0  0  0
   36.4270   30.2810   42.2780 H   0  0  0  0  0  0  0  0  0  0  0  0
   36.8340   28.8060   43.0610 H   0  0  0  0  0  0  0  0  0  0  0  0
   36.4780   27.8200   40.5430 H   0  0  0  0  0  0  0  0  0  0  0  0
   35.0060   28.2700   41.5080 H   0  0  0  0  0  0  0  0  0  0  0  0
   34.9290   29.5080   39.2790 H   0  0  0  0  0  0  0  0  0  0  0  0
   35.3840   30.6520   40.6590 H   0  0  0  0  0  0  0  0  0  0  0  0
   36.8690   30.8760   38.6960 H   0  0  0  0  0  0  0  0  0  0  0  0
   37.2400   29.1540   38.7810 H   0  0  0  0  0  0  0  0  0  0  0  0
   39.0430   30.1450   39.7850 H   0  0  0  0  0  0  0  0  0  0  0  0
   38.1440   31.7140   40.7770 N   0  0  0  0  0  0  0  0  0  0  0  0
   39.4940   32.0400   41.1440 C   0  0  0  0  0  2  0  0  0  0  0  0
   40.2770   32.7290   40.0560 C   0  0  0  0  0  2  0  0  0  0  0  0
   39.7290   34.1490   39.9800 C   0  0  0  0  0  3  0  0  0  0  0  0
   40.0240   34.6620   39.0640 H   0  0  0  0  0  0  0  0  0  0  0  0
   38.2180   33.9990   40.1260 C   0  0  0  0  0  2  0  0  0  0  0  0
   37.7470   32.6150   39.7160 C   0  0  0  0  0  2  0  0  0  0  0  0
   39.1130   28.4970   41.6290 C   0  0  0  0  0  0  0  0  0  0  0  0
   38.6430   27.5790   41.1670 H   0  0  0  0  0  0  0  0  0  0  0  0
   40.0230   28.6990   41.0670 H   0  0  0  0  0  0  0  0  0  0  0  0
   39.1990   26.7180   43.5370 C   0  0  1  0  0  0  0  0  0  0  0  0
   40.4510   27.3780   43.5140 C   0  0  0  0  0  0  0  0  0  0  0  0
   39.2840   28.1860   43.0710 C   0  0  1  0  0  0  0  0  0  0  0  0
   38.6810   26.5370   44.5120 H   0  0  0  0  0  0  0  0  0  0  0  0
   41.2170   27.1890   42.7050 H   0  0  0  0  0  0  0  0  0  0  0  0
   40.9600   27.6860   44.4480 H   0  0  0  0  0  0  0  0  0  0  0  0
   38.6970   28.8170   43.7540 H   0  0  0  0  0  0  0  0  0  0  0  0
   37.3320   25.5060   42.4080 C   0  0  0  0  0  0  0  0  0  0  0  0
   38.7350   25.7190   42.5320 C   0  0  0  0  0  0  0  0  0  0  0  0
   39.5990   25.0060   41.7390 C   0  0  0  0  0  0  0  0  0  0  0  0
   39.0560   24.1150   40.8540 N   0  0  0  0  0  0  0  0  0  0  0  0
   37.7080   23.9260   40.7500 C   0  0  0  0  0  0  0  0  0  0  0  0
   36.8190   24.6190   41.5250 N   0  0  0  0  0  0  0  0  0  0  0  0
   36.6350   26.0590   43.0260 H   0  0  0  0  0  0  0  0  0  0  0  0
   40.6410   25.1690   41.8370 H   0  0  0  0  0  0  0  0  0  0  0  0
   37.3630   23.2110   40.0340 H   0  0  0  0  0  0  0  0  0  0  0  0
  1 23  1  0  0  0  0
  1  2  1  0  0  0  0
  2  7  1  0  0  0  0
  2  8  1  0  0  0  0
  3 10  1  0  0  0  0
  3  2  1  0  0  0  0
  4 12  1  0  0  0  0
  4  3  1  0  0  0  0
  5  4  1  0  0  0  0
  5  6  1  0  0  0  0
  6 15  1  6  0  0  0
  6 16  1  0  0  0  0
  6  1  1  0  0  0  0
  9  3  1  0  0  0  0
 11  4  1  0  0  0  0
 13  5  1  0  0  0  0
 14  5  1  0  0  0  0
 16 17  1  0  0  0  0
 18 17  1  0  0  0  0
 19 18  1  0  0  0  0
 19 21  1  0  0  0  0
 20 19  1  0  0  0  0
 22 21  1  0  0  0  0
 22 16  1  0  0  0  0
 23 28  1  0  0  0  0
 24 23  1  0  0  0  0
 25 23  1  0  0  0  0
 26 29  1  1  0  0  0
 27 26  1  0  0  0  0
 27 31  1  0  0  0  0
 28 27  1  0  0  0  0
 28 26  1  0  0  0  0
 28 32  1  1  0  0  0
 30 27  1  0  0  0  0
 33 34  1  0  0  0  0
 33 39  1  0  0  0  0
 34 26  1  0  0  0  0
 35 40  1  0  0  0  0
 35 34  2  0  0  0  0
 36 35  1  0  0  0  0
 37 36  2  0  0  0  0
 37 38  1  0  0  0  0
 38 33  2  0  0  0  0
 41 37  1  0  0  0  0
M  END
>  <minimizedAffinity>
-5.45322514

$$$$

 OpenBabel03252500333D

 41 44  0  0  1  0  0  0  0  0999 V2000
   37.6750   28.6340   40.5950 N   0  0  0  0  0  0  0  0  0  0  0  0
   37.2810   29.4600   41.6690 C   0  0  0  0  0  0  0  0  0  0  0  0
   38.4170   29.6900   42.6680 C   0  0  0  0  0  0  0  0  0  0  0  0
   38.6760   28.3430   43.3060 C   0  0  0  0  0  0  0  0  0  0  0  0
   39.1640   27.4490   42.1830 C   0  0  0  0  0  0  0  0  0  0  0  0
   38.2760   27.4270   40.9850 C   0  0  1  0  0  0  0  0  0  0  0  0
   36.5550   28.8130   42.2550 H   0  0  0  0  0  0  0  0  0  0  0  0
   36.6800   30.3280   41.4530 H   0  0  0  0  0  0  0  0  0  0  0  0
   39.3190   29.9940   42.0610 H   0  0  0  0  0  0  0  0  0  0  0  0
   38.1780   30.4610   43.3960 H   0  0  0  0  0  0  0  0  0  0  0  0
   39.4270   28.3480   44.0920 H   0  0  0  0  0  0  0  0  0  0  0  0
   37.6820   27.9620   43.6170 H   0  0  0  0  0  0  0  0  0  0  0  0
   39.3210   26.4380   42.5690 H   0  0  0  0  0  0  0  0  0  0  0  0
   40.1670   27.8230   41.8790 H   0  0  0  0  0  0  0  0  0  0  0  0
   38.8970   27.0460   40.1400 H   0  0  0  0  0  0  0  0  0  0  0  0
   37.1840   26.4510   41.1230 N   0  0  0  0  0  0  0  0  0  0  0  0
   36.6170   26.2070   39.8260 C   0  0  0  0  0  2  0  0  0  0  0  0
   37.1410   24.9670   39.1490 C   0  0  0  0  0  2  0  0  0  0  0  0
   36.5070   23.7900   39.8810 C   0  0  0  0  0  3  0  0  0  0  0  0
   37.0060   22.8450   39.6640 H   0  0  0  0  0  0  0  0  0  0  0  0
   36.5550   24.1710   41.3580 C   0  0  0  0  0  2  0  0  0  0  0  0
   37.6500   25.1830   41.6430 C   0  0  0  0  0  2  0  0  0  0  0  0
   38.1900   29.3120   39.4450 C   0  0  0  0  0  0  0  0  0  0  0  0
   38.8280   30.1590   39.8340 H   0  0  0  0  0  0  0  0  0  0  0  0
   38.8370   28.6900   38.8300 H   0  0  0  0  0  0  0  0  0  0  0  0
   37.0970   31.4620   38.4470 C   0  0  1  0  0  0  0  0  0  0  0  0
   37.2260   30.5240   37.3950 C   0  0  0  0  0  0  0  0  0  0  0  0
   37.0400   29.9520   38.7560 C   0  0  1  0  0  0  0  0  0  0  0  0
   36.1410   32.0290   38.5750 H   0  0  0  0  0  0  0  0  0  0  0  0
   38.2230   30.2800   36.9240 H   0  0  0  0  0  0  0  0  0  0  0  0
   36.4140   30.3630   36.6600 H   0  0  0  0  0  0  0  0  0  0  0  0
   36.0530   29.7050   39.1740 H   0  0  0  0  0  0  0  0  0  0  0  0
   37.9750   32.8940   40.2920 C   0  0  0  0  0  0  0  0  0  0  0  0
   38.2200   32.2320   39.0560 C   0  0  0  0  0  0  0  0  0  0  0  0
   39.4580   32.3250   38.4720 C   0  0  0  0  0  0  0  0  0  0  0  0
   40.4100   33.0620   39.1240 N   0  0  0  0  0  0  0  0  0  0  0  0
   40.1560   33.6890   40.3090 C   0  0  0  0  0  0  0  0  0  0  0  0
   38.9330   33.6180   40.9170 N   0  0  0  0  0  0  0  0  0  0  0  0
   37.0040   32.8330   40.7670 H   0  0  0  0  0  0  0  0  0  0  0  0
   39.6330   31.8300   37.5520 H   0  0  0  0  0  0  0  0  0  0  0  0
   40.9530   34.2460   40.7540 H   0  0  0  0  0  0  0  0  0  0  0  0
  1  6  1  0  0  0  0
  1  2  1  0  0  0  0
  2  7  1  0  0  0  0
  2  3  1  0  0  0  0
  3  4  1  0  0  0  0
  3 10  1  0  0  0  0
  4 12  1  0  0  0  0
  4 11  1  0  0  0  0
  5 13  1  0  0  0  0
  5  4  1  0  0  0  0
  6 15  1  6  0  0  0
  6 16  1  0  0  0  0
  6  5  1  0  0  0  0
  8  2  1  0  0  0  0
  9  3  1  0  0  0  0
 14  5  1  0  0  0  0
 16 22  1  0  0  0  0
 17 16  1  0  0  0  0
 18 17  1  0  0  0  0
 18 19  1  0  0  0  0
 19 21  1  0  0  0  0
 20 19  1  0  0  0  0
 21 22  1  0  0  0  0
 23 24  1  0  0  0  0
 23  1  1  0  0  0  0
 25 23  1  0  0  0  0
 26 29  1  1  0  0  0
 26 28  1  0  0  0  0
 26 34  1  0  0  0  0
 27 26  1  0  0  0  0
 27 28  1  0  0  0  0
 28 32  1  1  0  0  0
 28 23  1  0  0  0  0
 30 27  1  0  0  0  0
 31 27  1  0  0  0  0
 33 39  1  0  0  0  0
 33 38  1  0  0  0  0
 34 33  2  0  0  0  0
 35 34  1  0  0  0  0
 35 36  2  0  0  0  0
 36 37  1  0  0  0  0
 37 41  1  0  0  0  0
 37 38  2  0  0  0  0
 40 35  1  0  0  0  0
M  END
>  <minimizedAffinity>
-5.30803013

$$$$

 OpenBabel03252500333D

 41 44  0  0  1  0  0  0  0  0999 V2000
   37.2910   26.9620   41.4390 N   0  0  0  0  0  0  0  0  0  0  0  0
   37.0890   27.2420   42.8070 C   0  0  0  0  0  0  0  0  0  0  0  0
   38.3800   27.6800   43.5030 C   0  0  0  0  0  0  0  0  0  0  0  0
   39.2780   26.4630   43.4970 C   0  0  0  0  0  0  0  0  0  0  0  0
   39.5640   26.1760   42.0360 C   0  0  0  0  0  0  0  0  0  0  0  0
   38.3470   26.0750   41.1810 C   0  0  1  0  0  0  0  0  0  0  0  0
   36.8890   26.2220   43.2650 H   0  0  0  0  0  0  0  0  0  0  0  0
   36.2080   27.7910   43.0920 H   0  0  0  0  0  0  0  0  0  0  0  0
   38.8360   28.4830   42.8530 H   0  0  0  0  0  0  0  0  0  0  0  0
   38.2010   28.0660   44.5030 H   0  0  0  0  0  0  0  0  0  0  0  0
   40.2260   26.5940   44.0130 H   0  0  0  0  0  0  0  0  0  0  0  0
   38.6550   25.6290   43.8770 H   0  0  0  0  0  0  0  0  0  0  0  0
   40.1700   25.2700   41.9580 H   0  0  0  0  0  0  0  0  0  0  0  0
   40.2000   27.0070   41.6580 H   0  0  0  0  0  0  0  0  0  0  0  0
   38.6890   26.2200   40.1290 H   0  0  0  0  0  0  0  0  0  0  0  0
   37.7630   24.7240   41.2050 N   0  0  0  0  0  0  0  0  0  0  0  0
   36.6660   24.6780   40.2790 C   0  0  0  0  0  2  0  0  0  0  0  0
   37.0200   24.0970   38.9350 C   0  0  0  0  0  2  0  0  0  0  0  0
   37.1750   22.5970   39.1540 C   0  0  0  0  0  3  0  0  0  0  0  0
   37.6840   22.1040   38.3250 H   0  0  0  0  0  0  0  0  0  0  0  0
   37.9140   22.4650   40.4810 C   0  0  0  0  0  2  0  0  0  0  0  0
   38.7180   23.7120   40.8050 C   0  0  0  0  0  2  0  0  0  0  0  0
   37.0850   28.0580   40.5420 C   0  0  0  0  0  0  0  0  0  0  0  0
   37.9240   28.7890   40.7360 H   0  0  0  0  0  0  0  0  0  0  0  0
   37.1510   27.7760   39.4930 H   0  0  0  0  0  0  0  0  0  0  0  0
   35.5990   30.2040   40.5160 C   0  0  1  0  0  0  0  0  0  0  0  0
   34.8440   29.1570   39.9360 C   0  0  0  0  0  0  0  0  0  0  0  0
   35.8390   28.7470   40.9630 C   0  0  1  0  0  0  0  0  0  0  0  0
   35.1270   30.8820   41.2710 H   0  0  0  0  0  0  0  0  0  0  0  0
   35.0590   28.7610   38.9000 H   0  0  0  0  0  0  0  0  0  0  0  0
   33.7730   29.0130   40.1780 H   0  0  0  0  0  0  0  0  0  0  0  0
   35.5940   28.6510   42.0310 H   0  0  0  0  0  0  0  0  0  0  0  0
   37.6720   31.5810   40.7030 C   0  0  0  0  0  0  0  0  0  0  0  0
   36.7430   30.9040   39.8630 C   0  0  0  0  0  0  0  0  0  0  0  0
   36.9250   30.9200   38.5030 C   0  0  0  0  0  0  0  0  0  0  0  0
   38.0110   31.5970   38.0180 N   0  0  0  0  0  0  0  0  0  0  0  0
   38.8900   32.2400   38.8410 C   0  0  0  0  0  0  0  0  0  0  0  0
   38.7380   32.2450   40.1990 N   0  0  0  0  0  0  0  0  0  0  0  0
   37.5440   31.5800   41.7780 H   0  0  0  0  0  0  0  0  0  0  0  0
   36.2290   30.4140   37.8840 H   0  0  0  0  0  0  0  0  0  0  0  0
   39.7130   32.7470   38.3830 H   0  0  0  0  0  0  0  0  0  0  0  0
  1  2  1  0  0  0  0
  2  8  1  0  0  0  0
  2  7  1  0  0  0  0
  2  3  1  0  0  0  0
  3 10  1  0  0  0  0
  4  3  1  0  0  0  0
  4 12  1  0  0  0  0
  4 11  1  0  0  0  0
  5  4  1  0  0  0  0
  6 15  1  6  0  0  0
  6 16  1  0  0  0  0
  6  1  1  0  0  0  0
  6  5  1  0  0  0  0
  9  3  1  0  0  0  0
 13  5  1  0  0  0  0
 14  5  1  0  0  0  0
 17 16  1  0  0  0  0
 18 19  1  0  0  0  0
 18 17  1  0  0  0  0
 19 21  1  0  0  0  0
 20 19  1  0  0  0  0
 21 22  1  0  0  0  0
 22 16  1  0  0  0  0
 23 24  1  0  0  0  0
 23 28  1  0  0  0  0
 23  1  1  0  0  0  0
 25 23  1  0  0  0  0
 26 28  1  0  0  0  0
 26 29  1  1  0  0  0
 27 31  1  0  0  0  0
 27 26  1  0  0  0  0
 27 28  1  0  0  0  0
 28 32  1  1  0  0  0
 30 27  1  0  0  0  0
 33 39  1  0  0  0  0
 34 26  1  0  0  0  0
 34 33  2  0  0  0  0
 35 34  1  0  0  0  0
 36 35  2  0  0  0  0
 36 37  1  0  0  0  0
 37 38  2  0  0  0  0
 38 33  1  0  0  0  0
 40 35  1  0  0  0  0
 41 37  1  0  0  0  0
M  END
>  <minimizedAffinity>
-5.29094505

$$$$

 OpenBabel03252500333D

 41 44  0  0  1  0  0  0  0  0999 V2000
   39.8810   28.9350   41.9070 N   0  0  0  0  0  0  0  0  0  0  0  0
   41.2850   28.8090   41.8470 C   0  0  0  0  0  0  0  0  0  0  0  0
   41.9790   29.5250   43.0080 C   0  0  0  0  0  0  0  0  0  0  0  0
   41.7240   30.9990   42.7870 C   0  0  0  0  0  0  0  0  0  0  0  0
   40.2240   31.1750   42.9100 C   0  0  0  0  0  0  0  0  0  0  0  0
   39.4250   30.2540   42.0510 C   0  0  1  0  0  0  0  0  0  0  0  0
   41.5750   29.4420   40.9500 H   0  0  0  0  0  0  0  0  0  0  0  0
   41.7020   27.8510   41.5870 H   0  0  0  0  0  0  0  0  0  0  0  0
   41.4500   29.1920   43.9490 H   0  0  0  0  0  0  0  0  0  0  0  0
   43.0370   29.2850   43.0690 H   0  0  0  0  0  0  0  0  0  0  0  0
   42.2070   31.6580   43.5050 H   0  0  0  0  0  0  0  0  0  0  0  0
   41.9900   31.1940   41.7280 H   0  0  0  0  0  0  0  0  0  0  0  0
   39.9640   32.2180   42.7070 H   0  0  0  0  0  0  0  0  0  0  0  0
   39.9580   30.9920   43.9750 H   0  0  0  0  0  0  0  0  0  0  0  0
   38.3960   30.2340   42.4830 H   0  0  0  0  0  0  0  0  0  0  0  0
   39.2510   30.7800   40.6870 N   0  0  0  0  0  0  0  0  0  0  0  0
   37.9890   30.3240   40.1740 C   0  0  0  0  0  2  0  0  0  0  0  0
   36.8740   31.3290   40.3030 C   0  0  0  0  0  2  0  0  0  0  0  0
   37.1530   32.4010   39.2560 C   0  0  0  0  0  3  0  0  0  0  0  0
   36.5750   33.3100   39.4250 H   0  0  0  0  0  0  0  0  0  0  0  0
   38.6610   32.6270   39.3140 C   0  0  0  0  0  2  0  0  0  0  0  0
   39.2400   32.2260   40.6590 C   0  0  0  0  0  2  0  0  0  0  0  0
   39.1920   27.8950   42.6080 C   0  0  0  0  0  0  0  0  0  0  0  0
   39.1400   27.0150   41.9000 H   0  0  0  0  0  0  0  0  0  0  0  0
   39.7170   27.5510   43.4970 H   0  0  0  0  0  0  0  0  0  0  0  0
   36.6390   27.4550   42.2880 C   0  0  1  0  0  0  0  0  0  0  0  0
   36.8820   27.5580   43.6790 C   0  0  0  0  0  0  0  0  0  0  0  0
   37.7900   28.3440   42.8010 C   0  0  1  0  0  0  0  0  0  0  0  0
   35.7670   27.9880   41.8330 H   0  0  0  0  0  0  0  0  0  0  0  0
   37.3970   26.7400   44.2630 H   0  0  0  0  0  0  0  0  0  0  0  0
   36.2010   28.1230   44.3460 H   0  0  0  0  0  0  0  0  0  0  0  0
   37.5940   29.3890   42.5180 H   0  0  0  0  0  0  0  0  0  0  0  0
   37.1700   25.0260   42.0650 C   0  0  0  0  0  0  0  0  0  0  0  0
   37.0170   26.2930   41.4330 C   0  0  0  0  0  0  0  0  0  0  0  0
   37.2230   26.4020   40.0810 C   0  0  0  0  0  0  0  0  0  0  0  0
   37.5690   25.2660   39.4000 N   0  0  0  0  0  0  0  0  0  0  0  0
   37.7100   24.0610   40.0250 C   0  0  0  0  0  0  0  0  0  0  0  0
   37.5130   23.9180   41.3710 N   0  0  0  0  0  0  0  0  0  0  0  0
   37.0120   24.9210   43.1320 H   0  0  0  0  0  0  0  0  0  0  0  0
   37.1090   27.3480   39.6160 H   0  0  0  0  0  0  0  0  0  0  0  0
   37.9840   23.2220   39.4220 H   0  0  0  0  0  0  0  0  0  0  0  0
  1  6  1  0  0  0  0
  1 23  1  0  0  0  0
  2  1  1  0  0  0  0
  2  3  1  0  0  0  0
  3 10  1  0  0  0  0
  3  9  1  0  0  0  0
  4  5  1  0  0  0  0
  4  3  1  0  0  0  0
  4 11  1  0  0  0  0
  5 14  1  0  0  0  0
  6 15  1  1  0  0  0
  6  5  1  0  0  0  0
  7  2  1  0  0  0  0
  8  2  1  0  0  0  0
 12  4  1  0  0  0  0
 13  5  1  0  0  0  0
 16  6  1  0  0  0  0
 17 18  1  0  0  0  0
 17 16  1  0  0  0  0
 19 21  1  0  0  0  0
 19 20  1  0  0  0  0
 19 18  1  0  0  0  0
 21 22  1  0  0  0  0
 22 16  1  0  0  0  0
 23 28  1  0  0  0  0
 23 25  1  0  0  0  0
 24 23  1  0  0  0  0
 26 29  1  6  0  0  0
 26 28  1  0  0  0  0
 26 27  1  0  0  0  0
 27 30  1  0  0  0  0
 27 31  1  0  0  0  0
 28 32  1  6  0  0  0
 28 27  1  0  0  0  0
 33 39  1  0  0  0  0
 34 33  1  0  0  0  0
 34 26  1  0  0  0  0
 35 34  2  0  0  0  0
 36 37  2  0  0  0  0
 36 35  1  0  0  0  0
 37 38  1  0  0  0  0
 38 33  2  0  0  0  0
 40 35  1  0  0  0  0
 41 37  1  0  0  0  0
M  END
>  <minimizedAffinity>
-5.23897219

$$$$

 OpenBabel03252500333D

 41 44  0  0  1  0  0  0  0  0999 V2000
   37.6760   30.1760   40.0950 N   0  0  0  0  0  0  0  0  0  0  0  0
   36.4290   30.4510   39.4960 C   0  0  0  0  0  0  0  0  0  0  0  0
   36.3520   29.9340   38.0570 C   0  0  0  0  0  0  0  0  0  0  0  0
   37.3380   30.7710   37.2720 C   0  0  0  0  0  0  0  0  0  0  0  0
   38.6990   30.4460   37.8540 C   0  0  0  0  0  0  0  0  0  0  0  0
   38.7840   30.5850   39.3360 C   0  0  1  0  0  0  0  0  0  0  0  0
   36.4370   31.5780   39.3600 H   0  0  0  0  0  0  0  0  0  0  0  0
   35.5370   30.3050   40.0820 H   0  0  0  0  0  0  0  0  0  0  0  0
   36.7090   28.8640   38.0840 H   0  0  0  0  0  0  0  0  0  0  0  0
   35.3440   29.9820   37.6530 H   0  0  0  0  0  0  0  0  0  0  0  0
   37.3620   30.5640   36.2050 H   0  0  0  0  0  0  0  0  0  0  0  0
   37.1140   31.8240   37.5350 H   0  0  0  0  0  0  0  0  0  0  0  0
   39.4580   31.0610   37.3620 H   0  0  0  0  0  0  0  0  0  0  0  0
   38.9300   29.3920   37.5800 H   0  0  0  0  0  0  0  0  0  0  0  0
   39.6760   29.9980   39.6570 H   0  0  0  0  0  0  0  0  0  0  0  0
   39.0740   31.9680   39.7470 N   0  0  0  0  0  0  0  0  0  0  0  0
   39.6760   31.9460   41.0510 C   0  0  0  0  0  2  0  0  0  0  0  0
   41.1810   32.0290   41.0350 C   0  0  0  0  0  2  0  0  0  0  0  0
   41.5160   33.4710   40.6710 C   0  0  0  0  0  3  0  0  0  0  0  0
   42.5570   33.5940   40.3690 H   0  0  0  0  0  0  0  0  0  0  0  0
   40.5220   33.8450   39.5760 C   0  0  0  0  0  2  0  0  0  0  0  0
   40.0010   32.6200   38.8470 C   0  0  0  0  0  2  0  0  0  0  0  0
   37.7620   28.9440   40.8170 C   0  0  0  0  0  0  0  0  0  0  0  0
   36.9790   28.2610   40.3740 H   0  0  0  0  0  0  0  0  0  0  0  0
   38.7190   28.4410   40.7010 H   0  0  0  0  0  0  0  0  0  0  0  0
   37.5400   28.1340   43.2890 C   0  0  1  0  0  0  0  0  0  0  0  0
   38.3380   29.3030   43.2940 C   0  0  0  0  0  0  0  0  0  0  0  0
   37.3240   29.2160   42.2100 C   0  0  1  0  0  0  0  0  0  0  0  0
   36.7200   28.0150   44.0410 H   0  0  0  0  0  0  0  0  0  0  0  0
   39.4070   29.3040   42.9280 H   0  0  0  0  0  0  0  0  0  0  0  0
   38.2030   30.0940   44.0570 H   0  0  0  0  0  0  0  0  0  0  0  0
   36.3070   29.6240   42.3060 H   0  0  0  0  0  0  0  0  0  0  0  0
   36.9800   25.8730   42.3960 C   0  0  0  0  0  0  0  0  0  0  0  0
   37.9830   26.7910   42.8160 C   0  0  0  0  0  0  0  0  0  0  0  0
   39.3020   26.4170   42.7770 C   0  0  0  0  0  0  0  0  0  0  0  0
   39.5880   25.1560   42.3260 N   0  0  0  0  0  0  0  0  0  0  0  0
   38.6120   24.2900   41.9260 C   0  0  0  0  0  0  0  0  0  0  0  0
   37.2880   24.6320   41.9540 N   0  0  0  0  0  0  0  0  0  0  0  0
   35.9330   26.1510   42.4210 H   0  0  0  0  0  0  0  0  0  0  0  0
   40.0440   27.1050   43.0920 H   0  0  0  0  0  0  0  0  0  0  0  0
   38.9180   23.3230   41.5880 H   0  0  0  0  0  0  0  0  0  0  0  0
  1 23  1  0  0  0  0
  2  8  1  0  0  0  0
  2  1  1  0  0  0  0
  3  9  1  0  0  0  0
  3  2  1  0  0  0  0
  4 12  1  0  0  0  0
  4  5  1  0  0  0  0
  4  3  1  0  0  0  0
  5  6  1  0  0  0  0
  6 15  1  1  0  0  0
  6 16  1  0  0  0  0
  6  1  1  0  0  0  0
  7  2  1  0  0  0  0
 10  3  1  0  0  0  0
 11  4  1  0  0  0  0
 13  5  1  0  0  0  0
 14  5  1  0  0  0  0
 16 17  1  0  0  0  0
 18 17  1  0  0  0  0
 19 18  1  0  0  0  0
 20 19  1  0  0  0  0
 21 19  1  0  0  0  0
 22 21  1  0  0  0  0
 22 16  1  0  0  0  0
 23 28  1  0  0  0  0
 24 23  1  0  0  0  0
 25 23  1  0  0  0  0
 26 27  1  0  0  0  0
 26 29  1  1  0  0  0
 27 31  1  0  0  0  0
 28 32  1  1  0  0  0
 28 26  1  0  0  0  0
 28 27  1  0  0  0  0
 30 27  1  0  0  0  0
 33 39  1  0  0  0  0
 33 34  1  0  0  0  0
 34 26  1  0  0  0  0
 35 34  2  0  0  0  0
 35 40  1  0  0  0  0
 36 35  1  0  0  0  0
 37 38  1  0  0  0  0
 37 36  2  0  0  0  0
 38 33  2  0  0  0  0
 41 37  1  0  0  0  0
M  END
>  <minimizedAffinity>
-5.16180515

$$$$

 OpenBabel03252500333D

 41 44  0  0  1  0  0  0  0  0999 V2000
   38.0670   30.0050   40.9660 N   0  0  0  0  0  0  0  0  0  0  0  0
   36.9650   30.8530   40.7260 C   0  0  0  0  0  0  0  0  0  0  0  0
   36.7110   31.0590   39.2310 C   0  0  0  0  0  0  0  0  0  0  0  0
   37.9020   31.8370   38.7190 C   0  0  0  0  0  0  0  0  0  0  0  0
   39.0960   30.9210   38.9060 C   0  0  0  0  0  0  0  0  0  0  0  0
   39.2380   30.3710   40.2850 C   0  0  1  0  0  0  0  0  0  0  0  0
   37.3320   31.8740   41.0630 H   0  0  0  0  0  0  0  0  0  0  0  0
   36.0810   30.7260   41.3270 H   0  0  0  0  0  0  0  0  0  0  0  0
   36.7070   30.0310   38.7640 H   0  0  0  0  0  0  0  0  0  0  0  0
   35.7660   31.5610   39.0370 H   0  0  0  0  0  0  0  0  0  0  0  0
   37.8470   32.1170   37.6700 H   0  0  0  0  0  0  0  0  0  0  0  0
   38.0300   32.6860   39.4200 H   0  0  0  0  0  0  0  0  0  0  0  0
   40.0050   31.4450   38.6020 H   0  0  0  0  0  0  0  0  0  0  0  0
   38.9740   30.0740   38.1940 H   0  0  0  0  0  0  0  0  0  0  0  0
   39.8990   29.4770   40.2010 H   0  0  0  0  0  0  0  0  0  0  0  0
   39.9600   31.2920   41.1770 N   0  0  0  0  0  0  0  0  0  0  0  0
   40.0970   30.6740   42.4660 C   0  0  0  0  0  2  0  0  0  0  0  0
   41.4300   30.0060   42.6880 C   0  0  0  0  0  2  0  0  0  0  0  0
   42.4360   31.1340   42.8860 C   0  0  0  0  0  3  0  0  0  0  0  0
   43.4680   30.7950   42.7920 H   0  0  0  0  0  0  0  0  0  0  0  0
   42.0520   32.1920   41.8570 C   0  0  0  0  0  2  0  0  0  0  0  0
   41.2890   31.5910   40.6890 C   0  0  0  0  0  2  0  0  0  0  0  0
   37.7620   28.6130   41.1000 C   0  0  0  0  0  0  0  0  0  0  0  0
   37.1670   28.3280   40.1830 H   0  0  0  0  0  0  0  0  0  0  0  0
   38.6450   27.9770   41.1110 H   0  0  0  0  0  0  0  0  0  0  0  0
   36.8310   27.1560   43.0560 C   0  0  1  0  0  0  0  0  0  0  0  0
   37.3820   28.3290   43.6250 C   0  0  0  0  0  0  0  0  0  0  0  0
   36.8330   28.4710   42.2500 C   0  0  1  0  0  0  0  0  0  0  0  0
   35.8320   26.7860   43.3970 H   0  0  0  0  0  0  0  0  0  0  0  0
   38.4970   28.4970   43.6970 H   0  0  0  0  0  0  0  0  0  0  0  0
   36.8670   28.8750   44.4390 H   0  0  0  0  0  0  0  0  0  0  0  0
   35.7950   28.7730   42.0470 H   0  0  0  0  0  0  0  0  0  0  0  0
   36.9400   25.1030   41.6420 C   0  0  0  0  0  0  0  0  0  0  0  0
   37.6180   26.0210   42.4930 C   0  0  0  0  0  0  0  0  0  0  0  0
   38.9490   25.8330   42.7660 C   0  0  0  0  0  0  0  0  0  0  0  0
   39.5660   24.7540   42.1930 N   0  0  0  0  0  0  0  0  0  0  0  0
   38.8980   23.8850   41.3800 C   0  0  0  0  0  0  0  0  0  0  0  0
   37.5720   24.0420   41.0880 N   0  0  0  0  0  0  0  0  0  0  0  0
   35.8890   25.2340   41.4160 H   0  0  0  0  0  0  0  0  0  0  0  0
   39.4480   26.5200   43.4010 H   0  0  0  0  0  0  0  0  0  0  0  0
   39.4520   23.0660   40.9720 H   0  0  0  0  0  0  0  0  0  0  0  0
  1 23  1  0  0  0  0
  2  1  1  0  0  0  0
  2  7  1  0  0  0  0
  2  8  1  0  0  0  0
  3  2  1  0  0  0  0
  4  5  1  0  0  0  0
  4  3  1  0  0  0  0
  4 12  1  0  0  0  0
  5  6  1  0  0  0  0
  6 15  1  6  0  0  0
  6  1  1  0  0  0  0
  6 16  1  0  0  0  0
  9  3  1  0  0  0  0
 10  3  1  0  0  0  0
 11  4  1  0  0  0  0
 13  5  1  0  0  0  0
 14  5  1  0  0  0  0
 16 17  1  0  0  0  0
 17 18  1  0  0  0  0
 18 19  1  0  0  0  0
 20 19  1  0  0  0  0
 21 19  1  0  0  0  0
 22 16  1  0  0  0  0
 22 21  1  0  0  0  0
 23 25  1  0  0  0  0
 23 28  1  0  0  0  0
 24 23  1  0  0  0  0
 26 29  1  1  0  0  0
 26 27  1  0  0  0  0
 27 30  1  0  0  0  0
 27 31  1  0  0  0  0
 28 32  1  6  0  0  0
 28 26  1  0  0  0  0
 28 27  1  0  0  0  0
 33 34  1  0  0  0  0
 34 35  2  0  0  0  0
 34 26  1  0  0  0  0
 35 40  1  0  0  0  0
 36 35  1  0  0  0  0
 37 36  2  0  0  0  0
 38 37  1  0  0  0  0
 38 33  2  0  0  0  0
 39 33  1  0  0  0  0
 41 37  1  0  0  0  0
M  END
>  <minimizedAffinity>
-5.14072609

$$$$
