
 OpenBabel03252509283D

 19 20  0  0  0  0  0  0  0  0999 V2000
   47.3720   34.3210   42.3650 C   0  0  0  0  0  0  0  0  0  0  0  0
   48.0810   33.5110   42.7010 H   0  0  0  0  0  0  0  0  0  0  0  0
   48.0060   35.1860   42.1330 H   0  0  0  0  0  0  0  0  0  0  0  0
   44.6430   36.0350   44.2170 C   0  0  0  0  0  0  0  0  0  0  0  0
   45.5780   35.7320   43.2030 C   0  0  0  0  0  0  0  0  0  0  0  0
   46.4070   34.6300   43.4180 C   0  0  0  0  0  0  0  0  0  0  0  0
   46.2760   33.9210   44.5680 N   0  0  0  0  0  0  0  0  0  0  0  0
   45.3640   34.2500   45.5120 C   0  0  0  0  0  0  0  0  0  0  0  0
   44.5600   35.3020   45.3260 N   0  0  0  0  0  0  0  0  0  0  0  0
   43.9940   36.8980   44.0470 H   0  0  0  0  0  0  0  0  0  0  0  0
   45.6590   36.3100   42.3040 H   0  0  0  0  0  0  0  0  0  0  0  0
   45.2270   33.7220   46.4300 H   0  0  0  0  0  0  0  0  0  0  0  0
   46.7130   33.9310   41.1450 N   0  0  0  0  0  0  0  0  0  0  0  0
   46.1850   32.6080   41.1260 C   0  0  0  0  0  2  0  0  0  0  0  0
   44.9960   32.6350   40.1690 C   0  0  0  0  0  2  0  0  0  0  0  0
   45.5190   33.0890   38.8410 C   0  0  0  0  0  3  0  0  0  0  0  0
   45.0210   34.0300   38.4650 H   0  0  0  0  0  0  0  0  0  0  0  0
   47.0040   33.3370   38.8140 C   0  0  0  0  0  2  0  0  0  0  0  0
   47.5020   34.1520   39.9720 C   0  0  0  0  0  2  0  0  0  0  0  0
  1  2  1  0  0  0  0
  1  6  1  0  0  0  0
  3  1  1  0  0  0  0
  4  9  1  0  0  0  0
  5  6  1  0  0  0  0
  5  4  2  0  0  0  0
  6  7  2  0  0  0  0
  7  8  1  0  0  0  0
  8 12  1  0  0  0  0
  9  8  2  0  0  0  0
 10  4  1  0  0  0  0
 11  5  1  0  0  0  0
 13  1  1  0  0  0  0
 14 13  1  0  0  0  0
 15 14  1  0  0  0  0
 16 15  1  0  0  0  0
 17 16  1  0  0  0  0
 18 16  1  0  0  0  0
 18 19  1  0  0  0  0
 19 13  1  0  0  0  0
M  END
>  <minimizedAffinity>
-3.57721448

>  <minimizedRMSD>
0.531100392

$$$$
