
 OpenBabel03242522093D

 18 19  0  0  0  0  0  0  0  0999 V2000
   44.7010   35.4810   44.7960 C   0  0  0  0  0  0  0  0  0  0  0  0
   45.6060   35.1880   43.7680 C   0  0  0  0  0  0  0  0  0  0  0  0
   46.5020   34.1420   43.9260 C   0  0  0  0  0  0  0  0  0  0  0  0
   46.4490   33.4460   45.0880 N   0  0  0  0  0  0  0  0  0  0  0  0
   45.5780   33.7360   46.0670 C   0  0  0  0  0  0  0  0  0  0  0  0
   44.6990   34.7540   45.9250 N   0  0  0  0  0  0  0  0  0  0  0  0
   43.9660   36.2720   44.7750 H   0  0  0  0  0  0  0  0  0  0  0  0
   45.6730   33.0750   46.9350 H   0  0  0  0  0  0  0  0  0  0  0  0
   47.3830   33.9000   42.8580 N   0  0  0  0  0  0  0  0  0  0  0  0
   47.1130   33.1210   41.6550 C   0  0  0  0  0  0  0  0  0  0  0  0
   47.0480   34.0480   40.4660 C   0  0  0  0  0  0  0  0  0  0  0  0
   48.2440   34.9540   40.3670 C   0  0  0  0  0  0  0  0  0  0  0  0
   47.9060   35.8760   39.8110 H   0  0  0  0  0  0  0  0  0  0  0  0
   48.7960   35.3980   41.6720 C   0  0  0  0  0  0  0  0  0  0  0  0
   48.7370   34.4010   42.7800 C   0  0  0  0  0  0  0  0  0  0  0  0
   45.5040   36.0420   42.6140 N   0  0  0  0  0  0  0  0  0  0  0  0
   44.6290   35.7750   42.0700 H   0  0  0  0  0  0  0  0  0  0  0  0
   46.1240   36.8160   42.2790 H   0  0  0  0  0  0  0  0  0  0  0  0
  1  6  1  0  0  0  0
  2  3  1  0  0  0  0
  2  1  2  0  0  0  0
  3  4  2  0  0  0  0
  4  5  1  0  0  0  0
  5  8  1  0  0  0  0
  6  5  2  0  0  0  0
  7  1  1  0  0  0  0
  9  3  1  0  0  0  0
 10  9  1  0  0  0  0
 11 10  1  0  0  0  0
 12 11  1  0  0  0  0
 12 14  1  0  0  0  0
 13 12  1  0  0  0  0
 14 15  1  0  0  0  0
 15  9  1  0  0  0  0
 16  2  1  0  0  0  0
 17 16  1  0  0  0  0
 18 16  1  0  0  0  0
M  END
>  <minimizedAffinity>
-4.49888659

>  <minimizedRMSD>
2.22493267

$$$$
