
 OpenBabel03252506273D

 43 47  0  0  0  0  0  0  0  0999 V2000
   38.6270   31.1880   39.7820 C   0  0  0  0  0  0  0  0  0  0  0  0
   38.2490   31.0760   38.7230 H   0  0  0  0  0  0  0  0  0  0  0  0
   39.7290   31.2250   39.6600 H   0  0  0  0  0  0  0  0  0  0  0  0
   38.0620   28.6850   40.0510 C   0  0  0  0  0  0  0  0  0  0  0  0
   38.2040   29.9880   40.4930 C   0  0  0  0  0  0  0  0  0  0  0  0
   37.9000   30.2150   41.8320 C   0  0  0  0  0  0  0  0  0  0  0  0
   37.4810   29.2120   42.6760 C   0  0  0  0  0  0  0  0  0  0  0  0
   37.1250   29.1210   43.9690 N   0  0  0  0  0  0  0  0  0  0  0  0
   36.7880   27.8720   44.3130 C   0  0  0  0  0  0  0  0  0  0  0  0
   36.9210   27.0660   43.1910 C   0  0  0  0  0  0  0  0  0  0  0  0
   37.3460   27.9200   42.2130 C   0  0  0  0  0  0  0  0  0  0  0  0
   37.6420   27.6770   40.8960 C   0  0  0  0  0  0  0  0  0  0  0  0
   38.3160   28.5750   38.9910 H   0  0  0  0  0  0  0  0  0  0  0  0
   37.9610   31.1760   42.3270 H   0  0  0  0  0  0  0  0  0  0  0  0
   37.1090   29.9270   44.6440 H   0  0  0  0  0  0  0  0  0  0  0  0
   36.4610   27.5250   45.3000 H   0  0  0  0  0  0  0  0  0  0  0  0
   36.7300   26.0040   43.1170 H   0  0  0  0  0  0  0  0  0  0  0  0
   37.5540   26.4040   40.2640 N   0  0  0  0  0  0  0  0  0  0  0  0
   36.4110   25.9520   39.4940 C   0  0  0  0  0  2  0  0  0  0  0  0
   36.2320   24.4710   39.5500 C   0  0  0  0  0  2  0  0  0  0  0  0
   36.7120   23.9880   40.9030 C   0  0  0  0  0  3  0  0  0  0  0  0
   36.2350   24.5850   41.6980 H   0  0  0  0  0  0  0  0  0  0  0  0
   38.2170   24.1270   40.8930 C   0  0  0  0  0  2  0  0  0  0  0  0
   38.6590   25.4740   40.3750 C   0  0  0  0  0  2  0  0  0  0  0  0
   38.1070   32.4800   40.2970 C   0  0  0  0  0  0  0  0  0  0  0  0
   37.2710   32.8230   39.6340 H   0  0  0  0  0  0  0  0  0  0  0  0
   37.6630   32.3250   41.2780 H   0  0  0  0  0  0  0  0  0  0  0  0
   41.1800   34.2730   40.6300 C   0  0  0  0  0  0  0  0  0  0  0  0
   40.2690   35.3090   40.3270 C   0  0  0  0  0  0  0  0  0  0  0  0
   39.0340   34.7700   40.1690 C   0  0  0  0  0  0  0  0  0  0  0  0
   39.1720   33.4580   40.3650 N   0  0  0  0  0  0  0  0  0  0  0  0
   40.4550   33.1490   40.6420 N   0  0  0  0  0  0  0  0  0  0  0  0
   40.5410   36.3630   40.2390 H   0  0  0  0  0  0  0  0  0  0  0  0
   38.0900   35.2720   39.9290 H   0  0  0  0  0  0  0  0  0  0  0  0
   44.7960   34.1270   40.2110 C   0  0  0  0  0  0  0  0  0  0  0  0
   45.2800   34.8510   41.2950 C   0  0  0  0  0  0  0  0  0  0  0  0
   44.3470   35.3890   42.1710 C   0  0  0  0  0  0  0  0  0  0  0  0
   43.0430   35.1710   41.9040 N   0  0  0  0  0  0  0  0  0  0  0  0
   42.5920   34.4760   40.8630 C   0  0  0  0  0  0  0  0  0  0  0  0
   43.4860   33.9520   40.0130 N   0  0  0  0  0  0  0  0  0  0  0  0
   45.5390   33.7140   39.5370 H   0  0  0  0  0  0  0  0  0  0  0  0
   46.3390   34.9950   41.4580 H   0  0  0  0  0  0  0  0  0  0  0  0
   44.6800   35.9670   43.0370 H   0  0  0  0  0  0  0  0  0  0  0  0
  1 25  1  0  0  0  0
  1  5  1  0  0  0  0
  2  1  1  0  0  0  0
  3  1  1  0  0  0  0
  4  5  2  0  0  0  0
  4 12  1  0  0  0  0
  5  6  1  0  0  0  0
  6 14  1  0  0  0  0
  6  7  2  0  0  0  0
  7  8  1  0  0  0  0
  8  9  1  0  0  0  0
  8 15  1  0  0  0  0
  9 16  1  0  0  0  0
 10  9  2  0  0  0  0
 11  7  1  0  0  0  0
 11 10  1  0  0  0  0
 12 11  2  0  0  0  0
 13  4  1  0  0  0  0
 17 10  1  0  0  0  0
 18 24  1  0  0  0  0
 18 12  1  0  0  0  0
 19 20  1  0  0  0  0
 19 18  1  0  0  0  0
 20 21  1  0  0  0  0
 21 22  1  0  0  0  0
 23 21  1  0  0  0  0
 24 23  1  0  0  0  0
 25 31  1  0  0  0  0
 25 27  1  0  0  0  0
 26 25  1  0  0  0  0
 28 32  2  0  0  0  0
 28 39  1  0  0  0  0
 29 28  1  0  0  0  0
 30 29  2  0  0  0  0
 30 31  1  0  0  0  0
 31 32  1  0  0  0  0
 33 29  1  0  0  0  0
 34 30  1  0  0  0  0
 35 36  1  0  0  0  0
 36 42  1  0  0  0  0
 36 37  2  0  0  0  0
 37 43  1  0  0  0  0
 38 37  1  0  0  0  0
 39 38  2  0  0  0  0
 40 35  2  0  0  0  0
 40 39  1  0  0  0  0
 41 35  1  0  0  0  0
M  END
>  <minimizedAffinity>
-6.9234705

$$$$

 OpenBabel03252506273D

 43 47  0  0  0  0  0  0  0  0999 V2000
   35.1490   29.1450   38.6750 C   0  0  0  0  0  0  0  0  0  0  0  0
   34.8390   30.1290   39.1370 H   0  0  0  0  0  0  0  0  0  0  0  0
   34.1820   28.6740   38.4000 H   0  0  0  0  0  0  0  0  0  0  0  0
   36.3570   27.1220   39.7240 C   0  0  0  0  0  0  0  0  0  0  0  0
   35.8320   28.4010   39.7260 C   0  0  0  0  0  0  0  0  0  0  0  0
   35.9650   29.1150   40.9130 C   0  0  0  0  0  0  0  0  0  0  0  0
   36.5810   28.5890   42.0270 C   0  0  0  0  0  0  0  0  0  0  0  0
   36.8530   29.0140   43.2720 N   0  0  0  0  0  0  0  0  0  0  0  0
   37.4940   28.0860   43.9940 C   0  0  0  0  0  0  0  0  0  0  0  0
   37.6680   26.9640   43.1940 C   0  0  0  0  0  0  0  0  0  0  0  0
   37.0980   27.3110   42.0020 C   0  0  0  0  0  0  0  0  0  0  0  0
   36.9760   26.5930   40.8390 C   0  0  0  0  0  0  0  0  0  0  0  0
   36.2190   26.6170   38.7610 H   0  0  0  0  0  0  0  0  0  0  0  0
   35.6080   30.1240   41.0730 H   0  0  0  0  0  0  0  0  0  0  0  0
   36.6010   29.9620   43.6520 H   0  0  0  0  0  0  0  0  0  0  0  0
   37.8300   28.1740   45.0330 H   0  0  0  0  0  0  0  0  0  0  0  0
   38.1470   26.0320   43.4620 H   0  0  0  0  0  0  0  0  0  0  0  0
   37.4530   25.2650   40.6500 N   0  0  0  0  0  0  0  0  0  0  0  0
   38.7870   24.9350   40.1870 C   0  0  0  0  0  2  0  0  0  0  0  0
   38.8270   23.6550   39.4200 C   0  0  0  0  0  2  0  0  0  0  0  0
   37.5090   23.4980   38.6930 C   0  0  0  0  0  3  0  0  0  0  0  0
   37.2880   24.4180   38.1270 H   0  0  0  0  0  0  0  0  0  0  0  0
   36.4720   23.2020   39.7530 C   0  0  0  0  0  2  0  0  0  0  0  0
   36.5760   24.1450   40.9260 C   0  0  0  0  0  2  0  0  0  0  0  0
   35.9470   29.4620   37.4630 C   0  0  0  0  0  0  0  0  0  0  0  0
   36.1490   28.5110   36.9050 H   0  0  0  0  0  0  0  0  0  0  0  0
   35.3540   30.0800   36.7920 H   0  0  0  0  0  0  0  0  0  0  0  0
   38.4900   31.6980   38.6060 C   0  0  0  0  0  0  0  0  0  0  0  0
   39.2510   30.6010   38.1450 C   0  0  0  0  0  0  0  0  0  0  0  0
   38.4050   29.6530   37.6720 C   0  0  0  0  0  0  0  0  0  0  0  0
   37.1720   30.1380   37.8320 N   0  0  0  0  0  0  0  0  0  0  0  0
   37.2120   31.3640   38.3920 N   0  0  0  0  0  0  0  0  0  0  0  0
   40.3410   30.5510   38.1770 H   0  0  0  0  0  0  0  0  0  0  0  0
   38.6410   28.6740   37.2390 H   0  0  0  0  0  0  0  0  0  0  0  0
   40.8930   34.2900   39.4910 C   0  0  0  0  0  0  0  0  0  0  0  0
   40.1500   35.1730   40.2670 C   0  0  0  0  0  0  0  0  0  0  0  0
   38.8130   34.8650   40.4810 C   0  0  0  0  0  0  0  0  0  0  0  0
   38.3350   33.7350   39.9200 N   0  0  0  0  0  0  0  0  0  0  0  0
   39.0570   32.8970   39.1800 C   0  0  0  0  0  0  0  0  0  0  0  0
   40.3480   33.1860   38.9680 N   0  0  0  0  0  0  0  0  0  0  0  0
   41.9340   34.5460   39.3340 H   0  0  0  0  0  0  0  0  0  0  0  0
   40.5860   36.0670   40.6910 H   0  0  0  0  0  0  0  0  0  0  0  0
   38.1880   35.5300   41.0840 H   0  0  0  0  0  0  0  0  0  0  0  0
  1  2  1  0  0  0  0
  1  5  1  0  0  0  0
  3  1  1  0  0  0  0
  4  5  2  0  0  0  0
  4 12  1  0  0  0  0
  5  6  1  0  0  0  0
  6 14  1  0  0  0  0
  6  7  2  0  0  0  0
  7  8  1  0  0  0  0
  8 15  1  0  0  0  0
  8  9  1  0  0  0  0
  9 16  1  0  0  0  0
 10 17  1  0  0  0  0
 10  9  2  0  0  0  0
 11  7  1  0  0  0  0
 11 10  1  0  0  0  0
 12 11  2  0  0  0  0
 13  4  1  0  0  0  0
 18 12  1  0  0  0  0
 18 24  1  0  0  0  0
 19 18  1  0  0  0  0
 20 19  1  0  0  0  0
 21 20  1  0  0  0  0
 21 23  1  0  0  0  0
 22 21  1  0  0  0  0
 23 24  1  0  0  0  0
 25 31  1  0  0  0  0
 25  1  1  0  0  0  0
 26 25  1  0  0  0  0
 27 25  1  0  0  0  0
 28 39  1  0  0  0  0
 29 33  1  0  0  0  0
 29 28  1  0  0  0  0
 30 31  1  0  0  0  0
 30 29  2  0  0  0  0
 31 32  1  0  0  0  0
 32 28  2  0  0  0  0
 34 30  1  0  0  0  0
 35 36  1  0  0  0  0
 36 37  2  0  0  0  0
 36 42  1  0  0  0  0
 37 43  1  0  0  0  0
 38 37  1  0  0  0  0
 39 38  2  0  0  0  0
 40 39  1  0  0  0  0
 40 35  2  0  0  0  0
 41 35  1  0  0  0  0
M  END
>  <minimizedAffinity>
-6.69330692

$$$$

 OpenBabel03252506273D

 43 47  0  0  0  0  0  0  0  0999 V2000
   36.1950   30.2700   38.7080 C   0  0  0  0  0  0  0  0  0  0  0  0
   35.6640   31.0870   39.2770 H   0  0  0  0  0  0  0  0  0  0  0  0
   35.4210   29.9040   38.0000 H   0  0  0  0  0  0  0  0  0  0  0  0
   36.8890   27.9240   39.5260 C   0  0  0  0  0  0  0  0  0  0  0  0
   36.5500   29.2540   39.6910 C   0  0  0  0  0  0  0  0  0  0  0  0
   36.5410   29.7240   41.0010 C   0  0  0  0  0  0  0  0  0  0  0  0
   36.8480   28.9230   42.0770 C   0  0  0  0  0  0  0  0  0  0  0  0
   36.9230   29.0790   43.4090 N   0  0  0  0  0  0  0  0  0  0  0  0
   37.2780   27.9470   44.0310 C   0  0  0  0  0  0  0  0  0  0  0  0
   37.4540   26.9640   43.0670 C   0  0  0  0  0  0  0  0  0  0  0  0
   37.1830   27.5980   41.8880 C   0  0  0  0  0  0  0  0  0  0  0  0
   37.1980   27.1170   40.6030 C   0  0  0  0  0  0  0  0  0  0  0  0
   36.8770   27.6190   38.4730 H   0  0  0  0  0  0  0  0  0  0  0  0
   36.2980   30.7380   41.2940 H   0  0  0  0  0  0  0  0  0  0  0  0
   36.7310   29.9780   43.9200 H   0  0  0  0  0  0  0  0  0  0  0  0
   37.4110   27.8010   45.1090 H   0  0  0  0  0  0  0  0  0  0  0  0
   37.7410   25.9330   43.2240 H   0  0  0  0  0  0  0  0  0  0  0  0
   37.5200   25.7800   40.2390 N   0  0  0  0  0  0  0  0  0  0  0  0
   36.5780   24.6760   40.2670 C   0  0  0  0  0  2  0  0  0  0  0  0
   37.2390   23.3660   40.5440 C   0  0  0  0  0  2  0  0  0  0  0  0
   38.4280   23.6180   41.4470 C   0  0  0  0  0  3  0  0  0  0  0  0
   38.1110   24.2170   42.3170 H   0  0  0  0  0  0  0  0  0  0  0  0
   39.4620   24.3240   40.5990 C   0  0  0  0  0  2  0  0  0  0  0  0
   38.8660   25.4610   39.8070 C   0  0  0  0  0  2  0  0  0  0  0  0
   37.3210   30.9060   37.9770 C   0  0  0  0  0  0  0  0  0  0  0  0
   38.0770   30.1180   37.7220 H   0  0  0  0  0  0  0  0  0  0  0  0
   36.9620   31.2910   37.0250 H   0  0  0  0  0  0  0  0  0  0  0  0
   39.4140   33.1250   39.8390 C   0  0  0  0  0  0  0  0  0  0  0  0
   38.1520   33.7480   39.9540 C   0  0  0  0  0  0  0  0  0  0  0  0
   37.2360   33.0050   39.2830 C   0  0  0  0  0  0  0  0  0  0  0  0
   37.9000   31.9660   38.7730 N   0  0  0  0  0  0  0  0  0  0  0  0
   39.2070   32.0290   39.1000 N   0  0  0  0  0  0  0  0  0  0  0  0
   37.9710   34.6760   40.5000 H   0  0  0  0  0  0  0  0  0  0  0  0
   36.1620   33.1840   39.1600 H   0  0  0  0  0  0  0  0  0  0  0  0
   42.7120   33.2360   41.3830 C   0  0  0  0  0  0  0  0  0  0  0  0
   42.9470   34.5960   41.5530 C   0  0  0  0  0  0  0  0  0  0  0  0
   41.9560   35.4720   41.1310 C   0  0  0  0  0  0  0  0  0  0  0  0
   40.8430   34.9400   40.5860 N   0  0  0  0  0  0  0  0  0  0  0  0
   40.6300   33.6360   40.4280 C   0  0  0  0  0  0  0  0  0  0  0  0
   41.5800   32.7830   40.8340 N   0  0  0  0  0  0  0  0  0  0  0  0
   43.4950   32.5660   41.7180 H   0  0  0  0  0  0  0  0  0  0  0  0
   43.8610   34.9660   41.9960 H   0  0  0  0  0  0  0  0  0  0  0  0
   42.0970   36.5510   41.2440 H   0  0  0  0  0  0  0  0  0  0  0  0
  1  2  1  0  0  0  0
  1  5  1  0  0  0  0
  3  1  1  0  0  0  0
  4  5  2  0  0  0  0
  4 12  1  0  0  0  0
  5  6  1  0  0  0  0
  6 14  1  0  0  0  0
  6  7  2  0  0  0  0
  7  8  1  0  0  0  0
  8 15  1  0  0  0  0
  8  9  1  0  0  0  0
  9 16  1  0  0  0  0
 10 17  1  0  0  0  0
 10  9  2  0  0  0  0
 11  7  1  0  0  0  0
 11 10  1  0  0  0  0
 12 11  2  0  0  0  0
 13  4  1  0  0  0  0
 18 19  1  0  0  0  0
 18 12  1  0  0  0  0
 19 20  1  0  0  0  0
 20 21  1  0  0  0  0
 21 22  1  0  0  0  0
 23 21  1  0  0  0  0
 24 18  1  0  0  0  0
 24 23  1  0  0  0  0
 25  1  1  0  0  0  0
 25 31  1  0  0  0  0
 26 25  1  0  0  0  0
 27 25  1  0  0  0  0
 28 29  1  0  0  0  0
 28 39  1  0  0  0  0
 29 33  1  0  0  0  0
 30 29  2  0  0  0  0
 31 32  1  0  0  0  0
 31 30  1  0  0  0  0
 32 28  2  0  0  0  0
 34 30  1  0  0  0  0
 35 36  1  0  0  0  0
 35 41  1  0  0  0  0
 36 42  1  0  0  0  0
 37 43  1  0  0  0  0
 37 36  2  0  0  0  0
 38 37  1  0  0  0  0
 39 38  2  0  0  0  0
 39 40  1  0  0  0  0
 40 35  2  0  0  0  0
M  END
>  <minimizedAffinity>
-6.68884039

$$$$

 OpenBabel03252506273D

 43 47  0  0  0  0  0  0  0  0999 V2000
   37.4490   31.2920   39.1730 C   0  0  0  0  0  0  0  0  0  0  0  0
   36.6120   31.2000   38.4210 H   0  0  0  0  0  0  0  0  0  0  0  0
   38.3590   31.3470   38.5410 H   0  0  0  0  0  0  0  0  0  0  0  0
   37.4660   28.7440   39.5780 C   0  0  0  0  0  0  0  0  0  0  0  0
   37.4170   30.0700   39.9670 C   0  0  0  0  0  0  0  0  0  0  0  0
   37.3220   30.3010   41.3360 C   0  0  0  0  0  0  0  0  0  0  0  0
   37.2790   29.2790   42.2580 C   0  0  0  0  0  0  0  0  0  0  0  0
   37.1910   29.1870   43.5960 N   0  0  0  0  0  0  0  0  0  0  0  0
   37.1850   27.9150   44.0140 C   0  0  0  0  0  0  0  0  0  0  0  0
   37.2730   27.0950   42.8980 C   0  0  0  0  0  0  0  0  0  0  0  0
   37.3290   27.9640   41.8460 C   0  0  0  0  0  0  0  0  0  0  0  0
   37.4230   27.7170   40.5000 C   0  0  0  0  0  0  0  0  0  0  0  0
   37.5400   28.6330   38.4900 H   0  0  0  0  0  0  0  0  0  0  0  0
   37.2750   31.2800   41.7980 H   0  0  0  0  0  0  0  0  0  0  0  0
   37.1340   30.0070   44.2510 H   0  0  0  0  0  0  0  0  0  0  0  0
   37.1220   27.5620   45.0490 H   0  0  0  0  0  0  0  0  0  0  0  0
   37.2930   26.0130   42.8760 H   0  0  0  0  0  0  0  0  0  0  0  0
   37.4830   26.4220   39.9130 N   0  0  0  0  0  0  0  0  0  0  0  0
   36.3230   25.6660   39.4810 C   0  0  0  0  0  2  0  0  0  0  0  0
   36.5310   24.1910   39.5820 C   0  0  0  0  0  2  0  0  0  0  0  0
   37.4540   23.9220   40.7520 C   0  0  0  0  0  3  0  0  0  0  0  0
   37.0730   24.4400   41.6480 H   0  0  0  0  0  0  0  0  0  0  0  0
   38.8220   24.4090   40.3330 C   0  0  0  0  0  2  0  0  0  0  0  0
   38.7700   25.7860   39.7180 C   0  0  0  0  0  2  0  0  0  0  0  0
   37.2380   32.5650   39.9090 C   0  0  0  0  0  0  0  0  0  0  0  0
   36.3700   33.1060   39.4510 H   0  0  0  0  0  0  0  0  0  0  0  0
   36.9450   32.3450   40.9330 H   0  0  0  0  0  0  0  0  0  0  0  0
   40.5420   33.8850   39.5750 C   0  0  0  0  0  0  0  0  0  0  0  0
   39.8290   35.0020   40.0650 C   0  0  0  0  0  0  0  0  0  0  0  0
   38.5330   34.6460   40.2440 C   0  0  0  0  0  0  0  0  0  0  0  0
   38.4430   33.3660   39.8810 N   0  0  0  0  0  0  0  0  0  0  0  0
   39.6420   32.9000   39.4780 N   0  0  0  0  0  0  0  0  0  0  0  0
   40.2740   35.9800   40.2590 H   0  0  0  0  0  0  0  0  0  0  0  0
   37.6970   35.2540   40.6090 H   0  0  0  0  0  0  0  0  0  0  0  0
   43.6530   33.9470   37.6810 C   0  0  0  0  0  0  0  0  0  0  0  0
   44.6350   33.9100   38.6640 C   0  0  0  0  0  0  0  0  0  0  0  0
   44.2130   33.8630   39.9860 C   0  0  0  0  0  0  0  0  0  0  0  0
   42.8840   33.8590   40.2170 N   0  0  0  0  0  0  0  0  0  0  0  0
   41.9530   33.8940   39.2670 C   0  0  0  0  0  0  0  0  0  0  0  0
   42.3520   33.9390   37.9880 N   0  0  0  0  0  0  0  0  0  0  0  0
   44.0000   33.9830   36.6540 H   0  0  0  0  0  0  0  0  0  0  0  0
   45.6880   33.9170   38.4200 H   0  0  0  0  0  0  0  0  0  0  0  0
   44.9490   33.8340   40.7950 H   0  0  0  0  0  0  0  0  0  0  0  0
  1 25  1  0  0  0  0
  1  5  1  0  0  0  0
  2  1  1  0  0  0  0
  3  1  1  0  0  0  0
  4  5  2  0  0  0  0
  4 12  1  0  0  0  0
  5  6  1  0  0  0  0
  6 14  1  0  0  0  0
  6  7  2  0  0  0  0
  7  8  1  0  0  0  0
  8  9  1  0  0  0  0
  8 15  1  0  0  0  0
  9 16  1  0  0  0  0
 10  9  2  0  0  0  0
 11  7  1  0  0  0  0
 11 10  1  0  0  0  0
 12 11  2  0  0  0  0
 13  4  1  0  0  0  0
 17 10  1  0  0  0  0
 18 12  1  0  0  0  0
 19 20  1  0  0  0  0
 19 18  1  0  0  0  0
 20 21  1  0  0  0  0
 21 22  1  0  0  0  0
 23 21  1  0  0  0  0
 24 18  1  0  0  0  0
 24 23  1  0  0  0  0
 25 27  1  0  0  0  0
 26 25  1  0  0  0  0
 28 29  1  0  0  0  0
 29 30  2  0  0  0  0
 29 33  1  0  0  0  0
 30 34  1  0  0  0  0
 31 25  1  0  0  0  0
 31 30  1  0  0  0  0
 32 28  2  0  0  0  0
 32 31  1  0  0  0  0
 35 40  2  0  0  0  0
 35 36  1  0  0  0  0
 36 37  2  0  0  0  0
 37 38  1  0  0  0  0
 37 43  1  0  0  0  0
 39 28  1  0  0  0  0
 39 38  2  0  0  0  0
 40 39  1  0  0  0  0
 41 35  1  0  0  0  0
 42 36  1  0  0  0  0
M  END
>  <minimizedAffinity>
-6.60973358

$$$$

 OpenBabel03252506273D

 43 47  0  0  0  0  0  0  0  0999 V2000
   37.3240   32.7550   39.0320 C   0  0  0  0  0  0  0  0  0  0  0  0
   36.2130   32.9290   38.9300 H   0  0  0  0  0  0  0  0  0  0  0  0
   37.7490   33.2820   38.1520 H   0  0  0  0  0  0  0  0  0  0  0  0
   37.5640   30.3510   39.9350 C   0  0  0  0  0  0  0  0  0  0  0  0
   37.5180   31.3130   38.9440 C   0  0  0  0  0  0  0  0  0  0  0  0
   37.6810   30.8550   37.6400 C   0  0  0  0  0  0  0  0  0  0  0  0
   37.8770   29.5250   37.3420 C   0  0  0  0  0  0  0  0  0  0  0  0
   38.0610   28.8010   36.2250 N   0  0  0  0  0  0  0  0  0  0  0  0
   38.2090   27.4960   36.4880 C   0  0  0  0  0  0  0  0  0  0  0  0
   38.1220   27.3220   37.8620 C   0  0  0  0  0  0  0  0  0  0  0  0
   37.9190   28.5830   38.3480 C   0  0  0  0  0  0  0  0  0  0  0  0
   37.7600   29.0160   39.6400 C   0  0  0  0  0  0  0  0  0  0  0  0
   37.4290   30.7770   40.9360 H   0  0  0  0  0  0  0  0  0  0  0  0
   37.6700   31.4810   36.7570 H   0  0  0  0  0  0  0  0  0  0  0  0
   38.0860   29.1970   35.2510 H   0  0  0  0  0  0  0  0  0  0  0  0
   38.3720   26.6920   35.7620 H   0  0  0  0  0  0  0  0  0  0  0  0
   38.1990   26.3950   38.4140 H   0  0  0  0  0  0  0  0  0  0  0  0
   37.7780   28.1750   40.7880 N   0  0  0  0  0  0  0  0  0  0  0  0
   36.5940   27.6070   41.4030 C   0  0  0  0  0  2  0  0  0  0  0  0
   36.7550   27.4000   42.8730 C   0  0  0  0  0  2  0  0  0  0  0  0
   37.6700   28.4830   43.4050 C   0  0  0  0  0  3  0  0  0  0  0  0
   37.3070   29.4700   43.0710 H   0  0  0  0  0  0  0  0  0  0  0  0
   39.0530   28.1630   42.8850 C   0  0  0  0  0  2  0  0  0  0  0  0
   39.0440   27.8440   41.4100 C   0  0  0  0  0  2  0  0  0  0  0  0
   37.7550   33.4040   40.2960 C   0  0  0  0  0  0  0  0  0  0  0  0
   36.9740   34.1470   40.6050 H   0  0  0  0  0  0  0  0  0  0  0  0
   37.7880   32.6620   41.0900 H   0  0  0  0  0  0  0  0  0  0  0  0
   41.1750   34.2260   39.6650 C   0  0  0  0  0  0  0  0  0  0  0  0
   40.6430   35.4740   40.0610 C   0  0  0  0  0  0  0  0  0  0  0  0
   39.3250   35.3160   40.3380 C   0  0  0  0  0  0  0  0  0  0  0  0
   39.0490   34.0280   40.1240 N   0  0  0  0  0  0  0  0  0  0  0  0
   40.1510   33.3660   39.7200 N   0  0  0  0  0  0  0  0  0  0  0  0
   41.2210   36.3980   40.1240 H   0  0  0  0  0  0  0  0  0  0  0  0
   38.5980   36.0650   40.6720 H   0  0  0  0  0  0  0  0  0  0  0  0
   44.1410   33.6230   37.6370 C   0  0  0  0  0  0  0  0  0  0  0  0
   45.1740   33.6040   38.5680 C   0  0  0  0  0  0  0  0  0  0  0  0
   44.8360   33.8000   39.9010 C   0  0  0  0  0  0  0  0  0  0  0  0
   43.5340   33.9960   40.1920 N   0  0  0  0  0  0  0  0  0  0  0  0
   42.5540   34.0130   39.2920 C   0  0  0  0  0  0  0  0  0  0  0  0
   42.8710   33.8230   38.0040 N   0  0  0  0  0  0  0  0  0  0  0  0
   44.4220   33.4680   36.6020 H   0  0  0  0  0  0  0  0  0  0  0  0
   46.2030   33.4430   38.2760 H   0  0  0  0  0  0  0  0  0  0  0  0
   45.6160   33.7940   40.6680 H   0  0  0  0  0  0  0  0  0  0  0  0
  1 25  1  0  0  0  0
  2  1  1  0  0  0  0
  3  1  1  0  0  0  0
  4 13  1  0  0  0  0
  5  1  1  0  0  0  0
  5  4  2  0  0  0  0
  6  5  1  0  0  0  0
  7  6  2  0  0  0  0
  7 11  1  0  0  0  0
  8  9  1  0  0  0  0
  8  7  1  0  0  0  0
  9 10  2  0  0  0  0
 10 11  1  0  0  0  0
 10 17  1  0  0  0  0
 11 12  2  0  0  0  0
 12  4  1  0  0  0  0
 12 18  1  0  0  0  0
 14  6  1  0  0  0  0
 15  8  1  0  0  0  0
 16  9  1  0  0  0  0
 18 19  1  0  0  0  0
 18 24  1  0  0  0  0
 19 20  1  0  0  0  0
 20 21  1  0  0  0  0
 22 21  1  0  0  0  0
 23 21  1  0  0  0  0
 24 23  1  0  0  0  0
 25 26  1  0  0  0  0
 25 27  1  0  0  0  0
 28 32  2  0  0  0  0
 28 29  1  0  0  0  0
 29 33  1  0  0  0  0
 29 30  2  0  0  0  0
 30 34  1  0  0  0  0
 31 25  1  0  0  0  0
 31 30  1  0  0  0  0
 32 31  1  0  0  0  0
 35 40  2  0  0  0  0
 35 36  1  0  0  0  0
 36 37  2  0  0  0  0
 37 38  1  0  0  0  0
 37 43  1  0  0  0  0
 39 28  1  0  0  0  0
 39 38  2  0  0  0  0
 40 39  1  0  0  0  0
 41 35  1  0  0  0  0
 42 36  1  0  0  0  0
M  END
>  <minimizedAffinity>
-6.36372137

$$$$

 OpenBabel03252506273D

 43 47  0  0  0  0  0  0  0  0999 V2000
   36.4690   30.5700   39.2720 C   0  0  0  0  0  0  0  0  0  0  0  0
   36.8070   29.6020   38.7990 H   0  0  0  0  0  0  0  0  0  0  0  0
   35.7200   30.9610   38.5520 H   0  0  0  0  0  0  0  0  0  0  0  0
   38.9340   31.2150   38.8750 C   0  0  0  0  0  0  0  0  0  0  0  0
   37.6490   31.4230   39.3400 C   0  0  0  0  0  0  0  0  0  0  0  0
   37.4190   32.6370   39.9800 C   0  0  0  0  0  0  0  0  0  0  0  0
   38.4050   33.5830   40.1470 C   0  0  0  0  0  0  0  0  0  0  0  0
   38.4900   34.8040   40.7010 N   0  0  0  0  0  0  0  0  0  0  0  0
   39.7200   35.3230   40.5960 C   0  0  0  0  0  0  0  0  0  0  0  0
   40.5190   34.4010   39.9320 C   0  0  0  0  0  0  0  0  0  0  0  0
   39.6810   33.3540   39.6750 C   0  0  0  0  0  0  0  0  0  0  0  0
   39.9250   32.1620   39.0410 C   0  0  0  0  0  0  0  0  0  0  0  0
   39.0470   30.2420   38.3830 H   0  0  0  0  0  0  0  0  0  0  0  0
   36.4700   32.9480   40.3970 H   0  0  0  0  0  0  0  0  0  0  0  0
   37.6930   35.3080   41.1660 H   0  0  0  0  0  0  0  0  0  0  0  0
   40.0580   36.2980   40.9620 H   0  0  0  0  0  0  0  0  0  0  0  0
   41.5660   34.4990   39.6810 H   0  0  0  0  0  0  0  0  0  0  0  0
   41.1820   31.7720   38.4990 N   0  0  0  0  0  0  0  0  0  0  0  0
   41.6410   32.1210   37.1680 C   0  0  0  0  0  2  0  0  0  0  0  0
   42.5560   31.0920   36.5900 C   0  0  0  0  0  2  0  0  0  0  0  0
   42.1410   29.7370   37.1230 C   0  0  0  0  0  3  0  0  0  0  0  0
   41.0580   29.5950   36.9650 H   0  0  0  0  0  0  0  0  0  0  0  0
   42.5250   29.7200   38.5840 C   0  0  0  0  0  2  0  0  0  0  0  0
   42.0890   30.9750   39.3000 C   0  0  0  0  0  2  0  0  0  0  0  0
   35.8270   30.2250   40.5660 C   0  0  0  0  0  0  0  0  0  0  0  0
   35.9360   31.0940   41.2660 H   0  0  0  0  0  0  0  0  0  0  0  0
   34.7570   30.0970   40.4160 H   0  0  0  0  0  0  0  0  0  0  0  0
   37.0440   26.9330   41.2410 C   0  0  0  0  0  0  0  0  0  0  0  0
   37.4130   27.6270   42.4150 C   0  0  0  0  0  0  0  0  0  0  0  0
   37.0090   28.9170   42.3030 C   0  0  0  0  0  0  0  0  0  0  0  0
   36.4150   29.0200   41.1120 N   0  0  0  0  0  0  0  0  0  0  0  0
   36.4320   27.8370   40.4670 N   0  0  0  0  0  0  0  0  0  0  0  0
   37.9370   27.1750   43.2590 H   0  0  0  0  0  0  0  0  0  0  0  0
   37.1250   29.7390   43.0180 H   0  0  0  0  0  0  0  0  0  0  0  0
   38.7140   23.6950   41.2700 C   0  0  0  0  0  0  0  0  0  0  0  0
   37.8430   22.8720   40.5650 C   0  0  0  0  0  0  0  0  0  0  0  0
   36.6750   23.4460   40.0800 C   0  0  0  0  0  0  0  0  0  0  0  0
   36.4730   24.7550   40.3300 N   0  0  0  0  0  0  0  0  0  0  0  0
   37.3150   25.5330   41.0060 C   0  0  0  0  0  0  0  0  0  0  0  0
   38.4440   24.9880   41.4770 N   0  0  0  0  0  0  0  0  0  0  0  0
   39.6210   23.2320   41.6410 H   0  0  0  0  0  0  0  0  0  0  0  0
   38.0570   21.8260   40.3960 H   0  0  0  0  0  0  0  0  0  0  0  0
   35.9590   22.8370   39.5210 H   0  0  0  0  0  0  0  0  0  0  0  0
  1  5  1  0  0  0  0
  1 25  1  0  0  0  0
  2  1  1  0  0  0  0
  3  1  1  0  0  0  0
  4 12  2  0  0  0  0
  4  5  1  0  0  0  0
  5  6  2  0  0  0  0
  6  7  1  0  0  0  0
  6 14  1  0  0  0  0
  7  8  1  0  0  0  0
  8 15  1  0  0  0  0
  9  8  1  0  0  0  0
  9 16  1  0  0  0  0
 10  9  2  0  0  0  0
 11 10  1  0  0  0  0
 11  7  2  0  0  0  0
 12 11  1  0  0  0  0
 13  4  1  0  0  0  0
 17 10  1  0  0  0  0
 18 12  1  0  0  0  0
 18 24  1  0  0  0  0
 19 18  1  0  0  0  0
 20 21  1  0  0  0  0
 20 19  1  0  0  0  0
 21 23  1  0  0  0  0
 22 21  1  0  0  0  0
 23 24  1  0  0  0  0
 25 31  1  0  0  0  0
 25 26  1  0  0  0  0
 27 25  1  0  0  0  0
 28 29  1  0  0  0  0
 29 33  1  0  0  0  0
 30 29  2  0  0  0  0
 30 34  1  0  0  0  0
 31 30  1  0  0  0  0
 32 31  1  0  0  0  0
 32 28  2  0  0  0  0
 35 40  1  0  0  0  0
 35 41  1  0  0  0  0
 36 35  2  0  0  0  0
 37 38  2  0  0  0  0
 37 36  1  0  0  0  0
 38 39  1  0  0  0  0
 39 28  1  0  0  0  0
 39 40  2  0  0  0  0
 42 36  1  0  0  0  0
 43 37  1  0  0  0  0
M  END
>  <minimizedAffinity>
-6.27728271

$$$$

 OpenBabel03252506273D

 43 47  0  0  0  0  0  0  0  0999 V2000
   36.8120   31.5670   39.4090 C   0  0  0  0  0  0  0  0  0  0  0  0
   36.8840   30.6790   38.7150 H   0  0  0  0  0  0  0  0  0  0  0  0
   36.0820   32.2320   38.9030 H   0  0  0  0  0  0  0  0  0  0  0  0
   39.3350   31.7280   38.8960 C   0  0  0  0  0  0  0  0  0  0  0  0
   38.1430   32.1590   39.4500 C   0  0  0  0  0  0  0  0  0  0  0  0
   38.1990   33.3500   40.1670 C   0  0  0  0  0  0  0  0  0  0  0  0
   39.3640   34.0670   40.3230 C   0  0  0  0  0  0  0  0  0  0  0  0
   39.7230   35.2070   40.9360 N   0  0  0  0  0  0  0  0  0  0  0  0
   41.0270   35.4740   40.7830 C   0  0  0  0  0  0  0  0  0  0  0  0
   41.5870   34.4550   40.0230 C   0  0  0  0  0  0  0  0  0  0  0  0
   40.5410   33.6170   39.7620 C   0  0  0  0  0  0  0  0  0  0  0  0
   40.5050   32.4440   39.0520 C   0  0  0  0  0  0  0  0  0  0  0  0
   39.2220   30.7860   38.3470 H   0  0  0  0  0  0  0  0  0  0  0  0
   37.3540   33.8180   40.6580 H   0  0  0  0  0  0  0  0  0  0  0  0
   39.0700   35.8300   41.4750 H   0  0  0  0  0  0  0  0  0  0  0  0
   41.5750   36.3350   41.1800 H   0  0  0  0  0  0  0  0  0  0  0  0
   42.6190   34.3570   39.7130 H   0  0  0  0  0  0  0  0  0  0  0  0
   41.6280   31.8460   38.4130 N   0  0  0  0  0  0  0  0  0  0  0  0
   41.9070   31.9410   36.9930 C   0  0  0  0  0  2  0  0  0  0  0  0
   42.6340   30.7460   36.4700 C   0  0  0  0  0  2  0  0  0  0  0  0
   42.1910   29.5380   37.2690 C   0  0  0  0  0  3  0  0  0  0  0  0
   41.0890   29.4900   37.2860 H   0  0  0  0  0  0  0  0  0  0  0  0
   42.7910   29.6970   38.6470 C   0  0  0  0  0  2  0  0  0  0  0  0
   42.5760   31.0840   39.2020 C   0  0  0  0  0  2  0  0  0  0  0  0
   36.2690   31.0710   40.7000 C   0  0  0  0  0  0  0  0  0  0  0  0
   36.6810   31.7010   41.5310 H   0  0  0  0  0  0  0  0  0  0  0  0
   35.1920   31.2200   40.7190 H   0  0  0  0  0  0  0  0  0  0  0  0
   37.6120   27.8930   41.6320 C   0  0  0  0  0  0  0  0  0  0  0  0
   36.6060   27.5260   40.7100 C   0  0  0  0  0  0  0  0  0  0  0  0
   35.9960   28.6510   40.2610 C   0  0  0  0  0  0  0  0  0  0  0  0
   36.5960   29.6720   40.8760 N   0  0  0  0  0  0  0  0  0  0  0  0
   37.5660   29.2280   41.7010 N   0  0  0  0  0  0  0  0  0  0  0  0
   36.3770   26.4970   40.4250 H   0  0  0  0  0  0  0  0  0  0  0  0
   35.1750   28.7480   39.5410 H   0  0  0  0  0  0  0  0  0  0  0  0
   39.1570   24.7580   42.6600 C   0  0  0  0  0  0  0  0  0  0  0  0
   40.0910   25.1510   43.6120 C   0  0  0  0  0  0  0  0  0  0  0  0
   40.1810   26.5070   43.8950 C   0  0  0  0  0  0  0  0  0  0  0  0
   39.3590   27.3400   43.2260 N   0  0  0  0  0  0  0  0  0  0  0  0
   38.4690   26.9520   42.3160 C   0  0  0  0  0  0  0  0  0  0  0  0
   38.3750   25.6450   42.0370 N   0  0  0  0  0  0  0  0  0  0  0  0
   39.1000   23.6950   42.4510 H   0  0  0  0  0  0  0  0  0  0  0  0
   40.7270   24.4370   44.1170 H   0  0  0  0  0  0  0  0  0  0  0  0
   40.9020   26.8640   44.6370 H   0  0  0  0  0  0  0  0  0  0  0  0
  1  5  1  0  0  0  0
  1 25  1  0  0  0  0
  2  1  1  0  0  0  0
  3  1  1  0  0  0  0
  4 12  2  0  0  0  0
  4  5  1  0  0  0  0
  5  6  2  0  0  0  0
  6  7  1  0  0  0  0
  6 14  1  0  0  0  0
  7  8  1  0  0  0  0
  8 15  1  0  0  0  0
  9  8  1  0  0  0  0
  9 16  1  0  0  0  0
 10  9  2  0  0  0  0
 11 10  1  0  0  0  0
 11  7  2  0  0  0  0
 12 11  1  0  0  0  0
 13  4  1  0  0  0  0
 17 10  1  0  0  0  0
 18 12  1  0  0  0  0
 18 24  1  0  0  0  0
 19 18  1  0  0  0  0
 20 19  1  0  0  0  0
 20 21  1  0  0  0  0
 21 22  1  0  0  0  0
 21 23  1  0  0  0  0
 23 24  1  0  0  0  0
 25 27  1  0  0  0  0
 25 31  1  0  0  0  0
 25 26  1  0  0  0  0
 28 32  2  0  0  0  0
 28 39  1  0  0  0  0
 29 28  1  0  0  0  0
 30 29  2  0  0  0  0
 30 31  1  0  0  0  0
 31 32  1  0  0  0  0
 33 29  1  0  0  0  0
 34 30  1  0  0  0  0
 35 36  1  0  0  0  0
 36 37  2  0  0  0  0
 36 42  1  0  0  0  0
 37 43  1  0  0  0  0
 38 37  1  0  0  0  0
 39 38  2  0  0  0  0
 40 39  1  0  0  0  0
 40 35  2  0  0  0  0
 41 35  1  0  0  0  0
M  END
>  <minimizedAffinity>
-6.25559139

$$$$

 OpenBabel03252506273D

 43 47  0  0  0  0  0  0  0  0999 V2000
   37.3080   33.1390   39.2570 C   0  0  0  0  0  0  0  0  0  0  0  0
   36.2850   33.6030   39.1410 H   0  0  0  0  0  0  0  0  0  0  0  0
   37.7860   33.3190   38.2720 H   0  0  0  0  0  0  0  0  0  0  0  0
   36.8890   30.6780   38.6100 C   0  0  0  0  0  0  0  0  0  0  0  0
   37.0850   31.7200   39.4980 C   0  0  0  0  0  0  0  0  0  0  0  0
   37.0710   31.3820   40.8480 C   0  0  0  0  0  0  0  0  0  0  0  0
   36.8760   30.0910   41.2860 C   0  0  0  0  0  0  0  0  0  0  0  0
   36.8110   29.4740   42.4780 N   0  0  0  0  0  0  0  0  0  0  0  0
   36.5940   28.1580   42.3540 C   0  0  0  0  0  0  0  0  0  0  0  0
   36.5050   27.8630   41.0000 C   0  0  0  0  0  0  0  0  0  0  0  0
   36.6820   29.0680   40.3820 C   0  0  0  0  0  0  0  0  0  0  0  0
   36.6930   29.3830   39.0460 C   0  0  0  0  0  0  0  0  0  0  0  0
   36.9110   31.0110   37.5660 H   0  0  0  0  0  0  0  0  0  0  0  0
   37.2090   32.0810   41.6640 H   0  0  0  0  0  0  0  0  0  0  0  0
   36.9180   29.9520   43.4080 H   0  0  0  0  0  0  0  0  0  0  0  0
   36.5000   27.4260   43.1630 H   0  0  0  0  0  0  0  0  0  0  0  0
   36.3350   26.8960   40.5470 H   0  0  0  0  0  0  0  0  0  0  0  0
   36.5080   28.4480   37.9890 N   0  0  0  0  0  0  0  0  0  0  0  0
   37.5870   27.7370   37.3300 C   0  0  0  0  0  2  0  0  0  0  0  0
   37.2750   27.4150   35.9060 C   0  0  0  0  0  2  0  0  0  0  0  0
   36.3900   28.5130   35.3560 C   0  0  0  0  0  3  0  0  0  0  0  0
   36.8500   29.4950   35.5610 H   0  0  0  0  0  0  0  0  0  0  0  0
   35.0440   28.3480   36.0230 C   0  0  0  0  0  2  0  0  0  0  0  0
   35.1700   28.1610   37.5150 C   0  0  0  0  0  2  0  0  0  0  0  0
   38.0090   33.8900   40.3300 C   0  0  0  0  0  0  0  0  0  0  0  0
   37.4050   34.7990   40.5880 H   0  0  0  0  0  0  0  0  0  0  0  0
   38.0370   33.2860   41.2340 H   0  0  0  0  0  0  0  0  0  0  0  0
   41.3500   34.0030   39.0680 C   0  0  0  0  0  0  0  0  0  0  0  0
   41.1570   35.3340   39.5000 C   0  0  0  0  0  0  0  0  0  0  0  0
   39.9060   35.4460   40.0140 C   0  0  0  0  0  0  0  0  0  0  0  0
   39.3480   34.2400   39.9050 N   0  0  0  0  0  0  0  0  0  0  0  0
   40.2050   33.3670   39.3390 N   0  0  0  0  0  0  0  0  0  0  0  0
   41.9070   36.1230   39.4210 H   0  0  0  0  0  0  0  0  0  0  0  0
   39.4150   36.3280   40.4400 H   0  0  0  0  0  0  0  0  0  0  0  0
   44.8620   33.7190   38.1410 C   0  0  0  0  0  0  0  0  0  0  0  0
   44.8940   32.5960   37.3210 C   0  0  0  0  0  0  0  0  0  0  0  0
   43.6920   31.9400   37.0920 C   0  0  0  0  0  0  0  0  0  0  0  0
   42.5860   32.4380   37.6810 N   0  0  0  0  0  0  0  0  0  0  0  0
   42.5690   33.5140   38.4640 C   0  0  0  0  0  0  0  0  0  0  0  0
   43.7240   34.1540   38.6900 N   0  0  0  0  0  0  0  0  0  0  0  0
   45.8090   34.2190   38.3090 H   0  0  0  0  0  0  0  0  0  0  0  0
   45.8120   32.2400   36.8750 H   0  0  0  0  0  0  0  0  0  0  0  0
   43.6680   31.0510   36.4540 H   0  0  0  0  0  0  0  0  0  0  0  0
  1  5  1  0  0  0  0
  1 25  1  0  0  0  0
  2  1  1  0  0  0  0
  3  1  1  0  0  0  0
  4 12  2  0  0  0  0
  4  5  1  0  0  0  0
  5  6  2  0  0  0  0
  6  7  1  0  0  0  0
  6 14  1  0  0  0  0
  7  8  1  0  0  0  0
  8 15  1  0  0  0  0
  9  8  1  0  0  0  0
  9 16  1  0  0  0  0
 10  9  2  0  0  0  0
 11 10  1  0  0  0  0
 11  7  2  0  0  0  0
 12 11  1  0  0  0  0
 13  4  1  0  0  0  0
 17 10  1  0  0  0  0
 18 12  1  0  0  0  0
 19 18  1  0  0  0  0
 20 19  1  0  0  0  0
 21 22  1  0  0  0  0
 21 20  1  0  0  0  0
 21 23  1  0  0  0  0
 23 24  1  0  0  0  0
 24 18  1  0  0  0  0
 25 26  1  0  0  0  0
 25 27  1  0  0  0  0
 28 32  2  0  0  0  0
 28 29  1  0  0  0  0
 29 30  2  0  0  0  0
 30 34  1  0  0  0  0
 31 30  1  0  0  0  0
 31 25  1  0  0  0  0
 32 31  1  0  0  0  0
 33 29  1  0  0  0  0
 35 41  1  0  0  0  0
 35 40  1  0  0  0  0
 36 35  2  0  0  0  0
 37 36  1  0  0  0  0
 37 38  2  0  0  0  0
 38 39  1  0  0  0  0
 39 40  2  0  0  0  0
 39 28  1  0  0  0  0
 42 36  1  0  0  0  0
 43 37  1  0  0  0  0
M  END
>  <minimizedAffinity>
-6.24976444

$$$$

 OpenBabel03252506273D

 43 47  0  0  0  0  0  0  0  0999 V2000
   36.6260   28.1480   42.3830 C   0  0  0  0  0  0  0  0  0  0  0  0
   36.3010   27.7010   43.3680 H   0  0  0  0  0  0  0  0  0  0  0  0
   35.7650   28.7840   42.0920 H   0  0  0  0  0  0  0  0  0  0  0  0
   36.5660   26.9330   40.1090 C   0  0  0  0  0  0  0  0  0  0  0  0
   36.8040   27.0290   41.4680 C   0  0  0  0  0  0  0  0  0  0  0  0
   37.2960   25.8820   42.0840 C   0  0  0  0  0  0  0  0  0  0  0  0
   37.5340   24.7150   41.3930 C   0  0  0  0  0  0  0  0  0  0  0  0
   37.9890   23.4870   41.6960 N   0  0  0  0  0  0  0  0  0  0  0  0
   38.0340   22.6860   40.6240 C   0  0  0  0  0  0  0  0  0  0  0  0
   37.5830   23.4100   39.5280 C   0  0  0  0  0  0  0  0  0  0  0  0
   37.2890   24.6420   40.0380 C   0  0  0  0  0  0  0  0  0  0  0  0
   36.8040   25.7640   39.4140 C   0  0  0  0  0  0  0  0  0  0  0  0
   36.1810   27.8680   39.6870 H   0  0  0  0  0  0  0  0  0  0  0  0
   37.5320   25.7960   43.1370 H   0  0  0  0  0  0  0  0  0  0  0  0
   38.2800   23.1760   42.6570 H   0  0  0  0  0  0  0  0  0  0  0  0
   38.3630   21.6420   40.5940 H   0  0  0  0  0  0  0  0  0  0  0  0
   37.4910   23.0670   38.5060 H   0  0  0  0  0  0  0  0  0  0  0  0
   36.4990   25.8540   38.0260 N   0  0  0  0  0  0  0  0  0  0  0  0
   37.4300   26.3150   37.0140 C   0  0  0  0  0  2  0  0  0  0  0  0
   36.7440   26.9760   35.8630 C   0  0  0  0  0  2  0  0  0  0  0  0
   35.5000   27.6610   36.3860 C   0  0  0  0  0  3  0  0  0  0  0  0
   35.7620   28.2960   37.2490 H   0  0  0  0  0  0  0  0  0  0  0  0
   34.5280   26.5600   36.7460 C   0  0  0  0  0  2  0  0  0  0  0  0
   35.1830   25.4700   37.5580 C   0  0  0  0  0  2  0  0  0  0  0  0
   37.8280   28.9780   42.6560 C   0  0  0  0  0  0  0  0  0  0  0  0
   37.8560   29.2240   43.7490 H   0  0  0  0  0  0  0  0  0  0  0  0
   38.7230   28.3920   42.4600 H   0  0  0  0  0  0  0  0  0  0  0  0
   38.5100   32.0180   40.9050 C   0  0  0  0  0  0  0  0  0  0  0  0
   37.1850   31.7390   40.5010 C   0  0  0  0  0  0  0  0  0  0  0  0
   36.7810   30.5900   41.0970 C   0  0  0  0  0  0  0  0  0  0  0  0
   37.8090   30.1720   41.8380 N   0  0  0  0  0  0  0  0  0  0  0  0
   38.8510   31.0210   41.7300 N   0  0  0  0  0  0  0  0  0  0  0  0
   36.6040   32.3630   39.8190 H   0  0  0  0  0  0  0  0  0  0  0  0
   35.8180   30.0740   41.0150 H   0  0  0  0  0  0  0  0  0  0  0  0
   39.5550   35.4730   40.4170 C   0  0  0  0  0  0  0  0  0  0  0  0
   40.7000   35.3610   39.6360 C   0  0  0  0  0  0  0  0  0  0  0  0
   41.1060   34.0820   39.2800 C   0  0  0  0  0  0  0  0  0  0  0  0
   40.3620   33.0460   39.7180 N   0  0  0  0  0  0  0  0  0  0  0  0
   39.2680   33.1660   40.4660 C   0  0  0  0  0  0  0  0  0  0  0  0
   38.8680   34.3970   40.8140 N   0  0  0  0  0  0  0  0  0  0  0  0
   39.2520   36.4790   40.6860 H   0  0  0  0  0  0  0  0  0  0  0  0
   41.2590   36.2290   39.3140 H   0  0  0  0  0  0  0  0  0  0  0  0
   42.0020   33.9440   38.6670 H   0  0  0  0  0  0  0  0  0  0  0  0
  1 25  1  0  0  0  0
  1  2  1  0  0  0  0
  3  1  1  0  0  0  0
  4  5  1  0  0  0  0
  5  6  2  0  0  0  0
  5  1  1  0  0  0  0
  6 14  1  0  0  0  0
  7  8  1  0  0  0  0
  7  6  1  0  0  0  0
  8 15  1  0  0  0  0
  9  8  1  0  0  0  0
 10 11  1  0  0  0  0
 10  9  2  0  0  0  0
 11  7  2  0  0  0  0
 12 11  1  0  0  0  0
 12  4  2  0  0  0  0
 13  4  1  0  0  0  0
 16  9  1  0  0  0  0
 17 10  1  0  0  0  0
 18 12  1  0  0  0  0
 19 18  1  0  0  0  0
 20 21  1  0  0  0  0
 20 19  1  0  0  0  0
 21 23  1  0  0  0  0
 21 22  1  0  0  0  0
 23 24  1  0  0  0  0
 24 18  1  0  0  0  0
 25 26  1  0  0  0  0
 27 25  1  0  0  0  0
 28 32  2  0  0  0  0
 29 28  1  0  0  0  0
 29 30  2  0  0  0  0
 30 31  1  0  0  0  0
 31 25  1  0  0  0  0
 32 31  1  0  0  0  0
 33 29  1  0  0  0  0
 34 30  1  0  0  0  0
 35 41  1  0  0  0  0
 35 40  1  0  0  0  0
 36 35  2  0  0  0  0
 37 36  1  0  0  0  0
 37 38  2  0  0  0  0
 38 39  1  0  0  0  0
 39 40  2  0  0  0  0
 39 28  1  0  0  0  0
 42 36  1  0  0  0  0
 43 37  1  0  0  0  0
M  END
>  <minimizedAffinity>
-6.23908186

$$$$
