
 OpenBabel03252504563D

 29 31  0  0  1  0  0  0  0  0999 V2000
   36.7230   28.8280   41.6730 N   0  0  0  0  0  0  0  0  0  0  0  0
   37.8420   29.5100   42.2390 C   0  0  0  0  0  0  0  0  0  0  0  0
   37.9670   28.8430   43.5790 C   0  0  0  0  0  0  0  0  0  0  0  0
   36.9370   27.7480   43.6800 C   0  0  0  0  0  0  0  0  0  0  0  0
   36.5350   27.5580   42.2000 C   0  0  2  0  0  0  0  0  0  0  0  0
   38.5220   30.2790   41.9760 H   0  0  0  0  0  0  0  0  0  0  0  0
   38.7160   29.0820   44.3460 H   0  0  0  0  0  0  0  0  0  0  0  0
   37.4470   26.8630   44.0860 H   0  0  0  0  0  0  0  0  0  0  0  0
   36.0960   28.0140   44.3180 H   0  0  0  0  0  0  0  0  0  0  0  0
   35.4980   27.1710   42.2620 H   0  0  0  0  0  0  0  0  0  0  0  0
   37.3090   26.5850   41.5210 N   0  0  0  0  0  0  0  0  0  0  0  0
   38.1280   25.7180   42.2650 C   0  0  0  0  0  2  0  0  0  0  0  0
   38.5690   24.5290   41.4020 C   0  0  0  0  0  2  0  0  0  0  0  0
   37.3560   23.8080   40.8500 C   0  0  0  0  0  3  0  0  0  0  0  0
   37.7310   22.9590   40.2520 H   0  0  0  0  0  0  0  0  0  0  0  0
   36.4540   24.7420   40.1100 C   0  0  0  0  0  2  0  0  0  0  0  0
   36.8650   26.1690   40.2420 C   0  0  0  0  0  2  0  0  0  0  0  0
   35.9130   29.4710   40.7890 C   0  0  0  0  0  0  0  0  0  0  0  0
   35.0390   28.9090   40.3640 H   0  0  0  0  0  0  0  0  0  0  0  0
   35.3690   30.3060   41.3440 H   0  0  0  0  0  0  0  0  0  0  0  0
   37.5740   30.3290   37.5140 C   0  0  0  0  0  0  0  0  0  0  0  0
   37.0100   29.5210   38.5430 C   0  0  0  0  0  0  0  0  0  0  0  0
   36.5590   30.1570   39.6810 C   0  0  0  0  0  0  0  0  0  0  0  0
   36.6770   31.4990   39.7670 N   0  0  0  0  0  0  0  0  0  0  0  0
   37.2260   32.2720   38.7670 C   0  0  0  0  0  0  0  0  0  0  0  0
   37.6660   31.6760   37.6530 N   0  0  0  0  0  0  0  0  0  0  0  0
   37.9130   29.7980   36.6400 H   0  0  0  0  0  0  0  0  0  0  0  0
   36.9300   28.4620   38.4530 H   0  0  0  0  0  0  0  0  0  0  0  0
   37.2570   33.3340   38.9680 H   0  0  0  0  0  0  0  0  0  0  0  0
  1  5  1  0  0  0  0
  1  2  1  0  0  0  0
  2  3  2  0  0  0  0
  3  4  1  0  0  0  0
  3  7  1  0  0  0  0
  4  8  1  0  0  0  0
  4  9  1  0  0  0  0
  5 10  1  6  0  0  0
  5  4  1  0  0  0  0
  6  2  1  0  0  0  0
 11  5  1  0  0  0  0
 11 12  1  0  0  0  0
 13 12  1  0  0  0  0
 14 13  1  0  0  0  0
 15 14  1  0  0  0  0
 16 17  1  0  0  0  0
 16 14  1  0  0  0  0
 17 11  1  0  0  0  0
 18 20  1  0  0  0  0
 18  1  1  0  0  0  0
 19 18  1  0  0  0  0
 21 26  2  0  0  0  0
 21 22  1  0  0  0  0
 22 23  2  0  0  0  0
 23 24  1  0  0  0  0
 23 18  1  0  0  0  0
 25 29  1  0  0  0  0
 25 24  2  0  0  0  0
 26 25  1  0  0  0  0
 27 21  1  0  0  0  0
 28 22  1  0  0  0  0
M  END
>  <minimizedAffinity>
-4.87582731

$$$$

 OpenBabel03252504563D

 29 31  0  0  1  0  0  0  0  0999 V2000
   36.7850   28.5950   41.8780 N   0  0  0  0  0  0  0  0  0  0  0  0
   36.2230   28.2030   40.6260 C   0  0  0  0  0  0  0  0  0  0  0  0
   35.7520   29.5170   40.0710 C   0  0  0  0  0  0  0  0  0  0  0  0
   36.1410   30.6180   41.0230 C   0  0  0  0  0  0  0  0  0  0  0  0
   37.2050   29.9180   41.8960 C   0  0  2  0  0  0  0  0  0  0  0  0
   36.0740   27.3180   40.0610 H   0  0  0  0  0  0  0  0  0  0  0  0
   35.2470   29.6620   39.1070 H   0  0  0  0  0  0  0  0  0  0  0  0
   36.5720   31.4290   40.4190 H   0  0  0  0  0  0  0  0  0  0  0  0
   35.3000   30.9960   41.6010 H   0  0  0  0  0  0  0  0  0  0  0  0
   37.1510   30.4650   42.8590 H   0  0  0  0  0  0  0  0  0  0  0  0
   38.5270   30.0570   41.4040 N   0  0  0  0  0  0  0  0  0  0  0  0
   38.7510   30.8270   40.2500 C   0  0  0  0  0  2  0  0  0  0  0  0
   40.2420   31.1610   40.1120 C   0  0  0  0  0  2  0  0  0  0  0  0
   40.7340   31.8720   41.3560 C   0  0  0  0  0  3  0  0  0  0  0  0
   41.8020   32.0970   41.1970 H   0  0  0  0  0  0  0  0  0  0  0  0
   40.4410   31.0810   42.5900 C   0  0  0  0  0  2  0  0  0  0  0  0
   39.5910   29.8860   42.3230 C   0  0  0  0  0  2  0  0  0  0  0  0
   36.7740   27.7290   42.9270 C   0  0  0  0  0  0  0  0  0  0  0  0
   36.7670   28.1530   43.9660 H   0  0  0  0  0  0  0  0  0  0  0  0
   35.7750   27.1780   42.9250 H   0  0  0  0  0  0  0  0  0  0  0  0
   39.8330   25.5920   43.4670 C   0  0  0  0  0  0  0  0  0  0  0  0
   38.9920   26.7400   43.5200 C   0  0  0  0  0  0  0  0  0  0  0  0
   37.7580   26.6580   42.9080 C   0  0  0  0  0  0  0  0  0  0  0  0
   37.4120   25.5080   42.2920 N   0  0  0  0  0  0  0  0  0  0  0  0
   38.2340   24.4030   42.2450 C   0  0  0  0  0  0  0  0  0  0  0  0
   39.4340   24.4600   42.8350 N   0  0  0  0  0  0  0  0  0  0  0  0
   40.7880   25.6920   43.9580 H   0  0  0  0  0  0  0  0  0  0  0  0
   39.2890   27.6390   44.0110 H   0  0  0  0  0  0  0  0  0  0  0  0
   37.8300   23.5490   41.7180 H   0  0  0  0  0  0  0  0  0  0  0  0
  1  5  1  0  0  0  0
  1 18  1  0  0  0  0
  2  1  1  0  0  0  0
  3  2  2  0  0  0  0
  3  4  1  0  0  0  0
  4  9  1  0  0  0  0
  4  5  1  0  0  0  0
  5 10  1  1  0  0  0
  6  2  1  0  0  0  0
  7  3  1  0  0  0  0
  8  4  1  0  0  0  0
 11  5  1  0  0  0  0
 11 17  1  0  0  0  0
 12 11  1  0  0  0  0
 13 12  1  0  0  0  0
 13 14  1  0  0  0  0
 14 16  1  0  0  0  0
 15 14  1  0  0  0  0
 17 16  1  0  0  0  0
 18 19  1  0  0  0  0
 20 18  1  0  0  0  0
 21 22  1  0  0  0  0
 21 27  1  0  0  0  0
 22 28  1  0  0  0  0
 23 18  1  0  0  0  0
 23 22  2  0  0  0  0
 24 23  1  0  0  0  0
 25 24  2  0  0  0  0
 25 26  1  0  0  0  0
 26 21  2  0  0  0  0
 29 25  1  0  0  0  0
M  END
>  <minimizedAffinity>
-4.78467417

$$$$

 OpenBabel03252504563D

 29 31  0  0  1  0  0  0  0  0999 V2000
   38.5800   28.7910   41.4090 N   0  0  0  0  0  0  0  0  0  0  0  0
   38.7960   28.7950   42.8200 C   0  0  0  0  0  0  0  0  0  0  0  0
   37.4460   28.3910   43.3420 C   0  0  0  0  0  0  0  0  0  0  0  0
   36.5360   28.1050   42.1760 C   0  0  0  0  0  0  0  0  0  0  0  0
   37.5460   27.9510   41.0180 C   0  0  2  0  0  0  0  0  0  0  0  0
   39.5800   28.9910   43.5050 H   0  0  0  0  0  0  0  0  0  0  0  0
   37.1760   28.2770   44.4000 H   0  0  0  0  0  0  0  0  0  0  0  0
   36.0150   27.1620   42.3970 H   0  0  0  0  0  0  0  0  0  0  0  0
   35.8070   28.8950   42.0020 H   0  0  0  0  0  0  0  0  0  0  0  0
   36.9580   28.2360   40.1220 H   0  0  0  0  0  0  0  0  0  0  0  0
   37.9920   26.6200   40.8250 N   0  0  0  0  0  0  0  0  0  0  0  0
   39.3570   26.3250   40.9840 C   0  0  0  0  0  2  0  0  0  0  0  0
   39.5640   24.8090   41.1080 C   0  0  0  0  0  2  0  0  0  0  0  0
   38.7410   24.2630   42.2570 C   0  0  0  0  0  3  0  0  0  0  0  0
   38.9370   23.1790   42.3060 H   0  0  0  0  0  0  0  0  0  0  0  0
   37.2980   24.6290   42.1180 C   0  0  0  0  0  2  0  0  0  0  0  0
   37.0480   25.5800   40.9970 C   0  0  0  0  0  2  0  0  0  0  0  0
   39.2900   29.6340   40.6120 C   0  0  0  0  0  0  0  0  0  0  0  0
   40.3920   29.7360   40.7950 H   0  0  0  0  0  0  0  0  0  0  0  0
   39.2970   29.2070   39.5540 H   0  0  0  0  0  0  0  0  0  0  0  0
   38.6800   33.3520   40.7660 C   0  0  0  0  0  0  0  0  0  0  0  0
   39.2640   32.0910   41.0770 C   0  0  0  0  0  0  0  0  0  0  0  0
   38.7590   30.9780   40.4370 C   0  0  0  0  0  0  0  0  0  0  0  0
   37.7440   31.1350   39.5600 N   0  0  0  0  0  0  0  0  0  0  0  0
   37.1860   32.3600   39.2680 C   0  0  0  0  0  0  0  0  0  0  0  0
   37.6620   33.4530   39.8750 N   0  0  0  0  0  0  0  0  0  0  0  0
   39.1010   34.1990   41.2840 H   0  0  0  0  0  0  0  0  0  0  0  0
   40.0630   31.9930   41.7750 H   0  0  0  0  0  0  0  0  0  0  0  0
   36.3800   32.3390   38.5470 H   0  0  0  0  0  0  0  0  0  0  0  0
  1  2  1  0  0  0  0
  2  3  2  0  0  0  0
  2  6  1  0  0  0  0
  3  7  1  0  0  0  0
  4  8  1  0  0  0  0
  4  3  1  0  0  0  0
  5 10  1  6  0  0  0
  5  1  1  0  0  0  0
  5  4  1  0  0  0  0
  9  4  1  0  0  0  0
 11 12  1  0  0  0  0
 11 17  1  0  0  0  0
 11  5  1  0  0  0  0
 12 13  1  0  0  0  0
 13 14  1  0  0  0  0
 14 15  1  0  0  0  0
 16 14  1  0  0  0  0
 17 16  1  0  0  0  0
 18 19  1  0  0  0  0
 18  1  1  0  0  0  0
 20 18  1  0  0  0  0
 21 22  1  0  0  0  0
 21 27  1  0  0  0  0
 22 28  1  0  0  0  0
 23 18  1  0  0  0  0
 23 22  2  0  0  0  0
 24 23  1  0  0  0  0
 25 24  2  0  0  0  0
 25 26  1  0  0  0  0
 26 21  2  0  0  0  0
 29 25  1  0  0  0  0
M  END
>  <minimizedAffinity>
-4.67220449

$$$$

 OpenBabel03252504563D

 29 31  0  0  1  0  0  0  0  0999 V2000
   39.0560   27.8460   42.9360 N   0  0  0  0  0  0  0  0  0  0  0  0
   40.3380   28.3090   42.5110 C   0  0  0  0  0  0  0  0  0  0  0  0
   41.2460   27.2320   43.0310 C   0  0  0  0  0  0  0  0  0  0  0  0
   40.4110   26.1560   43.6760 C   0  0  0  0  0  0  0  0  0  0  0  0
   39.0060   26.4710   43.1160 C   0  0  2  0  0  0  0  0  0  0  0  0
   40.7540   29.1280   41.9830 H   0  0  0  0  0  0  0  0  0  0  0  0
   42.3380   27.2050   42.9210 H   0  0  0  0  0  0  0  0  0  0  0  0
   40.7920   25.1910   43.3150 H   0  0  0  0  0  0  0  0  0  0  0  0
   40.4500   26.1840   44.7640 H   0  0  0  0  0  0  0  0  0  0  0  0
   38.3220   26.0750   43.8950 H   0  0  0  0  0  0  0  0  0  0  0  0
   38.7090   25.7910   41.9090 N   0  0  0  0  0  0  0  0  0  0  0  0
   39.6370   24.8670   41.3970 C   0  0  0  0  0  2  0  0  0  0  0  0
   38.9770   23.9860   40.3280 C   0  0  0  0  0  2  0  0  0  0  0  0
   37.7620   23.2890   40.9050 C   0  0  0  0  0  3  0  0  0  0  0  0
   37.3380   22.6630   40.1010 H   0  0  0  0  0  0  0  0  0  0  0  0
   36.8030   24.2670   41.5050 C   0  0  0  0  0  2  0  0  0  0  0  0
   37.3460   25.6550   41.5500 C   0  0  0  0  0  2  0  0  0  0  0  0
   38.0700   28.7410   43.2140 C   0  0  0  0  0  0  0  0  0  0  0  0
   37.2410   28.4210   43.8990 H   0  0  0  0  0  0  0  0  0  0  0  0
   38.5220   29.5930   43.8230 H   0  0  0  0  0  0  0  0  0  0  0  0
   35.7640   29.7890   40.4210 C   0  0  0  0  0  0  0  0  0  0  0  0
   36.2810   28.9980   41.4860 C   0  0  0  0  0  0  0  0  0  0  0  0
   37.4530   29.4150   42.0820 C   0  0  0  0  0  0  0  0  0  0  0  0
   38.0500   30.5390   41.6290 N   0  0  0  0  0  0  0  0  0  0  0  0
   37.5420   31.2960   40.5970 C   0  0  0  0  0  0  0  0  0  0  0  0
   36.4050   30.9110   40.0070 N   0  0  0  0  0  0  0  0  0  0  0  0
   34.8460   29.4340   39.9810 H   0  0  0  0  0  0  0  0  0  0  0  0
   35.7920   28.1130   41.8240 H   0  0  0  0  0  0  0  0  0  0  0  0
   38.1220   32.1710   40.3370 H   0  0  0  0  0  0  0  0  0  0  0  0
  1  5  1  0  0  0  0
  1 18  1  0  0  0  0
  2  1  1  0  0  0  0
  2  3  2  0  0  0  0
  3  4  1  0  0  0  0
  4  9  1  0  0  0  0
  5  4  1  0  0  0  0
  5 10  1  1  0  0  0
  6  2  1  0  0  0  0
  7  3  1  0  0  0  0
  8  4  1  0  0  0  0
 11  5  1  0  0  0  0
 12 11  1  0  0  0  0
 13 14  1  0  0  0  0
 13 12  1  0  0  0  0
 14 16  1  0  0  0  0
 15 14  1  0  0  0  0
 16 17  1  0  0  0  0
 17 11  1  0  0  0  0
 18 20  1  0  0  0  0
 18 19  1  0  0  0  0
 21 22  1  0  0  0  0
 22 28  1  0  0  0  0
 22 23  2  0  0  0  0
 23 18  1  0  0  0  0
 24 23  1  0  0  0  0
 25 24  2  0  0  0  0
 26 21  2  0  0  0  0
 26 25  1  0  0  0  0
 27 21  1  0  0  0  0
 29 25  1  0  0  0  0
M  END
>  <minimizedAffinity>
-4.6686368

$$$$

 OpenBabel03252504563D

 29 31  0  0  1  0  0  0  0  0999 V2000
   37.3140   29.4780   39.2140 N   0  0  0  0  0  0  0  0  0  0  0  0
   35.9000   29.6300   39.0930 C   0  0  0  0  0  0  0  0  0  0  0  0
   35.4280   28.2050   39.1580 C   0  0  0  0  0  0  0  0  0  0  0  0
   36.6140   27.3060   39.3870 C   0  0  0  0  0  0  0  0  0  0  0  0
   37.6830   28.3110   39.8700 C   0  0  2  0  0  0  0  0  0  0  0  0
   35.1890   30.4080   38.9810 H   0  0  0  0  0  0  0  0  0  0  0  0
   34.3830   27.8720   39.0950 H   0  0  0  0  0  0  0  0  0  0  0  0
   36.3320   26.5940   40.1760 H   0  0  0  0  0  0  0  0  0  0  0  0
   36.9150   26.7630   38.4930 H   0  0  0  0  0  0  0  0  0  0  0  0
   38.6400   27.8330   39.5770 H   0  0  0  0  0  0  0  0  0  0  0  0
   37.7100   28.4830   41.2760 N   0  0  0  0  0  0  0  0  0  0  0  0
   36.8020   27.7630   42.0710 C   0  0  0  0  0  2  0  0  0  0  0  0
   37.2380   27.7960   43.5420 C   0  0  0  0  0  2  0  0  0  0  0  0
   38.6460   27.2540   43.6800 C   0  0  0  0  0  3  0  0  0  0  0  0
   38.9020   27.2890   44.7530 H   0  0  0  0  0  0  0  0  0  0  0  0
   39.6020   27.9790   42.7880 C   0  0  0  0  0  2  0  0  0  0  0  0
   38.9200   28.9270   41.8600 C   0  0  0  0  0  2  0  0  0  0  0  0
   38.1460   30.3790   38.6250 C   0  0  0  0  0  0  0  0  0  0  0  0
   39.1860   30.0490   38.3620 H   0  0  0  0  0  0  0  0  0  0  0  0
   37.7380   30.6170   37.5870 H   0  0  0  0  0  0  0  0  0  0  0  0
   37.6180   33.9490   39.7190 C   0  0  0  0  0  0  0  0  0  0  0  0
   37.4240   32.7470   38.9810 C   0  0  0  0  0  0  0  0  0  0  0  0
   38.2590   31.6840   39.2590 C   0  0  0  0  0  0  0  0  0  0  0  0
   39.2120   31.8340   40.2030 N   0  0  0  0  0  0  0  0  0  0  0  0
   39.3920   33.0020   40.9110 C   0  0  0  0  0  0  0  0  0  0  0  0
   38.5910   34.0450   40.6590 N   0  0  0  0  0  0  0  0  0  0  0  0
   36.9460   34.7560   39.4770 H   0  0  0  0  0  0  0  0  0  0  0  0
   36.6650   32.6530   38.2370 H   0  0  0  0  0  0  0  0  0  0  0  0
   40.1930   32.9830   41.6380 H   0  0  0  0  0  0  0  0  0  0  0  0
  1  5  1  0  0  0  0
  2  3  2  0  0  0  0
  2  1  1  0  0  0  0
  3  4  1  0  0  0  0
  4  5  1  0  0  0  0
  4  8  1  0  0  0  0
  5 10  1  6  0  0  0
  5 11  1  0  0  0  0
  6  2  1  0  0  0  0
  7  3  1  0  0  0  0
  9  4  1  0  0  0  0
 11 17  1  0  0  0  0
 11 12  1  0  0  0  0
 12 13  1  0  0  0  0
 13 14  1  0  0  0  0
 14 15  1  0  0  0  0
 16 14  1  0  0  0  0
 17 16  1  0  0  0  0
 18  1  1  0  0  0  0
 18 23  1  0  0  0  0
 19 18  1  0  0  0  0
 20 18  1  0  0  0  0
 21 26  1  0  0  0  0
 22 23  1  0  0  0  0
 22 21  2  0  0  0  0
 23 24  2  0  0  0  0
 24 25  1  0  0  0  0
 25 29  1  0  0  0  0
 26 25  2  0  0  0  0
 27 21  1  0  0  0  0
 28 22  1  0  0  0  0
M  END
>  <minimizedAffinity>
-4.64967537

$$$$

 OpenBabel03252504563D

 29 31  0  0  1  0  0  0  0  0999 V2000
   35.9250   29.3990   40.3810 N   0  0  0  0  0  0  0  0  0  0  0  0
   34.6480   29.2290   39.7660 C   0  0  0  0  0  0  0  0  0  0  0  0
   34.9950   28.4160   38.5520 C   0  0  0  0  0  0  0  0  0  0  0  0
   36.4670   28.0990   38.5770 C   0  0  0  0  0  0  0  0  0  0  0  0
   36.8280   28.3980   40.0490 C   0  0  2  0  0  0  0  0  0  0  0  0
   33.6390   29.5050   39.9350 H   0  0  0  0  0  0  0  0  0  0  0  0
   34.2850   28.0670   37.7900 H   0  0  0  0  0  0  0  0  0  0  0  0
   36.5720   27.0330   38.3350 H   0  0  0  0  0  0  0  0  0  0  0  0
   37.0420   28.6960   37.8700 H   0  0  0  0  0  0  0  0  0  0  0  0
   37.9030   28.6650   40.0030 H   0  0  0  0  0  0  0  0  0  0  0  0
   36.7070   27.2740   40.9040 N   0  0  0  0  0  0  0  0  0  0  0  0
   36.8810   25.9860   40.3700 C   0  0  0  0  0  2  0  0  0  0  0  0
   37.0880   24.9650   41.4970 C   0  0  0  0  0  2  0  0  0  0  0  0
   38.2660   25.3720   42.3590 C   0  0  0  0  0  3  0  0  0  0  0  0
   38.3750   24.6000   43.1400 H   0  0  0  0  0  0  0  0  0  0  0  0
   38.1100   26.7650   42.8770 C   0  0  0  0  0  2  0  0  0  0  0  0
   36.9380   27.4740   42.2860 C   0  0  0  0  0  2  0  0  0  0  0  0
   36.1800   30.5130   41.1190 C   0  0  0  0  0  0  0  0  0  0  0  0
   35.3320   31.2190   41.3250 H   0  0  0  0  0  0  0  0  0  0  0  0
   36.4380   30.1880   42.1820 H   0  0  0  0  0  0  0  0  0  0  0  0
   38.4550   33.0370   39.4850 C   0  0  0  0  0  0  0  0  0  0  0  0
   37.2720   32.2840   39.7320 C   0  0  0  0  0  0  0  0  0  0  0  0
   37.3220   31.3210   40.7190 C   0  0  0  0  0  0  0  0  0  0  0  0
   38.4770   31.1390   41.3940 N   0  0  0  0  0  0  0  0  0  0  0  0
   39.6160   31.8730   41.1460 C   0  0  0  0  0  0  0  0  0  0  0  0
   39.5890   32.8140   40.1950 N   0  0  0  0  0  0  0  0  0  0  0  0
   38.3780   33.7810   38.7080 H   0  0  0  0  0  0  0  0  0  0  0  0
   36.3720   32.4440   39.1830 H   0  0  0  0  0  0  0  0  0  0  0  0
   40.4700   31.6230   41.7610 H   0  0  0  0  0  0  0  0  0  0  0  0
  1 18  1  0  0  0  0
  2  6  1  0  0  0  0
  2  1  1  0  0  0  0
  3  4  1  0  0  0  0
  3  2  2  0  0  0  0
  4  5  1  0  0  0  0
  5 10  1  1  0  0  0
  5  1  1  0  0  0  0
  5 11  1  0  0  0  0
  7  3  1  0  0  0  0
  8  4  1  0  0  0  0
  9  4  1  0  0  0  0
 11 17  1  0  0  0  0
 12 11  1  0  0  0  0
 12 13  1  0  0  0  0
 13 14  1  0  0  0  0
 14 16  1  0  0  0  0
 14 15  1  0  0  0  0
 17 16  1  0  0  0  0
 18 19  1  0  0  0  0
 18 20  1  0  0  0  0
 21 22  2  0  0  0  0
 21 26  1  0  0  0  0
 22 23  1  0  0  0  0
 23 18  1  0  0  0  0
 23 24  2  0  0  0  0
 25 24  1  0  0  0  0
 25 29  1  0  0  0  0
 26 25  2  0  0  0  0
 27 21  1  0  0  0  0
 28 22  1  0  0  0  0
M  END
>  <minimizedAffinity>
-4.64038658

$$$$

 OpenBabel03252504563D

 29 31  0  0  1  0  0  0  0  0999 V2000
   38.4260   28.4610   41.3680 N   0  0  0  0  0  0  0  0  0  0  0  0
   39.0310   28.5100   42.6600 C   0  0  0  0  0  0  0  0  0  0  0  0
   37.8530   28.2730   43.5630 C   0  0  0  0  0  0  0  0  0  0  0  0
   36.6300   28.0270   42.7180 C   0  0  0  0  0  0  0  0  0  0  0  0
   37.2560   27.7150   41.3410 C   0  0  2  0  0  0  0  0  0  0  0  0
   39.9900   28.6560   43.0860 H   0  0  0  0  0  0  0  0  0  0  0  0
   37.8830   28.2370   44.6600 H   0  0  0  0  0  0  0  0  0  0  0  0
   36.1140   27.1550   43.1440 H   0  0  0  0  0  0  0  0  0  0  0  0
   35.9530   28.8790   42.6940 H   0  0  0  0  0  0  0  0  0  0  0  0
   36.4660   28.0170   40.6230 H   0  0  0  0  0  0  0  0  0  0  0  0
   37.5140   26.3370   41.1320 N   0  0  0  0  0  0  0  0  0  0  0  0
   37.1390   25.4120   42.1200 C   0  0  0  0  0  2  0  0  0  0  0  0
   37.1530   23.9870   41.5510 C   0  0  0  0  0  2  0  0  0  0  0  0
   36.2470   23.9020   40.3390 C   0  0  0  0  0  3  0  0  0  0  0  0
   36.2860   22.8590   39.9810 H   0  0  0  0  0  0  0  0  0  0  0  0
   36.6080   24.9270   39.3130 C   0  0  0  0  0  2  0  0  0  0  0  0
   37.6400   25.8890   39.7940 C   0  0  0  0  0  2  0  0  0  0  0  0
   38.9520   29.1880   40.3460 C   0  0  0  0  0  0  0  0  0  0  0  0
   40.0500   29.0910   40.1340 H   0  0  0  0  0  0  0  0  0  0  0  0
   38.5200   28.7940   39.3660 H   0  0  0  0  0  0  0  0  0  0  0  0
   37.2160   32.5210   40.0330 C   0  0  0  0  0  0  0  0  0  0  0  0
   37.3990   31.1110   39.9640 C   0  0  0  0  0  0  0  0  0  0  0  0
   38.6350   30.6080   40.3150 C   0  0  0  0  0  0  0  0  0  0  0  0
   39.6020   31.4680   40.7000 N   0  0  0  0  0  0  0  0  0  0  0  0
   39.4140   32.8320   40.7620 C   0  0  0  0  0  0  0  0  0  0  0  0
   38.2230   33.3400   40.4280 N   0  0  0  0  0  0  0  0  0  0  0  0
   36.2370   32.8770   39.7520 H   0  0  0  0  0  0  0  0  0  0  0  0
   36.6200   30.4520   39.6540 H   0  0  0  0  0  0  0  0  0  0  0  0
   40.2750   33.4020   41.0880 H   0  0  0  0  0  0  0  0  0  0  0  0
  1  2  1  0  0  0  0
  2  6  1  0  0  0  0
  2  3  2  0  0  0  0
  3  7  1  0  0  0  0
  4  8  1  0  0  0  0
  4  3  1  0  0  0  0
  5 10  1  6  0  0  0
  5  1  1  0  0  0  0
  5  4  1  0  0  0  0
  9  4  1  0  0  0  0
 11  5  1  0  0  0  0
 11 12  1  0  0  0  0
 13 12  1  0  0  0  0
 14 13  1  0  0  0  0
 15 14  1  0  0  0  0
 16 17  1  0  0  0  0
 16 14  1  0  0  0  0
 17 11  1  0  0  0  0
 18  1  1  0  0  0  0
 19 18  1  0  0  0  0
 20 18  1  0  0  0  0
 21 26  1  0  0  0  0
 22 21  2  0  0  0  0
 22 23  1  0  0  0  0
 23 18  1  0  0  0  0
 23 24  2  0  0  0  0
 24 25  1  0  0  0  0
 25 29  1  0  0  0  0
 26 25  2  0  0  0  0
 27 21  1  0  0  0  0
 28 22  1  0  0  0  0
M  END
>  <minimizedAffinity>
-4.62172222

$$$$

 OpenBabel03252504563D

 29 31  0  0  1  0  0  0  0  0999 V2000
   38.6930   31.5600   39.4240 N   0  0  0  0  0  0  0  0  0  0  0  0
   37.4510   32.1420   39.0290 C   0  0  0  0  0  0  0  0  0  0  0  0
   37.4960   33.4720   39.7260 C   0  0  0  0  0  0  0  0  0  0  0  0
   38.8170   33.6090   40.4370 C   0  0  0  0  0  0  0  0  0  0  0  0
   39.6550   32.5030   39.7590 C   0  0  2  0  0  0  0  0  0  0  0  0
   36.6080   31.8950   38.4370 H   0  0  0  0  0  0  0  0  0  0  0  0
   36.7140   34.2430   39.6880 H   0  0  0  0  0  0  0  0  0  0  0  0
   39.2010   34.6140   40.2140 H   0  0  0  0  0  0  0  0  0  0  0  0
   38.7340   33.4780   41.5150 H   0  0  0  0  0  0  0  0  0  0  0  0
   40.4000   32.2310   40.5340 H   0  0  0  0  0  0  0  0  0  0  0  0
   40.3730   32.9500   38.6220 N   0  0  0  0  0  0  0  0  0  0  0  0
   41.3450   33.9540   38.7760 C   0  0  0  0  0  2  0  0  0  0  0  0
   42.2480   34.0170   37.5360 C   0  0  0  0  0  2  0  0  0  0  0  0
   42.8820   32.6650   37.2840 C   0  0  0  0  0  3  0  0  0  0  0  0
   43.5260   32.7720   36.3940 H   0  0  0  0  0  0  0  0  0  0  0  0
   41.8510   31.5870   37.1810 C   0  0  0  0  0  2  0  0  0  0  0  0
   40.4800   32.0630   37.5230 C   0  0  0  0  0  2  0  0  0  0  0  0
   38.8040   30.2090   39.5360 C   0  0  0  0  0  0  0  0  0  0  0  0
   38.4550   29.5750   38.6790 H   0  0  0  0  0  0  0  0  0  0  0  0
   39.9120   29.9400   39.5520 H   0  0  0  0  0  0  0  0  0  0  0  0
   38.1830   29.1950   43.1150 C   0  0  0  0  0  0  0  0  0  0  0  0
   38.8300   29.8080   42.0050 C   0  0  0  0  0  0  0  0  0  0  0  0
   38.2850   29.6040   40.7540 C   0  0  0  0  0  0  0  0  0  0  0  0
   37.1790   28.8380   40.6430 N   0  0  0  0  0  0  0  0  0  0  0  0
   36.5610   28.2480   41.7240 C   0  0  0  0  0  0  0  0  0  0  0  0
   37.0720   28.4360   42.9460 N   0  0  0  0  0  0  0  0  0  0  0  0
   38.6360   29.3780   44.0760 H   0  0  0  0  0  0  0  0  0  0  0  0
   39.7050   30.4070   42.1170 H   0  0  0  0  0  0  0  0  0  0  0  0
   35.6830   27.6620   41.4910 H   0  0  0  0  0  0  0  0  0  0  0  0
  1 18  1  0  0  0  0
  1  5  1  0  0  0  0
  2  1  1  0  0  0  0
  2  3  2  0  0  0  0
  3  4  1  0  0  0  0
  4  9  1  0  0  0  0
  5  4  1  0  0  0  0
  5 10  1  1  0  0  0
  6  2  1  0  0  0  0
  7  3  1  0  0  0  0
  8  4  1  0  0  0  0
 11 12  1  0  0  0  0
 11  5  1  0  0  0  0
 13 12  1  0  0  0  0
 14 13  1  0  0  0  0
 15 14  1  0  0  0  0
 16 14  1  0  0  0  0
 16 17  1  0  0  0  0
 17 11  1  0  0  0  0
 18 20  1  0  0  0  0
 18 23  1  0  0  0  0
 19 18  1  0  0  0  0
 21 27  1  0  0  0  0
 22 28  1  0  0  0  0
 22 21  2  0  0  0  0
 23 22  1  0  0  0  0
 24 23  2  0  0  0  0
 24 25  1  0  0  0  0
 25 26  2  0  0  0  0
 26 21  1  0  0  0  0
 29 25  1  0  0  0  0
M  END
>  <minimizedAffinity>
-4.60209322

$$$$

 OpenBabel03252504563D

 29 31  0  0  1  0  0  0  0  0999 V2000
   39.1580   29.5550   42.7000 N   0  0  0  0  0  0  0  0  0  0  0  0
   39.9290   28.3670   42.8740 C   0  0  0  0  0  0  0  0  0  0  0  0
   38.9390   27.4470   43.5310 C   0  0  0  0  0  0  0  0  0  0  0  0
   37.6110   28.1500   43.6350 C   0  0  0  0  0  0  0  0  0  0  0  0
   37.7920   29.3140   42.6350 C   0  0  2  0  0  0  0  0  0  0  0  0
   40.9100   28.0180   42.6770 H   0  0  0  0  0  0  0  0  0  0  0  0
   39.1350   26.4130   43.8440 H   0  0  0  0  0  0  0  0  0  0  0  0
   36.8430   27.4380   43.3030 H   0  0  0  0  0  0  0  0  0  0  0  0
   37.3880   28.4890   44.6450 H   0  0  0  0  0  0  0  0  0  0  0  0
   37.1090   30.0970   43.0230 H   0  0  0  0  0  0  0  0  0  0  0  0
   37.3740   29.0030   41.3170 N   0  0  0  0  0  0  0  0  0  0  0  0
   36.7930   27.7490   41.0610 C   0  0  0  0  0  2  0  0  0  0  0  0
   36.0800   27.7590   39.7020 C   0  0  0  0  0  2  0  0  0  0  0  0
   35.0480   28.8680   39.6630 C   0  0  0  0  0  3  0  0  0  0  0  0
   34.5610   28.8200   38.6740 H   0  0  0  0  0  0  0  0  0  0  0  0
   35.6550   30.1930   39.9960 C   0  0  0  0  0  2  0  0  0  0  0  0
   37.0700   30.0820   40.4530 C   0  0  0  0  0  2  0  0  0  0  0  0
   39.7710   30.7690   42.7140 C   0  0  0  0  0  0  0  0  0  0  0  0
   39.3690   31.5590   43.4020 H   0  0  0  0  0  0  0  0  0  0  0  0
   40.8190   30.6360   43.1440 H   0  0  0  0  0  0  0  0  0  0  0  0
   40.8530   31.5500   39.1870 C   0  0  0  0  0  0  0  0  0  0  0  0
   40.7550   30.8380   40.4160 C   0  0  0  0  0  0  0  0  0  0  0  0
   40.0040   31.4040   41.4250 C   0  0  0  0  0  0  0  0  0  0  0  0
   39.4080   32.5940   41.2030 N   0  0  0  0  0  0  0  0  0  0  0  0
   39.5090   33.2760   40.0100 C   0  0  0  0  0  0  0  0  0  0  0  0
   40.2310   32.7430   39.0170 N   0  0  0  0  0  0  0  0  0  0  0  0
   41.4460   31.0760   38.4210 H   0  0  0  0  0  0  0  0  0  0  0  0
   41.2390   29.8990   40.5680 H   0  0  0  0  0  0  0  0  0  0  0  0
   38.9800   34.2180   39.9700 H   0  0  0  0  0  0  0  0  0  0  0  0
  1 18  1  0  0  0  0
  1  2  1  0  0  0  0
  2  3  2  0  0  0  0
  3  4  1  0  0  0  0
  3  7  1  0  0  0  0
  4  9  1  0  0  0  0
  5  1  1  0  0  0  0
  5 10  1  1  0  0  0
  5  4  1  0  0  0  0
  6  2  1  0  0  0  0
  8  4  1  0  0  0  0
 11  5  1  0  0  0  0
 12 11  1  0  0  0  0
 13 12  1  0  0  0  0
 14 13  1  0  0  0  0
 14 16  1  0  0  0  0
 15 14  1  0  0  0  0
 16 17  1  0  0  0  0
 17 11  1  0  0  0  0
 18 20  1  0  0  0  0
 18 19  1  0  0  0  0
 21 22  1  0  0  0  0
 22 28  1  0  0  0  0
 22 23  2  0  0  0  0
 23 18  1  0  0  0  0
 24 23  1  0  0  0  0
 25 24  2  0  0  0  0
 26 21  2  0  0  0  0
 26 25  1  0  0  0  0
 27 21  1  0  0  0  0
 29 25  1  0  0  0  0
M  END
>  <minimizedAffinity>
-4.59348154

$$$$
