
 OpenBabel03242521483D

 18 19  0  0  0  0  0  0  0  0999 V2000
   44.6300   35.3330   45.2710 C   0  0  0  0  0  0  0  0  0  0  0  0
   45.2220   35.4880   44.0030 C   0  0  0  0  0  0  0  0  0  0  0  0
   46.1720   34.5540   43.6050 C   0  0  0  0  0  0  0  0  0  0  0  0
   46.4790   33.5350   44.4680 N   0  0  0  0  0  0  0  0  0  0  0  0
   45.8960   33.4180   45.6680 C   0  0  0  0  0  0  0  0  0  0  0  0
   44.9830   34.3030   46.0640 N   0  0  0  0  0  0  0  0  0  0  0  0
   43.8980   36.0890   45.5240 H   0  0  0  0  0  0  0  0  0  0  0  0
   44.9330   36.3170   43.3690 H   0  0  0  0  0  0  0  0  0  0  0  0
   46.2840   32.3220   46.4910 N   0  0  0  0  0  0  0  0  0  0  0  0
   47.1520   32.5560   47.6330 C   0  0  0  0  0  0  0  0  0  0  0  0
   46.3340   32.2010   48.8410 C   0  0  0  0  0  0  0  0  0  0  0  0
   45.5840   30.9280   48.7710 C   0  0  0  0  0  0  0  0  0  0  0  0
   46.1380   30.1520   49.3790 H   0  0  0  0  0  0  0  0  0  0  0  0
   45.1810   30.4130   47.4530 C   0  0  0  0  0  0  0  0  0  0  0  0
   45.8520   30.9620   46.2460 C   0  0  0  0  0  0  0  0  0  0  0  0
   46.7900   34.6690   42.3490 N   0  0  0  0  0  0  0  0  0  0  0  0
   46.8260   33.9980   41.5370 H   0  0  0  0  0  0  0  0  0  0  0  0
   47.2900   35.5600   42.2070 H   0  0  0  0  0  0  0  0  0  0  0  0
  1  7  1  0  0  0  0
  1  6  1  0  0  0  0
  2  1  2  0  0  0  0
  3  2  1  0  0  0  0
  3  4  2  0  0  0  0
  4  5  1  0  0  0  0
  5  6  2  0  0  0  0
  5  9  1  0  0  0  0
  8  2  1  0  0  0  0
  9 10  1  0  0  0  0
 10 11  1  0  0  0  0
 12 11  1  0  0  0  0
 12 13  1  0  0  0  0
 14 12  1  0  0  0  0
 15  9  1  0  0  0  0
 15 14  1  0  0  0  0
 16  3  1  0  0  0  0
 17 16  1  0  0  0  0
 18 16  1  0  0  0  0
M  END
>  <minimizedAffinity>
-4.63529539

>  <minimizedRMSD>
0.971734703

$$$$
