
 OpenBabel03252509063D

 46 48  0  0  1  0  0  0  0  0999 V2000
   40.5460   31.2850   41.1980 N   0  0  0  0  0  0  0  0  0  0  0  0
   41.4630   31.5080   42.2590 C   0  0  0  0  0  0  0  0  0  0  0  0
   42.7200   32.2610   41.8650 C   0  0  0  0  0  0  0  0  0  0  0  0
   42.4940   33.2960   40.8020 C   0  0  0  0  0  0  0  0  0  0  0  0
   41.0290   33.4120   40.4170 C   0  0  0  0  0  0  0  0  0  0  0  0
   40.6620   31.9330   39.9940 C   0  0  2  0  0  0  0  0  0  0  0  0
   40.9440   32.1660   43.0170 H   0  0  0  0  0  0  0  0  0  0  0  0
   41.7900   30.6330   42.8220 H   0  0  0  0  0  0  0  0  0  0  0  0
   43.4300   31.4920   41.4770 H   0  0  0  0  0  0  0  0  0  0  0  0
   43.1890   32.6840   42.7680 H   0  0  0  0  0  0  0  0  0  0  0  0
   43.0230   33.0270   39.8450 H   0  0  0  0  0  0  0  0  0  0  0  0
   42.8990   34.2550   41.1440 H   0  0  0  0  0  0  0  0  0  0  0  0
   40.4470   33.6770   41.3070 H   0  0  0  0  0  0  0  0  0  0  0  0
   40.9330   34.0750   39.5560 H   0  0  0  0  0  0  0  0  0  0  0  0
   41.4520   31.6180   39.2800 H   0  0  0  0  0  0  0  0  0  0  0  0
   39.9090   29.9940   41.2320 C   0  0  0  0  0  0  0  0  0  0  0  0
   40.6620   29.2310   40.9010 H   0  0  0  0  0  0  0  0  0  0  0  0
   39.1080   29.9760   40.4750 H   0  0  0  0  0  0  0  0  0  0  0  0
   39.4520   29.7320   42.6180 C   0  0  0  0  0  0  0  0  0  0  0  0
   38.8680   30.5800   43.0410 H   0  0  0  0  0  0  0  0  0  0  0  0
   40.3060   29.5990   43.3040 H   0  0  0  0  0  0  0  0  0  0  0  0
   36.6210   27.4050   43.4470 C   0  0  0  0  0  0  0  0  0  0  0  0
   37.4500   28.5380   43.4150 C   0  0  0  0  0  0  0  0  0  0  0  0
   38.5890   28.5260   42.6390 C   0  0  0  0  0  0  0  0  0  0  0  0
   38.8470   27.4180   41.9480 N   0  0  0  0  0  0  0  0  0  0  0  0
   38.0590   26.3330   41.9750 C   0  0  0  0  0  0  0  0  0  0  0  0
   36.9480   26.3050   42.7130 N   0  0  0  0  0  0  0  0  0  0  0  0
   35.7200   27.3930   44.0490 H   0  0  0  0  0  0  0  0  0  0  0  0
   37.2170   29.4200   43.9830 H   0  0  0  0  0  0  0  0  0  0  0  0
   38.3350   25.4670   41.3850 H   0  0  0  0  0  0  0  0  0  0  0  0
   39.4460   32.1370   39.3700 O   0  0  0  0  0  0  0  0  0  0  0  0
   40.1390   30.1840   37.7090 O   0  0  0  0  0  0  0  0  0  0  0  0
   39.4050   31.5190   37.7970 P   0  0  2  0  0  0  0  0  0  0  0  0
   40.3080   32.6060   36.8490 O   0  0  0  0  0  0  0  0  0  0  0  0
   39.9240   33.5100   36.8510 H   0  0  0  0  0  0  0  0  0  0  0  0
   37.8540   31.4290   37.1750 O   0  0  0  0  0  0  0  0  0  0  0  0
   37.0070   30.9570   38.1560 C   0  0  0  0  0  0  0  0  0  0  0  0
   36.0480   31.5330   38.0350 H   0  0  0  0  0  0  0  0  0  0  0  0
   37.3730   31.2920   39.1700 H   0  0  0  0  0  0  0  0  0  0  0  0
   36.7980   29.5220   38.1270 N   0  0  0  0  0  0  0  0  0  0  0  0
   36.8450   29.0130   39.4370 C   0  0  0  0  0  2  0  0  0  0  0  0
   35.6060   28.3880   39.9890 C   0  0  0  0  0  2  0  0  0  0  0  0
   34.3900   29.1310   39.4940 C   0  0  0  0  0  3  0  0  0  0  0  0
   34.3110   30.1540   39.8540 H   0  0  0  0  0  0  0  0  0  0  0  0
   34.3790   28.9530   38.0060 C   0  0  0  0  0  3  0  0  0  0  0  0
   35.6750   29.2490   37.3240 C   0  0  0  0  0  3  0  0  0  0  0  0
  1 16  1  0  0  0  0
  1  2  1  0  0  0  0
  2  8  1  0  0  0  0
  2  7  1  0  0  0  0
  3  2  1  0  0  0  0
  3 10  1  0  0  0  0
  4 12  1  0  0  0  0
  4  3  1  0  0  0  0
  5  4  1  0  0  0  0
  5 13  1  0  0  0  0
  6 15  1  6  0  0  0
  6  5  1  0  0  0  0
  6  1  1  0  0  0  0
  9  3  1  0  0  0  0
 11  4  1  0  0  0  0
 14  5  1  0  0  0  0
 16 19  1  0  0  0  0
 17 16  1  0  0  0  0
 18 16  1  0  0  0  0
 19 24  1  0  0  0  0
 19 20  1  0  0  0  0
 19 21  1  0  0  0  0
 22 28  1  0  0  0  0
 23 22  1  0  0  0  0
 23 29  1  0  0  0  0
 24 23  2  0  0  0  0
 25 26  2  0  0  0  0
 25 24  1  0  0  0  0
 26 27  1  0  0  0  0
 27 22  2  0  0  0  0
 30 26  1  0  0  0  0
 31  6  1  0  0  0  0
 33 32  2  6  0  0  0
 33 31  1  0  0  0  0
 34 35  1  0  0  0  0
 34 33  1  0  0  0  0
 36 33  1  0  0  0  0
 36 37  1  0  0  0  0
 37 39  1  0  0  0  0
 38 37  1  0  0  0  0
 40 37  1  0  0  0  0
 40 41  1  0  0  0  0
 41 42  1  0  0  0  0
 43 44  1  0  0  0  0
 43 42  1  0  0  0  0
 45 43  1  0  0  0  0
 46 45  2  0  0  0  0
 46 40  1  0  0  0  0
M  END
>  <minimizedAffinity>
-5.17210674

$$$$

 OpenBabel03252509063D

 46 48  0  0  1  0  0  0  0  0999 V2000
   37.9620   26.8420   42.3350 N   0  0  0  0  0  0  0  0  0  0  0  0
   39.1000   26.2050   42.8940 C   0  0  0  0  0  0  0  0  0  0  0  0
   40.3970   26.9810   42.7530 C   0  0  0  0  0  0  0  0  0  0  0  0
   40.2200   28.4690   42.8340 C   0  0  0  0  0  0  0  0  0  0  0  0
   38.7820   28.8610   43.1240 C   0  0  0  0  0  0  0  0  0  0  0  0
   37.9860   28.1590   41.9500 C   0  0  2  0  0  0  0  0  0  0  0  0
   38.9230   26.1180   44.0070 H   0  0  0  0  0  0  0  0  0  0  0  0
   39.3110   25.1870   42.5620 H   0  0  0  0  0  0  0  0  0  0  0  0
   40.8030   26.7180   41.7470 H   0  0  0  0  0  0  0  0  0  0  0  0
   41.1280   26.6060   43.4870 H   0  0  0  0  0  0  0  0  0  0  0  0
   40.4620   28.9680   41.8540 H   0  0  0  0  0  0  0  0  0  0  0  0
   40.9080   28.8710   43.5860 H   0  0  0  0  0  0  0  0  0  0  0  0
   38.4740   28.4090   44.0750 H   0  0  0  0  0  0  0  0  0  0  0  0
   38.6780   29.9430   43.0420 H   0  0  0  0  0  0  0  0  0  0  0  0
   38.5140   28.4440   41.0150 H   0  0  0  0  0  0  0  0  0  0  0  0
   37.0490   25.9450   41.6760 C   0  0  0  0  0  0  0  0  0  0  0  0
   37.1860   26.0680   40.5680 H   0  0  0  0  0  0  0  0  0  0  0  0
   36.0180   26.2690   41.8900 H   0  0  0  0  0  0  0  0  0  0  0  0
   37.3600   24.5590   42.1050 C   0  0  0  0  0  0  0  0  0  0  0  0
   36.7110   24.2170   42.9410 H   0  0  0  0  0  0  0  0  0  0  0  0
   38.3920   24.4810   42.4900 H   0  0  0  0  0  0  0  0  0  0  0  0
   35.8320   22.8730   39.1170 C   0  0  0  0  0  0  0  0  0  0  0  0
   36.0290   23.7440   40.2000 C   0  0  0  0  0  0  0  0  0  0  0  0
   37.1700   23.6300   40.9660 C   0  0  0  0  0  0  0  0  0  0  0  0
   38.0390   22.6790   40.6300 N   0  0  0  0  0  0  0  0  0  0  0  0
   37.8560   21.8440   39.5960 C   0  0  0  0  0  0  0  0  0  0  0  0
   36.7650   21.9220   38.8310 N   0  0  0  0  0  0  0  0  0  0  0  0
   34.9420   22.9450   38.5010 H   0  0  0  0  0  0  0  0  0  0  0  0
   35.3100   24.5030   40.4480 H   0  0  0  0  0  0  0  0  0  0  0  0
   38.6090   21.0940   39.3850 H   0  0  0  0  0  0  0  0  0  0  0  0
   36.7560   28.7790   42.0640 O   0  0  0  0  0  0  0  0  0  0  0  0
   37.6500   30.2750   40.0600 O   0  0  0  0  0  0  0  0  0  0  0  0
   36.3840   29.7470   40.7290 P   0  0  2  0  0  0  0  0  0  0  0  0
   35.5860   31.1120   41.3550 O   0  0  0  0  0  0  0  0  0  0  0  0
   34.7560   30.8760   41.8240 H   0  0  0  0  0  0  0  0  0  0  0  0
   35.3660   28.9840   39.6400 O   0  0  0  0  0  0  0  0  0  0  0  0
   36.0840   28.6700   38.5050 C   0  0  0  0  0  0  0  0  0  0  0  0
   35.9410   27.5640   38.3490 H   0  0  0  0  0  0  0  0  0  0  0  0
   37.1890   28.7520   38.7160 H   0  0  0  0  0  0  0  0  0  0  0  0
   35.7190   29.4440   37.3340 N   0  0  0  0  0  0  0  0  0  0  0  0
   36.8400   29.5890   36.4980 C   0  0  0  0  0  2  0  0  0  0  0  0
   36.7840   28.9770   35.1370 C   0  0  0  0  0  2  0  0  0  0  0  0
   36.0270   27.6730   35.1910 C   0  0  0  0  0  3  0  0  0  0  0  0
   36.5140   26.8940   35.7730 H   0  0  0  0  0  0  0  0  0  0  0  0
   34.6300   28.0270   35.6030 C   0  0  0  0  0  3  0  0  0  0  0  0
   34.5290   28.9160   36.7990 C   0  0  0  0  0  3  0  0  0  0  0  0
  1  2  1  0  0  0  0
  2  7  1  0  0  0  0
  3  4  1  0  0  0  0
  3  2  1  0  0  0  0
  3 10  1  0  0  0  0
  4  5  1  0  0  0  0
  4 12  1  0  0  0  0
  5 13  1  0  0  0  0
  6 15  1  6  0  0  0
  6 31  1  0  0  0  0
  6  1  1  0  0  0  0
  6  5  1  0  0  0  0
  8  2  1  0  0  0  0
  9  3  1  0  0  0  0
 11  4  1  0  0  0  0
 14  5  1  0  0  0  0
 16 18  1  0  0  0  0
 16 19  1  0  0  0  0
 16  1  1  0  0  0  0
 17 16  1  0  0  0  0
 19 21  1  0  0  0  0
 19 20  1  0  0  0  0
 22 23  1  0  0  0  0
 23 29  1  0  0  0  0
 23 24  2  0  0  0  0
 24 19  1  0  0  0  0
 25 24  1  0  0  0  0
 26 25  2  0  0  0  0
 27 22  2  0  0  0  0
 27 26  1  0  0  0  0
 28 22  1  0  0  0  0
 30 26  1  0  0  0  0
 33 32  2  6  0  0  0
 33 34  1  0  0  0  0
 33 31  1  0  0  0  0
 34 35  1  0  0  0  0
 36 33  1  0  0  0  0
 37 39  1  0  0  0  0
 37 36  1  0  0  0  0
 38 37  1  0  0  0  0
 40 37  1  0  0  0  0
 41 40  1  0  0  0  0
 42 43  1  0  0  0  0
 42 41  1  0  0  0  0
 43 45  1  0  0  0  0
 43 44  1  0  0  0  0
 45 46  2  0  0  0  0
 46 40  1  0  0  0  0
M  END
>  <minimizedAffinity>
-5.11094713

$$$$

 OpenBabel03252509063D

 46 48  0  0  1  0  0  0  0  0999 V2000
   36.9690   26.0450   39.9830 N   0  0  0  0  0  0  0  0  0  0  0  0
   36.9010   24.7940   39.3150 C   0  0  0  0  0  0  0  0  0  0  0  0
   37.6680   23.6710   39.9890 C   0  0  0  0  0  0  0  0  0  0  0  0
   37.6640   23.7540   41.4870 C   0  0  0  0  0  0  0  0  0  0  0  0
   36.8170   24.9070   41.9960 C   0  0  0  0  0  0  0  0  0  0  0  0
   37.4530   26.1560   41.2620 C   0  0  2  0  0  0  0  0  0  0  0  0
   35.8190   24.4670   39.3260 H   0  0  0  0  0  0  0  0  0  0  0  0
   37.1900   24.7780   38.2630 H   0  0  0  0  0  0  0  0  0  0  0  0
   38.7190   23.7550   39.6230 H   0  0  0  0  0  0  0  0  0  0  0  0
   37.2920   22.7020   39.6220 H   0  0  0  0  0  0  0  0  0  0  0  0
   38.6960   23.9540   41.8920 H   0  0  0  0  0  0  0  0  0  0  0  0
   37.3290   22.7950   41.8980 H   0  0  0  0  0  0  0  0  0  0  0  0
   35.7880   24.7780   41.6400 H   0  0  0  0  0  0  0  0  0  0  0  0
   36.9520   25.0080   43.0730 H   0  0  0  0  0  0  0  0  0  0  0  0
   38.5470   26.0850   41.4380 H   0  0  0  0  0  0  0  0  0  0  0  0
   37.0740   27.1780   39.1010 C   0  0  0  0  0  0  0  0  0  0  0  0
   37.7590   26.8950   38.2570 H   0  0  0  0  0  0  0  0  0  0  0  0
   37.5790   27.9970   39.6380 H   0  0  0  0  0  0  0  0  0  0  0  0
   35.7180   27.5140   38.6030 C   0  0  0  0  0  0  0  0  0  0  0  0
   35.2080   28.2720   39.2370 H   0  0  0  0  0  0  0  0  0  0  0  0
   35.0550   26.6310   38.6190 H   0  0  0  0  0  0  0  0  0  0  0  0
   34.7700   29.1670   35.3670 C   0  0  0  0  0  0  0  0  0  0  0  0
   34.7000   28.6490   36.6690 C   0  0  0  0  0  0  0  0  0  0  0  0
   35.8120   28.0550   37.2260 C   0  0  0  0  0  0  0  0  0  0  0  0
   36.9150   28.0030   36.4820 N   0  0  0  0  0  0  0  0  0  0  0  0
   36.9880   28.4960   35.2370 C   0  0  0  0  0  0  0  0  0  0  0  0
   35.9340   29.0790   34.6630 N   0  0  0  0  0  0  0  0  0  0  0  0
   33.9080   29.6400   34.9090 H   0  0  0  0  0  0  0  0  0  0  0  0
   33.7960   28.7050   37.2470 H   0  0  0  0  0  0  0  0  0  0  0  0
   37.9220   28.4160   34.6930 H   0  0  0  0  0  0  0  0  0  0  0  0
   36.8770   27.1940   41.9710 O   0  0  0  0  0  0  0  0  0  0  0  0
   38.9070   27.4090   43.6700 O   0  0  0  0  0  0  0  0  0  0  0  0
   38.0200   28.1970   42.7090 P   0  0  2  0  0  0  0  0  0  0  0  0
   37.1310   29.2750   43.6790 O   0  0  0  0  0  0  0  0  0  0  0  0
   36.5110   29.8260   43.1520 H   0  0  0  0  0  0  0  0  0  0  0  0
   38.9150   29.0820   41.6060 O   0  0  0  0  0  0  0  0  0  0  0  0
   38.5900   30.4160   41.7360 C   0  0  0  0  0  0  0  0  0  0  0  0
   39.0220   30.7410   42.7230 H   0  0  0  0  0  0  0  0  0  0  0  0
   37.4800   30.5240   41.9010 H   0  0  0  0  0  0  0  0  0  0  0  0
   39.0360   31.2490   40.6360 N   0  0  0  0  0  0  0  0  0  0  0  0
   39.1680   30.4670   39.4750 C   0  0  0  0  0  2  0  0  0  0  0  0
   38.2800   30.7790   38.3160 C   0  0  0  0  0  2  0  0  0  0  0  0
   36.9190   31.2030   38.8090 C   0  0  0  0  0  3  0  0  0  0  0  0
   36.3630   30.4200   39.3200 H   0  0  0  0  0  0  0  0  0  0  0  0
   37.1390   32.4670   39.5840 C   0  0  0  0  0  3  0  0  0  0  0  0
   38.2350   32.4060   40.5960 C   0  0  0  0  0  3  0  0  0  0  0  0
  1  6  1  0  0  0  0
  2  7  1  0  0  0  0
  2  1  1  0  0  0  0
  2  3  1  0  0  0  0
  3  4  1  0  0  0  0
  4 11  1  0  0  0  0
  4 12  1  0  0  0  0
  4  5  1  0  0  0  0
  5 14  1  0  0  0  0
  6 15  1  1  0  0  0
  6 31  1  0  0  0  0
  6  5  1  0  0  0  0
  8  2  1  0  0  0  0
  9  3  1  0  0  0  0
 10  3  1  0  0  0  0
 13  5  1  0  0  0  0
 16 18  1  0  0  0  0
 16  1  1  0  0  0  0
 17 16  1  0  0  0  0
 19 21  1  0  0  0  0
 19 16  1  0  0  0  0
 19 20  1  0  0  0  0
 22 23  1  0  0  0  0
 23 24  2  0  0  0  0
 23 29  1  0  0  0  0
 24 19  1  0  0  0  0
 25 24  1  0  0  0  0
 26 25  2  0  0  0  0
 27 26  1  0  0  0  0
 27 22  2  0  0  0  0
 28 22  1  0  0  0  0
 30 26  1  0  0  0  0
 31 33  1  0  0  0  0
 33 32  2  1  0  0  0
 33 34  1  0  0  0  0
 35 34  1  0  0  0  0
 36 37  1  0  0  0  0
 36 33  1  0  0  0  0
 37 39  1  0  0  0  0
 37 38  1  0  0  0  0
 40 37  1  0  0  0  0
 41 40  1  0  0  0  0
 42 43  1  0  0  0  0
 42 41  1  0  0  0  0
 43 44  1  0  0  0  0
 43 45  1  0  0  0  0
 45 46  2  0  0  0  0
 46 40  1  0  0  0  0
M  END
>  <minimizedAffinity>
-5.0719676

$$$$

 OpenBabel03252509063D

 46 48  0  0  1  0  0  0  0  0999 V2000
   36.3650   30.1430   39.8020 N   0  0  0  0  0  0  0  0  0  0  0  0
   36.3720   30.5070   38.4300 C   0  0  0  0  0  0  0  0  0  0  0  0
   36.9740   29.4690   37.5000 C   0  0  0  0  0  0  0  0  0  0  0  0
   36.7140   28.0550   37.9280 C   0  0  0  0  0  0  0  0  0  0  0  0
   35.8300   27.9810   39.1610 C   0  0  0  0  0  0  0  0  0  0  0  0
   36.6240   28.8580   40.2110 C   0  0  2  0  0  0  0  0  0  0  0  0
   35.2950   30.6120   38.1050 H   0  0  0  0  0  0  0  0  0  0  0  0
   36.8390   31.4590   38.1730 H   0  0  0  0  0  0  0  0  0  0  0  0
   38.0750   29.6540   37.5060 H   0  0  0  0  0  0  0  0  0  0  0  0
   36.6350   29.6640   36.4690 H   0  0  0  0  0  0  0  0  0  0  0  0
   37.6660   27.5310   38.2250 H   0  0  0  0  0  0  0  0  0  0  0  0
   36.2820   27.5000   37.0880 H   0  0  0  0  0  0  0  0  0  0  0  0
   34.8740   28.4730   38.9440 H   0  0  0  0  0  0  0  0  0  0  0  0
   35.7790   26.9500   39.5090 H   0  0  0  0  0  0  0  0  0  0  0  0
   37.6680   28.4820   40.1920 H   0  0  0  0  0  0  0  0  0  0  0  0
   36.6580   31.2290   40.7010 C   0  0  0  0  0  0  0  0  0  0  0  0
   37.1850   30.8020   41.5950 H   0  0  0  0  0  0  0  0  0  0  0  0
   35.7080   31.6410   41.0780 H   0  0  0  0  0  0  0  0  0  0  0  0
   37.5140   32.2090   39.9900 C   0  0  0  0  0  0  0  0  0  0  0  0
   37.1450   33.2530   40.0980 H   0  0  0  0  0  0  0  0  0  0  0  0
   37.5250   32.0180   38.9030 H   0  0  0  0  0  0  0  0  0  0  0  0
   40.4660   31.2080   42.0870 C   0  0  0  0  0  0  0  0  0  0  0  0
   39.1660   31.2770   41.5610 C   0  0  0  0  0  0  0  0  0  0  0  0
   38.8930   32.1510   40.5310 C   0  0  0  0  0  0  0  0  0  0  0  0
   39.9000   32.8980   40.0810 N   0  0  0  0  0  0  0  0  0  0  0  0
   41.1430   32.8360   40.5780 C   0  0  0  0  0  0  0  0  0  0  0  0
   41.4470   32.0030   41.5760 N   0  0  0  0  0  0  0  0  0  0  0  0
   40.7030   30.5270   42.8970 H   0  0  0  0  0  0  0  0  0  0  0  0
   38.3720   30.6620   41.9450 H   0  0  0  0  0  0  0  0  0  0  0  0
   41.9110   33.4770   40.1590 H   0  0  0  0  0  0  0  0  0  0  0  0
   35.9680   28.5200   41.3790 O   0  0  0  0  0  0  0  0  0  0  0  0
   36.3940   26.8300   43.3840 O   0  0  0  0  0  0  0  0  0  0  0  0
   37.0180   27.9710   42.5850 P   0  0  2  0  0  0  0  0  0  0  0  0
   37.1850   29.2640   43.6770 O   0  0  0  0  0  0  0  0  0  0  0  0
   37.5690   30.0630   43.2540 H   0  0  0  0  0  0  0  0  0  0  0  0
   38.5320   27.5720   41.9930 O   0  0  0  0  0  0  0  0  0  0  0  0
   39.0480   26.5390   42.7480 C   0  0  0  0  0  0  0  0  0  0  0  0
   38.2620   26.3010   43.5180 H   0  0  0  0  0  0  0  0  0  0  0  0
   39.9060   26.9170   43.3760 H   0  0  0  0  0  0  0  0  0  0  0  0
   39.4400   25.3740   41.9790 N   0  0  0  0  0  0  0  0  0  0  0  0
   38.6740   24.2650   42.3800 C   0  0  0  0  0  2  0  0  0  0  0  0
   37.7600   23.6450   41.3750 C   0  0  0  0  0  2  0  0  0  0  0  0
   37.1660   24.7130   40.4910 C   0  0  0  0  0  3  0  0  0  0  0  0
   36.5040   25.4050   41.0050 H   0  0  0  0  0  0  0  0  0  0  0  0
   38.3200   25.3260   39.7580 C   0  0  0  0  0  3  0  0  0  0  0  0
   39.4750   25.7270   40.6170 C   0  0  0  0  0  3  0  0  0  0  0  0
  1  6  1  0  0  0  0
  1 16  1  0  0  0  0
  2  1  1  0  0  0  0
  3  9  1  0  0  0  0
  3  4  1  0  0  0  0
  3  2  1  0  0  0  0
  4 11  1  0  0  0  0
  4  5  1  0  0  0  0
  5 14  1  0  0  0  0
  5  6  1  0  0  0  0
  6 15  1  1  0  0  0
  6 31  1  0  0  0  0
  7  2  1  0  0  0  0
  8  2  1  0  0  0  0
 10  3  1  0  0  0  0
 12  4  1  0  0  0  0
 13  5  1  0  0  0  0
 16 18  1  0  0  0  0
 16 17  1  0  0  0  0
 19 20  1  0  0  0  0
 19 24  1  0  0  0  0
 19 16  1  0  0  0  0
 21 19  1  0  0  0  0
 22 28  1  0  0  0  0
 23 29  1  0  0  0  0
 23 22  2  0  0  0  0
 24 23  1  0  0  0  0
 25 24  2  0  0  0  0
 25 26  1  0  0  0  0
 26 27  2  0  0  0  0
 27 22  1  0  0  0  0
 30 26  1  0  0  0  0
 31 33  1  0  0  0  0
 33 32  2  1  0  0  0
 33 34  1  0  0  0  0
 35 34  1  0  0  0  0
 36 33  1  0  0  0  0
 36 37  1  0  0  0  0
 37 39  1  0  0  0  0
 37 38  1  0  0  0  0
 40 41  1  0  0  0  0
 40 37  1  0  0  0  0
 42 41  1  0  0  0  0
 43 44  1  0  0  0  0
 43 42  1  0  0  0  0
 45 43  1  0  0  0  0
 45 46  2  0  0  0  0
 46 40  1  0  0  0  0
M  END
>  <minimizedAffinity>
-5.0559845

$$$$

 OpenBabel03252509063D

 46 48  0  0  1  0  0  0  0  0999 V2000
   37.0260   30.3760   38.8800 N   0  0  0  0  0  0  0  0  0  0  0  0
   35.8870   29.6740   38.4060 C   0  0  0  0  0  0  0  0  0  0  0  0
   35.8600   29.4440   36.9070 C   0  0  0  0  0  0  0  0  0  0  0  0
   37.2180   29.2190   36.3070 C   0  0  0  0  0  0  0  0  0  0  0  0
   38.3120   29.1910   37.3600 C   0  0  0  0  0  0  0  0  0  0  0  0
   38.1300   30.5820   38.0890 C   0  0  2  0  0  0  0  0  0  0  0  0
   35.9140   28.6420   38.8670 H   0  0  0  0  0  0  0  0  0  0  0  0
   34.9100   30.0780   38.6750 H   0  0  0  0  0  0  0  0  0  0  0  0
   35.4160   30.3670   36.4630 H   0  0  0  0  0  0  0  0  0  0  0  0
   35.1600   28.6250   36.6760 H   0  0  0  0  0  0  0  0  0  0  0  0
   37.5070   30.0580   35.6140 H   0  0  0  0  0  0  0  0  0  0  0  0
   37.2000   28.2960   35.7180 H   0  0  0  0  0  0  0  0  0  0  0  0
   38.0970   28.3880   38.0760 H   0  0  0  0  0  0  0  0  0  0  0  0
   39.2850   29.1590   36.8690 H   0  0  0  0  0  0  0  0  0  0  0  0
   38.0860   31.3430   37.2820 H   0  0  0  0  0  0  0  0  0  0  0  0
   36.7420   31.3180   39.9320 C   0  0  0  0  0  0  0  0  0  0  0  0
   36.0490   32.0980   39.5170 H   0  0  0  0  0  0  0  0  0  0  0  0
   37.6730   31.8480   40.1920 H   0  0  0  0  0  0  0  0  0  0  0  0
   36.1160   30.5870   41.0600 C   0  0  0  0  0  0  0  0  0  0  0  0
   35.2950   29.9140   40.7270 H   0  0  0  0  0  0  0  0  0  0  0  0
   35.6460   31.2820   41.7770 H   0  0  0  0  0  0  0  0  0  0  0  0
   37.7920   27.6500   42.6960 C   0  0  0  0  0  0  0  0  0  0  0  0
   36.8380   28.4480   42.0450 C   0  0  0  0  0  0  0  0  0  0  0  0
   37.1370   29.7600   41.7470 C   0  0  0  0  0  0  0  0  0  0  0  0
   38.3400   30.2090   42.1000 N   0  0  0  0  0  0  0  0  0  0  0  0
   39.2550   29.4510   42.7220 C   0  0  0  0  0  0  0  0  0  0  0  0
   39.0040   28.1770   43.0280 N   0  0  0  0  0  0  0  0  0  0  0  0
   37.5790   26.6150   42.9390 H   0  0  0  0  0  0  0  0  0  0  0  0
   35.8740   28.0590   41.7720 H   0  0  0  0  0  0  0  0  0  0  0  0
   40.2140   29.8880   42.9780 H   0  0  0  0  0  0  0  0  0  0  0  0
   39.3060   30.6530   38.8110 O   0  0  0  0  0  0  0  0  0  0  0  0
   39.7440   33.2410   39.2150 O   0  0  0  0  0  0  0  0  0  0  0  0
   40.2250   32.0210   38.4340 P   0  0  2  0  0  0  0  0  0  0  0  0
   39.8990   32.3610   36.7990 O   0  0  0  0  0  0  0  0  0  0  0  0
   40.1610   31.6230   36.2060 H   0  0  0  0  0  0  0  0  0  0  0  0
   41.8700   31.7670   38.6110 O   0  0  0  0  0  0  0  0  0  0  0  0
   42.1660   30.4770   38.2260 C   0  0  0  0  0  0  0  0  0  0  0  0
   41.4280   29.8200   38.7660 H   0  0  0  0  0  0  0  0  0  0  0  0
   43.1530   30.1620   38.6720 H   0  0  0  0  0  0  0  0  0  0  0  0
   42.1510   30.2630   36.7920 N   0  0  0  0  0  0  0  0  0  0  0  0
   43.2650   30.8930   36.2100 C   0  0  0  0  0  2  0  0  0  0  0  0
   44.2820   30.0340   35.5330 C   0  0  0  0  0  2  0  0  0  0  0  0
   44.4370   28.7330   36.2810 C   0  0  0  0  0  3  0  0  0  0  0  0
   44.8520   28.8370   37.2810 H   0  0  0  0  0  0  0  0  0  0  0  0
   43.1080   28.0470   36.1880 C   0  0  0  0  0  3  0  0  0  0  0  0
   41.9300   28.8940   36.5450 C   0  0  0  0  0  3  0  0  0  0  0  0
  1 16  1  0  0  0  0
  2  8  1  0  0  0  0
  2  7  1  0  0  0  0
  2  1  1  0  0  0  0
  3  2  1  0  0  0  0
  4  3  1  0  0  0  0
  4  5  1  0  0  0  0
  5 13  1  0  0  0  0
  5  6  1  0  0  0  0
  6 15  1  6  0  0  0
  6 31  1  0  0  0  0
  6  1  1  0  0  0  0
  9  3  1  0  0  0  0
 10  3  1  0  0  0  0
 11  4  1  0  0  0  0
 12  4  1  0  0  0  0
 14  5  1  0  0  0  0
 16 18  1  0  0  0  0
 16 19  1  0  0  0  0
 17 16  1  0  0  0  0
 19 24  1  0  0  0  0
 19 21  1  0  0  0  0
 20 19  1  0  0  0  0
 22 28  1  0  0  0  0
 22 27  1  0  0  0  0
 23 22  2  0  0  0  0
 24 23  1  0  0  0  0
 24 25  2  0  0  0  0
 25 26  1  0  0  0  0
 26 30  1  0  0  0  0
 26 27  2  0  0  0  0
 29 23  1  0  0  0  0
 33 36  1  0  0  0  0
 33 31  1  0  0  0  0
 33 32  2  1  0  0  0
 34 33  1  0  0  0  0
 35 34  1  0  0  0  0
 37 36  1  0  0  0  0
 37 39  1  0  0  0  0
 37 38  1  0  0  0  0
 40 37  1  0  0  0  0
 41 40  1  0  0  0  0
 42 41  1  0  0  0  0
 42 43  1  0  0  0  0
 43 44  1  0  0  0  0
 45 43  1  0  0  0  0
 45 46  2  0  0  0  0
 46 40  1  0  0  0  0
M  END
>  <minimizedAffinity>
-5.0534296

$$$$

 OpenBabel03252509063D

 46 48  0  0  1  0  0  0  0  0999 V2000
   37.5710   26.0770   41.7950 N   0  0  0  0  0  0  0  0  0  0  0  0
   38.3110   24.9900   42.3300 C   0  0  0  0  0  0  0  0  0  0  0  0
   39.6280   25.3750   42.9790 C   0  0  0  0  0  0  0  0  0  0  0  0
   39.5920   26.7070   43.6700 C   0  0  0  0  0  0  0  0  0  0  0  0
   38.2100   27.3350   43.6330 C   0  0  0  0  0  0  0  0  0  0  0  0
   37.8890   27.3810   42.0850 C   0  0  2  0  0  0  0  0  0  0  0  0
   37.6900   24.5370   43.1590 H   0  0  0  0  0  0  0  0  0  0  0  0
   38.5300   24.1610   41.6560 H   0  0  0  0  0  0  0  0  0  0  0  0
   40.3770   25.4150   42.1520 H   0  0  0  0  0  0  0  0  0  0  0  0
   39.9550   24.5640   43.6490 H   0  0  0  0  0  0  0  0  0  0  0  0
   40.2620   27.4540   43.1610 H   0  0  0  0  0  0  0  0  0  0  0  0
   39.9540   26.5860   44.6970 H   0  0  0  0  0  0  0  0  0  0  0  0
   37.4980   26.6570   44.1190 H   0  0  0  0  0  0  0  0  0  0  0  0
   38.2640   28.3500   44.0270 H   0  0  0  0  0  0  0  0  0  0  0  0
   38.7780   27.8440   41.6060 H   0  0  0  0  0  0  0  0  0  0  0  0
   36.9150   25.7860   40.5470 C   0  0  0  0  0  0  0  0  0  0  0  0
   36.0310   26.4710   40.4550 H   0  0  0  0  0  0  0  0  0  0  0  0
   36.5020   24.7650   40.5950 H   0  0  0  0  0  0  0  0  0  0  0  0
   37.8830   26.0060   39.4450 C   0  0  0  0  0  0  0  0  0  0  0  0
   38.4430   25.0820   39.1790 H   0  0  0  0  0  0  0  0  0  0  0  0
   38.6560   26.7390   39.7310 H   0  0  0  0  0  0  0  0  0  0  0  0
   35.1150   26.6430   36.9870 C   0  0  0  0  0  0  0  0  0  0  0  0
   35.8140   26.2110   38.1250 C   0  0  0  0  0  0  0  0  0  0  0  0
   37.1630   26.4700   38.2350 C   0  0  0  0  0  0  0  0  0  0  0  0
   37.7420   27.1290   37.2340 N   0  0  0  0  0  0  0  0  0  0  0  0
   37.0800   27.5440   36.1440 C   0  0  0  0  0  0  0  0  0  0  0  0
   35.7740   27.3130   36.0000 N   0  0  0  0  0  0  0  0  0  0  0  0
   34.0530   26.4510   36.8800 H   0  0  0  0  0  0  0  0  0  0  0  0
   35.3200   25.6810   38.9190 H   0  0  0  0  0  0  0  0  0  0  0  0
   37.6210   28.0750   35.3690 H   0  0  0  0  0  0  0  0  0  0  0  0
   36.7920   28.2210   42.0730 O   0  0  0  0  0  0  0  0  0  0  0  0
   38.2860   30.4160   42.0250 O   0  0  0  0  0  0  0  0  0  0  0  0
   37.1160   29.7110   41.3440 P   0  0  2  0  0  0  0  0  0  0  0  0
   35.7510   30.6800   41.6460 O   0  0  0  0  0  0  0  0  0  0  0  0
   34.9320   30.3030   41.2570 H   0  0  0  0  0  0  0  0  0  0  0  0
   37.3310   29.5900   39.6880 O   0  0  0  0  0  0  0  0  0  0  0  0
   38.6050   30.0120   39.3710 C   0  0  0  0  0  0  0  0  0  0  0  0
   39.1180   29.1200   38.9150 H   0  0  0  0  0  0  0  0  0  0  0  0
   39.1960   30.1840   40.3170 H   0  0  0  0  0  0  0  0  0  0  0  0
   38.6520   31.1770   38.5090 N   0  0  0  0  0  0  0  0  0  0  0  0
   37.3700   31.7490   38.4200 C   0  0  0  0  0  2  0  0  0  0  0  0
   37.1800   33.1290   38.9550 C   0  0  0  0  0  2  0  0  0  0  0  0
   38.0260   33.3240   40.1890 C   0  0  0  0  0  3  0  0  0  0  0  0
   37.7330   32.7080   41.0360 H   0  0  0  0  0  0  0  0  0  0  0  0
   39.4480   33.1900   39.7360 C   0  0  0  0  0  3  0  0  0  0  0  0
   39.7360   31.9830   38.9040 C   0  0  0  0  0  3  0  0  0  0  0  0
  1  6  1  0  0  0  0
  1  2  1  0  0  0  0
  2  3  1  0  0  0  0
  2  7  1  0  0  0  0
  3 10  1  0  0  0  0
  3  4  1  0  0  0  0
  4 12  1  0  0  0  0
  5  4  1  0  0  0  0
  5 14  1  0  0  0  0
  5 13  1  0  0  0  0
  6 15  1  6  0  0  0
  6  5  1  0  0  0  0
  8  2  1  0  0  0  0
  9  3  1  0  0  0  0
 11  4  1  0  0  0  0
 16 18  1  0  0  0  0
 16  1  1  0  0  0  0
 17 16  1  0  0  0  0
 19 21  1  0  0  0  0
 19 16  1  0  0  0  0
 20 19  1  0  0  0  0
 22 23  1  0  0  0  0
 23 24  2  0  0  0  0
 23 29  1  0  0  0  0
 24 19  1  0  0  0  0
 25 24  1  0  0  0  0
 26 25  2  0  0  0  0
 27 26  1  0  0  0  0
 27 22  2  0  0  0  0
 28 22  1  0  0  0  0
 30 26  1  0  0  0  0
 31  6  1  0  0  0  0
 33 34  1  0  0  0  0
 33 32  2  1  0  0  0
 33 31  1  0  0  0  0
 35 34  1  0  0  0  0
 36 33  1  0  0  0  0
 37 36  1  0  0  0  0
 37 39  1  0  0  0  0
 38 37  1  0  0  0  0
 40 46  1  0  0  0  0
 40 37  1  0  0  0  0
 41 40  1  0  0  0  0
 41 42  1  0  0  0  0
 42 43  1  0  0  0  0
 43 44  1  0  0  0  0
 45 43  1  0  0  0  0
 46 45  2  0  0  0  0
M  END
>  <minimizedAffinity>
-5.05236912

$$$$

 OpenBabel03252509063D

 46 48  0  0  1  0  0  0  0  0999 V2000
   37.0880   29.1350   37.1910 N   0  0  0  0  0  0  0  0  0  0  0  0
   37.5150   28.3200   36.1090 C   0  0  0  0  0  0  0  0  0  0  0  0
   38.0790   26.9710   36.5140 C   0  0  0  0  0  0  0  0  0  0  0  0
   37.4120   26.3760   37.7200 C   0  0  0  0  0  0  0  0  0  0  0  0
   36.2590   27.2300   38.2160 C   0  0  0  0  0  0  0  0  0  0  0  0
   36.9450   28.6340   38.4610 C   0  0  2  0  0  0  0  0  0  0  0  0
   36.6020   28.0880   35.4840 H   0  0  0  0  0  0  0  0  0  0  0  0
   38.2310   28.7580   35.4120 H   0  0  0  0  0  0  0  0  0  0  0  0
   39.1570   27.1460   36.7450 H   0  0  0  0  0  0  0  0  0  0  0  0
   38.0570   26.2920   35.6460 H   0  0  0  0  0  0  0  0  0  0  0  0
   38.1200   26.3120   38.5930 H   0  0  0  0  0  0  0  0  0  0  0  0
   37.0880   25.3570   37.4830 H   0  0  0  0  0  0  0  0  0  0  0  0
   35.5210   27.3350   37.4120 H   0  0  0  0  0  0  0  0  0  0  0  0
   35.8950   26.8300   39.1630 H   0  0  0  0  0  0  0  0  0  0  0  0
   37.8500   28.4260   39.0690 H   0  0  0  0  0  0  0  0  0  0  0  0
   37.3860   30.5340   37.0280 C   0  0  0  0  0  0  0  0  0  0  0  0
   36.5760   31.1200   37.5380 H   0  0  0  0  0  0  0  0  0  0  0  0
   37.3140   30.7880   35.9580 H   0  0  0  0  0  0  0  0  0  0  0  0
   38.7110   30.8060   37.6360 C   0  0  0  0  0  0  0  0  0  0  0  0
   39.4930   31.0230   36.8740 H   0  0  0  0  0  0  0  0  0  0  0  0
   39.0850   29.9290   38.1910 H   0  0  0  0  0  0  0  0  0  0  0  0
   39.7020   33.6510   39.8800 C   0  0  0  0  0  0  0  0  0  0  0  0
   39.7750   32.5420   39.0220 C   0  0  0  0  0  0  0  0  0  0  0  0
   38.6130   31.9770   38.5400 C   0  0  0  0  0  0  0  0  0  0  0  0
   37.4620   32.5260   38.9220 N   0  0  0  0  0  0  0  0  0  0  0  0
   37.3870   33.5850   39.7410 C   0  0  0  0  0  0  0  0  0  0  0  0
   38.4870   34.1600   40.2280 N   0  0  0  0  0  0  0  0  0  0  0  0
   40.6020   34.1120   40.2700 H   0  0  0  0  0  0  0  0  0  0  0  0
   40.7190   32.1200   38.7300 H   0  0  0  0  0  0  0  0  0  0  0  0
   36.4110   33.9760   40.0070 H   0  0  0  0  0  0  0  0  0  0  0  0
   35.9630   29.2790   39.1890 O   0  0  0  0  0  0  0  0  0  0  0  0
   35.8140   28.4220   41.6990 O   0  0  0  0  0  0  0  0  0  0  0  0
   36.3950   29.5160   40.8060 P   0  0  2  0  0  0  0  0  0  0  0  0
   35.6300   30.9580   41.2830 O   0  0  0  0  0  0  0  0  0  0  0  0
   35.9260   31.7300   40.7530 H   0  0  0  0  0  0  0  0  0  0  0  0
   38.0470   29.6910   41.0170 O   0  0  0  0  0  0  0  0  0  0  0  0
   38.3510   29.4860   42.3460 C   0  0  0  0  0  0  0  0  0  0  0  0
   37.3830   29.1890   42.8390 H   0  0  0  0  0  0  0  0  0  0  0  0
   38.5900   30.4710   42.8400 H   0  0  0  0  0  0  0  0  0  0  0  0
   39.4070   28.5190   42.5750 N   0  0  0  0  0  0  0  0  0  0  0  0
   38.9290   27.4850   43.3990 C   0  0  0  0  0  2  0  0  0  0  0  0
   38.8690   26.1060   42.8290 C   0  0  0  0  0  2  0  0  0  0  0  0
   38.4880   26.1680   41.3710 C   0  0  0  0  0  3  0  0  0  0  0  0
   37.4820   26.5370   41.1850 H   0  0  0  0  0  0  0  0  0  0  0  0
   39.5980   26.9080   40.6890 C   0  0  0  0  0  3  0  0  0  0  0  0
   39.9940   28.1940   41.3380 C   0  0  0  0  0  3  0  0  0  0  0  0
  1  6  1  0  0  0  0
  2  3  1  0  0  0  0
  2  1  1  0  0  0  0
  3  9  1  0  0  0  0
  3  4  1  0  0  0  0
  4  5  1  0  0  0  0
  4 11  1  0  0  0  0
  5  6  1  0  0  0  0
  5 14  1  0  0  0  0
  6 15  1  1  0  0  0
  6 31  1  0  0  0  0
  7  2  1  0  0  0  0
  8  2  1  0  0  0  0
 10  3  1  0  0  0  0
 12  4  1  0  0  0  0
 13  5  1  0  0  0  0
 16  1  1  0  0  0  0
 16 17  1  0  0  0  0
 16 19  1  0  0  0  0
 18 16  1  0  0  0  0
 19 21  1  0  0  0  0
 19 24  1  0  0  0  0
 20 19  1  0  0  0  0
 22 27  1  0  0  0  0
 22 28  1  0  0  0  0
 23 22  2  0  0  0  0
 24 25  2  0  0  0  0
 24 23  1  0  0  0  0
 25 26  1  0  0  0  0
 26 30  1  0  0  0  0
 26 27  2  0  0  0  0
 29 23  1  0  0  0  0
 31 33  1  0  0  0  0
 33 36  1  0  0  0  0
 33 34  1  0  0  0  0
 33 32  2  1  0  0  0
 35 34  1  0  0  0  0
 36 37  1  0  0  0  0
 37 40  1  0  0  0  0
 37 38  1  0  0  0  0
 37 39  1  0  0  0  0
 40 41  1  0  0  0  0
 42 41  1  0  0  0  0
 43 42  1  0  0  0  0
 44 43  1  0  0  0  0
 45 46  2  0  0  0  0
 45 43  1  0  0  0  0
 46 40  1  0  0  0  0
M  END
>  <minimizedAffinity>
-4.96749258

$$$$

 OpenBabel03252509063D

 46 48  0  0  1  0  0  0  0  0999 V2000
   40.5950   30.3560   39.2180 N   0  0  0  0  0  0  0  0  0  0  0  0
   41.7830   30.3940   38.4430 C   0  0  0  0  0  0  0  0  0  0  0  0
   41.7470   31.3560   37.2700 C   0  0  0  0  0  0  0  0  0  0  0  0
   40.9510   32.6010   37.5360 C   0  0  0  0  0  0  0  0  0  0  0  0
   40.4280   32.6530   38.9600 C   0  0  0  0  0  0  0  0  0  0  0  0
   39.6110   31.3040   39.0810 C   0  0  2  0  0  0  0  0  0  0  0  0
   42.6100   30.7720   39.1150 H   0  0  0  0  0  0  0  0  0  0  0  0
   42.1500   29.4440   38.0520 H   0  0  0  0  0  0  0  0  0  0  0  0
   41.2730   30.7960   36.4280 H   0  0  0  0  0  0  0  0  0  0  0  0
   42.7770   31.5780   36.9480 H   0  0  0  0  0  0  0  0  0  0  0  0
   40.0320   32.6490   36.8890 H   0  0  0  0  0  0  0  0  0  0  0  0
   41.5670   33.4760   37.2990 H   0  0  0  0  0  0  0  0  0  0  0  0
   41.2760   32.6120   39.6540 H   0  0  0  0  0  0  0  0  0  0  0  0
   39.7510   33.5010   39.0660 H   0  0  0  0  0  0  0  0  0  0  0  0
   38.9460   31.2720   38.1920 H   0  0  0  0  0  0  0  0  0  0  0  0
   40.2300   29.0400   39.6720 C   0  0  0  0  0  0  0  0  0  0  0  0
   40.3950   28.3240   38.8230 H   0  0  0  0  0  0  0  0  0  0  0  0
   39.1470   29.0230   39.8740 H   0  0  0  0  0  0  0  0  0  0  0  0
   41.0780   28.6930   40.8390 C   0  0  0  0  0  0  0  0  0  0  0  0
   41.2540   29.5630   41.5100 H   0  0  0  0  0  0  0  0  0  0  0  0
   42.0830   28.3670   40.5210 H   0  0  0  0  0  0  0  0  0  0  0  0
   39.3290   26.9310   43.6570 C   0  0  0  0  0  0  0  0  0  0  0  0
   39.9520   27.9290   42.8920 C   0  0  0  0  0  0  0  0  0  0  0  0
   40.4230   27.6260   41.6320 C   0  0  0  0  0  0  0  0  0  0  0  0
   40.2580   26.3770   41.2020 N   0  0  0  0  0  0  0  0  0  0  0  0
   39.6630   25.4200   41.9290 C   0  0  0  0  0  0  0  0  0  0  0  0
   39.1940   25.6730   43.1520 N   0  0  0  0  0  0  0  0  0  0  0  0
   38.9500   27.1480   44.6500 H   0  0  0  0  0  0  0  0  0  0  0  0
   40.0710   28.9300   43.2640 H   0  0  0  0  0  0  0  0  0  0  0  0
   39.5660   24.4240   41.5110 H   0  0  0  0  0  0  0  0  0  0  0  0
   38.9100   31.5290   40.2500 O   0  0  0  0  0  0  0  0  0  0  0  0
   36.8940   31.6550   38.5250 O   0  0  0  0  0  0  0  0  0  0  0  0
   37.2870   31.9170   39.9760 P   0  0  2  0  0  0  0  0  0  0  0  0
   37.1710   33.6000   40.1910 O   0  0  0  0  0  0  0  0  0  0  0  0
   37.4210   33.8780   41.0990 H   0  0  0  0  0  0  0  0  0  0  0  0
   36.2500   31.1660   41.0550 O   0  0  0  0  0  0  0  0  0  0  0  0
   36.7870   29.9490   41.4170 C   0  0  0  0  0  0  0  0  0  0  0  0
   37.0530   30.0430   42.5060 H   0  0  0  0  0  0  0  0  0  0  0  0
   37.7930   29.8140   40.9250 H   0  0  0  0  0  0  0  0  0  0  0  0
   35.9230   28.8140   41.1540 N   0  0  0  0  0  0  0  0  0  0  0  0
   34.9910   29.1510   40.1570 C   0  0  0  0  0  2  0  0  0  0  0  0
   35.0460   28.4050   38.8660 C   0  0  0  0  0  2  0  0  0  0  0  0
   36.4790   28.0990   38.5080 C   0  0  0  0  0  3  0  0  0  0  0  0
   37.0850   28.9760   38.2920 H   0  0  0  0  0  0  0  0  0  0  0  0
   36.9880   27.1970   39.5910 C   0  0  0  0  0  3  0  0  0  0  0  0
   36.7260   27.6690   40.9840 C   0  0  0  0  0  3  0  0  0  0  0  0
  1 16  1  0  0  0  0
  2  7  1  0  0  0  0
  2  1  1  0  0  0  0
  3  4  1  0  0  0  0
  3  2  1  0  0  0  0
  4  5  1  0  0  0  0
  5 14  1  0  0  0  0
  5  6  1  0  0  0  0
  5 13  1  0  0  0  0
  6 15  1  6  0  0  0
  6  1  1  0  0  0  0
  6 31  1  0  0  0  0
  8  2  1  0  0  0  0
  9  3  1  0  0  0  0
 10  3  1  0  0  0  0
 11  4  1  0  0  0  0
 12  4  1  0  0  0  0
 16 18  1  0  0  0  0
 16 19  1  0  0  0  0
 17 16  1  0  0  0  0
 19 20  1  0  0  0  0
 19 24  1  0  0  0  0
 21 19  1  0  0  0  0
 22 28  1  0  0  0  0
 23 29  1  0  0  0  0
 23 22  2  0  0  0  0
 24 23  1  0  0  0  0
 25 24  2  0  0  0  0
 25 26  1  0  0  0  0
 26 27  2  0  0  0  0
 27 22  1  0  0  0  0
 30 26  1  0  0  0  0
 33 32  2  6  0  0  0
 33 34  1  0  0  0  0
 33 31  1  0  0  0  0
 33 36  1  0  0  0  0
 34 35  1  0  0  0  0
 36 37  1  0  0  0  0
 37 38  1  0  0  0  0
 39 37  1  0  0  0  0
 40 37  1  0  0  0  0
 41 40  1  0  0  0  0
 42 41  1  0  0  0  0
 43 42  1  0  0  0  0
 43 45  1  0  0  0  0
 44 43  1  0  0  0  0
 45 46  2  0  0  0  0
 46 40  1  0  0  0  0
M  END
>  <minimizedAffinity>
-4.96369553

$$$$

 OpenBabel03252509063D

 46 48  0  0  1  0  0  0  0  0999 V2000
   38.7960   29.0650   42.2940 N   0  0  0  0  0  0  0  0  0  0  0  0
   39.2230   28.1170   43.2610 C   0  0  0  0  0  0  0  0  0  0  0  0
   38.2040   27.0430   43.5920 C   0  0  0  0  0  0  0  0  0  0  0  0
   37.3590   26.6330   42.4210 C   0  0  0  0  0  0  0  0  0  0  0  0
   37.7750   27.3340   41.1400 C   0  0  0  0  0  0  0  0  0  0  0  0
   37.6730   28.8630   41.5300 C   0  0  2  0  0  0  0  0  0  0  0  0
   40.1080   27.5660   42.8220 H   0  0  0  0  0  0  0  0  0  0  0  0
   39.5800   28.5090   44.2140 H   0  0  0  0  0  0  0  0  0  0  0  0
   37.5440   27.4790   44.3800 H   0  0  0  0  0  0  0  0  0  0  0  0
   38.7160   26.1860   44.0590 H   0  0  0  0  0  0  0  0  0  0  0  0
   36.2810   26.9210   42.5690 H   0  0  0  0  0  0  0  0  0  0  0  0
   37.3970   25.5430   42.3170 H   0  0  0  0  0  0  0  0  0  0  0  0
   38.8250   27.0950   40.9280 H   0  0  0  0  0  0  0  0  0  0  0  0
   37.0550   27.1070   40.3530 H   0  0  0  0  0  0  0  0  0  0  0  0
   36.6720   28.9910   41.9920 H   0  0  0  0  0  0  0  0  0  0  0  0
   39.2150   30.4140   42.5670 C   0  0  0  0  0  0  0  0  0  0  0  0
   39.2500   30.5450   43.6810 H   0  0  0  0  0  0  0  0  0  0  0  0
   38.4360   31.1060   42.2070 H   0  0  0  0  0  0  0  0  0  0  0  0
   40.5520   30.6240   41.9590 C   0  0  0  0  0  0  0  0  0  0  0  0
   40.8600   29.7770   41.3080 H   0  0  0  0  0  0  0  0  0  0  0  0
   41.3360   30.6950   42.7320 H   0  0  0  0  0  0  0  0  0  0  0  0
   39.3290   33.7400   40.2550 C   0  0  0  0  0  0  0  0  0  0  0  0
   39.3630   32.5720   41.0320 C   0  0  0  0  0  0  0  0  0  0  0  0
   40.5360   31.8560   41.1340 C   0  0  0  0  0  0  0  0  0  0  0  0
   41.5960   32.3220   40.4770 N   0  0  0  0  0  0  0  0  0  0  0  0
   41.5700   33.4380   39.7330 C   0  0  0  0  0  0  0  0  0  0  0  0
   40.4530   34.1580   39.6090 N   0  0  0  0  0  0  0  0  0  0  0  0
   38.4170   34.3190   40.1610 H   0  0  0  0  0  0  0  0  0  0  0  0
   38.4910   32.2190   41.5530 H   0  0  0  0  0  0  0  0  0  0  0  0
   42.4740   33.7540   39.2260 H   0  0  0  0  0  0  0  0  0  0  0  0
   37.7530   29.4540   40.2840 O   0  0  0  0  0  0  0  0  0  0  0  0
   36.6560   31.5030   38.9990 O   0  0  0  0  0  0  0  0  0  0  0  0
   36.3420   30.2820   39.8600 P   0  0  2  0  0  0  0  0  0  0  0  0
   35.7080   30.8920   41.3160 O   0  0  0  0  0  0  0  0  0  0  0  0
   35.4850   30.1790   41.9530 H   0  0  0  0  0  0  0  0  0  0  0  0
   35.1950   29.2890   39.1510 O   0  0  0  0  0  0  0  0  0  0  0  0
   35.3430   29.3450   37.7810 C   0  0  0  0  0  0  0  0  0  0  0  0
   35.5640   30.4220   37.5400 H   0  0  0  0  0  0  0  0  0  0  0  0
   34.3450   29.1770   37.2820 H   0  0  0  0  0  0  0  0  0  0  0  0
   36.3470   28.4420   37.2520 N   0  0  0  0  0  0  0  0  0  0  0  0
   35.7470   27.2180   36.9090 C   0  0  0  0  0  2  0  0  0  0  0  0
   35.7570   26.8100   35.4730 C   0  0  0  0  0  2  0  0  0  0  0  0
   35.5900   28.0240   34.5920 C   0  0  0  0  0  3  0  0  0  0  0  0
   34.6240   28.5150   34.6830 H   0  0  0  0  0  0  0  0  0  0  0  0
   36.7930   28.8820   34.8440 C   0  0  0  0  0  3  0  0  0  0  0  0
   37.1030   29.1300   36.2840 C   0  0  0  0  0  3  0  0  0  0  0  0
  1 16  1  0  0  0  0
  1  2  1  0  0  0  0
  2  3  1  0  0  0  0
  2  8  1  0  0  0  0
  3 10  1  0  0  0  0
  3  9  1  0  0  0  0
  4 11  1  0  0  0  0
  4  3  1  0  0  0  0
  5  6  1  0  0  0  0
  5  4  1  0  0  0  0
  6 15  1  1  0  0  0
  6  1  1  0  0  0  0
  7  2  1  0  0  0  0
 12  4  1  0  0  0  0
 13  5  1  0  0  0  0
 14  5  1  0  0  0  0
 16 17  1  0  0  0  0
 18 16  1  0  0  0  0
 19 16  1  0  0  0  0
 19 21  1  0  0  0  0
 20 19  1  0  0  0  0
 22 23  1  0  0  0  0
 23 24  2  0  0  0  0
 23 29  1  0  0  0  0
 24 19  1  0  0  0  0
 25 24  1  0  0  0  0
 26 25  2  0  0  0  0
 27 26  1  0  0  0  0
 27 22  2  0  0  0  0
 28 22  1  0  0  0  0
 30 26  1  0  0  0  0
 31  6  1  0  0  0  0
 33 32  2  6  0  0  0
 33 31  1  0  0  0  0
 33 34  1  0  0  0  0
 34 35  1  0  0  0  0
 36 33  1  0  0  0  0
 37 36  1  0  0  0  0
 38 37  1  0  0  0  0
 39 37  1  0  0  0  0
 40 37  1  0  0  0  0
 41 40  1  0  0  0  0
 42 41  1  0  0  0  0
 43 44  1  0  0  0  0
 43 45  1  0  0  0  0
 43 42  1  0  0  0  0
 45 46  2  0  0  0  0
 46 40  1  0  0  0  0
M  END
>  <minimizedAffinity>
-4.95352411

$$$$
