
 OpenBabel03252505323D

 28 30  0  0  0  0  0  0  0  0999 V2000
   46.5750   34.7650   42.1170 C   0  0  0  0  0  0  0  0  0  0  0  0
   47.9050   35.0830   42.0650 C   0  0  0  0  0  0  0  0  0  0  0  0
   48.6800   34.8840   40.9230 C   0  0  0  0  0  0  0  0  0  0  0  0
   48.1030   34.3490   39.7930 C   0  0  0  0  0  0  0  0  0  0  0  0
   46.7720   34.0390   39.8660 C   0  0  0  0  0  0  0  0  0  0  0  0
   45.9760   34.2250   40.9900 C   0  0  0  0  0  0  0  0  0  0  0  0
   48.4350   35.5120   42.9240 H   0  0  0  0  0  0  0  0  0  0  0  0
   49.7310   35.1340   40.8770 H   0  0  0  0  0  0  0  0  0  0  0  0
   48.6660   34.1790   38.8850 H   0  0  0  0  0  0  0  0  0  0  0  0
   46.3320   33.6170   38.9640 H   0  0  0  0  0  0  0  0  0  0  0  0
   44.4220   36.2550   44.8280 C   0  0  0  0  0  0  0  0  0  0  0  0
   45.0670   36.1360   43.5730 C   0  0  0  0  0  0  0  0  0  0  0  0
   45.8630   35.0100   43.3500 C   0  0  0  0  0  0  0  0  0  0  0  0
   45.9720   34.1060   44.3420 N   0  0  0  0  0  0  0  0  0  0  0  0
   45.3470   34.2400   45.5320 C   0  0  0  0  0  0  0  0  0  0  0  0
   44.5730   35.3200   45.7670 N   0  0  0  0  0  0  0  0  0  0  0  0
   45.4740   33.2730   46.5700 N   0  0  0  0  0  0  0  0  0  0  0  0
   43.8320   37.1430   44.9210 H   0  0  0  0  0  0  0  0  0  0  0  0
   45.0200   36.8150   42.7530 H   0  0  0  0  0  0  0  0  0  0  0  0
   44.9120   32.4970   46.1640 H   0  0  0  0  0  0  0  0  0  0  0  0
   46.0110   33.4090   47.4650 H   0  0  0  0  0  0  0  0  0  0  0  0
   44.5960   33.8880   41.0230 N   0  0  0  0  0  0  0  0  0  0  0  0
   43.4690   34.7030   40.6300 C   0  0  0  0  0  0  0  0  0  0  0  0
   42.3550   33.9480   40.0010 C   0  0  0  0  0  0  0  0  0  0  0  0
   42.7230   32.5950   39.4540 C   0  0  0  0  0  0  0  0  0  0  0  0
   41.7470   32.0260   39.4250 H   0  0  0  0  0  0  0  0  0  0  0  0
   43.6750   31.8110   40.2880 C   0  0  0  0  0  0  0  0  0  0  0  0
   44.1380   32.5970   41.4880 C   0  0  0  0  0  0  0  0  0  0  0  0
  1 13  1  0  0  0  0
  2  1  1  0  0  0  0
  2  7  1  0  0  0  0
  3  2  2  0  0  0  0
  4  5  2  0  0  0  0
  4  3  1  0  0  0  0
  5  6  1  0  0  0  0
  6 22  1  0  0  0  0
  6  1  2  0  0  0  0
  8  3  1  0  0  0  0
  9  4  1  0  0  0  0
 10  5  1  0  0  0  0
 11 18  1  0  0  0  0
 11 16  1  0  0  0  0
 12 11  2  0  0  0  0
 13 12  1  0  0  0  0
 13 14  2  0  0  0  0
 14 15  1  0  0  0  0
 15 16  2  0  0  0  0
 15 17  1  0  0  0  0
 17 21  1  0  0  0  0
 19 12  1  0  0  0  0
 20 17  1  0  0  0  0
 22 28  1  0  0  0  0
 23 22  1  0  0  0  0
 24 23  1  0  0  0  0
 25 24  1  0  0  0  0
 25 27  1  0  0  0  0
 26 25  1  0  0  0  0
 27 28  1  0  0  0  0
M  END
>  <minimizedAffinity>
-5.92743349

>  <minimizedRMSD>
1.53216112

$$$$
