
 OpenBabel03252505563D

 34 36  0  0  0  0  0  0  0  0999 V2000
   44.9070   35.0580   45.1900 C   0  0  0  0  0  0  0  0  0  0  0  0
   45.5960   34.7220   44.0300 C   0  0  0  0  0  0  0  0  0  0  0  0
   46.3980   33.5780   44.0860 C   0  0  0  0  0  0  0  0  0  0  0  0
   46.4740   32.8660   45.2250 N   0  0  0  0  0  0  0  0  0  0  0  0
   45.7760   33.2450   46.3290 C   0  0  0  0  0  0  0  0  0  0  0  0
   45.0050   34.3260   46.3070 N   0  0  0  0  0  0  0  0  0  0  0  0
   44.2890   35.9350   45.1540 H   0  0  0  0  0  0  0  0  0  0  0  0
   47.1410   33.1050   42.9700 N   0  0  0  0  0  0  0  0  0  0  0  0
   46.7650   32.3400   41.7970 C   0  0  0  0  0  2  0  0  0  0  0  0
   47.5250   32.6720   40.5620 C   0  0  0  0  0  2  0  0  0  0  0  0
   48.9200   33.1500   40.7740 C   0  0  0  0  0  3  0  0  0  0  0  0
   49.6290   32.6690   40.0650 H   0  0  0  0  0  0  0  0  0  0  0  0
   49.4370   32.9020   42.1580 C   0  0  0  0  0  2  0  0  0  0  0  0
   48.5230   33.5560   43.1940 C   0  0  0  0  0  2  0  0  0  0  0  0
   45.4620   35.5690   42.8120 C   0  0  0  0  0  0  0  0  0  0  0  0
   44.7880   36.6950   43.2690 F   0  0  0  0  0  0  0  0  0  0  0  0
   44.6290   34.8840   41.9380 F   0  0  0  0  0  0  0  0  0  0  0  0
   46.6770   35.8640   42.3140 F   0  0  0  0  0  0  0  0  0  0  0  0
   45.8320   32.5360   47.5100 O   0  0  0  0  0  0  0  0  0  0  0  0
   45.3740   31.2010   47.5750 C   0  0  0  0  0  0  0  0  0  0  0  0
   44.6030   31.0330   48.3500 H   0  0  0  0  0  0  0  0  0  0  0  0
   44.8810   30.9480   46.6110 H   0  0  0  0  0  0  0  0  0  0  0  0
   46.5550   30.3310   47.7150 C   0  0  0  0  0  0  0  0  0  0  0  0
   46.8000   29.0690   47.1970 C   0  0  0  0  0  0  0  0  0  0  0  0
   47.9930   28.4840   47.4850 C   0  0  0  0  0  0  0  0  0  0  0  0
   48.9180   29.0760   48.2370 N   0  0  0  0  0  0  0  0  0  0  0  0
   48.6700   30.2980   48.7340 C   0  0  0  0  0  0  0  0  0  0  0  0
   47.4900   30.9400   48.4810 N   0  0  0  0  0  0  0  0  0  0  0  0
   45.9810   28.7070   46.6130 H   0  0  0  0  0  0  0  0  0  0  0  0
   48.1430   27.4980   47.0600 H   0  0  0  0  0  0  0  0  0  0  0  0
   49.7560   30.8770   49.5580 C   0  0  0  0  0  0  0  0  0  0  0  0
   49.7220   32.2460   49.5430 F   0  0  0  0  0  0  0  0  0  0  0  0
   51.0020   30.4560   49.0740 F   0  0  0  0  0  0  0  0  0  0  0  0
   49.6770   30.4630   50.8720 F   0  0  0  0  0  0  0  0  0  0  0  0
  1  6  1  0  0  0  0
  2  3  1  0  0  0  0
  2  1  2  0  0  0  0
  3  4  2  0  0  0  0
  4  5  1  0  0  0  0
  5 19  1  0  0  0  0
  6  5  2  0  0  0  0
  7  1  1  0  0  0  0
  8 14  1  0  0  0  0
  8  3  1  0  0  0  0
  9  8  1  0  0  0  0
 10 11  1  0  0  0  0
 10  9  1  0  0  0  0
 11 13  1  0  0  0  0
 12 11  1  0  0  0  0
 13 14  1  0  0  0  0
 15 16  1  0  0  0  0
 15  2  1  0  0  0  0
 17 15  1  0  0  0  0
 18 15  1  0  0  0  0
 19 20  1  0  0  0  0
 20 23  1  0  0  0  0
 20 21  1  0  0  0  0
 22 20  1  0  0  0  0
 23 28  1  0  0  0  0
 24 25  1  0  0  0  0
 24 23  2  0  0  0  0
 25 26  2  0  0  0  0
 26 27  1  0  0  0  0
 27 31  1  0  0  0  0
 28 27  2  0  0  0  0
 29 24  1  0  0  0  0
 30 25  1  0  0  0  0
 31 34  1  0  0  0  0
 32 31  1  0  0  0  0
 33 31  1  0  0  0  0
M  END
>  <minimizedAffinity>
-5.83168411

>  <minimizedRMSD>
0.519722104

$$$$
