
 OpenBabel03252508203D

 32 34  0  0  0  0  0  0  0  0999 V2000
   45.5190   34.1720   40.8030 C   0  0  0  0  0  0  0  0  0  0  0  0
   46.6180   34.5500   41.5580 C   0  0  0  0  0  0  0  0  0  0  0  0
   46.5940   35.3200   42.6970 C   0  0  0  0  0  0  0  0  0  0  0  0
   45.3120   35.7440   43.1010 C   0  0  0  0  0  0  0  0  0  0  0  0
   44.1920   35.3930   42.3800 C   0  0  0  0  0  0  0  0  0  0  0  0
   44.2760   34.6160   41.2420 C   0  0  0  0  0  0  0  0  0  0  0  0
   47.5690   34.1820   41.1800 H   0  0  0  0  0  0  0  0  0  0  0  0
   47.5120   35.5610   43.2180 H   0  0  0  0  0  0  0  0  0  0  0  0
   45.2840   36.3530   44.0000 H   0  0  0  0  0  0  0  0  0  0  0  0
   43.2440   35.7690   42.7720 H   0  0  0  0  0  0  0  0  0  0  0  0
   43.0530   34.3410   40.6170 N   0  0  0  0  0  0  0  0  0  0  0  0
   42.4290   35.2650   39.6870 C   0  0  0  0  0  2  0  0  0  0  0  0
   42.1400   34.5840   38.3430 C   0  0  0  0  0  2  0  0  0  0  0  0
   41.2270   33.4250   38.6010 C   0  0  0  0  0  3  0  0  0  0  0  0
   40.2540   33.7510   39.0390 H   0  0  0  0  0  0  0  0  0  0  0  0
   41.8780   32.4650   39.5510 C   0  0  0  0  0  2  0  0  0  0  0  0
   42.3180   33.1310   40.8400 C   0  0  0  0  0  2  0  0  0  0  0  0
   45.5730   33.3500   39.5910 C   0  0  0  0  0  0  0  0  0  0  0  0
   44.8760   33.6910   38.7990 H   0  0  0  0  0  0  0  0  0  0  0  0
   45.4560   32.2680   39.8470 H   0  0  0  0  0  0  0  0  0  0  0  0
   46.9640   33.4350   38.9530 C   0  0  0  0  0  0  0  0  0  0  0  0
   47.6170   32.7460   39.5060 H   0  0  0  0  0  0  0  0  0  0  0  0
   47.3420   34.4600   39.0490 H   0  0  0  0  0  0  0  0  0  0  0  0
   45.4230   32.4260   35.6720 C   0  0  0  0  0  0  0  0  0  0  0  0
   45.5830   32.8600   37.0080 C   0  0  0  0  0  0  0  0  0  0  0  0
   46.8480   32.9780   37.5540 C   0  0  0  0  0  0  0  0  0  0  0  0
   47.8870   32.6530   36.7310 N   0  0  0  0  0  0  0  0  0  0  0  0
   47.7240   32.2460   35.4780 C   0  0  0  0  0  0  0  0  0  0  0  0
   46.5040   32.1270   34.9320 N   0  0  0  0  0  0  0  0  0  0  0  0
   44.3830   32.3650   35.3280 H   0  0  0  0  0  0  0  0  0  0  0  0
   44.7100   33.1000   37.5970 H   0  0  0  0  0  0  0  0  0  0  0  0
   48.6180   32.0140   34.9140 H   0  0  0  0  0  0  0  0  0  0  0  0
  1  6  2  0  0  0  0
  1  2  1  0  0  0  0
  2  3  2  0  0  0  0
  3  4  1  0  0  0  0
  3  8  1  0  0  0  0
  4  9  1  0  0  0  0
  5 10  1  0  0  0  0
  5  4  2  0  0  0  0
  6  5  1  0  0  0  0
  7  2  1  0  0  0  0
 11 17  1  0  0  0  0
 11  6  1  0  0  0  0
 12 11  1  0  0  0  0
 13 14  1  0  0  0  0
 13 12  1  0  0  0  0
 14 15  1  0  0  0  0
 14 16  1  0  0  0  0
 16 17  1  0  0  0  0
 18 20  1  0  0  0  0
 18  1  1  0  0  0  0
 19 18  1  0  0  0  0
 21 23  1  0  0  0  0
 21 22  1  0  0  0  0
 21 18  1  0  0  0  0
 24 25  1  0  0  0  0
 25 26  2  0  0  0  0
 25 31  1  0  0  0  0
 26 21  1  0  0  0  0
 27 26  1  0  0  0  0
 28 27  2  0  0  0  0
 29 28  1  0  0  0  0
 29 24  2  0  0  0  0
 30 24  1  0  0  0  0
 32 28  1  0  0  0  0
M  END
>  <minimizedAffinity>
-4.50656509

>  <minimizedRMSD>
6.09015322

$$$$
