
 OpenBabel03252507533D

 36 39  0  0  1  0  0  0  0  0999 V2000
   37.7060   26.5510   41.6800 C   0  0  2  0  0  0  0  0  0  0  0  0
   36.9270   26.7590   42.9560 C   0  0  0  0  0  0  0  0  0  0  0  0
   37.2540   28.2380   43.1940 C   0  0  0  0  0  0  0  0  0  0  0  0
   37.3600   28.8420   41.8120 C   0  0  1  0  0  0  0  0  0  0  0  0
   37.1350   27.7040   40.8690 C   0  0  0  0  0  0  0  0  0  0  0  0
   38.7740   26.6570   41.8470 H   0  0  0  0  0  0  0  0  0  0  0  0
   35.8580   26.6480   42.7560 H   0  0  0  0  0  0  0  0  0  0  0  0
   37.3310   26.1430   43.7570 H   0  0  0  0  0  0  0  0  0  0  0  0
   38.1610   28.3510   43.7990 H   0  0  0  0  0  0  0  0  0  0  0  0
   36.3920   28.6900   43.7210 H   0  0  0  0  0  0  0  0  0  0  0  0
   38.3890   29.1790   41.7140 H   0  0  0  0  0  0  0  0  0  0  0  0
   37.5780   27.7930   39.8820 H   0  0  0  0  0  0  0  0  0  0  0  0
   36.0720   27.3420   40.8530 H   0  0  0  0  0  0  0  0  0  0  0  0
   37.7350   22.9060   40.7000 C   0  0  0  0  0  0  0  0  0  0  0  0
   38.0750   24.0740   41.3960 C   0  0  0  0  0  0  0  0  0  0  0  0
   37.4120   25.2470   41.0250 C   0  0  0  0  0  0  0  0  0  0  0  0
   36.4630   25.2250   40.0060 N   0  0  0  0  0  0  0  0  0  0  0  0
   36.1820   24.0600   39.3750 C   0  0  0  0  0  0  0  0  0  0  0  0
   36.8140   22.9170   39.7220 N   0  0  0  0  0  0  0  0  0  0  0  0
   38.3030   22.0580   41.0650 H   0  0  0  0  0  0  0  0  0  0  0  0
   38.8120   24.1150   42.1940 H   0  0  0  0  0  0  0  0  0  0  0  0
   35.4490   24.0140   38.5800 H   0  0  0  0  0  0  0  0  0  0  0  0
   36.2960   29.8530   41.5030 C   0  0  2  0  0  0  0  0  0  0  0  0
   35.7150   29.8680   40.1760 C   0  0  0  0  0  0  0  0  0  0  0  0
   36.4900   31.0570   40.7300 C   0  0  2  0  0  0  0  0  0  0  0  0
   35.5790   29.8950   42.3540 H   0  0  0  0  0  0  0  0  0  0  0  0
   36.0770   29.6720   39.1820 H   0  0  0  0  0  0  0  0  0  0  0  0
   34.5960   30.0600   40.1030 H   0  0  0  0  0  0  0  0  0  0  0  0
   35.8880   31.9670   41.0290 H   0  0  0  0  0  0  0  0  0  0  0  0
   37.7310   31.4680   40.1540 N   0  0  0  0  0  0  0  0  0  0  0  0
   38.7620   31.8770   41.0340 C   0  0  0  0  0  2  0  0  0  0  0  0
   39.6200   32.8910   40.2990 C   0  0  0  0  0  2  0  0  0  0  0  0
   38.8670   34.1610   40.0460 C   0  0  0  0  0  3  0  0  0  0  0  0
   38.9640   34.8850   40.8740 H   0  0  0  0  0  0  0  0  0  0  0  0
   37.4490   33.8550   39.6450 C   0  0  0  0  0  2  0  0  0  0  0  0
   37.4640   32.4240   39.1250 C   0  0  0  0  0  2  0  0  0  0  0  0
  1  6  1  1  0  0  0
  1  2  1  0  0  0  0
  2  3  1  0  0  0  0
  2  8  1  0  0  0  0
  3 10  1  0  0  0  0
  3  9  1  0  0  0  0
  4 11  1  6  0  0  0
  4  3  1  0  0  0  0
  5  1  1  0  0  0  0
  5  4  1  0  0  0  0
  7  2  1  0  0  0  0
 12  5  1  0  0  0  0
 13  5  1  0  0  0  0
 14 20  1  0  0  0  0
 14 15  1  0  0  0  0
 15 21  1  0  0  0  0
 16 15  2  0  0  0  0
 16  1  1  0  0  0  0
 17 16  1  0  0  0  0
 18 19  1  0  0  0  0
 18 17  2  0  0  0  0
 19 14  2  0  0  0  0
 22 18  1  0  0  0  0
 23  4  1  0  0  0  0
 23 26  1  1  0  0  0
 24 25  1  0  0  0  0
 24 23  1  0  0  0  0
 25 29  1  1  0  0  0
 25 23  1  0  0  0  0
 27 24  1  0  0  0  0
 28 24  1  0  0  0  0
 30 25  1  0  0  0  0
 30 31  1  0  0  0  0
 32 31  1  0  0  0  0
 33 32  1  0  0  0  0
 33 34  1  0  0  0  0
 35 33  1  0  0  0  0
 36 35  1  0  0  0  0
 36 30  1  0  0  0  0
M  END
>  <minimizedAffinity>
-5.47366142

$$$$

 OpenBabel03252507533D

 36 39  0  0  1  0  0  0  0  0999 V2000
   37.4070   30.2230   40.0470 C   0  0  2  0  0  0  0  0  0  0  0  0
   35.9010   30.1210   40.0700 C   0  0  0  0  0  0  0  0  0  0  0  0
   35.7700   28.6040   40.2530 C   0  0  0  0  0  0  0  0  0  0  0  0
   36.9520   28.2100   41.1090 C   0  0  1  0  0  0  0  0  0  0  0  0
   37.7090   29.4780   41.3390 C   0  0  0  0  0  0  0  0  0  0  0  0
   37.8250   29.7220   39.1780 H   0  0  0  0  0  0  0  0  0  0  0  0
   35.5110   30.6310   40.9540 H   0  0  0  0  0  0  0  0  0  0  0  0
   35.4810   30.4300   39.1150 H   0  0  0  0  0  0  0  0  0  0  0  0
   35.7310   28.0900   39.2860 H   0  0  0  0  0  0  0  0  0  0  0  0
   34.8360   28.4160   40.8170 H   0  0  0  0  0  0  0  0  0  0  0  0
   37.5560   27.5490   40.4940 H   0  0  0  0  0  0  0  0  0  0  0  0
   38.7720   29.3830   41.5380 H   0  0  0  0  0  0  0  0  0  0  0  0
   37.1850   30.1920   42.0300 H   0  0  0  0  0  0  0  0  0  0  0  0
   37.7000   33.9730   39.7360 C   0  0  0  0  0  0  0  0  0  0  0  0
   37.1350   32.6950   39.6360 C   0  0  0  0  0  0  0  0  0  0  0  0
   37.8970   31.6270   40.1190 C   0  0  0  0  0  0  0  0  0  0  0  0
   39.1550   31.8550   40.6680 N   0  0  0  0  0  0  0  0  0  0  0  0
   39.6410   33.1170   40.7340 C   0  0  0  0  0  0  0  0  0  0  0  0
   38.9180   34.1610   40.2720 N   0  0  0  0  0  0  0  0  0  0  0  0
   37.0300   34.7260   39.3360 H   0  0  0  0  0  0  0  0  0  0  0  0
   36.1550   32.4930   39.2120 H   0  0  0  0  0  0  0  0  0  0  0  0
   40.6170   33.3230   41.1560 H   0  0  0  0  0  0  0  0  0  0  0  0
   36.5790   27.6990   42.4690 C   0  0  2  0  0  0  0  0  0  0  0  0
   37.5380   27.8250   43.5470 C   0  0  0  0  0  0  0  0  0  0  0  0
   37.0530   26.4680   43.0550 C   0  0  2  0  0  0  0  0  0  0  0  0
   35.5360   28.0140   42.7010 H   0  0  0  0  0  0  0  0  0  0  0  0
   38.6100   27.7840   43.6240 H   0  0  0  0  0  0  0  0  0  0  0  0
   37.1310   28.0990   44.5730 H   0  0  0  0  0  0  0  0  0  0  0  0
   36.3370   25.9040   43.7270 H   0  0  0  0  0  0  0  0  0  0  0  0
   37.9410   25.5470   42.4180 N   0  0  0  0  0  0  0  0  0  0  0  0
   38.7500   26.0350   41.3640 C   0  0  0  0  0  2  0  0  0  0  0  0
   39.0180   24.8800   40.4160 C   0  0  0  0  0  2  0  0  0  0  0  0
   37.7680   24.4510   39.7120 C   0  0  0  0  0  3  0  0  0  0  0  0
   37.5990   25.0040   38.7710 H   0  0  0  0  0  0  0  0  0  0  0  0
   36.6030   24.4660   40.6640 C   0  0  0  0  0  2  0  0  0  0  0  0
   37.2050   24.3750   42.0600 C   0  0  0  0  0  2  0  0  0  0  0  0
  1  6  1  6  0  0  0
  1  2  1  0  0  0  0
  1 16  1  0  0  0  0
  1  5  1  0  0  0  0
  2  3  1  0  0  0  0
  2  7  1  0  0  0  0
  3 10  1  0  0  0  0
  3  4  1  0  0  0  0
  4 11  1  6  0  0  0
  4  5  1  0  0  0  0
  4 23  1  0  0  0  0
  5 12  1  0  0  0  0
  5 13  1  0  0  0  0
  8  2  1  0  0  0  0
  9  3  1  0  0  0  0
 14 19  1  0  0  0  0
 15 14  2  0  0  0  0
 15 16  1  0  0  0  0
 16 17  2  0  0  0  0
 17 18  1  0  0  0  0
 18 22  1  0  0  0  0
 19 18  2  0  0  0  0
 20 14  1  0  0  0  0
 21 15  1  0  0  0  0
 23 26  1  1  0  0  0
 23 25  1  0  0  0  0
 23 24  1  0  0  0  0
 24 27  1  0  0  0  0
 24 28  1  0  0  0  0
 25 24  1  0  0  0  0
 25 29  1  1  0  0  0
 30 25  1  0  0  0  0
 31 30  1  0  0  0  0
 32 31  1  0  0  0  0
 33 32  1  0  0  0  0
 33 35  1  0  0  0  0
 34 33  1  0  0  0  0
 35 36  1  0  0  0  0
 36 30  1  0  0  0  0
M  END
>  <minimizedAffinity>
-5.30111933

$$$$

 OpenBabel03252507533D

 36 39  0  0  1  0  0  0  0  0999 V2000
   36.5690   30.8180   39.5770 C   0  0  2  0  0  0  0  0  0  0  0  0
   36.0460   30.0300   40.7540 C   0  0  0  0  0  0  0  0  0  0  0  0
   35.3620   28.8900   39.9890 C   0  0  0  0  0  0  0  0  0  0  0  0
   36.2180   28.6740   38.7630 C   0  0  1  0  0  0  0  0  0  0  0  0
   37.3030   29.6980   38.8560 C   0  0  0  0  0  0  0  0  0  0  0  0
   35.7560   31.2260   38.9820 H   0  0  0  0  0  0  0  0  0  0  0  0
   36.8840   29.6320   41.3320 H   0  0  0  0  0  0  0  0  0  0  0  0
   35.3140   30.6120   41.3110 H   0  0  0  0  0  0  0  0  0  0  0  0
   34.3180   29.1340   39.7640 H   0  0  0  0  0  0  0  0  0  0  0  0
   35.4080   27.9860   40.6260 H   0  0  0  0  0  0  0  0  0  0  0  0
   35.5850   28.9130   37.9130 H   0  0  0  0  0  0  0  0  0  0  0  0
   37.7560   30.0170   37.9220 H   0  0  0  0  0  0  0  0  0  0  0  0
   38.0500   29.4840   39.6670 H   0  0  0  0  0  0  0  0  0  0  0  0
   38.2690   34.1610   40.0010 C   0  0  0  0  0  0  0  0  0  0  0  0
   37.3100   33.2280   39.5880 C   0  0  0  0  0  0  0  0  0  0  0  0
   37.5110   31.8990   39.9740 C   0  0  0  0  0  0  0  0  0  0  0  0
   38.6260   31.5510   40.7330 N   0  0  0  0  0  0  0  0  0  0  0  0
   39.5150   32.5050   41.0980 C   0  0  0  0  0  0  0  0  0  0  0  0
   39.3340   33.7940   40.7340 N   0  0  0  0  0  0  0  0  0  0  0  0
   38.0180   35.1560   39.6510 H   0  0  0  0  0  0  0  0  0  0  0  0
   36.4330   33.4770   38.9960 H   0  0  0  0  0  0  0  0  0  0  0  0
   40.3900   32.2620   41.6880 H   0  0  0  0  0  0  0  0  0  0  0  0
   36.9090   27.3430   38.7260 C   0  0  2  0  0  0  0  0  0  0  0  0
   36.2520   26.2010   39.3300 C   0  0  0  0  0  0  0  0  0  0  0  0
   37.5880   26.7250   39.8400 C   0  0  2  0  0  0  0  0  0  0  0  0
   37.3340   27.1840   37.7090 H   0  0  0  0  0  0  0  0  0  0  0  0
   35.6100   26.0510   40.1790 H   0  0  0  0  0  0  0  0  0  0  0  0
   36.3420   25.2050   38.7860 H   0  0  0  0  0  0  0  0  0  0  0  0
   38.5050   26.1040   39.6080 H   0  0  0  0  0  0  0  0  0  0  0  0
   37.7130   27.2990   41.1420 N   0  0  0  0  0  0  0  0  0  0  0  0
   38.9160   27.9780   41.4510 C   0  0  0  0  0  2  0  0  0  0  0  0
   39.1450   27.8530   42.9460 C   0  0  0  0  0  2  0  0  0  0  0  0
   39.4450   26.4390   43.3370 C   0  0  0  0  0  3  0  0  0  0  0  0
   40.5230   26.2050   43.2920 H   0  0  0  0  0  0  0  0  0  0  0  0
   38.5660   25.4900   42.5680 C   0  0  0  0  0  2  0  0  0  0  0  0
   37.3660   26.3090   42.1130 C   0  0  0  0  0  2  0  0  0  0  0  0
  1  6  1  6  0  0  0
  1 16  1  0  0  0  0
  1  2  1  0  0  0  0
  2  8  1  0  0  0  0
  2  7  1  0  0  0  0
  3 10  1  0  0  0  0
  3  2  1  0  0  0  0
  4 11  1  6  0  0  0
  4  5  1  0  0  0  0
  4  3  1  0  0  0  0
  5  1  1  0  0  0  0
  5 13  1  0  0  0  0
  9  3  1  0  0  0  0
 12  5  1  0  0  0  0
 14 19  1  0  0  0  0
 15 16  1  0  0  0  0
 15 14  2  0  0  0  0
 16 17  2  0  0  0  0
 17 18  1  0  0  0  0
 18 22  1  0  0  0  0
 19 18  2  0  0  0  0
 20 14  1  0  0  0  0
 21 15  1  0  0  0  0
 23 26  1  6  0  0  0
 23  4  1  0  0  0  0
 23 24  1  0  0  0  0
 23 25  1  0  0  0  0
 24 25  1  0  0  0  0
 24 27  1  0  0  0  0
 25 29  1  6  0  0  0
 25 30  1  0  0  0  0
 28 24  1  0  0  0  0
 30 31  1  0  0  0  0
 30 36  1  0  0  0  0
 31 32  1  0  0  0  0
 32 33  1  0  0  0  0
 34 33  1  0  0  0  0
 35 33  1  0  0  0  0
 36 35  1  0  0  0  0
M  END
>  <minimizedAffinity>
-5.21612024

$$$$

 OpenBabel03252507533D

 36 39  0  0  1  0  0  0  0  0999 V2000
   38.3470   31.5670   39.4840 C   0  0  2  0  0  0  0  0  0  0  0  0
   37.2890   32.2640   40.3050 C   0  0  0  0  0  0  0  0  0  0  0  0
   36.3560   31.0720   40.5480 C   0  0  0  0  0  0  0  0  0  0  0  0
   37.2710   29.8730   40.6490 C   0  0  1  0  0  0  0  0  0  0  0  0
   38.6480   30.4110   40.4260 C   0  0  0  0  0  0  0  0  0  0  0  0
   37.9490   31.2260   38.5320 H   0  0  0  0  0  0  0  0  0  0  0  0
   37.7180   32.5920   41.2550 H   0  0  0  0  0  0  0  0  0  0  0  0
   36.7880   33.0290   39.7150 H   0  0  0  0  0  0  0  0  0  0  0  0
   35.6030   30.9890   39.7550 H   0  0  0  0  0  0  0  0  0  0  0  0
   35.8580   31.2300   41.5230 H   0  0  0  0  0  0  0  0  0  0  0  0
   37.0080   29.2280   39.8140 H   0  0  0  0  0  0  0  0  0  0  0  0
   39.3850   29.7190   40.0310 H   0  0  0  0  0  0  0  0  0  0  0  0
   39.0280   31.0320   41.2820 H   0  0  0  0  0  0  0  0  0  0  0  0
   41.1620   34.0420   39.9280 C   0  0  0  0  0  0  0  0  0  0  0  0
   40.0230   33.2900   40.2430 C   0  0  0  0  0  0  0  0  0  0  0  0
   39.5600   32.4020   39.2680 C   0  0  0  0  0  0  0  0  0  0  0  0
   40.2220   32.2940   38.0480 N   0  0  0  0  0  0  0  0  0  0  0  0
   41.3180   33.0510   37.8090 C   0  0  0  0  0  0  0  0  0  0  0  0
   41.7790   33.9140   38.7410 N   0  0  0  0  0  0  0  0  0  0  0  0
   41.4360   34.6940   40.7500 H   0  0  0  0  0  0  0  0  0  0  0  0
   39.4900   33.3580   41.1890 H   0  0  0  0  0  0  0  0  0  0  0  0
   41.8520   32.9870   36.8680 H   0  0  0  0  0  0  0  0  0  0  0  0
   37.2920   29.2330   42.0050 C   0  0  2  0  0  0  0  0  0  0  0  0
   38.5720   28.9110   42.6030 C   0  0  0  0  0  0  0  0  0  0  0  0
   37.5480   27.8350   42.2630 C   0  0  2  0  0  0  0  0  0  0  0  0
   36.5590   29.7530   42.6630 H   0  0  0  0  0  0  0  0  0  0  0  0
   39.5270   28.5870   42.2330 H   0  0  0  0  0  0  0  0  0  0  0  0
   38.6790   29.0870   43.7220 H   0  0  0  0  0  0  0  0  0  0  0  0
   36.9980   27.3580   43.1290 H   0  0  0  0  0  0  0  0  0  0  0  0
   37.8100   26.8530   41.2590 N   0  0  0  0  0  0  0  0  0  0  0  0
   36.8230   26.6480   40.2640 C   0  0  0  0  0  2  0  0  0  0  0  0
   36.9230   25.2050   39.8060 C   0  0  0  0  0  2  0  0  0  0  0  0
   36.5110   24.2580   40.8900 C   0  0  0  0  0  3  0  0  0  0  0  0
   35.4280   24.0430   40.8780 H   0  0  0  0  0  0  0  0  0  0  0  0
   37.0410   24.7260   42.2190 C   0  0  0  0  0  2  0  0  0  0  0  0
   38.2150   25.6410   41.8990 C   0  0  0  0  0  2  0  0  0  0  0  0
  1  6  1  6  0  0  0
  1  2  1  0  0  0  0
  1  5  1  0  0  0  0
  2  3  1  0  0  0  0
  2  7  1  0  0  0  0
  3  4  1  0  0  0  0
  3 10  1  0  0  0  0
  4 11  1  6  0  0  0
  4 23  1  0  0  0  0
  5  4  1  0  0  0  0
  5 13  1  0  0  0  0
  8  2  1  0  0  0  0
  9  3  1  0  0  0  0
 12  5  1  0  0  0  0
 14 15  1  0  0  0  0
 14 20  1  0  0  0  0
 15 21  1  0  0  0  0
 16  1  1  0  0  0  0
 16 15  2  0  0  0  0
 17 16  1  0  0  0  0
 18 17  2  0  0  0  0
 18 19  1  0  0  0  0
 19 14  2  0  0  0  0
 22 18  1  0  0  0  0
 23 25  1  0  0  0  0
 23 24  1  0  0  0  0
 23 26  1  1  0  0  0
 24 28  1  0  0  0  0
 25 24  1  0  0  0  0
 25 29  1  1  0  0  0
 27 24  1  0  0  0  0
 30 36  1  0  0  0  0
 30 25  1  0  0  0  0
 31 30  1  0  0  0  0
 32 31  1  0  0  0  0
 32 33  1  0  0  0  0
 33 35  1  0  0  0  0
 34 33  1  0  0  0  0
 36 35  1  0  0  0  0
M  END
>  <minimizedAffinity>
-5.19961834

$$$$

 OpenBabel03252507533D

 36 39  0  0  1  0  0  0  0  0999 V2000
   38.1700   25.7470   42.6660 C   0  0  2  0  0  0  0  0  0  0  0  0
   37.0740   26.7790   42.7870 C   0  0  0  0  0  0  0  0  0  0  0  0
   37.8300   27.8300   43.6090 C   0  0  0  0  0  0  0  0  0  0  0  0
   39.2630   27.7390   43.1370 C   0  0  1  0  0  0  0  0  0  0  0  0
   39.2730   26.6420   42.1210 C   0  0  0  0  0  0  0  0  0  0  0  0
   38.4250   25.3250   43.6340 H   0  0  0  0  0  0  0  0  0  0  0  0
   36.8420   27.1850   41.8000 H   0  0  0  0  0  0  0  0  0  0  0  0
   36.2330   26.3810   43.3520 H   0  0  0  0  0  0  0  0  0  0  0  0
   37.7050   27.6570   44.6840 H   0  0  0  0  0  0  0  0  0  0  0  0
   37.4220   28.8220   43.3380 H   0  0  0  0  0  0  0  0  0  0  0  0
   39.8400   27.4190   44.0020 H   0  0  0  0  0  0  0  0  0  0  0  0
   40.2130   26.1200   41.9750 H   0  0  0  0  0  0  0  0  0  0  0  0
   38.7580   26.9180   41.1620 H   0  0  0  0  0  0  0  0  0  0  0  0
   38.3900   22.7600   40.3680 C   0  0  0  0  0  0  0  0  0  0  0  0
   38.8000   23.7260   41.2970 C   0  0  0  0  0  0  0  0  0  0  0  0
   37.8430   24.6620   41.7000 C   0  0  0  0  0  0  0  0  0  0  0  0
   36.5510   24.6120   41.1840 N   0  0  0  0  0  0  0  0  0  0  0  0
   36.2220   23.6500   40.2890 C   0  0  0  0  0  0  0  0  0  0  0  0
   37.1350   22.7370   39.8890 N   0  0  0  0  0  0  0  0  0  0  0  0
   39.2040   22.0860   40.1250 H   0  0  0  0  0  0  0  0  0  0  0  0
   39.8020   23.7850   41.7130 H   0  0  0  0  0  0  0  0  0  0  0  0
   35.2250   23.5880   39.8720 H   0  0  0  0  0  0  0  0  0  0  0  0
   39.7520   28.9650   42.4260 C   0  0  2  0  0  0  0  0  0  0  0  0
   39.2040   30.2530   42.8020 C   0  0  0  0  0  0  0  0  0  0  0  0
   39.0270   29.6800   41.4020 C   0  0  2  0  0  0  0  0  0  0  0  0
   40.8600   28.9120   42.3330 H   0  0  0  0  0  0  0  0  0  0  0  0
   38.2450   30.6060   43.1390 H   0  0  0  0  0  0  0  0  0  0  0  0
   39.9250   31.1320   42.8370 H   0  0  0  0  0  0  0  0  0  0  0  0
   39.6330   30.1550   40.5730 H   0  0  0  0  0  0  0  0  0  0  0  0
   37.7370   29.3140   40.9070 N   0  0  0  0  0  0  0  0  0  0  0  0
   37.6800   28.5770   39.7000 C   0  0  0  0  0  2  0  0  0  0  0  0
   36.3700   28.9180   39.0130 C   0  0  0  0  0  2  0  0  0  0  0  0
   36.3540   30.3390   38.5420 C   0  0  0  0  0  3  0  0  0  0  0  0
   36.7600   30.4530   37.5220 H   0  0  0  0  0  0  0  0  0  0  0  0
   36.9890   31.2350   39.5720 C   0  0  0  0  0  2  0  0  0  0  0  0
   36.9070   30.4780   40.8900 C   0  0  0  0  0  2  0  0  0  0  0  0
  1  2  1  0  0  0  0
  1  6  1  1  0  0  0
  2  8  1  0  0  0  0
  2  3  1  0  0  0  0
  3  9  1  0  0  0  0
  4  3  1  0  0  0  0
  4 11  1  1  0  0  0
  5  1  1  0  0  0  0
  5  4  1  0  0  0  0
  7  2  1  0  0  0  0
 10  3  1  0  0  0  0
 12  5  1  0  0  0  0
 13  5  1  0  0  0  0
 14 15  1  0  0  0  0
 15 16  2  0  0  0  0
 15 21  1  0  0  0  0
 16  1  1  0  0  0  0
 17 16  1  0  0  0  0
 18 17  2  0  0  0  0
 19 18  1  0  0  0  0
 19 14  2  0  0  0  0
 20 14  1  0  0  0  0
 22 18  1  0  0  0  0
 23 26  1  6  0  0  0
 23 24  1  0  0  0  0
 23  4  1  0  0  0  0
 24 28  1  0  0  0  0
 24 27  1  0  0  0  0
 25 29  1  6  0  0  0
 25 23  1  0  0  0  0
 25 24  1  0  0  0  0
 30 25  1  0  0  0  0
 31 30  1  0  0  0  0
 32 31  1  0  0  0  0
 33 32  1  0  0  0  0
 33 35  1  0  0  0  0
 34 33  1  0  0  0  0
 35 36  1  0  0  0  0
 36 30  1  0  0  0  0
M  END
>  <minimizedAffinity>
-5.15702248

$$$$

 OpenBabel03252507533D

 36 39  0  0  1  0  0  0  0  0999 V2000
   39.5750   30.6050   42.2030 C   0  0  2  0  0  0  0  0  0  0  0  0
   40.1740   29.2510   41.9030 C   0  0  0  0  0  0  0  0  0  0  0  0
   39.4180   28.4230   42.9500 C   0  0  0  0  0  0  0  0  0  0  0  0
   38.0560   29.0690   43.0510 C   0  0  1  0  0  0  0  0  0  0  0  0
   38.1030   30.2320   42.1120 C   0  0  0  0  0  0  0  0  0  0  0  0
   39.8510   30.9480   43.1960 H   0  0  0  0  0  0  0  0  0  0  0  0
   39.8780   28.9320   40.9010 H   0  0  0  0  0  0  0  0  0  0  0  0
   41.2420   29.2490   42.1110 H   0  0  0  0  0  0  0  0  0  0  0  0
   39.9640   28.3890   43.8990 H   0  0  0  0  0  0  0  0  0  0  0  0
   39.3030   27.3990   42.5450 H   0  0  0  0  0  0  0  0  0  0  0  0
   37.9800   29.4440   44.0680 H   0  0  0  0  0  0  0  0  0  0  0  0
   37.4390   31.0630   42.3300 H   0  0  0  0  0  0  0  0  0  0  0  0
   38.1080   29.9320   41.0300 H   0  0  0  0  0  0  0  0  0  0  0  0
   41.3160   32.5570   39.4820 C   0  0  0  0  0  0  0  0  0  0  0  0
   41.0730   31.5230   40.3950 C   0  0  0  0  0  0  0  0  0  0  0  0
   39.9250   31.6330   41.1850 C   0  0  0  0  0  0  0  0  0  0  0  0
   39.0820   32.7320   41.0470 N   0  0  0  0  0  0  0  0  0  0  0  0
   39.3770   33.6960   40.1440 C   0  0  0  0  0  0  0  0  0  0  0  0
   40.4820   33.6050   39.3720 N   0  0  0  0  0  0  0  0  0  0  0  0
   42.2260   32.3740   38.9210 H   0  0  0  0  0  0  0  0  0  0  0  0
   41.7160   30.6560   40.5190 H   0  0  0  0  0  0  0  0  0  0  0  0
   38.7380   34.5620   40.0170 H   0  0  0  0  0  0  0  0  0  0  0  0
   36.9290   28.2010   42.5760 C   0  0  2  0  0  0  0  0  0  0  0  0
   36.5260   27.0740   43.3930 C   0  0  0  0  0  0  0  0  0  0  0  0
   37.0780   26.8910   41.9850 C   0  0  2  0  0  0  0  0  0  0  0  0
   36.1080   28.8490   42.1940 H   0  0  0  0  0  0  0  0  0  0  0  0
   37.0320   26.3800   44.0400 H   0  0  0  0  0  0  0  0  0  0  0  0
   35.4110   26.8610   43.4660 H   0  0  0  0  0  0  0  0  0  0  0  0
   36.3400   26.5990   41.1790 H   0  0  0  0  0  0  0  0  0  0  0  0
   38.3260   26.2350   41.7570 N   0  0  0  0  0  0  0  0  0  0  0  0
   38.8030   26.1710   40.4250 C   0  0  0  0  0  2  0  0  0  0  0  0
   39.6440   24.9140   40.2970 C   0  0  0  0  0  2  0  0  0  0  0  0
   38.8030   23.6800   40.4140 C   0  0  0  0  0  3  0  0  0  0  0  0
   38.4010   23.3450   39.4410 H   0  0  0  0  0  0  0  0  0  0  0  0
   37.7670   23.8570   41.4910 C   0  0  0  0  0  2  0  0  0  0  0  0
   38.2960   24.9580   42.4000 C   0  0  0  0  0  2  0  0  0  0  0  0
  1  6  1  1  0  0  0
  2  8  1  0  0  0  0
  2  1  1  0  0  0  0
  2  3  1  0  0  0  0
  3  4  1  0  0  0  0
  3  9  1  0  0  0  0
  4 11  1  1  0  0  0
  5  1  1  0  0  0  0
  5 12  1  0  0  0  0
  5  4  1  0  0  0  0
  7  2  1  0  0  0  0
 10  3  1  0  0  0  0
 13  5  1  0  0  0  0
 14 15  1  0  0  0  0
 15 21  1  0  0  0  0
 15 16  2  0  0  0  0
 16  1  1  0  0  0  0
 17 16  1  0  0  0  0
 18 17  2  0  0  0  0
 19 14  2  0  0  0  0
 19 18  1  0  0  0  0
 20 14  1  0  0  0  0
 22 18  1  0  0  0  0
 23 26  1  6  0  0  0
 23  4  1  0  0  0  0
 23 24  1  0  0  0  0
 24 28  1  0  0  0  0
 24 27  1  0  0  0  0
 25 29  1  6  0  0  0
 25 23  1  0  0  0  0
 25 24  1  0  0  0  0
 30 25  1  0  0  0  0
 30 36  1  0  0  0  0
 31 30  1  0  0  0  0
 32 33  1  0  0  0  0
 32 31  1  0  0  0  0
 33 35  1  0  0  0  0
 34 33  1  0  0  0  0
 35 36  1  0  0  0  0
M  END
>  <minimizedAffinity>
-5.11589766

$$$$

 OpenBabel03252507533D

 36 39  0  0  1  0  0  0  0  0999 V2000
   37.3470   30.2970   40.0580 C   0  0  2  0  0  0  0  0  0  0  0  0
   35.9820   30.4720   40.6790 C   0  0  0  0  0  0  0  0  0  0  0  0
   35.5800   28.9950   40.7840 C   0  0  0  0  0  0  0  0  0  0  0  0
   36.8710   28.2580   41.0570 C   0  0  1  0  0  0  0  0  0  0  0  0
   37.9320   29.3110   41.0570 C   0  0  0  0  0  0  0  0  0  0  0  0
   37.2760   29.8760   39.0590 H   0  0  0  0  0  0  0  0  0  0  0  0
   36.0850   30.8950   41.6820 H   0  0  0  0  0  0  0  0  0  0  0  0
   35.3160   31.0030   40.0010 H   0  0  0  0  0  0  0  0  0  0  0  0
   35.0610   28.6610   39.8790 H   0  0  0  0  0  0  0  0  0  0  0  0
   34.9130   28.8930   41.6610 H   0  0  0  0  0  0  0  0  0  0  0  0
   37.0260   27.6050   40.2020 H   0  0  0  0  0  0  0  0  0  0  0  0
   38.9380   28.9910   40.8020 H   0  0  0  0  0  0  0  0  0  0  0  0
   37.8890   29.9870   41.9530 H   0  0  0  0  0  0  0  0  0  0  0  0
   40.1790   32.7880   39.9210 C   0  0  0  0  0  0  0  0  0  0  0  0
   39.5320   31.5460   39.9150 C   0  0  0  0  0  0  0  0  0  0  0  0
   38.1390   31.5570   40.0320 C   0  0  0  0  0  0  0  0  0  0  0  0
   37.4550   32.7640   40.1490 N   0  0  0  0  0  0  0  0  0  0  0  0
   38.1440   33.9300   40.1480 C   0  0  0  0  0  0  0  0  0  0  0  0
   39.4910   33.9360   40.0350 N   0  0  0  0  0  0  0  0  0  0  0  0
   41.2530   32.6670   39.8240 H   0  0  0  0  0  0  0  0  0  0  0  0
   40.0450   30.5920   39.8240 H   0  0  0  0  0  0  0  0  0  0  0  0
   37.6370   34.8830   40.2380 H   0  0  0  0  0  0  0  0  0  0  0  0
   36.9310   27.6100   42.4080 C   0  0  2  0  0  0  0  0  0  0  0  0
   37.5220   28.3470   43.5080 C   0  0  0  0  0  0  0  0  0  0  0  0
   38.1130   27.0360   43.0060 C   0  0  2  0  0  0  0  0  0  0  0  0
   35.9550   27.1160   42.6170 H   0  0  0  0  0  0  0  0  0  0  0  0
   38.3240   29.0550   43.6080 H   0  0  0  0  0  0  0  0  0  0  0  0
   37.0200   28.2490   44.5250 H   0  0  0  0  0  0  0  0  0  0  0  0
   37.9730   26.1250   43.6620 H   0  0  0  0  0  0  0  0  0  0  0  0
   39.4020   26.9920   42.3890 N   0  0  0  0  0  0  0  0  0  0  0  0
   39.5680   26.1390   41.2720 C   0  0  0  0  0  2  0  0  0  0  0  0
   41.0180   25.6910   41.2450 C   0  0  0  0  0  2  0  0  0  0  0  0
   41.3350   24.7960   42.4030 C   0  0  0  0  0  3  0  0  0  0  0  0
   41.1460   23.7310   42.1810 H   0  0  0  0  0  0  0  0  0  0  0  0
   40.6650   25.3040   43.6510 C   0  0  0  0  0  2  0  0  0  0  0  0
   40.3870   26.7800   43.4030 C   0  0  0  0  0  2  0  0  0  0  0  0
  1  6  1  6  0  0  0
  1  2  1  0  0  0  0
  1  5  1  0  0  0  0
  2  3  1  0  0  0  0
  2  7  1  0  0  0  0
  3  4  1  0  0  0  0
  3 10  1  0  0  0  0
  4 11  1  6  0  0  0
  4 23  1  0  0  0  0
  5  4  1  0  0  0  0
  5 13  1  0  0  0  0
  8  2  1  0  0  0  0
  9  3  1  0  0  0  0
 12  5  1  0  0  0  0
 14 19  1  0  0  0  0
 15 14  2  0  0  0  0
 15 16  1  0  0  0  0
 16  1  1  0  0  0  0
 16 17  2  0  0  0  0
 18 17  1  0  0  0  0
 18 22  1  0  0  0  0
 19 18  2  0  0  0  0
 20 14  1  0  0  0  0
 21 15  1  0  0  0  0
 23 26  1  1  0  0  0
 23 25  1  0  0  0  0
 23 24  1  0  0  0  0
 24 27  1  0  0  0  0
 24 28  1  0  0  0  0
 25 24  1  0  0  0  0
 25 29  1  1  0  0  0
 30 25  1  0  0  0  0
 30 36  1  0  0  0  0
 31 30  1  0  0  0  0
 32 31  1  0  0  0  0
 32 33  1  0  0  0  0
 33 35  1  0  0  0  0
 34 33  1  0  0  0  0
 36 35  1  0  0  0  0
M  END
>  <minimizedAffinity>
-5.1115303

$$$$

 OpenBabel03252507533D

 36 39  0  0  1  0  0  0  0  0999 V2000
   37.1120   29.0270   42.0500 C   0  0  2  0  0  0  0  0  0  0  0  0
   37.3330   28.8590   43.5340 C   0  0  0  0  0  0  0  0  0  0  0  0
   36.8610   27.4070   43.6800 C   0  0  0  0  0  0  0  0  0  0  0  0
   37.2580   26.7350   42.3860 C   0  0  1  0  0  0  0  0  0  0  0  0
   37.8870   27.8120   41.5610 C   0  0  0  0  0  0  0  0  0  0  0  0
   36.0570   28.9680   41.7970 H   0  0  0  0  0  0  0  0  0  0  0  0
   38.4010   28.9200   43.7560 H   0  0  0  0  0  0  0  0  0  0  0  0
   36.6870   29.5310   44.0960 H   0  0  0  0  0  0  0  0  0  0  0  0
   35.7870   27.3590   43.8940 H   0  0  0  0  0  0  0  0  0  0  0  0
   37.4310   26.9530   44.5130 H   0  0  0  0  0  0  0  0  0  0  0  0
   36.3280   26.4310   41.9120 H   0  0  0  0  0  0  0  0  0  0  0  0
   37.8510   27.6870   40.4840 H   0  0  0  0  0  0  0  0  0  0  0  0
   38.8940   28.1340   41.9420 H   0  0  0  0  0  0  0  0  0  0  0  0
   39.4890   31.8340   41.2020 C   0  0  0  0  0  0  0  0  0  0  0  0
   39.0410   30.6190   41.7370 C   0  0  0  0  0  0  0  0  0  0  0  0
   37.7030   30.2820   41.5120 C   0  0  0  0  0  0  0  0  0  0  0  0
   36.8780   31.1370   40.7860 N   0  0  0  0  0  0  0  0  0  0  0  0
   37.3760   32.2970   40.2970 C   0  0  0  0  0  0  0  0  0  0  0  0
   38.6670   32.6370   40.5050 N   0  0  0  0  0  0  0  0  0  0  0  0
   40.5360   31.9970   41.4320 H   0  0  0  0  0  0  0  0  0  0  0  0
   39.6670   29.9360   42.3060 H   0  0  0  0  0  0  0  0  0  0  0  0
   36.7560   32.9800   39.7290 H   0  0  0  0  0  0  0  0  0  0  0  0
   38.3040   25.6720   42.5440 C   0  0  2  0  0  0  0  0  0  0  0  0
   39.5030   25.7490   41.7350 C   0  0  0  0  0  0  0  0  0  0  0  0
   38.5310   24.5820   41.6250 C   0  0  2  0  0  0  0  0  0  0  0  0
   38.4550   25.4720   43.6290 H   0  0  0  0  0  0  0  0  0  0  0  0
   39.7320   26.0840   40.7400 H   0  0  0  0  0  0  0  0  0  0  0  0
   40.4850   25.4650   42.2370 H   0  0  0  0  0  0  0  0  0  0  0  0
   38.8630   23.5940   42.0640 H   0  0  0  0  0  0  0  0  0  0  0  0
   37.7810   24.3500   40.4300 N   0  0  0  0  0  0  0  0  0  0  0  0
   36.4310   23.9490   40.5670 C   0  0  0  0  0  2  0  0  0  0  0  0
   36.0770   23.1010   39.3590 C   0  0  0  0  0  2  0  0  0  0  0  0
   36.8190   21.8010   39.3680 C   0  0  0  0  0  3  0  0  0  0  0  0
   36.2770   21.0060   39.9120 H   0  0  0  0  0  0  0  0  0  0  0  0
   38.2380   22.0140   39.8230 C   0  0  0  0  0  2  0  0  0  0  0  0
   38.5360   23.4870   39.5770 C   0  0  0  0  0  2  0  0  0  0  0  0
  1  6  1  6  0  0  0
  1  2  1  0  0  0  0
  2  3  1  0  0  0  0
  2  7  1  0  0  0  0
  2  8  1  0  0  0  0
  3  9  1  0  0  0  0
  3 10  1  0  0  0  0
  4 11  1  6  0  0  0
  4 23  1  0  0  0  0
  4  3  1  0  0  0  0
  5 13  1  0  0  0  0
  5  1  1  0  0  0  0
  5  4  1  0  0  0  0
 12  5  1  0  0  0  0
 14 20  1  0  0  0  0
 14 15  1  0  0  0  0
 15 21  1  0  0  0  0
 16 15  2  0  0  0  0
 16  1  1  0  0  0  0
 17 16  1  0  0  0  0
 18 19  1  0  0  0  0
 18 17  2  0  0  0  0
 19 14  2  0  0  0  0
 22 18  1  0  0  0  0
 23 26  1  1  0  0  0
 24 28  1  0  0  0  0
 24 23  1  0  0  0  0
 25 24  1  0  0  0  0
 25 29  1  1  0  0  0
 25 23  1  0  0  0  0
 27 24  1  0  0  0  0
 30 31  1  0  0  0  0
 30 25  1  0  0  0  0
 32 33  1  0  0  0  0
 32 31  1  0  0  0  0
 33 35  1  0  0  0  0
 33 34  1  0  0  0  0
 36 35  1  0  0  0  0
 36 30  1  0  0  0  0
M  END
>  <minimizedAffinity>
-5.10496187

$$$$

 OpenBabel03252507533D

 36 39  0  0  1  0  0  0  0  0999 V2000
   36.5150   27.1980   40.2300 C   0  0  2  0  0  0  0  0  0  0  0  0
   37.3880   27.8620   39.1910 C   0  0  0  0  0  0  0  0  0  0  0  0
   36.4580   29.0190   38.8080 C   0  0  0  0  0  0  0  0  0  0  0  0
   35.7320   29.3780   40.0840 C   0  0  1  0  0  0  0  0  0  0  0  0
   36.2360   28.4100   41.1060 C   0  0  0  0  0  0  0  0  0  0  0  0
   35.6090   26.7950   39.7870 H   0  0  0  0  0  0  0  0  0  0  0  0
   38.2880   28.2580   39.6660 H   0  0  0  0  0  0  0  0  0  0  0  0
   37.5450   27.1990   38.3430 H   0  0  0  0  0  0  0  0  0  0  0  0
   35.7930   28.7370   37.9840 H   0  0  0  0  0  0  0  0  0  0  0  0
   37.0940   29.8710   38.5020 H   0  0  0  0  0  0  0  0  0  0  0  0
   34.6820   29.1720   39.8960 H   0  0  0  0  0  0  0  0  0  0  0  0
   35.5750   28.1910   41.9390 H   0  0  0  0  0  0  0  0  0  0  0  0
   37.2990   28.6000   41.4150 H   0  0  0  0  0  0  0  0  0  0  0  0
   37.5930   23.8880   41.6880 C   0  0  0  0  0  0  0  0  0  0  0  0
   36.8680   24.7950   40.9050 C   0  0  0  0  0  0  0  0  0  0  0  0
   37.2280   26.1430   41.0000 C   0  0  0  0  0  0  0  0  0  0  0  0
   38.2640   26.5330   41.8430 N   0  0  0  0  0  0  0  0  0  0  0  0
   38.9240   25.6030   42.5730 C   0  0  0  0  0  0  0  0  0  0  0  0
   38.5890   24.2960   42.4920 N   0  0  0  0  0  0  0  0  0  0  0  0
   37.2360   22.8750   41.5390 H   0  0  0  0  0  0  0  0  0  0  0  0
   36.0560   24.5130   40.2400 H   0  0  0  0  0  0  0  0  0  0  0  0
   39.7340   25.8790   43.2370 H   0  0  0  0  0  0  0  0  0  0  0  0
   36.0600   30.7430   40.6110 C   0  0  2  0  0  0  0  0  0  0  0  0
   36.8580   31.6330   39.7910 C   0  0  0  0  0  0  0  0  0  0  0  0
   37.3370   31.1440   41.1510 C   0  0  2  0  0  0  0  0  0  0  0  0
   35.1450   31.1850   41.0670 H   0  0  0  0  0  0  0  0  0  0  0  0
   37.6650   31.5080   39.0920 H   0  0  0  0  0  0  0  0  0  0  0  0
   36.5690   32.7330   39.7890 H   0  0  0  0  0  0  0  0  0  0  0  0
   37.3300   31.8940   41.9980 H   0  0  0  0  0  0  0  0  0  0  0  0
   38.4770   30.2910   41.2750 N   0  0  0  0  0  0  0  0  0  0  0  0
   38.8730   29.9040   42.5780 C   0  0  0  0  0  2  0  0  0  0  0  0
   40.3720   29.6710   42.5540 C   0  0  0  0  0  2  0  0  0  0  0  0
   41.1200   30.9510   42.3400 C   0  0  0  0  0  3  0  0  0  0  0  0
   41.3540   31.4700   43.2860 H   0  0  0  0  0  0  0  0  0  0  0  0
   40.4140   31.8010   41.3180 C   0  0  0  0  0  2  0  0  0  0  0  0
   39.5490   30.8460   40.5080 C   0  0  0  0  0  2  0  0  0  0  0  0
  1  6  1  6  0  0  0
  1 16  1  0  0  0  0
  1  5  1  0  0  0  0
  2  7  1  0  0  0  0
  2  1  1  0  0  0  0
  3  2  1  0  0  0  0
  3  4  1  0  0  0  0
  4 11  1  6  0  0  0
  4 23  1  0  0  0  0
  4  5  1  0  0  0  0
  5 13  1  0  0  0  0
  5 12  1  0  0  0  0
  8  2  1  0  0  0  0
  9  3  1  0  0  0  0
 10  3  1  0  0  0  0
 14 19  1  0  0  0  0
 15 16  1  0  0  0  0
 15 14  2  0  0  0  0
 16 17  2  0  0  0  0
 17 18  1  0  0  0  0
 18 22  1  0  0  0  0
 19 18  2  0  0  0  0
 20 14  1  0  0  0  0
 21 15  1  0  0  0  0
 23 26  1  1  0  0  0
 23 25  1  0  0  0  0
 24 23  1  0  0  0  0
 24 25  1  0  0  0  0
 25 30  1  0  0  0  0
 25 29  1  1  0  0  0
 27 24  1  0  0  0  0
 28 24  1  0  0  0  0
 30 31  1  0  0  0  0
 32 31  1  0  0  0  0
 33 32  1  0  0  0  0
 33 34  1  0  0  0  0
 35 33  1  0  0  0  0
 36 30  1  0  0  0  0
 36 35  1  0  0  0  0
M  END
>  <minimizedAffinity>
-4.98351049

$$$$
