
 OpenBabel03252505313D

 25 26  0  0  0  0  0  0  0  0999 V2000
   37.9630   30.0350   42.6250 O   0  0  0  0  0  0  0  0  0  0  0  0
   37.0940   29.9140   41.3630 P   0  0  1  0  0  0  0  0  0  0  0  0
   35.6850   30.8210   41.4910 O   0  0  0  0  0  0  0  0  0  0  0  0
   34.9310   30.3360   41.0320 H   0  0  0  0  0  0  0  0  0  0  0  0
   38.0460   30.4360   40.0650 O   0  0  0  0  0  0  0  0  0  0  0  0
   38.5650   33.9420   40.3860 C   0  0  0  0  0  0  0  0  0  0  0  0
   39.8500   34.1520   39.8430 C   0  0  0  0  0  0  0  0  0  0  0  0
   40.5320   33.0240   39.3590 C   0  0  0  0  0  0  0  0  0  0  0  0
   39.9060   31.8090   39.4470 N   0  0  0  0  0  0  0  0  0  0  0  0
   38.6820   31.6690   39.9750 C   0  0  0  0  0  0  0  0  0  0  0  0
   38.0110   32.7250   40.4430 N   0  0  0  0  0  0  0  0  0  0  0  0
   38.0010   34.7800   40.7710 H   0  0  0  0  0  0  0  0  0  0  0  0
   40.2650   35.1330   39.8120 H   0  0  0  0  0  0  0  0  0  0  0  0
   41.5080   33.1290   38.9370 H   0  0  0  0  0  0  0  0  0  0  0  0
   36.6660   28.3020   41.2310 O   0  0  0  0  0  0  0  0  0  0  0  0
   36.9650   27.6620   42.4190 C   0  0  0  0  0  0  0  0  0  0  0  0
   36.0880   27.1170   42.8090 H   0  0  0  0  0  0  0  0  0  0  0  0
   37.3120   28.3470   43.2240 H   0  0  0  0  0  0  0  0  0  0  0  0
   38.0930   26.7900   42.1180 N   0  0  0  0  0  0  0  0  0  0  0  0
   38.9240   26.8150   43.3070 C   0  0  0  0  0  2  0  0  0  0  0  0
   40.0270   25.7880   43.2850 C   0  0  0  0  0  2  0  0  0  0  0  0
   39.4530   24.4170   43.1310 C   0  0  0  0  0  3  0  0  0  0  0  0
   38.9330   24.0690   44.0330 H   0  0  0  0  0  0  0  0  0  0  0  0
   38.5570   24.3840   41.9260 C   0  0  0  0  0  2  0  0  0  0  0  0
   37.5150   25.4710   41.9520 C   0  0  0  0  0  2  0  0  0  0  0  0
  2  3  1  0  0  0  0
  2  1  2  1  0  0  0
  4  3  1  0  0  0  0
  5  2  1  0  0  0  0
  6 11  1  0  0  0  0
  6 12  1  0  0  0  0
  7  6  2  0  0  0  0
  8  9  2  0  0  0  0
  8  7  1  0  0  0  0
  9 10  1  0  0  0  0
 10  5  1  0  0  0  0
 10 11  2  0  0  0  0
 13  7  1  0  0  0  0
 14  8  1  0  0  0  0
 15  2  1  0  0  0  0
 15 16  1  0  0  0  0
 16 17  1  0  0  0  0
 16 18  1  0  0  0  0
 19 16  1  0  0  0  0
 19 20  1  0  0  0  0
 21 20  1  0  0  0  0
 22 21  1  0  0  0  0
 22 23  1  0  0  0  0
 24 25  1  0  0  0  0
 24 22  1  0  0  0  0
 25 19  1  0  0  0  0
M  END
>  <minimizedAffinity>
-4.83587265

$$$$

 OpenBabel03252505313D

 25 26  0  0  0  0  0  0  0  0999 V2000
   34.4520   29.2710   39.6730 O   0  0  0  0  0  0  0  0  0  0  0  0
   35.7470   29.6300   40.4190 P   0  0  1  0  0  0  0  0  0  0  0  0
   35.5480   30.9860   41.3910 O   0  0  0  0  0  0  0  0  0  0  0  0
   36.3970   31.5270   41.3900 H   0  0  0  0  0  0  0  0  0  0  0  0
   36.1730   28.2730   41.3350 O   0  0  0  0  0  0  0  0  0  0  0  0
   38.8190   26.6040   43.0320 C   0  0  0  0  0  0  0  0  0  0  0  0
   39.7490   27.6270   43.3130 C   0  0  0  0  0  0  0  0  0  0  0  0
   39.4190   28.9240   42.8880 C   0  0  0  0  0  0  0  0  0  0  0  0
   38.2280   29.1040   42.2370 N   0  0  0  0  0  0  0  0  0  0  0  0
   37.3830   28.0920   41.9970 C   0  0  0  0  0  0  0  0  0  0  0  0
   37.6710   26.8480   42.3890 N   0  0  0  0  0  0  0  0  0  0  0  0
   39.0290   25.5890   43.3390 H   0  0  0  0  0  0  0  0  0  0  0  0
   40.6550   27.4010   43.8260 H   0  0  0  0  0  0  0  0  0  0  0  0
   40.0910   29.7350   43.0770 H   0  0  0  0  0  0  0  0  0  0  0  0
   36.8870   29.9920   39.2480 O   0  0  0  0  0  0  0  0  0  0  0  0
   36.8630   31.3530   39.0070 C   0  0  0  0  0  0  0  0  0  0  0  0
   35.8390   31.7530   39.0870 H   0  0  0  0  0  0  0  0  0  0  0  0
   37.2520   31.6380   38.0050 H   0  0  0  0  0  0  0  0  0  0  0  0
   37.7830   31.9350   39.9770 N   0  0  0  0  0  0  0  0  0  0  0  0
   39.1010   31.4800   39.5760 C   0  0  0  0  0  2  0  0  0  0  0  0
   40.2190   32.1660   40.3170 C   0  0  0  0  0  2  0  0  0  0  0  0
   40.1420   33.6440   40.1140 C   0  0  0  0  0  3  0  0  0  0  0  0
   40.4180   33.9500   39.0960 H   0  0  0  0  0  0  0  0  0  0  0  0
   38.7700   34.1280   40.4860 C   0  0  0  0  0  2  0  0  0  0  0  0
   37.6790   33.3680   39.7790 C   0  0  0  0  0  2  0  0  0  0  0  0
  2  1  2  6  0  0  0
  2  5  1  0  0  0  0
  2  3  1  0  0  0  0
  4  3  1  0  0  0  0
  5 10  1  0  0  0  0
  6  7  1  0  0  0  0
  6 12  1  0  0  0  0
  7 13  1  0  0  0  0
  8 14  1  0  0  0  0
  8  7  2  0  0  0  0
  9  8  1  0  0  0  0
 10  9  2  0  0  0  0
 10 11  1  0  0  0  0
 11  6  2  0  0  0  0
 15  2  1  0  0  0  0
 16 17  1  0  0  0  0
 16 15  1  0  0  0  0
 16 19  1  0  0  0  0
 18 16  1  0  0  0  0
 20 19  1  0  0  0  0
 20 21  1  0  0  0  0
 22 21  1  0  0  0  0
 22 24  1  0  0  0  0
 23 22  1  0  0  0  0
 25 19  1  0  0  0  0
 25 24  1  0  0  0  0
M  END
>  <minimizedAffinity>
-4.82883644

$$$$

 OpenBabel03252505313D

 25 26  0  0  0  0  0  0  0  0999 V2000
   37.6900   29.6740   42.4880 O   0  0  0  0  0  0  0  0  0  0  0  0
   36.9090   29.9230   41.1880 P   0  0  1  0  0  0  0  0  0  0  0  0
   35.6700   31.0360   41.4110 O   0  0  0  0  0  0  0  0  0  0  0  0
   34.8820   30.7790   40.8420 H   0  0  0  0  0  0  0  0  0  0  0  0
   38.0300   30.4700   40.0450 O   0  0  0  0  0  0  0  0  0  0  0  0
   40.5770   32.9390   39.7660 C   0  0  0  0  0  0  0  0  0  0  0  0
   39.9040   34.1570   39.9930 C   0  0  0  0  0  0  0  0  0  0  0  0
   38.5240   34.0870   40.2480 C   0  0  0  0  0  0  0  0  0  0  0  0
   37.9350   32.8510   40.2580 N   0  0  0  0  0  0  0  0  0  0  0  0
   38.6270   31.7250   40.0350 C   0  0  0  0  0  0  0  0  0  0  0  0
   39.9390   31.7630   39.7900 N   0  0  0  0  0  0  0  0  0  0  0  0
   41.6400   32.9420   39.5650 H   0  0  0  0  0  0  0  0  0  0  0  0
   40.4390   35.0790   39.9670 H   0  0  0  0  0  0  0  0  0  0  0  0
   37.9680   34.9820   40.4260 H   0  0  0  0  0  0  0  0  0  0  0  0
   36.2220   28.4590   40.7580 O   0  0  0  0  0  0  0  0  0  0  0  0
   37.2240   27.5940   40.3610 C   0  0  0  0  0  0  0  0  0  0  0  0
   38.2200   28.0520   40.4900 H   0  0  0  0  0  0  0  0  0  0  0  0
   37.1450   27.2710   39.2990 H   0  0  0  0  0  0  0  0  0  0  0  0
   37.0400   26.3910   41.1630 N   0  0  0  0  0  0  0  0  0  0  0  0
   36.6830   25.3510   40.2160 C   0  0  0  0  0  2  0  0  0  0  0  0
   36.6780   23.9710   40.8220 C   0  0  0  0  0  2  0  0  0  0  0  0
   38.0210   23.6540   41.3960 C   0  0  0  0  0  3  0  0  0  0  0  0
   38.7850   23.4850   40.6260 H   0  0  0  0  0  0  0  0  0  0  0  0
   38.4250   24.7430   42.3490 C   0  0  0  0  0  2  0  0  0  0  0  0
   38.3460   26.1120   41.7280 C   0  0  0  0  0  2  0  0  0  0  0  0
  2  3  1  0  0  0  0
  2  1  2  1  0  0  0
  4  3  1  0  0  0  0
  5  2  1  0  0  0  0
  6 11  2  0  0  0  0
  6  7  1  0  0  0  0
  7  8  2  0  0  0  0
  8  9  1  0  0  0  0
  8 14  1  0  0  0  0
 10  5  1  0  0  0  0
 10  9  2  0  0  0  0
 11 10  1  0  0  0  0
 12  6  1  0  0  0  0
 13  7  1  0  0  0  0
 15  2  1  0  0  0  0
 16 17  1  0  0  0  0
 16 15  1  0  0  0  0
 16 19  1  0  0  0  0
 18 16  1  0  0  0  0
 19 25  1  0  0  0  0
 20 21  1  0  0  0  0
 20 19  1  0  0  0  0
 21 22  1  0  0  0  0
 22 24  1  0  0  0  0
 23 22  1  0  0  0  0
 25 24  1  0  0  0  0
M  END
>  <minimizedAffinity>
-4.72039509

$$$$

 OpenBabel03252505313D

 25 26  0  0  0  0  0  0  0  0999 V2000
   37.3220   33.2190   39.9570 O   0  0  0  0  0  0  0  0  0  0  0  0
   37.2600   31.7070   40.2310 P   0  0  1  0  0  0  0  0  0  0  0  0
   35.8310   31.2750   41.0030 O   0  0  0  0  0  0  0  0  0  0  0  0
   36.0140   30.5300   41.6550 H   0  0  0  0  0  0  0  0  0  0  0  0
   37.4090   30.9350   38.7340 O   0  0  0  0  0  0  0  0  0  0  0  0
   34.5450   28.8390   38.4700 C   0  0  0  0  0  0  0  0  0  0  0  0
   34.5300   28.4440   37.1160 C   0  0  0  0  0  0  0  0  0  0  0  0
   35.5570   28.9360   36.2950 C   0  0  0  0  0  0  0  0  0  0  0  0
   36.4950   29.7580   36.8620 N   0  0  0  0  0  0  0  0  0  0  0  0
   36.4590   30.1000   38.1570 C   0  0  0  0  0  0  0  0  0  0  0  0
   35.4930   29.6470   38.9610 N   0  0  0  0  0  0  0  0  0  0  0  0
   33.7750   28.4860   39.1410 H   0  0  0  0  0  0  0  0  0  0  0  0
   33.7610   27.8000   36.7540 H   0  0  0  0  0  0  0  0  0  0  0  0
   35.5900   28.6670   35.2610 H   0  0  0  0  0  0  0  0  0  0  0  0
   38.5330   31.3570   41.2590 O   0  0  0  0  0  0  0  0  0  0  0  0
   38.9000   30.0360   41.0820 C   0  0  0  0  0  0  0  0  0  0  0  0
   39.8650   29.8220   41.5720 H   0  0  0  0  0  0  0  0  0  0  0  0
   38.9980   29.7370   40.0150 H   0  0  0  0  0  0  0  0  0  0  0  0
   37.7980   29.2500   41.6210 N   0  0  0  0  0  0  0  0  0  0  0  0
   37.8560   27.9800   40.9230 C   0  0  0  0  0  2  0  0  0  0  0  0
   36.9380   26.9360   41.5070 C   0  0  0  0  0  2  0  0  0  0  0  0
   37.2690   26.7060   42.9450 C   0  0  0  0  0  3  0  0  0  0  0  0
   38.2190   26.1750   43.0860 H   0  0  0  0  0  0  0  0  0  0  0  0
   37.2530   28.0180   43.6770 C   0  0  0  0  0  2  0  0  0  0  0  0
   38.1250   29.0550   43.0210 C   0  0  0  0  0  2  0  0  0  0  0  0
  2  1  2  6  0  0  0
  2  3  1  0  0  0  0
  2 15  1  0  0  0  0
  3  4  1  0  0  0  0
  5  2  1  0  0  0  0
  6 11  1  0  0  0  0
  6 12  1  0  0  0  0
  7  6  2  0  0  0  0
  8  9  2  0  0  0  0
  8  7  1  0  0  0  0
  9 10  1  0  0  0  0
 10  5  1  0  0  0  0
 10 11  2  0  0  0  0
 13  7  1  0  0  0  0
 14  8  1  0  0  0  0
 16 15  1  0  0  0  0
 16 17  1  0  0  0  0
 16 19  1  0  0  0  0
 18 16  1  0  0  0  0
 19 25  1  0  0  0  0
 20 21  1  0  0  0  0
 20 19  1  0  0  0  0
 21 22  1  0  0  0  0
 22 23  1  0  0  0  0
 22 24  1  0  0  0  0
 25 24  1  0  0  0  0
M  END
>  <minimizedAffinity>
-4.64130831

$$$$

 OpenBabel03252505313D

 25 26  0  0  0  0  0  0  0  0999 V2000
   39.8430   31.0370   39.8270 O   0  0  0  0  0  0  0  0  0  0  0  0
   39.0640   31.7650   40.9340 P   0  0  1  0  0  0  0  0  0  0  0  0
   39.7830   33.2290   41.3380 O   0  0  0  0  0  0  0  0  0  0  0  0
   39.6800   33.3930   42.3260 H   0  0  0  0  0  0  0  0  0  0  0  0
   37.4910   31.9910   40.3540 O   0  0  0  0  0  0  0  0  0  0  0  0
   35.9490   29.7470   38.0630 C   0  0  0  0  0  0  0  0  0  0  0  0
   35.0350   29.0200   38.8530 C   0  0  0  0  0  0  0  0  0  0  0  0
   34.9760   29.3400   40.2200 C   0  0  0  0  0  0  0  0  0  0  0  0
   35.8020   30.3290   40.6840 N   0  0  0  0  0  0  0  0  0  0  0  0
   36.6520   30.9880   39.8840 C   0  0  0  0  0  0  0  0  0  0  0  0
   36.7290   30.7030   38.5810 N   0  0  0  0  0  0  0  0  0  0  0  0
   36.0310   29.5360   37.0050 H   0  0  0  0  0  0  0  0  0  0  0  0
   34.4270   28.2640   38.4120 H   0  0  0  0  0  0  0  0  0  0  0  0
   34.2990   28.8180   40.8620 H   0  0  0  0  0  0  0  0  0  0  0  0
   39.1110   30.7740   42.2810 O   0  0  0  0  0  0  0  0  0  0  0  0
   39.4590   29.4960   41.8840 C   0  0  0  0  0  0  0  0  0  0  0  0
   40.1820   29.0450   42.5840 H   0  0  0  0  0  0  0  0  0  0  0  0
   39.9090   29.4490   40.8680 H   0  0  0  0  0  0  0  0  0  0  0  0
   38.2040   28.7590   41.8040 N   0  0  0  0  0  0  0  0  0  0  0  0
   38.5240   27.5360   41.0910 C   0  0  0  0  0  2  0  0  0  0  0  0
   37.4060   26.5260   41.1090 C   0  0  0  0  0  2  0  0  0  0  0  0
   37.0470   26.1780   42.5170 C   0  0  0  0  0  3  0  0  0  0  0  0
   37.8140   25.5720   43.0160 H   0  0  0  0  0  0  0  0  0  0  0  0
   36.7520   27.4370   43.2820 C   0  0  0  0  0  2  0  0  0  0  0  0
   37.8620   28.4490   43.1790 C   0  0  0  0  0  2  0  0  0  0  0  0
  2  1  2  6  0  0  0
  2  3  1  0  0  0  0
  2 15  1  0  0  0  0
  3  4  1  0  0  0  0
  5  2  1  0  0  0  0
  6 11  2  0  0  0  0
  6  7  1  0  0  0  0
  7  8  2  0  0  0  0
  8  9  1  0  0  0  0
  8 14  1  0  0  0  0
 10  5  1  0  0  0  0
 10  9  2  0  0  0  0
 11 10  1  0  0  0  0
 12  6  1  0  0  0  0
 13  7  1  0  0  0  0
 16 15  1  0  0  0  0
 16 17  1  0  0  0  0
 18 16  1  0  0  0  0
 19 16  1  0  0  0  0
 19 25  1  0  0  0  0
 20 21  1  0  0  0  0
 20 19  1  0  0  0  0
 21 22  1  0  0  0  0
 22 23  1  0  0  0  0
 22 24  1  0  0  0  0
 25 24  1  0  0  0  0
M  END
>  <minimizedAffinity>
-4.55773544

$$$$

 OpenBabel03252505313D

 25 26  0  0  0  0  0  0  0  0999 V2000
   35.7880   29.6760   37.3840 O   0  0  0  0  0  0  0  0  0  0  0  0
   37.0950   30.0350   38.1080 P   0  0  1  0  0  0  0  0  0  0  0  0
   38.4410   29.7150   37.1550 O   0  0  0  0  0  0  0  0  0  0  0  0
   39.1960   29.3930   37.7370 H   0  0  0  0  0  0  0  0  0  0  0  0
   36.9960   31.6770   38.5040 O   0  0  0  0  0  0  0  0  0  0  0  0
   38.6230   34.1610   40.4660 C   0  0  0  0  0  0  0  0  0  0  0  0
   39.9900   34.0110   40.1490 C   0  0  0  0  0  0  0  0  0  0  0  0
   40.3250   33.0090   39.2240 C   0  0  0  0  0  0  0  0  0  0  0  0
   39.3100   32.2550   38.6980 N   0  0  0  0  0  0  0  0  0  0  0  0
   38.0280   32.4430   39.0370 C   0  0  0  0  0  0  0  0  0  0  0  0
   37.6800   33.3880   39.9150 N   0  0  0  0  0  0  0  0  0  0  0  0
   38.3160   34.9190   41.1730 H   0  0  0  0  0  0  0  0  0  0  0  0
   40.7180   34.6420   40.6050 H   0  0  0  0  0  0  0  0  0  0  0  0
   41.3470   32.8550   38.9500 H   0  0  0  0  0  0  0  0  0  0  0  0
   37.1730   29.0560   39.4630 O   0  0  0  0  0  0  0  0  0  0  0  0
   36.0150   29.2190   40.2000 C   0  0  0  0  0  0  0  0  0  0  0  0
   35.1550   28.7390   39.7010 H   0  0  0  0  0  0  0  0  0  0  0  0
   35.7410   30.2820   40.3780 H   0  0  0  0  0  0  0  0  0  0  0  0
   36.3040   28.6510   41.5110 N   0  0  0  0  0  0  0  0  0  0  0  0
   36.8640   27.3390   41.2450 C   0  0  0  0  0  2  0  0  0  0  0  0
   37.4490   26.6820   42.4690 C   0  0  0  0  0  2  0  0  0  0  0  0
   38.5150   27.5450   43.0590 C   0  0  0  0  0  3  0  0  0  0  0  0
   39.4260   27.5770   42.4480 H   0  0  0  0  0  0  0  0  0  0  0  0
   37.9640   28.9210   43.3040 C   0  0  0  0  0  2  0  0  0  0  0  0
   37.3250   29.5140   42.0760 C   0  0  0  0  0  2  0  0  0  0  0  0
  2  1  2  6  0  0  0
  2  5  1  0  0  0  0
  2 15  1  0  0  0  0
  3  4  1  0  0  0  0
  3  2  1  0  0  0  0
  5 10  1  0  0  0  0
  6 12  1  0  0  0  0
  7  6  1  0  0  0  0
  7 13  1  0  0  0  0
  8  7  2  0  0  0  0
  9 10  2  0  0  0  0
  9  8  1  0  0  0  0
 10 11  1  0  0  0  0
 11  6  2  0  0  0  0
 14  8  1  0  0  0  0
 15 16  1  0  0  0  0
 16 18  1  0  0  0  0
 16 19  1  0  0  0  0
 17 16  1  0  0  0  0
 19 25  1  0  0  0  0
 20 19  1  0  0  0  0
 20 21  1  0  0  0  0
 21 22  1  0  0  0  0
 22 24  1  0  0  0  0
 23 22  1  0  0  0  0
 25 24  1  0  0  0  0
M  END
>  <minimizedAffinity>
-4.44383144

$$$$

 OpenBabel03252505313D

 25 26  0  0  0  0  0  0  0  0999 V2000
   40.1460   28.3180   43.2190 O   0  0  0  0  0  0  0  0  0  0  0  0
   39.0240   29.0660   42.4820 P   0  0  1  0  0  0  0  0  0  0  0  0
   37.7470   29.4380   43.5090 O   0  0  0  0  0  0  0  0  0  0  0  0
   36.8790   29.3670   43.0050 H   0  0  0  0  0  0  0  0  0  0  0  0
   39.7180   30.4640   41.8300 O   0  0  0  0  0  0  0  0  0  0  0  0
   37.0460   32.1270   40.1700 C   0  0  0  0  0  0  0  0  0  0  0  0
   37.5880   33.3790   39.8110 C   0  0  0  0  0  0  0  0  0  0  0  0
   38.9240   33.6240   40.1690 C   0  0  0  0  0  0  0  0  0  0  0  0
   39.6000   32.6370   40.8370 N   0  0  0  0  0  0  0  0  0  0  0  0
   39.0320   31.4660   41.1520 C   0  0  0  0  0  0  0  0  0  0  0  0
   37.7640   31.2070   40.8240 N   0  0  0  0  0  0  0  0  0  0  0  0
   36.0210   31.8930   39.9160 H   0  0  0  0  0  0  0  0  0  0  0  0
   36.9910   34.0930   39.2910 H   0  0  0  0  0  0  0  0  0  0  0  0
   39.3810   34.5570   39.9200 H   0  0  0  0  0  0  0  0  0  0  0  0
   38.4550   28.0260   41.3010 O   0  0  0  0  0  0  0  0  0  0  0  0
   39.4950   27.2210   40.8750 C   0  0  0  0  0  0  0  0  0  0  0  0
   40.2780   27.1410   41.6480 H   0  0  0  0  0  0  0  0  0  0  0  0
   39.9860   27.5760   39.9430 H   0  0  0  0  0  0  0  0  0  0  0  0
   38.8840   25.9390   40.5450 N   0  0  0  0  0  0  0  0  0  0  0  0
   38.8570   25.1960   41.7920 C   0  0  0  0  0  2  0  0  0  0  0  0
   38.0460   23.9280   41.7120 C   0  0  0  0  0  2  0  0  0  0  0  0
   36.6410   24.2380   41.3100 C   0  0  0  0  0  3  0  0  0  0  0  0
   36.0710   24.7390   42.1030 H   0  0  0  0  0  0  0  0  0  0  0  0
   36.6510   25.0430   40.0420 C   0  0  0  0  0  2  0  0  0  0  0  0
   37.5300   26.2620   40.1390 C   0  0  0  0  0  2  0  0  0  0  0  0
  2  1  2  1  0  0  0
  2  3  1  0  0  0  0
  4  3  1  0  0  0  0
  5  2  1  0  0  0  0
  6 11  1  0  0  0  0
  7  8  1  0  0  0  0
  7  6  2  0  0  0  0
  8  9  2  0  0  0  0
  9 10  1  0  0  0  0
 10  5  1  0  0  0  0
 11 10  2  0  0  0  0
 12  6  1  0  0  0  0
 13  7  1  0  0  0  0
 14  8  1  0  0  0  0
 15  2  1  0  0  0  0
 16 15  1  0  0  0  0
 16 17  1  0  0  0  0
 18 16  1  0  0  0  0
 19 16  1  0  0  0  0
 19 20  1  0  0  0  0
 21 20  1  0  0  0  0
 22 21  1  0  0  0  0
 22 23  1  0  0  0  0
 24 25  1  0  0  0  0
 24 22  1  0  0  0  0
 25 19  1  0  0  0  0
M  END
>  <minimizedAffinity>
-4.28348494

$$$$

 OpenBabel03252505313D

 25 26  0  0  0  0  0  0  0  0999 V2000
   36.5130   29.7930   36.6450 O   0  0  0  0  0  0  0  0  0  0  0  0
   36.9220   29.9800   38.1140 P   0  0  1  0  0  0  0  0  0  0  0  0
   38.4060   29.2610   38.4420 O   0  0  0  0  0  0  0  0  0  0  0  0
   38.3950   28.8800   39.3730 H   0  0  0  0  0  0  0  0  0  0  0  0
   36.9700   31.6480   38.3970 O   0  0  0  0  0  0  0  0  0  0  0  0
   40.2800   32.7520   39.0960 C   0  0  0  0  0  0  0  0  0  0  0  0
   40.1270   33.6350   40.1860 C   0  0  0  0  0  0  0  0  0  0  0  0
   38.8230   33.8330   40.6700 C   0  0  0  0  0  0  0  0  0  0  0  0
   37.8010   33.1590   40.0550 N   0  0  0  0  0  0  0  0  0  0  0  0
   38.0070   32.3310   39.0220 C   0  0  0  0  0  0  0  0  0  0  0  0
   39.2360   32.1260   38.5410 N   0  0  0  0  0  0  0  0  0  0  0  0
   41.2640   32.5680   38.6890 H   0  0  0  0  0  0  0  0  0  0  0  0
   40.9770   34.1210   40.6060 H   0  0  0  0  0  0  0  0  0  0  0  0
   38.6530   34.4920   41.4940 H   0  0  0  0  0  0  0  0  0  0  0  0
   35.7570   29.2100   39.0360 O   0  0  0  0  0  0  0  0  0  0  0  0
   35.7830   29.7310   40.3160 C   0  0  0  0  0  0  0  0  0  0  0  0
   34.8030   29.6220   40.8100 H   0  0  0  0  0  0  0  0  0  0  0  0
   36.0560   30.8090   40.3570 H   0  0  0  0  0  0  0  0  0  0  0  0
   36.8540   29.0190   41.0030 N   0  0  0  0  0  0  0  0  0  0  0  0
   37.3640   29.9540   41.9880 C   0  0  0  0  0  2  0  0  0  0  0  0
   38.3250   29.3250   42.9650 C   0  0  0  0  0  2  0  0  0  0  0  0
   37.6650   28.1910   43.6800 C   0  0  0  0  0  3  0  0  0  0  0  0
   36.9050   28.5230   44.3990 H   0  0  0  0  0  0  0  0  0  0  0  0
   37.0940   27.2320   42.6740 C   0  0  0  0  0  2  0  0  0  0  0  0
   36.1980   27.9120   41.6730 C   0  0  0  0  0  2  0  0  0  0  0  0
  2  1  2  6  0  0  0
  2  5  1  0  0  0  0
  2  3  1  0  0  0  0
  2 15  1  0  0  0  0
  3  4  1  0  0  0  0
  5 10  1  0  0  0  0
  6  7  1  0  0  0  0
  7 13  1  0  0  0  0
  7  8  2  0  0  0  0
  8 14  1  0  0  0  0
  9  8  1  0  0  0  0
 10  9  2  0  0  0  0
 11 10  1  0  0  0  0
 11  6  2  0  0  0  0
 12  6  1  0  0  0  0
 15 16  1  0  0  0  0
 16 18  1  0  0  0  0
 16 17  1  0  0  0  0
 16 19  1  0  0  0  0
 19 25  1  0  0  0  0
 19 20  1  0  0  0  0
 20 21  1  0  0  0  0
 21 22  1  0  0  0  0
 22 23  1  0  0  0  0
 24 22  1  0  0  0  0
 25 24  1  0  0  0  0
M  END
>  <minimizedAffinity>
-4.27164555

$$$$

 OpenBabel03252505313D

 25 26  0  0  0  0  0  0  0  0999 V2000
   36.8990   30.3490   39.2230 O   0  0  0  0  0  0  0  0  0  0  0  0
   37.3900   31.2560   40.3630 P   0  0  1  0  0  0  0  0  0  0  0  0
   36.7040   32.7870   40.2780 O   0  0  0  0  0  0  0  0  0  0  0  0
   37.3770   33.4730   40.5760 H   0  0  0  0  0  0  0  0  0  0  0  0
   36.9860   30.4790   41.8100 O   0  0  0  0  0  0  0  0  0  0  0  0
   37.1150   27.0090   42.5890 C   0  0  0  0  0  0  0  0  0  0  0  0
   38.4220   26.8150   43.0840 C   0  0  0  0  0  0  0  0  0  0  0  0
   39.2600   27.9410   43.1370 C   0  0  0  0  0  0  0  0  0  0  0  0
   38.7530   29.1390   42.7080 N   0  0  0  0  0  0  0  0  0  0  0  0
   37.5010   29.2640   42.2470 C   0  0  0  0  0  0  0  0  0  0  0  0
   36.6830   28.2090   42.1850 N   0  0  0  0  0  0  0  0  0  0  0  0
   36.4340   26.1720   42.5300 H   0  0  0  0  0  0  0  0  0  0  0  0
   38.7380   25.8470   43.3980 H   0  0  0  0  0  0  0  0  0  0  0  0
   40.2600   27.8460   43.5030 H   0  0  0  0  0  0  0  0  0  0  0  0
   39.0440   31.4150   40.1660 O   0  0  0  0  0  0  0  0  0  0  0  0
   39.3130   31.6670   38.8330 C   0  0  0  0  0  0  0  0  0  0  0  0
   38.7560   32.5480   38.4740 H   0  0  0  0  0  0  0  0  0  0  0  0
   39.0630   30.8200   38.1570 H   0  0  0  0  0  0  0  0  0  0  0  0
   40.7590   31.8320   38.7530 N   0  0  0  0  0  0  0  0  0  0  0  0
   41.0210   32.2480   37.3880 C   0  0  0  0  0  2  0  0  0  0  0  0
   42.4420   32.6990   37.1650 C   0  0  0  0  0  2  0  0  0  0  0  0
   42.7740   33.8310   38.0820 C   0  0  0  0  0  3  0  0  0  0  0  0
   42.2680   34.7660   37.8070 H   0  0  0  0  0  0  0  0  0  0  0  0
   42.4710   33.4310   39.4980 C   0  0  0  0  0  2  0  0  0  0  0  0
   41.0640   32.9190   39.6630 C   0  0  0  0  0  2  0  0  0  0  0  0
  2  1  2  6  0  0  0
  2  5  1  0  0  0  0
  3  2  1  0  0  0  0
  3  4  1  0  0  0  0
  5 10  1  0  0  0  0
  6  7  1  0  0  0  0
  7  8  2  0  0  0  0
  7 13  1  0  0  0  0
  8 14  1  0  0  0  0
  9  8  1  0  0  0  0
 10  9  2  0  0  0  0
 11 10  1  0  0  0  0
 11  6  2  0  0  0  0
 12  6  1  0  0  0  0
 15  2  1  0  0  0  0
 16 15  1  0  0  0  0
 17 16  1  0  0  0  0
 18 16  1  0  0  0  0
 19 16  1  0  0  0  0
 19 25  1  0  0  0  0
 20 19  1  0  0  0  0
 21 20  1  0  0  0  0
 21 22  1  0  0  0  0
 22 24  1  0  0  0  0
 23 22  1  0  0  0  0
 24 25  1  0  0  0  0
M  END
>  <minimizedAffinity>
-4.26288033

$$$$
