
 OpenBabel03242510103D

 26 28  0  0  0  0  0  0  0  0999 V2000
   38.0590   28.2120   39.0650 Br  0  0  0  0  0  0  0  0  0  0  0  0
   37.8050   28.1050   40.9580 C   0  0  0  0  0  0  0  0  0  0  0  0
   37.6770   26.8900   41.5690 C   0  0  0  0  0  0  0  0  0  0  0  0
   37.4890   26.7930   42.9600 C   0  0  0  0  0  0  0  0  0  0  0  0
   37.4390   27.9610   43.6720 C   0  0  0  0  0  0  0  0  0  0  0  0
   37.5720   29.1630   43.0180 C   0  0  0  0  0  0  0  0  0  0  0  0
   37.7550   29.2800   41.6680 C   0  0  0  0  0  0  0  0  0  0  0  0
   37.3910   25.8180   43.4180 H   0  0  0  0  0  0  0  0  0  0  0  0
   37.2950   27.9090   44.7460 H   0  0  0  0  0  0  0  0  0  0  0  0
   37.5270   30.0660   43.6120 H   0  0  0  0  0  0  0  0  0  0  0  0
   36.6420   24.0780   39.4680 C   0  0  0  0  0  0  0  0  0  0  0  0
   37.8470   23.3880   39.2100 C   0  0  0  0  0  0  0  0  0  0  0  0
   39.0030   23.9230   39.7780 C   0  0  0  0  0  0  0  0  0  0  0  0
   38.9160   25.0470   40.5300 N   0  0  0  0  0  0  0  0  0  0  0  0
   37.7390   25.6880   40.7600 C   0  0  0  0  0  0  0  0  0  0  0  0
   36.6070   25.1850   40.2170 N   0  0  0  0  0  0  0  0  0  0  0  0
   35.7020   23.7110   39.0510 H   0  0  0  0  0  0  0  0  0  0  0  0
   37.8450   22.4970   38.6010 H   0  0  0  0  0  0  0  0  0  0  0  0
   39.9480   23.4240   39.6040 H   0  0  0  0  0  0  0  0  0  0  0  0
   37.8800   30.5790   41.1000 N   0  0  0  0  0  0  0  0  0  0  0  0
   39.0960   31.3360   40.8640 C   0  0  0  0  0  2  0  0  0  0  0  0
   38.7080   32.8000   40.8900 C   0  0  0  0  0  2  0  0  0  0  0  0
   37.9080   33.1250   39.6400 C   0  0  0  0  0  3  0  0  0  0  0  0
   38.6150   33.3140   38.8220 H   0  0  0  0  0  0  0  0  0  0  0  0
   36.9560   31.9850   39.3840 C   0  0  0  0  0  2  0  0  0  0  0  0
   36.6400   31.2580   40.6960 C   0  0  0  0  0  2  0  0  0  0  0  0
  1  2  1  0  0  0  0
  2  3  2  0  0  0  0
  2  7  1  0  0  0  0
  3  4  1  0  0  0  0
  4  8  1  0  0  0  0
  4  5  2  0  0  0  0
  5  9  1  0  0  0  0
  6 10  1  0  0  0  0
  6  5  1  0  0  0  0
  7  6  2  0  0  0  0
 11 16  1  0  0  0  0
 12 11  2  0  0  0  0
 12 13  1  0  0  0  0
 13 14  2  0  0  0  0
 14 15  1  0  0  0  0
 15  3  1  0  0  0  0
 16 15  2  0  0  0  0
 17 11  1  0  0  0  0
 18 12  1  0  0  0  0
 19 13  1  0  0  0  0
 20  7  1  0  0  0  0
 21 22  1  0  0  0  0
 21 20  1  0  0  0  0
 23 22  1  0  0  0  0
 24 23  1  0  0  0  0
 25 23  1  0  0  0  0
 25 26  1  0  0  0  0
 26 20  1  0  0  0  0
M  END
>  <minimizedAffinity>
-5.08024406

$$$$

 OpenBabel03242510103D

 26 28  0  0  0  0  0  0  0  0999 V2000
   38.0130   28.2280   39.0590 Br  0  0  0  0  0  0  0  0  0  0  0  0
   37.7900   28.1110   40.9560 C   0  0  0  0  0  0  0  0  0  0  0  0
   37.6600   26.8930   41.5610 C   0  0  0  0  0  0  0  0  0  0  0  0
   37.4940   26.7890   42.9540 C   0  0  0  0  0  0  0  0  0  0  0  0
   37.4670   27.9520   43.6740 C   0  0  0  0  0  0  0  0  0  0  0  0
   37.6010   29.1570   43.0260 C   0  0  0  0  0  0  0  0  0  0  0  0
   37.7630   29.2820   41.6740 C   0  0  0  0  0  0  0  0  0  0  0  0
   37.3940   25.8120   43.4080 H   0  0  0  0  0  0  0  0  0  0  0  0
   37.3410   27.8950   44.7500 H   0  0  0  0  0  0  0  0  0  0  0  0
   37.5760   30.0570   43.6260 H   0  0  0  0  0  0  0  0  0  0  0  0
   38.9290   23.9640   39.7700 C   0  0  0  0  0  0  0  0  0  0  0  0
   37.7750   23.4050   39.1780 C   0  0  0  0  0  0  0  0  0  0  0  0
   36.5700   24.0650   39.4190 C   0  0  0  0  0  0  0  0  0  0  0  0
   36.5660   25.1820   40.1880 N   0  0  0  0  0  0  0  0  0  0  0  0
   37.6960   25.6960   40.7430 C   0  0  0  0  0  0  0  0  0  0  0  0
   38.8740   25.0690   40.5210 N   0  0  0  0  0  0  0  0  0  0  0  0
   39.9030   23.4940   39.6190 H   0  0  0  0  0  0  0  0  0  0  0  0
   37.8490   22.5120   38.5760 H   0  0  0  0  0  0  0  0  0  0  0  0
   35.6620   23.6680   38.9840 H   0  0  0  0  0  0  0  0  0  0  0  0
   37.8910   30.5830   41.1130 N   0  0  0  0  0  0  0  0  0  0  0  0
   39.1100   31.3350   40.8730 C   0  0  0  0  0  2  0  0  0  0  0  0
   38.7290   32.8010   40.9100 C   0  0  0  0  0  2  0  0  0  0  0  0
   37.9240   33.1370   39.6660 C   0  0  0  0  0  3  0  0  0  0  0  0
   38.6260   33.3270   38.8450 H   0  0  0  0  0  0  0  0  0  0  0  0
   36.9640   32.0030   39.4100 C   0  0  0  0  0  2  0  0  0  0  0  0
   36.6520   31.2710   40.7190 C   0  0  0  0  0  2  0  0  0  0  0  0
  1  2  1  0  0  0  0
  2  3  2  0  0  0  0
  2  7  1  0  0  0  0
  3  4  1  0  0  0  0
  4  8  1  0  0  0  0
  4  5  2  0  0  0  0
  5  9  1  0  0  0  0
  6 10  1  0  0  0  0
  6  5  1  0  0  0  0
  7  6  2  0  0  0  0
 11 16  1  0  0  0  0
 12 13  1  0  0  0  0
 12 11  2  0  0  0  0
 13 14  2  0  0  0  0
 14 15  1  0  0  0  0
 15  3  1  0  0  0  0
 16 15  2  0  0  0  0
 17 11  1  0  0  0  0
 18 12  1  0  0  0  0
 19 13  1  0  0  0  0
 20  7  1  0  0  0  0
 21 22  1  0  0  0  0
 21 20  1  0  0  0  0
 23 22  1  0  0  0  0
 24 23  1  0  0  0  0
 25 23  1  0  0  0  0
 25 26  1  0  0  0  0
 26 20  1  0  0  0  0
M  END
>  <minimizedAffinity>
-5.07957506

$$$$

 OpenBabel03242510103D

 26 28  0  0  0  0  0  0  0  0999 V2000
   40.9550   30.3020   40.5910 Br  0  0  0  0  0  0  0  0  0  0  0  0
   39.3220   31.2550   40.3040 C   0  0  0  0  0  0  0  0  0  0  0  0
   39.3160   32.4120   39.5780 C   0  0  0  0  0  0  0  0  0  0  0  0
   38.1240   33.1260   39.3570 C   0  0  0  0  0  0  0  0  0  0  0  0
   36.9760   32.6160   39.8980 C   0  0  0  0  0  0  0  0  0  0  0  0
   37.0240   31.4480   40.6230 C   0  0  0  0  0  0  0  0  0  0  0  0
   38.1710   30.7380   40.8490 C   0  0  0  0  0  0  0  0  0  0  0  0
   38.1490   34.0390   38.7790 H   0  0  0  0  0  0  0  0  0  0  0  0
   36.0450   33.1500   39.7400 H   0  0  0  0  0  0  0  0  0  0  0  0
   36.0970   31.0730   41.0350 H   0  0  0  0  0  0  0  0  0  0  0  0
   42.5210   34.1580   39.2960 C   0  0  0  0  0  0  0  0  0  0  0  0
   42.9620   33.8450   37.9910 C   0  0  0  0  0  0  0  0  0  0  0  0
   42.1270   33.0250   37.2330 C   0  0  0  0  0  0  0  0  0  0  0  0
   40.9630   32.5810   37.7700 N   0  0  0  0  0  0  0  0  0  0  0  0
   40.5670   32.9020   39.0300 C   0  0  0  0  0  0  0  0  0  0  0  0
   41.3640   33.6960   39.7820 N   0  0  0  0  0  0  0  0  0  0  0  0
   43.1300   34.7950   39.9410 H   0  0  0  0  0  0  0  0  0  0  0  0
   43.9010   34.2320   37.6260 H   0  0  0  0  0  0  0  0  0  0  0  0
   42.4290   32.7610   36.2280 H   0  0  0  0  0  0  0  0  0  0  0  0
   38.1000   29.5410   41.6150 N   0  0  0  0  0  0  0  0  0  0  0  0
   38.3460   29.3750   43.0360 C   0  0  0  0  0  2  0  0  0  0  0  0
   38.7900   27.9410   43.2350 C   0  0  0  0  0  2  0  0  0  0  0  0
   37.6000   27.0190   43.0300 C   0  0  0  0  0  3  0  0  0  0  0  0
   37.0290   26.9860   43.9660 H   0  0  0  0  0  0  0  0  0  0  0  0
   36.8170   27.5230   41.8450 C   0  0  0  0  0  2  0  0  0  0  0  0
   37.7350   28.3080   40.9020 C   0  0  0  0  0  2  0  0  0  0  0  0
  2  1  1  0  0  0  0
  2  7  1  0  0  0  0
  3  2  2  0  0  0  0
  4  3  1  0  0  0  0
  4  5  2  0  0  0  0
  5  6  1  0  0  0  0
  6  7  2  0  0  0  0
  6 10  1  0  0  0  0
  7 20  1  0  0  0  0
  8  4  1  0  0  0  0
  9  5  1  0  0  0  0
 11 16  1  0  0  0  0
 11 17  1  0  0  0  0
 12 11  2  0  0  0  0
 13 14  2  0  0  0  0
 13 12  1  0  0  0  0
 14 15  1  0  0  0  0
 15  3  1  0  0  0  0
 15 16  2  0  0  0  0
 18 12  1  0  0  0  0
 19 13  1  0  0  0  0
 20 21  1  0  0  0  0
 21 22  1  0  0  0  0
 23 22  1  0  0  0  0
 23 24  1  0  0  0  0
 25 23  1  0  0  0  0
 26 20  1  0  0  0  0
 26 25  1  0  0  0  0
M  END
>  <minimizedAffinity>
-5.04750395

$$$$

 OpenBabel03242510103D

 26 28  0  0  0  0  0  0  0  0999 V2000
   40.3890   29.1300   41.2320 Br  0  0  0  0  0  0  0  0  0  0  0  0
   38.4850   29.2410   41.0750 C   0  0  0  0  0  0  0  0  0  0  0  0
   37.8990   30.3670   40.5710 C   0  0  0  0  0  0  0  0  0  0  0  0
   36.5010   30.4650   40.4490 C   0  0  0  0  0  0  0  0  0  0  0  0
   35.7560   29.3910   40.8540 C   0  0  0  0  0  0  0  0  0  0  0  0
   36.3860   28.2760   41.3550 C   0  0  0  0  0  0  0  0  0  0  0  0
   37.7430   28.1590   41.4830 C   0  0  0  0  0  0  0  0  0  0  0  0
   36.0630   31.3690   40.0470 H   0  0  0  0  0  0  0  0  0  0  0  0
   34.6760   29.4450   40.7680 H   0  0  0  0  0  0  0  0  0  0  0  0
   35.7670   27.4450   41.6650 H   0  0  0  0  0  0  0  0  0  0  0  0
   39.7240   33.5390   40.6420 C   0  0  0  0  0  0  0  0  0  0  0  0
   40.3550   33.5930   39.3800 C   0  0  0  0  0  0  0  0  0  0  0  0
   40.1300   32.5140   38.5260 C   0  0  0  0  0  0  0  0  0  0  0  0
   39.3370   31.4940   38.9370 N   0  0  0  0  0  0  0  0  0  0  0  0
   38.7430   31.4730   40.1600 C   0  0  0  0  0  0  0  0  0  0  0  0
   38.9490   32.5100   41.0020 N   0  0  0  0  0  0  0  0  0  0  0  0
   39.8600   34.3530   41.3580 H   0  0  0  0  0  0  0  0  0  0  0  0
   40.9750   34.4360   39.1160 H   0  0  0  0  0  0  0  0  0  0  0  0
   40.5970   32.5170   37.5490 H   0  0  0  0  0  0  0  0  0  0  0  0
   38.2830   26.9550   42.0150 N   0  0  0  0  0  0  0  0  0  0  0  0
   38.6480   25.7470   41.2980 C   0  0  0  0  0  2  0  0  0  0  0  0
   38.5300   24.6050   42.2850 C   0  0  0  0  0  2  0  0  0  0  0  0
   39.6600   24.7020   43.2960 C   0  0  0  0  0  3  0  0  0  0  0  0
   40.5540   24.2450   42.8540 H   0  0  0  0  0  0  0  0  0  0  0  0
   39.8280   26.1520   43.6720 C   0  0  0  0  0  2  0  0  0  0  0  0
   38.5090   26.9050   43.4680 C   0  0  0  0  0  2  0  0  0  0  0  0
  2  1  1  0  0  0  0
  2  7  1  0  0  0  0
  3  2  2  0  0  0  0
  4  3  1  0  0  0  0
  4  5  2  0  0  0  0
  5  6  1  0  0  0  0
  6  7  2  0  0  0  0
  6 10  1  0  0  0  0
  7 20  1  0  0  0  0
  8  4  1  0  0  0  0
  9  5  1  0  0  0  0
 11 16  1  0  0  0  0
 11 17  1  0  0  0  0
 12 11  2  0  0  0  0
 13 14  2  0  0  0  0
 13 12  1  0  0  0  0
 14 15  1  0  0  0  0
 15  3  1  0  0  0  0
 15 16  2  0  0  0  0
 18 12  1  0  0  0  0
 19 13  1  0  0  0  0
 20 26  1  0  0  0  0
 21 20  1  0  0  0  0
 21 22  1  0  0  0  0
 22 23  1  0  0  0  0
 23 25  1  0  0  0  0
 24 23  1  0  0  0  0
 26 25  1  0  0  0  0
M  END
>  <minimizedAffinity>
-4.97302818

$$$$

 OpenBabel03242510103D

 26 28  0  0  0  0  0  0  0  0999 V2000
   38.7200   28.2270   39.3500 Br  0  0  0  0  0  0  0  0  0  0  0  0
   38.0620   27.9780   41.1290 C   0  0  0  0  0  0  0  0  0  0  0  0
   37.8330   29.0550   41.9370 C   0  0  0  0  0  0  0  0  0  0  0  0
   37.3500   28.8900   43.2480 C   0  0  0  0  0  0  0  0  0  0  0  0
   37.1220   27.6120   43.6790 C   0  0  0  0  0  0  0  0  0  0  0  0
   37.3660   26.5550   42.8350 C   0  0  0  0  0  0  0  0  0  0  0  0
   37.8350   26.6920   41.5570 C   0  0  0  0  0  0  0  0  0  0  0  0
   37.1770   29.7610   43.8660 H   0  0  0  0  0  0  0  0  0  0  0  0
   36.7490   27.4620   44.6870 H   0  0  0  0  0  0  0  0  0  0  0  0
   37.1740   25.5580   43.2080 H   0  0  0  0  0  0  0  0  0  0  0  0
   37.3420   32.2850   40.2870 C   0  0  0  0  0  0  0  0  0  0  0  0
   38.5890   32.9320   40.4340 C   0  0  0  0  0  0  0  0  0  0  0  0
   39.5810   32.2240   41.1120 C   0  0  0  0  0  0  0  0  0  0  0  0
   39.3070   30.9810   41.5820 N   0  0  0  0  0  0  0  0  0  0  0  0
   38.0950   30.3860   41.4230 C   0  0  0  0  0  0  0  0  0  0  0  0
   37.1210   31.0570   40.7690 N   0  0  0  0  0  0  0  0  0  0  0  0
   36.5230   32.7870   39.7660 H   0  0  0  0  0  0  0  0  0  0  0  0
   38.7390   33.9240   40.0350 H   0  0  0  0  0  0  0  0  0  0  0  0
   40.5500   32.6850   41.2470 H   0  0  0  0  0  0  0  0  0  0  0  0
   38.0510   25.5240   40.7730 N   0  0  0  0  0  0  0  0  0  0  0  0
   39.2810   24.7700   40.6160 C   0  0  0  0  0  2  0  0  0  0  0  0
   39.2020   24.0880   39.2670 C   0  0  0  0  0  2  0  0  0  0  0  0
   38.1760   22.9690   39.3350 C   0  0  0  0  0  3  0  0  0  0  0  0
   38.6610   22.0860   39.7670 H   0  0  0  0  0  0  0  0  0  0  0  0
   36.9900   23.4700   40.1190 C   0  0  0  0  0  2  0  0  0  0  0  0
   36.9020   24.9970   40.0220 C   0  0  0  0  0  2  0  0  0  0  0  0
  1  2  1  0  0  0  0
  2  7  2  0  0  0  0
  2  3  1  0  0  0  0
  3  4  2  0  0  0  0
  4  5  1  0  0  0  0
  4  8  1  0  0  0  0
  5  9  1  0  0  0  0
  6 10  1  0  0  0  0
  6  5  2  0  0  0  0
  7  6  1  0  0  0  0
 11 12  2  0  0  0  0
 11 16  1  0  0  0  0
 12 13  1  0  0  0  0
 13 19  1  0  0  0  0
 13 14  2  0  0  0  0
 15 14  1  0  0  0  0
 15  3  1  0  0  0  0
 16 15  2  0  0  0  0
 17 11  1  0  0  0  0
 18 12  1  0  0  0  0
 20  7  1  0  0  0  0
 21 20  1  0  0  0  0
 22 23  1  0  0  0  0
 22 21  1  0  0  0  0
 23 24  1  0  0  0  0
 23 25  1  0  0  0  0
 26 25  1  0  0  0  0
 26 20  1  0  0  0  0
M  END
>  <minimizedAffinity>
-4.86868811

$$$$

 OpenBabel03242510103D

 26 28  0  0  0  0  0  0  0  0999 V2000
   40.4790   29.6350   40.2020 Br  0  0  0  0  0  0  0  0  0  0  0  0
   39.0140   30.8580   40.0670 C   0  0  0  0  0  0  0  0  0  0  0  0
   37.8300   30.5880   40.6930 C   0  0  0  0  0  0  0  0  0  0  0  0
   36.7430   31.4760   40.6040 C   0  0  0  0  0  0  0  0  0  0  0  0
   36.9180   32.6150   39.8660 C   0  0  0  0  0  0  0  0  0  0  0  0
   38.1250   32.8480   39.2510 C   0  0  0  0  0  0  0  0  0  0  0  0
   39.1950   32.0000   39.3250 C   0  0  0  0  0  0  0  0  0  0  0  0
   35.8170   31.2380   41.1100 H   0  0  0  0  0  0  0  0  0  0  0  0
   36.0920   33.3140   39.7850 H   0  0  0  0  0  0  0  0  0  0  0  0
   38.2290   33.7590   38.6760 H   0  0  0  0  0  0  0  0  0  0  0  0
   37.1900   27.0850   41.5380 C   0  0  0  0  0  0  0  0  0  0  0  0
   37.4650   27.0150   42.9210 C   0  0  0  0  0  0  0  0  0  0  0  0
   37.8730   28.2000   43.5340 C   0  0  0  0  0  0  0  0  0  0  0  0
   37.9800   29.3300   42.7920 N   0  0  0  0  0  0  0  0  0  0  0  0
   37.7060   29.3630   41.4610 C   0  0  0  0  0  0  0  0  0  0  0  0
   37.3100   28.2250   40.8490 N   0  0  0  0  0  0  0  0  0  0  0  0
   36.8670   26.1920   40.9990 H   0  0  0  0  0  0  0  0  0  0  0  0
   37.3600   26.0820   43.4520 H   0  0  0  0  0  0  0  0  0  0  0  0
   38.0940   28.1890   44.5930 H   0  0  0  0  0  0  0  0  0  0  0  0
   40.3970   32.3460   38.6460 N   0  0  0  0  0  0  0  0  0  0  0  0
   40.7930   31.9880   37.2960 C   0  0  0  0  0  2  0  0  0  0  0  0
   42.3070   31.9960   37.2720 C   0  0  0  0  0  2  0  0  0  0  0  0
   42.7990   33.4310   37.3550 C   0  0  0  0  0  3  0  0  0  0  0  0
   42.7690   33.8610   36.3470 H   0  0  0  0  0  0  0  0  0  0  0  0
   41.9490   34.1590   38.3650 C   0  0  0  0  0  2  0  0  0  0  0  0
   41.3710   33.1670   39.3800 C   0  0  0  0  0  2  0  0  0  0  0  0
  2  1  1  0  0  0  0
  2  3  1  0  0  0  0
  3 15  1  0  0  0  0
  4  3  2  0  0  0  0
  4  8  1  0  0  0  0
  5  4  1  0  0  0  0
  6  7  1  0  0  0  0
  6  5  2  0  0  0  0
  7  2  2  0  0  0  0
  9  5  1  0  0  0  0
 10  6  1  0  0  0  0
 11 12  1  0  0  0  0
 12 18  1  0  0  0  0
 12 13  2  0  0  0  0
 13 19  1  0  0  0  0
 14 13  1  0  0  0  0
 15 14  2  0  0  0  0
 16 15  1  0  0  0  0
 16 11  2  0  0  0  0
 17 11  1  0  0  0  0
 20  7  1  0  0  0  0
 20 26  1  0  0  0  0
 21 20  1  0  0  0  0
 22 21  1  0  0  0  0
 22 23  1  0  0  0  0
 23 25  1  0  0  0  0
 24 23  1  0  0  0  0
 25 26  1  0  0  0  0
M  END
>  <minimizedAffinity>
-4.84943485

$$$$

 OpenBabel03242510103D

 26 28  0  0  0  0  0  0  0  0999 V2000
   38.4030   28.2360   39.2620 Br  0  0  0  0  0  0  0  0  0  0  0  0
   37.8570   27.9720   41.0760 C   0  0  0  0  0  0  0  0  0  0  0  0
   37.7810   29.0310   41.9350 C   0  0  0  0  0  0  0  0  0  0  0  0
   37.3820   28.8550   43.2720 C   0  0  0  0  0  0  0  0  0  0  0  0
   37.0740   27.5840   43.6750 C   0  0  0  0  0  0  0  0  0  0  0  0
   37.1640   26.5450   42.7790 C   0  0  0  0  0  0  0  0  0  0  0  0
   37.5490   26.6940   41.4750 C   0  0  0  0  0  0  0  0  0  0  0  0
   37.3310   29.7110   43.9310 H   0  0  0  0  0  0  0  0  0  0  0  0
   36.7640   27.4250   44.7020 H   0  0  0  0  0  0  0  0  0  0  0  0
   36.9130   25.5540   43.1310 H   0  0  0  0  0  0  0  0  0  0  0  0
   39.7120   32.0430   41.1630 C   0  0  0  0  0  0  0  0  0  0  0  0
   38.7790   32.8860   40.5190 C   0  0  0  0  0  0  0  0  0  0  0  0
   37.4880   32.3820   40.3660 C   0  0  0  0  0  0  0  0  0  0  0  0
   37.1990   31.1410   40.8310 N   0  0  0  0  0  0  0  0  0  0  0  0
   38.1210   30.3550   41.4480 C   0  0  0  0  0  0  0  0  0  0  0  0
   39.3780   30.8260   41.6050 N   0  0  0  0  0  0  0  0  0  0  0  0
   40.7400   32.3790   41.3130 H   0  0  0  0  0  0  0  0  0  0  0  0
   39.0770   33.8640   40.1720 H   0  0  0  0  0  0  0  0  0  0  0  0
   36.7430   32.9970   39.8770 H   0  0  0  0  0  0  0  0  0  0  0  0
   37.6050   25.5440   40.6380 N   0  0  0  0  0  0  0  0  0  0  0  0
   36.5830   25.0490   39.7340 C   0  0  0  0  0  2  0  0  0  0  0  0
   36.8060   23.5570   39.6020 C   0  0  0  0  0  2  0  0  0  0  0  0
   38.0660   23.3130   38.7880 C   0  0  0  0  0  3  0  0  0  0  0  0
   37.8040   23.3810   37.7250 H   0  0  0  0  0  0  0  0  0  0  0  0
   39.1100   24.3050   39.2330 C   0  0  0  0  0  2  0  0  0  0  0  0
   38.8380   24.7440   40.6760 C   0  0  0  0  0  2  0  0  0  0  0  0
  1  2  1  0  0  0  0
  2  7  2  0  0  0  0
  2  3  1  0  0  0  0
  3  4  2  0  0  0  0
  4  5  1  0  0  0  0
  4  8  1  0  0  0  0
  5  9  1  0  0  0  0
  6 10  1  0  0  0  0
  6  5  2  0  0  0  0
  7  6  1  0  0  0  0
 11 17  1  0  0  0  0
 11 16  1  0  0  0  0
 12 11  2  0  0  0  0
 13 12  1  0  0  0  0
 13 14  2  0  0  0  0
 14 15  1  0  0  0  0
 15 16  2  0  0  0  0
 15  3  1  0  0  0  0
 18 12  1  0  0  0  0
 19 13  1  0  0  0  0
 20 26  1  0  0  0  0
 20  7  1  0  0  0  0
 21 20  1  0  0  0  0
 22 21  1  0  0  0  0
 23 25  1  0  0  0  0
 23 22  1  0  0  0  0
 24 23  1  0  0  0  0
 25 26  1  0  0  0  0
M  END
>  <minimizedAffinity>
-4.80805635

$$$$

 OpenBabel03242510103D

 26 28  0  0  0  0  0  0  0  0999 V2000
   37.7480   27.1320   39.4320 Br  0  0  0  0  0  0  0  0  0  0  0  0
   38.5300   27.0500   41.1760 C   0  0  0  0  0  0  0  0  0  0  0  0
   38.9390   25.8530   41.6940 C   0  0  0  0  0  0  0  0  0  0  0  0
   39.5150   25.7750   42.9740 C   0  0  0  0  0  0  0  0  0  0  0  0
   39.6490   26.9420   43.6770 C   0  0  0  0  0  0  0  0  0  0  0  0
   39.2240   28.1250   43.1200 C   0  0  0  0  0  0  0  0  0  0  0  0
   38.6620   28.2240   41.8770 C   0  0  0  0  0  0  0  0  0  0  0  0
   39.8300   24.8150   43.3600 H   0  0  0  0  0  0  0  0  0  0  0  0
   40.0910   26.9040   44.6670 H   0  0  0  0  0  0  0  0  0  0  0  0
   39.3450   29.0280   43.7030 H   0  0  0  0  0  0  0  0  0  0  0  0
   37.5860   22.6850   40.4580 C   0  0  0  0  0  0  0  0  0  0  0  0
   38.4400   22.3490   39.3850 C   0  0  0  0  0  0  0  0  0  0  0  0
   39.4770   23.2420   39.1120 C   0  0  0  0  0  0  0  0  0  0  0  0
   39.6110   24.3570   39.8710 N   0  0  0  0  0  0  0  0  0  0  0  0
   38.7700   24.6510   40.8990 C   0  0  0  0  0  0  0  0  0  0  0  0
   37.7590   23.7980   41.1790 N   0  0  0  0  0  0  0  0  0  0  0  0
   36.7550   22.0270   40.7220 H   0  0  0  0  0  0  0  0  0  0  0  0
   38.2770   21.4440   38.8200 H   0  0  0  0  0  0  0  0  0  0  0  0
   40.1530   23.0210   38.2970 H   0  0  0  0  0  0  0  0  0  0  0  0
   38.2600   29.5040   41.4040 N   0  0  0  0  0  0  0  0  0  0  0  0
   39.0150   30.4260   40.5750 C   0  0  0  0  0  2  0  0  0  0  0  0
   38.4970   31.8140   40.8870 C   0  0  0  0  0  2  0  0  0  0  0  0
   37.1010   31.9670   40.3050 C   0  0  0  0  0  3  0  0  0  0  0  0
   37.2010   32.2280   39.2440 H   0  0  0  0  0  0  0  0  0  0  0  0
   36.3460   30.6870   40.5580 C   0  0  0  0  0  2  0  0  0  0  0  0
   36.9190   29.9720   41.7870 C   0  0  0  0  0  2  0  0  0  0  0  0
  1  2  1  0  0  0  0
  2  3  2  0  0  0  0
  2  7  1  0  0  0  0
  3  4  1  0  0  0  0
  4  8  1  0  0  0  0
  4  5  2  0  0  0  0
  5  9  1  0  0  0  0
  6  5  1  0  0  0  0
  6 10  1  0  0  0  0
  7  6  2  0  0  0  0
 11 17  1  0  0  0  0
 11 16  1  0  0  0  0
 12 11  2  0  0  0  0
 13 12  1  0  0  0  0
 13 14  2  0  0  0  0
 14 15  1  0  0  0  0
 15 16  2  0  0  0  0
 15  3  1  0  0  0  0
 18 12  1  0  0  0  0
 19 13  1  0  0  0  0
 20 26  1  0  0  0  0
 20  7  1  0  0  0  0
 21 22  1  0  0  0  0
 21 20  1  0  0  0  0
 23 25  1  0  0  0  0
 23 22  1  0  0  0  0
 24 23  1  0  0  0  0
 25 26  1  0  0  0  0
M  END
>  <minimizedAffinity>
-4.72726202

$$$$

 OpenBabel03242510103D

 26 28  0  0  0  0  0  0  0  0999 V2000
   39.8030   26.9140   40.3870 Br  0  0  0  0  0  0  0  0  0  0  0  0
   38.5140   27.3220   41.7400 C   0  0  0  0  0  0  0  0  0  0  0  0
   38.6360   28.4580   42.4900 C   0  0  0  0  0  0  0  0  0  0  0  0
   37.6980   28.7730   43.4900 C   0  0  0  0  0  0  0  0  0  0  0  0
   36.6620   27.8990   43.6790 C   0  0  0  0  0  0  0  0  0  0  0  0
   36.5750   26.7680   42.9030 C   0  0  0  0  0  0  0  0  0  0  0  0
   37.4760   26.4420   41.9270 C   0  0  0  0  0  0  0  0  0  0  0  0
   37.8190   29.6780   44.0680 H   0  0  0  0  0  0  0  0  0  0  0  0
   35.9270   28.1230   44.4440 H   0  0  0  0  0  0  0  0  0  0  0  0
   35.7430   26.0990   43.0800 H   0  0  0  0  0  0  0  0  0  0  0  0
   40.6290   31.2280   41.1660 C   0  0  0  0  0  0  0  0  0  0  0  0
   41.8970   31.0450   41.7600 C   0  0  0  0  0  0  0  0  0  0  0  0
   42.0310   29.9520   42.6160 C   0  0  0  0  0  0  0  0  0  0  0  0
   40.9660   29.1400   42.8300 N   0  0  0  0  0  0  0  0  0  0  0  0
   39.7580   29.3440   42.2420 C   0  0  0  0  0  0  0  0  0  0  0  0
   39.6080   30.3990   41.4080 N   0  0  0  0  0  0  0  0  0  0  0  0
   40.4590   32.0650   40.4860 H   0  0  0  0  0  0  0  0  0  0  0  0
   42.7030   31.7300   41.5460 H   0  0  0  0  0  0  0  0  0  0  0  0
   42.9870   29.7780   43.0920 H   0  0  0  0  0  0  0  0  0  0  0  0
   37.2840   25.2420   41.1860 N   0  0  0  0  0  0  0  0  0  0  0  0
   36.6250   25.0830   39.9020 C   0  0  0  0  0  2  0  0  0  0  0  0
   36.1010   23.6630   39.8570 C   0  0  0  0  0  2  0  0  0  0  0  0
   37.2720   22.7050   39.7100 C   0  0  0  0  0  3  0  0  0  0  0  0
   37.5400   22.6540   38.6480 H   0  0  0  0  0  0  0  0  0  0  0  0
   38.3840   23.1860   40.6070 C   0  0  0  0  0  2  0  0  0  0  0  0
   37.8080   23.9990   41.7710 C   0  0  0  0  0  2  0  0  0  0  0  0
  1  2  1  0  0  0  0
  2  7  2  0  0  0  0
  2  3  1  0  0  0  0
  3  4  2  0  0  0  0
  4  5  1  0  0  0  0
  4  8  1  0  0  0  0
  5  9  1  0  0  0  0
  6 10  1  0  0  0  0
  6  5  2  0  0  0  0
  7  6  1  0  0  0  0
 11 16  2  0  0  0  0
 11 12  1  0  0  0  0
 12 13  2  0  0  0  0
 13 14  1  0  0  0  0
 13 19  1  0  0  0  0
 15  3  1  0  0  0  0
 15 14  2  0  0  0  0
 16 15  1  0  0  0  0
 17 11  1  0  0  0  0
 18 12  1  0  0  0  0
 20 26  1  0  0  0  0
 20  7  1  0  0  0  0
 21 20  1  0  0  0  0
 22 21  1  0  0  0  0
 23 22  1  0  0  0  0
 23 25  1  0  0  0  0
 24 23  1  0  0  0  0
 25 26  1  0  0  0  0
M  END
>  <minimizedAffinity>
-4.68099785

$$$$
