
 OpenBabel03252508433D

 29 31  0  0  0  0  0  0  0  0999 V2000
   37.2890   31.0740   38.4390 C   0  0  0  0  0  0  0  0  0  0  0  0
   36.4390   30.2280   39.1480 C   0  0  0  0  0  0  0  0  0  0  0  0
   35.6860   29.2990   38.4690 C   0  0  0  0  0  0  0  0  0  0  0  0
   35.7910   29.2270   37.1110 C   0  0  0  0  0  0  0  0  0  0  0  0
   36.6070   30.0300   36.3720 C   0  0  0  0  0  0  0  0  0  0  0  0
   37.3530   30.9580   37.1030 C   0  0  0  0  0  0  0  0  0  0  0  0
   35.0160   28.6270   38.9930 H   0  0  0  0  0  0  0  0  0  0  0  0
   35.1990   28.4920   36.5550 H   0  0  0  0  0  0  0  0  0  0  0  0
   36.7170   30.0010   35.2880 H   0  0  0  0  0  0  0  0  0  0  0  0
   38.0390   31.6550   36.6330 H   0  0  0  0  0  0  0  0  0  0  0  0
   38.4080   34.1610   40.3120 C   0  0  0  0  0  0  0  0  0  0  0  0
   37.5760   33.3090   39.5510 C   0  0  0  0  0  0  0  0  0  0  0  0
   38.0570   32.0330   39.2200 C   0  0  0  0  0  0  0  0  0  0  0  0
   39.2880   31.6860   39.6460 N   0  0  0  0  0  0  0  0  0  0  0  0
   40.0670   32.5280   40.3790 C   0  0  0  0  0  0  0  0  0  0  0  0
   39.6220   33.7630   40.7080 N   0  0  0  0  0  0  0  0  0  0  0  0
   37.8710   35.0890   40.4660 H   0  0  0  0  0  0  0  0  0  0  0  0
   36.6000   33.5010   39.1770 H   0  0  0  0  0  0  0  0  0  0  0  0
   41.0490   32.2700   40.7280 H   0  0  0  0  0  0  0  0  0  0  0  0
   36.3570   30.3480   40.6470 C   0  0  0  0  0  0  0  0  0  0  0  0
   36.7990   31.3320   40.8980 H   0  0  0  0  0  0  0  0  0  0  0  0
   35.2890   30.2980   40.9360 H   0  0  0  0  0  0  0  0  0  0  0  0
   37.0530   29.2630   41.2890 N   0  0  0  0  0  0  0  0  0  0  0  0
   37.9470   29.6500   42.3150 C   0  0  0  0  0  2  0  0  0  0  0  0
   37.8060   28.9190   43.6110 C   0  0  0  0  0  2  0  0  0  0  0  0
   37.4760   27.4660   43.4850 C   0  0  0  0  0  3  0  0  0  0  0  0
   38.3420   26.8090   43.7370 H   0  0  0  0  0  0  0  0  0  0  0  0
   37.0120   27.0650   42.1080 C   0  0  0  0  0  2  0  0  0  0  0  0
   36.1230   28.2260   41.6400 C   0  0  0  0  0  2  0  0  0  0  0  0
  1  2  1  0  0  0  0
  1 13  1  0  0  0  0
  2 20  1  0  0  0  0
  3  7  1  0  0  0  0
  3  2  2  0  0  0  0
  4  3  1  0  0  0  0
  5  6  1  0  0  0  0
  5  4  2  0  0  0  0
  6  1  2  0  0  0  0
  8  4  1  0  0  0  0
  9  5  1  0  0  0  0
 10  6  1  0  0  0  0
 11 17  1  0  0  0  0
 11 16  1  0  0  0  0
 12 11  2  0  0  0  0
 13 12  1  0  0  0  0
 13 14  2  0  0  0  0
 14 15  1  0  0  0  0
 15 16  2  0  0  0  0
 15 19  1  0  0  0  0
 18 12  1  0  0  0  0
 20 21  1  0  0  0  0
 20 22  1  0  0  0  0
 20 23  1  0  0  0  0
 23 29  1  0  0  0  0
 23 24  1  0  0  0  0
 24 25  1  0  0  0  0
 26 25  1  0  0  0  0
 26 27  1  0  0  0  0
 28 26  1  0  0  0  0
 29 28  1  0  0  0  0
M  END
>  <minimizedAffinity>
-5.52873421

$$$$

 OpenBabel03252508433D

 29 31  0  0  0  0  0  0  0  0999 V2000
   36.9420   30.6310   38.9290 C   0  0  0  0  0  0  0  0  0  0  0  0
   36.5660   29.7680   39.9560 C   0  0  0  0  0  0  0  0  0  0  0  0
   35.7250   28.7150   39.6820 C   0  0  0  0  0  0  0  0  0  0  0  0
   35.2780   28.5390   38.4060 C   0  0  0  0  0  0  0  0  0  0  0  0
   35.6170   29.3550   37.3680 C   0  0  0  0  0  0  0  0  0  0  0  0
   36.4730   30.4110   37.6910 C   0  0  0  0  0  0  0  0  0  0  0  0
   35.4160   28.0270   40.4610 H   0  0  0  0  0  0  0  0  0  0  0  0
   34.6090   27.7050   38.1700 H   0  0  0  0  0  0  0  0  0  0  0  0
   35.2800   29.2460   36.3370 H   0  0  0  0  0  0  0  0  0  0  0  0
   36.8160   31.1290   36.9560 H   0  0  0  0  0  0  0  0  0  0  0  0
   38.3280   33.9570   40.0720 C   0  0  0  0  0  0  0  0  0  0  0  0
   37.3730   32.9650   39.7550 C   0  0  0  0  0  0  0  0  0  0  0  0
   37.8340   31.7250   39.2880 C   0  0  0  0  0  0  0  0  0  0  0  0
   39.1650   31.5440   39.1680 N   0  0  0  0  0  0  0  0  0  0  0  0
   40.0620   32.5180   39.4820 C   0  0  0  0  0  0  0  0  0  0  0  0
   39.6380   33.7210   39.9330 N   0  0  0  0  0  0  0  0  0  0  0  0
   37.7890   34.8330   40.4110 H   0  0  0  0  0  0  0  0  0  0  0  0
   36.3140   33.0240   39.8200 H   0  0  0  0  0  0  0  0  0  0  0  0
   41.1240   32.3930   39.3940 H   0  0  0  0  0  0  0  0  0  0  0  0
   37.0850   30.0050   41.3500 C   0  0  0  0  0  0  0  0  0  0  0  0
   37.7640   30.8770   41.2770 H   0  0  0  0  0  0  0  0  0  0  0  0
   36.2190   30.2190   42.0050 H   0  0  0  0  0  0  0  0  0  0  0  0
   37.7580   28.8360   41.8540 N   0  0  0  0  0  0  0  0  0  0  0  0
   39.0340   28.5910   41.2920 C   0  0  0  0  0  2  0  0  0  0  0  0
   40.1380   28.3430   42.2680 C   0  0  0  0  0  2  0  0  0  0  0  0
   39.7470   27.5560   43.4780 C   0  0  0  0  0  3  0  0  0  0  0  0
   40.1500   26.5160   43.4590 H   0  0  0  0  0  0  0  0  0  0  0  0
   38.2570   27.4440   43.6750 C   0  0  0  0  0  2  0  0  0  0  0  0
   37.7050   28.8230   43.2900 C   0  0  0  0  0  2  0  0  0  0  0  0
  1 13  1  0  0  0  0
  1  2  1  0  0  0  0
  2 20  1  0  0  0  0
  3  2  2  0  0  0  0
  3  7  1  0  0  0  0
  4  3  1  0  0  0  0
  5  6  1  0  0  0  0
  5  4  2  0  0  0  0
  6  1  2  0  0  0  0
  8  4  1  0  0  0  0
  9  5  1  0  0  0  0
 10  6  1  0  0  0  0
 11 17  1  0  0  0  0
 12 18  1  0  0  0  0
 12 11  2  0  0  0  0
 13 12  1  0  0  0  0
 14 13  2  0  0  0  0
 14 15  1  0  0  0  0
 15 16  2  0  0  0  0
 16 11  1  0  0  0  0
 19 15  1  0  0  0  0
 20 23  1  0  0  0  0
 20 22  1  0  0  0  0
 21 20  1  0  0  0  0
 23 29  1  0  0  0  0
 24 23  1  0  0  0  0
 24 25  1  0  0  0  0
 25 26  1  0  0  0  0
 26 28  1  0  0  0  0
 27 26  1  0  0  0  0
 29 28  1  0  0  0  0
M  END
>  <minimizedAffinity>
-5.15263605

$$$$

 OpenBabel03252508433D

 29 31  0  0  0  0  0  0  0  0999 V2000
   37.4830   31.6940   39.2480 C   0  0  0  0  0  0  0  0  0  0  0  0
   38.4670   31.2550   40.1310 C   0  0  0  0  0  0  0  0  0  0  0  0
   39.1420   32.1710   40.9040 C   0  0  0  0  0  0  0  0  0  0  0  0
   38.8300   33.4930   40.7860 C   0  0  0  0  0  0  0  0  0  0  0  0
   37.8770   33.9730   39.9390 C   0  0  0  0  0  0  0  0  0  0  0  0
   37.2170   33.0080   39.1740 C   0  0  0  0  0  0  0  0  0  0  0  0
   39.9130   31.8590   41.6000 H   0  0  0  0  0  0  0  0  0  0  0  0
   39.3570   34.2360   41.3950 H   0  0  0  0  0  0  0  0  0  0  0  0
   37.6010   35.0210   39.8190 H   0  0  0  0  0  0  0  0  0  0  0  0
   36.4390   33.2600   38.4620 H   0  0  0  0  0  0  0  0  0  0  0  0
   35.1630   28.9380   38.1040 C   0  0  0  0  0  0  0  0  0  0  0  0
   35.7430   29.9050   38.9550 C   0  0  0  0  0  0  0  0  0  0  0  0
   36.8090   30.6720   38.4610 C   0  0  0  0  0  0  0  0  0  0  0  0
   37.2240   30.4460   37.1970 N   0  0  0  0  0  0  0  0  0  0  0  0
   36.6460   29.5070   36.4000 C   0  0  0  0  0  0  0  0  0  0  0  0
   35.6170   28.7570   36.8580 N   0  0  0  0  0  0  0  0  0  0  0  0
   34.3660   28.4540   38.6540 H   0  0  0  0  0  0  0  0  0  0  0  0
   35.4790   30.1470   39.9560 H   0  0  0  0  0  0  0  0  0  0  0  0
   36.9610   29.3130   35.3930 H   0  0  0  0  0  0  0  0  0  0  0  0
   38.7770   29.7840   40.2230 C   0  0  0  0  0  0  0  0  0  0  0  0
   38.0190   29.2740   39.5960 H   0  0  0  0  0  0  0  0  0  0  0  0
   39.8000   29.6250   39.8310 H   0  0  0  0  0  0  0  0  0  0  0  0
   38.7390   29.3340   41.5900 N   0  0  0  0  0  0  0  0  0  0  0  0
   37.4530   29.3200   42.1800 C   0  0  0  0  0  2  0  0  0  0  0  0
   37.0660   28.0510   42.8680 C   0  0  0  0  0  2  0  0  0  0  0  0
   38.1760   27.3650   43.5990 C   0  0  0  0  0  3  0  0  0  0  0  0
   38.0770   27.4560   44.7070 H   0  0  0  0  0  0  0  0  0  0  0  0
   39.5470   27.8750   43.2390 C   0  0  0  0  0  2  0  0  0  0  0  0
   39.4920   28.1180   41.7250 C   0  0  0  0  0  2  0  0  0  0  0  0
  1  2  1  0  0  0  0
  2 20  1  0  0  0  0
  2  3  2  0  0  0  0
  3  7  1  0  0  0  0
  4  3  1  0  0  0  0
  4  8  1  0  0  0  0
  5  4  2  0  0  0  0
  6  1  2  0  0  0  0
  6  5  1  0  0  0  0
  9  5  1  0  0  0  0
 10  6  1  0  0  0  0
 11 17  1  0  0  0  0
 11 12  1  0  0  0  0
 12 18  1  0  0  0  0
 13 12  2  0  0  0  0
 13  1  1  0  0  0  0
 14 13  1  0  0  0  0
 15 16  1  0  0  0  0
 15 14  2  0  0  0  0
 16 11  2  0  0  0  0
 19 15  1  0  0  0  0
 20 23  1  0  0  0  0
 21 20  1  0  0  0  0
 22 20  1  0  0  0  0
 23 29  1  0  0  0  0
 23 24  1  0  0  0  0
 24 25  1  0  0  0  0
 25 26  1  0  0  0  0
 26 27  1  0  0  0  0
 28 26  1  0  0  0  0
 29 28  1  0  0  0  0
M  END
>  <minimizedAffinity>
-5.06879711

$$$$

 OpenBabel03252508433D

 29 31  0  0  0  0  0  0  0  0999 V2000
   37.5720   29.2640   41.6590 C   0  0  0  0  0  0  0  0  0  0  0  0
   37.1730   28.1620   40.9040 C   0  0  0  0  0  0  0  0  0  0  0  0
   36.8730   26.9800   41.5390 C   0  0  0  0  0  0  0  0  0  0  0  0
   36.9720   26.9130   42.8970 C   0  0  0  0  0  0  0  0  0  0  0  0
   37.3570   27.9610   43.6790 C   0  0  0  0  0  0  0  0  0  0  0  0
   37.6510   29.1420   42.9930 C   0  0  0  0  0  0  0  0  0  0  0  0
   36.5600   26.1060   40.9780 H   0  0  0  0  0  0  0  0  0  0  0  0
   36.7360   25.9790   43.4180 H   0  0  0  0  0  0  0  0  0  0  0  0
   37.4470   27.9450   44.7650 H   0  0  0  0  0  0  0  0  0  0  0  0
   37.9690   30.0470   43.5000 H   0  0  0  0  0  0  0  0  0  0  0  0
   37.3110   32.5970   39.8960 C   0  0  0  0  0  0  0  0  0  0  0  0
   36.9060   31.4520   40.6160 C   0  0  0  0  0  0  0  0  0  0  0  0
   37.8740   30.4840   40.9240 C   0  0  0  0  0  0  0  0  0  0  0  0
   39.1420   30.6980   40.5160 N   0  0  0  0  0  0  0  0  0  0  0  0
   39.5030   31.8130   39.8230 C   0  0  0  0  0  0  0  0  0  0  0  0
   38.5840   32.7570   39.5160 N   0  0  0  0  0  0  0  0  0  0  0  0
   36.4370   33.2210   39.7550 H   0  0  0  0  0  0  0  0  0  0  0  0
   35.9360   31.2050   40.9740 H   0  0  0  0  0  0  0  0  0  0  0  0
   40.5060   32.0020   39.4910 H   0  0  0  0  0  0  0  0  0  0  0  0
   37.0800   28.2850   39.4070 C   0  0  0  0  0  0  0  0  0  0  0  0
   37.2470   29.3560   39.1780 H   0  0  0  0  0  0  0  0  0  0  0  0
   37.8690   27.6480   38.9620 H   0  0  0  0  0  0  0  0  0  0  0  0
   35.8020   27.8240   38.9300 N   0  0  0  0  0  0  0  0  0  0  0  0
   34.7660   28.7870   38.9670 C   0  0  0  0  0  2  0  0  0  0  0  0
   33.9830   28.9510   37.7050 C   0  0  0  0  0  2  0  0  0  0  0  0
   33.7310   27.6860   36.9490 C   0  0  0  0  0  3  0  0  0  0  0  0
   32.6690   27.3510   37.0210 H   0  0  0  0  0  0  0  0  0  0  0  0
   34.5860   26.5290   37.3980 C   0  0  0  0  0  2  0  0  0  0  0  0
   35.9650   27.1430   37.6750 C   0  0  0  0  0  2  0  0  0  0  0  0
  1  6  1  0  0  0  0
  2  3  1  0  0  0  0
  2  1  2  0  0  0  0
  3  4  2  0  0  0  0
  4  8  1  0  0  0  0
  4  5  1  0  0  0  0
  5  9  1  0  0  0  0
  6 10  1  0  0  0  0
  6  5  2  0  0  0  0
  7  3  1  0  0  0  0
 11 12  1  0  0  0  0
 12 13  2  0  0  0  0
 12 18  1  0  0  0  0
 13  1  1  0  0  0  0
 14 13  1  0  0  0  0
 15 14  2  0  0  0  0
 16 15  1  0  0  0  0
 16 11  2  0  0  0  0
 17 11  1  0  0  0  0
 19 15  1  0  0  0  0
 20  2  1  0  0  0  0
 21 20  1  0  0  0  0
 22 20  1  0  0  0  0
 23 24  1  0  0  0  0
 23 20  1  0  0  0  0
 25 24  1  0  0  0  0
 26 27  1  0  0  0  0
 26 28  1  0  0  0  0
 26 25  1  0  0  0  0
 28 29  1  0  0  0  0
 29 23  1  0  0  0  0
M  END
>  <minimizedAffinity>
-4.95975256

$$$$

 OpenBabel03252508433D

 29 31  0  0  0  0  0  0  0  0999 V2000
   36.8240   30.5080   38.3920 C   0  0  0  0  0  0  0  0  0  0  0  0
   36.4500   30.3120   39.7190 C   0  0  0  0  0  0  0  0  0  0  0  0
   36.6580   31.3140   40.6380 C   0  0  0  0  0  0  0  0  0  0  0  0
   37.2290   32.4810   40.2260 C   0  0  0  0  0  0  0  0  0  0  0  0
   37.6130   32.7230   38.9400 C   0  0  0  0  0  0  0  0  0  0  0  0
   37.3810   31.6780   38.0410 C   0  0  0  0  0  0  0  0  0  0  0  0
   36.3770   31.1900   41.6780 H   0  0  0  0  0  0  0  0  0  0  0  0
   37.4020   33.2900   40.9440 H   0  0  0  0  0  0  0  0  0  0  0  0
   38.0710   33.6420   38.5740 H   0  0  0  0  0  0  0  0  0  0  0  0
   37.6410   31.7450   36.9910 H   0  0  0  0  0  0  0  0  0  0  0  0
   35.2010   28.0870   35.9850 C   0  0  0  0  0  0  0  0  0  0  0  0
   35.3320   29.1900   36.8590 C   0  0  0  0  0  0  0  0  0  0  0  0
   36.5750   29.4070   37.4730 C   0  0  0  0  0  0  0  0  0  0  0  0
   37.5800   28.5520   37.1960 N   0  0  0  0  0  0  0  0  0  0  0  0
   37.4250   27.4980   36.3490 C   0  0  0  0  0  0  0  0  0  0  0  0
   36.2350   27.2710   35.7480 N   0  0  0  0  0  0  0  0  0  0  0  0
   34.1840   28.0840   35.6130 H   0  0  0  0  0  0  0  0  0  0  0  0
   34.5970   29.9080   37.1300 H   0  0  0  0  0  0  0  0  0  0  0  0
   38.2130   26.8070   36.1160 H   0  0  0  0  0  0  0  0  0  0  0  0
   35.8240   29.0040   40.1260 C   0  0  0  0  0  0  0  0  0  0  0  0
   34.9780   29.2650   40.7920 H   0  0  0  0  0  0  0  0  0  0  0  0
   35.4750   28.4920   39.2090 H   0  0  0  0  0  0  0  0  0  0  0  0
   36.7850   28.1550   40.7830 N   0  0  0  0  0  0  0  0  0  0  0  0
   36.7780   28.2240   42.1960 C   0  0  0  0  0  2  0  0  0  0  0  0
   36.7200   26.9130   42.9110 C   0  0  0  0  0  2  0  0  0  0  0  0
   37.5000   25.8090   42.2710 C   0  0  0  0  0  3  0  0  0  0  0  0
   38.4260   25.5560   42.8400 H   0  0  0  0  0  0  0  0  0  0  0  0
   37.9230   26.1050   40.8560 C   0  0  0  0  0  2  0  0  0  0  0  0
   36.7240   26.8300   40.2300 C   0  0  0  0  0  2  0  0  0  0  0  0
  1  2  1  0  0  0  0
  2 20  1  0  0  0  0
  2  3  2  0  0  0  0
  3  7  1  0  0  0  0
  4  3  1  0  0  0  0
  4  8  1  0  0  0  0
  5  4  2  0  0  0  0
  6  1  2  0  0  0  0
  6  5  1  0  0  0  0
  9  5  1  0  0  0  0
 10  6  1  0  0  0  0
 11 12  1  0  0  0  0
 12 18  1  0  0  0  0
 12 13  2  0  0  0  0
 13  1  1  0  0  0  0
 14 13  1  0  0  0  0
 15 14  2  0  0  0  0
 16 11  2  0  0  0  0
 16 15  1  0  0  0  0
 17 11  1  0  0  0  0
 19 15  1  0  0  0  0
 20 23  1  0  0  0  0
 20 21  1  0  0  0  0
 22 20  1  0  0  0  0
 23 24  1  0  0  0  0
 24 25  1  0  0  0  0
 26 27  1  0  0  0  0
 26 25  1  0  0  0  0
 28 26  1  0  0  0  0
 29 23  1  0  0  0  0
 29 28  1  0  0  0  0
M  END
>  <minimizedAffinity>
-4.83401871

$$$$

 OpenBabel03252508433D

 29 31  0  0  0  0  0  0  0  0999 V2000
   36.9440   29.7980   38.4260 C   0  0  0  0  0  0  0  0  0  0  0  0
   36.6070   29.7180   39.7750 C   0  0  0  0  0  0  0  0  0  0  0  0
   35.3310   29.3530   40.1350 C   0  0  0  0  0  0  0  0  0  0  0  0
   34.4210   29.0760   39.1580 C   0  0  0  0  0  0  0  0  0  0  0  0
   34.7010   29.1390   37.8250 C   0  0  0  0  0  0  0  0  0  0  0  0
   36.0090   29.5140   37.5060 C   0  0  0  0  0  0  0  0  0  0  0  0
   35.0390   29.2820   41.1770 H   0  0  0  0  0  0  0  0  0  0  0  0
   33.4010   28.7840   39.4260 H   0  0  0  0  0  0  0  0  0  0  0  0
   34.0010   28.9260   37.0170 H   0  0  0  0  0  0  0  0  0  0  0  0
   36.3570   29.6010   36.4830 H   0  0  0  0  0  0  0  0  0  0  0  0
   40.6260   29.7560   37.5730 C   0  0  0  0  0  0  0  0  0  0  0  0
   39.3340   29.2630   37.8610 C   0  0  0  0  0  0  0  0  0  0  0  0
   38.3110   30.1900   38.1160 C   0  0  0  0  0  0  0  0  0  0  0  0
   38.6160   31.5030   38.0720 N   0  0  0  0  0  0  0  0  0  0  0  0
   39.8710   31.9480   37.7910 C   0  0  0  0  0  0  0  0  0  0  0  0
   40.8710   31.0710   37.5430 N   0  0  0  0  0  0  0  0  0  0  0  0
   41.2710   28.9020   37.4060 H   0  0  0  0  0  0  0  0  0  0  0  0
   39.0090   28.2530   37.9150 H   0  0  0  0  0  0  0  0  0  0  0  0
   40.1330   32.9880   37.7510 H   0  0  0  0  0  0  0  0  0  0  0  0
   37.6460   30.0350   40.8180 C   0  0  0  0  0  0  0  0  0  0  0  0
   38.5260   30.4180   40.2640 H   0  0  0  0  0  0  0  0  0  0  0  0
   37.2280   30.8050   41.4950 H   0  0  0  0  0  0  0  0  0  0  0  0
   37.9650   28.8680   41.5990 N   0  0  0  0  0  0  0  0  0  0  0  0
   37.3020   28.7820   42.8460 C   0  0  0  0  0  2  0  0  0  0  0  0
   36.6240   27.4820   43.1340 C   0  0  0  0  0  2  0  0  0  0  0  0
   37.3500   26.2690   42.6460 C   0  0  0  0  0  3  0  0  0  0  0  0
   37.8130   25.6860   43.4770 H   0  0  0  0  0  0  0  0  0  0  0  0
   38.4500   26.5740   41.6620 C   0  0  0  0  0  2  0  0  0  0  0  0
   37.8860   27.6930   40.7760 C   0  0  0  0  0  2  0  0  0  0  0  0
  1  2  1  0  0  0  0
  2  3  2  0  0  0  0
  2 20  1  0  0  0  0
  3  7  1  0  0  0  0
  4  8  1  0  0  0  0
  4  3  1  0  0  0  0
  5  4  2  0  0  0  0
  6  5  1  0  0  0  0
  6  1  2  0  0  0  0
  9  5  1  0  0  0  0
 10  6  1  0  0  0  0
 11 12  1  0  0  0  0
 12 18  1  0  0  0  0
 12 13  2  0  0  0  0
 13  1  1  0  0  0  0
 14 13  1  0  0  0  0
 15 14  2  0  0  0  0
 16 11  2  0  0  0  0
 16 15  1  0  0  0  0
 17 11  1  0  0  0  0
 19 15  1  0  0  0  0
 20 22  1  0  0  0  0
 20 23  1  0  0  0  0
 21 20  1  0  0  0  0
 23 24  1  0  0  0  0
 24 25  1  0  0  0  0
 26 25  1  0  0  0  0
 26 27  1  0  0  0  0
 28 26  1  0  0  0  0
 29 23  1  0  0  0  0
 29 28  1  0  0  0  0
M  END
>  <minimizedAffinity>
-4.82778358

$$$$

 OpenBabel03252508433D

 29 31  0  0  0  0  0  0  0  0999 V2000
   37.1840   30.7010   38.3500 C   0  0  0  0  0  0  0  0  0  0  0  0
   37.0000   30.3740   39.6910 C   0  0  0  0  0  0  0  0  0  0  0  0
   37.0330   31.3670   40.6420 C   0  0  0  0  0  0  0  0  0  0  0  0
   37.2450   32.6540   40.2480 C   0  0  0  0  0  0  0  0  0  0  0  0
   37.4310   33.0260   38.9500 C   0  0  0  0  0  0  0  0  0  0  0  0
   37.3890   31.9860   38.0180 C   0  0  0  0  0  0  0  0  0  0  0  0
   36.8920   31.1420   41.6940 H   0  0  0  0  0  0  0  0  0  0  0  0
   37.2740   33.4570   40.9920 H   0  0  0  0  0  0  0  0  0  0  0  0
   37.6030   34.0430   38.5970 H   0  0  0  0  0  0  0  0  0  0  0  0
   37.5220   32.1500   36.9540 H   0  0  0  0  0  0  0  0  0  0  0  0
   36.0230   28.0960   35.8690 C   0  0  0  0  0  0  0  0  0  0  0  0
   35.9530   29.1760   36.7770 C   0  0  0  0  0  0  0  0  0  0  0  0
   37.1370   29.6020   37.3960 C   0  0  0  0  0  0  0  0  0  0  0  0
   38.2830   28.9590   37.0910 N   0  0  0  0  0  0  0  0  0  0  0  0
   38.3200   27.9210   36.2110 C   0  0  0  0  0  0  0  0  0  0  0  0
   37.1890   27.4950   35.6040 N   0  0  0  0  0  0  0  0  0  0  0  0
   35.0220   27.9150   35.4980 H   0  0  0  0  0  0  0  0  0  0  0  0
   35.0980   29.7360   37.0730 H   0  0  0  0  0  0  0  0  0  0  0  0
   39.2210   27.3970   35.9550 H   0  0  0  0  0  0  0  0  0  0  0  0
   36.7700   28.9370   40.0780 C   0  0  0  0  0  0  0  0  0  0  0  0
   35.6710   28.7960   40.0880 H   0  0  0  0  0  0  0  0  0  0  0  0
   37.2530   28.2960   39.3140 H   0  0  0  0  0  0  0  0  0  0  0  0
   37.3630   28.6450   41.3570 N   0  0  0  0  0  0  0  0  0  0  0  0
   36.5390   27.9190   42.2480 C   0  0  0  0  0  2  0  0  0  0  0  0
   37.1620   26.7160   42.8780 C   0  0  0  0  0  2  0  0  0  0  0  0
   38.6080   26.8650   43.2310 C   0  0  0  0  0  3  0  0  0  0  0  0
   38.7700   26.9560   44.3310 H   0  0  0  0  0  0  0  0  0  0  0  0
   39.2700   28.0580   42.5910 C   0  0  0  0  0  2  0  0  0  0  0  0
   38.6870   28.1170   41.1730 C   0  0  0  0  0  2  0  0  0  0  0  0
  1  2  1  0  0  0  0
  2 20  1  0  0  0  0
  2  3  2  0  0  0  0
  3  7  1  0  0  0  0
  4  3  1  0  0  0  0
  4  8  1  0  0  0  0
  5  4  2  0  0  0  0
  6  1  2  0  0  0  0
  6  5  1  0  0  0  0
  9  5  1  0  0  0  0
 10  6  1  0  0  0  0
 11 12  1  0  0  0  0
 12 18  1  0  0  0  0
 12 13  2  0  0  0  0
 13  1  1  0  0  0  0
 14 13  1  0  0  0  0
 15 14  2  0  0  0  0
 16 11  2  0  0  0  0
 16 15  1  0  0  0  0
 17 11  1  0  0  0  0
 19 15  1  0  0  0  0
 20 21  1  0  0  0  0
 20 23  1  0  0  0  0
 22 20  1  0  0  0  0
 23 24  1  0  0  0  0
 24 25  1  0  0  0  0
 25 26  1  0  0  0  0
 26 27  1  0  0  0  0
 28 26  1  0  0  0  0
 29 23  1  0  0  0  0
 29 28  1  0  0  0  0
M  END
>  <minimizedAffinity>
-4.80968761

$$$$

 OpenBabel03252508433D

 29 31  0  0  0  0  0  0  0  0999 V2000
   38.6350   29.2200   42.0660 C   0  0  0  0  0  0  0  0  0  0  0  0
   37.2530   29.0870   41.9520 C   0  0  0  0  0  0  0  0  0  0  0  0
   36.6000   28.1310   42.6950 C   0  0  0  0  0  0  0  0  0  0  0  0
   37.3250   27.3340   43.5300 C   0  0  0  0  0  0  0  0  0  0  0  0
   38.6770   27.4240   43.6770 C   0  0  0  0  0  0  0  0  0  0  0  0
   39.2980   28.4080   42.9040 C   0  0  0  0  0  0  0  0  0  0  0  0
   35.5260   28.0050   42.6280 H   0  0  0  0  0  0  0  0  0  0  0  0
   36.8220   26.5680   44.1300 H   0  0  0  0  0  0  0  0  0  0  0  0
   39.2890   26.8050   44.3340 H   0  0  0  0  0  0  0  0  0  0  0  0
   40.3680   28.5810   42.9300 H   0  0  0  0  0  0  0  0  0  0  0  0
   40.5290   31.0500   39.3540 C   0  0  0  0  0  0  0  0  0  0  0  0
   39.9580   29.9710   40.0650 C   0  0  0  0  0  0  0  0  0  0  0  0
   39.2610   30.2510   41.2510 C   0  0  0  0  0  0  0  0  0  0  0  0
   39.1720   31.5360   41.6490 N   0  0  0  0  0  0  0  0  0  0  0  0
   39.7330   32.5560   40.9430 C   0  0  0  0  0  0  0  0  0  0  0  0
   40.4090   32.3070   39.7980 N   0  0  0  0  0  0  0  0  0  0  0  0
   41.0180   30.6420   38.4780 H   0  0  0  0  0  0  0  0  0  0  0  0
   39.9800   28.9360   39.8240 H   0  0  0  0  0  0  0  0  0  0  0  0
   39.6730   33.5850   41.2430 H   0  0  0  0  0  0  0  0  0  0  0  0
   36.4960   29.9910   41.0150 C   0  0  0  0  0  0  0  0  0  0  0  0
   35.5160   30.1780   41.4970 H   0  0  0  0  0  0  0  0  0  0  0  0
   37.0770   30.9270   40.9000 H   0  0  0  0  0  0  0  0  0  0  0  0
   36.3530   29.3840   39.7170 N   0  0  0  0  0  0  0  0  0  0  0  0
   35.2180   28.5520   39.5670 C   0  0  0  0  0  2  0  0  0  0  0  0
   34.3730   28.8130   38.3630 C   0  0  0  0  0  2  0  0  0  0  0  0
   35.1300   29.1860   37.1290 C   0  0  0  0  0  3  0  0  0  0  0  0
   35.1440   28.3660   36.3720 H   0  0  0  0  0  0  0  0  0  0  0  0
   36.5650   29.5660   37.3880 C   0  0  0  0  0  2  0  0  0  0  0  0
   36.5290   30.3750   38.6910 C   0  0  0  0  0  2  0  0  0  0  0  0
  1  6  1  0  0  0  0
  2  1  2  0  0  0  0
  2  3  1  0  0  0  0
  3  4  2  0  0  0  0
  4  5  1  0  0  0  0
  4  8  1  0  0  0  0
  5  9  1  0  0  0  0
  6 10  1  0  0  0  0
  6  5  2  0  0  0  0
  7  3  1  0  0  0  0
 11 16  2  0  0  0  0
 11 12  1  0  0  0  0
 12 13  2  0  0  0  0
 13 14  1  0  0  0  0
 13  1  1  0  0  0  0
 15 19  1  0  0  0  0
 15 14  2  0  0  0  0
 16 15  1  0  0  0  0
 17 11  1  0  0  0  0
 18 12  1  0  0  0  0
 20 21  1  0  0  0  0
 20  2  1  0  0  0  0
 22 20  1  0  0  0  0
 23 20  1  0  0  0  0
 24 23  1  0  0  0  0
 25 24  1  0  0  0  0
 26 28  1  0  0  0  0
 26 25  1  0  0  0  0
 27 26  1  0  0  0  0
 28 29  1  0  0  0  0
 29 23  1  0  0  0  0
M  END
>  <minimizedAffinity>
-4.79319096

$$$$

 OpenBabel03252508433D

 29 31  0  0  0  0  0  0  0  0999 V2000
   36.6460   26.6830   40.1160 C   0  0  0  0  0  0  0  0  0  0  0  0
   36.8500   27.1600   41.4080 C   0  0  0  0  0  0  0  0  0  0  0  0
   37.0030   26.2690   42.4440 C   0  0  0  0  0  0  0  0  0  0  0  0
   36.9500   24.9320   42.1800 C   0  0  0  0  0  0  0  0  0  0  0  0
   36.7520   24.4150   40.9340 C   0  0  0  0  0  0  0  0  0  0  0  0
   36.6030   25.3570   39.9130 C   0  0  0  0  0  0  0  0  0  0  0  0
   37.1640   26.6110   43.4600 H   0  0  0  0  0  0  0  0  0  0  0  0
   37.0690   24.2080   42.9930 H   0  0  0  0  0  0  0  0  0  0  0  0
   36.7040   23.3550   40.6860 H   0  0  0  0  0  0  0  0  0  0  0  0
   36.4400   25.0740   38.8790 H   0  0  0  0  0  0  0  0  0  0  0  0
   35.2450   29.2860   37.7600 C   0  0  0  0  0  0  0  0  0  0  0  0
   35.2800   28.3360   38.8050 C   0  0  0  0  0  0  0  0  0  0  0  0
   36.4930   27.6810   39.0670 C   0  0  0  0  0  0  0  0  0  0  0  0
   37.5630   27.9940   38.3080 N   0  0  0  0  0  0  0  0  0  0  0  0
   37.4990   28.9150   37.3070 C   0  0  0  0  0  0  0  0  0  0  0  0
   36.3390   29.5570   37.0390 N   0  0  0  0  0  0  0  0  0  0  0  0
   34.2370   29.6800   37.7100 H   0  0  0  0  0  0  0  0  0  0  0  0
   34.4900   28.0310   39.4480 H   0  0  0  0  0  0  0  0  0  0  0  0
   38.3390   29.1780   36.6930 H   0  0  0  0  0  0  0  0  0  0  0  0
   36.9000   28.6460   41.6500 C   0  0  0  0  0  0  0  0  0  0  0  0
   36.2680   29.1030   40.8630 H   0  0  0  0  0  0  0  0  0  0  0  0
   36.4930   28.8420   42.6610 H   0  0  0  0  0  0  0  0  0  0  0  0
   38.2550   29.1310   41.6040 N   0  0  0  0  0  0  0  0  0  0  0  0
   38.4420   30.3150   40.8510 C   0  0  0  0  0  2  0  0  0  0  0  0
   39.2010   31.4070   41.5330 C   0  0  0  0  0  2  0  0  0  0  0  0
   40.3290   30.9460   42.4000 C   0  0  0  0  0  3  0  0  0  0  0  0
   41.3270   31.1610   41.9490 H   0  0  0  0  0  0  0  0  0  0  0  0
   40.2970   29.4710   42.7070 C   0  0  0  0  0  2  0  0  0  0  0  0
   38.8130   29.1480   42.9280 C   0  0  0  0  0  2  0  0  0  0  0  0
  1  2  1  0  0  0  0
  2 20  1  0  0  0  0
  2  3  2  0  0  0  0
  3  7  1  0  0  0  0
  4  3  1  0  0  0  0
  4  8  1  0  0  0  0
  5  4  2  0  0  0  0
  6  1  2  0  0  0  0
  6  5  1  0  0  0  0
  9  5  1  0  0  0  0
 10  6  1  0  0  0  0
 11 12  1  0  0  0  0
 12 13  2  0  0  0  0
 12 18  1  0  0  0  0
 13  1  1  0  0  0  0
 14 13  1  0  0  0  0
 15 14  2  0  0  0  0
 16 15  1  0  0  0  0
 16 11  2  0  0  0  0
 17 11  1  0  0  0  0
 19 15  1  0  0  0  0
 20 22  1  0  0  0  0
 21 20  1  0  0  0  0
 23 20  1  0  0  0  0
 23 29  1  0  0  0  0
 24 25  1  0  0  0  0
 24 23  1  0  0  0  0
 25 26  1  0  0  0  0
 26 28  1  0  0  0  0
 27 26  1  0  0  0  0
 28 29  1  0  0  0  0
M  END
>  <minimizedAffinity>
-4.78280401

$$$$
