
 OpenBabel03252509353D

 42 44  0  0  1  0  0  0  0  0999 V2000
   44.4370   35.5040   44.0720 O   0  0  0  0  0  0  0  0  0  0  0  0
   45.3110   34.3060   44.3860 P   0  0  1  0  0  0  0  0  0  0  0  0
   44.6790   32.8970   43.6880 O   0  0  0  0  0  0  0  0  0  0  0  0
   44.4640   33.0970   42.7550 H   0  0  0  0  0  0  0  0  0  0  0  0
   46.8380   34.6070   43.7800 O   0  0  0  0  0  0  0  0  0  0  0  0
   47.0270   33.8810   42.5980 C   0  0  1  0  0  0  0  0  0  0  0  0
   46.4760   34.6750   41.4090 C   0  0  0  0  0  0  0  0  0  0  0  0
   47.0490   33.8850   40.2590 C   0  0  0  0  0  0  0  0  0  0  0  0
   48.3260   33.2500   40.7800 C   0  0  0  0  0  0  0  0  0  0  0  0
   48.4640   33.7560   42.1980 C   0  0  1  0  0  0  0  0  0  0  0  0
   46.5230   32.9170   42.5910 H   0  0  0  0  0  0  0  0  0  0  0  0
   46.7260   35.7290   41.4290 H   0  0  0  0  0  0  0  0  0  0  0  0
   45.3710   34.5990   41.4540 H   0  0  0  0  0  0  0  0  0  0  0  0
   46.2930   33.1000   39.9700 H   0  0  0  0  0  0  0  0  0  0  0  0
   47.2460   34.4900   39.3730 H   0  0  0  0  0  0  0  0  0  0  0  0
   48.1850   32.1410   40.7800 H   0  0  0  0  0  0  0  0  0  0  0  0
   49.1980   33.4980   40.1540 H   0  0  0  0  0  0  0  0  0  0  0  0
   48.9780   32.9580   42.8030 H   0  0  0  0  0  0  0  0  0  0  0  0
   49.2060   35.0640   42.2510 C   0  0  0  0  0  0  0  0  0  0  0  0
   49.6030   35.2580   41.2160 H   0  0  0  0  0  0  0  0  0  0  0  0
   48.5770   35.9390   42.4850 H   0  0  0  0  0  0  0  0  0  0  0  0
   50.2310   35.0530   43.1700 O   0  0  0  0  0  0  0  0  0  0  0  0
   50.3800   34.1490   43.5340 H   0  0  0  0  0  0  0  0  0  0  0  0
   45.3670   34.0310   46.0300 O   0  0  0  0  0  0  0  0  0  0  0  0
   46.3310   33.1130   46.2970 C   0  0  0  0  0  0  0  0  0  0  0  0
   47.1430   33.6640   46.8580 H   0  0  0  0  0  0  0  0  0  0  0  0
   46.8450   32.6400   45.4640 H   0  0  0  0  0  0  0  0  0  0  0  0
   45.3390   31.3780   49.4350 C   0  0  0  0  0  0  0  0  0  0  0  0
   45.7630   32.4000   48.5780 C   0  0  0  0  0  0  0  0  0  0  0  0
   45.8830   32.0590   47.2240 C   0  0  0  0  0  0  0  0  0  0  0  0
   45.5890   30.7920   46.8270 N   0  0  0  0  0  0  0  0  0  0  0  0
   45.1820   29.8300   47.6810 C   0  0  0  0  0  0  0  0  0  0  0  0
   45.0600   30.1230   48.9680 N   0  0  0  0  0  0  0  0  0  0  0  0
   45.2350   31.6040   50.4900 H   0  0  0  0  0  0  0  0  0  0  0  0
   45.9710   33.3660   48.9850 H   0  0  0  0  0  0  0  0  0  0  0  0
   44.8990   28.5330   47.1670 N   0  0  0  0  0  0  0  0  0  0  0  0
   44.7290   28.3320   45.7400 C   0  0  0  0  0  2  0  0  0  0  0  0
   45.1390   26.9260   45.3460 C   0  0  0  0  0  2  0  0  0  0  0  0
   46.3090   26.5670   46.2420 C   0  0  0  0  0  3  0  0  0  0  0  0
   46.7510   25.6300   45.8700 H   0  0  0  0  0  0  0  0  0  0  0  0
   45.9220   26.4680   47.7010 C   0  0  0  0  0  2  0  0  0  0  0  0
   44.7750   27.3920   48.0550 C   0  0  0  0  0  2  0  0  0  0  0  0
  2  1  2  6  0  0  0
  2 24  1  0  0  0  0
  3  2  1  0  0  0  0
  4  3  1  0  0  0  0
  5  2  1  0  0  0  0
  6 11  1  1  0  0  0
  6  5  1  0  0  0  0
  7 12  1  0  0  0  0
  7 13  1  0  0  0  0
  7  6  1  0  0  0  0
  8  9  1  0  0  0  0
  8  7  1  0  0  0  0
  9 10  1  0  0  0  0
 10 19  1  0  0  0  0
 10  6  1  0  0  0  0
 10 18  1  1  0  0  0
 14  8  1  0  0  0  0
 15  8  1  0  0  0  0
 16  9  1  0  0  0  0
 17  9  1  0  0  0  0
 19 21  1  0  0  0  0
 19 22  1  0  0  0  0
 20 19  1  0  0  0  0
 22 23  1  0  0  0  0
 24 25  1  0  0  0  0
 25 26  1  0  0  0  0
 25 30  1  0  0  0  0
 27 25  1  0  0  0  0
 28 34  1  0  0  0  0
 29 35  1  0  0  0  0
 29 28  2  0  0  0  0
 30 29  1  0  0  0  0
 31 30  2  0  0  0  0
 31 32  1  0  0  0  0
 32 33  2  0  0  0  0
 33 28  1  0  0  0  0
 36 32  1  0  0  0  0
 36 42  1  0  0  0  0
 37 36  1  0  0  0  0
 38 37  1  0  0  0  0
 38 39  1  0  0  0  0
 39 41  1  0  0  0  0
 40 39  1  0  0  0  0
 41 42  1  0  0  0  0
M  END
>  <minimizedAffinity>
-6.22958994

>  <minimizedRMSD>
1.09311485

$$$$
