
 OpenBabel03252505133D

 23 25  0  0  0  0  0  0  0  0999 V2000
   44.5440   35.8110   44.8080 C   0  0  0  0  0  0  0  0  0  0  0  0
   45.1710   35.7490   43.5530 C   0  0  0  0  0  0  0  0  0  0  0  0
   46.0530   34.6910   43.3760 C   0  0  0  0  0  0  0  0  0  0  0  0
   46.2640   33.7930   44.3940 N   0  0  0  0  0  0  0  0  0  0  0  0
   45.6280   33.9020   45.5920 C   0  0  0  0  0  0  0  0  0  0  0  0
   44.7730   34.9200   45.7770 N   0  0  0  0  0  0  0  0  0  0  0  0
   43.8420   36.6470   44.9560 H   0  0  0  0  0  0  0  0  0  0  0  0
   45.0220   36.4310   42.7520 H   0  0  0  0  0  0  0  0  0  0  0  0
   45.8840   32.9430   46.6110 N   0  0  0  0  0  0  0  0  0  0  0  0
   44.9890   32.8700   47.7260 C   0  0  0  0  0  0  0  0  0  0  0  0
   45.3930   32.0040   48.8390 C   0  0  0  0  0  0  0  0  0  0  0  0
   46.8140   31.5720   48.8880 C   0  0  0  0  0  0  0  0  0  0  0  0
   47.2760   31.8370   49.8840 H   0  0  0  0  0  0  0  0  0  0  0  0
   47.7190   32.1720   47.8600 C   0  0  0  0  0  0  0  0  0  0  0  0
   47.0180   32.0670   46.5180 C   0  0  0  0  0  0  0  0  0  0  0  0
   46.7670   34.5050   42.0670 C   0  0  0  0  0  0  0  0  0  0  0  0
   48.0460   35.3100   41.9810 C   0  0  0  0  0  0  0  0  0  0  0  0
   48.0140   33.7560   42.0620 C   0  0  0  0  0  0  0  0  0  0  0  0
   46.0870   34.5540   41.2000 H   0  0  0  0  0  0  0  0  0  0  0  0
   48.2620   35.6950   40.9640 H   0  0  0  0  0  0  0  0  0  0  0  0
   48.4000   35.8630   42.8490 H   0  0  0  0  0  0  0  0  0  0  0  0
   48.3750   33.3860   43.0470 H   0  0  0  0  0  0  0  0  0  0  0  0
   48.4110   33.2250   41.1790 H   0  0  0  0  0  0  0  0  0  0  0  0
  1  7  1  0  0  0  0
  1  6  1  0  0  0  0
  2  1  2  0  0  0  0
  3  2  1  0  0  0  0
  3  4  2  0  0  0  0
  4  5  1  0  0  0  0
  5  6  2  0  0  0  0
  5  9  1  0  0  0  0
  8  2  1  0  0  0  0
  9 10  1  0  0  0  0
 10 11  1  0  0  0  0
 11 12  1  0  0  0  0
 12 13  1  0  0  0  0
 14 12  1  0  0  0  0
 15  9  1  0  0  0  0
 15 14  1  0  0  0  0
 16  3  1  0  0  0  0
 17 18  1  0  0  0  0
 17 16  1  0  0  0  0
 17 21  1  0  0  0  0
 18 16  1  0  0  0  0
 18 22  1  0  0  0  0
 19 16  1  0  0  0  0
 20 17  1  0  0  0  0
 23 18  1  0  0  0  0
M  END
>  <minimizedAffinity>
-5.49493694

>  <minimizedRMSD>
0.459964573

$$$$
