
 OpenBabel03252502303D

 22 23  0  0  0  0  0  0  0  0999 V2000
   47.9620   34.4480   42.6040 C   0  0  0  0  0  0  0  0  0  0  0  0
   47.9680   33.4320   43.5710 C   0  0  0  0  0  0  0  0  0  0  0  0
   46.8200   33.3390   44.4080 C   0  0  0  0  0  0  0  0  0  0  0  0
   45.8070   34.2300   44.2160 N   0  0  0  0  0  0  0  0  0  0  0  0
   45.8490   35.1880   43.2750 C   0  0  0  0  0  0  0  0  0  0  0  0
   46.9230   35.2840   42.4830 N   0  0  0  0  0  0  0  0  0  0  0  0
   48.7420   32.7230   43.7450 H   0  0  0  0  0  0  0  0  0  0  0  0
   46.7070   32.3650   45.4110 N   0  0  0  0  0  0  0  0  0  0  0  0
   46.8010   32.7240   46.8120 C   0  0  0  0  0  0  0  0  0  0  0  0
   45.6880   32.0380   47.5460 C   0  0  0  0  0  0  0  0  0  0  0  0
   45.6800   30.5520   47.3790 C   0  0  0  0  0  0  0  0  0  0  0  0
   46.0520   30.0730   48.3100 H   0  0  0  0  0  0  0  0  0  0  0  0
   46.5600   30.0650   46.2440 C   0  0  0  0  0  0  0  0  0  0  0  0
   46.4930   30.9800   45.0440 C   0  0  0  0  0  0  0  0  0  0  0  0
   49.1720   34.5310   41.7360 C   0  0  0  0  0  0  0  0  0  0  0  0
   49.3470   33.4150   40.9730 F   0  0  0  0  0  0  0  0  0  0  0  0
   49.0600   35.6790   40.9320 F   0  0  0  0  0  0  0  0  0  0  0  0
   50.2980   34.7670   42.5420 F   0  0  0  0  0  0  0  0  0  0  0  0
   44.7280   36.1420   43.0930 C   0  0  0  0  0  0  0  0  0  0  0  0
   44.1110   35.9540   41.8740 F   0  0  0  0  0  0  0  0  0  0  0  0
   45.1610   37.4540   43.2510 F   0  0  0  0  0  0  0  0  0  0  0  0
   43.7550   35.9580   44.0700 F   0  0  0  0  0  0  0  0  0  0  0  0
  1  2  1  0  0  0  0
  2  7  1  0  0  0  0
  2  3  2  0  0  0  0
  3  8  1  0  0  0  0
  4  3  1  0  0  0  0
  5  4  2  0  0  0  0
  6  1  2  0  0  0  0
  6  5  1  0  0  0  0
  8  9  1  0  0  0  0
  9 10  1  0  0  0  0
 11 10  1  0  0  0  0
 11 12  1  0  0  0  0
 13 11  1  0  0  0  0
 14  8  1  0  0  0  0
 14 13  1  0  0  0  0
 15 18  1  0  0  0  0
 15  1  1  0  0  0  0
 16 15  1  0  0  0  0
 17 15  1  0  0  0  0
 19 21  1  0  0  0  0
 19  5  1  0  0  0  0
 19 22  1  0  0  0  0
 20 19  1  0  0  0  0
M  END
>  <minimizedAffinity>
-5.90873289

>  <minimizedRMSD>
1.26303244

$$$$
