
 OpenBabel03242523253D

 41 44  0  0  1  0  0  0  0  0999 V2000
   36.9180   29.0810   40.3200 C   0  0  0  0  0  0  0  0  0  0  0  0
   36.9440   28.0210   41.1220 C   0  0  0  0  0  0  0  0  0  0  0  0
   37.1190   26.8280   40.4900 C   0  0  0  0  0  0  0  0  0  0  0  0
   37.2540   26.8130   39.0910 N   0  0  0  0  0  0  0  0  0  0  0  0
   37.2180   27.9000   38.3540 C   0  0  0  0  0  0  0  0  0  0  0  0
   37.0430   29.1240   38.9560 N   0  0  0  0  0  0  0  0  0  0  0  0
   37.1650   25.8220   40.8050 H   0  0  0  0  0  0  0  0  0  0  0  0
   37.3300   27.8200   37.2580 H   0  0  0  0  0  0  0  0  0  0  0  0
   36.7020   27.9910   42.5200 C   0  0  1  0  0  0  0  0  0  0  0  0
   36.6690   26.9330   43.3710 C   0  0  0  0  0  0  0  0  0  0  0  0
   37.8980   27.7920   43.4920 C   0  0  1  0  0  0  0  0  0  0  0  0
   35.9700   28.8020   42.8360 H   0  0  0  0  0  0  0  0  0  0  0  0
   36.7310   25.9000   42.9690 H   0  0  0  0  0  0  0  0  0  0  0  0
   36.1270   26.8580   44.3650 H   0  0  0  0  0  0  0  0  0  0  0  0
   37.8520   28.5750   44.3140 H   0  0  0  0  0  0  0  0  0  0  0  0
   39.0840   27.1760   43.1720 N   0  0  0  0  0  0  0  0  0  0  0  0
   40.2300   27.7820   42.6790 C   0  0  0  0  0  2  0  0  0  0  0  0
   40.7080   27.1710   41.3400 C   0  0  0  0  0  2  0  0  0  0  0  0
   41.1080   25.7520   41.6920 C   0  0  0  0  0  3  0  0  0  0  0  0
   41.8780   25.7630   42.4680 H   0  0  0  0  0  0  0  0  0  0  0  0
   39.8300   25.0740   42.1370 C   0  0  0  0  0  2  0  0  0  0  0  0
   39.2010   25.7740   43.3140 C   0  0  0  0  0  2  0  0  0  0  0  0
   36.8050   30.4970   40.7320 C   0  0  0  0  0  0  0  0  0  0  0  0
   36.2040   31.4800   41.0570 O   0  0  0  0  0  0  0  0  0  0  0  0
   37.7910   32.2750   38.4050 Cl  0  0  0  0  0  0  0  0  0  0  0  0
   38.7840   31.8960   39.7950 C   0  0  0  0  0  0  0  0  0  0  0  0
   38.1850   31.0770   40.7850 C   0  0  0  0  0  0  0  0  0  0  0  0
   39.0590   30.8610   41.8240 C   0  0  0  0  0  0  0  0  0  0  0  0
   40.3020   31.2790   42.0150 C   0  0  0  0  0  0  0  0  0  0  0  0
   40.8260   32.0690   41.0160 C   0  0  0  0  0  0  0  0  0  0  0  0
   40.0860   32.3830   39.9120 C   0  0  0  0  0  0  0  0  0  0  0  0
   38.6970   30.2560   42.6910 H   0  0  0  0  0  0  0  0  0  0  0  0
   40.9260   31.0510   42.8810 H   0  0  0  0  0  0  0  0  0  0  0  0
   41.8610   32.4380   41.1380 H   0  0  0  0  0  0  0  0  0  0  0  0
   40.7150   33.1770   38.9960 O   0  0  0  0  0  0  0  0  0  0  0  0
   42.8000   31.8730   38.0910 O   0  0  0  0  0  0  0  0  0  0  0  0
   41.6470   32.7430   37.6490 P   0  0  0  0  0  0  0  0  0  0  0  0
   40.6630   31.9350   36.5250 O   0  0  0  0  0  0  0  0  0  0  0  0
   40.3040   32.5350   35.8450 H   0  0  0  0  0  0  0  0  0  0  0  0
   42.2360   34.1030   36.8340 O   0  0  0  0  0  0  0  0  0  0  0  0
   41.4460   34.6820   36.6110 H   0  0  0  0  0  0  0  0  0  0  0  0
  1 23  1  0  0  0  0
  1  2  1  0  0  0  0
  2  9  1  0  0  0  0
  3  7  1  0  0  0  0
  3  2  2  0  0  0  0
  4  3  1  0  0  0  0
  5  6  1  0  0  0  0
  5  4  2  0  0  0  0
  6  1  2  0  0  0  0
  8  5  1  0  0  0  0
  9 12  1  1  0  0  0
  9 10  1  0  0  0  0
  9 11  1  0  0  0  0
 10 11  1  0  0  0  0
 10 14  1  0  0  0  0
 11 15  1  1  0  0  0
 13 10  1  0  0  0  0
 16 22  1  0  0  0  0
 16 11  1  0  0  0  0
 17 16  1  0  0  0  0
 18 19  1  0  0  0  0
 18 17  1  0  0  0  0
 19 21  1  0  0  0  0
 19 20  1  0  0  0  0
 21 22  1  0  0  0  0
 23 27  1  0  0  0  0
 23 24  2  0  0  0  0
 25 26  1  0  0  0  0
 26 31  2  0  0  0  0
 26 27  1  0  0  0  0
 27 28  2  0  0  0  0
 28 29  1  0  0  0  0
 28 32  1  0  0  0  0
 29 33  1  0  0  0  0
 30 34  1  0  0  0  0
 30 29  2  0  0  0  0
 31 30  1  0  0  0  0
 35 31  1  0  0  0  0
 37 36  2  0  0  0  0
 37 35  1  0  0  0  0
 38 37  1  0  0  0  0
 39 38  1  0  0  0  0
 40 37  1  0  0  0  0
 41 40  1  0  0  0  0
M  END
>  <minimizedAffinity>
-6.35302162

$$$$

 OpenBabel03242523253D

 41 44  0  0  1  0  0  0  0  0999 V2000
   41.3070   31.1160   40.7020 C   0  0  0  0  0  0  0  0  0  0  0  0
   40.6250   32.0400   40.0330 C   0  0  0  0  0  0  0  0  0  0  0  0
   40.6660   31.9150   38.6780 C   0  0  0  0  0  0  0  0  0  0  0  0
   41.3990   30.8570   38.1150 N   0  0  0  0  0  0  0  0  0  0  0  0
   42.0560   29.9750   38.8340 C   0  0  0  0  0  0  0  0  0  0  0  0
   42.0380   30.0680   40.2060 N   0  0  0  0  0  0  0  0  0  0  0  0
   40.2700   32.4670   37.8710 H   0  0  0  0  0  0  0  0  0  0  0  0
   42.6150   29.1670   38.3290 H   0  0  0  0  0  0  0  0  0  0  0  0
   39.9670   33.1800   40.5650 C   0  0  1  0  0  0  0  0  0  0  0  0
   39.2560   34.1460   39.9280 C   0  0  0  0  0  0  0  0  0  0  0  0
   38.4200   33.1660   40.7050 C   0  0  1  0  0  0  0  0  0  0  0  0
   40.5170   33.5970   41.4690 H   0  0  0  0  0  0  0  0  0  0  0  0
   39.2270   34.1670   38.8180 H   0  0  0  0  0  0  0  0  0  0  0  0
   39.0620   35.2080   40.2740 H   0  0  0  0  0  0  0  0  0  0  0  0
   38.1310   33.5090   41.7490 H   0  0  0  0  0  0  0  0  0  0  0  0
   37.5640   32.3940   39.9560 N   0  0  0  0  0  0  0  0  0  0  0  0
   36.9110   31.2400   40.3640 C   0  0  0  0  0  2  0  0  0  0  0  0
   37.2030   30.0250   39.4510 C   0  0  0  0  0  2  0  0  0  0  0  0
   36.5910   30.3970   38.1160 C   0  0  0  0  0  3  0  0  0  0  0  0
   35.5250   30.6070   38.2390 H   0  0  0  0  0  0  0  0  0  0  0  0
   37.3770   31.5980   37.6370 C   0  0  0  0  0  2  0  0  0  0  0  0
   37.3040   32.7460   38.6110 C   0  0  0  0  0  2  0  0  0  0  0  0
   41.3890   30.9690   42.1710 C   0  0  0  0  0  0  0  0  0  0  0  0
   41.8090   31.2370   43.2590 O   0  0  0  0  0  0  0  0  0  0  0  0
   42.4810   28.1860   42.9520 Cl  0  0  0  0  0  0  0  0  0  0  0  0
   40.7740   28.5690   42.9550 C   0  0  0  0  0  0  0  0  0  0  0  0
   40.4310   29.8940   42.5830 C   0  0  0  0  0  0  0  0  0  0  0  0
   39.0680   30.0700   42.6350 C   0  0  0  0  0  0  0  0  0  0  0  0
   38.0950   29.2300   42.9570 C   0  0  0  0  0  0  0  0  0  0  0  0
   38.4940   27.9590   43.3060 C   0  0  0  0  0  0  0  0  0  0  0  0
   39.8170   27.6180   43.3110 C   0  0  0  0  0  0  0  0  0  0  0  0
   38.6660   31.0840   42.3970 H   0  0  0  0  0  0  0  0  0  0  0  0
   37.0280   29.4620   42.9650 H   0  0  0  0  0  0  0  0  0  0  0  0
   37.7110   27.2280   43.5810 H   0  0  0  0  0  0  0  0  0  0  0  0
   40.0850   26.3310   43.6800 O   0  0  0  0  0  0  0  0  0  0  0  0
   40.0680   25.2470   41.2940 O   0  0  0  0  0  0  0  0  0  0  0  0
   40.4920   24.9940   42.7220 P   0  0  0  0  0  0  0  0  0  0  0  0
   42.1660   24.7210   42.8260 O   0  0  0  0  0  0  0  0  0  0  0  0
   42.3930   24.0610   43.5070 H   0  0  0  0  0  0  0  0  0  0  0  0
   39.7690   23.5740   43.2910 O   0  0  0  0  0  0  0  0  0  0  0  0
   40.0270   23.4760   44.2570 H   0  0  0  0  0  0  0  0  0  0  0  0
  1 23  1  0  0  0  0
  2  9  1  0  0  0  0
  2  1  2  0  0  0  0
  3  2  1  0  0  0  0
  4  3  2  0  0  0  0
  4  5  1  0  0  0  0
  5  6  2  0  0  0  0
  6  1  1  0  0  0  0
  7  3  1  0  0  0  0
  8  5  1  0  0  0  0
  9 11  1  0  0  0  0
  9 12  1  1  0  0  0
 10 14  1  0  0  0  0
 10  9  1  0  0  0  0
 10 11  1  0  0  0  0
 11 15  1  1  0  0  0
 13 10  1  0  0  0  0
 16 17  1  0  0  0  0
 16 11  1  0  0  0  0
 18 17  1  0  0  0  0
 19 20  1  0  0  0  0
 19 18  1  0  0  0  0
 21 19  1  0  0  0  0
 21 22  1  0  0  0  0
 22 16  1  0  0  0  0
 23 27  1  0  0  0  0
 23 24  2  0  0  0  0
 25 26  1  0  0  0  0
 26 31  1  0  0  0  0
 27 28  1  0  0  0  0
 27 26  2  0  0  0  0
 28 29  2  0  0  0  0
 29 33  1  0  0  0  0
 29 30  1  0  0  0  0
 30 31  2  0  0  0  0
 30 34  1  0  0  0  0
 31 35  1  0  0  0  0
 32 28  1  0  0  0  0
 36 37  2  0  0  0  0
 37 38  1  0  0  0  0
 37 40  1  0  0  0  0
 37 35  1  0  0  0  0
 38 39  1  0  0  0  0
 40 41  1  0  0  0  0
M  END
>  <minimizedAffinity>
-6.28449869

$$$$

 OpenBabel03242523253D

 41 44  0  0  1  0  0  0  0  0999 V2000
   37.9600   30.1260   41.4910 C   0  0  0  0  0  0  0  0  0  0  0  0
   37.1860   29.1310   41.9150 C   0  0  0  0  0  0  0  0  0  0  0  0
   36.1660   28.8010   41.0780 C   0  0  0  0  0  0  0  0  0  0  0  0
   36.0150   29.5130   39.8760 N   0  0  0  0  0  0  0  0  0  0  0  0
   36.8150   30.4910   39.5150 C   0  0  0  0  0  0  0  0  0  0  0  0
   37.8570   30.8530   40.3340 N   0  0  0  0  0  0  0  0  0  0  0  0
   35.3770   28.1010   41.1100 H   0  0  0  0  0  0  0  0  0  0  0  0
   36.6410   31.0120   38.5560 H   0  0  0  0  0  0  0  0  0  0  0  0
   37.2450   28.4670   43.1680 C   0  0  1  0  0  0  0  0  0  0  0  0
   36.5420   27.3950   43.6140 C   0  0  0  0  0  0  0  0  0  0  0  0
   37.9750   27.0990   43.2680 C   0  0  1  0  0  0  0  0  0  0  0  0
   37.4830   29.1890   44.0140 H   0  0  0  0  0  0  0  0  0  0  0  0
   35.7100   26.9870   43.0010 H   0  0  0  0  0  0  0  0  0  0  0  0
   36.3160   27.1100   44.6890 H   0  0  0  0  0  0  0  0  0  0  0  0
   38.6910   27.1150   44.1500 H   0  0  0  0  0  0  0  0  0  0  0  0
   38.1640   26.2250   42.2250 N   0  0  0  0  0  0  0  0  0  0  0  0
   39.2460   26.1830   41.3580 C   0  0  0  0  0  2  0  0  0  0  0  0
   38.8350   26.3000   39.8710 C   0  0  0  0  0  2  0  0  0  0  0  0
   38.0370   25.0410   39.5980 C   0  0  0  0  0  3  0  0  0  0  0  0
   38.6450   24.1590   39.8160 H   0  0  0  0  0  0  0  0  0  0  0  0
   36.8110   25.1450   40.4780 C   0  0  0  0  0  2  0  0  0  0  0  0
   37.1710   25.2590   41.9370 C   0  0  0  0  0  2  0  0  0  0  0  0
   39.1700   30.6510   42.1590 C   0  0  0  0  0  0  0  0  0  0  0  0
   39.7640   31.1710   43.0590 O   0  0  0  0  0  0  0  0  0  0  0  0
   40.4080   33.0850   40.7150 Cl  0  0  0  0  0  0  0  0  0  0  0  0
   40.9990   31.4530   40.4980 C   0  0  0  0  0  0  0  0  0  0  0  0
   40.3340   30.4450   41.2400 C   0  0  0  0  0  0  0  0  0  0  0  0
   40.8960   29.2140   40.9910 C   0  0  0  0  0  0  0  0  0  0  0  0
   41.9020   28.8620   40.2040 C   0  0  0  0  0  0  0  0  0  0  0  0
   42.5050   29.8880   39.5100 C   0  0  0  0  0  0  0  0  0  0  0  0
   42.0690   31.1750   39.6460 C   0  0  0  0  0  0  0  0  0  0  0  0
   40.4840   28.3340   41.5410 H   0  0  0  0  0  0  0  0  0  0  0  0
   42.2800   27.8470   40.0670 H   0  0  0  0  0  0  0  0  0  0  0  0
   43.3490   29.6350   38.8420 H   0  0  0  0  0  0  0  0  0  0  0  0
   42.7500   32.1020   38.9110 O   0  0  0  0  0  0  0  0  0  0  0  0
   42.9810   31.4720   36.3770 O   0  0  0  0  0  0  0  0  0  0  0  0
   42.5290   32.5790   37.3000 P   0  0  0  0  0  0  0  0  0  0  0  0
   40.8910   32.9560   37.0500 O   0  0  0  0  0  0  0  0  0  0  0  0
   40.7070   33.9080   37.1580 H   0  0  0  0  0  0  0  0  0  0  0  0
   43.3750   34.0010   36.9470 O   0  0  0  0  0  0  0  0  0  0  0  0
   43.0900   34.6910   37.6190 H   0  0  0  0  0  0  0  0  0  0  0  0
  1  2  1  0  0  0  0
  1 23  1  0  0  0  0
  2  9  1  0  0  0  0
  3  7  1  0  0  0  0
  3  2  2  0  0  0  0
  4  3  1  0  0  0  0
  5  4  2  0  0  0  0
  5  6  1  0  0  0  0
  6  1  2  0  0  0  0
  8  5  1  0  0  0  0
  9 11  1  0  0  0  0
  9 10  1  0  0  0  0
  9 12  1  1  0  0  0
 10 14  1  0  0  0  0
 11 10  1  0  0  0  0
 11 15  1  1  0  0  0
 13 10  1  0  0  0  0
 16 11  1  0  0  0  0
 17 16  1  0  0  0  0
 18 17  1  0  0  0  0
 19 20  1  0  0  0  0
 19 18  1  0  0  0  0
 19 21  1  0  0  0  0
 21 22  1  0  0  0  0
 22 16  1  0  0  0  0
 23 24  2  0  0  0  0
 26 25  1  0  0  0  0
 26 27  1  0  0  0  0
 27 23  1  0  0  0  0
 28 27  2  0  0  0  0
 28 32  1  0  0  0  0
 29 28  1  0  0  0  0
 30 31  1  0  0  0  0
 30 29  2  0  0  0  0
 31 26  2  0  0  0  0
 33 29  1  0  0  0  0
 34 30  1  0  0  0  0
 35 31  1  0  0  0  0
 36 37  2  0  0  0  0
 37 35  1  0  0  0  0
 38 39  1  0  0  0  0
 38 37  1  0  0  0  0
 40 37  1  0  0  0  0
 40 41  1  0  0  0  0
M  END
>  <minimizedAffinity>
-5.9720993

$$$$

 OpenBabel03242523253D

 41 44  0  0  1  0  0  0  0  0999 V2000
   36.5670   26.8110   40.1760 C   0  0  0  0  0  0  0  0  0  0  0  0
   37.0010   26.7880   41.4320 C   0  0  0  0  0  0  0  0  0  0  0  0
   37.4580   25.5790   41.8580 C   0  0  0  0  0  0  0  0  0  0  0  0
   37.4330   24.4910   40.9700 N   0  0  0  0  0  0  0  0  0  0  0  0
   36.9870   24.5790   39.7370 C   0  0  0  0  0  0  0  0  0  0  0  0
   36.5180   25.7840   39.2690 N   0  0  0  0  0  0  0  0  0  0  0  0
   37.8400   25.2110   42.7700 H   0  0  0  0  0  0  0  0  0  0  0  0
   36.9940   23.6850   39.0890 H   0  0  0  0  0  0  0  0  0  0  0  0
   36.9390   27.8370   42.3850 C   0  0  1  0  0  0  0  0  0  0  0  0
   37.3590   27.8610   43.6770 C   0  0  0  0  0  0  0  0  0  0  0  0
   38.2300   28.6330   42.7240 C   0  0  1  0  0  0  0  0  0  0  0  0
   36.0140   28.4830   42.2380 H   0  0  0  0  0  0  0  0  0  0  0  0
   37.7230   26.9270   44.1550 H   0  0  0  0  0  0  0  0  0  0  0  0
   36.9870   28.5260   44.5160 H   0  0  0  0  0  0  0  0  0  0  0  0
   38.0120   29.7470   42.6760 H   0  0  0  0  0  0  0  0  0  0  0  0
   39.5120   28.1590   42.5780 N   0  0  0  0  0  0  0  0  0  0  0  0
   40.3250   28.2880   41.4620 C   0  0  0  0  0  2  0  0  0  0  0  0
   40.8320   26.9280   40.9240 C   0  0  0  0  0  2  0  0  0  0  0  0
   41.7240   26.3930   42.0270 C   0  0  0  0  0  3  0  0  0  0  0  0
   42.5240   27.1060   42.2390 H   0  0  0  0  0  0  0  0  0  0  0  0
   40.8060   26.1650   43.2080 C   0  0  0  0  0  2  0  0  0  0  0  0
   40.1110   27.4330   43.6340 C   0  0  0  0  0  2  0  0  0  0  0  0
   36.0770   27.9920   39.4320 C   0  0  0  0  0  0  0  0  0  0  0  0
   35.2330   28.6710   38.9230 O   0  0  0  0  0  0  0  0  0  0  0  0
   36.1730   30.8880   40.5030 Cl  0  0  0  0  0  0  0  0  0  0  0  0
   37.4390   30.2030   39.5090 C   0  0  0  0  0  0  0  0  0  0  0  0
   37.2550   28.8560   39.1060 C   0  0  0  0  0  0  0  0  0  0  0  0
   38.3180   28.4340   38.3410 C   0  0  0  0  0  0  0  0  0  0  0  0
   39.4140   29.0690   37.9510 C   0  0  0  0  0  0  0  0  0  0  0  0
   39.5310   30.3740   38.3740 C   0  0  0  0  0  0  0  0  0  0  0  0
   38.5620   30.9480   39.1470 C   0  0  0  0  0  0  0  0  0  0  0  0
   38.3140   27.3750   37.9860 H   0  0  0  0  0  0  0  0  0  0  0  0
   40.2110   28.6470   37.3350 H   0  0  0  0  0  0  0  0  0  0  0  0
   40.4320   30.9380   38.0700 H   0  0  0  0  0  0  0  0  0  0  0  0
   38.7960   32.2440   39.5070 O   0  0  0  0  0  0  0  0  0  0  0  0
   41.0140   33.2940   40.4270 O   0  0  0  0  0  0  0  0  0  0  0  0
   39.6290   32.8610   40.8470 P   0  0  0  0  0  0  0  0  0  0  0  0
   38.7510   34.1600   41.5010 O   0  0  0  0  0  0  0  0  0  0  0  0
   38.1660   33.8840   42.2320 H   0  0  0  0  0  0  0  0  0  0  0  0
   39.7380   31.7210   42.0930 O   0  0  0  0  0  0  0  0  0  0  0  0
   38.8040   31.4170   42.3010 H   0  0  0  0  0  0  0  0  0  0  0  0
  1  2  1  0  0  0  0
  2  3  2  0  0  0  0
  2  9  1  0  0  0  0
  3  7  1  0  0  0  0
  4  3  1  0  0  0  0
  5  4  2  0  0  0  0
  6  5  1  0  0  0  0
  6  1  2  0  0  0  0
  8  5  1  0  0  0  0
  9 12  1  6  0  0  0
  9 11  1  0  0  0  0
  9 10  1  0  0  0  0
 10 13  1  0  0  0  0
 10 14  1  0  0  0  0
 11 15  1  1  0  0  0
 11 10  1  0  0  0  0
 16 11  1  0  0  0  0
 16 22  1  0  0  0  0
 17 16  1  0  0  0  0
 18 17  1  0  0  0  0
 18 19  1  0  0  0  0
 19 20  1  0  0  0  0
 19 21  1  0  0  0  0
 21 22  1  0  0  0  0
 23  1  1  0  0  0  0
 24 23  2  0  0  0  0
 26 25  1  0  0  0  0
 27 23  1  0  0  0  0
 27 26  2  0  0  0  0
 28 27  1  0  0  0  0
 29 28  2  0  0  0  0
 29 30  1  0  0  0  0
 30 31  2  0  0  0  0
 31 35  1  0  0  0  0
 31 26  1  0  0  0  0
 32 28  1  0  0  0  0
 33 29  1  0  0  0  0
 34 30  1  0  0  0  0
 35 37  1  0  0  0  0
 36 37  2  0  0  0  0
 37 38  1  0  0  0  0
 37 40  1  0  0  0  0
 38 39  1  0  0  0  0
 40 41  1  0  0  0  0
M  END
>  <minimizedAffinity>
-5.83583736

$$$$

 OpenBabel03242523253D

 41 44  0  0  1  0  0  0  0  0999 V2000
   37.8010   29.3420   37.8750 C   0  0  0  0  0  0  0  0  0  0  0  0
   37.1610   28.9110   38.9570 C   0  0  0  0  0  0  0  0  0  0  0  0
   37.4580   27.6360   39.3300 C   0  0  0  0  0  0  0  0  0  0  0  0
   38.3830   26.9030   38.5670 N   0  0  0  0  0  0  0  0  0  0  0  0
   38.9820   27.3880   37.5030 C   0  0  0  0  0  0  0  0  0  0  0  0
   38.7080   28.6720   37.0950 N   0  0  0  0  0  0  0  0  0  0  0  0
   37.1300   26.9930   40.0990 H   0  0  0  0  0  0  0  0  0  0  0  0
   39.6990   26.7590   36.9460 H   0  0  0  0  0  0  0  0  0  0  0  0
   36.1440   29.5840   39.6830 C   0  0  1  0  0  0  0  0  0  0  0  0
   35.4660   29.1910   40.7930 C   0  0  0  0  0  0  0  0  0  0  0  0
   36.4980   30.2590   41.0370 C   0  0  1  0  0  0  0  0  0  0  0  0
   35.4900   30.2160   39.0000 H   0  0  0  0  0  0  0  0  0  0  0  0
   35.6050   28.1630   41.1870 H   0  0  0  0  0  0  0  0  0  0  0  0
   34.4410   29.5320   41.1370 H   0  0  0  0  0  0  0  0  0  0  0  0
   36.0910   31.3200   41.0490 H   0  0  0  0  0  0  0  0  0  0  0  0
   37.5430   29.8960   41.8520 N   0  0  0  0  0  0  0  0  0  0  0  0
   38.8470   30.3670   41.7950 C   0  0  0  0  0  2  0  0  0  0  0  0
   39.8910   29.2370   41.6360 C   0  0  0  0  0  2  0  0  0  0  0  0
   39.7930   28.4450   42.9250 C   0  0  0  0  0  3  0  0  0  0  0  0
   39.9830   29.1000   43.7790 H   0  0  0  0  0  0  0  0  0  0  0  0
   38.3990   27.8570   42.9280 C   0  0  0  0  0  2  0  0  0  0  0  0
   37.3360   28.9240   42.8590 C   0  0  0  0  0  2  0  0  0  0  0  0
   37.7220   30.6940   37.2810 C   0  0  0  0  0  0  0  0  0  0  0  0
   37.3560   31.4960   36.4720 O   0  0  0  0  0  0  0  0  0  0  0  0
   40.8040   30.5590   37.1070 Cl  0  0  0  0  0  0  0  0  0  0  0  0
   39.9620   31.6690   38.1660 C   0  0  0  0  0  0  0  0  0  0  0  0
   38.5460   31.6190   38.1240 C   0  0  0  0  0  0  0  0  0  0  0  0
   38.0060   32.5410   38.9900 C   0  0  0  0  0  0  0  0  0  0  0  0
   38.5860   33.4090   39.8070 C   0  0  0  0  0  0  0  0  0  0  0  0
   39.9630   33.4050   39.8020 C   0  0  0  0  0  0  0  0  0  0  0  0
   40.6580   32.5510   38.9940 C   0  0  0  0  0  0  0  0  0  0  0  0
   36.8940   32.6280   39.0280 H   0  0  0  0  0  0  0  0  0  0  0  0
   38.0680   34.1070   40.4670 H   0  0  0  0  0  0  0  0  0  0  0  0
   40.4840   34.1150   40.4710 H   0  0  0  0  0  0  0  0  0  0  0  0
   42.0170   32.6470   39.0760 O   0  0  0  0  0  0  0  0  0  0  0  0
   43.7870   31.9290   37.2820 O   0  0  0  0  0  0  0  0  0  0  0  0
   43.1380   33.1420   37.9050 P   0  0  0  0  0  0  0  0  0  0  0  0
   42.3440   34.0840   36.7350 O   0  0  0  0  0  0  0  0  0  0  0  0
   42.4050   35.0390   36.9220 H   0  0  0  0  0  0  0  0  0  0  0  0
   44.3250   34.1520   38.5650 O   0  0  0  0  0  0  0  0  0  0  0  0
   43.8500   34.9110   39.0190 H   0  0  0  0  0  0  0  0  0  0  0  0
  1  2  1  0  0  0  0
  2  3  2  0  0  0  0
  2  9  1  0  0  0  0
  3  7  1  0  0  0  0
  4  3  1  0  0  0  0
  5  4  2  0  0  0  0
  6  5  1  0  0  0  0
  6  1  2  0  0  0  0
  8  5  1  0  0  0  0
  9 12  1  6  0  0  0
  9 10  1  0  0  0  0
  9 11  1  0  0  0  0
 10 11  1  0  0  0  0
 10 14  1  0  0  0  0
 10 13  1  0  0  0  0
 11 15  1  1  0  0  0
 11 16  1  0  0  0  0
 16 22  1  0  0  0  0
 17 16  1  0  0  0  0
 18 17  1  0  0  0  0
 18 19  1  0  0  0  0
 19 21  1  0  0  0  0
 19 20  1  0  0  0  0
 22 21  1  0  0  0  0
 23  1  1  0  0  0  0
 23 27  1  0  0  0  0
 24 23  2  0  0  0  0
 25 26  1  0  0  0  0
 26 31  1  0  0  0  0
 27 26  2  0  0  0  0
 27 28  1  0  0  0  0
 28 32  1  0  0  0  0
 28 29  2  0  0  0  0
 29 33  1  0  0  0  0
 30 29  1  0  0  0  0
 30 34  1  0  0  0  0
 31 35  1  0  0  0  0
 31 30  2  0  0  0  0
 36 37  2  0  0  0  0
 37 40  1  0  0  0  0
 37 35  1  0  0  0  0
 38 39  1  0  0  0  0
 38 37  1  0  0  0  0
 40 41  1  0  0  0  0
M  END
>  <minimizedAffinity>
-5.83556128

$$$$

 OpenBabel03242523253D

 41 44  0  0  1  0  0  0  0  0999 V2000
   37.8890   25.6750   38.9290 C   0  0  0  0  0  0  0  0  0  0  0  0
   38.0440   25.4090   40.2210 C   0  0  0  0  0  0  0  0  0  0  0  0
   39.2940   25.0070   40.5780 C   0  0  0  0  0  0  0  0  0  0  0  0
   40.2860   24.9090   39.5870 N   0  0  0  0  0  0  0  0  0  0  0  0
   40.0660   25.1860   38.3220 C   0  0  0  0  0  0  0  0  0  0  0  0
   38.8160   25.5950   37.9230 N   0  0  0  0  0  0  0  0  0  0  0  0
   39.7460   24.7050   41.4830 H   0  0  0  0  0  0  0  0  0  0  0  0
   40.8890   25.0870   37.5910 H   0  0  0  0  0  0  0  0  0  0  0  0
   37.0400   25.3930   41.2250 C   0  0  1  0  0  0  0  0  0  0  0  0
   37.1410   25.0940   42.5460 C   0  0  0  0  0  0  0  0  0  0  0  0
   36.9740   26.5590   42.2500 C   0  0  1  0  0  0  0  0  0  0  0  0
   36.0320   25.0790   40.8040 H   0  0  0  0  0  0  0  0  0  0  0  0
   38.0970   24.6980   42.9510 H   0  0  0  0  0  0  0  0  0  0  0  0
   36.3230   24.7240   43.2390 H   0  0  0  0  0  0  0  0  0  0  0  0
   35.9050   26.9400   42.3210 H   0  0  0  0  0  0  0  0  0  0  0  0
   38.0320   27.3600   42.6080 N   0  0  0  0  0  0  0  0  0  0  0  0
   38.4180   28.5480   42.0040 C   0  0  0  0  0  2  0  0  0  0  0  0
   39.8890   28.5310   41.5250 C   0  0  0  0  0  2  0  0  0  0  0  0
   40.7030   28.4300   42.7990 C   0  0  0  0  0  3  0  0  0  0  0  0
   40.4670   29.2680   43.4600 H   0  0  0  0  0  0  0  0  0  0  0  0
   40.3440   27.0870   43.3970 C   0  0  0  0  0  2  0  0  0  0  0  0
   38.8680   26.9710   43.6800 C   0  0  0  0  0  2  0  0  0  0  0  0
   36.6660   26.1870   38.2720 C   0  0  0  0  0  0  0  0  0  0  0  0
   35.6790   26.0850   37.6030 O   0  0  0  0  0  0  0  0  0  0  0  0
   38.3140   28.2260   36.6380 Cl  0  0  0  0  0  0  0  0  0  0  0  0
   37.2440   28.6980   37.9400 C   0  0  0  0  0  0  0  0  0  0  0  0
   36.5470   27.6460   38.5860 C   0  0  0  0  0  0  0  0  0  0  0  0
   35.7360   28.1460   39.5790 C   0  0  0  0  0  0  0  0  0  0  0  0
   35.5310   29.3890   39.9900 C   0  0  0  0  0  0  0  0  0  0  0  0
   36.2400   30.3630   39.3220 C   0  0  0  0  0  0  0  0  0  0  0  0
   37.0900   30.0360   38.3050 C   0  0  0  0  0  0  0  0  0  0  0  0
   35.1030   27.4220   40.1460 H   0  0  0  0  0  0  0  0  0  0  0  0
   34.8630   29.6920   40.7980 H   0  0  0  0  0  0  0  0  0  0  0  0
   36.0970   31.4130   39.6360 H   0  0  0  0  0  0  0  0  0  0  0  0
   37.7290   31.0900   37.7180 O   0  0  0  0  0  0  0  0  0  0  0  0
   40.0730   30.8240   38.8620 O   0  0  0  0  0  0  0  0  0  0  0  0
   39.2090   31.8140   38.1160 P   0  0  0  0  0  0  0  0  0  0  0  0
   39.9710   32.3450   36.6940 O   0  0  0  0  0  0  0  0  0  0  0  0
   39.7830   33.2820   36.4980 H   0  0  0  0  0  0  0  0  0  0  0  0
   38.9910   33.2050   39.0550 O   0  0  0  0  0  0  0  0  0  0  0  0
   38.3660   33.8080   38.5510 H   0  0  0  0  0  0  0  0  0  0  0  0
  1  2  1  0  0  0  0
  2  3  2  0  0  0  0
  2  9  1  0  0  0  0
  3  7  1  0  0  0  0
  4  3  1  0  0  0  0
  5  4  2  0  0  0  0
  6  5  1  0  0  0  0
  6  1  2  0  0  0  0
  8  5  1  0  0  0  0
  9 12  1  6  0  0  0
  9 11  1  0  0  0  0
  9 10  1  0  0  0  0
 10 13  1  0  0  0  0
 10 14  1  0  0  0  0
 11 15  1  1  0  0  0
 11 10  1  0  0  0  0
 11 16  1  0  0  0  0
 16 22  1  0  0  0  0
 17 16  1  0  0  0  0
 18 17  1  0  0  0  0
 18 19  1  0  0  0  0
 19 21  1  0  0  0  0
 19 20  1  0  0  0  0
 21 22  1  0  0  0  0
 23 27  1  0  0  0  0
 23  1  1  0  0  0  0
 24 23  2  0  0  0  0
 25 26  1  0  0  0  0
 26 31  2  0  0  0  0
 26 27  1  0  0  0  0
 27 28  2  0  0  0  0
 28 29  1  0  0  0  0
 28 32  1  0  0  0  0
 29 33  1  0  0  0  0
 30 34  1  0  0  0  0
 30 29  2  0  0  0  0
 31 30  1  0  0  0  0
 35 37  1  0  0  0  0
 35 31  1  0  0  0  0
 37 36  2  0  0  0  0
 37 40  1  0  0  0  0
 38 37  1  0  0  0  0
 39 38  1  0  0  0  0
 41 40  1  0  0  0  0
M  END
>  <minimizedAffinity>
-5.73362541

$$$$

 OpenBabel03242523253D

 41 44  0  0  1  0  0  0  0  0999 V2000
   37.5630   30.7730   39.9530 C   0  0  0  0  0  0  0  0  0  0  0  0
   38.6270   30.4350   39.2310 C   0  0  0  0  0  0  0  0  0  0  0  0
   39.5860   31.3950   39.1380 C   0  0  0  0  0  0  0  0  0  0  0  0
   39.3820   32.6250   39.7870 N   0  0  0  0  0  0  0  0  0  0  0  0
   38.3030   32.8980   40.4860 C   0  0  0  0  0  0  0  0  0  0  0  0
   37.3130   31.9530   40.6040 N   0  0  0  0  0  0  0  0  0  0  0  0
   40.5150   31.4700   38.6430 H   0  0  0  0  0  0  0  0  0  0  0  0
   38.2040   33.8850   40.9720 H   0  0  0  0  0  0  0  0  0  0  0  0
   38.8140   29.2480   38.4760 C   0  0  1  0  0  0  0  0  0  0  0  0
   39.8920   28.8380   37.7580 C   0  0  0  0  0  0  0  0  0  0  0  0
   39.6950   28.1080   39.0580 C   0  0  1  0  0  0  0  0  0  0  0  0
   37.8420   28.8950   38.0020 H   0  0  0  0  0  0  0  0  0  0  0  0
   40.7520   29.5260   37.6140 H   0  0  0  0  0  0  0  0  0  0  0  0
   39.9120   28.1140   36.8850 H   0  0  0  0  0  0  0  0  0  0  0  0
   39.1420   27.1190   38.9700 H   0  0  0  0  0  0  0  0  0  0  0  0
   40.6920   28.2760   39.9890 N   0  0  0  0  0  0  0  0  0  0  0  0
   40.5630   28.2160   41.3690 C   0  0  0  0  0  2  0  0  0  0  0  0
   41.0600   29.4980   42.0780 C   0  0  0  0  0  2  0  0  0  0  0  0
   42.5500   29.5300   41.8040 C   0  0  0  0  0  3  0  0  0  0  0  0
   43.0180   28.6150   42.1750 H   0  0  0  0  0  0  0  0  0  0  0  0
   42.6770   29.6930   40.3050 C   0  0  0  0  0  2  0  0  0  0  0  0
   42.0060   28.5700   39.5560 C   0  0  0  0  0  2  0  0  0  0  0  0
   36.4040   29.9130   40.2750 C   0  0  0  0  0  0  0  0  0  0  0  0
   35.2710   29.5430   40.1590 O   0  0  0  0  0  0  0  0  0  0  0  0
   36.3380   26.8840   39.6700 Cl  0  0  0  0  0  0  0  0  0  0  0  0
   36.8380   27.5310   41.2170 C   0  0  0  0  0  0  0  0  0  0  0  0
   36.8250   28.9430   41.3350 C   0  0  0  0  0  0  0  0  0  0  0  0
   37.2460   29.3240   42.5880 C   0  0  0  0  0  0  0  0  0  0  0  0
   37.6310   28.6040   43.6320 C   0  0  0  0  0  0  0  0  0  0  0  0
   37.6180   27.2390   43.4520 C   0  0  0  0  0  0  0  0  0  0  0  0
   37.2300   26.6930   42.2620 C   0  0  0  0  0  0  0  0  0  0  0  0
   37.3150   30.4180   42.8030 H   0  0  0  0  0  0  0  0  0  0  0  0
   37.9480   29.0000   44.5980 H   0  0  0  0  0  0  0  0  0  0  0  0
   37.9330   26.6030   44.3000 H   0  0  0  0  0  0  0  0  0  0  0  0
   37.2660   25.3300   42.2070 O   0  0  0  0  0  0  0  0  0  0  0  0
   39.4260   24.9490   40.7730 O   0  0  0  0  0  0  0  0  0  0  0  0
   38.5510   24.2970   41.8170 P   0  0  0  0  0  0  0  0  0  0  0  0
   39.4340   23.9480   43.2270 O   0  0  0  0  0  0  0  0  0  0  0  0
   39.1450   23.1180   43.6510 H   0  0  0  0  0  0  0  0  0  0  0  0
   38.0010   22.8010   41.2500 O   0  0  0  0  0  0  0  0  0  0  0  0
   37.3790   22.4300   41.9460 H   0  0  0  0  0  0  0  0  0  0  0  0
  1 23  1  0  0  0  0
  1  6  1  0  0  0  0
  2  1  2  0  0  0  0
  3  2  1  0  0  0  0
  3  4  2  0  0  0  0
  4  5  1  0  0  0  0
  5  6  2  0  0  0  0
  5  8  1  0  0  0  0
  7  3  1  0  0  0  0
  9 12  1  6  0  0  0
  9 11  1  0  0  0  0
  9  2  1  0  0  0  0
 10  9  1  0  0  0  0
 10 11  1  0  0  0  0
 11 15  1  6  0  0  0
 11 16  1  0  0  0  0
 13 10  1  0  0  0  0
 14 10  1  0  0  0  0
 16 17  1  0  0  0  0
 17 18  1  0  0  0  0
 19 18  1  0  0  0  0
 19 20  1  0  0  0  0
 21 19  1  0  0  0  0
 22 16  1  0  0  0  0
 22 21  1  0  0  0  0
 23 27  1  0  0  0  0
 24 23  2  0  0  0  0
 25 26  1  0  0  0  0
 26 27  2  0  0  0  0
 26 31  1  0  0  0  0
 27 28  1  0  0  0  0
 28 32  1  0  0  0  0
 28 29  2  0  0  0  0
 29 33  1  0  0  0  0
 30 29  1  0  0  0  0
 30 34  1  0  0  0  0
 31 30  2  0  0  0  0
 35 31  1  0  0  0  0
 36 37  2  0  0  0  0
 37 35  1  0  0  0  0
 37 38  1  0  0  0  0
 38 39  1  0  0  0  0
 40 37  1  0  0  0  0
 40 41  1  0  0  0  0
M  END
>  <minimizedAffinity>
-5.68046904

$$$$

 OpenBabel03242523253D

 41 44  0  0  1  0  0  0  0  0999 V2000
   39.4870   28.2930   41.8930 C   0  0  0  0  0  0  0  0  0  0  0  0
   39.2750   27.6930   40.7260 C   0  0  0  0  0  0  0  0  0  0  0  0
   38.1150   26.9860   40.6470 C   0  0  0  0  0  0  0  0  0  0  0  0
   37.2640   26.9480   41.7650 N   0  0  0  0  0  0  0  0  0  0  0  0
   37.5330   27.5640   42.8940 C   0  0  0  0  0  0  0  0  0  0  0  0
   38.6950   28.2880   43.0120 N   0  0  0  0  0  0  0  0  0  0  0  0
   37.6580   26.3910   39.9040 H   0  0  0  0  0  0  0  0  0  0  0  0
   36.8220   27.4940   43.7360 H   0  0  0  0  0  0  0  0  0  0  0  0
   40.1610   27.6210   39.6200 C   0  0  1  0  0  0  0  0  0  0  0  0
   39.9850   27.0420   38.4040 C   0  0  0  0  0  0  0  0  0  0  0  0
   39.9200   28.5440   38.3930 C   0  0  1  0  0  0  0  0  0  0  0  0
   41.2460   27.5600   39.9550 H   0  0  0  0  0  0  0  0  0  0  0  0
   39.0790   26.4290   38.2120 H   0  0  0  0  0  0  0  0  0  0  0  0
   40.7830   26.6650   37.6920 H   0  0  0  0  0  0  0  0  0  0  0  0
   40.8920   29.0610   38.1110 H   0  0  0  0  0  0  0  0  0  0  0  0
   38.7070   29.0810   38.0340 N   0  0  0  0  0  0  0  0  0  0  0  0
   38.1790   30.2960   38.4470 C   0  0  0  0  0  2  0  0  0  0  0  0
   36.7890   30.1560   39.1120 C   0  0  0  0  0  2  0  0  0  0  0  0
   35.8830   29.6680   37.9990 C   0  0  0  0  0  3  0  0  0  0  0  0
   35.9010   30.3750   37.1660 H   0  0  0  0  0  0  0  0  0  0  0  0
   36.4120   28.3000   37.6240 C   0  0  0  0  0  2  0  0  0  0  0  0
   37.8500   28.3540   37.1760 C   0  0  0  0  0  2  0  0  0  0  0  0
   40.6240   29.1720   42.2410 C   0  0  0  0  0  0  0  0  0  0  0  0
   41.6540   29.4350   42.7910 O   0  0  0  0  0  0  0  0  0  0  0  0
   42.7200   30.1160   40.1780 Cl  0  0  0  0  0  0  0  0  0  0  0  0
   41.3020   31.0570   40.5860 C   0  0  0  0  0  0  0  0  0  0  0  0
   40.4280   30.4830   41.5430 C   0  0  0  0  0  0  0  0  0  0  0  0
   39.3520   31.3100   41.7690 C   0  0  0  0  0  0  0  0  0  0  0  0
   39.0430   32.4920   41.2550 C   0  0  0  0  0  0  0  0  0  0  0  0
   39.9340   32.9950   40.3340 C   0  0  0  0  0  0  0  0  0  0  0  0
   41.0560   32.2950   39.9910 C   0  0  0  0  0  0  0  0  0  0  0  0
   38.5670   30.9580   42.4800 H   0  0  0  0  0  0  0  0  0  0  0  0
   38.1580   33.0820   41.5010 H   0  0  0  0  0  0  0  0  0  0  0  0
   39.7110   33.9790   39.8820 H   0  0  0  0  0  0  0  0  0  0  0  0
   41.8570   32.8960   39.0640 O   0  0  0  0  0  0  0  0  0  0  0  0
   42.7370   31.5500   36.9940 O   0  0  0  0  0  0  0  0  0  0  0  0
   41.8730   32.7280   37.3780 P   0  0  0  0  0  0  0  0  0  0  0  0
   40.2800   32.5290   36.8210 O   0  0  0  0  0  0  0  0  0  0  0  0
   39.8750   33.3710   36.5430 H   0  0  0  0  0  0  0  0  0  0  0  0
   42.4420   34.1280   36.6160 O   0  0  0  0  0  0  0  0  0  0  0  0
   41.8800   34.8940   36.9440 H   0  0  0  0  0  0  0  0  0  0  0  0
  1 23  1  0  0  0  0
  1  6  1  0  0  0  0
  2  1  2  0  0  0  0
  3  2  1  0  0  0  0
  3  4  2  0  0  0  0
  4  5  1  0  0  0  0
  5  6  2  0  0  0  0
  5  8  1  0  0  0  0
  7  3  1  0  0  0  0
  9 12  1  1  0  0  0
  9  2  1  0  0  0  0
 10  9  1  0  0  0  0
 11 15  1  6  0  0  0
 11 10  1  0  0  0  0
 11  9  1  0  0  0  0
 13 10  1  0  0  0  0
 14 10  1  0  0  0  0
 16 11  1  0  0  0  0
 16 17  1  0  0  0  0
 17 18  1  0  0  0  0
 19 18  1  0  0  0  0
 20 19  1  0  0  0  0
 21 19  1  0  0  0  0
 22 21  1  0  0  0  0
 22 16  1  0  0  0  0
 23 24  2  0  0  0  0
 25 26  1  0  0  0  0
 26 27  1  0  0  0  0
 27 28  2  0  0  0  0
 27 23  1  0  0  0  0
 28 32  1  0  0  0  0
 29 33  1  0  0  0  0
 29 28  1  0  0  0  0
 30 29  2  0  0  0  0
 31 30  1  0  0  0  0
 31 26  2  0  0  0  0
 34 30  1  0  0  0  0
 35 31  1  0  0  0  0
 36 37  2  0  0  0  0
 37 35  1  0  0  0  0
 38 37  1  0  0  0  0
 39 38  1  0  0  0  0
 40 41  1  0  0  0  0
 40 37  1  0  0  0  0
M  END
>  <minimizedAffinity>
-5.62507915

$$$$

 OpenBabel03242523253D

 41 44  0  0  1  0  0  0  0  0999 V2000
   38.0570   29.2920   41.6870 C   0  0  0  0  0  0  0  0  0  0  0  0
   38.9730   28.3980   41.3250 C   0  0  0  0  0  0  0  0  0  0  0  0
   39.1520   27.3730   42.2020 C   0  0  0  0  0  0  0  0  0  0  0  0
   38.3840   27.3420   43.3780 N   0  0  0  0  0  0  0  0  0  0  0  0
   37.4940   28.2600   43.6800 C   0  0  0  0  0  0  0  0  0  0  0  0
   37.2840   29.3110   42.8190 N   0  0  0  0  0  0  0  0  0  0  0  0
   39.7890   26.5330   42.2400 H   0  0  0  0  0  0  0  0  0  0  0  0
   36.9230   28.1780   44.6220 H   0  0  0  0  0  0  0  0  0  0  0  0
   39.8390   28.4580   40.2030 C   0  0  1  0  0  0  0  0  0  0  0  0
   40.7470   27.5510   39.7590 C   0  0  0  0  0  0  0  0  0  0  0  0
   39.4930   27.6330   38.9330 C   0  0  1  0  0  0  0  0  0  0  0  0
   40.1800   29.5230   39.9930 H   0  0  0  0  0  0  0  0  0  0  0  0
   40.9700   26.6510   40.3710 H   0  0  0  0  0  0  0  0  0  0  0  0
   41.6660   27.7420   39.1230 H   0  0  0  0  0  0  0  0  0  0  0  0
   39.5710   28.2990   38.0150 H   0  0  0  0  0  0  0  0  0  0  0  0
   38.7220   26.4960   38.9140 N   0  0  0  0  0  0  0  0  0  0  0  0
   37.3490   26.4240   38.7240 C   0  0  0  0  0  2  0  0  0  0  0  0
   36.6170   25.6950   39.8760 C   0  0  0  0  0  2  0  0  0  0  0  0
   37.1210   24.2670   39.8030 C   0  0  0  0  0  3  0  0  0  0  0  0
   36.9110   23.8480   38.8150 H   0  0  0  0  0  0  0  0  0  0  0  0
   38.6010   24.3490   40.1070 C   0  0  0  0  0  2  0  0  0  0  0  0
   39.3290   25.2370   39.1310 C   0  0  0  0  0  2  0  0  0  0  0  0
   37.6120   30.4670   40.9070 C   0  0  0  0  0  0  0  0  0  0  0  0
   37.5850   31.6310   40.6340 O   0  0  0  0  0  0  0  0  0  0  0  0
   38.3560   30.7830   37.9260 Cl  0  0  0  0  0  0  0  0  0  0  0  0
   36.8450   30.0780   38.4560 C   0  0  0  0  0  0  0  0  0  0  0  0
   36.6550   29.9910   39.8580 C   0  0  0  0  0  0  0  0  0  0  0  0
   35.4400   29.4130   40.1440 C   0  0  0  0  0  0  0  0  0  0  0  0
   34.4840   28.9600   39.3460 C   0  0  0  0  0  0  0  0  0  0  0  0
   34.7290   29.0760   37.9950 C   0  0  0  0  0  0  0  0  0  0  0  0
   35.8940   29.6250   37.5400 C   0  0  0  0  0  0  0  0  0  0  0  0
   35.1810   29.2540   41.2180 H   0  0  0  0  0  0  0  0  0  0  0  0
   33.5410   28.5150   39.6680 H   0  0  0  0  0  0  0  0  0  0  0  0
   33.9550   28.7090   37.2960 H   0  0  0  0  0  0  0  0  0  0  0  0
   36.0210   29.6790   36.1820 O   0  0  0  0  0  0  0  0  0  0  0  0
   35.9130   27.3310   35.0240 O   0  0  0  0  0  0  0  0  0  0  0  0
   36.7550   28.5810   35.1210 P   0  0  0  0  0  0  0  0  0  0  0  0
   36.9430   29.3150   33.6000 O   0  0  0  0  0  0  0  0  0  0  0  0
   37.8230   29.7190   33.4880 H   0  0  0  0  0  0  0  0  0  0  0  0
   38.3210   28.1800   35.6220 O   0  0  0  0  0  0  0  0  0  0  0  0
   38.8280   29.0400   35.7310 H   0  0  0  0  0  0  0  0  0  0  0  0
  1  6  1  0  0  0  0
  2  1  2  0  0  0  0
  2  3  1  0  0  0  0
  3  7  1  0  0  0  0
  3  4  2  0  0  0  0
  4  5  1  0  0  0  0
  5  8  1  0  0  0  0
  6  5  2  0  0  0  0
  9 12  1  6  0  0  0
  9  2  1  0  0  0  0
 10  9  1  0  0  0  0
 10 13  1  0  0  0  0
 11 15  1  6  0  0  0
 11 10  1  0  0  0  0
 11  9  1  0  0  0  0
 14 10  1  0  0  0  0
 16 11  1  0  0  0  0
 16 22  1  0  0  0  0
 17 16  1  0  0  0  0
 17 18  1  0  0  0  0
 19 18  1  0  0  0  0
 19 21  1  0  0  0  0
 20 19  1  0  0  0  0
 22 21  1  0  0  0  0
 23  1  1  0  0  0  0
 24 23  2  0  0  0  0
 25 26  1  0  0  0  0
 26 27  1  0  0  0  0
 27 28  2  0  0  0  0
 27 23  1  0  0  0  0
 28 32  1  0  0  0  0
 29 33  1  0  0  0  0
 29 28  1  0  0  0  0
 30 29  2  0  0  0  0
 31 30  1  0  0  0  0
 31 26  2  0  0  0  0
 34 30  1  0  0  0  0
 35 31  1  0  0  0  0
 36 37  2  0  0  0  0
 37 40  1  0  0  0  0
 37 35  1  0  0  0  0
 38 37  1  0  0  0  0
 39 38  1  0  0  0  0
 40 41  1  0  0  0  0
M  END
>  <minimizedAffinity>
-5.60589504

$$$$
