
 OpenBabel03252500593D

 23 25  0  0  1  0  0  0  0  0999 V2000
   42.7410   35.2690   40.2490 C   0  0  1  0  0  0  0  0  0  0  0  0
   42.2040   35.3100   41.6590 C   0  0  0  0  0  0  0  0  0  0  0  0
   43.7020   35.5330   41.3090 C   0  0  1  0  0  0  0  0  0  0  0  0
   42.4280   36.1320   39.5850 H   0  0  0  0  0  0  0  0  0  0  0  0
   41.6030   36.2080   41.9240 H   0  0  0  0  0  0  0  0  0  0  0  0
   41.8940   34.3870   42.1310 H   0  0  0  0  0  0  0  0  0  0  0  0
   44.0110   36.5870   41.5520 H   0  0  0  0  0  0  0  0  0  0  0  0
   43.2400   32.2690   38.0140 C   0  0  0  0  0  0  0  0  0  0  0  0
   43.3900   33.5830   38.4860 C   0  0  0  0  0  0  0  0  0  0  0  0
   42.6740   33.9230   39.6240 C   0  0  0  0  0  0  0  0  0  0  0  0
   41.8860   32.9850   40.2050 N   0  0  0  0  0  0  0  0  0  0  0  0
   41.7480   31.7200   39.7420 C   0  0  0  0  0  0  0  0  0  0  0  0
   42.4410   31.3700   38.6310 N   0  0  0  0  0  0  0  0  0  0  0  0
   43.7920   31.9760   37.1210 H   0  0  0  0  0  0  0  0  0  0  0  0
   44.0240   34.3190   38.0110 H   0  0  0  0  0  0  0  0  0  0  0  0
   41.0910   31.0790   40.2980 H   0  0  0  0  0  0  0  0  0  0  0  0
   44.5230   34.5380   41.9370 N   0  0  0  0  0  0  0  0  0  0  0  0
   44.7630   34.6870   43.3260 C   0  0  0  0  0  0  0  0  0  0  0  0
   45.8700   33.7170   43.7680 C   0  0  0  0  0  0  0  0  0  0  0  0
   47.1700   34.3080   43.2730 C   0  0  0  0  0  0  0  0  0  0  0  0
   47.4540   35.1250   43.9800 H   0  0  0  0  0  0  0  0  0  0  0  0
   46.9130   34.9390   41.9350 C   0  0  0  0  0  0  0  0  0  0  0  0
   45.7510   34.2870   41.2260 C   0  0  0  0  0  0  0  0  0  0  0  0
  1  4  1  6  0  0  0
  1  3  1  0  0  0  0
  1  2  1  0  0  0  0
  2  5  1  0  0  0  0
  2  6  1  0  0  0  0
  3  7  1  1  0  0  0
  3  2  1  0  0  0  0
  3 17  1  0  0  0  0
  8  9  2  0  0  0  0
  8 13  1  0  0  0  0
  9 10  1  0  0  0  0
 10 11  2  0  0  0  0
 10  1  1  0  0  0  0
 12 11  1  0  0  0  0
 12 16  1  0  0  0  0
 13 12  2  0  0  0  0
 14  8  1  0  0  0  0
 15  9  1  0  0  0  0
 17 18  1  0  0  0  0
 18 19  1  0  0  0  0
 20 19  1  0  0  0  0
 20 21  1  0  0  0  0
 22 20  1  0  0  0  0
 23 22  1  0  0  0  0
 23 17  1  0  0  0  0
M  END
>  <minimizedAffinity>
-3.69301057

>  <minimizedRMSD>
5.49952078

$$$$
