
 OpenBabel03252509353D

 42 44  0  0  1  0  0  0  0  0999 V2000
   44.5250   35.4660   44.0560 O   0  0  0  0  0  0  0  0  0  0  0  0
   45.3890   34.2600   44.3670 P   0  0  1  0  0  0  0  0  0  0  0  0
   44.7200   32.8510   43.7060 O   0  0  0  0  0  0  0  0  0  0  0  0
   44.4850   33.0390   42.7760 H   0  0  0  0  0  0  0  0  0  0  0  0
   46.9050   34.5290   43.7190 O   0  0  0  0  0  0  0  0  0  0  0  0
   47.0330   33.8310   42.5130 C   0  0  1  0  0  0  0  0  0  0  0  0
   46.4490   34.6640   41.3680 C   0  0  0  0  0  0  0  0  0  0  0  0
   46.9600   33.8950   40.1760 C   0  0  0  0  0  0  0  0  0  0  0  0
   48.2460   33.2250   40.6280 C   0  0  0  0  0  0  0  0  0  0  0  0
   48.4490   33.6910   42.0520 C   0  0  1  0  0  0  0  0  0  0  0  0
   46.5110   32.8770   42.5030 H   0  0  0  0  0  0  0  0  0  0  0  0
   46.7190   35.7130   41.4040 H   0  0  0  0  0  0  0  0  0  0  0  0
   45.3460   34.6070   41.4550 H   0  0  0  0  0  0  0  0  0  0  0  0
   46.1790   33.1300   39.8990 H   0  0  0  0  0  0  0  0  0  0  0  0
   47.1320   34.5180   39.2990 H   0  0  0  0  0  0  0  0  0  0  0  0
   48.0840   32.1180   40.6060 H   0  0  0  0  0  0  0  0  0  0  0  0
   49.0960   33.4730   39.9740 H   0  0  0  0  0  0  0  0  0  0  0  0
   48.9730   32.8690   42.6160 H   0  0  0  0  0  0  0  0  0  0  0  0
   49.2170   34.9850   42.1070 C   0  0  0  0  0  0  0  0  0  0  0  0
   49.8380   35.0380   41.1710 H   0  0  0  0  0  0  0  0  0  0  0  0
   48.5890   35.8910   42.0870 H   0  0  0  0  0  0  0  0  0  0  0  0
   50.0150   35.0780   43.2260 O   0  0  0  0  0  0  0  0  0  0  0  0
   50.0420   34.2260   43.7210 H   0  0  0  0  0  0  0  0  0  0  0  0
   45.4810   34.0090   46.0140 O   0  0  0  0  0  0  0  0  0  0  0  0
   46.3960   33.0390   46.2670 C   0  0  0  0  0  0  0  0  0  0  0  0
   47.2520   33.5460   46.8030 H   0  0  0  0  0  0  0  0  0  0  0  0
   46.8610   32.5290   45.4260 H   0  0  0  0  0  0  0  0  0  0  0  0
   45.3780   31.3940   49.4450 C   0  0  0  0  0  0  0  0  0  0  0  0
   45.8400   32.3810   48.5680 C   0  0  0  0  0  0  0  0  0  0  0  0
   45.9090   32.0220   47.2150 C   0  0  0  0  0  0  0  0  0  0  0  0
   45.5340   30.7690   46.8390 N   0  0  0  0  0  0  0  0  0  0  0  0
   45.0920   29.8410   47.7130 C   0  0  0  0  0  0  0  0  0  0  0  0
   45.0180   30.1530   48.9980 N   0  0  0  0  0  0  0  0  0  0  0  0
   45.3110   31.6360   50.4990 H   0  0  0  0  0  0  0  0  0  0  0  0
   46.1120   33.3380   48.9590 H   0  0  0  0  0  0  0  0  0  0  0  0
   44.7240   28.5570   47.2190 N   0  0  0  0  0  0  0  0  0  0  0  0
   44.1970   28.4120   45.8740 C   0  0  0  0  0  2  0  0  0  0  0  0
   44.5340   27.0440   45.3140 C   0  0  0  0  0  2  0  0  0  0  0  0
   45.9040   26.6950   45.8600 C   0  0  0  0  0  3  0  0  0  0  0  0
   46.2620   25.7950   45.3370 H   0  0  0  0  0  0  0  0  0  0  0  0
   45.9100   26.5140   47.3610 C   0  0  0  0  0  2  0  0  0  0  0  0
   44.8670   27.3730   48.0470 C   0  0  0  0  0  2  0  0  0  0  0  0
  2  1  2  6  0  0  0
  2 24  1  0  0  0  0
  3  2  1  0  0  0  0
  4  3  1  0  0  0  0
  5  2  1  0  0  0  0
  6 11  1  1  0  0  0
  6  5  1  0  0  0  0
  7 12  1  0  0  0  0
  7 13  1  0  0  0  0
  7  6  1  0  0  0  0
  8  9  1  0  0  0  0
  8  7  1  0  0  0  0
  9 10  1  0  0  0  0
 10 19  1  0  0  0  0
 10  6  1  0  0  0  0
 10 18  1  1  0  0  0
 14  8  1  0  0  0  0
 15  8  1  0  0  0  0
 16  9  1  0  0  0  0
 17  9  1  0  0  0  0
 19 22  1  0  0  0  0
 20 19  1  0  0  0  0
 21 19  1  0  0  0  0
 22 23  1  0  0  0  0
 24 25  1  0  0  0  0
 25 26  1  0  0  0  0
 25 30  1  0  0  0  0
 27 25  1  0  0  0  0
 28 34  1  0  0  0  0
 29 35  1  0  0  0  0
 29 28  2  0  0  0  0
 30 29  1  0  0  0  0
 31 30  2  0  0  0  0
 31 32  1  0  0  0  0
 32 33  2  0  0  0  0
 33 28  1  0  0  0  0
 36 32  1  0  0  0  0
 36 42  1  0  0  0  0
 37 36  1  0  0  0  0
 38 39  1  0  0  0  0
 38 37  1  0  0  0  0
 39 41  1  0  0  0  0
 40 39  1  0  0  0  0
 41 42  1  0  0  0  0
M  END
>  <minimizedAffinity>
-6.21553564

>  <minimizedRMSD>
1.03549957

$$$$
