
 OpenBabel03252502583D

 20 21  0  0  0  0  0  0  0  0999 V2000
   43.7470   35.4580   41.5410 S   0  0  0  0  0  0  0  0  0  0  0  0
   44.2480   35.7450   44.2500 C   0  0  0  0  0  0  0  0  0  0  0  0
   44.4030   34.9100   43.1330 C   0  0  0  0  0  0  0  0  0  0  0  0
   45.0440   33.6900   43.2340 C   0  0  0  0  0  0  0  0  0  0  0  0
   45.5150   33.3460   44.4780 N   0  0  0  0  0  0  0  0  0  0  0  0
   45.3530   34.1660   45.5370 C   0  0  0  0  0  0  0  0  0  0  0  0
   44.7410   35.3390   45.4580 N   0  0  0  0  0  0  0  0  0  0  0  0
   43.7490   36.7040   44.1900 H   0  0  0  0  0  0  0  0  0  0  0  0
   45.1730   33.0320   42.3850 H   0  0  0  0  0  0  0  0  0  0  0  0
   45.7370   33.8660   46.5090 H   0  0  0  0  0  0  0  0  0  0  0  0
   42.1590   34.6690   41.2560 C   0  0  0  0  0  0  0  0  0  0  0  0
   42.2950   33.6160   40.9540 H   0  0  0  0  0  0  0  0  0  0  0  0
   41.5190   34.7170   42.1780 H   0  0  0  0  0  0  0  0  0  0  0  0
   41.4680   35.4020   40.2110 N   0  0  0  0  0  0  0  0  0  0  0  0
   40.0890   35.6290   40.4490 C   0  0  0  0  0  0  0  0  0  0  0  0
   39.1260   34.7770   39.6740 C   0  0  0  0  0  0  0  0  0  0  0  0
   39.5720   34.5260   38.2550 C   0  0  0  0  0  0  0  0  0  0  0  0
   38.7850   34.7120   37.4970 H   0  0  0  0  0  0  0  0  0  0  0  0
   40.8040   35.3140   37.8940 C   0  0  0  0  0  0  0  0  0  0  0  0
   41.8530   34.9820   38.9100 C   0  0  0  0  0  0  0  0  0  0  0  0
  1  3  1  0  0  0  0
  2  7  1  0  0  0  0
  3  4  1  0  0  0  0
  3  2  2  0  0  0  0
  4  5  2  0  0  0  0
  5  6  1  0  0  0  0
  6 10  1  0  0  0  0
  7  6  2  0  0  0  0
  8  2  1  0  0  0  0
  9  4  1  0  0  0  0
 11  1  1  0  0  0  0
 11 13  1  0  0  0  0
 12 11  1  0  0  0  0
 14 15  1  0  0  0  0
 14 11  1  0  0  0  0
 16 15  1  0  0  0  0
 17 16  1  0  0  0  0
 18 17  1  0  0  0  0
 19 17  1  0  0  0  0
 19 20  1  0  0  0  0
 20 14  1  0  0  0  0
M  END
>  <minimizedAffinity>
-4.66588211

>  <minimizedRMSD>
3.33143854

$$$$
