
 OpenBabel03242511453D

 42 44  0  0  0  0  0  0  0  0999 V2000
   45.8960   32.3330   44.5370 C   0  0  0  0  0  0  0  0  0  0  0  0
   45.1650   31.5150   44.5840 H   0  0  0  0  0  0  0  0  0  0  0  0
   46.5990   32.1200   43.7100 H   0  0  0  0  0  0  0  0  0  0  0  0
   44.6450   35.7660   44.8200 C   0  0  0  0  0  0  0  0  0  0  0  0
   44.1310   36.0070   43.5120 C   0  0  0  0  0  0  0  0  0  0  0  0
   44.2420   34.9790   42.6090 C   0  0  0  0  0  0  0  0  0  0  0  0
   44.8110   33.8230   42.9750 N   0  0  0  0  0  0  0  0  0  0  0  0
   45.2810   33.6450   44.2210 C   0  0  0  0  0  0  0  0  0  0  0  0
   45.2090   34.5790   45.1310 N   0  0  0  0  0  0  0  0  0  0  0  0
   44.5970   36.5180   45.5870 H   0  0  0  0  0  0  0  0  0  0  0  0
   43.6980   36.9880   43.3620 H   0  0  0  0  0  0  0  0  0  0  0  0
   43.7040   35.2410   41.2480 C   0  0  0  0  0  0  0  0  0  0  0  0
   44.2970   36.1050   40.8430 H   0  0  0  0  0  0  0  0  0  0  0  0
   43.9490   34.3320   40.6480 H   0  0  0  0  0  0  0  0  0  0  0  0
   42.2240   35.5160   41.2720 C   0  0  0  0  0  0  0  0  0  0  0  0
   42.0970   36.5910   41.0670 H   0  0  0  0  0  0  0  0  0  0  0  0
   41.8660   35.2200   42.2730 H   0  0  0  0  0  0  0  0  0  0  0  0
   41.5010   34.7910   40.2830 N   0  0  0  0  0  0  0  0  0  0  0  0
   42.1360   34.6910   38.9990 C   0  0  0  0  0  0  0  0  0  0  0  0
   41.3990   35.6210   38.0510 C   0  0  0  0  0  0  0  0  0  0  0  0
   40.0820   34.9170   37.7170 C   0  0  0  0  0  0  0  0  0  0  0  0
   39.4800   35.6400   37.1210 H   0  0  0  0  0  0  0  0  0  0  0  0
   39.4440   34.5130   39.0140 C   0  0  0  0  0  0  0  0  0  0  0  0
   40.1120   35.1160   40.2290 C   0  0  0  0  0  0  0  0  0  0  0  0
   46.7120   32.4780   45.7950 C   0  0  0  0  0  0  0  0  0  0  0  0
   47.7720   32.1280   45.6400 H   0  0  0  0  0  0  0  0  0  0  0  0
   46.8420   33.5610   46.0740 H   0  0  0  0  0  0  0  0  0  0  0  0
   46.1370   31.7700   46.9180 C   0  0  0  0  0  0  0  0  0  0  0  0
   45.3860   32.2640   47.9590 C   0  0  0  0  0  0  0  0  0  0  0  0
   44.8850   31.5060   48.9720 C   0  0  0  0  0  0  0  0  0  0  0  0
   45.1430   30.1610   48.9520 C   0  0  0  0  0  0  0  0  0  0  0  0
   45.8940   29.6460   47.9180 C   0  0  0  0  0  0  0  0  0  0  0  0
   46.3920   30.4350   46.9030 C   0  0  0  0  0  0  0  0  0  0  0  0
   45.2100   33.3500   47.9220 H   0  0  0  0  0  0  0  0  0  0  0  0
   44.3140   32.0350   49.7240 H   0  0  0  0  0  0  0  0  0  0  0  0
   44.7180   29.6000   49.7890 H   0  0  0  0  0  0  0  0  0  0  0  0
   46.0050   28.5570   48.0570 H   0  0  0  0  0  0  0  0  0  0  0  0
   48.4830   29.3340   46.3980 C   0  0  0  0  0  0  0  0  0  0  0  0
   49.3110   29.6790   47.3350 O   0  0  0  0  0  0  0  0  0  0  0  0
   47.1220   29.5770   46.0100 N   0  0  0  0  0  0  0  0  0  0  0  0
   49.1860   28.6860   45.8510 H   0  0  0  0  0  0  0  0  0  0  0  0
   46.8980   29.0860   45.1420 H   0  0  0  0  0  0  0  0  0  0  0  0
  1  2  1  0  0  0  0
  1 25  1  0  0  0  0
  3  1  1  0  0  0  0
  4  9  1  0  0  0  0
  4 10  1  0  0  0  0
  5  4  2  0  0  0  0
  6  7  2  0  0  0  0
  6  5  1  0  0  0  0
  7  8  1  0  0  0  0
  8  1  1  0  0  0  0
  8  9  2  0  0  0  0
 11  5  1  0  0  0  0
 12 15  1  0  0  0  0
 12  6  1  0  0  0  0
 13 12  1  0  0  0  0
 14 12  1  0  0  0  0
 15 17  1  0  0  0  0
 16 15  1  0  0  0  0
 18 15  1  0  0  0  0
 19 18  1  0  0  0  0
 20 19  1  0  0  0  0
 21 20  1  0  0  0  0
 21 23  1  0  0  0  0
 22 21  1  0  0  0  0
 23 24  1  0  0  0  0
 24 18  1  0  0  0  0
 25 27  1  0  0  0  0
 25 28  1  0  0  0  0
 26 25  1  0  0  0  0
 28 29  1  0  0  0  0
 29 30  2  0  0  0  0
 30 35  1  0  0  0  0
 31 30  1  0  0  0  0
 31 36  1  0  0  0  0
 32 37  1  0  0  0  0
 32 31  2  0  0  0  0
 33 28  2  0  0  0  0
 33 32  1  0  0  0  0
 34 29  1  0  0  0  0
 38 39  2  0  0  0  0
 40 38  1  0  0  0  0
 40 33  1  0  0  0  0
 41 38  1  0  0  0  0
 42 40  1  0  0  0  0
M  END
>  <minimizedAffinity>
-6.07323313

>  <minimizedRMSD>
1.13144994

$$$$
