
 OpenBabel03252508433D

 29 31  0  0  0  0  0  0  0  0999 V2000
   45.7340   34.2380   41.6160 C   0  0  0  0  0  0  0  0  0  0  0  0
   47.0800   34.3450   41.2760 C   0  0  0  0  0  0  0  0  0  0  0  0
   47.4990   33.9370   40.0310 C   0  0  0  0  0  0  0  0  0  0  0  0
   46.5820   33.4340   39.1560 C   0  0  0  0  0  0  0  0  0  0  0  0
   45.2550   33.3080   39.4410 C   0  0  0  0  0  0  0  0  0  0  0  0
   44.8740   33.7360   40.7160 C   0  0  0  0  0  0  0  0  0  0  0  0
   48.5400   34.0090   39.7370 H   0  0  0  0  0  0  0  0  0  0  0  0
   46.8980   33.1050   38.1610 H   0  0  0  0  0  0  0  0  0  0  0  0
   44.4950   32.9110   38.7680 H   0  0  0  0  0  0  0  0  0  0  0  0
   43.8490   33.6880   41.0640 H   0  0  0  0  0  0  0  0  0  0  0  0
   44.5650   36.3170   44.5490 C   0  0  0  0  0  0  0  0  0  0  0  0
   44.8990   35.9860   43.2160 C   0  0  0  0  0  0  0  0  0  0  0  0
   45.3590   34.6880   42.9490 C   0  0  0  0  0  0  0  0  0  0  0  0
   45.4580   33.8230   43.9790 N   0  0  0  0  0  0  0  0  0  0  0  0
   45.1290   34.1690   45.2530 C   0  0  0  0  0  0  0  0  0  0  0  0
   44.6840   35.4160   45.5320 N   0  0  0  0  0  0  0  0  0  0  0  0
   44.2340   37.3480   44.5570 H   0  0  0  0  0  0  0  0  0  0  0  0
   44.8500   36.6020   42.3520 H   0  0  0  0  0  0  0  0  0  0  0  0
   45.2010   33.4950   46.0850 H   0  0  0  0  0  0  0  0  0  0  0  0
   48.0550   34.9060   42.2770 C   0  0  0  0  0  0  0  0  0  0  0  0
   48.5670   35.7460   41.7670 H   0  0  0  0  0  0  0  0  0  0  0  0
   47.4790   35.2570   43.1550 H   0  0  0  0  0  0  0  0  0  0  0  0
   48.9820   33.8950   42.7160 N   0  0  0  0  0  0  0  0  0  0  0  0
   48.3920   32.6700   43.1040 C   0  0  0  0  0  2  0  0  0  0  0  0
   48.9850   31.4400   42.4970 C   0  0  0  0  0  2  0  0  0  0  0  0
   50.4690   31.4740   42.3220 C   0  0  0  0  0  3  0  0  0  0  0  0
   51.0000   30.8130   43.0490 H   0  0  0  0  0  0  0  0  0  0  0  0
   51.0670   32.8490   42.4670 C   0  0  0  0  0  2  0  0  0  0  0  0
   50.0650   33.7880   41.7780 C   0  0  0  0  0  2  0  0  0  0  0  0
  1 13  1  0  0  0  0
  2  1  1  0  0  0  0
  2 20  1  0  0  0  0
  3  2  2  0  0  0  0
  4  5  2  0  0  0  0
  4  3  1  0  0  0  0
  5  6  1  0  0  0  0
  6 10  1  0  0  0  0
  6  1  2  0  0  0  0
  7  3  1  0  0  0  0
  8  4  1  0  0  0  0
  9  5  1  0  0  0  0
 11 17  1  0  0  0  0
 11 16  1  0  0  0  0
 12 11  2  0  0  0  0
 13 12  1  0  0  0  0
 13 14  2  0  0  0  0
 14 15  1  0  0  0  0
 15 16  2  0  0  0  0
 15 19  1  0  0  0  0
 18 12  1  0  0  0  0
 20 23  1  0  0  0  0
 20 22  1  0  0  0  0
 21 20  1  0  0  0  0
 23 24  1  0  0  0  0
 25 24  1  0  0  0  0
 26 28  1  0  0  0  0
 26 25  1  0  0  0  0
 26 27  1  0  0  0  0
 29 28  1  0  0  0  0
 29 23  1  0  0  0  0
M  END
>  <minimizedAffinity>
-4.73185968

>  <minimizedRMSD>
1.34276366

$$$$
