
 OpenBabel03252509353D

 42 44  0  0  1  0  0  0  0  0999 V2000
   44.5250   35.4710   44.0750 O   0  0  0  0  0  0  0  0  0  0  0  0
   45.3840   34.2570   44.3660 P   0  0  1  0  0  0  0  0  0  0  0  0
   44.7070   32.8600   43.6870 O   0  0  0  0  0  0  0  0  0  0  0  0
   44.4710   33.0630   42.7600 H   0  0  0  0  0  0  0  0  0  0  0  0
   46.9000   34.5280   43.7190 O   0  0  0  0  0  0  0  0  0  0  0  0
   47.0280   33.8310   42.5120 C   0  0  1  0  0  0  0  0  0  0  0  0
   46.4460   34.6670   41.3680 C   0  0  0  0  0  0  0  0  0  0  0  0
   46.9580   33.8990   40.1750 C   0  0  0  0  0  0  0  0  0  0  0  0
   48.2430   33.2270   40.6280 C   0  0  0  0  0  0  0  0  0  0  0  0
   48.4450   33.6910   42.0520 C   0  0  1  0  0  0  0  0  0  0  0  0
   46.5060   32.8780   42.5000 H   0  0  0  0  0  0  0  0  0  0  0  0
   46.7170   35.7150   41.4050 H   0  0  0  0  0  0  0  0  0  0  0  0
   45.3430   34.6100   41.4540 H   0  0  0  0  0  0  0  0  0  0  0  0
   46.1770   33.1350   39.8960 H   0  0  0  0  0  0  0  0  0  0  0  0
   47.1320   34.5230   39.2990 H   0  0  0  0  0  0  0  0  0  0  0  0
   48.0810   32.1200   40.6040 H   0  0  0  0  0  0  0  0  0  0  0  0
   49.0950   33.4750   39.9750 H   0  0  0  0  0  0  0  0  0  0  0  0
   48.9680   32.8680   42.6160 H   0  0  0  0  0  0  0  0  0  0  0  0
   49.2140   34.9840   42.1100 C   0  0  0  0  0  0  0  0  0  0  0  0
   49.8340   35.0390   41.1740 H   0  0  0  0  0  0  0  0  0  0  0  0
   48.5870   35.8910   42.0930 H   0  0  0  0  0  0  0  0  0  0  0  0
   50.0130   35.0740   43.2280 O   0  0  0  0  0  0  0  0  0  0  0  0
   50.0400   34.2210   43.7210 H   0  0  0  0  0  0  0  0  0  0  0  0
   45.4790   33.9810   46.0090 O   0  0  0  0  0  0  0  0  0  0  0  0
   46.4300   33.0430   46.2500 C   0  0  0  0  0  0  0  0  0  0  0  0
   47.2570   33.5710   46.8120 H   0  0  0  0  0  0  0  0  0  0  0  0
   46.9270   32.5760   45.4040 H   0  0  0  0  0  0  0  0  0  0  0  0
   45.1150   31.3390   49.2850 C   0  0  0  0  0  0  0  0  0  0  0  0
   45.5400   32.3690   48.4390 C   0  0  0  0  0  0  0  0  0  0  0  0
   45.9730   31.9810   47.1640 C   0  0  0  0  0  0  0  0  0  0  0  0
   45.9570   30.6630   46.8270 N   0  0  0  0  0  0  0  0  0  0  0  0
   45.5410   29.6950   47.6700 C   0  0  0  0  0  0  0  0  0  0  0  0
   45.1270   30.0320   48.8820 N   0  0  0  0  0  0  0  0  0  0  0  0
   44.7740   31.6020   50.2800 H   0  0  0  0  0  0  0  0  0  0  0  0
   45.5150   33.3770   48.7940 H   0  0  0  0  0  0  0  0  0  0  0  0
   45.5630   28.3430   47.2230 N   0  0  0  0  0  0  0  0  0  0  0  0
   44.3290   27.6710   46.8610 C   0  0  0  0  0  2  0  0  0  0  0  0
   44.5880   26.6110   45.8090 C   0  0  0  0  0  2  0  0  0  0  0  0
   45.6870   27.1630   44.9210 C   0  0  0  0  0  3  0  0  0  0  0  0
   45.7800   26.5070   44.0430 H   0  0  0  0  0  0  0  0  0  0  0  0
   47.0040   27.3230   45.6470 C   0  0  0  0  0  2  0  0  0  0  0  0
   46.8140   27.6140   47.1230 C   0  0  0  0  0  2  0  0  0  0  0  0
  2  1  2  6  0  0  0
  2 24  1  0  0  0  0
  3  2  1  0  0  0  0
  4  3  1  0  0  0  0
  5  2  1  0  0  0  0
  6 11  1  1  0  0  0
  6  5  1  0  0  0  0
  7 12  1  0  0  0  0
  7 13  1  0  0  0  0
  7  6  1  0  0  0  0
  8  9  1  0  0  0  0
  8  7  1  0  0  0  0
  9 10  1  0  0  0  0
 10 19  1  0  0  0  0
 10  6  1  0  0  0  0
 10 18  1  1  0  0  0
 14  8  1  0  0  0  0
 15  8  1  0  0  0  0
 16  9  1  0  0  0  0
 17  9  1  0  0  0  0
 19 22  1  0  0  0  0
 20 19  1  0  0  0  0
 21 19  1  0  0  0  0
 22 23  1  0  0  0  0
 24 25  1  0  0  0  0
 25 26  1  0  0  0  0
 25 30  1  0  0  0  0
 27 25  1  0  0  0  0
 28 34  1  0  0  0  0
 29 35  1  0  0  0  0
 29 28  2  0  0  0  0
 30 29  1  0  0  0  0
 31 30  2  0  0  0  0
 31 32  1  0  0  0  0
 32 33  2  0  0  0  0
 33 28  1  0  0  0  0
 36 32  1  0  0  0  0
 37 36  1  0  0  0  0
 38 37  1  0  0  0  0
 39 41  1  0  0  0  0
 39 38  1  0  0  0  0
 40 39  1  0  0  0  0
 41 42  1  0  0  0  0
 42 36  1  0  0  0  0
M  END
>  <minimizedAffinity>
-5.98537445

>  <minimizedRMSD>
1.22409594

$$$$
