
 OpenBabel03252509353D

 42 44  0  0  1  0  0  0  0  0999 V2000
   44.3980   35.5360   44.0670 O   0  0  0  0  0  0  0  0  0  0  0  0
   45.2740   34.3400   44.3830 P   0  0  1  0  0  0  0  0  0  0  0  0
   44.6450   32.9280   43.6880 O   0  0  0  0  0  0  0  0  0  0  0  0
   44.4290   33.1250   42.7550 H   0  0  0  0  0  0  0  0  0  0  0  0
   46.8010   34.6420   43.7760 O   0  0  0  0  0  0  0  0  0  0  0  0
   47.0030   33.8890   42.6140 C   0  0  1  0  0  0  0  0  0  0  0  0
   46.4690   34.6560   41.4000 C   0  0  0  0  0  0  0  0  0  0  0  0
   47.0550   33.8390   40.2760 C   0  0  0  0  0  0  0  0  0  0  0  0
   48.3240   33.2140   40.8280 C   0  0  0  0  0  0  0  0  0  0  0  0
   48.4440   33.7520   42.2360 C   0  0  1  0  0  0  0  0  0  0  0  0
   46.4970   32.9260   42.6230 H   0  0  0  0  0  0  0  0  0  0  0  0
   46.7220   35.7100   41.3990 H   0  0  0  0  0  0  0  0  0  0  0  0
   45.3640   34.5840   41.4320 H   0  0  0  0  0  0  0  0  0  0  0  0
   46.3010   33.0490   39.9960 H   0  0  0  0  0  0  0  0  0  0  0  0
   47.2650   34.4230   39.3800 H   0  0  0  0  0  0  0  0  0  0  0  0
   48.1800   32.1050   40.8520 H   0  0  0  0  0  0  0  0  0  0  0  0
   49.2050   33.4460   40.2080 H   0  0  0  0  0  0  0  0  0  0  0  0
   48.9490   32.9670   42.8660 H   0  0  0  0  0  0  0  0  0  0  0  0
   49.1890   35.0600   42.2680 C   0  0  0  0  0  0  0  0  0  0  0  0
   49.5770   35.2420   41.2280 H   0  0  0  0  0  0  0  0  0  0  0  0
   48.5630   35.9370   42.4990 H   0  0  0  0  0  0  0  0  0  0  0  0
   50.2220   35.0570   43.1780 O   0  0  0  0  0  0  0  0  0  0  0  0
   50.3730   34.1560   43.5500 H   0  0  0  0  0  0  0  0  0  0  0  0
   45.3310   34.0680   46.0280 O   0  0  0  0  0  0  0  0  0  0  0  0
   46.3240   33.1830   46.3010 C   0  0  0  0  0  0  0  0  0  0  0  0
   47.1000   33.7550   46.8920 H   0  0  0  0  0  0  0  0  0  0  0  0
   46.8760   32.7480   45.4710 H   0  0  0  0  0  0  0  0  0  0  0  0
   45.3170   31.3500   49.3780 C   0  0  0  0  0  0  0  0  0  0  0  0
   45.7200   32.4050   48.5510 C   0  0  0  0  0  0  0  0  0  0  0  0
   45.8960   32.0940   47.1960 C   0  0  0  0  0  0  0  0  0  0  0  0
   45.6710   30.8230   46.7690 N   0  0  0  0  0  0  0  0  0  0  0  0
   45.2820   29.8280   47.5950 C   0  0  0  0  0  0  0  0  0  0  0  0
   45.1090   30.0930   48.8820 N   0  0  0  0  0  0  0  0  0  0  0  0
   45.1710   31.5530   50.4320 H   0  0  0  0  0  0  0  0  0  0  0  0
   45.8720   33.3720   48.9800 H   0  0  0  0  0  0  0  0  0  0  0  0
   45.0740   28.5290   47.0510 N   0  0  0  0  0  0  0  0  0  0  0  0
   45.2760   28.2860   45.6350 C   0  0  0  0  0  2  0  0  0  0  0  0
   45.6980   26.8500   45.3950 C   0  0  0  0  0  2  0  0  0  0  0  0
   46.5660   26.4670   46.5770 C   0  0  0  0  0  3  0  0  0  0  0  0
   47.0380   25.4970   46.3550 H   0  0  0  0  0  0  0  0  0  0  0  0
   45.8020   26.4360   47.8820 C   0  0  0  0  0  2  0  0  0  0  0  0
   44.6550   27.4270   47.8990 C   0  0  0  0  0  2  0  0  0  0  0  0
  2  1  2  6  0  0  0
  2 24  1  0  0  0  0
  3  2  1  0  0  0  0
  4  3  1  0  0  0  0
  5  2  1  0  0  0  0
  6 11  1  1  0  0  0
  6  5  1  0  0  0  0
  7 13  1  0  0  0  0
  7  6  1  0  0  0  0
  8  9  1  0  0  0  0
  8  7  1  0  0  0  0
  9 16  1  0  0  0  0
  9 10  1  0  0  0  0
 10 19  1  0  0  0  0
 10  6  1  0  0  0  0
 10 18  1  1  0  0  0
 12  7  1  0  0  0  0
 14  8  1  0  0  0  0
 15  8  1  0  0  0  0
 17  9  1  0  0  0  0
 19 21  1  0  0  0  0
 19 22  1  0  0  0  0
 20 19  1  0  0  0  0
 22 23  1  0  0  0  0
 24 25  1  0  0  0  0
 25 26  1  0  0  0  0
 25 30  1  0  0  0  0
 27 25  1  0  0  0  0
 28 34  1  0  0  0  0
 29 35  1  0  0  0  0
 29 28  2  0  0  0  0
 30 29  1  0  0  0  0
 31 30  2  0  0  0  0
 31 32  1  0  0  0  0
 32 33  2  0  0  0  0
 33 28  1  0  0  0  0
 36 32  1  0  0  0  0
 36 42  1  0  0  0  0
 37 36  1  0  0  0  0
 38 37  1  0  0  0  0
 38 39  1  0  0  0  0
 39 41  1  0  0  0  0
 40 39  1  0  0  0  0
 41 42  1  0  0  0  0
M  END
>  <minimizedAffinity>
-6.15055847

>  <minimizedRMSD>
1.17478418

$$$$
