
 OpenBabel03242517063D

 32 34  0  0  1  0  0  0  0  0999 V2000
   46.4320   33.7370   43.2220 C   0  0  2  0  0  0  0  0  0  0  0  0
   45.7440   34.7200   42.3530 C   0  0  2  0  0  0  0  0  0  0  0  0
   45.3560   35.9720   43.1240 C   0  0  0  0  0  0  0  0  0  0  0  0
   44.5260   35.6940   44.3440 C   0  0  0  0  0  0  0  0  0  0  0  0
   45.0140   34.5000   45.1300 C   0  0  0  0  0  0  0  0  0  0  0  0
   46.4040   34.0910   44.7000 C   0  0  0  0  0  0  0  0  0  0  0  0
   46.0560   32.6940   43.1890 H   0  0  0  0  0  0  0  0  0  0  0  0
   46.5080   35.1060   41.6070 H   0  0  0  0  0  0  0  0  0  0  0  0
   46.1950   36.6070   43.4350 H   0  0  0  0  0  0  0  0  0  0  0  0
   44.7420   36.6020   42.4620 H   0  0  0  0  0  0  0  0  0  0  0  0
   44.6180   36.5840   45.0320 H   0  0  0  0  0  0  0  0  0  0  0  0
   43.4460   35.6110   44.1120 H   0  0  0  0  0  0  0  0  0  0  0  0
   44.2880   33.6780   45.0340 H   0  0  0  0  0  0  0  0  0  0  0  0
   45.0800   34.7140   46.2170 H   0  0  0  0  0  0  0  0  0  0  0  0
   46.6970   33.2010   45.2900 H   0  0  0  0  0  0  0  0  0  0  0  0
   47.1020   34.9090   44.9110 H   0  0  0  0  0  0  0  0  0  0  0  0
   47.8820   33.6020   42.8560 C   0  0  0  0  0  0  0  0  0  0  0  0
   48.6230   34.7810   42.7390 C   0  0  0  0  0  0  0  0  0  0  0  0
   49.9700   34.7080   42.3980 C   0  0  0  0  0  0  0  0  0  0  0  0
   50.4980   33.4670   42.1950 N   0  0  0  0  0  0  0  0  0  0  0  0
   49.7570   32.3360   42.3160 C   0  0  0  0  0  0  0  0  0  0  0  0
   48.4670   32.4060   42.6420 N   0  0  0  0  0  0  0  0  0  0  0  0
   48.2940   35.7600   42.8770 H   0  0  0  0  0  0  0  0  0  0  0  0
   50.6100   35.5540   42.2860 H   0  0  0  0  0  0  0  0  0  0  0  0
   50.1870   31.3550   42.1540 H   0  0  0  0  0  0  0  0  0  0  0  0
   44.6400   34.3280   41.5970 N   0  0  0  0  0  0  0  0  0  0  0  0
   43.8390   35.3100   40.9800 C   0  0  0  0  0  0  0  0  0  0  0  0
   42.4250   35.2360   41.4940 C   0  0  0  0  0  0  0  0  0  0  0  0
   41.9110   33.8750   41.0010 C   0  0  0  0  0  0  0  0  0  0  0  0
   40.9050   33.7820   41.4010 H   0  0  0  0  0  0  0  0  0  0  0  0
   42.7720   32.8410   41.6420 C   0  0  0  0  0  0  0  0  0  0  0  0
   44.2690   33.0240   41.3270 C   0  0  0  0  0  0  0  0  0  0  0  0
  1  7  1  6  0  0  0
  1  6  1  0  0  0  0
  2  8  1  6  0  0  0
  2  3  1  0  0  0  0
  2  1  1  0  0  0  0
  3  9  1  0  0  0  0
  3  4  1  0  0  0  0
  4 11  1  0  0  0  0
  4  5  1  0  0  0  0
  5 14  1  0  0  0  0
  6 16  1  0  0  0  0
  6  5  1  0  0  0  0
  6 15  1  0  0  0  0
 10  3  1  0  0  0  0
 12  4  1  0  0  0  0
 13  5  1  0  0  0  0
 17  1  1  0  0  0  0
 18 17  1  0  0  0  0
 18 23  1  0  0  0  0
 19 18  2  0  0  0  0
 20 21  2  0  0  0  0
 20 19  1  0  0  0  0
 21 22  1  0  0  0  0
 22 17  2  0  0  0  0
 24 19  1  0  0  0  0
 25 21  1  0  0  0  0
 26  2  1  0  0  0  0
 27 28  1  0  0  0  0
 27 26  1  0  0  0  0
 29 30  1  0  0  0  0
 29 28  1  0  0  0  0
 29 31  1  0  0  0  0
 32 26  1  0  0  0  0
 32 31  1  0  0  0  0
M  END
>  <minimizedAffinity>
-4.99728727

>  <minimizedRMSD>
2.01753235

$$$$
