
 OpenBabel03242511433D

 32 34  0  0  0  0  0  0  0  0999 V2000
   36.2800   30.1800   38.8780 C   0  0  0  0  0  0  0  0  0  0  0  0
   35.7980   29.2940   37.9320 C   0  0  0  0  0  0  0  0  0  0  0  0
   36.1270   29.3250   36.6010 C   0  0  0  0  0  0  0  0  0  0  0  0
   36.9910   30.3110   36.2020 C   0  0  0  0  0  0  0  0  0  0  0  0
   37.4950   31.2190   37.1360 C   0  0  0  0  0  0  0  0  0  0  0  0
   37.1460   31.1600   38.4810 C   0  0  0  0  0  0  0  0  0  0  0  0
   35.1260   28.5830   38.4300 H   0  0  0  0  0  0  0  0  0  0  0  0
   35.6280   28.5390   36.0840 H   0  0  0  0  0  0  0  0  0  0  0  0
   37.1580   30.2170   35.1330 H   0  0  0  0  0  0  0  0  0  0  0  0
   38.1390   31.8680   36.5390 H   0  0  0  0  0  0  0  0  0  0  0  0
   37.9640   32.2460   38.9910 N   0  0  0  0  0  0  0  0  0  0  0  0
   37.5540   33.5060   39.6420 C   0  0  0  0  0  2  0  0  0  0  0  0
   38.6100   33.8890   40.6440 C   0  0  0  0  0  2  0  0  0  0  0  0
   39.8910   34.0700   39.8280 C   0  0  0  0  0  3  0  0  0  0  0  0
   40.6690   34.6280   40.3510 H   0  0  0  0  0  0  0  0  0  0  0  0
   40.3570   32.6960   39.4890 C   0  0  0  0  0  2  0  0  0  0  0  0
   39.3580   31.9290   38.7050 C   0  0  0  0  0  2  0  0  0  0  0  0
   35.9780   30.2710   40.3140 C   0  0  0  0  0  0  0  0  0  0  0  0
   35.2070   31.0620   40.5120 H   0  0  0  0  0  0  0  0  0  0  0  0
   36.8910   30.6430   40.7910 H   0  0  0  0  0  0  0  0  0  0  0  0
   35.5020   28.9590   40.8790 C   0  0  0  0  0  0  0  0  0  0  0  0
   35.5800   28.2380   40.0060 H   0  0  0  0  0  0  0  0  0  0  0  0
   34.5710   28.9620   41.4080 H   0  0  0  0  0  0  0  0  0  0  0  0
   37.8530   26.7100   42.6100 C   0  0  0  0  0  0  0  0  0  0  0  0
   38.6150   27.6240   43.3870 C   0  0  0  0  0  0  0  0  0  0  0  0
   38.2960   28.9640   43.2660 C   0  0  0  0  0  0  0  0  0  0  0  0
   37.3120   29.3520   42.4500 N   0  0  0  0  0  0  0  0  0  0  0  0
   36.6150   28.4280   41.7320 C   0  0  0  0  0  0  0  0  0  0  0  0
   36.8720   27.1400   41.8020 N   0  0  0  0  0  0  0  0  0  0  0  0
   38.0100   25.6240   42.6190 H   0  0  0  0  0  0  0  0  0  0  0  0
   39.3650   27.1670   43.9900 H   0  0  0  0  0  0  0  0  0  0  0  0
   38.8840   29.6370   43.8610 H   0  0  0  0  0  0  0  0  0  0  0  0
  1 18  1  0  0  0  0
  2  7  1  0  0  0  0
  2  1  2  0  0  0  0
  3  2  1  0  0  0  0
  4  3  2  0  0  0  0
  4  5  1  0  0  0  0
  5  6  2  0  0  0  0
  6  1  1  0  0  0  0
  6 11  1  0  0  0  0
  8  3  1  0  0  0  0
  9  4  1  0  0  0  0
 10  5  1  0  0  0  0
 11 12  1  0  0  0  0
 12 13  1  0  0  0  0
 14 15  1  0  0  0  0
 14 13  1  0  0  0  0
 16 14  1  0  0  0  0
 17 11  1  0  0  0  0
 17 16  1  0  0  0  0
 18 19  1  0  0  0  0
 18 20  1  0  0  0  0
 18 21  1  0  0  0  0
 21 23  1  0  0  0  0
 21 28  1  0  0  0  0
 22 21  1  0  0  0  0
 24 30  1  0  0  0  0
 24 25  1  0  0  0  0
 25 31  1  0  0  0  0
 26 25  2  0  0  0  0
 26 32  1  0  0  0  0
 27 26  1  0  0  0  0
 28 29  1  0  0  0  0
 28 27  2  0  0  0  0
 29 24  2  0  0  0  0
M  END
>  <minimizedAffinity>
-5.47081518

$$$$

 OpenBabel03242511433D

 32 34  0  0  0  0  0  0  0  0999 V2000
   38.9680   31.7510   40.7680 C   0  0  0  0  0  0  0  0  0  0  0  0
   39.3840   33.0530   40.9820 C   0  0  0  0  0  0  0  0  0  0  0  0
   38.7540   34.1610   40.4780 C   0  0  0  0  0  0  0  0  0  0  0  0
   37.6390   33.9420   39.7120 C   0  0  0  0  0  0  0  0  0  0  0  0
   37.1950   32.6390   39.4800 C   0  0  0  0  0  0  0  0  0  0  0  0
   37.8520   31.5340   40.0080 C   0  0  0  0  0  0  0  0  0  0  0  0
   40.2830   33.0320   41.6110 H   0  0  0  0  0  0  0  0  0  0  0  0
   39.2670   35.0430   40.7850 H   0  0  0  0  0  0  0  0  0  0  0  0
   37.2490   34.9010   39.3810 H   0  0  0  0  0  0  0  0  0  0  0  0
   36.3110   32.7790   38.8530 H   0  0  0  0  0  0  0  0  0  0  0  0
   36.9740   30.4800   39.5320 N   0  0  0  0  0  0  0  0  0  0  0  0
   37.0440   29.6880   38.2870 C   0  0  0  0  0  2  0  0  0  0  0  0
   36.5050   28.3110   38.5690 C   0  0  0  0  0  2  0  0  0  0  0  0
   35.0580   28.5290   39.0150 C   0  0  0  0  0  3  0  0  0  0  0  0
   34.4460   27.6290   38.9720 H   0  0  0  0  0  0  0  0  0  0  0  0
   35.1340   29.0560   40.4070 C   0  0  0  0  0  2  0  0  0  0  0  0
   35.8940   30.3270   40.4980 C   0  0  0  0  0  2  0  0  0  0  0  0
   39.5720   30.4890   41.2200 C   0  0  0  0  0  0  0  0  0  0  0  0
   40.6850   30.5060   41.0800 H   0  0  0  0  0  0  0  0  0  0  0  0
   39.2130   29.7190   40.5300 H   0  0  0  0  0  0  0  0  0  0  0  0
   39.2560   30.1930   42.6620 C   0  0  0  0  0  0  0  0  0  0  0  0
   38.4640   30.9590   42.9350 H   0  0  0  0  0  0  0  0  0  0  0  0
   40.0830   30.1070   43.3380 H   0  0  0  0  0  0  0  0  0  0  0  0
   36.8020   27.6070   43.5940 C   0  0  0  0  0  0  0  0  0  0  0  0
   37.0170   26.6230   42.5900 C   0  0  0  0  0  0  0  0  0  0  0  0
   37.9780   26.9030   41.6370 C   0  0  0  0  0  0  0  0  0  0  0  0
   38.6580   28.0510   41.6830 N   0  0  0  0  0  0  0  0  0  0  0  0
   38.4100   28.9550   42.6720 C   0  0  0  0  0  0  0  0  0  0  0  0
   37.5070   28.7480   43.6060 N   0  0  0  0  0  0  0  0  0  0  0  0
   36.0680   27.5020   44.4030 H   0  0  0  0  0  0  0  0  0  0  0  0
   36.3980   25.7600   42.6840 H   0  0  0  0  0  0  0  0  0  0  0  0
   38.1230   26.1470   40.8890 H   0  0  0  0  0  0  0  0  0  0  0  0
  1  2  1  0  0  0  0
  1 18  1  0  0  0  0
  2  7  1  0  0  0  0
  3  8  1  0  0  0  0
  3  2  2  0  0  0  0
  4  3  1  0  0  0  0
  5  4  2  0  0  0  0
  5  6  1  0  0  0  0
  6  1  2  0  0  0  0
  9  4  1  0  0  0  0
 10  5  1  0  0  0  0
 11  6  1  0  0  0  0
 11 17  1  0  0  0  0
 12 13  1  0  0  0  0
 12 11  1  0  0  0  0
 13 14  1  0  0  0  0
 14 16  1  0  0  0  0
 15 14  1  0  0  0  0
 16 17  1  0  0  0  0
 18 21  1  0  0  0  0
 19 18  1  0  0  0  0
 20 18  1  0  0  0  0
 21 28  1  0  0  0  0
 21 22  1  0  0  0  0
 21 23  1  0  0  0  0
 24 29  1  0  0  0  0
 24 30  1  0  0  0  0
 25 31  1  0  0  0  0
 25 24  2  0  0  0  0
 26 27  2  0  0  0  0
 26 25  1  0  0  0  0
 27 28  1  0  0  0  0
 28 29  2  0  0  0  0
 32 26  1  0  0  0  0
M  END
>  <minimizedAffinity>
-5.39001703

$$$$

 OpenBabel03242511433D

 32 34  0  0  0  0  0  0  0  0999 V2000
   38.1460   26.6550   42.8750 C   0  0  0  0  0  0  0  0  0  0  0  0
   39.2700   26.6030   43.6790 C   0  0  0  0  0  0  0  0  0  0  0  0
   40.2890   25.6970   43.5300 C   0  0  0  0  0  0  0  0  0  0  0  0
   40.1640   24.7900   42.5100 C   0  0  0  0  0  0  0  0  0  0  0  0
   39.0410   24.8210   41.6820 C   0  0  0  0  0  0  0  0  0  0  0  0
   38.0240   25.7530   41.8550 C   0  0  0  0  0  0  0  0  0  0  0  0
   39.1970   27.3960   44.4340 H   0  0  0  0  0  0  0  0  0  0  0  0
   41.0370   25.8650   44.2700 H   0  0  0  0  0  0  0  0  0  0  0  0
   41.0350   24.1400   42.5130 H   0  0  0  0  0  0  0  0  0  0  0  0
   39.2180   24.0000   40.9820 H   0  0  0  0  0  0  0  0  0  0  0  0
   37.1720   25.3920   40.7360 N   0  0  0  0  0  0  0  0  0  0  0  0
   36.8080   26.1770   39.5390 C   0  0  0  0  0  2  0  0  0  0  0  0
   36.6230   25.2260   38.3860 C   0  0  0  0  0  2  0  0  0  0  0  0
   35.4870   24.2950   38.8120 C   0  0  0  0  0  3  0  0  0  0  0  0
   35.0370   23.7470   37.9850 H   0  0  0  0  0  0  0  0  0  0  0  0
   36.0780   23.3610   39.8120 C   0  0  0  0  0  2  0  0  0  0  0  0
   36.6330   24.0630   40.9950 C   0  0  0  0  0  2  0  0  0  0  0  0
   36.9800   27.5470   42.9540 C   0  0  0  0  0  0  0  0  0  0  0  0
   36.2830   27.2230   43.7730 H   0  0  0  0  0  0  0  0  0  0  0  0
   36.4180   27.3910   42.0280 H   0  0  0  0  0  0  0  0  0  0  0  0
   37.3760   28.9820   43.1770 C   0  0  0  0  0  0  0  0  0  0  0  0
   38.5090   28.9490   43.2400 H   0  0  0  0  0  0  0  0  0  0  0  0
   36.8750   29.5140   43.9600 H   0  0  0  0  0  0  0  0  0  0  0  0
   37.9280   31.1670   40.2610 C   0  0  0  0  0  0  0  0  0  0  0  0
   36.7640   30.9170   39.4840 C   0  0  0  0  0  0  0  0  0  0  0  0
   35.8590   30.0020   39.9890 C   0  0  0  0  0  0  0  0  0  0  0  0
   36.0940   29.3970   41.1560 N   0  0  0  0  0  0  0  0  0  0  0  0
   37.2260   29.6800   41.8590 C   0  0  0  0  0  0  0  0  0  0  0  0
   38.1260   30.5390   41.4300 N   0  0  0  0  0  0  0  0  0  0  0  0
   38.7170   31.8700   39.9680 H   0  0  0  0  0  0  0  0  0  0  0  0
   36.7160   31.4740   38.5760 H   0  0  0  0  0  0  0  0  0  0  0  0
   34.9890   29.8280   39.3850 H   0  0  0  0  0  0  0  0  0  0  0  0
  1 18  1  0  0  0  0
  1  2  1  0  0  0  0
  2  7  1  0  0  0  0
  3  2  2  0  0  0  0
  3  8  1  0  0  0  0
  4  9  1  0  0  0  0
  4  3  1  0  0  0  0
  5  6  1  0  0  0  0
  5  4  2  0  0  0  0
  6  1  2  0  0  0  0
 10  5  1  0  0  0  0
 11 17  1  0  0  0  0
 11  6  1  0  0  0  0
 12 11  1  0  0  0  0
 13 14  1  0  0  0  0
 13 12  1  0  0  0  0
 14 16  1  0  0  0  0
 15 14  1  0  0  0  0
 16 17  1  0  0  0  0
 18 21  1  0  0  0  0
 18 19  1  0  0  0  0
 20 18  1  0  0  0  0
 21 22  1  0  0  0  0
 21 23  1  0  0  0  0
 24 29  1  0  0  0  0
 25 26  1  0  0  0  0
 25 24  2  0  0  0  0
 26 27  2  0  0  0  0
 27 28  1  0  0  0  0
 28 21  1  0  0  0  0
 29 28  2  0  0  0  0
 30 24  1  0  0  0  0
 31 25  1  0  0  0  0
 32 26  1  0  0  0  0
M  END
>  <minimizedAffinity>
-5.1334815

$$$$

 OpenBabel03242511433D

 32 34  0  0  0  0  0  0  0  0999 V2000
   36.9600   26.4110   41.9910 C   0  0  0  0  0  0  0  0  0  0  0  0
   36.9860   25.0280   41.9970 C   0  0  0  0  0  0  0  0  0  0  0  0
   36.7960   24.2440   40.8880 C   0  0  0  0  0  0  0  0  0  0  0  0
   36.5650   24.8950   39.7050 C   0  0  0  0  0  0  0  0  0  0  0  0
   36.5340   26.2900   39.6680 C   0  0  0  0  0  0  0  0  0  0  0  0
   36.7340   27.0600   40.8090 C   0  0  0  0  0  0  0  0  0  0  0  0
   37.1820   24.6870   43.0220 H   0  0  0  0  0  0  0  0  0  0  0  0
   36.8650   23.2150   41.1540 H   0  0  0  0  0  0  0  0  0  0  0  0
   36.4310   24.1550   38.9200 H   0  0  0  0  0  0  0  0  0  0  0  0
   36.3340   26.5140   38.6180 H   0  0  0  0  0  0  0  0  0  0  0  0
   36.6630   28.3860   40.2210 N   0  0  0  0  0  0  0  0  0  0  0  0
   35.6340   29.4320   40.3820 C   0  0  0  0  0  2  0  0  0  0  0  0
   36.3050   30.7770   40.2890 C   0  0  0  0  0  2  0  0  0  0  0  0
   36.9330   30.8170   38.8960 C   0  0  0  0  0  3  0  0  0  0  0  0
   37.1980   31.8210   38.5630 H   0  0  0  0  0  0  0  0  0  0  0  0
   38.1380   29.9430   38.9650 C   0  0  0  0  0  2  0  0  0  0  0  0
   37.8100   28.5450   39.3360 C   0  0  0  0  0  2  0  0  0  0  0  0
   37.1130   27.3540   43.1080 C   0  0  0  0  0  0  0  0  0  0  0  0
   36.3740   27.1320   43.9240 H   0  0  0  0  0  0  0  0  0  0  0  0
   36.8150   28.3330   42.7190 H   0  0  0  0  0  0  0  0  0  0  0  0
   38.5050   27.3370   43.6800 C   0  0  0  0  0  0  0  0  0  0  0  0
   38.9740   26.4030   43.2370 H   0  0  0  0  0  0  0  0  0  0  0  0
   38.6020   27.4580   44.7400 H   0  0  0  0  0  0  0  0  0  0  0  0
   41.0980   29.0570   41.7060 C   0  0  0  0  0  0  0  0  0  0  0  0
   40.6250   30.3980   41.7050 C   0  0  0  0  0  0  0  0  0  0  0  0
   39.4350   30.6410   42.3660 C   0  0  0  0  0  0  0  0  0  0  0  0
   38.7840   29.6430   42.9690 N   0  0  0  0  0  0  0  0  0  0  0  0
   39.2880   28.3780   42.9370 C   0  0  0  0  0  0  0  0  0  0  0  0
   40.4140   28.0830   42.3240 N   0  0  0  0  0  0  0  0  0  0  0  0
   42.0270   28.7390   41.2170 H   0  0  0  0  0  0  0  0  0  0  0  0
   41.2530   31.0830   41.1830 H   0  0  0  0  0  0  0  0  0  0  0  0
   39.0970   31.6600   42.3520 H   0  0  0  0  0  0  0  0  0  0  0  0
  1  2  1  0  0  0  0
  1 18  1  0  0  0  0
  2  7  1  0  0  0  0
  3  8  1  0  0  0  0
  3  2  2  0  0  0  0
  4  3  1  0  0  0  0
  5  4  2  0  0  0  0
  5  6  1  0  0  0  0
  6  1  2  0  0  0  0
  9  4  1  0  0  0  0
 10  5  1  0  0  0  0
 11 12  1  0  0  0  0
 11  6  1  0  0  0  0
 13 12  1  0  0  0  0
 14 16  1  0  0  0  0
 14 13  1  0  0  0  0
 15 14  1  0  0  0  0
 16 17  1  0  0  0  0
 17 11  1  0  0  0  0
 18 21  1  0  0  0  0
 18 19  1  0  0  0  0
 20 18  1  0  0  0  0
 21 23  1  0  0  0  0
 22 21  1  0  0  0  0
 24 29  1  0  0  0  0
 25 24  2  0  0  0  0
 25 26  1  0  0  0  0
 26 27  2  0  0  0  0
 28 27  1  0  0  0  0
 28 21  1  0  0  0  0
 29 28  2  0  0  0  0
 30 24  1  0  0  0  0
 31 25  1  0  0  0  0
 32 26  1  0  0  0  0
M  END
>  <minimizedAffinity>
-5.12834978

$$$$

 OpenBabel03242511433D

 32 34  0  0  0  0  0  0  0  0999 V2000
   36.6160   28.2560   41.2610 C   0  0  0  0  0  0  0  0  0  0  0  0
   36.4800   27.4220   42.3560 C   0  0  0  0  0  0  0  0  0  0  0  0
   37.0930   27.6240   43.5660 C   0  0  0  0  0  0  0  0  0  0  0  0
   37.8910   28.7330   43.6750 C   0  0  0  0  0  0  0  0  0  0  0  0
   38.0450   29.5940   42.5870 C   0  0  0  0  0  0  0  0  0  0  0  0
   37.4080   29.3650   41.3730 C   0  0  0  0  0  0  0  0  0  0  0  0
   35.8110   26.5960   42.0840 H   0  0  0  0  0  0  0  0  0  0  0  0
   36.8290   26.8460   44.2430 H   0  0  0  0  0  0  0  0  0  0  0  0
   38.3100   28.7640   44.6780 H   0  0  0  0  0  0  0  0  0  0  0  0
   38.7210   30.3650   42.9650 H   0  0  0  0  0  0  0  0  0  0  0  0
   37.8450   30.5430   40.6440 N   0  0  0  0  0  0  0  0  0  0  0  0
   37.0950   31.7680   40.3020 C   0  0  0  0  0  2  0  0  0  0  0  0
   38.0560   32.9270   40.2940 C   0  0  0  0  0  2  0  0  0  0  0  0
   39.0900   32.5830   39.2200 C   0  0  0  0  0  3  0  0  0  0  0  0
   39.6770   33.4390   38.8870 H   0  0  0  0  0  0  0  0  0  0  0  0
   39.9680   31.5370   39.8180 C   0  0  0  0  0  2  0  0  0  0  0  0
   39.2190   30.3190   40.2130 C   0  0  0  0  0  2  0  0  0  0  0  0
   36.0440   28.1300   39.9120 C   0  0  0  0  0  0  0  0  0  0  0  0
   35.7870   27.0610   39.6850 H   0  0  0  0  0  0  0  0  0  0  0  0
   36.8530   28.3780   39.2180 H   0  0  0  0  0  0  0  0  0  0  0  0
   34.8200   28.9860   39.7320 C   0  0  0  0  0  0  0  0  0  0  0  0
   35.2000   30.0460   39.8750 H   0  0  0  0  0  0  0  0  0  0  0  0
   33.9470   28.7180   40.2920 H   0  0  0  0  0  0  0  0  0  0  0  0
   33.1070   28.9320   36.4700 C   0  0  0  0  0  0  0  0  0  0  0  0
   34.1980   29.0360   35.5640 C   0  0  0  0  0  0  0  0  0  0  0  0
   35.4610   29.1360   36.1160 C   0  0  0  0  0  0  0  0  0  0  0  0
   35.6190   29.1310   37.4430 N   0  0  0  0  0  0  0  0  0  0  0  0
   34.5350   29.0260   38.2610 C   0  0  0  0  0  0  0  0  0  0  0  0
   33.3070   28.9300   37.7960 N   0  0  0  0  0  0  0  0  0  0  0  0
   32.0590   28.8470   36.1550 H   0  0  0  0  0  0  0  0  0  0  0  0
   33.9160   29.0270   34.5360 H   0  0  0  0  0  0  0  0  0  0  0  0
   36.2700   29.2140   35.4150 H   0  0  0  0  0  0  0  0  0  0  0  0
  1  6  2  0  0  0  0
  1  2  1  0  0  0  0
  2  3  2  0  0  0  0
  3  4  1  0  0  0  0
  3  8  1  0  0  0  0
  4  9  1  0  0  0  0
  5 10  1  0  0  0  0
  5  4  2  0  0  0  0
  6  5  1  0  0  0  0
  7  2  1  0  0  0  0
 11  6  1  0  0  0  0
 12 11  1  0  0  0  0
 13 12  1  0  0  0  0
 14 16  1  0  0  0  0
 14 13  1  0  0  0  0
 15 14  1  0  0  0  0
 16 17  1  0  0  0  0
 17 11  1  0  0  0  0
 18  1  1  0  0  0  0
 19 18  1  0  0  0  0
 20 18  1  0  0  0  0
 21 22  1  0  0  0  0
 21 18  1  0  0  0  0
 21 23  1  0  0  0  0
 24 29  1  0  0  0  0
 25 26  1  0  0  0  0
 25 24  2  0  0  0  0
 26 27  2  0  0  0  0
 27 28  1  0  0  0  0
 28 21  1  0  0  0  0
 29 28  2  0  0  0  0
 30 24  1  0  0  0  0
 31 25  1  0  0  0  0
 32 26  1  0  0  0  0
M  END
>  <minimizedAffinity>
-5.06883192

$$$$

 OpenBabel03242511433D

 32 34  0  0  0  0  0  0  0  0999 V2000
   36.6220   29.1410   40.6470 C   0  0  0  0  0  0  0  0  0  0  0  0
   35.5670   28.5760   39.9540 C   0  0  0  0  0  0  0  0  0  0  0  0
   35.2100   28.9140   38.6740 C   0  0  0  0  0  0  0  0  0  0  0  0
   35.9610   29.8800   38.0580 C   0  0  0  0  0  0  0  0  0  0  0  0
   37.0330   30.4670   38.7330 C   0  0  0  0  0  0  0  0  0  0  0  0
   37.3750   30.1020   40.0300 C   0  0  0  0  0  0  0  0  0  0  0  0
   35.0850   27.8310   40.6000 H   0  0  0  0  0  0  0  0  0  0  0  0
   34.3680   28.3370   38.3670 H   0  0  0  0  0  0  0  0  0  0  0  0
   35.5660   30.0460   37.0600 H   0  0  0  0  0  0  0  0  0  0  0  0
   37.4300   31.1820   38.0080 H   0  0  0  0  0  0  0  0  0  0  0  0
   38.5470   30.9380   40.2170 N   0  0  0  0  0  0  0  0  0  0  0  0
   39.9760   30.6030   40.0610 C   0  0  0  0  0  2  0  0  0  0  0  0
   40.7030   31.8310   39.5820 C   0  0  0  0  0  2  0  0  0  0  0  0
   40.4890   32.8770   40.6770 C   0  0  0  0  0  3  0  0  0  0  0  0
   41.1860   33.7130   40.6270 H   0  0  0  0  0  0  0  0  0  0  0  0
   39.0830   33.3460   40.5250 C   0  0  0  0  0  2  0  0  0  0  0  0
   38.0950   32.2490   40.6680 C   0  0  0  0  0  2  0  0  0  0  0  0
   37.0790   28.8920   42.0220 C   0  0  0  0  0  0  0  0  0  0  0  0
   36.7320   29.7060   42.7130 H   0  0  0  0  0  0  0  0  0  0  0  0
   38.1700   28.9890   41.9990 H   0  0  0  0  0  0  0  0  0  0  0  0
   36.6090   27.5610   42.5440 C   0  0  0  0  0  0  0  0  0  0  0  0
   36.2480   27.0120   41.6180 H   0  0  0  0  0  0  0  0  0  0  0  0
   35.9380   27.5710   43.3790 H   0  0  0  0  0  0  0  0  0  0  0  0
   39.9600   26.5300   43.6790 C   0  0  0  0  0  0  0  0  0  0  0  0
   40.0210   25.1830   43.2280 C   0  0  0  0  0  0  0  0  0  0  0  0
   38.9070   24.6920   42.5730 C   0  0  0  0  0  0  0  0  0  0  0  0
   37.8380   25.4710   42.3870 N   0  0  0  0  0  0  0  0  0  0  0  0
   37.8390   26.7560   42.8400 C   0  0  0  0  0  0  0  0  0  0  0  0
   38.8670   27.2800   43.4720 N   0  0  0  0  0  0  0  0  0  0  0  0
   40.7780   27.0320   44.2110 H   0  0  0  0  0  0  0  0  0  0  0  0
   40.9390   24.6880   43.4490 H   0  0  0  0  0  0  0  0  0  0  0  0
   38.9740   23.6740   42.2410 H   0  0  0  0  0  0  0  0  0  0  0  0
  1 18  1  0  0  0  0
  2  7  1  0  0  0  0
  2  1  2  0  0  0  0
  3  2  1  0  0  0  0
  4  3  2  0  0  0  0
  4  5  1  0  0  0  0
  5  6  2  0  0  0  0
  6 11  1  0  0  0  0
  6  1  1  0  0  0  0
  8  3  1  0  0  0  0
  9  4  1  0  0  0  0
 10  5  1  0  0  0  0
 11 17  1  0  0  0  0
 12 11  1  0  0  0  0
 13 12  1  0  0  0  0
 13 14  1  0  0  0  0
 15 14  1  0  0  0  0
 16 17  1  0  0  0  0
 16 14  1  0  0  0  0
 18 21  1  0  0  0  0
 18 19  1  0  0  0  0
 20 18  1  0  0  0  0
 21 28  1  0  0  0  0
 21 23  1  0  0  0  0
 22 21  1  0  0  0  0
 24 30  1  0  0  0  0
 25 31  1  0  0  0  0
 25 24  2  0  0  0  0
 26 25  1  0  0  0  0
 27 26  2  0  0  0  0
 27 28  1  0  0  0  0
 28 29  2  0  0  0  0
 29 24  1  0  0  0  0
 32 26  1  0  0  0  0
M  END
>  <minimizedAffinity>
-5.01233339

$$$$

 OpenBabel03242511433D

 32 34  0  0  0  0  0  0  0  0999 V2000
   36.8660   26.5840   41.6800 C   0  0  0  0  0  0  0  0  0  0  0  0
   37.1640   25.3750   42.2830 C   0  0  0  0  0  0  0  0  0  0  0  0
   37.4080   24.2090   41.6040 C   0  0  0  0  0  0  0  0  0  0  0  0
   37.3460   24.2670   40.2360 C   0  0  0  0  0  0  0  0  0  0  0  0
   37.0490   25.4740   39.6000 C   0  0  0  0  0  0  0  0  0  0  0  0
   36.8090   26.6420   40.3150 C   0  0  0  0  0  0  0  0  0  0  0  0
   37.1690   25.5200   43.3700 H   0  0  0  0  0  0  0  0  0  0  0  0
   37.6140   23.4230   42.2920 H   0  0  0  0  0  0  0  0  0  0  0  0
   37.5560   23.2790   39.8350 H   0  0  0  0  0  0  0  0  0  0  0  0
   37.0690   25.2150   38.5390 H   0  0  0  0  0  0  0  0  0  0  0  0
   36.6220   27.5670   39.2110 N   0  0  0  0  0  0  0  0  0  0  0  0
   35.3820   27.9540   38.5090 C   0  0  0  0  0  2  0  0  0  0  0  0
   35.5150   29.3870   38.0650 C   0  0  0  0  0  2  0  0  0  0  0  0
   36.7210   29.4050   37.1250 C   0  0  0  0  0  3  0  0  0  0  0  0
   36.7710   30.2930   36.4940 H   0  0  0  0  0  0  0  0  0  0  0  0
   37.9230   29.3050   38.0000 C   0  0  0  0  0  2  0  0  0  0  0  0
   37.9330   28.0670   38.8190 C   0  0  0  0  0  2  0  0  0  0  0  0
   36.5540   27.8830   42.2930 C   0  0  0  0  0  0  0  0  0  0  0  0
   35.8770   27.7540   43.1790 H   0  0  0  0  0  0  0  0  0  0  0  0
   35.9530   28.4270   41.5570 H   0  0  0  0  0  0  0  0  0  0  0  0
   37.7930   28.6240   42.7170 C   0  0  0  0  0  0  0  0  0  0  0  0
   38.6400   28.0550   42.2190 H   0  0  0  0  0  0  0  0  0  0  0  0
   37.9110   28.8270   43.7620 H   0  0  0  0  0  0  0  0  0  0  0  0
   38.9520   31.6740   41.0020 C   0  0  0  0  0  0  0  0  0  0  0  0
   37.7370   32.1980   40.4830 C   0  0  0  0  0  0  0  0  0  0  0  0
   36.5860   31.4720   40.7320 C   0  0  0  0  0  0  0  0  0  0  0  0
   36.6450   30.3360   41.4320 N   0  0  0  0  0  0  0  0  0  0  0  0
   37.8390   29.8850   41.9070 C   0  0  0  0  0  0  0  0  0  0  0  0
   38.9680   30.5290   41.7010 N   0  0  0  0  0  0  0  0  0  0  0  0
   39.9290   32.1560   40.8720 H   0  0  0  0  0  0  0  0  0  0  0  0
   37.8480   33.1120   39.9460 H   0  0  0  0  0  0  0  0  0  0  0  0
   35.6810   31.8860   40.3300 H   0  0  0  0  0  0  0  0  0  0  0  0
  1  2  1  0  0  0  0
  1 18  1  0  0  0  0
  2  7  1  0  0  0  0
  3  2  2  0  0  0  0
  3  8  1  0  0  0  0
  4  3  1  0  0  0  0
  5  4  2  0  0  0  0
  5  6  1  0  0  0  0
  6  1  2  0  0  0  0
  9  4  1  0  0  0  0
 10  5  1  0  0  0  0
 11  6  1  0  0  0  0
 12 11  1  0  0  0  0
 13 12  1  0  0  0  0
 14 16  1  0  0  0  0
 14 13  1  0  0  0  0
 15 14  1  0  0  0  0
 16 17  1  0  0  0  0
 17 11  1  0  0  0  0
 18 21  1  0  0  0  0
 18 19  1  0  0  0  0
 20 18  1  0  0  0  0
 21 23  1  0  0  0  0
 22 21  1  0  0  0  0
 24 29  1  0  0  0  0
 25 26  1  0  0  0  0
 25 24  2  0  0  0  0
 26 27  2  0  0  0  0
 27 28  1  0  0  0  0
 28 21  1  0  0  0  0
 29 28  2  0  0  0  0
 30 24  1  0  0  0  0
 31 25  1  0  0  0  0
 32 26  1  0  0  0  0
M  END
>  <minimizedAffinity>
-4.97912788

$$$$

 OpenBabel03242511433D

 32 34  0  0  0  0  0  0  0  0999 V2000
   36.8560   30.9480   40.4250 C   0  0  0  0  0  0  0  0  0  0  0  0
   36.9600   32.1710   39.7870 C   0  0  0  0  0  0  0  0  0  0  0  0
   38.0010   33.0470   39.9530 C   0  0  0  0  0  0  0  0  0  0  0  0
   38.9950   32.6670   40.8170 C   0  0  0  0  0  0  0  0  0  0  0  0
   38.9180   31.4380   41.4740 C   0  0  0  0  0  0  0  0  0  0  0  0
   37.8510   30.5680   41.2830 C   0  0  0  0  0  0  0  0  0  0  0  0
   36.0810   32.3030   39.1430 H   0  0  0  0  0  0  0  0  0  0  0  0
   37.8480   33.9130   39.3530 H   0  0  0  0  0  0  0  0  0  0  0  0
   39.7460   33.4520   40.8520 H   0  0  0  0  0  0  0  0  0  0  0  0
   39.8280   31.4140   42.0790 H   0  0  0  0  0  0  0  0  0  0  0  0
   38.2860   29.4630   42.1200 N   0  0  0  0  0  0  0  0  0  0  0  0
   37.7350   28.9820   43.4020 C   0  0  0  0  0  2  0  0  0  0  0  0
   37.9300   27.4900   43.4730 C   0  0  0  0  0  2  0  0  0  0  0  0
   39.4430   27.2800   43.3980 C   0  0  0  0  0  3  0  0  0  0  0  0
   39.7650   26.2930   43.7300 H   0  0  0  0  0  0  0  0  0  0  0  0
   39.8180   27.5120   41.9750 C   0  0  0  0  0  2  0  0  0  0  0  0
   39.4700   28.8750   41.5060 C   0  0  0  0  0  2  0  0  0  0  0  0
   35.7830   29.9450   40.3580 C   0  0  0  0  0  0  0  0  0  0  0  0
   34.8110   30.3750   40.7170 H   0  0  0  0  0  0  0  0  0  0  0  0
   36.0410   29.1780   41.0960 H   0  0  0  0  0  0  0  0  0  0  0  0
   35.6030   29.3990   38.9670 C   0  0  0  0  0  0  0  0  0  0  0  0
   36.5470   29.7150   38.4210 H   0  0  0  0  0  0  0  0  0  0  0  0
   34.6770   29.6130   38.4720 H   0  0  0  0  0  0  0  0  0  0  0  0
   36.7320   26.0690   40.0700 C   0  0  0  0  0  0  0  0  0  0  0  0
   36.2870   25.2410   39.0040 C   0  0  0  0  0  0  0  0  0  0  0  0
   35.6100   25.8610   37.9710 C   0  0  0  0  0  0  0  0  0  0  0  0
   35.3990   27.1800   38.0000 N   0  0  0  0  0  0  0  0  0  0  0  0
   35.8520   27.9230   39.0480 C   0  0  0  0  0  0  0  0  0  0  0  0
   36.5000   27.3900   40.0620 N   0  0  0  0  0  0  0  0  0  0  0  0
   37.2780   25.6950   40.9450 H   0  0  0  0  0  0  0  0  0  0  0  0
   36.5290   24.2090   39.1210 H   0  0  0  0  0  0  0  0  0  0  0  0
   35.2830   25.2170   37.1770 H   0  0  0  0  0  0  0  0  0  0  0  0
  1  6  1  0  0  0  0
  2  3  1  0  0  0  0
  2  1  2  0  0  0  0
  3  4  2  0  0  0  0
  4  9  1  0  0  0  0
  4  5  1  0  0  0  0
  5 10  1  0  0  0  0
  6  5  2  0  0  0  0
  6 11  1  0  0  0  0
  7  2  1  0  0  0  0
  8  3  1  0  0  0  0
 11 12  1  0  0  0  0
 12 13  1  0  0  0  0
 14 13  1  0  0  0  0
 14 15  1  0  0  0  0
 16 14  1  0  0  0  0
 17 16  1  0  0  0  0
 17 11  1  0  0  0  0
 18  1  1  0  0  0  0
 18 19  1  0  0  0  0
 18 20  1  0  0  0  0
 21 28  1  0  0  0  0
 21 18  1  0  0  0  0
 22 21  1  0  0  0  0
 23 21  1  0  0  0  0
 24 30  1  0  0  0  0
 25 31  1  0  0  0  0
 25 24  2  0  0  0  0
 26 27  2  0  0  0  0
 26 25  1  0  0  0  0
 27 28  1  0  0  0  0
 28 29  2  0  0  0  0
 29 24  1  0  0  0  0
 32 26  1  0  0  0  0
M  END
>  <minimizedAffinity>
-4.93496513

$$$$

 OpenBabel03242511433D

 32 34  0  0  0  0  0  0  0  0999 V2000
   36.7840   26.1060   39.5990 C   0  0  0  0  0  0  0  0  0  0  0  0
   36.1770   24.8660   39.5170 C   0  0  0  0  0  0  0  0  0  0  0  0
   36.2950   23.8810   40.4630 C   0  0  0  0  0  0  0  0  0  0  0  0
   37.0730   24.1640   41.5550 C   0  0  0  0  0  0  0  0  0  0  0  0
   37.6970   25.4080   41.6660 C   0  0  0  0  0  0  0  0  0  0  0  0
   37.5560   26.3900   40.6920 C   0  0  0  0  0  0  0  0  0  0  0  0
   35.6020   24.8210   38.5840 H   0  0  0  0  0  0  0  0  0  0  0  0
   35.7330   23.0250   40.1700 H   0  0  0  0  0  0  0  0  0  0  0  0
   37.0780   23.3000   42.2140 H   0  0  0  0  0  0  0  0  0  0  0  0
   38.2330   25.3410   42.6150 H   0  0  0  0  0  0  0  0  0  0  0  0
   38.3260   27.4550   41.3090 N   0  0  0  0  0  0  0  0  0  0  0  0
   39.5280   28.1550   40.8130 C   0  0  0  0  0  2  0  0  0  0  0  0
   39.4900   29.5760   41.3100 C   0  0  0  0  0  2  0  0  0  0  0  0
   39.4920   29.4680   42.8360 C   0  0  0  0  0  3  0  0  0  0  0  0
   39.7620   30.3950   43.3410 H   0  0  0  0  0  0  0  0  0  0  0  0
   38.1190   29.0340   43.2170 C   0  0  0  0  0  2  0  0  0  0  0  0
   37.7410   27.7320   42.6140 C   0  0  0  0  0  2  0  0  0  0  0  0
   36.7640   27.2230   38.6430 C   0  0  0  0  0  0  0  0  0  0  0  0
   36.7970   26.8460   37.5860 H   0  0  0  0  0  0  0  0  0  0  0  0
   37.7100   27.7560   38.7820 H   0  0  0  0  0  0  0  0  0  0  0  0
   35.5530   28.1000   38.8210 C   0  0  0  0  0  0  0  0  0  0  0  0
   35.0940   27.7440   39.7950 H   0  0  0  0  0  0  0  0  0  0  0  0
   34.8850   28.1890   37.9880 H   0  0  0  0  0  0  0  0  0  0  0  0
   36.2550   31.1190   40.8140 C   0  0  0  0  0  0  0  0  0  0  0  0
   36.9660   31.9260   39.8840 C   0  0  0  0  0  0  0  0  0  0  0  0
   37.1830   31.3890   38.6290 C   0  0  0  0  0  0  0  0  0  0  0  0
   36.7320   30.1670   38.3320 N   0  0  0  0  0  0  0  0  0  0  0  0
   36.0550   29.4410   39.2650 C   0  0  0  0  0  0  0  0  0  0  0  0
   35.8190   29.8960   40.4770 N   0  0  0  0  0  0  0  0  0  0  0  0
   36.0210   31.4320   41.8390 H   0  0  0  0  0  0  0  0  0  0  0  0
   37.2610   32.8760   40.2660 H   0  0  0  0  0  0  0  0  0  0  0  0
   37.7220   32.0150   37.9430 H   0  0  0  0  0  0  0  0  0  0  0  0
  1  6  1  0  0  0  0
  2  1  2  0  0  0  0
  2  3  1  0  0  0  0
  3  4  2  0  0  0  0
  4  5  1  0  0  0  0
  4  9  1  0  0  0  0
  5 10  1  0  0  0  0
  6 11  1  0  0  0  0
  6  5  2  0  0  0  0
  7  2  1  0  0  0  0
  8  3  1  0  0  0  0
 11 17  1  0  0  0  0
 12 11  1  0  0  0  0
 12 13  1  0  0  0  0
 13 14  1  0  0  0  0
 14 16  1  0  0  0  0
 14 15  1  0  0  0  0
 17 16  1  0  0  0  0
 18 20  1  0  0  0  0
 18 21  1  0  0  0  0
 18  1  1  0  0  0  0
 19 18  1  0  0  0  0
 21 28  1  0  0  0  0
 21 22  1  0  0  0  0
 23 21  1  0  0  0  0
 24 30  1  0  0  0  0
 25 31  1  0  0  0  0
 25 24  2  0  0  0  0
 26 25  1  0  0  0  0
 27 26  2  0  0  0  0
 27 28  1  0  0  0  0
 28 29  2  0  0  0  0
 29 24  1  0  0  0  0
 32 26  1  0  0  0  0
M  END
>  <minimizedAffinity>
-4.89985418

$$$$
