
 OpenBabel03242516213D

 26 28  0  0  0  0  0  0  0  0999 V2000
   37.6040   30.6060   40.8750 C   0  0  0  0  0  0  0  0  0  0  0  0
   38.2190   29.5140   41.4460 C   0  0  0  0  0  0  0  0  0  0  0  0
   37.5260   28.3250   41.6650 C   0  0  0  0  0  0  0  0  0  0  0  0
   36.2060   28.2200   41.3120 C   0  0  0  0  0  0  0  0  0  0  0  0
   35.5810   29.2910   40.7460 C   0  0  0  0  0  0  0  0  0  0  0  0
   36.2660   30.4750   40.5260 C   0  0  0  0  0  0  0  0  0  0  0  0
   39.2400   29.6490   41.7000 H   0  0  0  0  0  0  0  0  0  0  0  0
   35.5990   27.3580   41.4380 H   0  0  0  0  0  0  0  0  0  0  0  0
   34.5380   29.2690   40.4460 H   0  0  0  0  0  0  0  0  0  0  0  0
   35.7460   31.3100   40.0760 H   0  0  0  0  0  0  0  0  0  0  0  0
   40.4070   32.9560   40.6140 C   0  0  0  0  0  0  0  0  0  0  0  0
   39.7800   34.1600   40.2340 C   0  0  0  0  0  0  0  0  0  0  0  0
   38.3940   34.1540   40.0720 C   0  0  0  0  0  0  0  0  0  0  0  0
   37.7140   32.9990   40.2830 N   0  0  0  0  0  0  0  0  0  0  0  0
   38.3320   31.8550   40.6460 C   0  0  0  0  0  0  0  0  0  0  0  0
   39.6650   31.8580   40.8030 N   0  0  0  0  0  0  0  0  0  0  0  0
   41.4730   33.0020   40.7280 H   0  0  0  0  0  0  0  0  0  0  0  0
   40.2630   35.1070   40.0530 H   0  0  0  0  0  0  0  0  0  0  0  0
   37.7690   34.9880   39.7870 H   0  0  0  0  0  0  0  0  0  0  0  0
   38.1850   27.2060   42.2560 N   0  0  0  0  0  0  0  0  0  0  0  0
   38.3520   25.9830   41.5020 C   0  0  0  0  0  2  0  0  0  0  0  0
   38.5690   24.7680   42.3770 C   0  0  0  0  0  2  0  0  0  0  0  0
   39.7320   24.9570   43.3210 C   0  0  0  0  0  3  0  0  0  0  0  0
   39.4350   24.5020   44.2900 H   0  0  0  0  0  0  0  0  0  0  0  0
   40.0030   26.4220   43.5900 C   0  0  0  0  0  2  0  0  0  0  0  0
   38.7120   27.2250   43.6040 C   0  0  0  0  0  2  0  0  0  0  0  0
  1  2  1  0  0  0  0
  2  3  2  0  0  0  0
  2  7  1  0  0  0  0
  3 20  1  0  0  0  0
  4  8  1  0  0  0  0
  4  3  1  0  0  0  0
  5  4  2  0  0  0  0
  6  5  1  0  0  0  0
  6  1  2  0  0  0  0
  9  5  1  0  0  0  0
 10  6  1  0  0  0  0
 11 17  1  0  0  0  0
 11 16  1  0  0  0  0
 12 11  2  0  0  0  0
 13 12  1  0  0  0  0
 13 14  2  0  0  0  0
 14 15  1  0  0  0  0
 15 16  2  0  0  0  0
 15  1  1  0  0  0  0
 18 12  1  0  0  0  0
 19 13  1  0  0  0  0
 20 26  1  0  0  0  0
 21 20  1  0  0  0  0
 21 22  1  0  0  0  0
 22 23  1  0  0  0  0
 23 25  1  0  0  0  0
 23 24  1  0  0  0  0
 25 26  1  0  0  0  0
M  END
>  <minimizedAffinity>
-5.35416317

$$$$

 OpenBabel03242516213D

 26 28  0  0  0  0  0  0  0  0999 V2000
   37.1810   26.9270   41.5170 C   0  0  0  0  0  0  0  0  0  0  0  0
   37.2840   28.1930   40.9850 C   0  0  0  0  0  0  0  0  0  0  0  0
   37.5790   29.2930   41.7880 C   0  0  0  0  0  0  0  0  0  0  0  0
   37.7730   29.1330   43.1360 C   0  0  0  0  0  0  0  0  0  0  0  0
   37.6730   27.8870   43.6790 C   0  0  0  0  0  0  0  0  0  0  0  0
   37.3810   26.7900   42.8850 C   0  0  0  0  0  0  0  0  0  0  0  0
   37.1250   28.2610   39.9390 H   0  0  0  0  0  0  0  0  0  0  0  0
   38.0010   29.9080   43.8240 H   0  0  0  0  0  0  0  0  0  0  0  0
   37.8160   27.6970   44.7380 H   0  0  0  0  0  0  0  0  0  0  0  0
   37.3090   25.8120   43.3410 H   0  0  0  0  0  0  0  0  0  0  0  0
   36.0710   24.9900   38.6080 C   0  0  0  0  0  0  0  0  0  0  0  0
   36.2630   23.6550   39.0200 C   0  0  0  0  0  0  0  0  0  0  0  0
   36.7730   23.4330   40.3000 C   0  0  0  0  0  0  0  0  0  0  0  0
   37.0620   24.5000   41.0860 N   0  0  0  0  0  0  0  0  0  0  0  0
   36.8710   25.7720   40.6730 C   0  0  0  0  0  0  0  0  0  0  0  0
   36.3810   25.9890   39.4430 N   0  0  0  0  0  0  0  0  0  0  0  0
   35.6770   25.1190   37.6180 H   0  0  0  0  0  0  0  0  0  0  0  0
   36.0530   22.7680   38.4450 H   0  0  0  0  0  0  0  0  0  0  0  0
   36.9760   22.4780   40.7620 H   0  0  0  0  0  0  0  0  0  0  0  0
   37.6830   30.5960   41.2150 N   0  0  0  0  0  0  0  0  0  0  0  0
   38.9670   31.2580   41.1510 C   0  0  0  0  0  2  0  0  0  0  0  0
   38.8570   32.7610   41.0240 C   0  0  0  0  0  2  0  0  0  0  0  0
   38.0090   33.1630   39.8410 C   0  0  0  0  0  3  0  0  0  0  0  0
   37.4010   34.0350   40.1660 H   0  0  0  0  0  0  0  0  0  0  0  0
   37.0350   32.0710   39.4530 C   0  0  0  0  0  2  0  0  0  0  0  0
   36.5460   31.3120   40.6770 C   0  0  0  0  0  2  0  0  0  0  0  0
  1  6  1  0  0  0  0
  2  1  2  0  0  0  0
  2  3  1  0  0  0  0
  3  4  2  0  0  0  0
  4  5  1  0  0  0  0
  4  8  1  0  0  0  0
  5  9  1  0  0  0  0
  6 10  1  0  0  0  0
  6  5  2  0  0  0  0
  7  2  1  0  0  0  0
 11 12  2  0  0  0  0
 11 16  1  0  0  0  0
 12 13  1  0  0  0  0
 13 19  1  0  0  0  0
 13 14  2  0  0  0  0
 15 14  1  0  0  0  0
 15  1  1  0  0  0  0
 16 15  2  0  0  0  0
 17 11  1  0  0  0  0
 18 12  1  0  0  0  0
 20  3  1  0  0  0  0
 21 20  1  0  0  0  0
 22 21  1  0  0  0  0
 23 24  1  0  0  0  0
 23 22  1  0  0  0  0
 25 23  1  0  0  0  0
 25 26  1  0  0  0  0
 26 20  1  0  0  0  0
M  END
>  <minimizedAffinity>
-5.24998236

$$$$

 OpenBabel03242516213D

 26 28  0  0  0  0  0  0  0  0999 V2000
   37.2690   29.0820   41.2160 C   0  0  0  0  0  0  0  0  0  0  0  0
   37.1520   27.7990   40.7290 C   0  0  0  0  0  0  0  0  0  0  0  0
   37.1390   26.6990   41.5840 C   0  0  0  0  0  0  0  0  0  0  0  0
   37.2420   26.8760   42.9400 C   0  0  0  0  0  0  0  0  0  0  0  0
   37.3590   28.1390   43.4380 C   0  0  0  0  0  0  0  0  0  0  0  0
   37.3720   29.2360   42.5920 C   0  0  0  0  0  0  0  0  0  0  0  0
   37.0750   27.7180   39.6740 H   0  0  0  0  0  0  0  0  0  0  0  0
   37.2410   26.1020   43.6660 H   0  0  0  0  0  0  0  0  0  0  0  0
   37.4450   28.3440   44.5010 H   0  0  0  0  0  0  0  0  0  0  0  0
   37.4650   30.2270   43.0140 H   0  0  0  0  0  0  0  0  0  0  0  0
   37.4130   32.5720   40.0990 C   0  0  0  0  0  0  0  0  0  0  0  0
   37.3160   32.4630   38.6970 C   0  0  0  0  0  0  0  0  0  0  0  0
   37.2000   31.1860   38.1460 C   0  0  0  0  0  0  0  0  0  0  0  0
   37.1880   30.1130   38.9750 N   0  0  0  0  0  0  0  0  0  0  0  0
   37.2820   30.2370   40.3160 C   0  0  0  0  0  0  0  0  0  0  0  0
   37.3940   31.4630   40.8490 N   0  0  0  0  0  0  0  0  0  0  0  0
   37.5010   33.5700   40.4840 H   0  0  0  0  0  0  0  0  0  0  0  0
   37.3200   33.2750   37.9870 H   0  0  0  0  0  0  0  0  0  0  0  0
   37.1170   30.9350   37.0990 H   0  0  0  0  0  0  0  0  0  0  0  0
   37.0160   25.3780   41.0580 N   0  0  0  0  0  0  0  0  0  0  0  0
   36.4900   25.1760   39.7260 C   0  0  0  0  0  2  0  0  0  0  0  0
   35.9370   23.7850   39.5070 C   0  0  0  0  0  2  0  0  0  0  0  0
   36.9570   22.7200   39.8280 C   0  0  0  0  0  3  0  0  0  0  0  0
   36.4110   21.8970   40.3360 H   0  0  0  0  0  0  0  0  0  0  0  0
   38.0020   23.2190   40.8030 C   0  0  0  0  0  2  0  0  0  0  0  0
   37.3990   24.1960   41.8000 C   0  0  0  0  0  2  0  0  0  0  0  0
  1  6  1  0  0  0  0
  2  1  2  0  0  0  0
  2  3  1  0  0  0  0
  3  4  2  0  0  0  0
  4  5  1  0  0  0  0
  4  8  1  0  0  0  0
  5  9  1  0  0  0  0
  6 10  1  0  0  0  0
  6  5  2  0  0  0  0
  7  2  1  0  0  0  0
 11 17  1  0  0  0  0
 11 16  1  0  0  0  0
 12 11  2  0  0  0  0
 13 12  1  0  0  0  0
 13 14  2  0  0  0  0
 14 15  1  0  0  0  0
 15 16  2  0  0  0  0
 15  1  1  0  0  0  0
 18 12  1  0  0  0  0
 19 13  1  0  0  0  0
 20  3  1  0  0  0  0
 20 26  1  0  0  0  0
 21 20  1  0  0  0  0
 22 21  1  0  0  0  0
 22 23  1  0  0  0  0
 23 24  1  0  0  0  0
 23 25  1  0  0  0  0
 25 26  1  0  0  0  0
M  END
>  <minimizedAffinity>
-5.16244411

$$$$

 OpenBabel03242516213D

 26 28  0  0  0  0  0  0  0  0999 V2000
   39.1960   31.8410   39.0100 C   0  0  0  0  0  0  0  0  0  0  0  0
   39.1200   31.0020   40.1000 C   0  0  0  0  0  0  0  0  0  0  0  0
   37.9750   30.2510   40.3560 C   0  0  0  0  0  0  0  0  0  0  0  0
   36.8920   30.3340   39.5200 C   0  0  0  0  0  0  0  0  0  0  0  0
   36.9500   31.1600   38.4370 C   0  0  0  0  0  0  0  0  0  0  0  0
   38.0860   31.9080   38.1780 C   0  0  0  0  0  0  0  0  0  0  0  0
   39.9850   30.9760   40.7140 H   0  0  0  0  0  0  0  0  0  0  0  0
   35.9810   29.8020   39.6330 H   0  0  0  0  0  0  0  0  0  0  0  0
   36.1260   31.2690   37.7390 H   0  0  0  0  0  0  0  0  0  0  0  0
   38.1060   32.5560   37.3110 H   0  0  0  0  0  0  0  0  0  0  0  0
   41.9840   34.1600   39.5570 C   0  0  0  0  0  0  0  0  0  0  0  0
   42.6590   34.1460   38.3200 C   0  0  0  0  0  0  0  0  0  0  0  0
   42.1460   33.3370   37.3040 C   0  0  0  0  0  0  0  0  0  0  0  0
   41.0320   32.6040   37.5490 N   0  0  0  0  0  0  0  0  0  0  0  0
   40.3990   32.6300   38.7410 C   0  0  0  0  0  0  0  0  0  0  0  0
   40.8890   33.4070   39.7200 N   0  0  0  0  0  0  0  0  0  0  0  0
   42.4080   34.7940   40.3120 H   0  0  0  0  0  0  0  0  0  0  0  0
   43.5450   34.7040   38.0640 H   0  0  0  0  0  0  0  0  0  0  0  0
   42.5440   33.2170   36.3070 H   0  0  0  0  0  0  0  0  0  0  0  0
   37.9190   29.3870   41.4900 N   0  0  0  0  0  0  0  0  0  0  0  0
   36.9860   28.2830   41.5140 C   0  0  0  0  0  2  0  0  0  0  0  0
   36.6680   27.8000   42.9120 C   0  0  0  0  0  2  0  0  0  0  0  0
   37.9170   27.4380   43.6780 C   0  0  0  0  0  3  0  0  0  0  0  0
   37.7660   27.7910   44.7210 H   0  0  0  0  0  0  0  0  0  0  0  0
   39.1330   28.1640   43.1430 C   0  0  0  0  0  2  0  0  0  0  0  0
   38.7680   29.5560   42.6510 C   0  0  0  0  0  2  0  0  0  0  0  0
  1  2  1  0  0  0  0
  2  3  2  0  0  0  0
  2  7  1  0  0  0  0
  3 20  1  0  0  0  0
  4  8  1  0  0  0  0
  4  3  1  0  0  0  0
  5  4  2  0  0  0  0
  6  5  1  0  0  0  0
  6  1  2  0  0  0  0
  9  5  1  0  0  0  0
 10  6  1  0  0  0  0
 11 16  1  0  0  0  0
 11 17  1  0  0  0  0
 12 11  2  0  0  0  0
 13 14  2  0  0  0  0
 13 12  1  0  0  0  0
 14 15  1  0  0  0  0
 15  1  1  0  0  0  0
 15 16  2  0  0  0  0
 18 12  1  0  0  0  0
 19 13  1  0  0  0  0
 20 21  1  0  0  0  0
 20 26  1  0  0  0  0
 21 22  1  0  0  0  0
 22 23  1  0  0  0  0
 23 24  1  0  0  0  0
 25 23  1  0  0  0  0
 26 25  1  0  0  0  0
M  END
>  <minimizedAffinity>
-4.98088455

$$$$

 OpenBabel03242516213D

 26 28  0  0  0  0  0  0  0  0999 V2000
   36.9170   30.1550   39.4930 C   0  0  0  0  0  0  0  0  0  0  0  0
   37.2520   29.0000   40.1650 C   0  0  0  0  0  0  0  0  0  0  0  0
   36.6850   27.7740   39.8250 C   0  0  0  0  0  0  0  0  0  0  0  0
   35.7740   27.6940   38.8030 C   0  0  0  0  0  0  0  0  0  0  0  0
   35.4310   28.8270   38.1270 C   0  0  0  0  0  0  0  0  0  0  0  0
   35.9920   30.0480   38.4620 C   0  0  0  0  0  0  0  0  0  0  0  0
   37.9600   29.1180   40.9460 H   0  0  0  0  0  0  0  0  0  0  0  0
   35.2920   26.8080   38.4730 H   0  0  0  0  0  0  0  0  0  0  0  0
   34.7160   28.8270   37.3100 H   0  0  0  0  0  0  0  0  0  0  0  0
   35.7020   30.9320   37.9090 H   0  0  0  0  0  0  0  0  0  0  0  0
   37.4970   33.7750   39.5720 C   0  0  0  0  0  0  0  0  0  0  0  0
   38.5750   33.9060   40.4710 C   0  0  0  0  0  0  0  0  0  0  0  0
   39.0950   32.7440   41.0430 C   0  0  0  0  0  0  0  0  0  0  0  0
   38.5460   31.5490   40.7140 N   0  0  0  0  0  0  0  0  0  0  0  0
   37.5130   31.4430   39.8510 C   0  0  0  0  0  0  0  0  0  0  0  0
   37.0110   32.5580   39.3000 N   0  0  0  0  0  0  0  0  0  0  0  0
   37.1250   34.6910   39.1540 H   0  0  0  0  0  0  0  0  0  0  0  0
   39.0540   34.8250   40.7710 H   0  0  0  0  0  0  0  0  0  0  0  0
   39.9140   32.6760   41.7440 H   0  0  0  0  0  0  0  0  0  0  0  0
   37.0480   26.5910   40.5340 N   0  0  0  0  0  0  0  0  0  0  0  0
   37.4700   26.6750   41.9150 C   0  0  0  0  0  2  0  0  0  0  0  0
   38.2960   25.4890   42.3600 C   0  0  0  0  0  2  0  0  0  0  0  0
   37.5780   24.1830   42.1170 C   0  0  0  0  0  3  0  0  0  0  0  0
   38.3440   23.4580   41.7660 H   0  0  0  0  0  0  0  0  0  0  0  0
   36.5510   24.3050   41.0120 C   0  0  0  0  0  2  0  0  0  0  0  0
   37.0160   25.2730   39.9360 C   0  0  0  0  0  2  0  0  0  0  0  0
  1 15  1  0  0  0  0
  1  2  1  0  0  0  0
  2  7  1  0  0  0  0
  3  2  2  0  0  0  0
  3 20  1  0  0  0  0
  4  3  1  0  0  0  0
  5  6  1  0  0  0  0
  5  4  2  0  0  0  0
  6  1  2  0  0  0  0
  8  4  1  0  0  0  0
  9  5  1  0  0  0  0
 10  6  1  0  0  0  0
 11 12  1  0  0  0  0
 12 18  1  0  0  0  0
 12 13  2  0  0  0  0
 13 19  1  0  0  0  0
 14 13  1  0  0  0  0
 15 14  2  0  0  0  0
 16 11  2  0  0  0  0
 16 15  1  0  0  0  0
 17 11  1  0  0  0  0
 20 21  1  0  0  0  0
 21 22  1  0  0  0  0
 23 22  1  0  0  0  0
 24 23  1  0  0  0  0
 25 23  1  0  0  0  0
 26 20  1  0  0  0  0
 26 25  1  0  0  0  0
M  END
>  <minimizedAffinity>
-4.88736916

$$$$

 OpenBabel03242516213D

 26 28  0  0  0  0  0  0  0  0999 V2000
   39.1630   27.7290   41.9070 C   0  0  0  0  0  0  0  0  0  0  0  0
   38.5980   28.8620   41.3650 C   0  0  0  0  0  0  0  0  0  0  0  0
   39.1750   30.1170   41.5470 C   0  0  0  0  0  0  0  0  0  0  0  0
   40.3280   30.2480   42.2760 C   0  0  0  0  0  0  0  0  0  0  0  0
   40.9010   29.1370   42.8210 C   0  0  0  0  0  0  0  0  0  0  0  0
   40.3310   27.8870   42.6420 C   0  0  0  0  0  0  0  0  0  0  0  0
   37.7070   28.7050   40.8110 H   0  0  0  0  0  0  0  0  0  0  0  0
   40.8390   31.1580   42.4680 H   0  0  0  0  0  0  0  0  0  0  0  0
   41.8130   29.1760   43.4070 H   0  0  0  0  0  0  0  0  0  0  0  0
   40.8070   27.0220   43.0840 H   0  0  0  0  0  0  0  0  0  0  0  0
   38.6210   24.3490   40.5920 C   0  0  0  0  0  0  0  0  0  0  0  0
   37.4780   23.9120   41.2930 C   0  0  0  0  0  0  0  0  0  0  0  0
   36.9020   24.7880   42.2150 C   0  0  0  0  0  0  0  0  0  0  0  0
   37.4610   26.0110   42.3960 N   0  0  0  0  0  0  0  0  0  0  0  0
   38.5560   26.4110   41.7150 C   0  0  0  0  0  0  0  0  0  0  0  0
   39.1130   25.5710   40.8290 N   0  0  0  0  0  0  0  0  0  0  0  0
   39.0340   23.6470   39.8930 H   0  0  0  0  0  0  0  0  0  0  0  0
   36.9880   22.9570   41.1940 H   0  0  0  0  0  0  0  0  0  0  0  0
   36.0310   24.6060   42.8270 H   0  0  0  0  0  0  0  0  0  0  0  0
   38.5720   31.2770   40.9750 N   0  0  0  0  0  0  0  0  0  0  0  0
   39.3830   32.4310   40.6560 C   0  0  0  0  0  2  0  0  0  0  0  0
   38.5850   33.7130   40.5650 C   0  0  0  0  0  2  0  0  0  0  0  0
   37.4440   33.5950   39.5840 C   0  0  0  0  0  3  0  0  0  0  0  0
   36.5810   34.1320   40.0330 H   0  0  0  0  0  0  0  0  0  0  0  0
   37.0140   32.1560   39.3950 C   0  0  0  0  0  2  0  0  0  0  0  0
   37.1560   31.3670   40.6860 C   0  0  0  0  0  2  0  0  0  0  0  0
  1  6  1  0  0  0  0
  2  3  1  0  0  0  0
  2  1  2  0  0  0  0
  3  4  2  0  0  0  0
  4  8  1  0  0  0  0
  4  5  1  0  0  0  0
  5  9  1  0  0  0  0
  6  5  2  0  0  0  0
  6 10  1  0  0  0  0
  7  2  1  0  0  0  0
 11 16  2  0  0  0  0
 11 12  1  0  0  0  0
 12 13  2  0  0  0  0
 13 14  1  0  0  0  0
 13 19  1  0  0  0  0
 15  1  1  0  0  0  0
 15 14  2  0  0  0  0
 16 15  1  0  0  0  0
 17 11  1  0  0  0  0
 18 12  1  0  0  0  0
 20  3  1  0  0  0  0
 21 20  1  0  0  0  0
 22 21  1  0  0  0  0
 23 24  1  0  0  0  0
 23 22  1  0  0  0  0
 25 23  1  0  0  0  0
 25 26  1  0  0  0  0
 26 20  1  0  0  0  0
M  END
>  <minimizedAffinity>
-4.81017065

$$$$

 OpenBabel03242516213D

 26 28  0  0  0  0  0  0  0  0999 V2000
   37.6290   28.1760   41.5500 C   0  0  0  0  0  0  0  0  0  0  0  0
   38.3270   29.3290   41.2670 C   0  0  0  0  0  0  0  0  0  0  0  0
   37.6970   30.4350   40.6990 C   0  0  0  0  0  0  0  0  0  0  0  0
   36.3580   30.3940   40.4090 C   0  0  0  0  0  0  0  0  0  0  0  0
   35.6520   29.2600   40.6820 C   0  0  0  0  0  0  0  0  0  0  0  0
   36.2740   28.1590   41.2470 C   0  0  0  0  0  0  0  0  0  0  0  0
   39.3590   29.3080   41.5100 H   0  0  0  0  0  0  0  0  0  0  0  0
   35.7940   31.1830   39.9790 H   0  0  0  0  0  0  0  0  0  0  0  0
   34.5910   29.1670   40.4760 H   0  0  0  0  0  0  0  0  0  0  0  0
   35.6910   27.2710   41.4540 H   0  0  0  0  0  0  0  0  0  0  0  0
   39.8840   26.2180   43.6790 C   0  0  0  0  0  0  0  0  0  0  0  0
   39.5870   24.8870   43.3200 C   0  0  0  0  0  0  0  0  0  0  0  0
   38.6110   24.6740   42.3440 C   0  0  0  0  0  0  0  0  0  0  0  0
   37.9940   25.7470   41.7890 N   0  0  0  0  0  0  0  0  0  0  0  0
   38.2920   27.0150   42.1460 C   0  0  0  0  0  0  0  0  0  0  0  0
   39.2290   27.2230   43.0840 N   0  0  0  0  0  0  0  0  0  0  0  0
   40.6390   26.3390   44.4320 H   0  0  0  0  0  0  0  0  0  0  0  0
   40.0410   23.9950   43.7230 H   0  0  0  0  0  0  0  0  0  0  0  0
   38.2720   23.7230   41.9610 H   0  0  0  0  0  0  0  0  0  0  0  0
   38.4390   31.6200   40.4160 N   0  0  0  0  0  0  0  0  0  0  0  0
   37.8340   32.9180   40.6160 C   0  0  0  0  0  2  0  0  0  0  0  0
   38.4970   34.0150   39.8130 C   0  0  0  0  0  2  0  0  0  0  0  0
   39.9810   34.0890   40.0820 C   0  0  0  0  0  3  0  0  0  0  0  0
   40.4720   34.2960   39.1070 H   0  0  0  0  0  0  0  0  0  0  0  0
   40.5270   32.7670   40.5750 C   0  0  0  0  0  2  0  0  0  0  0  0
   39.8020   31.5970   39.9280 C   0  0  0  0  0  2  0  0  0  0  0  0
  1 15  1  0  0  0  0
  2  7  1  0  0  0  0
  2  1  1  0  0  0  0
  3  2  2  0  0  0  0
  4  5  2  0  0  0  0
  4  3  1  0  0  0  0
  5  6  1  0  0  0  0
  6 10  1  0  0  0  0
  6  1  2  0  0  0  0
  8  4  1  0  0  0  0
  9  5  1  0  0  0  0
 11 17  1  0  0  0  0
 12 11  1  0  0  0  0
 12 18  1  0  0  0  0
 13 12  2  0  0  0  0
 14 15  2  0  0  0  0
 14 13  1  0  0  0  0
 15 16  1  0  0  0  0
 16 11  2  0  0  0  0
 19 13  1  0  0  0  0
 20 21  1  0  0  0  0
 20  3  1  0  0  0  0
 22 23  1  0  0  0  0
 22 21  1  0  0  0  0
 23 25  1  0  0  0  0
 24 23  1  0  0  0  0
 26 20  1  0  0  0  0
 26 25  1  0  0  0  0
M  END
>  <minimizedAffinity>
-4.77450228

$$$$

 OpenBabel03242516213D

 26 28  0  0  0  0  0  0  0  0999 V2000
   37.2720   26.0050   41.1080 C   0  0  0  0  0  0  0  0  0  0  0  0
   37.3430   27.1980   40.4240 C   0  0  0  0  0  0  0  0  0  0  0  0
   37.1400   28.4160   41.0690 C   0  0  0  0  0  0  0  0  0  0  0  0
   36.8630   28.4490   42.4110 C   0  0  0  0  0  0  0  0  0  0  0  0
   36.7880   27.2770   43.1040 C   0  0  0  0  0  0  0  0  0  0  0  0
   36.9900   26.0650   42.4660 C   0  0  0  0  0  0  0  0  0  0  0  0
   37.5600   27.1160   39.3880 H   0  0  0  0  0  0  0  0  0  0  0  0
   36.6950   29.3250   42.9870 H   0  0  0  0  0  0  0  0  0  0  0  0
   36.5720   27.2390   44.1670 H   0  0  0  0  0  0  0  0  0  0  0  0
   36.9250   25.1490   43.0400 H   0  0  0  0  0  0  0  0  0  0  0  0
   38.9890   23.3050   39.3170 C   0  0  0  0  0  0  0  0  0  0  0  0
   37.9740   22.3430   39.1390 C   0  0  0  0  0  0  0  0  0  0  0  0
   36.7030   22.6340   39.6370 C   0  0  0  0  0  0  0  0  0  0  0  0
   36.5000   23.8180   40.2670 N   0  0  0  0  0  0  0  0  0  0  0  0
   37.4860   24.7260   40.4290 C   0  0  0  0  0  0  0  0  0  0  0  0
   38.7090   24.4500   39.9510 N   0  0  0  0  0  0  0  0  0  0  0  0
   39.9520   23.0440   38.9210 H   0  0  0  0  0  0  0  0  0  0  0  0
   38.0710   21.3880   38.6480 H   0  0  0  0  0  0  0  0  0  0  0  0
   35.8240   22.0080   39.5810 H   0  0  0  0  0  0  0  0  0  0  0  0
   37.2210   29.6400   40.3400 N   0  0  0  0  0  0  0  0  0  0  0  0
   36.4970   29.7910   39.0970 C   0  0  0  0  0  2  0  0  0  0  0  0
   37.0650   30.8720   38.2040 C   0  0  0  0  0  2  0  0  0  0  0  0
   37.1510   32.2000   38.9170 C   0  0  0  0  0  3  0  0  0  0  0  0
   38.1050   32.6720   38.5990 H   0  0  0  0  0  0  0  0  0  0  0  0
   37.2280   32.0270   40.4190 C   0  0  0  0  0  2  0  0  0  0  0  0
   38.0050   30.7720   40.7860 C   0  0  0  0  0  2  0  0  0  0  0  0
  1  6  1  0  0  0  0
  2  3  1  0  0  0  0
  2  1  2  0  0  0  0
  3  4  2  0  0  0  0
  4  8  1  0  0  0  0
  4  5  1  0  0  0  0
  5  9  1  0  0  0  0
  6 10  1  0  0  0  0
  6  5  2  0  0  0  0
  7  2  1  0  0  0  0
 11 16  1  0  0  0  0
 12 11  2  0  0  0  0
 12 13  1  0  0  0  0
 13 14  2  0  0  0  0
 14 15  1  0  0  0  0
 15  1  1  0  0  0  0
 16 15  2  0  0  0  0
 17 11  1  0  0  0  0
 18 12  1  0  0  0  0
 19 13  1  0  0  0  0
 20 26  1  0  0  0  0
 20  3  1  0  0  0  0
 21 20  1  0  0  0  0
 22 23  1  0  0  0  0
 22 21  1  0  0  0  0
 23 25  1  0  0  0  0
 24 23  1  0  0  0  0
 25 26  1  0  0  0  0
M  END
>  <minimizedAffinity>
-4.75238132

$$$$

 OpenBabel03242516213D

 26 28  0  0  0  0  0  0  0  0999 V2000
   37.7280   27.3600   40.9430 C   0  0  0  0  0  0  0  0  0  0  0  0
   38.0880   28.6900   40.9750 C   0  0  0  0  0  0  0  0  0  0  0  0
   37.3970   29.6440   40.2310 C   0  0  0  0  0  0  0  0  0  0  0  0
   36.3370   29.2730   39.4460 C   0  0  0  0  0  0  0  0  0  0  0  0
   35.9680   27.9620   39.4020 C   0  0  0  0  0  0  0  0  0  0  0  0
   36.6510   27.0100   40.1400 C   0  0  0  0  0  0  0  0  0  0  0  0
   38.9150   28.9220   41.5980 H   0  0  0  0  0  0  0  0  0  0  0  0
   35.7520   29.9270   38.8470 H   0  0  0  0  0  0  0  0  0  0  0  0
   35.1370   27.6070   38.8000 H   0  0  0  0  0  0  0  0  0  0  0  0
   36.3370   25.9760   40.0880 H   0  0  0  0  0  0  0  0  0  0  0  0
   39.0500   24.1000   41.9800 C   0  0  0  0  0  0  0  0  0  0  0  0
   39.7920   24.4100   43.1380 C   0  0  0  0  0  0  0  0  0  0  0  0
   39.8300   25.7420   43.5540 C   0  0  0  0  0  0  0  0  0  0  0  0
   39.1590   26.6740   42.8330 N   0  0  0  0  0  0  0  0  0  0  0  0
   38.4540   26.3580   41.7250 C   0  0  0  0  0  0  0  0  0  0  0  0
   38.4150   25.0790   41.3220 N   0  0  0  0  0  0  0  0  0  0  0  0
   39.0450   23.0660   41.6920 H   0  0  0  0  0  0  0  0  0  0  0  0
   40.3440   23.7170   43.7530 H   0  0  0  0  0  0  0  0  0  0  0  0
   40.3490   26.1390   44.4140 H   0  0  0  0  0  0  0  0  0  0  0  0
   37.7870   31.0160   40.2810 N   0  0  0  0  0  0  0  0  0  0  0  0
   39.1880   31.3700   40.3130 C   0  0  0  0  0  2  0  0  0  0  0  0
   39.4420   32.7500   40.8790 C   0  0  0  0  0  2  0  0  0  0  0  0
   38.6580   33.8100   40.1440 C   0  0  0  0  0  3  0  0  0  0  0  0
   38.2990   34.5300   40.9100 H   0  0  0  0  0  0  0  0  0  0  0  0
   37.4290   33.2340   39.4740 C   0  0  0  0  0  2  0  0  0  0  0  0
   36.8330   32.1050   40.2990 C   0  0  0  0  0  2  0  0  0  0  0  0
  1  2  1  0  0  0  0
  1 15  1  0  0  0  0
  2  7  1  0  0  0  0
  3 20  1  0  0  0  0
  3  2  2  0  0  0  0
  4  3  1  0  0  0  0
  5  4  2  0  0  0  0
  5  6  1  0  0  0  0
  6  1  2  0  0  0  0
  8  4  1  0  0  0  0
  9  5  1  0  0  0  0
 10  6  1  0  0  0  0
 11 12  1  0  0  0  0
 12 13  2  0  0  0  0
 12 18  1  0  0  0  0
 13 19  1  0  0  0  0
 14 13  1  0  0  0  0
 15 14  2  0  0  0  0
 16 15  1  0  0  0  0
 16 11  2  0  0  0  0
 17 11  1  0  0  0  0
 20 26  1  0  0  0  0
 20 21  1  0  0  0  0
 21 22  1  0  0  0  0
 23 22  1  0  0  0  0
 23 24  1  0  0  0  0
 25 23  1  0  0  0  0
 25 26  1  0  0  0  0
M  END
>  <minimizedAffinity>
-4.68788576

$$$$
