
 OpenBabel03242522503D

 24 25  0  0  0  0  0  0  0  0999 V2000
   45.3350   30.8120   47.3970 O   0  0  0  0  0  0  0  0  0  0  0  0
   45.8330   32.0500   48.1640 P   0  0  2  0  0  0  0  0  0  0  0  0
   45.2680   31.8610   49.7420 O   0  0  0  0  0  0  0  0  0  0  0  0
   45.3550   32.7310   50.1820 H   0  0  0  0  0  0  0  0  0  0  0  0
   45.1310   33.4220   47.4650 O   0  0  0  0  0  0  0  0  0  0  0  0
   46.8340   33.4720   44.2520 C   0  0  0  0  0  0  0  0  0  0  0  0
   46.4700   33.1150   45.5650 C   0  0  0  0  0  0  0  0  0  0  0  0
   45.4540   33.8040   46.1810 C   0  0  0  0  0  0  0  0  0  0  0  0
   44.8350   34.8110   45.4950 N   0  0  0  0  0  0  0  0  0  0  0  0
   45.2010   35.1350   44.2390 C   0  0  0  0  0  0  0  0  0  0  0  0
   46.1930   34.4740   43.6190 N   0  0  0  0  0  0  0  0  0  0  0  0
   47.6200   32.9880   43.6890 H   0  0  0  0  0  0  0  0  0  0  0  0
   47.0610   32.3130   45.9230 H   0  0  0  0  0  0  0  0  0  0  0  0
   44.6190   35.9590   43.8190 H   0  0  0  0  0  0  0  0  0  0  0  0
   47.4810   32.1450   48.0990 O   0  0  0  0  0  0  0  0  0  0  0  0
   48.4350   31.5690   48.8660 C   0  0  0  0  0  0  0  0  0  0  0  0
   47.9930   30.6940   49.6880 O   0  0  0  0  0  0  0  0  0  0  0  0
   49.7670   31.3650   49.3180 N   0  0  0  0  0  0  0  0  0  0  0  0
   50.3710   30.3210   48.5200 C   0  0  0  0  0  2  0  0  0  0  0  0
   51.7840   30.0810   48.9480 C   0  0  0  0  0  2  0  0  0  0  0  0
   51.9780   29.9700   50.4310 C   0  0  0  0  0  3  0  0  0  0  0  0
   51.8280   28.9070   50.7170 H   0  0  0  0  0  0  0  0  0  0  0  0
   51.1470   30.9050   51.2450 C   0  0  0  0  0  2  0  0  0  0  0  0
   50.5250   31.9990   50.3680 C   0  0  0  0  0  2  0  0  0  0  0  0
  2  1  2  6  0  0  0
  2  3  1  0  0  0  0
  3  4  1  0  0  0  0
  5  2  1  0  0  0  0
  6  7  1  0  0  0  0
  7 13  1  0  0  0  0
  7  8  2  0  0  0  0
  8  5  1  0  0  0  0
  9  8  1  0  0  0  0
 10  9  2  0  0  0  0
 11 10  1  0  0  0  0
 11  6  2  0  0  0  0
 12  6  1  0  0  0  0
 14 10  1  0  0  0  0
 15  2  1  0  0  0  0
 15 16  1  0  0  0  0
 16 18  1  0  0  0  0
 16 17  2  0  0  0  0
 18 24  1  0  0  0  0
 19 20  1  0  0  0  0
 19 18  1  0  0  0  0
 20 21  1  0  0  0  0
 21 22  1  0  0  0  0
 21 23  1  0  0  0  0
 24 23  1  0  0  0  0
M  END
>  <minimizedAffinity>
-5.09095764

>  <minimizedRMSD>
1.57335126

$$$$
