
 OpenBabel03242521453D

 36 38  0  0  1  0  0  0  0  0999 V2000
   38.6170   32.2650   39.2350 C   0  0  0  0  0  0  0  0  0  0  0  0
   39.9660   32.1120   38.8950 C   0  0  0  0  0  0  0  0  0  0  0  0
   40.8700   33.1370   39.2020 C   0  0  0  0  0  0  0  0  0  0  0  0
   40.3860   34.2170   39.8090 N   0  0  0  0  0  0  0  0  0  0  0  0
   39.0780   34.3490   40.1310 C   0  0  0  0  0  0  0  0  0  0  0  0
   38.1840   33.3740   39.8460 N   0  0  0  0  0  0  0  0  0  0  0  0
   40.2290   31.1970   38.4120 H   0  0  0  0  0  0  0  0  0  0  0  0
   38.7620   35.2570   40.6240 H   0  0  0  0  0  0  0  0  0  0  0  0
   42.5260   32.9120   37.3590 C   0  0  2  0  0  0  0  0  0  0  0  0
   42.2520   32.9100   38.8220 C   0  0  2  0  0  0  0  0  0  0  0  0
   42.7620   31.6320   39.1930 O   0  0  0  0  0  0  0  0  0  0  0  0
   44.0260   31.6500   38.6350 C   0  0  0  0  0  0  0  0  0  0  0  0
   44.0170   32.5210   37.4110 C   0  0  1  0  0  0  0  0  0  0  0  0
   42.0190   32.0720   36.8320 H   0  0  0  0  0  0  0  0  0  0  0  0
   42.8840   33.6580   39.3360 H   0  0  0  0  0  0  0  0  0  0  0  0
   44.7880   31.9210   39.3700 H   0  0  0  0  0  0  0  0  0  0  0  0
   44.2440   30.6040   38.3100 H   0  0  0  0  0  0  0  0  0  0  0  0
   44.6400   33.4080   37.6130 H   0  0  0  0  0  0  0  0  0  0  0  0
   42.2840   34.0930   36.7260 O   0  0  0  0  0  0  0  0  0  0  0  0
   42.9590   34.2770   36.0140 H   0  0  0  0  0  0  0  0  0  0  0  0
   44.3490   31.8590   36.2350 O   0  0  0  0  0  0  0  0  0  0  0  0
   45.3250   31.8240   36.1580 H   0  0  0  0  0  0  0  0  0  0  0  0
   37.6610   31.1550   38.8880 C   0  0  0  0  0  0  0  0  0  0  0  0
   38.0660   30.6580   37.9720 H   0  0  0  0  0  0  0  0  0  0  0  0
   36.6570   31.5590   38.7520 H   0  0  0  0  0  0  0  0  0  0  0  0
   36.9710   30.0840   41.1220 C   0  0  0  0  0  0  0  0  0  0  0  0
   36.1120   30.9930   41.2900 O   0  0  0  0  0  0  0  0  0  0  0  0
   37.7590   30.1700   39.9500 N   0  0  0  0  0  0  0  0  0  0  0  0
   38.4980   29.4410   39.8370 H   0  0  0  0  0  0  0  0  0  0  0  0
   37.1480   29.0220   42.0530 N   0  0  0  0  0  0  0  0  0  0  0  0
   37.7730   28.9650   43.3740 C   0  0  0  0  0  2  0  0  0  0  0  0
   39.0740   28.1930   43.1570 C   0  0  0  0  0  2  0  0  0  0  0  0
   38.7700   26.8120   42.6950 C   0  0  0  0  0  3  0  0  0  0  0  0
   39.7220   26.4050   42.2430 H   0  0  0  0  0  0  0  0  0  0  0  0
   37.7210   26.6690   41.6560 C   0  0  0  0  0  2  0  0  0  0  0  0
   36.6300   27.6990   41.6870 C   0  0  0  0  0  2  0  0  0  0  0  0
  1  6  1  0  0  0  0
  2  3  1  0  0  0  0
  2  1  2  0  0  0  0
  3  4  2  0  0  0  0
  4  5  1  0  0  0  0
  5  8  1  0  0  0  0
  6  5  2  0  0  0  0
  7  2  1  0  0  0  0
  9 14  1  6  0  0  0
  9 13  1  0  0  0  0
  9 10  1  0  0  0  0
 10 11  1  0  0  0  0
 10  3  1  0  0  0  0
 10 15  1  1  0  0  0
 12 11  1  0  0  0  0
 12 16  1  0  0  0  0
 13 18  1  1  0  0  0
 13 12  1  0  0  0  0
 17 12  1  0  0  0  0
 19  9  1  0  0  0  0
 20 19  1  0  0  0  0
 21 13  1  0  0  0  0
 22 21  1  0  0  0  0
 23  1  1  0  0  0  0
 23 28  1  0  0  0  0
 24 23  1  0  0  0  0
 25 23  1  0  0  0  0
 26 27  2  0  0  0  0
 26 30  1  0  0  0  0
 28 26  1  0  0  0  0
 29 28  1  0  0  0  0
 30 31  1  0  0  0  0
 32 31  1  0  0  0  0
 33 32  1  0  0  0  0
 34 33  1  0  0  0  0
 35 36  1  0  0  0  0
 35 33  1  0  0  0  0
 36 30  1  0  0  0  0
M  END
>  <minimizedAffinity>
-6.35142803

$$$$

 OpenBabel03242521453D

 36 38  0  0  1  0  0  0  0  0999 V2000
   37.7740   30.3290   39.1100 C   0  0  0  0  0  0  0  0  0  0  0  0
   39.0870   30.6050   38.7100 C   0  0  0  0  0  0  0  0  0  0  0  0
   39.5860   31.9070   38.8500 C   0  0  0  0  0  0  0  0  0  0  0  0
   38.7690   32.8230   39.3630 N   0  0  0  0  0  0  0  0  0  0  0  0
   37.5020   32.5390   39.7440 C   0  0  0  0  0  0  0  0  0  0  0  0
   36.9950   31.2900   39.6210 N   0  0  0  0  0  0  0  0  0  0  0  0
   39.6420   29.7830   38.3160 H   0  0  0  0  0  0  0  0  0  0  0  0
   36.8990   33.3370   40.1520 H   0  0  0  0  0  0  0  0  0  0  0  0
   41.3380   33.5370   38.1720 C   0  0  2  0  0  0  0  0  0  0  0  0
   40.9540   32.1210   38.4160 C   0  0  2  0  0  0  0  0  0  0  0  0
   41.2700   31.5320   37.1570 O   0  0  0  0  0  0  0  0  0  0  0  0
   42.5660   31.9650   36.9510 C   0  0  0  0  0  0  0  0  0  0  0  0
   42.7600   33.2930   37.6270 C   0  0  1  0  0  0  0  0  0  0  0  0
   40.7730   33.9900   37.3260 H   0  0  0  0  0  0  0  0  0  0  0  0
   41.6330   31.6570   39.1550 H   0  0  0  0  0  0  0  0  0  0  0  0
   43.2970   31.2060   37.2400 H   0  0  0  0  0  0  0  0  0  0  0  0
   42.6760   32.1220   35.8510 H   0  0  0  0  0  0  0  0  0  0  0  0
   43.4720   33.1560   38.4590 H   0  0  0  0  0  0  0  0  0  0  0  0
   41.2950   34.3470   39.2660 O   0  0  0  0  0  0  0  0  0  0  0  0
   42.0400   35.0100   39.2660 H   0  0  0  0  0  0  0  0  0  0  0  0
   43.0960   34.3300   36.7660 O   0  0  0  0  0  0  0  0  0  0  0  0
   44.0630   34.3100   36.6100 H   0  0  0  0  0  0  0  0  0  0  0  0
   37.2560   28.9250   38.9430 C   0  0  0  0  0  0  0  0  0  0  0  0
   37.8230   28.4730   38.0920 H   0  0  0  0  0  0  0  0  0  0  0  0
   36.1770   28.9460   38.7820 H   0  0  0  0  0  0  0  0  0  0  0  0
   36.9080   27.9700   41.3050 C   0  0  0  0  0  0  0  0  0  0  0  0
   35.7730   28.5190   41.3580 O   0  0  0  0  0  0  0  0  0  0  0  0
   37.6590   28.1870   40.1260 N   0  0  0  0  0  0  0  0  0  0  0  0
   38.6150   27.7670   40.1050 H   0  0  0  0  0  0  0  0  0  0  0  0
   37.4180   27.1720   42.3670 N   0  0  0  0  0  0  0  0  0  0  0  0
   37.9670   27.5130   43.6800 C   0  0  0  0  0  2  0  0  0  0  0  0
   39.4660   27.2440   43.5560 C   0  0  0  0  0  2  0  0  0  0  0  0
   39.7000   25.8010   43.2840 C   0  0  0  0  0  3  0  0  0  0  0  0
   40.7520   25.7130   42.8830 H   0  0  0  0  0  0  0  0  0  0  0  0
   38.8170   25.1560   42.2820 C   0  0  0  0  0  2  0  0  0  0  0  0
   37.4270   25.7160   42.1840 C   0  0  0  0  0  2  0  0  0  0  0  0
  1  6  1  0  0  0  0
  2  3  1  0  0  0  0
  2  1  2  0  0  0  0
  3  4  2  0  0  0  0
  4  5  1  0  0  0  0
  5  8  1  0  0  0  0
  6  5  2  0  0  0  0
  7  2  1  0  0  0  0
  9 14  1  6  0  0  0
  9 10  1  0  0  0  0
  9 19  1  0  0  0  0
 10  3  1  0  0  0  0
 10 15  1  1  0  0  0
 11 10  1  0  0  0  0
 12 11  1  0  0  0  0
 12 16  1  0  0  0  0
 12 13  1  0  0  0  0
 13  9  1  0  0  0  0
 13 18  1  1  0  0  0
 17 12  1  0  0  0  0
 19 20  1  0  0  0  0
 21 13  1  0  0  0  0
 22 21  1  0  0  0  0
 23  1  1  0  0  0  0
 23 28  1  0  0  0  0
 24 23  1  0  0  0  0
 25 23  1  0  0  0  0
 26 27  2  0  0  0  0
 26 30  1  0  0  0  0
 28 26  1  0  0  0  0
 29 28  1  0  0  0  0
 30 31  1  0  0  0  0
 32 31  1  0  0  0  0
 33 32  1  0  0  0  0
 34 33  1  0  0  0  0
 35 33  1  0  0  0  0
 36 35  1  0  0  0  0
 36 30  1  0  0  0  0
M  END
>  <minimizedAffinity>
-6.02892971

$$$$

 OpenBabel03242521453D

 36 38  0  0  1  0  0  0  0  0999 V2000
   38.3400   30.6840   41.2960 C   0  0  0  0  0  0  0  0  0  0  0  0
   39.3940   31.3680   40.6790 C   0  0  0  0  0  0  0  0  0  0  0  0
   39.1200   32.2130   39.5960 C   0  0  0  0  0  0  0  0  0  0  0  0
   37.8520   32.3180   39.2080 N   0  0  0  0  0  0  0  0  0  0  0  0
   36.8450   31.6490   39.8160 C   0  0  0  0  0  0  0  0  0  0  0  0
   37.0810   30.8270   40.8640 N   0  0  0  0  0  0  0  0  0  0  0  0
   40.3660   31.2000   41.0860 H   0  0  0  0  0  0  0  0  0  0  0  0
   35.8400   31.7870   39.4420 H   0  0  0  0  0  0  0  0  0  0  0  0
   40.7280   32.3460   37.7030 C   0  0  2  0  0  0  0  0  0  0  0  0
   40.2600   32.8910   39.0050 C   0  0  2  0  0  0  0  0  0  0  0  0
   41.4550   32.8130   39.7780 O   0  0  0  0  0  0  0  0  0  0  0  0
   42.3730   33.4370   38.9570 C   0  0  0  0  0  0  0  0  0  0  0  0
   41.9730   33.2390   37.5220 C   0  0  1  0  0  0  0  0  0  0  0  0
   41.1210   31.3080   37.7930 H   0  0  0  0  0  0  0  0  0  0  0  0
   40.0180   33.9660   38.9130 H   0  0  0  0  0  0  0  0  0  0  0  0
   42.5220   34.4830   39.2380 H   0  0  0  0  0  0  0  0  0  0  0  0
   43.3470   32.9150   39.1150 H   0  0  0  0  0  0  0  0  0  0  0  0
   41.6860   34.2190   37.1050 H   0  0  0  0  0  0  0  0  0  0  0  0
   39.8310   32.4330   36.6820 O   0  0  0  0  0  0  0  0  0  0  0  0
   40.2760   32.6430   35.8140 H   0  0  0  0  0  0  0  0  0  0  0  0
   42.9090   32.5560   36.7560 O   0  0  0  0  0  0  0  0  0  0  0  0
   43.5840   33.1920   36.4410 H   0  0  0  0  0  0  0  0  0  0  0  0
   38.6580   29.7740   42.4540 C   0  0  0  0  0  0  0  0  0  0  0  0
   37.9090   30.0000   43.2530 H   0  0  0  0  0  0  0  0  0  0  0  0
   39.6890   29.9270   42.7720 H   0  0  0  0  0  0  0  0  0  0  0  0
   39.2960   27.4460   41.5680 C   0  0  0  0  0  0  0  0  0  0  0  0
   40.5040   27.8040   41.5010 O   0  0  0  0  0  0  0  0  0  0  0  0
   38.3720   28.4210   42.0130 N   0  0  0  0  0  0  0  0  0  0  0  0
   37.3680   28.1340   42.0250 H   0  0  0  0  0  0  0  0  0  0  0  0
   38.8700   26.1330   41.2180 N   0  0  0  0  0  0  0  0  0  0  0  0
   38.6940   25.4670   39.9280 C   0  0  0  0  0  2  0  0  0  0  0  0
   37.1800   25.3580   39.7500 C   0  0  0  0  0  2  0  0  0  0  0  0
   36.6030   24.5090   40.8270 C   0  0  0  0  0  3  0  0  0  0  0  0
   35.4950   24.7250   40.8510 H   0  0  0  0  0  0  0  0  0  0  0  0
   37.1040   24.7430   42.2040 C   0  0  0  0  0  2  0  0  0  0  0  0
   38.5250   25.2140   42.3080 C   0  0  0  0  0  2  0  0  0  0  0  0
  1 23  1  0  0  0  0
  2  7  1  0  0  0  0
  2  1  2  0  0  0  0
  3  2  1  0  0  0  0
  4  3  2  0  0  0  0
  4  5  1  0  0  0  0
  5  6  2  0  0  0  0
  6  1  1  0  0  0  0
  8  5  1  0  0  0  0
  9 14  1  1  0  0  0
  9 10  1  0  0  0  0
 10 15  1  6  0  0  0
 10  3  1  0  0  0  0
 10 11  1  0  0  0  0
 12 17  1  0  0  0  0
 12 16  1  0  0  0  0
 12 11  1  0  0  0  0
 13 18  1  6  0  0  0
 13  9  1  0  0  0  0
 13 12  1  0  0  0  0
 19  9  1  0  0  0  0
 20 19  1  0  0  0  0
 21 13  1  0  0  0  0
 22 21  1  0  0  0  0
 23 25  1  0  0  0  0
 23 24  1  0  0  0  0
 26 28  1  0  0  0  0
 27 26  2  0  0  0  0
 28 29  1  0  0  0  0
 28 23  1  0  0  0  0
 30 26  1  0  0  0  0
 30 36  1  0  0  0  0
 31 30  1  0  0  0  0
 32 31  1  0  0  0  0
 32 33  1  0  0  0  0
 33 34  1  0  0  0  0
 33 35  1  0  0  0  0
 35 36  1  0  0  0  0
M  END
>  <minimizedAffinity>
-5.92630863

$$$$

 OpenBabel03242521453D

 36 38  0  0  1  0  0  0  0  0999 V2000
   38.3620   30.5340   41.2760 C   0  0  0  0  0  0  0  0  0  0  0  0
   39.3960   31.2560   40.6690 C   0  0  0  0  0  0  0  0  0  0  0  0
   39.0960   32.1270   39.6150 C   0  0  0  0  0  0  0  0  0  0  0  0
   37.8230   32.2200   39.2420 N   0  0  0  0  0  0  0  0  0  0  0  0
   36.8350   31.5140   39.8390 C   0  0  0  0  0  0  0  0  0  0  0  0
   37.0960   30.6660   40.8600 N   0  0  0  0  0  0  0  0  0  0  0  0
   40.3760   31.0940   41.0610 H   0  0  0  0  0  0  0  0  0  0  0  0
   35.8240   31.6440   39.4790 H   0  0  0  0  0  0  0  0  0  0  0  0
   40.6940   32.3360   37.7190 C   0  0  2  0  0  0  0  0  0  0  0  0
   40.2170   32.8440   39.0340 C   0  0  2  0  0  0  0  0  0  0  0  0
   41.4160   32.7810   39.8010 O   0  0  0  0  0  0  0  0  0  0  0  0
   42.3170   33.4420   38.9890 C   0  0  0  0  0  0  0  0  0  0  0  0
   41.9160   33.2620   37.5520 C   0  0  1  0  0  0  0  0  0  0  0  0
   41.1120   31.3060   37.7880 H   0  0  0  0  0  0  0  0  0  0  0  0
   39.9490   33.9140   38.9630 H   0  0  0  0  0  0  0  0  0  0  0  0
   42.4410   34.4860   39.2900 H   0  0  0  0  0  0  0  0  0  0  0  0
   43.3040   32.9410   39.1350 H   0  0  0  0  0  0  0  0  0  0  0  0
   41.6040   34.2430   37.1550 H   0  0  0  0  0  0  0  0  0  0  0  0
   39.7910   32.4210   36.7030 O   0  0  0  0  0  0  0  0  0  0  0  0
   40.2290   32.6570   35.8380 H   0  0  0  0  0  0  0  0  0  0  0  0
   42.8660   32.6170   36.7700 O   0  0  0  0  0  0  0  0  0  0  0  0
   43.5240   33.2750   36.4660 H   0  0  0  0  0  0  0  0  0  0  0  0
   38.7080   29.5960   42.4020 C   0  0  0  0  0  0  0  0  0  0  0  0
   37.9450   29.7610   43.2020 H   0  0  0  0  0  0  0  0  0  0  0  0
   39.7300   29.7800   42.7360 H   0  0  0  0  0  0  0  0  0  0  0  0
   37.4070   27.3860   42.2220 C   0  0  0  0  0  0  0  0  0  0  0  0
   36.5680   27.8130   43.0610 O   0  0  0  0  0  0  0  0  0  0  0  0
   38.4830   28.2490   41.9090 N   0  0  0  0  0  0  0  0  0  0  0  0
   39.1980   27.8740   41.2480 H   0  0  0  0  0  0  0  0  0  0  0  0
   37.2910   26.1040   41.6120 N   0  0  0  0  0  0  0  0  0  0  0  0
   37.5360   24.7510   42.1110 C   0  0  0  0  0  2  0  0  0  0  0  0
   38.8190   24.3050   41.4100 C   0  0  0  0  0  2  0  0  0  0  0  0
   38.6010   24.2570   39.9400 C   0  0  0  0  0  3  0  0  0  0  0  0
   39.6240   24.2500   39.4600 H   0  0  0  0  0  0  0  0  0  0  0  0
   37.8640   25.3930   39.3340 C   0  0  0  0  0  2  0  0  0  0  0  0
   36.8430   26.0500   40.2160 C   0  0  0  0  0  2  0  0  0  0  0  0
  1 23  1  0  0  0  0
  2  7  1  0  0  0  0
  2  1  2  0  0  0  0
  3  2  1  0  0  0  0
  4  3  2  0  0  0  0
  4  5  1  0  0  0  0
  5  6  2  0  0  0  0
  6  1  1  0  0  0  0
  8  5  1  0  0  0  0
  9 14  1  1  0  0  0
  9 10  1  0  0  0  0
 10 15  1  6  0  0  0
 10  3  1  0  0  0  0
 10 11  1  0  0  0  0
 12 17  1  0  0  0  0
 12 16  1  0  0  0  0
 12 11  1  0  0  0  0
 13 18  1  6  0  0  0
 13  9  1  0  0  0  0
 13 12  1  0  0  0  0
 19  9  1  0  0  0  0
 20 19  1  0  0  0  0
 21 13  1  0  0  0  0
 22 21  1  0  0  0  0
 23 25  1  0  0  0  0
 23 24  1  0  0  0  0
 26 27  2  0  0  0  0
 28 26  1  0  0  0  0
 28 23  1  0  0  0  0
 29 28  1  0  0  0  0
 30 31  1  0  0  0  0
 30 26  1  0  0  0  0
 32 31  1  0  0  0  0
 33 32  1  0  0  0  0
 34 33  1  0  0  0  0
 35 33  1  0  0  0  0
 35 36  1  0  0  0  0
 36 30  1  0  0  0  0
M  END
>  <minimizedAffinity>
-5.87918091

$$$$

 OpenBabel03242521453D

 36 38  0  0  1  0  0  0  0  0999 V2000
   38.0530   27.1900   43.2210 C   0  0  0  0  0  0  0  0  0  0  0  0
   37.3020   26.3740   42.3670 C   0  0  0  0  0  0  0  0  0  0  0  0
   37.8090   25.1240   41.9920 C   0  0  0  0  0  0  0  0  0  0  0  0
   38.9990   24.7770   42.4760 N   0  0  0  0  0  0  0  0  0  0  0  0
   39.7130   25.5780   43.3010 C   0  0  0  0  0  0  0  0  0  0  0  0
   39.2460   26.7900   43.6790 N   0  0  0  0  0  0  0  0  0  0  0  0
   36.3610   26.7660   42.0490 H   0  0  0  0  0  0  0  0  0  0  0  0
   40.6720   25.2260   43.6520 H   0  0  0  0  0  0  0  0  0  0  0  0
   37.6770   23.2510   40.3600 C   0  0  2  0  0  0  0  0  0  0  0  0
   36.9770   24.3310   41.1060 C   0  0  2  0  0  0  0  0  0  0  0  0
   36.3920   25.0670   40.0350 O   0  0  0  0  0  0  0  0  0  0  0  0
   35.7540   24.0760   39.3150 C   0  0  0  0  0  0  0  0  0  0  0  0
   36.4950   22.7800   39.4880 C   0  0  1  0  0  0  0  0  0  0  0  0
   38.4310   23.6490   39.6440 H   0  0  0  0  0  0  0  0  0  0  0  0
   36.1370   23.9160   41.6930 H   0  0  0  0  0  0  0  0  0  0  0  0
   34.6910   24.0180   39.5620 H   0  0  0  0  0  0  0  0  0  0  0  0
   35.8230   24.3690   38.2400 H   0  0  0  0  0  0  0  0  0  0  0  0
   35.8510   22.0860   40.0550 H   0  0  0  0  0  0  0  0  0  0  0  0
   38.2200   22.2700   41.1330 O   0  0  0  0  0  0  0  0  0  0  0  0
   38.1320   21.3720   40.7090 H   0  0  0  0  0  0  0  0  0  0  0  0
   36.9930   22.2440   38.3070 O   0  0  0  0  0  0  0  0  0  0  0  0
   36.2820   21.7360   37.8660 H   0  0  0  0  0  0  0  0  0  0  0  0
   37.4920   28.5330   43.6050 C   0  0  0  0  0  0  0  0  0  0  0  0
   38.1820   28.9610   44.3730 H   0  0  0  0  0  0  0  0  0  0  0  0
   36.4680   28.4190   43.9600 H   0  0  0  0  0  0  0  0  0  0  0  0
   38.7290   30.1820   42.0670 C   0  0  0  0  0  0  0  0  0  0  0  0
   39.7090   30.1870   42.8630 O   0  0  0  0  0  0  0  0  0  0  0  0
   37.6190   29.3880   42.4380 N   0  0  0  0  0  0  0  0  0  0  0  0
   36.7940   29.4210   41.7990 H   0  0  0  0  0  0  0  0  0  0  0  0
   38.7280   30.9300   40.8560 N   0  0  0  0  0  0  0  0  0  0  0  0
   38.5710   32.3580   40.5810 C   0  0  0  0  0  2  0  0  0  0  0  0
   37.1810   32.4840   39.9590 C   0  0  0  0  0  2  0  0  0  0  0  0
   37.1290   31.7260   38.6800 C   0  0  0  0  0  3  0  0  0  0  0  0
   36.0360   31.5740   38.4370 H   0  0  0  0  0  0  0  0  0  0  0  0
   37.7490   30.3790   38.6740 C   0  0  0  0  0  2  0  0  0  0  0  0
   38.9160   30.1960   39.5990 C   0  0  0  0  0  2  0  0  0  0  0  0
  1 23  1  0  0  0  0
  1  6  1  0  0  0  0
  2  1  2  0  0  0  0
  3  2  1  0  0  0  0
  3  4  2  0  0  0  0
  4  5  1  0  0  0  0
  5  8  1  0  0  0  0
  5  6  2  0  0  0  0
  7  2  1  0  0  0  0
  9 14  1  6  0  0  0
  9 10  1  0  0  0  0
  9 19  1  0  0  0  0
 10 15  1  1  0  0  0
 10  3  1  0  0  0  0
 11 10  1  0  0  0  0
 12 13  1  0  0  0  0
 12 16  1  0  0  0  0
 12 11  1  0  0  0  0
 13 18  1  1  0  0  0
 13  9  1  0  0  0  0
 17 12  1  0  0  0  0
 20 19  1  0  0  0  0
 21 13  1  0  0  0  0
 22 21  1  0  0  0  0
 23 25  1  0  0  0  0
 23 24  1  0  0  0  0
 26 28  1  0  0  0  0
 26 27  2  0  0  0  0
 28 23  1  0  0  0  0
 29 28  1  0  0  0  0
 30 26  1  0  0  0  0
 31 30  1  0  0  0  0
 32 31  1  0  0  0  0
 33 32  1  0  0  0  0
 34 33  1  0  0  0  0
 35 33  1  0  0  0  0
 35 36  1  0  0  0  0
 36 30  1  0  0  0  0
M  END
>  <minimizedAffinity>
-5.80446959

$$$$

 OpenBabel03242521453D

 36 38  0  0  1  0  0  0  0  0999 V2000
   36.3820   29.6070   39.6330 C   0  0  0  0  0  0  0  0  0  0  0  0
   37.3250   30.6270   39.8010 C   0  0  0  0  0  0  0  0  0  0  0  0
   37.8690   31.2510   38.6710 C   0  0  0  0  0  0  0  0  0  0  0  0
   37.4520   30.8290   37.4810 N   0  0  0  0  0  0  0  0  0  0  0  0
   36.5390   29.8410   37.3350 C   0  0  0  0  0  0  0  0  0  0  0  0
   35.9970   29.2220   38.4090 N   0  0  0  0  0  0  0  0  0  0  0  0
   37.5760   30.8750   40.8090 H   0  0  0  0  0  0  0  0  0  0  0  0
   36.2500   29.5540   36.3340 H   0  0  0  0  0  0  0  0  0  0  0  0
   40.0960   32.2170   38.1270 C   0  0  2  0  0  0  0  0  0  0  0  0
   38.8400   32.3000   38.9200 C   0  0  2  0  0  0  0  0  0  0  0  0
   39.3580   32.3180   40.2490 O   0  0  0  0  0  0  0  0  0  0  0  0
   40.3040   33.3220   40.1780 C   0  0  0  0  0  0  0  0  0  0  0  0
   40.8510   33.3930   38.7800 C   0  0  1  0  0  0  0  0  0  0  0  0
   40.6940   31.3110   38.3730 H   0  0  0  0  0  0  0  0  0  0  0  0
   38.3470   33.2770   38.7660 H   0  0  0  0  0  0  0  0  0  0  0  0
   39.9150   34.2710   40.5540 H   0  0  0  0  0  0  0  0  0  0  0  0
   41.1380   33.0200   40.8560 H   0  0  0  0  0  0  0  0  0  0  0  0
   40.5320   34.3500   38.3330 H   0  0  0  0  0  0  0  0  0  0  0  0
   39.9390   32.3390   36.7800 O   0  0  0  0  0  0  0  0  0  0  0  0
   40.6870   32.8520   36.3650 H   0  0  0  0  0  0  0  0  0  0  0  0
   42.2160   33.1570   38.6870 O   0  0  0  0  0  0  0  0  0  0  0  0
   42.6940   33.9910   38.8760 H   0  0  0  0  0  0  0  0  0  0  0  0
   35.8160   28.9440   40.8610 C   0  0  0  0  0  0  0  0  0  0  0  0
   34.7630   28.6610   40.6160 H   0  0  0  0  0  0  0  0  0  0  0  0
   35.8950   29.6190   41.7150 H   0  0  0  0  0  0  0  0  0  0  0  0
   37.0510   27.1530   42.2320 C   0  0  0  0  0  0  0  0  0  0  0  0
   36.9140   27.8560   43.2710 O   0  0  0  0  0  0  0  0  0  0  0  0
   36.5350   27.6950   41.0310 N   0  0  0  0  0  0  0  0  0  0  0  0
   36.6900   27.1300   40.1660 H   0  0  0  0  0  0  0  0  0  0  0  0
   37.6890   25.8800   42.2510 N   0  0  0  0  0  0  0  0  0  0  0  0
   39.0930   25.4850   42.3530 C   0  0  0  0  0  2  0  0  0  0  0  0
   39.4560   24.9780   40.9570 C   0  0  0  0  0  2  0  0  0  0  0  0
   38.6310   23.7870   40.6220 C   0  0  0  0  0  3  0  0  0  0  0  0
   38.6900   23.6570   39.5010 H   0  0  0  0  0  0  0  0  0  0  0  0
   37.1880   23.8550   40.9580 C   0  0  0  0  0  2  0  0  0  0  0  0
   36.8380   24.6890   42.1560 C   0  0  0  0  0  2  0  0  0  0  0  0
  1  2  1  0  0  0  0
  1 23  1  0  0  0  0
  2  7  1  0  0  0  0
  3 10  1  0  0  0  0
  3  2  2  0  0  0  0
  4  3  1  0  0  0  0
  5  4  2  0  0  0  0
  5  6  1  0  0  0  0
  6  1  2  0  0  0  0
  8  5  1  0  0  0  0
  9 14  1  1  0  0  0
  9 13  1  0  0  0  0
  9 10  1  0  0  0  0
 10 15  1  6  0  0  0
 10 11  1  0  0  0  0
 12 11  1  0  0  0  0
 12 16  1  0  0  0  0
 12 17  1  0  0  0  0
 13 18  1  6  0  0  0
 13 12  1  0  0  0  0
 19  9  1  0  0  0  0
 20 19  1  0  0  0  0
 21 13  1  0  0  0  0
 21 22  1  0  0  0  0
 23 28  1  0  0  0  0
 23 25  1  0  0  0  0
 24 23  1  0  0  0  0
 26 30  1  0  0  0  0
 26 27  2  0  0  0  0
 28 26  1  0  0  0  0
 29 28  1  0  0  0  0
 30 31  1  0  0  0  0
 32 31  1  0  0  0  0
 33 32  1  0  0  0  0
 33 35  1  0  0  0  0
 34 33  1  0  0  0  0
 35 36  1  0  0  0  0
 36 30  1  0  0  0  0
M  END
>  <minimizedAffinity>
-5.79192924

$$$$

 OpenBabel03242521453D

 36 38  0  0  1  0  0  0  0  0999 V2000
   35.8810   29.2110   37.6070 C   0  0  0  0  0  0  0  0  0  0  0  0
   36.6600   30.1590   38.2800 C   0  0  0  0  0  0  0  0  0  0  0  0
   37.4020   31.0860   37.5380 C   0  0  0  0  0  0  0  0  0  0  0  0
   37.3240   31.0110   36.2120 N   0  0  0  0  0  0  0  0  0  0  0  0
   36.5660   30.0870   35.5770 C   0  0  0  0  0  0  0  0  0  0  0  0
   35.8390   29.1800   36.2690 N   0  0  0  0  0  0  0  0  0  0  0  0
   36.6360   30.1160   39.3470 H   0  0  0  0  0  0  0  0  0  0  0  0
   36.5540   30.0900   34.4970 H   0  0  0  0  0  0  0  0  0  0  0  0
   39.6510   32.0220   38.0430 C   0  0  2  0  0  0  0  0  0  0  0  0
   38.1860   32.0410   38.3010 C   0  0  2  0  0  0  0  0  0  0  0  0
   38.1540   31.8330   39.7110 O   0  0  0  0  0  0  0  0  0  0  0  0
   39.0390   32.7920   40.1650 C   0  0  0  0  0  0  0  0  0  0  0  0
   40.0780   33.0500   39.1110 C   0  0  1  0  0  0  0  0  0  0  0  0
   40.1240   31.0630   38.3520 H   0  0  0  0  0  0  0  0  0  0  0  0
   37.7730   33.0510   38.1270 H   0  0  0  0  0  0  0  0  0  0  0  0
   38.5200   33.6890   40.5090 H   0  0  0  0  0  0  0  0  0  0  0  0
   39.5540   32.3530   41.0540 H   0  0  0  0  0  0  0  0  0  0  0  0
   39.9400   34.0770   38.7330 H   0  0  0  0  0  0  0  0  0  0  0  0
   40.0210   32.3550   36.7750 O   0  0  0  0  0  0  0  0  0  0  0  0
   40.8610   32.8910   36.7630 H   0  0  0  0  0  0  0  0  0  0  0  0
   41.3790   32.7690   39.5100 O   0  0  0  0  0  0  0  0  0  0  0  0
   41.7340   33.5420   39.9960 H   0  0  0  0  0  0  0  0  0  0  0  0
   35.0970   28.2170   38.4240 C   0  0  0  0  0  0  0  0  0  0  0  0
   35.1590   27.2400   37.8860 H   0  0  0  0  0  0  0  0  0  0  0  0
   34.0750   28.5730   38.5590 H   0  0  0  0  0  0  0  0  0  0  0  0
   36.5610   26.8960   40.0740 C   0  0  0  0  0  0  0  0  0  0  0  0
   36.5490   25.9070   39.2900 O   0  0  0  0  0  0  0  0  0  0  0  0
   35.8240   28.0330   39.6670 N   0  0  0  0  0  0  0  0  0  0  0  0
   35.8000   28.8320   40.3390 H   0  0  0  0  0  0  0  0  0  0  0  0
   37.2730   26.8820   41.3070 N   0  0  0  0  0  0  0  0  0  0  0  0
   37.0050   26.2360   42.5910 C   0  0  0  0  0  2  0  0  0  0  0  0
   36.6030   27.3770   43.5250 C   0  0  0  0  0  2  0  0  0  0  0  0
   37.7370   28.3280   43.6780 C   0  0  0  0  0  3  0  0  0  0  0  0
   37.3020   29.2870   44.0860 H   0  0  0  0  0  0  0  0  0  0  0  0
   38.4730   28.6950   42.4440 C   0  0  0  0  0  2  0  0  0  0  0  0
   38.5270   27.6390   41.3800 C   0  0  0  0  0  2  0  0  0  0  0  0
  1  2  1  0  0  0  0
  1 23  1  0  0  0  0
  2  7  1  0  0  0  0
  3  2  2  0  0  0  0
  3 10  1  0  0  0  0
  4  3  1  0  0  0  0
  5  4  2  0  0  0  0
  5  6  1  0  0  0  0
  6  1  2  0  0  0  0
  8  5  1  0  0  0  0
  9 10  1  0  0  0  0
  9 14  1  1  0  0  0
  9 13  1  0  0  0  0
 10 15  1  6  0  0  0
 10 11  1  0  0  0  0
 11 12  1  0  0  0  0
 12 16  1  0  0  0  0
 12 17  1  0  0  0  0
 13 18  1  6  0  0  0
 13 21  1  0  0  0  0
 13 12  1  0  0  0  0
 19  9  1  0  0  0  0
 20 19  1  0  0  0  0
 21 22  1  0  0  0  0
 23 25  1  0  0  0  0
 23 28  1  0  0  0  0
 24 23  1  0  0  0  0
 26 30  1  0  0  0  0
 27 26  2  0  0  0  0
 28 26  1  0  0  0  0
 28 29  1  0  0  0  0
 30 36  1  0  0  0  0
 30 31  1  0  0  0  0
 31 32  1  0  0  0  0
 32 33  1  0  0  0  0
 33 34  1  0  0  0  0
 35 33  1  0  0  0  0
 36 35  1  0  0  0  0
M  END
>  <minimizedAffinity>
-5.77110386

$$$$

 OpenBabel03242521453D

 36 38  0  0  1  0  0  0  0  0999 V2000
   35.9920   29.2340   36.5770 C   0  0  0  0  0  0  0  0  0  0  0  0
   35.9120   28.7590   37.8920 C   0  0  0  0  0  0  0  0  0  0  0  0
   36.6720   29.3790   38.8910 C   0  0  0  0  0  0  0  0  0  0  0  0
   37.4430   30.4000   38.5280 N   0  0  0  0  0  0  0  0  0  0  0  0
   37.5090   30.8470   37.2520 C   0  0  0  0  0  0  0  0  0  0  0  0
   36.7840   30.2670   36.2670 N   0  0  0  0  0  0  0  0  0  0  0  0
   35.2550   27.9330   38.0550 H   0  0  0  0  0  0  0  0  0  0  0  0
   38.1580   31.6830   37.0350 H   0  0  0  0  0  0  0  0  0  0  0  0
   36.6880   29.8150   41.3400 C   0  0  2  0  0  0  0  0  0  0  0  0
   36.5400   28.8350   40.2300 C   0  0  2  0  0  0  0  0  0  0  0  0
   37.5370   27.8780   40.5770 O   0  0  0  0  0  0  0  0  0  0  0  0
   37.2360   27.6110   41.8990 C   0  0  0  0  0  0  0  0  0  0  0  0
   36.6100   28.8260   42.5220 C   0  0  1  0  0  0  0  0  0  0  0  0
   37.7110   30.2510   41.3880 H   0  0  0  0  0  0  0  0  0  0  0  0
   35.5690   28.3120   40.3010 H   0  0  0  0  0  0  0  0  0  0  0  0
   36.6410   26.7000   42.0020 H   0  0  0  0  0  0  0  0  0  0  0  0
   38.2090   27.4240   42.4140 H   0  0  0  0  0  0  0  0  0  0  0  0
   35.5590   28.5910   42.7580 H   0  0  0  0  0  0  0  0  0  0  0  0
   35.7450   30.7970   41.3770 O   0  0  0  0  0  0  0  0  0  0  0  0
   35.4860   31.0270   42.3120 H   0  0  0  0  0  0  0  0  0  0  0  0
   37.3220   29.3500   43.5940 O   0  0  0  0  0  0  0  0  0  0  0  0
   37.0810   28.8570   44.4040 H   0  0  0  0  0  0  0  0  0  0  0  0
   35.1720   28.5470   35.5170 C   0  0  0  0  0  0  0  0  0  0  0  0
   34.9000   27.5420   35.9230 H   0  0  0  0  0  0  0  0  0  0  0  0
   35.7380   28.4980   34.5860 H   0  0  0  0  0  0  0  0  0  0  0  0
   32.7190   28.8540   34.8100 C   0  0  0  0  0  0  0  0  0  0  0  0
   32.7370   27.7170   34.2620 O   0  0  0  0  0  0  0  0  0  0  0  0
   33.9260   29.2840   35.4100 N   0  0  0  0  0  0  0  0  0  0  0  0
   33.9190   30.2420   35.8240 H   0  0  0  0  0  0  0  0  0  0  0  0
   31.5530   29.6710   34.8320 N   0  0  0  0  0  0  0  0  0  0  0  0
   30.8980   30.4780   33.8030 C   0  0  0  0  0  2  0  0  0  0  0  0
   31.1910   31.9250   34.1990 C   0  0  0  0  0  2  0  0  0  0  0  0
   30.5800   32.2210   35.5230 C   0  0  0  0  0  3  0  0  0  0  0  0
   31.0860   33.1530   35.9120 H   0  0  0  0  0  0  0  0  0  0  0  0
   30.7360   31.1900   36.5770 C   0  0  0  0  0  2  0  0  0  0  0  0
   30.8130   29.7710   36.0940 C   0  0  0  0  0  2  0  0  0  0  0  0
  1  2  1  0  0  0  0
  2  7  1  0  0  0  0
  2  3  2  0  0  0  0
  3 10  1  0  0  0  0
  4  3  1  0  0  0  0
  5  4  2  0  0  0  0
  6  1  2  0  0  0  0
  6  5  1  0  0  0  0
  8  5  1  0  0  0  0
  9 19  1  0  0  0  0
  9 14  1  6  0  0  0
  9 13  1  0  0  0  0
 10 15  1  1  0  0  0
 10 11  1  0  0  0  0
 10  9  1  0  0  0  0
 11 12  1  0  0  0  0
 12 16  1  0  0  0  0
 12 17  1  0  0  0  0
 12 13  1  0  0  0  0
 13 18  1  1  0  0  0
 13 21  1  0  0  0  0
 19 20  1  0  0  0  0
 21 22  1  0  0  0  0
 23 24  1  0  0  0  0
 23  1  1  0  0  0  0
 25 23  1  0  0  0  0
 26 30  1  0  0  0  0
 26 28  1  0  0  0  0
 27 26  2  0  0  0  0
 28 23  1  0  0  0  0
 28 29  1  0  0  0  0
 30 36  1  0  0  0  0
 31 32  1  0  0  0  0
 31 30  1  0  0  0  0
 32 33  1  0  0  0  0
 33 34  1  0  0  0  0
 33 35  1  0  0  0  0
 36 35  1  0  0  0  0
M  END
>  <minimizedAffinity>
-5.69233036

$$$$

 OpenBabel03242521453D

 36 38  0  0  1  0  0  0  0  0999 V2000
   36.4980   29.6390   39.6740 C   0  0  0  0  0  0  0  0  0  0  0  0
   37.4260   30.6740   39.8320 C   0  0  0  0  0  0  0  0  0  0  0  0
   37.9160   31.3330   38.6970 C   0  0  0  0  0  0  0  0  0  0  0  0
   37.4650   30.9290   37.5130 N   0  0  0  0  0  0  0  0  0  0  0  0
   36.5670   29.9260   37.3780 C   0  0  0  0  0  0  0  0  0  0  0  0
   36.0770   29.2730   38.4570 N   0  0  0  0  0  0  0  0  0  0  0  0
   37.7080   30.9050   40.8350 H   0  0  0  0  0  0  0  0  0  0  0  0
   36.2480   29.6550   36.3820 H   0  0  0  0  0  0  0  0  0  0  0  0
   40.1510   32.2940   38.1770 C   0  0  2  0  0  0  0  0  0  0  0  0
   38.8750   32.3970   38.9350 C   0  0  2  0  0  0  0  0  0  0  0  0
   39.3580   32.4630   40.2740 O   0  0  0  0  0  0  0  0  0  0  0  0
   40.3010   33.4700   40.1930 C   0  0  0  0  0  0  0  0  0  0  0  0
   40.8830   33.4970   38.8080 C   0  0  1  0  0  0  0  0  0  0  0  0
   40.7480   31.4010   38.4690 H   0  0  0  0  0  0  0  0  0  0  0  0
   38.3810   33.3650   38.7340 H   0  0  0  0  0  0  0  0  0  0  0  0
   39.8970   34.4300   40.5260 H   0  0  0  0  0  0  0  0  0  0  0  0
   41.1180   33.1970   40.9030 H   0  0  0  0  0  0  0  0  0  0  0  0
   40.5710   34.4360   38.3200 H   0  0  0  0  0  0  0  0  0  0  0  0
   40.0290   32.3690   36.8230 O   0  0  0  0  0  0  0  0  0  0  0  0
   40.7840   32.8730   36.4100 H   0  0  0  0  0  0  0  0  0  0  0  0
   42.2520   33.2670   38.7590 O   0  0  0  0  0  0  0  0  0  0  0  0
   42.7200   34.1090   38.9320 H   0  0  0  0  0  0  0  0  0  0  0  0
   35.9910   28.9380   40.9070 C   0  0  0  0  0  0  0  0  0  0  0  0
   35.1510   28.2780   40.5770 H   0  0  0  0  0  0  0  0  0  0  0  0
   35.6930   29.6740   41.6550 H   0  0  0  0  0  0  0  0  0  0  0  0
   37.1530   27.3810   42.5910 C   0  0  0  0  0  0  0  0  0  0  0  0
   36.2480   27.6220   43.4360 O   0  0  0  0  0  0  0  0  0  0  0  0
   37.0480   28.0470   41.3470 N   0  0  0  0  0  0  0  0  0  0  0  0
   37.8220   27.8780   40.6670 H   0  0  0  0  0  0  0  0  0  0  0  0
   38.2280   26.4870   42.8590 N   0  0  0  0  0  0  0  0  0  0  0  0
   39.4320   26.6150   43.6800 C   0  0  0  0  0  2  0  0  0  0  0  0
   40.5770   26.7380   42.6740 C   0  0  0  0  0  2  0  0  0  0  0  0
   40.6660   25.5000   41.8550 C   0  0  0  0  0  3  0  0  0  0  0  0
   41.2780   25.7580   40.9420 H   0  0  0  0  0  0  0  0  0  0  0  0
   39.3890   24.9340   41.3550 C   0  0  0  0  0  2  0  0  0  0  0  0
   38.1900   25.1630   42.2280 C   0  0  0  0  0  2  0  0  0  0  0  0
  1  2  1  0  0  0  0
  1 23  1  0  0  0  0
  2  7  1  0  0  0  0
  3 10  1  0  0  0  0
  3  2  2  0  0  0  0
  4  3  1  0  0  0  0
  5  4  2  0  0  0  0
  5  6  1  0  0  0  0
  6  1  2  0  0  0  0
  8  5  1  0  0  0  0
  9 14  1  1  0  0  0
  9 13  1  0  0  0  0
  9 10  1  0  0  0  0
 10 15  1  6  0  0  0
 10 11  1  0  0  0  0
 12 11  1  0  0  0  0
 12 16  1  0  0  0  0
 12 17  1  0  0  0  0
 13 18  1  6  0  0  0
 13 12  1  0  0  0  0
 19  9  1  0  0  0  0
 20 19  1  0  0  0  0
 21 13  1  0  0  0  0
 21 22  1  0  0  0  0
 23 28  1  0  0  0  0
 23 25  1  0  0  0  0
 24 23  1  0  0  0  0
 26 30  1  0  0  0  0
 26 27  2  0  0  0  0
 28 26  1  0  0  0  0
 29 28  1  0  0  0  0
 30 31  1  0  0  0  0
 32 31  1  0  0  0  0
 33 32  1  0  0  0  0
 34 33  1  0  0  0  0
 35 33  1  0  0  0  0
 35 36  1  0  0  0  0
 36 30  1  0  0  0  0
M  END
>  <minimizedAffinity>
-5.6887002

$$$$
