
 OpenBabel03242522503D

 24 25  0  0  0  0  0  0  0  0999 V2000
   45.3910   30.7340   47.5970 O   0  0  0  0  0  0  0  0  0  0  0  0
   45.7590   31.9690   48.4380 P   0  0  2  0  0  0  0  0  0  0  0  0
   45.1000   31.6880   49.9660 O   0  0  0  0  0  0  0  0  0  0  0  0
   45.1030   32.5440   50.4390 H   0  0  0  0  0  0  0  0  0  0  0  0
   45.0240   33.3230   47.7380 O   0  0  0  0  0  0  0  0  0  0  0  0
   46.7170   33.3990   44.5210 C   0  0  0  0  0  0  0  0  0  0  0  0
   46.3500   33.0240   45.8270 C   0  0  0  0  0  0  0  0  0  0  0  0
   45.3510   33.7230   46.4610 C   0  0  0  0  0  0  0  0  0  0  0  0
   44.7530   34.7570   45.7970 N   0  0  0  0  0  0  0  0  0  0  0  0
   45.1230   35.0980   44.5460 C   0  0  0  0  0  0  0  0  0  0  0  0
   46.0970   34.4270   43.9090 N   0  0  0  0  0  0  0  0  0  0  0  0
   47.4910   32.9080   43.9460 H   0  0  0  0  0  0  0  0  0  0  0  0
   46.9230   32.2020   46.1680 H   0  0  0  0  0  0  0  0  0  0  0  0
   44.5580   35.9420   44.1440 H   0  0  0  0  0  0  0  0  0  0  0  0
   47.3990   32.1640   48.4930 O   0  0  0  0  0  0  0  0  0  0  0  0
   48.4020   31.2580   48.4730 C   0  0  0  0  0  0  0  0  0  0  0  0
   49.4360   31.6020   49.1440 O   0  0  0  0  0  0  0  0  0  0  0  0
   49.0180   30.0330   48.0970 N   0  0  0  0  0  0  0  0  0  0  0  0
   48.7940   29.8170   46.6850 C   0  0  0  0  0  2  0  0  0  0  0  0
   49.4390   28.5450   46.2380 C   0  0  0  0  0  2  0  0  0  0  0  0
   49.1870   27.3670   47.1300 C   0  0  0  0  0  3  0  0  0  0  0  0
   48.2470   26.8780   46.7930 H   0  0  0  0  0  0  0  0  0  0  0  0
   49.1810   27.6760   48.5910 C   0  0  0  0  0  2  0  0  0  0  0  0
   49.7640   29.0670   48.8650 C   0  0  0  0  0  2  0  0  0  0  0  0
  2  1  2  6  0  0  0
  2 15  1  0  0  0  0
  2  3  1  0  0  0  0
  3  4  1  0  0  0  0
  5  2  1  0  0  0  0
  6  7  1  0  0  0  0
  7 13  1  0  0  0  0
  7  8  2  0  0  0  0
  8  5  1  0  0  0  0
  9  8  1  0  0  0  0
 10  9  2  0  0  0  0
 11  6  2  0  0  0  0
 11 10  1  0  0  0  0
 12  6  1  0  0  0  0
 14 10  1  0  0  0  0
 16 15  1  0  0  0  0
 16 17  2  0  0  0  0
 18 16  1  0  0  0  0
 18 24  1  0  0  0  0
 19 18  1  0  0  0  0
 20 19  1  0  0  0  0
 20 21  1  0  0  0  0
 21 23  1  0  0  0  0
 22 21  1  0  0  0  0
 23 24  1  0  0  0  0
M  END
>  <minimizedAffinity>
-4.4827323

>  <minimizedRMSD>
0.618673921

$$$$
