
 OpenBabel03242522503D

 24 25  0  0  0  0  0  0  0  0999 V2000
   45.4250   30.7830   47.5940 O   0  0  0  0  0  0  0  0  0  0  0  0
   45.8530   32.0660   48.3300 P   0  0  2  0  0  0  0  0  0  0  0  0
   45.3550   31.8570   49.9280 O   0  0  0  0  0  0  0  0  0  0  0  0
   45.3910   32.7370   50.3540 H   0  0  0  0  0  0  0  0  0  0  0  0
   45.0270   33.3710   47.6390 O   0  0  0  0  0  0  0  0  0  0  0  0
   46.6590   33.5330   44.3940 C   0  0  0  0  0  0  0  0  0  0  0  0
   46.3140   33.1210   45.6950 C   0  0  0  0  0  0  0  0  0  0  0  0
   45.3330   33.8080   46.3680 C   0  0  0  0  0  0  0  0  0  0  0  0
   44.7290   34.8650   45.7480 N   0  0  0  0  0  0  0  0  0  0  0  0
   45.0770   35.2410   44.5010 C   0  0  0  0  0  0  0  0  0  0  0  0
   46.0350   34.5830   43.8250 N   0  0  0  0  0  0  0  0  0  0  0  0
   47.4180   33.0550   43.7890 H   0  0  0  0  0  0  0  0  0  0  0  0
   46.8880   32.2860   46.0000 H   0  0  0  0  0  0  0  0  0  0  0  0
   44.5110   36.1010   44.1350 H   0  0  0  0  0  0  0  0  0  0  0  0
   47.4860   32.2840   48.2090 O   0  0  0  0  0  0  0  0  0  0  0  0
   48.5180   31.4940   48.5840 C   0  0  0  0  0  0  0  0  0  0  0  0
   49.3620   32.0630   49.3610 O   0  0  0  0  0  0  0  0  0  0  0  0
   49.2660   30.2860   48.6090 N   0  0  0  0  0  0  0  0  0  0  0  0
   48.5910   29.3070   47.7860 C   0  0  0  0  0  2  0  0  0  0  0  0
   49.3510   28.0210   47.7660 C   0  0  0  0  0  2  0  0  0  0  0  0
   49.8100   27.5430   49.1120 C   0  0  0  0  0  3  0  0  0  0  0  0
   48.9960   26.9260   49.5510 H   0  0  0  0  0  0  0  0  0  0  0  0
   50.2760   28.6200   50.0350 C   0  0  0  0  0  2  0  0  0  0  0  0
   50.4940   29.9370   49.2820 C   0  0  0  0  0  2  0  0  0  0  0  0
  2  1  2  6  0  0  0
  2  3  1  0  0  0  0
  3  4  1  0  0  0  0
  5  2  1  0  0  0  0
  6  7  1  0  0  0  0
  7 13  1  0  0  0  0
  7  8  2  0  0  0  0
  8  5  1  0  0  0  0
  9  8  1  0  0  0  0
 10  9  2  0  0  0  0
 11  6  2  0  0  0  0
 11 10  1  0  0  0  0
 12  6  1  0  0  0  0
 14 10  1  0  0  0  0
 15  2  1  0  0  0  0
 15 16  1  0  0  0  0
 16 18  1  0  0  0  0
 16 17  2  0  0  0  0
 18 24  1  0  0  0  0
 19 18  1  0  0  0  0
 20 19  1  0  0  0  0
 20 21  1  0  0  0  0
 21 22  1  0  0  0  0
 21 23  1  0  0  0  0
 24 23  1  0  0  0  0
M  END
>  <minimizedAffinity>
-4.91454554

>  <minimizedRMSD>
0.128386423

$$$$
