
 OpenBabel03242522503D

 24 25  0  0  0  0  0  0  0  0999 V2000
   45.2180   30.8310   47.5050 O   0  0  0  0  0  0  0  0  0  0  0  0
   45.7370   32.0400   48.3060 P   0  0  2  0  0  0  0  0  0  0  0  0
   45.1800   31.8100   49.8820 O   0  0  0  0  0  0  0  0  0  0  0  0
   45.2800   32.6650   50.3460 H   0  0  0  0  0  0  0  0  0  0  0  0
   45.0480   33.4410   47.6530 O   0  0  0  0  0  0  0  0  0  0  0  0
   46.6730   33.5260   44.4020 C   0  0  0  0  0  0  0  0  0  0  0  0
   46.3350   33.1490   45.7150 C   0  0  0  0  0  0  0  0  0  0  0  0
   45.3450   33.8430   46.3700 C   0  0  0  0  0  0  0  0  0  0  0  0
   44.7270   34.8730   45.7180 N   0  0  0  0  0  0  0  0  0  0  0  0
   45.0690   35.2160   44.4610 C   0  0  0  0  0  0  0  0  0  0  0  0
   46.0340   34.5500   43.8030 N   0  0  0  0  0  0  0  0  0  0  0  0
   47.4370   33.0400   43.8100 H   0  0  0  0  0  0  0  0  0  0  0  0
   46.9200   32.3310   46.0440 H   0  0  0  0  0  0  0  0  0  0  0  0
   44.4910   36.0570   44.0700 H   0  0  0  0  0  0  0  0  0  0  0  0
   47.3850   32.1170   48.2330 O   0  0  0  0  0  0  0  0  0  0  0  0
   48.3360   31.2680   48.6850 C   0  0  0  0  0  0  0  0  0  0  0  0
   49.1890   31.8040   49.4750 O   0  0  0  0  0  0  0  0  0  0  0  0
   48.9850   30.0080   48.7920 N   0  0  0  0  0  0  0  0  0  0  0  0
   49.8870   30.0470   49.9230 C   0  0  0  0  0  2  0  0  0  0  0  0
   50.5820   28.7340   50.0860 C   0  0  0  0  0  2  0  0  0  0  0  0
   51.1410   28.1580   48.8200 C   0  0  0  0  0  3  0  0  0  0  0  0
   52.1690   28.5580   48.6860 H   0  0  0  0  0  0  0  0  0  0  0  0
   50.2860   28.3540   47.6100 C   0  0  0  0  0  2  0  0  0  0  0  0
   48.8750   28.8080   47.9980 C   0  0  0  0  0  2  0  0  0  0  0  0
  2  1  2  6  0  0  0
  2  3  1  0  0  0  0
  3  4  1  0  0  0  0
  5  2  1  0  0  0  0
  6  7  1  0  0  0  0
  7 13  1  0  0  0  0
  7  8  2  0  0  0  0
  8  5  1  0  0  0  0
  9  8  1  0  0  0  0
 10  9  2  0  0  0  0
 11  6  2  0  0  0  0
 11 10  1  0  0  0  0
 12  6  1  0  0  0  0
 14 10  1  0  0  0  0
 15  2  1  0  0  0  0
 15 16  1  0  0  0  0
 16 18  1  0  0  0  0
 16 17  2  0  0  0  0
 18 19  1  0  0  0  0
 19 20  1  0  0  0  0
 21 20  1  0  0  0  0
 22 21  1  0  0  0  0
 23 24  1  0  0  0  0
 23 21  1  0  0  0  0
 24 18  1  0  0  0  0
M  END
>  <minimizedAffinity>
-4.90447855

>  <minimizedRMSD>
0.290558994

$$$$
