
 OpenBabel03242522503D

 24 25  0  0  0  0  0  0  0  0999 V2000
   45.0900   30.7840   47.5920 O   0  0  0  0  0  0  0  0  0  0  0  0
   45.6930   31.9320   48.4210 P   0  0  2  0  0  0  0  0  0  0  0  0
   45.0990   31.7190   49.9860 O   0  0  0  0  0  0  0  0  0  0  0  0
   45.2620   32.5550   50.4680 H   0  0  0  0  0  0  0  0  0  0  0  0
   45.1260   33.3950   47.7880 O   0  0  0  0  0  0  0  0  0  0  0  0
   46.7000   33.3860   44.5100 C   0  0  0  0  0  0  0  0  0  0  0  0
   46.3890   33.0530   45.8420 C   0  0  0  0  0  0  0  0  0  0  0  0
   45.3980   33.7540   46.4850 C   0  0  0  0  0  0  0  0  0  0  0  0
   44.7530   34.7490   45.8070 N   0  0  0  0  0  0  0  0  0  0  0  0
   45.0700   35.0510   44.5320 C   0  0  0  0  0  0  0  0  0  0  0  0
   46.0360   34.3770   43.8840 N   0  0  0  0  0  0  0  0  0  0  0  0
   47.4630   32.8900   43.9250 H   0  0  0  0  0  0  0  0  0  0  0  0
   46.9920   32.2570   46.1910 H   0  0  0  0  0  0  0  0  0  0  0  0
   44.4720   35.8680   44.1190 H   0  0  0  0  0  0  0  0  0  0  0  0
   47.3430   31.8790   48.3680 O   0  0  0  0  0  0  0  0  0  0  0  0
   48.1920   30.8540   48.1270 C   0  0  0  0  0  0  0  0  0  0  0  0
   49.3420   30.9820   48.6730 O   0  0  0  0  0  0  0  0  0  0  0  0
   48.5670   29.6050   47.5610 N   0  0  0  0  0  0  0  0  0  0  0  0
   48.4670   29.7000   46.1210 C   0  0  0  0  0  2  0  0  0  0  0  0
   48.8690   28.4120   45.4780 C   0  0  0  0  0  2  0  0  0  0  0  0
   48.2670   27.1870   46.0990 C   0  0  0  0  0  3  0  0  0  0  0  0
   47.2900   26.9990   45.6050 H   0  0  0  0  0  0  0  0  0  0  0  0
   48.1600   27.2260   47.5880 C   0  0  0  0  0  2  0  0  0  0  0  0
   48.9940   28.3710   48.1730 C   0  0  0  0  0  2  0  0  0  0  0  0
  2  1  2  6  0  0  0
  2  3  1  0  0  0  0
  3  4  1  0  0  0  0
  5  2  1  0  0  0  0
  6  7  1  0  0  0  0
  7 13  1  0  0  0  0
  7  8  2  0  0  0  0
  8  5  1  0  0  0  0
  9  8  1  0  0  0  0
 10  9  2  0  0  0  0
 11  6  2  0  0  0  0
 11 10  1  0  0  0  0
 12  6  1  0  0  0  0
 14 10  1  0  0  0  0
 15  2  1  0  0  0  0
 16 15  1  0  0  0  0
 16 17  2  0  0  0  0
 18 16  1  0  0  0  0
 18 24  1  0  0  0  0
 19 18  1  0  0  0  0
 20 21  1  0  0  0  0
 20 19  1  0  0  0  0
 21 23  1  0  0  0  0
 22 21  1  0  0  0  0
 23 24  1  0  0  0  0
M  END
>  <minimizedAffinity>
-4.33417273

>  <minimizedRMSD>
1.21097744

$$$$
