
 OpenBabel03242522503D

 24 25  0  0  0  0  0  0  0  0999 V2000
   45.2010   30.8380   47.5370 O   0  0  0  0  0  0  0  0  0  0  0  0
   45.7570   32.0690   48.2750 P   0  0  2  0  0  0  0  0  0  0  0  0
   45.2810   31.8840   49.8830 O   0  0  0  0  0  0  0  0  0  0  0  0
   45.4030   32.7530   50.3170 H   0  0  0  0  0  0  0  0  0  0  0  0
   45.0300   33.4500   47.6180 O   0  0  0  0  0  0  0  0  0  0  0  0
   46.6470   33.5590   44.3640 C   0  0  0  0  0  0  0  0  0  0  0  0
   46.3090   33.1700   45.6730 C   0  0  0  0  0  0  0  0  0  0  0  0
   45.3280   33.8650   46.3390 C   0  0  0  0  0  0  0  0  0  0  0  0
   44.7180   34.9080   45.7020 N   0  0  0  0  0  0  0  0  0  0  0  0
   45.0600   35.2640   44.4470 C   0  0  0  0  0  0  0  0  0  0  0  0
   46.0170   34.5970   43.7790 N   0  0  0  0  0  0  0  0  0  0  0  0
   47.4050   33.0730   43.7640 H   0  0  0  0  0  0  0  0  0  0  0  0
   46.8870   32.3420   45.9900 H   0  0  0  0  0  0  0  0  0  0  0  0
   44.4890   36.1150   44.0690 H   0  0  0  0  0  0  0  0  0  0  0  0
   47.3990   32.1480   48.1140 O   0  0  0  0  0  0  0  0  0  0  0  0
   48.3670   31.2630   48.4460 C   0  0  0  0  0  0  0  0  0  0  0  0
   48.9880   31.5430   49.5290 O   0  0  0  0  0  0  0  0  0  0  0  0
   49.1580   30.0970   48.2590 N   0  0  0  0  0  0  0  0  0  0  0  0
   48.2880   29.0030   47.8850 C   0  0  0  0  0  2  0  0  0  0  0  0
   49.0790   27.7550   47.6600 C   0  0  0  0  0  2  0  0  0  0  0  0
   50.0920   27.4540   48.7240 C   0  0  0  0  0  3  0  0  0  0  0  0
   49.5900   26.8600   49.5170 H   0  0  0  0  0  0  0  0  0  0  0  0
   50.8050   28.6480   49.2670 C   0  0  0  0  0  2  0  0  0  0  0  0
   50.5790   29.8790   48.3810 C   0  0  0  0  0  2  0  0  0  0  0  0
  2  1  2  6  0  0  0
  2  3  1  0  0  0  0
  3  4  1  0  0  0  0
  5  2  1  0  0  0  0
  6  7  1  0  0  0  0
  7 13  1  0  0  0  0
  7  8  2  0  0  0  0
  8  5  1  0  0  0  0
  9  8  1  0  0  0  0
 10  9  2  0  0  0  0
 11  6  2  0  0  0  0
 11 10  1  0  0  0  0
 12  6  1  0  0  0  0
 14 10  1  0  0  0  0
 15  2  1  0  0  0  0
 15 16  1  0  0  0  0
 16 17  2  0  0  0  0
 18 24  1  0  0  0  0
 18 16  1  0  0  0  0
 19 18  1  0  0  0  0
 20 19  1  0  0  0  0
 20 21  1  0  0  0  0
 21 23  1  0  0  0  0
 21 22  1  0  0  0  0
 24 23  1  0  0  0  0
M  END
>  <minimizedAffinity>
-4.74654961

>  <minimizedRMSD>
0.460377783

$$$$
