
 OpenBabel03242522503D

 24 25  0  0  0  0  0  0  0  0999 V2000
   45.2880   30.8110   47.5190 O   0  0  0  0  0  0  0  0  0  0  0  0
   45.7760   32.0420   48.3040 P   0  0  2  0  0  0  0  0  0  0  0  0
   45.2350   31.8120   49.8850 O   0  0  0  0  0  0  0  0  0  0  0  0
   45.3140   32.6750   50.3400 H   0  0  0  0  0  0  0  0  0  0  0  0
   45.0410   33.4160   47.6410 O   0  0  0  0  0  0  0  0  0  0  0  0
   46.6720   33.5310   44.3930 C   0  0  0  0  0  0  0  0  0  0  0  0
   46.3300   33.1400   45.7020 C   0  0  0  0  0  0  0  0  0  0  0  0
   45.3430   33.8310   46.3630 C   0  0  0  0  0  0  0  0  0  0  0  0
   44.7300   34.8710   45.7230 N   0  0  0  0  0  0  0  0  0  0  0  0
   45.0750   35.2270   44.4690 C   0  0  0  0  0  0  0  0  0  0  0  0
   46.0380   34.5640   43.8050 N   0  0  0  0  0  0  0  0  0  0  0  0
   47.4340   33.0480   43.7970 H   0  0  0  0  0  0  0  0  0  0  0  0
   46.9110   32.3160   46.0220 H   0  0  0  0  0  0  0  0  0  0  0  0
   44.5020   36.0750   44.0870 H   0  0  0  0  0  0  0  0  0  0  0  0
   47.4210   32.1670   48.2190 O   0  0  0  0  0  0  0  0  0  0  0  0
   48.3990   31.3880   48.7350 C   0  0  0  0  0  0  0  0  0  0  0  0
   49.3130   32.0330   49.3570 O   0  0  0  0  0  0  0  0  0  0  0  0
   49.0480   30.1520   49.0020 N   0  0  0  0  0  0  0  0  0  0  0  0
   49.7630   30.2670   50.2540 C   0  0  0  0  0  2  0  0  0  0  0  0
   50.4500   28.9820   50.5870 C   0  0  0  0  0  2  0  0  0  0  0  0
   51.2080   28.3630   49.4510 C   0  0  0  0  0  3  0  0  0  0  0  0
   52.2360   28.7840   49.4560 H   0  0  0  0  0  0  0  0  0  0  0  0
   50.5470   28.4800   48.1170 C   0  0  0  0  0  2  0  0  0  0  0  0
   49.0840   28.9140   48.2610 C   0  0  0  0  0  2  0  0  0  0  0  0
  2  1  2  6  0  0  0
  2  3  1  0  0  0  0
  3  4  1  0  0  0  0
  5  2  1  0  0  0  0
  6  7  1  0  0  0  0
  7 13  1  0  0  0  0
  7  8  2  0  0  0  0
  8  5  1  0  0  0  0
  9  8  1  0  0  0  0
 10  9  2  0  0  0  0
 11  6  2  0  0  0  0
 11 10  1  0  0  0  0
 12  6  1  0  0  0  0
 14 10  1  0  0  0  0
 15  2  1  0  0  0  0
 15 16  1  0  0  0  0
 16 18  1  0  0  0  0
 16 17  2  0  0  0  0
 18 19  1  0  0  0  0
 19 20  1  0  0  0  0
 21 22  1  0  0  0  0
 21 20  1  0  0  0  0
 23 24  1  0  0  0  0
 23 21  1  0  0  0  0
 24 18  1  0  0  0  0
M  END
>  <minimizedAffinity>
-5.07658577

>  <minimizedRMSD>
0.368788064

$$$$
