
 OpenBabel03242522503D

 24 25  0  0  0  0  0  0  0  0999 V2000
   45.9420   30.4100   48.0510 O   0  0  0  0  0  0  0  0  0  0  0  0
   46.0590   31.8460   48.5920 P   0  0  2  0  0  0  0  0  0  0  0  0
   45.3270   31.8170   50.1120 O   0  0  0  0  0  0  0  0  0  0  0  0
   45.1690   32.7480   50.3690 H   0  0  0  0  0  0  0  0  0  0  0  0
   45.1960   32.8720   47.5600 O   0  0  0  0  0  0  0  0  0  0  0  0
   47.2160   32.7020   44.5410 C   0  0  0  0  0  0  0  0  0  0  0  0
   46.6800   32.3980   45.8070 C   0  0  0  0  0  0  0  0  0  0  0  0
   45.6910   33.2050   46.3180 C   0  0  0  0  0  0  0  0  0  0  0  0
   45.2670   34.2710   45.5760 N   0  0  0  0  0  0  0  0  0  0  0  0
   45.7960   34.5420   44.3670 C   0  0  0  0  0  0  0  0  0  0  0  0
   46.7630   33.7660   43.8490 N   0  0  0  0  0  0  0  0  0  0  0  0
   47.9950   32.1250   44.0600 H   0  0  0  0  0  0  0  0  0  0  0  0
   47.1330   31.5370   46.2210 H   0  0  0  0  0  0  0  0  0  0  0  0
   45.3590   35.4240   43.8920 H   0  0  0  0  0  0  0  0  0  0  0  0
   47.6440   32.3060   48.6730 O   0  0  0  0  0  0  0  0  0  0  0  0
   48.7640   31.5920   48.9270 C   0  0  0  0  0  0  0  0  0  0  0  0
   49.7520   32.2920   49.3410 O   0  0  0  0  0  0  0  0  0  0  0  0
   49.5380   30.4020   49.0020 N   0  0  0  0  0  0  0  0  0  0  0  0
   49.6720   30.0240   50.3920 C   0  0  0  0  0  2  0  0  0  0  0  0
   50.4660   28.7650   50.5210 C   0  0  0  0  0  2  0  0  0  0  0  0
   51.7250   28.7300   49.7070 C   0  0  0  0  0  3  0  0  0  0  0  0
   52.5390   29.1750   50.3190 H   0  0  0  0  0  0  0  0  0  0  0  0
   51.6160   29.3570   48.3560 C   0  0  0  0  0  2  0  0  0  0  0  0
   50.1500   29.5970   47.9740 C   0  0  0  0  0  2  0  0  0  0  0  0
  2  1  2  6  0  0  0
  2 15  1  0  0  0  0
  2  3  1  0  0  0  0
  3  4  1  0  0  0  0
  5  2  1  0  0  0  0
  6  7  1  0  0  0  0
  7 13  1  0  0  0  0
  7  8  2  0  0  0  0
  8  5  1  0  0  0  0
  9  8  1  0  0  0  0
 10  9  2  0  0  0  0
 11 10  1  0  0  0  0
 11  6  2  0  0  0  0
 12  6  1  0  0  0  0
 14 10  1  0  0  0  0
 15 16  1  0  0  0  0
 16 18  1  0  0  0  0
 16 17  2  0  0  0  0
 18 19  1  0  0  0  0
 19 20  1  0  0  0  0
 21 22  1  0  0  0  0
 21 20  1  0  0  0  0
 23 21  1  0  0  0  0
 24 23  1  0  0  0  0
 24 18  1  0  0  0  0
M  END
>  <minimizedAffinity>
-4.79632854

>  <minimizedRMSD>
0.814305484

$$$$
