
 OpenBabel03242522503D

 24 25  0  0  0  0  0  0  0  0999 V2000
   45.7190   30.5820   47.8060 O   0  0  0  0  0  0  0  0  0  0  0  0
   45.9590   31.9550   48.4610 P   0  0  2  0  0  0  0  0  0  0  0  0
   45.3050   31.8360   50.0110 O   0  0  0  0  0  0  0  0  0  0  0  0
   45.2220   32.7480   50.3560 H   0  0  0  0  0  0  0  0  0  0  0  0
   45.1120   33.1190   47.5700 O   0  0  0  0  0  0  0  0  0  0  0  0
   47.0190   33.1060   44.4740 C   0  0  0  0  0  0  0  0  0  0  0  0
   46.5540   32.7580   45.7560 C   0  0  0  0  0  0  0  0  0  0  0  0
   45.5360   33.4940   46.3140 C   0  0  0  0  0  0  0  0  0  0  0  0
   45.0150   34.5370   45.6010 N   0  0  0  0  0  0  0  0  0  0  0  0
   45.4780   34.8520   44.3750 C   0  0  0  0  0  0  0  0  0  0  0  0
   46.4730   34.1440   43.8120 N   0  0  0  0  0  0  0  0  0  0  0  0
   47.8140   32.5860   43.9570 H   0  0  0  0  0  0  0  0  0  0  0  0
   47.0770   31.9230   46.1430 H   0  0  0  0  0  0  0  0  0  0  0  0
   44.9670   35.7080   43.9270 H   0  0  0  0  0  0  0  0  0  0  0  0
   47.5720   32.3090   48.4890 O   0  0  0  0  0  0  0  0  0  0  0  0
   48.6400   31.5560   48.8370 C   0  0  0  0  0  0  0  0  0  0  0  0
   49.6170   32.2220   49.3270 O   0  0  0  0  0  0  0  0  0  0  0  0
   49.3610   30.3390   48.9800 N   0  0  0  0  0  0  0  0  0  0  0  0
   49.6750   30.1490   50.3790 C   0  0  0  0  0  2  0  0  0  0  0  0
   50.4190   28.8690   50.5820 C   0  0  0  0  0  2  0  0  0  0  0  0
   51.5450   28.6390   49.6200 C   0  0  0  0  0  3  0  0  0  0  0  0
   52.4590   29.1090   50.0440 H   0  0  0  0  0  0  0  0  0  0  0  0
   51.2720   29.0770   48.2190 C   0  0  0  0  0  2  0  0  0  0  0  0
   49.7810   29.3590   48.0080 C   0  0  0  0  0  2  0  0  0  0  0  0
  2  1  2  6  0  0  0
  2 15  1  0  0  0  0
  2  3  1  0  0  0  0
  3  4  1  0  0  0  0
  5  2  1  0  0  0  0
  6  7  1  0  0  0  0
  7 13  1  0  0  0  0
  7  8  2  0  0  0  0
  8  5  1  0  0  0  0
  9  8  1  0  0  0  0
 10  9  2  0  0  0  0
 11 10  1  0  0  0  0
 11  6  2  0  0  0  0
 12  6  1  0  0  0  0
 14 10  1  0  0  0  0
 15 16  1  0  0  0  0
 16 18  1  0  0  0  0
 16 17  2  0  0  0  0
 18 19  1  0  0  0  0
 19 20  1  0  0  0  0
 21 22  1  0  0  0  0
 21 20  1  0  0  0  0
 23 21  1  0  0  0  0
 24 23  1  0  0  0  0
 24 18  1  0  0  0  0
M  END
>  <minimizedAffinity>
-5.02147913

>  <minimizedRMSD>
0.533230126

$$$$
