
 OpenBabel03242522503D

 24 25  0  0  0  0  0  0  0  0999 V2000
   44.8950   30.8200   47.6190 O   0  0  0  0  0  0  0  0  0  0  0  0
   45.6540   31.9110   48.3970 P   0  0  2  0  0  0  0  0  0  0  0  0
   45.1570   31.7490   50.0010 O   0  0  0  0  0  0  0  0  0  0  0  0
   45.4260   32.5670   50.4660 H   0  0  0  0  0  0  0  0  0  0  0  0
   45.1720   33.4190   47.7980 O   0  0  0  0  0  0  0  0  0  0  0  0
   46.6820   33.3930   44.4900 C   0  0  0  0  0  0  0  0  0  0  0  0
   46.3990   33.0690   45.8300 C   0  0  0  0  0  0  0  0  0  0  0  0
   45.4160   33.7690   46.4880 C   0  0  0  0  0  0  0  0  0  0  0  0
   44.7500   34.7530   45.8140 N   0  0  0  0  0  0  0  0  0  0  0  0
   45.0400   35.0460   44.5300 C   0  0  0  0  0  0  0  0  0  0  0  0
   45.9970   34.3740   43.8690 N   0  0  0  0  0  0  0  0  0  0  0  0
   47.4370   32.8980   43.8940 H   0  0  0  0  0  0  0  0  0  0  0  0
   47.0150   32.2800   46.1740 H   0  0  0  0  0  0  0  0  0  0  0  0
   44.4280   35.8560   44.1230 H   0  0  0  0  0  0  0  0  0  0  0  0
   47.2850   31.7140   48.2270 O   0  0  0  0  0  0  0  0  0  0  0  0
   48.0170   30.6350   47.8660 C   0  0  0  0  0  0  0  0  0  0  0  0
   49.1900   30.6000   48.3770 O   0  0  0  0  0  0  0  0  0  0  0  0
   48.2460   29.4110   47.1810 N   0  0  0  0  0  0  0  0  0  0  0  0
   48.4670   29.6990   45.7810 C   0  0  0  0  0  2  0  0  0  0  0  0
   48.7290   28.4400   45.0200 C   0  0  0  0  0  2  0  0  0  0  0  0
   47.7820   27.3170   45.3170 C   0  0  0  0  0  3  0  0  0  0  0  0
   46.9100   27.4160   44.6350 H   0  0  0  0  0  0  0  0  0  0  0  0
   47.3790   27.1990   46.7510 C   0  0  0  0  0  2  0  0  0  0  0  0
   48.2840   28.0480   47.6520 C   0  0  0  0  0  2  0  0  0  0  0  0
  2  1  2  6  0  0  0
  2  3  1  0  0  0  0
  3  4  1  0  0  0  0
  5  2  1  0  0  0  0
  6  7  1  0  0  0  0
  7 13  1  0  0  0  0
  7  8  2  0  0  0  0
  8  5  1  0  0  0  0
  9  8  1  0  0  0  0
 10  9  2  0  0  0  0
 11  6  2  0  0  0  0
 11 10  1  0  0  0  0
 12  6  1  0  0  0  0
 14 10  1  0  0  0  0
 15  2  1  0  0  0  0
 16 15  1  0  0  0  0
 16 17  2  0  0  0  0
 18 24  1  0  0  0  0
 18 16  1  0  0  0  0
 19 18  1  0  0  0  0
 20 21  1  0  0  0  0
 20 19  1  0  0  0  0
 21 23  1  0  0  0  0
 22 21  1  0  0  0  0
 23 24  1  0  0  0  0
M  END
>  <minimizedAffinity>
-4.22294998

>  <minimizedRMSD>
1.61631906

$$$$
