
 OpenBabel03242516413D

 32 33  0  0  0  0  0  0  0  0999 V2000
   48.6290   33.6240   42.9190 C   0  0  0  0  0  0  0  0  0  0  0  0
   49.0310   34.1560   43.8310 H   0  0  0  0  0  0  0  0  0  0  0  0
   49.0340   34.1110   42.0100 H   0  0  0  0  0  0  0  0  0  0  0  0
   47.1290   33.7540   42.8680 C   0  0  0  0  0  0  0  0  0  0  0  0
   46.8430   34.7790   42.5410 H   0  0  0  0  0  0  0  0  0  0  0  0
   46.6910   33.0530   42.1270 H   0  0  0  0  0  0  0  0  0  0  0  0
   45.1210   34.2930   46.0140 C   0  0  0  0  0  0  0  0  0  0  0  0
   45.6340   34.4600   44.7030 C   0  0  0  0  0  0  0  0  0  0  0  0
   46.6040   33.5620   44.2470 C   0  0  0  0  0  0  0  0  0  0  0  0
   47.0160   32.5700   45.0720 N   0  0  0  0  0  0  0  0  0  0  0  0
   46.4960   32.4510   46.3160 C   0  0  0  0  0  0  0  0  0  0  0  0
   45.5660   33.2930   46.7860 N   0  0  0  0  0  0  0  0  0  0  0  0
   44.1500   35.1700   46.5070 N   0  0  0  0  0  0  0  0  0  0  0  0
   45.2530   35.2770   44.1090 H   0  0  0  0  0  0  0  0  0  0  0  0
   46.8290   31.6550   46.9720 H   0  0  0  0  0  0  0  0  0  0  0  0
   43.3670   34.7280   47.0720 H   0  0  0  0  0  0  0  0  0  0  0  0
   44.1390   36.2140   46.3620 H   0  0  0  0  0  0  0  0  0  0  0  0
   48.9910   32.2990   42.9140 O   0  0  0  0  0  0  0  0  0  0  0  0
   49.7180   30.2870   41.4180 O   0  0  0  0  0  0  0  0  0  0  0  0
   49.4740   31.7810   41.3740 P   0  0  2  0  0  0  0  0  0  0  0  0
   50.8550   32.6440   40.9760 O   0  0  0  0  0  0  0  0  0  0  0  0
   51.6230   32.1260   41.3730 H   0  0  0  0  0  0  0  0  0  0  0  0
   48.2800   32.1520   40.2520 O   0  0  0  0  0  0  0  0  0  0  0  0
   48.0190   34.7800   39.7580 F   0  0  0  0  0  0  0  0  0  0  0  0
   48.2480   33.8500   38.7730 C   0  0  0  0  0  0  0  0  0  0  0  0
   48.3980   32.4640   38.9330 C   0  0  0  0  0  0  0  0  0  0  0  0
   48.6230   31.7360   37.7840 C   0  0  0  0  0  0  0  0  0  0  0  0
   48.7240   30.6930   38.0010 H   0  0  0  0  0  0  0  0  0  0  0  0
   48.6980   32.3250   36.5540 C   0  0  0  0  0  0  0  0  0  0  0  0
   48.8770   31.6300   35.7580 H   0  0  0  0  0  0  0  0  0  0  0  0
   48.5540   33.6780   36.3800 C   0  0  0  0  0  0  0  0  0  0  0  0
   48.3270   34.4430   37.5060 C   0  0  0  0  0  0  0  0  0  0  0  0
  1  2  1  0  0  0  0
  3  1  1  0  0  0  0
  4  1  1  0  0  0  0
  4  9  1  0  0  0  0
  5  4  1  0  0  0  0
  6  4  1  0  0  0  0
  7 13  1  0  0  0  0
  7 12  1  0  0  0  0
  8  7  2  0  0  0  0
  9  8  1  0  0  0  0
  9 10  2  0  0  0  0
 10 11  1  0  0  0  0
 11 12  2  0  0  0  0
 11 15  1  0  0  0  0
 13 16  1  0  0  0  0
 14  8  1  0  0  0  0
 17 13  1  0  0  0  0
 18  1  1  0  0  0  0
 20 19  2  1  0  0  0
 20 18  1  0  0  0  0
 21 22  1  0  0  0  0
 21 20  1  0  0  0  0
 23 20  1  0  0  0  0
 25 26  1  0  0  0  0
 25 24  1  0  0  0  0
 26 23  1  0  0  0  0
 27 28  1  0  0  0  0
 27 26  2  0  0  0  0
 29 27  1  0  0  0  0
 30 29  1  0  0  0  0
 31 29  2  0  0  0  0
 31 32  1  0  0  0  0
 32 25  2  0  0  0  0
M  END
>  <minimizedAffinity>
-4.83109808

>  <minimizedRMSD>
2.08810472

$$$$
