
 OpenBabel03252506213D

 35 37  0  0  0  0  0  0  0  0999 V2000
   44.8830   35.4670   42.4600 C   0  0  0  0  0  0  0  0  0  0  0  0
   43.7540   35.5250   41.6200 C   0  0  0  0  0  0  0  0  0  0  0  0
   43.7330   34.6900   40.4870 C   0  0  0  0  0  0  0  0  0  0  0  0
   44.7880   33.8830   40.2610 N   0  0  0  0  0  0  0  0  0  0  0  0
   45.8580   33.8600   41.0970 C   0  0  0  0  0  0  0  0  0  0  0  0
   45.9000   34.6490   42.1890 N   0  0  0  0  0  0  0  0  0  0  0  0
   42.9740   36.2000   41.8920 H   0  0  0  0  0  0  0  0  0  0  0  0
   42.8780   34.7310   39.8470 H   0  0  0  0  0  0  0  0  0  0  0  0
   48.4850   35.2030   40.4210 Cl  0  0  0  0  0  0  0  0  0  0  0  0
   48.1950   33.4980   40.4440 C   0  0  0  0  0  0  0  0  0  0  0  0
   46.9660   32.9370   40.7620 C   0  0  0  0  0  0  0  0  0  0  0  0
   46.7120   31.5960   40.7860 C   0  0  0  0  0  0  0  0  0  0  0  0
   47.7510   30.7590   40.4740 C   0  0  0  0  0  0  0  0  0  0  0  0
   49.0200   31.1950   40.1400 C   0  0  0  0  0  0  0  0  0  0  0  0
   49.1830   32.5800   40.1420 C   0  0  0  0  0  0  0  0  0  0  0  0
   45.7250   31.2330   41.0460 H   0  0  0  0  0  0  0  0  0  0  0  0
   47.5650   29.6900   40.4890 H   0  0  0  0  0  0  0  0  0  0  0  0
   49.8460   30.5460   39.8930 H   0  0  0  0  0  0  0  0  0  0  0  0
   50.1740   32.9560   39.8820 H   0  0  0  0  0  0  0  0  0  0  0  0
   44.9120   36.3350   43.6450 C   0  0  0  0  0  3  0  0  0  0  0  0
   45.2160   37.6080   43.4710 C   0  0  0  0  0  3  0  0  0  0  0  0
   45.2530   38.5120   44.6560 C   0  0  0  0  0  0  0  0  0  0  0  0
   44.4870   38.2360   45.4140 H   0  0  0  0  0  0  0  0  0  0  0  0
   46.2520   38.4060   45.1350 H   0  0  0  0  0  0  0  0  0  0  0  0
   45.0460   39.8690   44.1660 N   0  0  0  0  0  0  0  0  0  0  0  0
   45.0530   40.1050   43.1290 H   0  0  0  0  0  0  0  0  0  0  0  0
   44.8970   42.4890   43.2700 F   0  0  0  0  0  0  0  0  0  0  0  0
   44.7430   42.2840   44.6070 C   0  0  0  0  0  0  0  0  0  0  0  0
   44.8190   40.9780   45.0470 C   0  0  0  0  0  0  0  0  0  0  0  0
   44.6730   40.6740   46.4060 C   0  0  0  0  0  0  0  0  0  0  0  0
   44.7150   39.6860   46.8440 H   0  0  0  0  0  0  0  0  0  0  0  0
   44.4550   41.7770   47.2150 C   0  0  0  0  0  0  0  0  0  0  0  0
   44.3360   41.5660   48.2890 H   0  0  0  0  0  0  0  0  0  0  0  0
   44.3710   43.0980   46.8270 C   0  0  0  0  0  3  0  0  0  0  0  0
   44.5240   43.3220   45.4800 C   0  0  0  0  0  3  0  0  0  0  0  0
  1 20  1  0  0  0  0
  2  7  1  0  0  0  0
  2  1  2  0  0  0  0
  3  2  1  0  0  0  0
  4  3  2  0  0  0  0
  4  5  1  0  0  0  0
  5  6  2  0  0  0  0
  6  1  1  0  0  0  0
  8  3  1  0  0  0  0
  9 10  1  0  0  0  0
 10 11  1  0  0  0  0
 11 12  2  0  0  0  0
 11  5  1  0  0  0  0
 12 16  1  0  0  0  0
 13 17  1  0  0  0  0
 13 12  1  0  0  0  0
 14 15  1  0  0  0  0
 14 13  2  0  0  0  0
 15 10  2  0  0  0  0
 18 14  1  0  0  0  0
 19 15  1  0  0  0  0
 21 20  2  0  0  0  0
 21 22  1  0  0  0  0
 22 24  1  0  0  0  0
 22 23  1  0  0  0  0
 25 22  1  0  0  0  0
 25 29  1  0  0  0  0
 26 25  1  0  0  0  0
 27 28  1  0  0  0  0
 28 29  2  0  0  0  0
 28 35  1  0  0  0  0
 29 30  1  0  0  0  0
 30 31  1  0  0  0  0
 30 32  2  0  0  0  0
 32 33  1  0  0  0  0
 34 32  1  0  0  0  0
 35 34  2  0  0  0  0
M  END
>  <minimizedAffinity>
-2.92323589

>  <minimizedRMSD>
1.36030686

$$$$
