
 OpenBabel03252505283D

 24 25  0  0  0  0  0  0  0  0999 V2000
   35.3850   28.9630   40.9850 O   0  0  0  0  0  0  0  0  0  0  0  0
   36.7770   28.7470   41.5760 P   0  0  1  0  0  0  0  0  0  0  0  0
   36.9380   29.4490   43.0930 O   0  0  0  0  0  0  0  0  0  0  0  0
   36.2350   29.1040   43.7220 H   0  0  0  0  0  0  0  0  0  0  0  0
   37.0360   27.0970   41.6380 O   0  0  0  0  0  0  0  0  0  0  0  0
   39.9060   26.6190   43.6780 C   0  0  0  0  0  0  0  0  0  0  0  0
   40.2470   25.2650   43.5080 C   0  0  0  0  0  0  0  0  0  0  0  0
   39.4290   24.5280   42.6510 C   0  0  0  0  0  0  0  0  0  0  0  0
   38.3830   25.1230   42.0410 N   0  0  0  0  0  0  0  0  0  0  0  0
   38.0930   26.4340   42.2350 C   0  0  0  0  0  0  0  0  0  0  0  0
   38.8490   27.1850   43.0500 N   0  0  0  0  0  0  0  0  0  0  0  0
   40.5180   27.2410   44.3420 H   0  0  0  0  0  0  0  0  0  0  0  0
   41.0910   24.8240   44.0130 H   0  0  0  0  0  0  0  0  0  0  0  0
   39.6400   23.4690   42.4760 H   0  0  0  0  0  0  0  0  0  0  0  0
   37.8570   29.5210   40.5100 O   0  0  0  0  0  0  0  0  0  0  0  0
   39.5340   31.1020   42.1100 F   0  0  0  0  0  0  0  0  0  0  0  0
   38.8080   31.7300   41.1730 C   0  0  0  0  0  0  0  0  0  0  0  0
   38.0050   30.8830   40.4230 C   0  0  0  0  0  0  0  0  0  0  0  0
   37.2120   31.4520   39.4200 C   0  0  0  0  0  0  0  0  0  0  0  0
   36.5400   30.8760   38.7670 H   0  0  0  0  0  0  0  0  0  0  0  0
   37.2160   32.8210   39.1710 C   0  0  0  0  0  0  0  0  0  0  0  0
   36.5900   33.2460   38.3840 H   0  0  0  0  0  0  0  0  0  0  0  0
   38.0220   33.6500   39.9270 C   0  0  0  0  0  3  0  0  0  0  0  0
   38.8030   33.0910   40.9140 C   0  0  0  0  0  3  0  0  0  0  0  0
  2  1  2  6  0  0  0
  2  5  1  0  0  0  0
  2  3  1  0  0  0  0
  3  4  1  0  0  0  0
  5 10  1  0  0  0  0
  6 12  1  0  0  0  0
  7  6  1  0  0  0  0
  7 13  1  0  0  0  0
  8  7  2  0  0  0  0
  9 10  2  0  0  0  0
  9  8  1  0  0  0  0
 10 11  1  0  0  0  0
 11  6  2  0  0  0  0
 14  8  1  0  0  0  0
 15  2  1  0  0  0  0
 17 16  1  0  0  0  0
 18 15  1  0  0  0  0
 18 17  2  0  0  0  0
 19 18  1  0  0  0  0
 20 19  1  0  0  0  0
 21 19  2  0  0  0  0
 21 23  1  0  0  0  0
 22 21  1  0  0  0  0
 23 24  2  0  0  0  0
 24 17  1  0  0  0  0
M  END
>  <minimizedAffinity>
-5.05339146

$$$$

 OpenBabel03252505283D

 24 25  0  0  0  0  0  0  0  0999 V2000
   37.6270   29.7130   42.6240 O   0  0  0  0  0  0  0  0  0  0  0  0
   36.8850   29.9200   41.3050 P   0  0  1  0  0  0  0  0  0  0  0  0
   35.6090   31.0020   41.4580 O   0  0  0  0  0  0  0  0  0  0  0  0
   35.9300   31.8820   41.8190 H   0  0  0  0  0  0  0  0  0  0  0  0
   38.0070   30.4550   40.1870 O   0  0  0  0  0  0  0  0  0  0  0  0
   40.4940   32.9370   39.6510 C   0  0  0  0  0  0  0  0  0  0  0  0
   39.8340   34.1600   39.8690 C   0  0  0  0  0  0  0  0  0  0  0  0
   38.4840   34.0780   40.2110 C   0  0  0  0  0  0  0  0  0  0  0  0
   37.8880   32.8720   40.3150 N   0  0  0  0  0  0  0  0  0  0  0  0
   38.5650   31.7170   40.0950 C   0  0  0  0  0  0  0  0  0  0  0  0
   39.8650   31.7430   39.7640 N   0  0  0  0  0  0  0  0  0  0  0  0
   41.5560   32.9470   39.3800 H   0  0  0  0  0  0  0  0  0  0  0  0
   40.3440   35.1040   39.7770 H   0  0  0  0  0  0  0  0  0  0  0  0
   37.9130   34.9930   40.3940 H   0  0  0  0  0  0  0  0  0  0  0  0
   36.2480   28.3960   40.8880 O   0  0  0  0  0  0  0  0  0  0  0  0
   36.2950   26.9270   43.2780 F   0  0  0  0  0  0  0  0  0  0  0  0
   36.9770   26.4270   42.2360 C   0  0  0  0  0  0  0  0  0  0  0  0
   36.9060   27.2090   41.0910 C   0  0  0  0  0  0  0  0  0  0  0  0
   37.5880   26.7630   39.9540 C   0  0  0  0  0  0  0  0  0  0  0  0
   37.6000   27.3030   38.9940 H   0  0  0  0  0  0  0  0  0  0  0  0
   38.3180   25.5790   39.9530 C   0  0  0  0  0  0  0  0  0  0  0  0
   38.8430   25.2490   39.0540 H   0  0  0  0  0  0  0  0  0  0  0  0
   38.3770   24.8140   41.1000 C   0  0  0  0  0  3  0  0  0  0  0  0
   37.7070   25.2500   42.2210 C   0  0  0  0  0  3  0  0  0  0  0  0
  2  3  1  0  0  0  0
  2  1  2  1  0  0  0
  3  4  1  0  0  0  0
  5  2  1  0  0  0  0
  6 11  2  0  0  0  0
  6  7  1  0  0  0  0
  7  8  2  0  0  0  0
  8  9  1  0  0  0  0
  8 14  1  0  0  0  0
 10  5  1  0  0  0  0
 10  9  2  0  0  0  0
 11 10  1  0  0  0  0
 12  6  1  0  0  0  0
 13  7  1  0  0  0  0
 15 18  1  0  0  0  0
 15  2  1  0  0  0  0
 17 16  1  0  0  0  0
 18 17  2  0  0  0  0
 19 18  1  0  0  0  0
 20 19  1  0  0  0  0
 21 19  2  0  0  0  0
 21 23  1  0  0  0  0
 22 21  1  0  0  0  0
 23 24  2  0  0  0  0
 24 17  1  0  0  0  0
M  END
>  <minimizedAffinity>
-5.04453468

$$$$

 OpenBabel03252505283D

 24 25  0  0  0  0  0  0  0  0999 V2000
   37.8900   30.4350   40.1710 O   0  0  0  0  0  0  0  0  0  0  0  0
   36.8600   29.9010   41.1640 P   0  0  1  0  0  0  0  0  0  0  0  0
   35.5730   30.9590   41.3760 O   0  0  0  0  0  0  0  0  0  0  0  0
   35.1350   31.1670   40.4970 H   0  0  0  0  0  0  0  0  0  0  0  0
   36.3420   28.4190   40.5880 O   0  0  0  0  0  0  0  0  0  0  0  0
   35.2140   26.7590   37.6550 C   0  0  0  0  0  0  0  0  0  0  0  0
   34.1500   27.5480   37.1810 C   0  0  0  0  0  0  0  0  0  0  0  0
   33.8460   28.6830   37.9320 C   0  0  0  0  0  0  0  0  0  0  0  0
   34.5590   28.9690   39.0410 N   0  0  0  0  0  0  0  0  0  0  0  0
   35.5780   28.1770   39.4600 C   0  0  0  0  0  0  0  0  0  0  0  0
   35.9090   27.0740   38.7730 N   0  0  0  0  0  0  0  0  0  0  0  0
   35.4930   25.8550   37.1000 H   0  0  0  0  0  0  0  0  0  0  0  0
   33.6040   27.2880   36.2900 H   0  0  0  0  0  0  0  0  0  0  0  0
   33.0290   29.3400   37.6170 H   0  0  0  0  0  0  0  0  0  0  0  0
   37.6820   29.7530   42.6490 O   0  0  0  0  0  0  0  0  0  0  0  0
   37.0130   27.2290   43.6760 F   0  0  0  0  0  0  0  0  0  0  0  0
   38.3130   27.4750   43.4460 C   0  0  0  0  0  0  0  0  0  0  0  0
   38.5630   28.7420   42.9400 C   0  0  0  0  0  0  0  0  0  0  0  0
   39.8920   29.0860   42.6690 C   0  0  0  0  0  0  0  0  0  0  0  0
   40.2050   30.0610   42.2670 H   0  0  0  0  0  0  0  0  0  0  0  0
   40.9400   28.1990   42.8960 C   0  0  0  0  0  0  0  0  0  0  0  0
   41.9700   28.4860   42.6780 H   0  0  0  0  0  0  0  0  0  0  0  0
   40.6720   26.9410   43.4000 C   0  0  0  0  0  3  0  0  0  0  0  0
   39.3650   26.6010   43.6670 C   0  0  0  0  0  3  0  0  0  0  0  0
  2  1  2  6  0  0  0
  2  3  1  0  0  0  0
  2 15  1  0  0  0  0
  4  3  1  0  0  0  0
  5  2  1  0  0  0  0
  6 11  1  0  0  0  0
  7  6  2  0  0  0  0
  7  8  1  0  0  0  0
  8  9  2  0  0  0  0
  9 10  1  0  0  0  0
 10  5  1  0  0  0  0
 11 10  2  0  0  0  0
 12  6  1  0  0  0  0
 13  7  1  0  0  0  0
 14  8  1  0  0  0  0
 15 18  1  0  0  0  0
 17 24  1  0  0  0  0
 17 16  1  0  0  0  0
 18 17  2  0  0  0  0
 19 21  2  0  0  0  0
 19 18  1  0  0  0  0
 20 19  1  0  0  0  0
 21 23  1  0  0  0  0
 22 21  1  0  0  0  0
 23 24  2  0  0  0  0
M  END
>  <minimizedAffinity>
-5.00330544

$$$$

 OpenBabel03252505283D

 24 25  0  0  0  0  0  0  0  0999 V2000
   36.8600   29.5410   39.7850 O   0  0  0  0  0  0  0  0  0  0  0  0
   36.9160   30.7890   40.6660 P   0  0  1  0  0  0  0  0  0  0  0  0
   35.4520   31.0940   41.4300 O   0  0  0  0  0  0  0  0  0  0  0  0
   35.1600   30.2990   41.9690 H   0  0  0  0  0  0  0  0  0  0  0  0
   38.1450   30.5540   41.7750 O   0  0  0  0  0  0  0  0  0  0  0  0
   40.2040   27.9090   42.9590 C   0  0  0  0  0  0  0  0  0  0  0  0
   39.3270   27.0520   43.6480 C   0  0  0  0  0  0  0  0  0  0  0  0
   37.9870   27.4390   43.6800 C   0  0  0  0  0  0  0  0  0  0  0  0
   37.6010   28.5790   43.0700 N   0  0  0  0  0  0  0  0  0  0  0  0
   38.4830   29.3760   42.4170 C   0  0  0  0  0  0  0  0  0  0  0  0
   39.7820   29.0470   42.3580 N   0  0  0  0  0  0  0  0  0  0  0  0
   41.2670   27.6490   42.9050 H   0  0  0  0  0  0  0  0  0  0  0  0
   39.6730   26.1480   44.1220 H   0  0  0  0  0  0  0  0  0  0  0  0
   37.2530   26.8150   44.1990 H   0  0  0  0  0  0  0  0  0  0  0  0
   37.2520   32.0850   39.6120 O   0  0  0  0  0  0  0  0  0  0  0  0
   38.6260   34.0660   41.0470 F   0  0  0  0  0  0  0  0  0  0  0  0
   39.2580   33.5160   39.9990 C   0  0  0  0  0  0  0  0  0  0  0  0
   38.5160   32.5450   39.3410 C   0  0  0  0  0  0  0  0  0  0  0  0
   39.0980   31.9160   38.2350 C   0  0  0  0  0  0  0  0  0  0  0  0
   38.6010   31.1350   37.6410 H   0  0  0  0  0  0  0  0  0  0  0  0
   40.3770   32.2410   37.7960 C   0  0  0  0  0  0  0  0  0  0  0  0
   40.8140   31.7390   36.9310 H   0  0  0  0  0  0  0  0  0  0  0  0
   41.1020   33.2090   38.4630 C   0  0  0  0  0  3  0  0  0  0  0  0
   40.5310   33.8290   39.5510 C   0  0  0  0  0  3  0  0  0  0  0  0
  2  1  2  6  0  0  0
  2  3  1  0  0  0  0
  2  5  1  0  0  0  0
  3  4  1  0  0  0  0
  5 10  1  0  0  0  0
  6  7  1  0  0  0  0
  7  8  2  0  0  0  0
  7 13  1  0  0  0  0
  8 14  1  0  0  0  0
  9  8  1  0  0  0  0
 10  9  2  0  0  0  0
 11 10  1  0  0  0  0
 11  6  2  0  0  0  0
 12  6  1  0  0  0  0
 15  2  1  0  0  0  0
 17 16  1  0  0  0  0
 18 15  1  0  0  0  0
 18 17  2  0  0  0  0
 19 18  1  0  0  0  0
 20 19  1  0  0  0  0
 21 19  2  0  0  0  0
 21 23  1  0  0  0  0
 22 21  1  0  0  0  0
 23 24  2  0  0  0  0
 24 17  1  0  0  0  0
M  END
>  <minimizedAffinity>
-4.95885038

$$$$

 OpenBabel03252505283D

 24 25  0  0  0  0  0  0  0  0999 V2000
   38.2650   31.0870   41.3420 O   0  0  0  0  0  0  0  0  0  0  0  0
   37.0350   30.1810   41.2850 P   0  0  1  0  0  0  0  0  0  0  0  0
   35.6020   31.0480   41.4030 O   0  0  0  0  0  0  0  0  0  0  0  0
   35.5510   31.7500   40.6860 H   0  0  0  0  0  0  0  0  0  0  0  0
   37.1170   29.3290   39.8490 O   0  0  0  0  0  0  0  0  0  0  0  0
   35.6100   29.0870   36.6400 C   0  0  0  0  0  0  0  0  0  0  0  0
   34.2430   28.8820   36.8990 C   0  0  0  0  0  0  0  0  0  0  0  0
   33.8730   28.8320   38.2430 C   0  0  0  0  0  0  0  0  0  0  0  0
   34.8080   28.9780   39.2050 N   0  0  0  0  0  0  0  0  0  0  0  0
   36.1170   29.1740   38.9070 C   0  0  0  0  0  0  0  0  0  0  0  0
   36.5230   29.2290   37.6300 N   0  0  0  0  0  0  0  0  0  0  0  0
   35.9520   29.1340   35.5990 H   0  0  0  0  0  0  0  0  0  0  0  0
   33.5250   28.7700   36.1030 H   0  0  0  0  0  0  0  0  0  0  0  0
   32.8240   28.6750   38.5120 H   0  0  0  0  0  0  0  0  0  0  0  0
   37.1540   29.1550   42.6410 O   0  0  0  0  0  0  0  0  0  0  0  0
   39.8720   28.6920   43.1600 F   0  0  0  0  0  0  0  0  0  0  0  0
   39.1110   27.6260   42.8700 C   0  0  0  0  0  0  0  0  0  0  0  0
   37.7800   27.9350   42.6260 C   0  0  0  0  0  0  0  0  0  0  0  0
   36.9130   26.8820   42.3150 C   0  0  0  0  0  0  0  0  0  0  0  0
   35.8400   27.0120   42.1040 H   0  0  0  0  0  0  0  0  0  0  0  0
   37.3530   25.5640   42.2470 C   0  0  0  0  0  0  0  0  0  0  0  0
   36.6590   24.7570   42.0030 H   0  0  0  0  0  0  0  0  0  0  0  0
   38.6800   25.2750   42.4940 C   0  0  0  0  0  3  0  0  0  0  0  0
   39.5360   26.3090   42.8000 C   0  0  0  0  0  3  0  0  0  0  0  0
  2  1  2  1  0  0  0
  2  3  1  0  0  0  0
  2 15  1  0  0  0  0
  4  3  1  0  0  0  0
  5  2  1  0  0  0  0
  6  7  2  0  0  0  0
  6 11  1  0  0  0  0
  7  8  1  0  0  0  0
  8 14  1  0  0  0  0
  8  9  2  0  0  0  0
 10  9  1  0  0  0  0
 10  5  1  0  0  0  0
 11 10  2  0  0  0  0
 12  6  1  0  0  0  0
 13  7  1  0  0  0  0
 17 16  1  0  0  0  0
 18 15  1  0  0  0  0
 18 17  2  0  0  0  0
 19 18  1  0  0  0  0
 20 19  1  0  0  0  0
 21 19  2  0  0  0  0
 21 23  1  0  0  0  0
 22 21  1  0  0  0  0
 23 24  2  0  0  0  0
 24 17  1  0  0  0  0
M  END
>  <minimizedAffinity>
-4.9362483

$$$$

 OpenBabel03252505283D

 24 25  0  0  0  0  0  0  0  0999 V2000
   34.6890   29.2040   39.7090 O   0  0  0  0  0  0  0  0  0  0  0  0
   36.0490   29.3840   40.3810 P   0  0  1  0  0  0  0  0  0  0  0  0
   37.3120   28.8490   39.4130 O   0  0  0  0  0  0  0  0  0  0  0  0
   37.2990   29.3130   38.5220 H   0  0  0  0  0  0  0  0  0  0  0  0
   36.2070   31.0080   40.7470 O   0  0  0  0  0  0  0  0  0  0  0  0
   39.6360   31.9010   41.0330 C   0  0  0  0  0  0  0  0  0  0  0  0
   39.7130   33.2020   40.5060 C   0  0  0  0  0  0  0  0  0  0  0  0
   38.5160   33.7520   40.0470 C   0  0  0  0  0  0  0  0  0  0  0  0
   37.3740   33.0390   40.1250 N   0  0  0  0  0  0  0  0  0  0  0  0
   37.3470   31.7850   40.6420 C   0  0  0  0  0  0  0  0  0  0  0  0
   38.4710   31.2120   41.0970 N   0  0  0  0  0  0  0  0  0  0  0  0
   40.5490   31.4240   41.4070 H   0  0  0  0  0  0  0  0  0  0  0  0
   40.6450   33.7420   40.4610 H   0  0  0  0  0  0  0  0  0  0  0  0
   38.5080   34.7620   39.6250 H   0  0  0  0  0  0  0  0  0  0  0  0
   36.0030   28.4180   41.7840 O   0  0  0  0  0  0  0  0  0  0  0  0
   37.9080   29.3870   43.6030 F   0  0  0  0  0  0  0  0  0  0  0  0
   38.0600   28.1280   43.1650 C   0  0  0  0  0  0  0  0  0  0  0  0
   37.0810   27.7210   42.2700 C   0  0  0  0  0  0  0  0  0  0  0  0
   37.1610   26.4200   41.7620 C   0  0  0  0  0  0  0  0  0  0  0  0
   36.4400   25.9940   41.0480 H   0  0  0  0  0  0  0  0  0  0  0  0
   38.1820   25.5500   42.1310 C   0  0  0  0  0  0  0  0  0  0  0  0
   38.2270   24.5380   41.7230 H   0  0  0  0  0  0  0  0  0  0  0  0
   39.1480   25.9710   43.0230 C   0  0  0  0  0  3  0  0  0  0  0  0
   39.0710   27.2510   43.5240 C   0  0  0  0  0  3  0  0  0  0  0  0
  2  1  2  6  0  0  0
  2  5  1  0  0  0  0
  2 15  1  0  0  0  0
  3  2  1  0  0  0  0
  4  3  1  0  0  0  0
  6 11  1  0  0  0  0
  6 12  1  0  0  0  0
  7  6  2  0  0  0  0
  8  9  2  0  0  0  0
  8  7  1  0  0  0  0
  9 10  1  0  0  0  0
 10  5  1  0  0  0  0
 10 11  2  0  0  0  0
 13  7  1  0  0  0  0
 14  8  1  0  0  0  0
 15 18  1  0  0  0  0
 17 24  1  0  0  0  0
 17 16  1  0  0  0  0
 18 17  2  0  0  0  0
 19 21  2  0  0  0  0
 19 18  1  0  0  0  0
 20 19  1  0  0  0  0
 21 23  1  0  0  0  0
 22 21  1  0  0  0  0
 23 24  2  0  0  0  0
M  END
>  <minimizedAffinity>
-4.87543678

$$$$

 OpenBabel03252505283D

 24 25  0  0  0  0  0  0  0  0999 V2000
   38.9590   31.6790   41.3960 O   0  0  0  0  0  0  0  0  0  0  0  0
   37.6760   31.4570   40.5950 P   0  0  1  0  0  0  0  0  0  0  0  0
   36.8550   32.8910   40.3000 O   0  0  0  0  0  0  0  0  0  0  0  0
   37.4490   33.5510   39.8300 H   0  0  0  0  0  0  0  0  0  0  0  0
   38.1110   30.6980   39.1700 O   0  0  0  0  0  0  0  0  0  0  0  0
   40.7580   32.2610   37.3870 C   0  0  0  0  0  0  0  0  0  0  0  0
   41.6650   31.2230   37.1070 C   0  0  0  0  0  0  0  0  0  0  0  0
   41.3100   29.9550   37.5680 C   0  0  0  0  0  0  0  0  0  0  0  0
   40.1530   29.7820   38.2400 N   0  0  0  0  0  0  0  0  0  0  0  0
   39.3080   30.8150   38.4880 C   0  0  0  0  0  0  0  0  0  0  0  0
   39.6040   32.0530   38.0650 N   0  0  0  0  0  0  0  0  0  0  0  0
   40.9910   33.2760   37.0460 H   0  0  0  0  0  0  0  0  0  0  0  0
   42.5800   31.3990   36.5660 H   0  0  0  0  0  0  0  0  0  0  0  0
   41.9720   29.1040   37.3830 H   0  0  0  0  0  0  0  0  0  0  0  0
   36.6900   30.4650   41.5690 O   0  0  0  0  0  0  0  0  0  0  0  0
   36.0930   28.2870   39.9040 F   0  0  0  0  0  0  0  0  0  0  0  0
   36.6960   28.0200   41.0730 C   0  0  0  0  0  0  0  0  0  0  0  0
   36.9590   29.1470   41.8390 C   0  0  0  0  0  0  0  0  0  0  0  0
   37.5870   28.9630   43.0760 C   0  0  0  0  0  0  0  0  0  0  0  0
   37.8420   29.7830   43.7630 H   0  0  0  0  0  0  0  0  0  0  0  0
   37.9430   27.6990   43.5360 C   0  0  0  0  0  0  0  0  0  0  0  0
   38.4330   27.5770   44.5040 H   0  0  0  0  0  0  0  0  0  0  0  0
   37.6750   26.5890   42.7600 C   0  0  0  0  0  3  0  0  0  0  0  0
   37.0560   26.7680   41.5430 C   0  0  0  0  0  3  0  0  0  0  0  0
  2  1  2  1  0  0  0
  2 15  1  0  0  0  0
  3  2  1  0  0  0  0
  4  3  1  0  0  0  0
  5  2  1  0  0  0  0
  6 11  1  0  0  0  0
  7  6  2  0  0  0  0
  7  8  1  0  0  0  0
  8  9  2  0  0  0  0
  9 10  1  0  0  0  0
 10  5  1  0  0  0  0
 11 10  2  0  0  0  0
 12  6  1  0  0  0  0
 13  7  1  0  0  0  0
 14  8  1  0  0  0  0
 15 18  1  0  0  0  0
 16 17  1  0  0  0  0
 17 24  2  0  0  0  0
 17 18  1  0  0  0  0
 18 19  2  0  0  0  0
 19 21  1  0  0  0  0
 19 20  1  0  0  0  0
 21 22  1  0  0  0  0
 23 21  2  0  0  0  0
 24 23  1  0  0  0  0
M  END
>  <minimizedAffinity>
-4.84885597

$$$$

 OpenBabel03252505283D

 24 25  0  0  0  0  0  0  0  0999 V2000
   34.7700   29.3650   38.9770 O   0  0  0  0  0  0  0  0  0  0  0  0
   35.8910   29.5260   40.0020 P   0  0  1  0  0  0  0  0  0  0  0  0
   35.4200   30.4540   41.3200 O   0  0  0  0  0  0  0  0  0  0  0  0
   34.6030   30.0650   41.7550 H   0  0  0  0  0  0  0  0  0  0  0  0
   36.3520   27.9890   40.4730 O   0  0  0  0  0  0  0  0  0  0  0  0
   38.1090   28.3020   43.5460 C   0  0  0  0  0  0  0  0  0  0  0  0
   38.8660   27.1210   43.6490 C   0  0  0  0  0  0  0  0  0  0  0  0
   38.7340   26.2120   42.5990 C   0  0  0  0  0  0  0  0  0  0  0  0
   37.9160   26.4940   41.5640 N   0  0  0  0  0  0  0  0  0  0  0  0
   37.2050   27.6480   41.5070 C   0  0  0  0  0  0  0  0  0  0  0  0
   37.2970   28.5530   42.4920 N   0  0  0  0  0  0  0  0  0  0  0  0
   38.1780   29.0490   44.3460 H   0  0  0  0  0  0  0  0  0  0  0  0
   39.5090   26.9310   44.4930 H   0  0  0  0  0  0  0  0  0  0  0  0
   39.2950   25.2730   42.6190 H   0  0  0  0  0  0  0  0  0  0  0  0
   37.1460   30.3450   39.1910 O   0  0  0  0  0  0  0  0  0  0  0  0
   39.4420   30.3400   40.8030 F   0  0  0  0  0  0  0  0  0  0  0  0
   38.9160   31.5330   40.4860 C   0  0  0  0  0  0  0  0  0  0  0  0
   37.7840   31.4540   39.6880 C   0  0  0  0  0  0  0  0  0  0  0  0
   37.1680   32.6510   39.3070 C   0  0  0  0  0  0  0  0  0  0  0  0
   36.2670   32.7050   38.6770 H   0  0  0  0  0  0  0  0  0  0  0  0
   37.6600   33.8890   39.7080 C   0  0  0  0  0  0  0  0  0  0  0  0
   37.1650   34.8120   39.4010 H   0  0  0  0  0  0  0  0  0  0  0  0
   38.7880   33.9500   40.5030 C   0  0  0  0  0  3  0  0  0  0  0  0
   39.3960   32.7720   40.8780 C   0  0  0  0  0  3  0  0  0  0  0  0
  2  1  2  6  0  0  0
  2  5  1  0  0  0  0
  2  3  1  0  0  0  0
  3  4  1  0  0  0  0
  5 10  1  0  0  0  0
  6  7  1  0  0  0  0
  6 12  1  0  0  0  0
  7 13  1  0  0  0  0
  8 14  1  0  0  0  0
  8  7  2  0  0  0  0
  9  8  1  0  0  0  0
 10  9  2  0  0  0  0
 10 11  1  0  0  0  0
 11  6  2  0  0  0  0
 15 18  1  0  0  0  0
 15  2  1  0  0  0  0
 17 16  1  0  0  0  0
 17 24  1  0  0  0  0
 18 17  2  0  0  0  0
 19 18  1  0  0  0  0
 19 21  2  0  0  0  0
 20 19  1  0  0  0  0
 21 23  1  0  0  0  0
 22 21  1  0  0  0  0
 23 24  2  0  0  0  0
M  END
>  <minimizedAffinity>
-4.84246588

$$$$

 OpenBabel03252505283D

 24 25  0  0  0  0  0  0  0  0999 V2000
   36.6130   31.4900   38.9330 O   0  0  0  0  0  0  0  0  0  0  0  0
   36.9890   31.1510   40.3740 P   0  0  1  0  0  0  0  0  0  0  0  0
   35.6500   31.1030   41.3870 O   0  0  0  0  0  0  0  0  0  0  0  0
   34.9670   30.4530   41.0430 H   0  0  0  0  0  0  0  0  0  0  0  0
   37.7820   29.6790   40.3430 O   0  0  0  0  0  0  0  0  0  0  0  0
   37.4790   28.1410   43.5330 C   0  0  0  0  0  0  0  0  0  0  0  0
   38.6300   27.3430   43.6590 C   0  0  0  0  0  0  0  0  0  0  0  0
   39.5150   27.3670   42.5800 C   0  0  0  0  0  0  0  0  0  0  0  0
   39.2410   28.1270   41.5000 N   0  0  0  0  0  0  0  0  0  0  0  0
   38.1160   28.8820   41.4240 C   0  0  0  0  0  0  0  0  0  0  0  0
   37.2330   28.8930   42.4340 N   0  0  0  0  0  0  0  0  0  0  0  0
   36.7520   28.1570   44.3530 H   0  0  0  0  0  0  0  0  0  0  0  0
   38.8160   26.7490   44.5380 H   0  0  0  0  0  0  0  0  0  0  0  0
   40.4300   26.7680   42.6150 H   0  0  0  0  0  0  0  0  0  0  0  0
   38.0100   32.4120   40.8950 O   0  0  0  0  0  0  0  0  0  0  0  0
   39.9160   31.2750   42.6110 F   0  0  0  0  0  0  0  0  0  0  0  0
   40.3700   31.8870   41.5070 C   0  0  0  0  0  0  0  0  0  0  0  0
   39.3690   32.4240   40.7090 C   0  0  0  0  0  0  0  0  0  0  0  0
   39.7520   33.0810   39.5350 C   0  0  0  0  0  0  0  0  0  0  0  0
   39.0440   33.5430   38.8310 H   0  0  0  0  0  0  0  0  0  0  0  0
   41.0880   33.2030   39.1650 C   0  0  0  0  0  0  0  0  0  0  0  0
   41.3660   33.7200   38.2450 H   0  0  0  0  0  0  0  0  0  0  0  0
   42.0710   32.6620   39.9700 C   0  0  0  0  0  3  0  0  0  0  0  0
   41.6960   32.0150   41.1260 C   0  0  0  0  0  3  0  0  0  0  0  0
  2  1  2  6  0  0  0
  2 15  1  0  0  0  0
  2  3  1  0  0  0  0
  4  3  1  0  0  0  0
  5  2  1  0  0  0  0
  5 10  1  0  0  0  0
  6  7  1  0  0  0  0
  6 12  1  0  0  0  0
  7 13  1  0  0  0  0
  8 14  1  0  0  0  0
  8  7  2  0  0  0  0
  9  8  1  0  0  0  0
 10  9  2  0  0  0  0
 10 11  1  0  0  0  0
 11  6  2  0  0  0  0
 17 16  1  0  0  0  0
 18 15  1  0  0  0  0
 18 17  2  0  0  0  0
 19 18  1  0  0  0  0
 20 19  1  0  0  0  0
 21 19  2  0  0  0  0
 21 23  1  0  0  0  0
 22 21  1  0  0  0  0
 23 24  2  0  0  0  0
 24 17  1  0  0  0  0
M  END
>  <minimizedAffinity>
-4.7602005

$$$$
