
 OpenBabel03242517553D

 43 45  0  0  0  0  0  0  0  0999 V2000
   45.4480   30.1620   47.2600 C   0  0  0  0  0  0  0  0  0  0  0  0
   46.0300   31.2280   46.6600 C   0  0  0  0  0  0  0  0  0  0  0  0
   46.2570   32.3580   47.4190 C   0  0  0  0  0  0  0  0  0  0  0  0
   45.9200   32.4440   48.7490 C   0  0  0  0  0  0  0  0  0  0  0  0
   45.3290   31.3530   49.3470 C   0  0  0  0  0  0  0  0  0  0  0  0
   45.0970   30.2130   48.5910 C   0  0  0  0  0  0  0  0  0  0  0  0
   46.7170   33.2530   47.0200 H   0  0  0  0  0  0  0  0  0  0  0  0
   46.0900   33.3150   49.3490 H   0  0  0  0  0  0  0  0  0  0  0  0
   45.0380   31.3560   50.3940 H   0  0  0  0  0  0  0  0  0  0  0  0
   44.6340   29.3260   49.0140 H   0  0  0  0  0  0  0  0  0  0  0  0
   45.0840   28.8050   46.2170 S   0  0  0  0  0  0  0  0  0  0  0  0
   43.9770   29.0480   45.2730 O   0  0  0  0  0  0  0  0  0  0  0  0
   44.5650   27.6960   47.1630 O   0  0  0  0  0  0  0  0  0  0  0  0
   47.3670   27.9670   47.7790 F   0  0  0  0  0  0  0  0  0  0  0  0
   47.5080   27.7360   46.4530 C   0  0  0  0  0  0  0  0  0  0  0  0
   46.5180   28.0710   45.5520 C   0  0  0  0  0  0  0  0  0  0  0  0
   46.6560   27.8380   44.1900 C   0  0  0  0  0  0  0  0  0  0  0  0
   45.8380   28.1270   43.5410 H   0  0  0  0  0  0  0  0  0  0  0  0
   47.8500   27.2440   43.7660 C   0  0  0  0  0  0  0  0  0  0  0  0
   47.9160   27.0780   42.6850 H   0  0  0  0  0  0  0  0  0  0  0  0
   48.8350   26.9110   44.6720 C   0  0  0  0  0  0  0  0  0  0  0  0
   48.6850   27.1490   46.0210 C   0  0  0  0  0  0  0  0  0  0  0  0
   46.4480   31.3370   45.3390 O   0  0  0  0  0  0  0  0  0  0  0  0
   45.2930   34.2750   43.7610 C   0  0  0  0  0  0  0  0  0  0  0  0
   46.4640   34.7700   43.1480 C   0  0  0  0  0  0  0  0  0  0  0  0
   47.6390   34.0800   43.2890 C   0  0  0  0  0  0  0  0  0  0  0  0
   47.5800   32.9570   44.0200 N   0  0  0  0  0  0  0  0  0  0  0  0
   46.4860   32.4920   44.5940 C   0  0  0  0  0  0  0  0  0  0  0  0
   45.3400   33.1510   44.4650 N   0  0  0  0  0  0  0  0  0  0  0  0
   44.3560   34.8130   43.6580 H   0  0  0  0  0  0  0  0  0  0  0  0
   46.3350   35.6830   42.5960 H   0  0  0  0  0  0  0  0  0  0  0  0
   48.9070   34.4980   42.6800 C   0  0  0  0  0  0  0  0  0  0  0  0
   49.5770   34.7980   43.5120 H   0  0  0  0  0  0  0  0  0  0  0  0
   49.3160   33.6210   42.1200 H   0  0  0  0  0  0  0  0  0  0  0  0
   48.7510   35.6590   41.7440 C   0  0  0  0  0  0  0  0  0  0  0  0
   48.0310   36.3920   42.0610 H   0  0  0  0  0  0  0  0  0  0  0  0
   49.7520   36.1980   41.7970 H   0  0  0  0  0  0  0  0  0  0  0  0
   48.6120   35.2650   40.3420 C   0  0  0  0  0  0  0  0  0  0  0  0
   48.0400   34.3540   39.5670 C   0  0  0  0  0  0  0  0  0  0  0  0
   48.2300   34.1880   38.0720 C   0  0  0  0  0  0  0  0  0  0  0  0
   49.1150   34.8080   37.7460 H   0  0  0  0  0  0  0  0  0  0  0  0
   48.5450   33.1370   37.9210 H   0  0  0  0  0  0  0  0  0  0  0  0
   47.3170   34.3900   37.5140 H   0  0  0  0  0  0  0  0  0  0  0  0
  1  6  1  0  0  0  0
  2  1  2  0  0  0  0
  2  3  1  0  0  0  0
  3  4  2  0  0  0  0
  4  5  1  0  0  0  0
  4  8  1  0  0  0  0
  5  9  1  0  0  0  0
  6 10  1  0  0  0  0
  6  5  2  0  0  0  0
  7  3  1  0  0  0  0
 11 13  2  0  0  0  0
 11  1  1  0  0  0  0
 12 11  2  0  0  0  0
 15 14  1  0  0  0  0
 16 11  1  0  0  0  0
 16 15  2  0  0  0  0
 17 16  1  0  0  0  0
 18 17  1  0  0  0  0
 19 17  2  0  0  0  0
 19 21  1  0  0  0  0
 20 19  1  0  0  0  0
 21 22  2  0  0  0  0
 22 15  1  0  0  0  0
 23  2  1  0  0  0  0
 24 29  1  0  0  0  0
 25 26  1  0  0  0  0
 25 24  2  0  0  0  0
 26 27  2  0  0  0  0
 27 28  1  0  0  0  0
 28 23  1  0  0  0  0
 29 28  2  0  0  0  0
 30 24  1  0  0  0  0
 31 25  1  0  0  0  0
 32 26  1  0  0  0  0
 32 33  1  0  0  0  0
 34 32  1  0  0  0  0
 35 37  1  0  0  0  0
 35 36  1  0  0  0  0
 35 32  1  0  0  0  0
 38 35  1  0  0  0  0
 39 38  2  0  0  0  0
 40 39  1  0  0  0  0
 41 40  1  0  0  0  0
 42 40  1  0  0  0  0
 43 40  1  0  0  0  0
M  END
>  <minimizedAffinity>
-5.62964344

>  <minimizedRMSD>
1.20415902

$$$$
