
 OpenBabel03252504263D

 22 23  0  0  0  0  0  0  0  0999 V2000
   44.6870   35.5540   41.9610 C   0  0  0  0  0  0  0  0  0  0  0  0
   45.6880   35.5980   41.4510 H   0  0  0  0  0  0  0  0  0  0  0  0
   44.3520   36.6190   42.0120 H   0  0  0  0  0  0  0  0  0  0  0  0
   44.4670   35.7680   44.3670 C   0  0  0  0  0  0  0  0  0  0  0  0
   44.9050   34.9970   43.3110 C   0  0  0  0  0  0  0  0  0  0  0  0
   45.5060   33.7810   43.6090 C   0  0  0  0  0  0  0  0  0  0  0  0
   45.6210   33.4340   44.9030 N   0  0  0  0  0  0  0  0  0  0  0  0
   45.1870   34.1990   45.9160 C   0  0  0  0  0  0  0  0  0  0  0  0
   44.5930   35.3980   45.6610 N   0  0  0  0  0  0  0  0  0  0  0  0
   43.9870   36.7300   44.2260 H   0  0  0  0  0  0  0  0  0  0  0  0
   45.8370   33.2020   42.7670 H   0  0  0  0  0  0  0  0  0  0  0  0
   45.3750   33.7380   46.8840 H   0  0  0  0  0  0  0  0  0  0  0  0
   43.8550   34.7600   41.1840 O   0  0  0  0  0  0  0  0  0  0  0  0
   43.3550   34.2880   38.5790 F   0  0  0  0  0  0  0  0  0  0  0  0
   42.3980   34.7360   39.4260 C   0  0  0  0  0  0  0  0  0  0  0  0
   42.5710   35.0060   40.7880 C   0  0  0  0  0  0  0  0  0  0  0  0
   41.4950   35.4590   41.5230 C   0  0  0  0  0  0  0  0  0  0  0  0
   41.7300   35.6370   42.5530 H   0  0  0  0  0  0  0  0  0  0  0  0
   40.2670   35.6430   40.9220 C   0  0  0  0  0  0  0  0  0  0  0  0
   39.4620   36.0020   41.5530 H   0  0  0  0  0  0  0  0  0  0  0  0
   40.0880   35.3790   39.5770 C   0  0  0  0  0  3  0  0  0  0  0  0
   41.1570   34.9200   38.8100 C   0  0  0  0  0  3  0  0  0  0  0  0
  1  3  1  0  0  0  0
  1  5  1  0  0  0  0
  2  1  1  0  0  0  0
  4  9  1  0  0  0  0
  5  6  1  0  0  0  0
  5  4  2  0  0  0  0
  6  7  2  0  0  0  0
  7  8  1  0  0  0  0
  8 12  1  0  0  0  0
  9  8  2  0  0  0  0
 10  4  1  0  0  0  0
 11  6  1  0  0  0  0
 13  1  1  0  0  0  0
 14 15  1  0  0  0  0
 15 16  1  0  0  0  0
 16 13  1  0  0  0  0
 16 17  2  0  0  0  0
 17 18  1  0  0  0  0
 19 17  1  0  0  0  0
 19 20  1  0  0  0  0
 21 19  2  0  0  0  0
 22 15  2  0  0  0  0
 22 21  1  0  0  0  0
M  END
>  <minimizedAffinity>
-4.64388275

>  <minimizedRMSD>
1.14366496

$$$$
