
 OpenBabel03242515093D

 36 38  0  0  0  0  0  0  0  0999 V2000
   46.1990   33.8610   44.7210 C   0  0  0  0  0  0  0  0  0  0  0  0
   45.1520   34.6560   45.0790 C   0  0  0  0  0  0  0  0  0  0  0  0
   44.6670   35.6970   44.3180 C   0  0  0  0  0  0  0  0  0  0  0  0
   45.2680   35.9710   43.1100 C   0  0  0  0  0  0  0  0  0  0  0  0
   46.3190   35.1930   42.7210 C   0  0  0  0  0  0  0  0  0  0  0  0
   46.7850   34.1530   43.5060 C   0  0  0  0  0  0  0  0  0  0  0  0
   44.6680   34.4480   46.0340 H   0  0  0  0  0  0  0  0  0  0  0  0
   43.8350   36.2620   44.6960 H   0  0  0  0  0  0  0  0  0  0  0  0
   44.8460   36.7910   42.5670 H   0  0  0  0  0  0  0  0  0  0  0  0
   46.7580   35.4530   41.7580 H   0  0  0  0  0  0  0  0  0  0  0  0
   47.4060   30.5390   45.6900 C   0  0  0  0  0  0  0  0  0  0  0  0
   47.5920   30.6600   47.0670 C   0  0  0  0  0  0  0  0  0  0  0  0
   47.3000   31.8900   47.6700 C   0  0  0  0  0  0  0  0  0  0  0  0
   46.8450   32.9360   46.9140 N   0  0  0  0  0  0  0  0  0  0  0  0
   46.6780   32.7720   45.5530 C   0  0  0  0  0  0  0  0  0  0  0  0
   46.9640   31.5840   44.9950 N   0  0  0  0  0  0  0  0  0  0  0  0
   47.6090   29.6240   45.1460 H   0  0  0  0  0  0  0  0  0  0  0  0
   47.9490   29.7940   47.5830 H   0  0  0  0  0  0  0  0  0  0  0  0
   47.4560   31.9300   48.7170 H   0  0  0  0  0  0  0  0  0  0  0  0
   47.8780   33.4510   42.9570 N   0  0  0  0  0  0  0  0  0  0  0  0
   47.6370   32.4410   42.8340 H   0  0  0  0  0  0  0  0  0  0  0  0
   49.4490   33.9340   42.4790 S   0  0  0  0  0  0  0  0  0  0  0  0
   49.3960   34.3210   40.9930 O   0  0  0  0  0  0  0  0  0  0  0  0
   49.6830   35.2010   40.6460 H   0  0  0  0  0  0  0  0  0  0  0  0
   50.0060   35.0750   43.2280 O   0  0  0  0  0  0  0  0  0  0  0  0
   49.8260   35.2870   44.1760 H   0  0  0  0  0  0  0  0  0  0  0  0
   50.4060   32.5510   42.5180 O   0  0  0  0  0  0  0  0  0  0  0  0
   48.4180   30.9930   41.2880 F   0  0  0  0  0  0  0  0  0  0  0  0
   49.6350   31.0330   40.6990 C   0  0  0  0  0  0  0  0  0  0  0  0
   50.5710   31.8160   41.3530 C   0  0  0  0  0  0  0  0  0  0  0  0
   51.8410   31.9060   40.8110 C   0  0  0  0  0  0  0  0  0  0  0  0
   52.6390   32.4940   41.2520 H   0  0  0  0  0  0  0  0  0  0  0  0
   52.1840   31.2440   39.6600 C   0  0  0  0  0  0  0  0  0  0  0  0
   53.1720   31.2950   39.2120 H   0  0  0  0  0  0  0  0  0  0  0  0
   51.2570   30.4760   39.0230 C   0  0  0  0  0  0  0  0  0  0  0  0
   49.9890   30.3670   39.5380 C   0  0  0  0  0  0  0  0  0  0  0  0
  1  2  1  0  0  0  0
  1 15  1  0  0  0  0
  2  7  1  0  0  0  0
  3  8  1  0  0  0  0
  3  2  2  0  0  0  0
  4  3  1  0  0  0  0
  5  4  2  0  0  0  0
  5  6  1  0  0  0  0
  6  1  2  0  0  0  0
  9  4  1  0  0  0  0
 10  5  1  0  0  0  0
 11 12  1  0  0  0  0
 12 18  1  0  0  0  0
 12 13  2  0  0  0  0
 13 19  1  0  0  0  0
 14 13  1  0  0  0  0
 15 14  2  0  0  0  0
 16 15  1  0  0  0  0
 16 11  2  0  0  0  0
 17 11  1  0  0  0  0
 20  6  1  0  0  0  0
 21 20  1  0  0  0  0
 22 27  1  0  0  0  0
 22 20  1  0  0  0  0
 22 25  1  0  0  0  0
 23 22  1  0  0  0  0
 24 23  1  0  0  0  0
 25 26  1  0  0  0  0
 29 28  1  0  0  0  0
 29 30  1  0  0  0  0
 30 27  1  0  0  0  0
 31 32  1  0  0  0  0
 31 30  2  0  0  0  0
 33 31  1  0  0  0  0
 34 33  1  0  0  0  0
 35 36  1  0  0  0  0
 35 33  2  0  0  0  0
 36 29  2  0  0  0  0
M  END
>  <minimizedAffinity>
-6.00311804

>  <minimizedRMSD>
2.42608833

$$$$
