
 OpenBabel03252502553D

 37 39  0  0  0  0  0  0  0  0999 V2000
   45.6250   29.8890   44.8010 Br  0  0  0  0  0  0  0  0  0  0  0  0
   45.6690   30.5600   46.6000 C   0  0  0  0  0  0  0  0  0  0  0  0
   46.3400   31.7420   46.7800 C   0  0  0  0  0  0  0  0  0  0  0  0
   46.3530   32.2060   48.1100 C   0  0  0  0  0  0  0  0  0  0  0  0
   45.7490   31.5420   49.1520 C   0  0  0  0  0  0  0  0  0  0  0  0
   45.0950   30.3640   48.8900 C   0  0  0  0  0  0  0  0  0  0  0  0
   45.0480   29.8590   47.6130 C   0  0  0  0  0  0  0  0  0  0  0  0
   46.8570   33.1360   48.3720 H   0  0  0  0  0  0  0  0  0  0  0  0
   45.7840   31.9360   50.1590 H   0  0  0  0  0  0  0  0  0  0  0  0
   44.6250   29.8580   49.7280 H   0  0  0  0  0  0  0  0  0  0  0  0
   47.0200   32.5430   45.7700 C   0  0  0  0  0  0  0  0  0  0  0  0
   47.9290   32.9960   46.2270 H   0  0  0  0  0  0  0  0  0  0  0  0
   47.3440   31.9040   44.9420 H   0  0  0  0  0  0  0  0  0  0  0  0
   44.5360   35.3100   45.4260 C   0  0  0  0  0  0  0  0  0  0  0  0
   44.7520   35.7190   44.1100 C   0  0  0  0  0  0  0  0  0  0  0  0
   45.7270   35.0580   43.3630 C   0  0  0  0  0  0  0  0  0  0  0  0
   46.4220   34.0490   43.9440 N   0  0  0  0  0  0  0  0  0  0  0  0
   46.1990   33.6620   45.2340 C   0  0  0  0  0  0  0  0  0  0  0  0
   45.2570   34.3130   45.9280 N   0  0  0  0  0  0  0  0  0  0  0  0
   43.7740   35.8370   45.9860 H   0  0  0  0  0  0  0  0  0  0  0  0
   44.1570   36.5380   43.7030 H   0  0  0  0  0  0  0  0  0  0  0  0
   45.8780   35.3820   42.3630 H   0  0  0  0  0  0  0  0  0  0  0  0
   44.3820   28.6570   47.3460 O   0  0  0  0  0  0  0  0  0  0  0  0
   44.2950   26.0910   46.9890 O   0  0  0  0  0  0  0  0  0  0  0  0
   44.9680   27.1430   47.8490 P   0  0  2  0  0  0  0  0  0  0  0  0
   44.5300   26.9260   49.4580 O   0  0  0  0  0  0  0  0  0  0  0  0
   45.3210   27.2100   50.0020 H   0  0  0  0  0  0  0  0  0  0  0  0
   46.6320   27.0120   47.6650 O   0  0  0  0  0  0  0  0  0  0  0  0
   47.5340   25.8790   45.3820 F   0  0  0  0  0  0  0  0  0  0  0  0
   47.8380   25.3600   46.6160 C   0  0  0  0  0  0  0  0  0  0  0  0
   47.4050   25.8930   47.8370 C   0  0  0  0  0  0  0  0  0  0  0  0
   47.7930   25.2590   48.9870 C   0  0  0  0  0  0  0  0  0  0  0  0
   47.4290   25.7180   49.8810 H   0  0  0  0  0  0  0  0  0  0  0  0
   48.5890   24.1270   48.9060 C   0  0  0  0  0  0  0  0  0  0  0  0
   48.8660   23.6660   49.8370 H   0  0  0  0  0  0  0  0  0  0  0  0
   49.0180   23.5970   47.7040 C   0  0  0  0  0  0  0  0  0  0  0  0
   48.6300   24.2310   46.5640 C   0  0  0  0  0  0  0  0  0  0  0  0
  1  2  1  0  0  0  0
  2  3  2  0  0  0  0
  2  7  1  0  0  0  0
  3  4  1  0  0  0  0
  4  8  1  0  0  0  0
  4  5  2  0  0  0  0
  5  9  1  0  0  0  0
  6  5  1  0  0  0  0
  6 10  1  0  0  0  0
  7  6  2  0  0  0  0
 11 12  1  0  0  0  0
 11  3  1  0  0  0  0
 13 11  1  0  0  0  0
 14 19  1  0  0  0  0
 14 20  1  0  0  0  0
 15 14  2  0  0  0  0
 16 17  2  0  0  0  0
 16 15  1  0  0  0  0
 17 18  1  0  0  0  0
 18 11  1  0  0  0  0
 18 19  2  0  0  0  0
 21 15  1  0  0  0  0
 22 16  1  0  0  0  0
 23  7  1  0  0  0  0
 23 25  1  0  0  0  0
 25 24  2  6  0  0  0
 25 26  1  0  0  0  0
 26 27  1  0  0  0  0
 28 31  1  0  0  0  0
 28 25  1  0  0  0  0
 29 30  1  0  0  0  0
 30 31  1  0  0  0  0
 31 32  2  0  0  0  0
 32 33  1  0  0  0  0
 34 32  1  0  0  0  0
 34 35  1  0  0  0  0
 36 34  2  0  0  0  0
 37 30  2  0  0  0  0
 37 36  1  0  0  0  0
M  END
>  <minimizedAffinity>
-5.17623663

>  <minimizedRMSD>
1.50672853

$$$$
