
 OpenBabel03252506213D

 35 37  0  0  0  0  0  0  0  0999 V2000
   44.8670   35.4430   42.3740 C   0  0  0  0  0  0  0  0  0  0  0  0
   43.6930   35.5430   41.6020 C   0  0  0  0  0  0  0  0  0  0  0  0
   43.5880   34.7310   40.4560 C   0  0  0  0  0  0  0  0  0  0  0  0
   44.6080   33.9060   40.1550 N   0  0  0  0  0  0  0  0  0  0  0  0
   45.7230   33.8410   40.9280 C   0  0  0  0  0  0  0  0  0  0  0  0
   45.8460   34.6070   42.0300 N   0  0  0  0  0  0  0  0  0  0  0  0
   42.9460   36.2300   41.9300 H   0  0  0  0  0  0  0  0  0  0  0  0
   42.6990   34.8040   39.8680 H   0  0  0  0  0  0  0  0  0  0  0  0
   48.3810   35.1260   40.2600 Cl  0  0  0  0  0  0  0  0  0  0  0  0
   48.0300   33.4350   40.1950 C   0  0  0  0  0  0  0  0  0  0  0  0
   46.7890   32.9010   40.5130 C   0  0  0  0  0  0  0  0  0  0  0  0
   46.4870   31.5690   40.4690 C   0  0  0  0  0  0  0  0  0  0  0  0
   47.4860   30.7150   40.0840 C   0  0  0  0  0  0  0  0  0  0  0  0
   48.7610   31.1250   39.7420 C   0  0  0  0  0  0  0  0  0  0  0  0
   48.9760   32.5010   39.8170 C   0  0  0  0  0  0  0  0  0  0  0  0
   45.4940   31.2280   40.7340 H   0  0  0  0  0  0  0  0  0  0  0  0
   47.2610   29.6550   40.0430 H   0  0  0  0  0  0  0  0  0  0  0  0
   49.5570   30.4620   39.4360 H   0  0  0  0  0  0  0  0  0  0  0  0
   49.9730   32.8550   39.5530 H   0  0  0  0  0  0  0  0  0  0  0  0
   44.9830   36.2860   43.5720 C   0  0  0  0  0  3  0  0  0  0  0  0
   45.1740   37.5810   43.3990 C   0  0  0  0  0  3  0  0  0  0  0  0
   45.2960   38.4610   44.5960 C   0  0  0  0  0  0  0  0  0  0  0  0
   44.5850   38.1700   45.4020 H   0  0  0  0  0  0  0  0  0  0  0  0
   46.3260   38.3460   45.0010 H   0  0  0  0  0  0  0  0  0  0  0  0
   45.0560   39.8280   44.1490 N   0  0  0  0  0  0  0  0  0  0  0  0
   45.0420   40.0940   43.1200 H   0  0  0  0  0  0  0  0  0  0  0  0
   44.8360   42.4690   43.3320 F   0  0  0  0  0  0  0  0  0  0  0  0
   44.7120   42.2230   44.6650 C   0  0  0  0  0  0  0  0  0  0  0  0
   44.8220   40.9060   45.0660 C   0  0  0  0  0  0  0  0  0  0  0  0
   44.7070   40.5600   46.4170 C   0  0  0  0  0  0  0  0  0  0  0  0
   44.7780   39.5620   46.8260 H   0  0  0  0  0  0  0  0  0  0  0  0
   44.4810   41.6350   47.2620 C   0  0  0  0  0  0  0  0  0  0  0  0
   44.3870   41.3910   48.3320 H   0  0  0  0  0  0  0  0  0  0  0  0
   44.3640   42.9640   46.9140 C   0  0  0  0  0  3  0  0  0  0  0  0
   44.4870   43.2310   45.5710 C   0  0  0  0  0  3  0  0  0  0  0  0
  1 20  1  0  0  0  0
  2  7  1  0  0  0  0
  2  1  2  0  0  0  0
  3  2  1  0  0  0  0
  4  3  2  0  0  0  0
  4  5  1  0  0  0  0
  5  6  2  0  0  0  0
  6  1  1  0  0  0  0
  8  3  1  0  0  0  0
 10  9  1  0  0  0  0
 10 11  1  0  0  0  0
 11  5  1  0  0  0  0
 12 11  2  0  0  0  0
 12 16  1  0  0  0  0
 13 12  1  0  0  0  0
 14 15  1  0  0  0  0
 14 13  2  0  0  0  0
 15 10  2  0  0  0  0
 17 13  1  0  0  0  0
 18 14  1  0  0  0  0
 19 15  1  0  0  0  0
 21 20  2  0  0  0  0
 21 22  1  0  0  0  0
 22 24  1  0  0  0  0
 22 23  1  0  0  0  0
 25 22  1  0  0  0  0
 25 29  1  0  0  0  0
 26 25  1  0  0  0  0
 27 28  1  0  0  0  0
 28 29  2  0  0  0  0
 28 35  1  0  0  0  0
 29 30  1  0  0  0  0
 30 31  1  0  0  0  0
 30 32  2  0  0  0  0
 32 33  1  0  0  0  0
 34 32  1  0  0  0  0
 35 34  2  0  0  0  0
M  END
>  <minimizedAffinity>
-2.97498655

>  <minimizedRMSD>
1.5139153

$$$$
