
 OpenBabel03252501033D

 31 33  0  0  1  0  0  0  0  0999 V2000
   48.0070   35.6000   42.0090 C   0  0  1  0  0  0  0  0  0  0  0  0
   49.4140   35.1340   41.9390 C   0  0  0  0  0  0  0  0  0  0  0  0
   48.5200   35.1520   40.7070 C   0  0  1  0  0  0  0  0  0  0  0  0
   47.8120   36.6940   42.1700 H   0  0  0  0  0  0  0  0  0  0  0  0
   50.2460   35.8920   42.0080 H   0  0  0  0  0  0  0  0  0  0  0  0
   49.7500   34.1290   42.1890 H   0  0  0  0  0  0  0  0  0  0  0  0
   48.8530   35.9240   39.9850 H   0  0  0  0  0  0  0  0  0  0  0  0
   46.6420   32.8070   44.1650 C   0  0  0  0  0  0  0  0  0  0  0  0
   47.5700   33.6490   43.5330 C   0  0  0  0  0  0  0  0  0  0  0  0
   47.0760   34.6740   42.7150 C   0  0  0  0  0  0  0  0  0  0  0  0
   45.7270   34.8070   42.5700 N   0  0  0  0  0  0  0  0  0  0  0  0
   44.8540   33.9790   43.1910 C   0  0  0  0  0  0  0  0  0  0  0  0
   45.3220   32.9830   43.9860 N   0  0  0  0  0  0  0  0  0  0  0  0
   47.0460   32.0250   44.7900 H   0  0  0  0  0  0  0  0  0  0  0  0
   48.6100   33.4840   43.6990 H   0  0  0  0  0  0  0  0  0  0  0  0
   43.7840   34.0690   43.0880 H   0  0  0  0  0  0  0  0  0  0  0  0
   47.9940   34.0420   40.1670 O   0  0  0  0  0  0  0  0  0  0  0  0
   48.9870   32.4960   38.2520 O   0  0  0  0  0  0  0  0  0  0  0  0
   48.2090   33.7540   38.5670 P   0  0  2  0  0  0  0  0  0  0  0  0
   48.9630   35.0070   37.7270 O   0  0  0  0  0  0  0  0  0  0  0  0
   49.0660   34.6780   36.7800 H   0  0  0  0  0  0  0  0  0  0  0  0
   46.6970   33.5230   37.8400 O   0  0  0  0  0  0  0  0  0  0  0  0
   44.8170   34.0000   39.7050 F   0  0  0  0  0  0  0  0  0  0  0  0
   45.0060   32.7600   39.1590 C   0  0  0  0  0  0  0  0  0  0  0  0
   45.9490   32.4060   38.1880 C   0  0  0  0  0  0  0  0  0  0  0  0
   46.0080   31.1170   37.7440 C   0  0  0  0  0  0  0  0  0  0  0  0
   46.7700   30.9700   37.0030 H   0  0  0  0  0  0  0  0  0  0  0  0
   45.1390   30.1730   38.2570 C   0  0  0  0  0  0  0  0  0  0  0  0
   45.2340   29.1680   37.8660 H   0  0  0  0  0  0  0  0  0  0  0  0
   44.2080   30.5200   39.2140 C   0  0  0  0  0  3  0  0  0  0  0  0
   44.1220   31.8150   39.6820 C   0  0  0  0  0  3  0  0  0  0  0  0
  1  4  1  1  0  0  0
  1 10  1  0  0  0  0
  2  5  1  0  0  0  0
  2  1  1  0  0  0  0
  2  6  1  0  0  0  0
  3  7  1  6  0  0  0
  3  2  1  0  0  0  0
  3  1  1  0  0  0  0
  8 14  1  0  0  0  0
  9 15  1  0  0  0  0
  9  8  2  0  0  0  0
 10  9  1  0  0  0  0
 11 10  2  0  0  0  0
 11 12  1  0  0  0  0
 12 13  2  0  0  0  0
 13  8  1  0  0  0  0
 16 12  1  0  0  0  0
 17  3  1  0  0  0  0
 19 18  2  6  0  0  0
 19 17  1  0  0  0  0
 20 19  1  0  0  0  0
 21 20  1  0  0  0  0
 22 25  1  0  0  0  0
 22 19  1  0  0  0  0
 24 31  1  0  0  0  0
 24 23  1  0  0  0  0
 25 24  2  0  0  0  0
 26 25  1  0  0  0  0
 26 28  2  0  0  0  0
 27 26  1  0  0  0  0
 28 30  1  0  0  0  0
 29 28  1  0  0  0  0
 30 31  2  0  0  0  0
M  END
>  <minimizedAffinity>
-4.23274326

>  <minimizedRMSD>
0.458543628

$$$$
