
 OpenBabel03242514193D

 49 51  0  0  0  0  0  0  0  0999 V2000
   46.1650   34.5710   43.5980 C   0  0  0  0  0  0  0  0  0  0  0  0
   46.1720   33.7970   44.7340 C   0  0  0  0  0  0  0  0  0  0  0  0
   45.3380   34.1850   45.7500 C   0  0  0  0  0  0  0  0  0  0  0  0
   44.5620   35.2800   45.6040 N   0  0  0  0  0  0  0  0  0  0  0  0
   44.5560   36.0240   44.5050 C   0  0  0  0  0  0  0  0  0  0  0  0
   45.3600   35.6520   43.5250 N   0  0  0  0  0  0  0  0  0  0  0  0
   45.1980   33.7190   46.7150 H   0  0  0  0  0  0  0  0  0  0  0  0
   43.9790   36.9040   44.2940 H   0  0  0  0  0  0  0  0  0  0  0  0
   47.0070   34.1200   42.4830 C   0  0  0  0  0  0  0  0  0  0  0  0
   48.3890   34.6980   42.5730 C   0  0  0  0  0  0  0  0  0  0  0  0
   48.7030   35.5810   41.4510 C   0  0  0  0  0  0  0  0  0  0  0  0
   48.5100   34.8920   40.1170 C   0  0  0  0  0  0  0  0  0  0  0  0
   47.2630   34.1030   40.0340 C   0  0  0  0  0  0  0  0  0  0  0  0
   46.3290   34.3990   41.1880 C   0  0  0  0  0  0  0  0  0  0  0  0
   47.1930   33.0360   42.6030 H   0  0  0  0  0  0  0  0  0  0  0  0
   49.1760   33.9280   42.6620 H   0  0  0  0  0  0  0  0  0  0  0  0
   48.4480   35.2810   43.5140 H   0  0  0  0  0  0  0  0  0  0  0  0
   48.0280   36.4590   41.4370 H   0  0  0  0  0  0  0  0  0  0  0  0
   49.7760   35.8870   41.5030 H   0  0  0  0  0  0  0  0  0  0  0  0
   48.5440   35.6750   39.3280 H   0  0  0  0  0  0  0  0  0  0  0  0
   49.4190   34.2580   39.9680 H   0  0  0  0  0  0  0  0  0  0  0  0
   46.7370   34.1520   39.0730 H   0  0  0  0  0  0  0  0  0  0  0  0
   47.5460   33.0190   40.1700 H   0  0  0  0  0  0  0  0  0  0  0  0
   45.4310   33.7450   41.0620 H   0  0  0  0  0  0  0  0  0  0  0  0
   46.0260   35.4560   41.0640 H   0  0  0  0  0  0  0  0  0  0  0  0
   46.8550   32.7010   45.0620 O   0  0  0  0  0  0  0  0  0  0  0  0
   47.2770   32.1640   46.2480 C   0  0  0  0  0  0  0  0  0  0  0  0
   48.3840   32.3550   46.3280 H   0  0  0  0  0  0  0  0  0  0  0  0
   46.8500   32.5270   47.1800 H   0  0  0  0  0  0  0  0  0  0  0  0
   47.1600   30.6500   46.3020 C   0  0  0  0  0  0  0  0  0  0  0  0
   48.0450   30.2010   45.8110 H   0  0  0  0  0  0  0  0  0  0  0  0
   47.1560   30.3070   47.3450 H   0  0  0  0  0  0  0  0  0  0  0  0
   45.9940   30.1600   45.6000 N   0  0  0  0  0  0  0  0  0  0  0  0
   46.2030   29.3420   44.9920 H   0  0  0  0  0  0  0  0  0  0  0  0
   44.8180   29.7130   46.8070 S   0  0  0  0  0  0  0  0  0  0  0  0
   43.5970   29.1170   46.1760 O   0  0  0  0  0  0  0  0  0  0  0  0
   42.7140   29.2630   46.6120 H   0  0  0  0  0  0  0  0  0  0  0  0
   44.4630   30.9600   47.5620 O   0  0  0  0  0  0  0  0  0  0  0  0
   44.7300   31.0720   48.5100 H   0  0  0  0  0  0  0  0  0  0  0  0
   45.4740   28.6330   47.9050 O   0  0  0  0  0  0  0  0  0  0  0  0
   44.0950   27.1690   49.7120 F   0  0  0  0  0  0  0  0  0  0  0  0
   44.6140   26.5850   48.5970 C   0  0  0  0  0  0  0  0  0  0  0  0
   45.3340   27.2800   47.6280 C   0  0  0  0  0  0  0  0  0  0  0  0
   45.8220   26.6000   46.5300 C   0  0  0  0  0  0  0  0  0  0  0  0
   46.3690   27.1960   45.8220 H   0  0  0  0  0  0  0  0  0  0  0  0
   45.5990   25.2450   46.3930 C   0  0  0  0  0  0  0  0  0  0  0  0
   45.9910   24.7350   45.5280 H   0  0  0  0  0  0  0  0  0  0  0  0
   44.8830   24.5080   47.3390 C   0  0  0  0  0  0  0  0  0  0  0  0
   44.4130   25.2260   48.4200 C   0  0  0  0  0  0  0  0  0  0  0  0
  1  2  1  0  0  0  0
  2 26  1  0  0  0  0
  2  3  2  0  0  0  0
  3  7  1  0  0  0  0
  4  3  1  0  0  0  0
  5  4  2  0  0  0  0
  6  1  2  0  0  0  0
  6  5  1  0  0  0  0
  8  5  1  0  0  0  0
  9 10  1  0  0  0  0
  9 15  1  0  0  0  0
  9  1  1  0  0  0  0
 10 16  1  0  0  0  0
 10 17  1  0  0  0  0
 11 19  1  0  0  0  0
 11 10  1  0  0  0  0
 12 11  1  0  0  0  0
 13 12  1  0  0  0  0
 13 23  1  0  0  0  0
 13 14  1  0  0  0  0
 14  9  1  0  0  0  0
 18 11  1  0  0  0  0
 20 12  1  0  0  0  0
 21 12  1  0  0  0  0
 22 13  1  0  0  0  0
 24 14  1  0  0  0  0
 25 14  1  0  0  0  0
 26 27  1  0  0  0  0
 27 30  1  0  0  0  0
 27 28  1  0  0  0  0
 27 29  1  0  0  0  0
 30 32  1  0  0  0  0
 31 30  1  0  0  0  0
 33 30  1  0  0  0  0
 33 35  1  0  0  0  0
 34 33  1  0  0  0  0
 35 38  1  0  0  0  0
 35 40  1  0  0  0  0
 36 37  1  0  0  0  0
 36 35  1  0  0  0  0
 38 39  1  0  0  0  0
 42 41  1  0  0  0  0
 43 40  1  0  0  0  0
 43 42  2  0  0  0  0
 44 43  1  0  0  0  0
 45 44  1  0  0  0  0
 46 44  2  0  0  0  0
 46 48  1  0  0  0  0
 47 46  1  0  0  0  0
 48 49  2  0  0  0  0
 49 42  1  0  0  0  0
M  END
>  <minimizedAffinity>
-5.96756029

>  <minimizedRMSD>
1.14166021

$$$$
