
 OpenBabel03242520293D

 41 43  0  0  0  0  0  0  0  0999 V2000
   45.4360   35.5580   43.4470 C   0  0  0  0  0  0  0  0  0  0  0  0
   46.3100   34.4750   43.7310 C   0  0  0  0  0  0  0  0  0  0  0  0
   46.2150   33.8660   44.9710 C   0  0  0  0  0  0  0  0  0  0  0  0
   45.2940   34.3260   45.8610 N   0  0  0  0  0  0  0  0  0  0  0  0
   44.4730   35.3560   45.5750 C   0  0  0  0  0  0  0  0  0  0  0  0
   44.5500   35.9610   44.3750 N   0  0  0  0  0  0  0  0  0  0  0  0
   45.4820   36.0550   42.4910 H   0  0  0  0  0  0  0  0  0  0  0  0
   43.7660   35.6710   46.3240 H   0  0  0  0  0  0  0  0  0  0  0  0
   47.2050   34.1270   42.6930 N   0  0  0  0  0  0  0  0  0  0  0  0
   48.6310   34.3920   42.7420 C   0  0  0  0  0  0  0  0  0  0  0  0
   49.3090   33.7850   41.5440 C   0  0  0  0  0  0  0  0  0  0  0  0
   48.6920   34.1340   40.2990 N   0  0  0  0  0  0  0  0  0  0  0  0
   47.2730   33.9630   40.2490 C   0  0  0  0  0  0  0  0  0  0  0  0
   46.6500   33.4640   41.5140 C   0  0  0  0  0  0  0  0  0  0  0  0
   48.8910   35.4320   42.9260 H   0  0  0  0  0  0  0  0  0  0  0  0
   49.0010   33.7950   43.6260 H   0  0  0  0  0  0  0  0  0  0  0  0
   50.3510   34.1760   41.5160 H   0  0  0  0  0  0  0  0  0  0  0  0
   49.3800   32.6860   41.6610 H   0  0  0  0  0  0  0  0  0  0  0  0
   48.9760   35.0950   39.9950 H   0  0  0  0  0  0  0  0  0  0  0  0
   46.9710   33.2520   39.4410 H   0  0  0  0  0  0  0  0  0  0  0  0
   46.7950   34.9290   39.9780 H   0  0  0  0  0  0  0  0  0  0  0  0
   45.5530   33.6190   41.4440 H   0  0  0  0  0  0  0  0  0  0  0  0
   46.8750   32.3810   41.6410 H   0  0  0  0  0  0  0  0  0  0  0  0
   47.0750   32.8220   45.2150 O   0  0  0  0  0  0  0  0  0  0  0  0
   45.4190   30.8090   44.7360 O   0  0  0  0  0  0  0  0  0  0  0  0
   46.4420   31.2980   45.7570 P   0  0  1  0  0  0  0  0  0  0  0  0
   47.7180   30.2640   45.9590 O   0  0  0  0  0  0  0  0  0  0  0  0
   49.8750   29.3280   47.2660 F   0  0  0  0  0  0  0  0  0  0  0  0
   48.7550   28.5750   47.2290 C   0  0  0  0  0  0  0  0  0  0  0  0
   47.6140   29.0260   46.5610 C   0  0  0  0  0  0  0  0  0  0  0  0
   46.5150   28.1960   46.5730 C   0  0  0  0  0  0  0  0  0  0  0  0
   45.6460   28.5560   46.0560 H   0  0  0  0  0  0  0  0  0  0  0  0
   46.4990   26.9780   47.1980 C   0  0  0  0  0  0  0  0  0  0  0  0
   45.6300   26.3440   47.1950 H   0  0  0  0  0  0  0  0  0  0  0  0
   47.6250   26.5200   47.8640 C   0  0  0  0  0  0  0  0  0  0  0  0
   48.7220   27.3440   47.8540 C   0  0  0  0  0  0  0  0  0  0  0  0
   45.6410   31.6290   47.2110 O   0  0  0  0  0  0  0  0  0  0  0  0
   46.4830   31.9240   48.2480 C   0  0  0  0  0  0  0  0  0  0  0  0
   47.6200   32.6070   47.8520 F   0  0  0  0  0  0  0  0  0  0  0  0
   46.8560   30.8410   49.0050 F   0  0  0  0  0  0  0  0  0  0  0  0
   45.7680   32.7620   49.1030 F   0  0  0  0  0  0  0  0  0  0  0  0
  1  2  2  0  0  0  0
  1  6  1  0  0  0  0
  2  3  1  0  0  0  0
  3 24  1  0  0  0  0
  3  4  2  0  0  0  0
  5  4  1  0  0  0  0
  5  8  1  0  0  0  0
  6  5  2  0  0  0  0
  7  1  1  0  0  0  0
  9 10  1  0  0  0  0
  9  2  1  0  0  0  0
 10 15  1  0  0  0  0
 10 16  1  0  0  0  0
 11 18  1  0  0  0  0
 11 10  1  0  0  0  0
 12 11  1  0  0  0  0
 13 12  1  0  0  0  0
 13 14  1  0  0  0  0
 14 23  1  0  0  0  0
 14  9  1  0  0  0  0
 17 11  1  0  0  0  0
 19 12  1  0  0  0  0
 20 13  1  0  0  0  0
 21 13  1  0  0  0  0
 22 14  1  0  0  0  0
 24 26  1  0  0  0  0
 26 25  2  6  0  0  0
 26 27  1  0  0  0  0
 26 37  1  0  0  0  0
 27 30  1  0  0  0  0
 29 28  1  0  0  0  0
 29 36  1  0  0  0  0
 30 31  1  0  0  0  0
 30 29  2  0  0  0  0
 31 33  2  0  0  0  0
 32 31  1  0  0  0  0
 33 35  1  0  0  0  0
 34 33  1  0  0  0  0
 36 35  2  0  0  0  0
 37 38  1  0  0  0  0
 38 40  1  0  0  0  0
 38 41  1  0  0  0  0
 39 38  1  0  0  0  0
M  END
>  <minimizedAffinity>
-5.42286253

>  <minimizedRMSD>
0.875040948

$$$$
