
 OpenBabel03242522003D

 33 35  0  0  0  0  0  0  0  0999 V2000
   37.6290   31.5830   38.9590 C   0  0  0  0  0  0  0  0  0  0  0  0
   37.1220   32.8530   39.1690 C   0  0  0  0  0  0  0  0  0  0  0  0
   37.7540   33.8440   39.9150 C   0  0  0  0  0  0  0  0  0  0  0  0
   38.9740   33.5480   40.4880 C   0  0  0  0  0  0  0  0  0  0  0  0
   39.4550   32.3040   40.2710 C   0  0  0  0  0  0  0  0  0  0  0  0
   38.8290   31.3740   39.5530 N   0  0  0  0  0  0  0  0  0  0  0  0
   36.1480   33.0040   38.6780 H   0  0  0  0  0  0  0  0  0  0  0  0
   37.1730   34.7640   39.9460 H   0  0  0  0  0  0  0  0  0  0  0  0
   39.2870   34.4220   41.0280 H   0  0  0  0  0  0  0  0  0  0  0  0
   35.4270   28.7880   37.7530 C   0  0  0  0  0  0  0  0  0  0  0  0
   35.9760   29.7090   38.6530 C   0  0  0  0  0  0  0  0  0  0  0  0
   36.9410   30.5630   38.1870 C   0  0  0  0  0  0  0  0  0  0  0  0
   37.3160   30.4700   36.8670 N   0  0  0  0  0  0  0  0  0  0  0  0
   36.7700   29.5720   36.0210 C   0  0  0  0  0  0  0  0  0  0  0  0
   35.8260   28.7330   36.4660 N   0  0  0  0  0  0  0  0  0  0  0  0
   34.6590   28.1270   38.1710 H   0  0  0  0  0  0  0  0  0  0  0  0
   35.6960   29.7990   39.6930 H   0  0  0  0  0  0  0  0  0  0  0  0
   37.1440   29.5910   35.0070 H   0  0  0  0  0  0  0  0  0  0  0  0
   40.6780   31.9890   40.8350 O   0  0  0  0  0  0  0  0  0  0  0  0
   41.5680   29.6590   41.6910 O   0  0  0  0  0  0  0  0  0  0  0  0
   40.8410   30.8910   42.1440 P   0  0  1  0  0  0  0  0  0  0  0  0
   41.7590   31.6580   43.3520 O   0  0  0  0  0  0  0  0  0  0  0  0
   41.2910   31.7360   44.2020 H   0  0  0  0  0  0  0  0  0  0  0  0
   39.3020   30.5220   42.7040 O   0  0  0  0  0  0  0  0  0  0  0  0
   36.7060   30.4970   41.8010 F   0  0  0  0  0  0  0  0  0  0  0  0
   37.3320   29.3730   42.2850 C   0  0  0  0  0  0  0  0  0  0  0  0
   38.6470   29.3370   42.7540 C   0  0  0  0  0  0  0  0  0  0  0  0
   39.0930   28.1080   43.1980 C   0  0  0  0  0  0  0  0  0  0  0  0
   40.1130   28.1070   43.5570 H   0  0  0  0  0  0  0  0  0  0  0  0
   38.3050   26.9760   43.1880 C   0  0  0  0  0  0  0  0  0  0  0  0
   38.7770   26.0800   43.5640 H   0  0  0  0  0  0  0  0  0  0  0  0
   37.0030   27.0250   42.7210 C   0  0  0  0  0  3  0  0  0  0  0  0
   36.5480   28.2490   42.2740 C   0  0  0  0  0  3  0  0  0  0  0  0
  1  2  2  0  0  0  0
  1  6  1  0  0  0  0
  2  3  1  0  0  0  0
  3  8  1  0  0  0  0
  3  4  2  0  0  0  0
  4  9  1  0  0  0  0
  5  4  1  0  0  0  0
  5 19  1  0  0  0  0
  6  5  2  0  0  0  0
  7  2  1  0  0  0  0
 10 16  1  0  0  0  0
 10 11  1  0  0  0  0
 11 17  1  0  0  0  0
 12 11  2  0  0  0  0
 12  1  1  0  0  0  0
 13 12  1  0  0  0  0
 14 15  1  0  0  0  0
 14 13  2  0  0  0  0
 15 10  2  0  0  0  0
 18 14  1  0  0  0  0
 19 21  1  0  0  0  0
 21 20  2  6  0  0  0
 21 24  1  0  0  0  0
 21 22  1  0  0  0  0
 22 23  1  0  0  0  0
 24 27  1  0  0  0  0
 25 26  1  0  0  0  0
 26 27  1  0  0  0  0
 27 28  2  0  0  0  0
 28 29  1  0  0  0  0
 30 28  1  0  0  0  0
 30 31  1  0  0  0  0
 32 30  2  0  0  0  0
 33 26  2  0  0  0  0
 33 32  1  0  0  0  0
M  END
>  <minimizedAffinity>
-5.94978857

$$$$

 OpenBabel03242522003D

 33 35  0  0  0  0  0  0  0  0999 V2000
   37.4070   26.3990   41.6510 C   0  0  0  0  0  0  0  0  0  0  0  0
   37.3270   26.5760   43.0210 C   0  0  0  0  0  0  0  0  0  0  0  0
   37.4450   27.8020   43.6680 C   0  0  0  0  0  0  0  0  0  0  0  0
   37.6560   28.9270   42.8980 C   0  0  0  0  0  0  0  0  0  0  0  0
   37.7290   28.7370   41.5620 C   0  0  0  0  0  0  0  0  0  0  0  0
   37.6130   27.5510   40.9670 N   0  0  0  0  0  0  0  0  0  0  0  0
   37.1570   25.6290   43.5580 H   0  0  0  0  0  0  0  0  0  0  0  0
   37.3490   27.7040   44.7490 H   0  0  0  0  0  0  0  0  0  0  0  0
   37.7360   29.7590   43.5720 H   0  0  0  0  0  0  0  0  0  0  0  0
   37.7300   22.8080   40.5950 C   0  0  0  0  0  0  0  0  0  0  0  0
   37.9750   23.9660   41.3430 C   0  0  0  0  0  0  0  0  0  0  0  0
   37.2930   25.1050   41.0020 C   0  0  0  0  0  0  0  0  0  0  0  0
   36.4100   25.0490   39.9490 N   0  0  0  0  0  0  0  0  0  0  0  0
   36.1940   23.9180   39.2460 C   0  0  0  0  0  0  0  0  0  0  0  0
   36.8550   22.8000   39.5700 N   0  0  0  0  0  0  0  0  0  0  0  0
   38.2990   21.9230   40.9060 H   0  0  0  0  0  0  0  0  0  0  0  0
   38.6630   24.0320   42.1740 H   0  0  0  0  0  0  0  0  0  0  0  0
   35.4770   23.9940   38.4390 H   0  0  0  0  0  0  0  0  0  0  0  0
   37.9380   29.8520   40.7720 O   0  0  0  0  0  0  0  0  0  0  0  0
   35.9380   29.9590   39.0560 O   0  0  0  0  0  0  0  0  0  0  0  0
   36.6500   30.7680   40.1000 P   0  0  1  0  0  0  0  0  0  0  0  0
   35.5610   31.1280   41.3540 O   0  0  0  0  0  0  0  0  0  0  0  0
   35.4300   32.0830   41.4910 H   0  0  0  0  0  0  0  0  0  0  0  0
   37.3000   32.1720   39.4480 O   0  0  0  0  0  0  0  0  0  0  0  0
   38.3310   31.0000   37.1870 F   0  0  0  0  0  0  0  0  0  0  0  0
   39.0600   31.8620   37.9710 C   0  0  0  0  0  0  0  0  0  0  0  0
   38.5790   32.4800   39.1270 C   0  0  0  0  0  0  0  0  0  0  0  0
   39.4690   33.3140   39.7750 C   0  0  0  0  0  0  0  0  0  0  0  0
   39.0740   33.7800   40.6670 H   0  0  0  0  0  0  0  0  0  0  0  0
   40.7540   33.5350   39.3260 C   0  0  0  0  0  0  0  0  0  0  0  0
   41.3450   34.2100   39.9280 H   0  0  0  0  0  0  0  0  0  0  0  0
   41.2180   32.9150   38.1790 C   0  0  0  0  0  3  0  0  0  0  0  0
   40.3370   32.0800   37.5230 C   0  0  0  0  0  3  0  0  0  0  0  0
  1  2  1  0  0  0  0
  2  7  1  0  0  0  0
  2  3  2  0  0  0  0
  3  8  1  0  0  0  0
  4  9  1  0  0  0  0
  4  3  1  0  0  0  0
  5  4  2  0  0  0  0
  6  5  1  0  0  0  0
  6  1  2  0  0  0  0
 10 16  1  0  0  0  0
 10 11  1  0  0  0  0
 11 17  1  0  0  0  0
 12 11  2  0  0  0  0
 12  1  1  0  0  0  0
 13 12  1  0  0  0  0
 14 15  1  0  0  0  0
 14 13  2  0  0  0  0
 15 10  2  0  0  0  0
 18 14  1  0  0  0  0
 19  5  1  0  0  0  0
 21 20  2  6  0  0  0
 21 19  1  0  0  0  0
 21 22  1  0  0  0  0
 22 23  1  0  0  0  0
 24 21  1  0  0  0  0
 25 26  1  0  0  0  0
 26 27  1  0  0  0  0
 27 24  1  0  0  0  0
 27 28  2  0  0  0  0
 28 29  1  0  0  0  0
 30 28  1  0  0  0  0
 30 31  1  0  0  0  0
 32 30  2  0  0  0  0
 33 26  2  0  0  0  0
 33 32  1  0  0  0  0
M  END
>  <minimizedAffinity>
-5.87489843

$$$$

 OpenBabel03242522003D

 33 35  0  0  0  0  0  0  0  0999 V2000
   36.9140   26.9200   39.6230 C   0  0  0  0  0  0  0  0  0  0  0  0
   35.8290   26.7560   38.7810 C   0  0  0  0  0  0  0  0  0  0  0  0
   35.2200   27.7840   38.0670 C   0  0  0  0  0  0  0  0  0  0  0  0
   35.7280   29.0600   38.2010 C   0  0  0  0  0  0  0  0  0  0  0  0
   36.7890   29.2010   39.0250 C   0  0  0  0  0  0  0  0  0  0  0  0
   37.3540   28.2000   39.6980 N   0  0  0  0  0  0  0  0  0  0  0  0
   35.4880   25.7100   38.7320 H   0  0  0  0  0  0  0  0  0  0  0  0
   34.3840   27.4260   37.4690 H   0  0  0  0  0  0  0  0  0  0  0  0
   35.1210   29.7050   37.5950 H   0  0  0  0  0  0  0  0  0  0  0  0
   37.6390   23.9830   41.8510 C   0  0  0  0  0  0  0  0  0  0  0  0
   36.8780   24.9760   41.2220 C   0  0  0  0  0  0  0  0  0  0  0  0
   37.5230   25.8310   40.3670 C   0  0  0  0  0  0  0  0  0  0  0  0
   38.8750   25.6690   40.1750 N   0  0  0  0  0  0  0  0  0  0  0  0
   39.5830   24.7030   40.7950 C   0  0  0  0  0  0  0  0  0  0  0  0
   38.9630   23.8620   41.6320 N   0  0  0  0  0  0  0  0  0  0  0  0
   37.0790   23.3230   42.5250 H   0  0  0  0  0  0  0  0  0  0  0  0
   35.8160   25.1200   41.3580 H   0  0  0  0  0  0  0  0  0  0  0  0
   40.6400   24.6720   40.5670 H   0  0  0  0  0  0  0  0  0  0  0  0
   37.3150   30.4720   39.1720 O   0  0  0  0  0  0  0  0  0  0  0  0
   37.3790   32.8240   40.3610 O   0  0  0  0  0  0  0  0  0  0  0  0
   37.2050   31.3590   40.6370 P   0  0  1  0  0  0  0  0  0  0  0  0
   35.6540   31.1020   41.2820 O   0  0  0  0  0  0  0  0  0  0  0  0
   35.6660   30.7070   42.1720 H   0  0  0  0  0  0  0  0  0  0  0  0
   38.3910   30.7870   41.6780 O   0  0  0  0  0  0  0  0  0  0  0  0
   40.8390   29.5390   41.6740 F   0  0  0  0  0  0  0  0  0  0  0  0
   39.7420   29.0130   42.3150 C   0  0  0  0  0  0  0  0  0  0  0  0
   38.4800   29.6110   42.3440 C   0  0  0  0  0  0  0  0  0  0  0  0
   37.5080   28.9240   43.0440 C   0  0  0  0  0  0  0  0  0  0  0  0
   36.5400   29.4060   43.0520 H   0  0  0  0  0  0  0  0  0  0  0  0
   37.7470   27.7230   43.6800 C   0  0  0  0  0  0  0  0  0  0  0  0
   36.8980   27.2930   44.1900 H   0  0  0  0  0  0  0  0  0  0  0  0
   39.0030   27.1430   43.6420 C   0  0  0  0  0  3  0  0  0  0  0  0
   39.9820   27.8210   42.9460 C   0  0  0  0  0  3  0  0  0  0  0  0
  1  6  1  0  0  0  0
  1 12  1  0  0  0  0
  2  1  2  0  0  0  0
  3  4  2  0  0  0  0
  3  2  1  0  0  0  0
  4  5  1  0  0  0  0
  5 19  1  0  0  0  0
  5  6  2  0  0  0  0
  7  2  1  0  0  0  0
  8  3  1  0  0  0  0
  9  4  1  0  0  0  0
 10 16  1  0  0  0  0
 11 17  1  0  0  0  0
 11 10  2  0  0  0  0
 12 11  1  0  0  0  0
 13 12  2  0  0  0  0
 13 14  1  0  0  0  0
 14 15  2  0  0  0  0
 15 10  1  0  0  0  0
 18 14  1  0  0  0  0
 19 21  1  0  0  0  0
 21 20  2  6  0  0  0
 21 22  1  0  0  0  0
 21 24  1  0  0  0  0
 22 23  1  0  0  0  0
 24 27  1  0  0  0  0
 25 26  1  0  0  0  0
 26 27  2  0  0  0  0
 26 33  1  0  0  0  0
 27 28  1  0  0  0  0
 28 29  1  0  0  0  0
 28 30  2  0  0  0  0
 30 31  1  0  0  0  0
 32 30  1  0  0  0  0
 33 32  2  0  0  0  0
M  END
>  <minimizedAffinity>
-5.8737998

$$$$

 OpenBabel03242522003D

 33 35  0  0  0  0  0  0  0  0999 V2000
   38.8840   28.1780   41.7500 C   0  0  0  0  0  0  0  0  0  0  0  0
   38.9220   28.9780   42.8780 C   0  0  0  0  0  0  0  0  0  0  0  0
   39.3090   30.3150   42.8850 C   0  0  0  0  0  0  0  0  0  0  0  0
   39.6810   30.8920   41.6880 C   0  0  0  0  0  0  0  0  0  0  0  0
   39.6350   30.0970   40.5970 C   0  0  0  0  0  0  0  0  0  0  0  0
   39.2610   28.8180   40.6170 N   0  0  0  0  0  0  0  0  0  0  0  0
   38.6100   28.4400   43.7870 H   0  0  0  0  0  0  0  0  0  0  0  0
   39.2630   30.7480   43.8830 H   0  0  0  0  0  0  0  0  0  0  0  0
   39.9570   31.9070   41.9020 H   0  0  0  0  0  0  0  0  0  0  0  0
   37.0290   24.9150   41.9190 C   0  0  0  0  0  0  0  0  0  0  0  0
   37.2130   26.3030   41.9210 C   0  0  0  0  0  0  0  0  0  0  0  0
   38.4880   26.7810   41.7720 C   0  0  0  0  0  0  0  0  0  0  0  0
   39.5140   25.8750   41.6300 N   0  0  0  0  0  0  0  0  0  0  0  0
   39.3080   24.5420   41.6310 C   0  0  0  0  0  0  0  0  0  0  0  0
   38.0660   24.0650   41.7750 N   0  0  0  0  0  0  0  0  0  0  0  0
   35.9910   24.5810   42.0400 H   0  0  0  0  0  0  0  0  0  0  0  0
   36.4210   27.0310   42.0310 H   0  0  0  0  0  0  0  0  0  0  0  0
   40.1900   23.9280   41.5110 H   0  0  0  0  0  0  0  0  0  0  0  0
   40.0020   30.6570   39.3870 O   0  0  0  0  0  0  0  0  0  0  0  0
   39.8140   33.2850   39.2900 O   0  0  0  0  0  0  0  0  0  0  0  0
   39.2150   32.0310   38.7240 P   0  0  1  0  0  0  0  0  0  0  0  0
   39.4680   32.0120   37.0430 O   0  0  0  0  0  0  0  0  0  0  0  0
   38.6420   31.9830   36.5280 H   0  0  0  0  0  0  0  0  0  0  0  0
   37.5800   31.9160   39.0850 O   0  0  0  0  0  0  0  0  0  0  0  0
   36.2740   31.1360   41.3740 F   0  0  0  0  0  0  0  0  0  0  0  0
   36.0890   30.5070   40.1660 C   0  0  0  0  0  0  0  0  0  0  0  0
   36.7300   30.8670   38.9790 C   0  0  0  0  0  0  0  0  0  0  0  0
   36.4080   30.1090   37.8700 C   0  0  0  0  0  0  0  0  0  0  0  0
   36.9170   30.4070   36.9640 H   0  0  0  0  0  0  0  0  0  0  0  0
   35.5140   29.0590   37.9120 C   0  0  0  0  0  0  0  0  0  0  0  0
   35.3530   28.5500   36.9730 H   0  0  0  0  0  0  0  0  0  0  0  0
   34.8860   28.7130   39.0960 C   0  0  0  0  0  3  0  0  0  0  0  0
   35.2000   29.4650   40.2100 C   0  0  0  0  0  3  0  0  0  0  0  0
  1 12  1  0  0  0  0
  1  2  1  0  0  0  0
  2  3  2  0  0  0  0
  2  7  1  0  0  0  0
  3  8  1  0  0  0  0
  4  9  1  0  0  0  0
  4  3  1  0  0  0  0
  5  6  1  0  0  0  0
  5  4  2  0  0  0  0
  6  1  2  0  0  0  0
 10 11  1  0  0  0  0
 10 16  1  0  0  0  0
 11 17  1  0  0  0  0
 12 11  2  0  0  0  0
 13 14  2  0  0  0  0
 13 12  1  0  0  0  0
 14 15  1  0  0  0  0
 15 10  2  0  0  0  0
 18 14  1  0  0  0  0
 19  5  1  0  0  0  0
 21 24  1  0  0  0  0
 21 20  2  1  0  0  0
 21 19  1  0  0  0  0
 22 21  1  0  0  0  0
 23 22  1  0  0  0  0
 26 33  1  0  0  0  0
 26 25  1  0  0  0  0
 27 24  1  0  0  0  0
 27 26  2  0  0  0  0
 28 30  2  0  0  0  0
 28 27  1  0  0  0  0
 29 28  1  0  0  0  0
 30 32  1  0  0  0  0
 31 30  1  0  0  0  0
 32 33  2  0  0  0  0
M  END
>  <minimizedAffinity>
-5.70841885

$$$$

 OpenBabel03242522003D

 33 35  0  0  0  0  0  0  0  0999 V2000
   37.0750   28.5550   39.2790 C   0  0  0  0  0  0  0  0  0  0  0  0
   35.9910   28.2330   38.4810 C   0  0  0  0  0  0  0  0  0  0  0  0
   35.6080   26.9360   38.1540 C   0  0  0  0  0  0  0  0  0  0  0  0
   36.3560   25.8900   38.6550 C   0  0  0  0  0  0  0  0  0  0  0  0
   37.4090   26.2230   39.4340 C   0  0  0  0  0  0  0  0  0  0  0  0
   37.7540   27.4740   39.7320 N   0  0  0  0  0  0  0  0  0  0  0  0
   35.4510   29.1250   38.1250 H   0  0  0  0  0  0  0  0  0  0  0  0
   34.7270   26.9190   37.5150 H   0  0  0  0  0  0  0  0  0  0  0  0
   35.9180   24.9840   38.2810 H   0  0  0  0  0  0  0  0  0  0  0  0
   37.1790   32.1840   40.2470 C   0  0  0  0  0  0  0  0  0  0  0  0
   36.6180   30.9270   39.9860 C   0  0  0  0  0  0  0  0  0  0  0  0
   37.4600   29.9190   39.5950 C   0  0  0  0  0  0  0  0  0  0  0  0
   38.8030   30.1950   39.4800 N   0  0  0  0  0  0  0  0  0  0  0  0
   39.3150   31.4150   39.7380 C   0  0  0  0  0  0  0  0  0  0  0  0
   38.5020   32.4070   40.1210 N   0  0  0  0  0  0  0  0  0  0  0  0
   36.4660   32.9580   40.5570 H   0  0  0  0  0  0  0  0  0  0  0  0
   35.5670   30.6900   40.0700 H   0  0  0  0  0  0  0  0  0  0  0  0
   40.3850   31.5140   39.6140 H   0  0  0  0  0  0  0  0  0  0  0  0
   38.1700   25.1890   39.9480 O   0  0  0  0  0  0  0  0  0  0  0  0
   36.3060   24.2700   41.5720 O   0  0  0  0  0  0  0  0  0  0  0  0
   37.7940   24.4080   41.4300 P   0  0  1  0  0  0  0  0  0  0  0  0
   38.4880   22.8570   41.3890 O   0  0  0  0  0  0  0  0  0  0  0  0
   39.1240   22.6990   42.1090 H   0  0  0  0  0  0  0  0  0  0  0  0
   38.4460   25.3230   42.6770 O   0  0  0  0  0  0  0  0  0  0  0  0
   36.2630   26.8040   43.4510 F   0  0  0  0  0  0  0  0  0  0  0  0
   37.4840   27.3730   43.1800 C   0  0  0  0  0  0  0  0  0  0  0  0
   38.6200   26.6630   42.7840 C   0  0  0  0  0  0  0  0  0  0  0  0
   39.7530   27.4200   42.5590 C   0  0  0  0  0  0  0  0  0  0  0  0
   40.6170   26.8470   42.2540 H   0  0  0  0  0  0  0  0  0  0  0  0
   39.7820   28.7910   42.7100 C   0  0  0  0  0  0  0  0  0  0  0  0
   40.7320   29.2590   42.5020 H   0  0  0  0  0  0  0  0  0  0  0  0
   38.6490   29.4820   43.1030 C   0  0  0  0  0  3  0  0  0  0  0  0
   37.5110   28.7350   43.3310 C   0  0  0  0  0  3  0  0  0  0  0  0
  1 12  1  0  0  0  0
  1  6  1  0  0  0  0
  2  1  2  0  0  0  0
  3  2  1  0  0  0  0
  3  4  2  0  0  0  0
  4  5  1  0  0  0  0
  5  6  2  0  0  0  0
  5 19  1  0  0  0  0
  7  2  1  0  0  0  0
  8  3  1  0  0  0  0
  9  4  1  0  0  0  0
 10 16  1  0  0  0  0
 11 17  1  0  0  0  0
 11 10  2  0  0  0  0
 12 11  1  0  0  0  0
 13 12  2  0  0  0  0
 13 14  1  0  0  0  0
 14 15  2  0  0  0  0
 15 10  1  0  0  0  0
 18 14  1  0  0  0  0
 19 21  1  0  0  0  0
 21 20  2  1  0  0  0
 21 24  1  0  0  0  0
 22 21  1  0  0  0  0
 22 23  1  0  0  0  0
 24 27  1  0  0  0  0
 26 33  1  0  0  0  0
 26 25  1  0  0  0  0
 27 26  2  0  0  0  0
 28 30  2  0  0  0  0
 28 27  1  0  0  0  0
 29 28  1  0  0  0  0
 30 32  1  0  0  0  0
 31 30  1  0  0  0  0
 32 33  2  0  0  0  0
M  END
>  <minimizedAffinity>
-5.53939533

$$$$

 OpenBabel03242522003D

 33 35  0  0  0  0  0  0  0  0999 V2000
   37.6670   28.4590   41.7720 C   0  0  0  0  0  0  0  0  0  0  0  0
   36.4630   28.0230   41.2490 C   0  0  0  0  0  0  0  0  0  0  0  0
   35.5160   28.8490   40.6490 C   0  0  0  0  0  0  0  0  0  0  0  0
   35.7910   30.1980   40.5630 C   0  0  0  0  0  0  0  0  0  0  0  0
   36.9720   30.6060   41.0770 C   0  0  0  0  0  0  0  0  0  0  0  0
   37.8610   29.7940   41.6470 N   0  0  0  0  0  0  0  0  0  0  0  0
   36.3250   26.9360   41.3580 H   0  0  0  0  0  0  0  0  0  0  0  0
   34.6450   28.2910   40.3100 H   0  0  0  0  0  0  0  0  0  0  0  0
   34.9450   30.6610   40.0910 H   0  0  0  0  0  0  0  0  0  0  0  0
   39.5520   25.5360   43.1940 C   0  0  0  0  0  0  0  0  0  0  0  0
   38.5120   26.2190   42.5510 C   0  0  0  0  0  0  0  0  0  0  0  0
   38.6310   27.5760   42.4050 C   0  0  0  0  0  0  0  0  0  0  0  0
   39.7600   28.1910   42.8960 N   0  0  0  0  0  0  0  0  0  0  0  0
   40.7460   27.5070   43.5110 C   0  0  0  0  0  0  0  0  0  0  0  0
   40.6400   26.1810   43.6590 N   0  0  0  0  0  0  0  0  0  0  0  0
   39.4120   24.4520   43.2860 H   0  0  0  0  0  0  0  0  0  0  0  0
   37.6180   25.7560   42.1580 H   0  0  0  0  0  0  0  0  0  0  0  0
   41.5850   28.0970   43.8560 H   0  0  0  0  0  0  0  0  0  0  0  0
   37.2680   31.9550   40.9990 O   0  0  0  0  0  0  0  0  0  0  0  0
   38.8520   34.0430   40.7140 O   0  0  0  0  0  0  0  0  0  0  0  0
   38.8520   32.5420   40.6970 P   0  0  1  0  0  0  0  0  0  0  0  0
   39.8590   31.9800   41.9450 O   0  0  0  0  0  0  0  0  0  0  0  0
   40.6010   31.4350   41.6280 H   0  0  0  0  0  0  0  0  0  0  0  0
   39.3510   31.9460   39.2100 O   0  0  0  0  0  0  0  0  0  0  0  0
   37.2190   32.4960   37.5640 F   0  0  0  0  0  0  0  0  0  0  0  0
   37.7850   31.2460   37.6480 C   0  0  0  0  0  0  0  0  0  0  0  0
   38.8670   30.9190   38.4690 C   0  0  0  0  0  0  0  0  0  0  0  0
   39.2900   29.6060   38.4100 C   0  0  0  0  0  0  0  0  0  0  0  0
   40.1280   29.3790   39.0540 H   0  0  0  0  0  0  0  0  0  0  0  0
   38.6950   28.6620   37.6000 C   0  0  0  0  0  0  0  0  0  0  0  0
   39.1250   27.6720   37.6500 H   0  0  0  0  0  0  0  0  0  0  0  0
   37.6230   28.9990   36.7920 C   0  0  0  0  0  3  0  0  0  0  0  0
   37.1930   30.3090   36.8420 C   0  0  0  0  0  3  0  0  0  0  0  0
  1 12  1  0  0  0  0
  2  7  1  0  0  0  0
  2  1  2  0  0  0  0
  3  2  1  0  0  0  0
  4  3  2  0  0  0  0
  4  5  1  0  0  0  0
  5  6  2  0  0  0  0
  6  1  1  0  0  0  0
  8  3  1  0  0  0  0
  9  4  1  0  0  0  0
 10 16  1  0  0  0  0
 10 15  1  0  0  0  0
 11 10  2  0  0  0  0
 12 11  1  0  0  0  0
 12 13  2  0  0  0  0
 13 14  1  0  0  0  0
 14 15  2  0  0  0  0
 14 18  1  0  0  0  0
 17 11  1  0  0  0  0
 19  5  1  0  0  0  0
 21 20  2  6  0  0  0
 21 19  1  0  0  0  0
 21 22  1  0  0  0  0
 23 22  1  0  0  0  0
 24 21  1  0  0  0  0
 25 26  1  0  0  0  0
 26 27  1  0  0  0  0
 27 24  1  0  0  0  0
 28 27  2  0  0  0  0
 28 29  1  0  0  0  0
 30 31  1  0  0  0  0
 30 28  1  0  0  0  0
 32 33  1  0  0  0  0
 32 30  2  0  0  0  0
 33 26  2  0  0  0  0
M  END
>  <minimizedAffinity>
-5.5173111

$$$$

 OpenBabel03242522003D

 33 35  0  0  0  0  0  0  0  0999 V2000
   36.8190   29.9910   38.1090 C   0  0  0  0  0  0  0  0  0  0  0  0
   37.3930   31.1860   37.7130 C   0  0  0  0  0  0  0  0  0  0  0  0
   38.5110   31.7610   38.3090 C   0  0  0  0  0  0  0  0  0  0  0  0
   39.0960   31.1010   39.3700 C   0  0  0  0  0  0  0  0  0  0  0  0
   38.5230   29.9350   39.7420 C   0  0  0  0  0  0  0  0  0  0  0  0
   37.4510   29.4050   39.1540 N   0  0  0  0  0  0  0  0  0  0  0  0
   36.8650   31.6450   36.8620 H   0  0  0  0  0  0  0  0  0  0  0  0
   38.7890   32.7010   37.8340 H   0  0  0  0  0  0  0  0  0  0  0  0
   39.9210   31.7030   39.6990 H   0  0  0  0  0  0  0  0  0  0  0  0
   33.4910   28.4290   37.3330 C   0  0  0  0  0  0  0  0  0  0  0  0
   34.5280   28.9470   38.1190 C   0  0  0  0  0  0  0  0  0  0  0  0
   35.6430   29.4190   37.4770 C   0  0  0  0  0  0  0  0  0  0  0  0
   35.6820   29.3590   36.1030 N   0  0  0  0  0  0  0  0  0  0  0  0
   34.6670   28.8550   35.3720 C   0  0  0  0  0  0  0  0  0  0  0  0
   33.5730   28.3910   35.9880 N   0  0  0  0  0  0  0  0  0  0  0  0
   32.6200   28.0630   37.8920 H   0  0  0  0  0  0  0  0  0  0  0  0
   34.5170   29.0030   39.1980 H   0  0  0  0  0  0  0  0  0  0  0  0
   34.8100   28.8590   34.2990 H   0  0  0  0  0  0  0  0  0  0  0  0
   39.0950   29.2550   40.8020 O   0  0  0  0  0  0  0  0  0  0  0  0
   39.3570   30.5090   43.1070 O   0  0  0  0  0  0  0  0  0  0  0  0
   38.5570   29.4400   42.4220 P   0  0  1  0  0  0  0  0  0  0  0  0
   36.9270   29.9180   42.3750 O   0  0  0  0  0  0  0  0  0  0  0  0
   36.3300   29.3010   42.8340 H   0  0  0  0  0  0  0  0  0  0  0  0
   38.7250   27.9590   43.1940 O   0  0  0  0  0  0  0  0  0  0  0  0
   36.1640   26.9660   43.1210 F   0  0  0  0  0  0  0  0  0  0  0  0
   37.2520   26.2370   42.7010 C   0  0  0  0  0  0  0  0  0  0  0  0
   38.5700   26.6990   42.7200 C   0  0  0  0  0  0  0  0  0  0  0  0
   39.5220   25.8140   42.2550 C   0  0  0  0  0  0  0  0  0  0  0  0
   40.5340   26.1940   42.2810 H   0  0  0  0  0  0  0  0  0  0  0  0
   39.2120   24.5500   41.7980 C   0  0  0  0  0  0  0  0  0  0  0  0
   40.0530   23.9600   41.4630 H   0  0  0  0  0  0  0  0  0  0  0  0
   37.9020   24.1050   41.7850 C   0  0  0  0  0  3  0  0  0  0  0  0
   36.9420   24.9820   42.2470 C   0  0  0  0  0  3  0  0  0  0  0  0
  1  6  1  0  0  0  0
  2  1  2  0  0  0  0
  2  3  1  0  0  0  0
  3  4  2  0  0  0  0
  4  9  1  0  0  0  0
  4  5  1  0  0  0  0
  5 19  1  0  0  0  0
  6  5  2  0  0  0  0
  7  2  1  0  0  0  0
  8  3  1  0  0  0  0
 10 16  1  0  0  0  0
 10 11  1  0  0  0  0
 11 17  1  0  0  0  0
 12  1  1  0  0  0  0
 12 11  2  0  0  0  0
 13 12  1  0  0  0  0
 14 15  1  0  0  0  0
 14 13  2  0  0  0  0
 15 10  2  0  0  0  0
 18 14  1  0  0  0  0
 19 21  1  0  0  0  0
 21 20  2  1  0  0  0
 21 24  1  0  0  0  0
 22 21  1  0  0  0  0
 22 23  1  0  0  0  0
 26 27  1  0  0  0  0
 26 25  1  0  0  0  0
 27 24  1  0  0  0  0
 28 29  1  0  0  0  0
 28 27  2  0  0  0  0
 30 28  1  0  0  0  0
 31 30  1  0  0  0  0
 32 30  2  0  0  0  0
 32 33  1  0  0  0  0
 33 26  2  0  0  0  0
M  END
>  <minimizedAffinity>
-5.50355339

$$$$

 OpenBabel03242522003D

 33 35  0  0  0  0  0  0  0  0999 V2000
   37.1940   26.8320   41.4890 C   0  0  0  0  0  0  0  0  0  0  0  0
   37.1480   26.8270   42.8720 C   0  0  0  0  0  0  0  0  0  0  0  0
   37.4180   27.9310   43.6760 C   0  0  0  0  0  0  0  0  0  0  0  0
   37.7540   29.1190   43.0590 C   0  0  0  0  0  0  0  0  0  0  0  0
   37.7910   29.1060   41.7080 C   0  0  0  0  0  0  0  0  0  0  0  0
   37.5290   28.0340   40.9620 N   0  0  0  0  0  0  0  0  0  0  0  0
   36.8720   25.8420   43.2810 H   0  0  0  0  0  0  0  0  0  0  0  0
   37.3210   27.6980   44.7350 H   0  0  0  0  0  0  0  0  0  0  0  0
   37.9390   29.8350   43.8370 H   0  0  0  0  0  0  0  0  0  0  0  0
   36.7070   23.3570   40.1450 C   0  0  0  0  0  0  0  0  0  0  0  0
   37.0120   24.3550   41.0790 C   0  0  0  0  0  0  0  0  0  0  0  0
   36.9210   25.6610   40.6750 C   0  0  0  0  0  0  0  0  0  0  0  0
   36.5370   25.9200   39.3790 N   0  0  0  0  0  0  0  0  0  0  0  0
   36.2490   24.9380   38.5000 C   0  0  0  0  0  0  0  0  0  0  0  0
   36.3350   23.6590   38.8850 N   0  0  0  0  0  0  0  0  0  0  0  0
   36.7940   22.3280   40.5150 H   0  0  0  0  0  0  0  0  0  0  0  0
   37.3150   24.1730   42.1010 H   0  0  0  0  0  0  0  0  0  0  0  0
   35.9580   25.2620   37.5100 H   0  0  0  0  0  0  0  0  0  0  0  0
   38.1230   30.2870   41.0710 O   0  0  0  0  0  0  0  0  0  0  0  0
   35.6260   30.6250   40.2950 O   0  0  0  0  0  0  0  0  0  0  0  0
   37.0140   31.1580   40.0920 P   0  0  1  0  0  0  0  0  0  0  0  0
   37.0550   32.7840   40.5840 O   0  0  0  0  0  0  0  0  0  0  0  0
   37.3080   33.3970   39.8710 H   0  0  0  0  0  0  0  0  0  0  0  0
   37.5020   31.0020   38.4930 O   0  0  0  0  0  0  0  0  0  0  0  0
   35.5580   29.6730   37.0760 F   0  0  0  0  0  0  0  0  0  0  0  0
   36.8700   29.2640   37.0930 C   0  0  0  0  0  0  0  0  0  0  0  0
   37.8910   29.9060   37.7970 C   0  0  0  0  0  0  0  0  0  0  0  0
   39.1460   29.3400   37.6860 C   0  0  0  0  0  0  0  0  0  0  0  0
   39.9180   29.8540   38.2400 H   0  0  0  0  0  0  0  0  0  0  0  0
   39.3940   28.2110   36.9320 C   0  0  0  0  0  0  0  0  0  0  0  0
   40.4200   27.8730   36.9310 H   0  0  0  0  0  0  0  0  0  0  0  0
   38.3730   27.5850   36.2400 C   0  0  0  0  0  3  0  0  0  0  0  0
   37.1160   28.1440   36.3440 C   0  0  0  0  0  3  0  0  0  0  0  0
  1  2  1  0  0  0  0
  2  7  1  0  0  0  0
  2  3  2  0  0  0  0
  3  8  1  0  0  0  0
  4  3  1  0  0  0  0
  4  9  1  0  0  0  0
  5  4  2  0  0  0  0
  6  1  2  0  0  0  0
  6  5  1  0  0  0  0
 10 16  1  0  0  0  0
 10 11  1  0  0  0  0
 11 17  1  0  0  0  0
 12 11  2  0  0  0  0
 12  1  1  0  0  0  0
 13 12  1  0  0  0  0
 14 15  1  0  0  0  0
 14 13  2  0  0  0  0
 15 10  2  0  0  0  0
 18 14  1  0  0  0  0
 19  5  1  0  0  0  0
 21 20  2  1  0  0  0
 21 22  1  0  0  0  0
 21 19  1  0  0  0  0
 23 22  1  0  0  0  0
 24 21  1  0  0  0  0
 25 26  1  0  0  0  0
 26 27  1  0  0  0  0
 27 24  1  0  0  0  0
 28 27  2  0  0  0  0
 28 29  1  0  0  0  0
 30 28  1  0  0  0  0
 31 30  1  0  0  0  0
 32 33  1  0  0  0  0
 32 30  2  0  0  0  0
 33 26  2  0  0  0  0
M  END
>  <minimizedAffinity>
-5.48462534

$$$$

 OpenBabel03242522003D

 33 35  0  0  0  0  0  0  0  0999 V2000
   37.2150   26.8200   41.5420 C   0  0  0  0  0  0  0  0  0  0  0  0
   37.8540   26.7700   42.7680 C   0  0  0  0  0  0  0  0  0  0  0  0
   38.0710   27.8710   43.5910 C   0  0  0  0  0  0  0  0  0  0  0  0
   37.6200   29.1030   43.1630 C   0  0  0  0  0  0  0  0  0  0  0  0
   36.9970   29.1320   41.9650 C   0  0  0  0  0  0  0  0  0  0  0  0
   36.8020   28.0630   41.1950 N   0  0  0  0  0  0  0  0  0  0  0  0
   38.1800   25.7510   43.0320 H   0  0  0  0  0  0  0  0  0  0  0  0
   38.5920   27.5980   44.5080 H   0  0  0  0  0  0  0  0  0  0  0  0
   37.8940   29.8160   43.9170 H   0  0  0  0  0  0  0  0  0  0  0  0
   36.3670   24.4280   38.7710 C   0  0  0  0  0  0  0  0  0  0  0  0
   36.4840   25.6560   39.4320 C   0  0  0  0  0  0  0  0  0  0  0  0
   37.0130   25.6560   40.6960 C   0  0  0  0  0  0  0  0  0  0  0  0
   37.3990   24.4540   41.2440 N   0  0  0  0  0  0  0  0  0  0  0  0
   37.2750   23.2850   40.5830 C   0  0  0  0  0  0  0  0  0  0  0  0
   36.7590   23.2740   39.3480 N   0  0  0  0  0  0  0  0  0  0  0  0
   35.9380   24.4790   37.7620 H   0  0  0  0  0  0  0  0  0  0  0  0
   36.1870   26.6110   39.0200 H   0  0  0  0  0  0  0  0  0  0  0  0
   37.6120   22.4050   41.1140 H   0  0  0  0  0  0  0  0  0  0  0  0
   36.5350   30.3570   41.5190 O   0  0  0  0  0  0  0  0  0  0  0  0
   36.5540   30.9590   38.9520 O   0  0  0  0  0  0  0  0  0  0  0  0
   37.2830   31.2200   40.2370 P   0  0  1  0  0  0  0  0  0  0  0  0
   37.1800   32.8780   40.5990 O   0  0  0  0  0  0  0  0  0  0  0  0
   38.0480   33.3150   40.6580 H   0  0  0  0  0  0  0  0  0  0  0  0
   38.8840   30.7250   40.1440 O   0  0  0  0  0  0  0  0  0  0  0  0
   40.2350   32.8490   39.0410 F   0  0  0  0  0  0  0  0  0  0  0  0
   40.6320   32.2480   40.2110 C   0  0  0  0  0  0  0  0  0  0  0  0
   39.9790   31.1670   40.8090 C   0  0  0  0  0  0  0  0  0  0  0  0
   40.5360   30.7060   41.9850 C   0  0  0  0  0  0  0  0  0  0  0  0
   40.0130   29.8700   42.4270 H   0  0  0  0  0  0  0  0  0  0  0  0
   41.6650   31.2620   42.5490 C   0  0  0  0  0  0  0  0  0  0  0  0
   41.9950   30.8040   43.4700 H   0  0  0  0  0  0  0  0  0  0  0  0
   42.3030   32.3320   41.9460 C   0  0  0  0  0  3  0  0  0  0  0  0
   41.7540   32.8020   40.7700 C   0  0  0  0  0  3  0  0  0  0  0  0
  1  2  1  0  0  0  0
  2  7  1  0  0  0  0
  2  3  2  0  0  0  0
  3  8  1  0  0  0  0
  4  3  1  0  0  0  0
  4  9  1  0  0  0  0
  5  4  2  0  0  0  0
  6  1  2  0  0  0  0
  6  5  1  0  0  0  0
 10 15  2  0  0  0  0
 10 11  1  0  0  0  0
 11 12  2  0  0  0  0
 12 13  1  0  0  0  0
 12  1  1  0  0  0  0
 14 18  1  0  0  0  0
 14 13  2  0  0  0  0
 15 14  1  0  0  0  0
 16 10  1  0  0  0  0
 17 11  1  0  0  0  0
 19  5  1  0  0  0  0
 21 20  2  6  0  0  0
 21 22  1  0  0  0  0
 21 19  1  0  0  0  0
 22 23  1  0  0  0  0
 24 21  1  0  0  0  0
 24 27  1  0  0  0  0
 25 26  1  0  0  0  0
 26 33  2  0  0  0  0
 26 27  1  0  0  0  0
 27 28  2  0  0  0  0
 28 29  1  0  0  0  0
 28 30  1  0  0  0  0
 30 31  1  0  0  0  0
 32 30  2  0  0  0  0
 33 32  1  0  0  0  0
M  END
>  <minimizedAffinity>
-5.46053362

$$$$
