
 OpenBabel03242517143D

 23 24  0  0  0  0  0  0  0  0999 V2000
   36.8880   27.6640   43.1560 C   0  0  0  0  0  0  0  0  0  0  0  0
   36.0890   27.3740   42.4290 H   0  0  0  0  0  0  0  0  0  0  0  0
   36.4030   27.6320   44.1440 H   0  0  0  0  0  0  0  0  0  0  0  0
   36.6940   25.2430   41.7990 F   0  0  0  0  0  0  0  0  0  0  0  0
   37.8730   25.5190   42.4170 C   0  0  0  0  0  0  0  0  0  0  0  0
   38.0060   26.7270   43.1100 C   0  0  0  0  0  0  0  0  0  0  0  0
   39.2460   26.8640   43.6790 C   0  0  0  0  0  0  0  0  0  0  0  0
   39.4160   27.7870   44.2340 H   0  0  0  0  0  0  0  0  0  0  0  0
   40.3060   25.9950   43.6440 C   0  0  0  0  0  0  0  0  0  0  0  0
   41.2460   26.2030   44.1310 H   0  0  0  0  0  0  0  0  0  0  0  0
   40.0570   24.8220   42.9240 C   0  0  0  0  0  3  0  0  0  0  0  0
   38.8550   24.5460   42.2960 C   0  0  0  0  0  3  0  0  0  0  0  0
   37.3560   29.4850   41.5690 C   0  0  0  0  0  3  0  0  0  0  0  0
   37.3440   29.0400   42.7990 C   0  0  0  0  0  3  0  0  0  0  0  0
   39.0460   31.3520   41.4760 C   0  0  0  0  0  0  0  0  0  0  0  0
   37.7850   30.8110   41.1390 C   0  0  0  0  0  0  0  0  0  0  0  0
   36.9290   31.5890   40.3670 C   0  0  0  0  0  0  0  0  0  0  0  0
   37.3630   32.8260   39.9850 N   0  0  0  0  0  0  0  0  0  0  0  0
   38.5650   33.3110   40.3190 C   0  0  0  0  0  0  0  0  0  0  0  0
   39.3990   32.5670   41.0640 N   0  0  0  0  0  0  0  0  0  0  0  0
   39.7150   30.7650   42.0680 H   0  0  0  0  0  0  0  0  0  0  0  0
   35.9750   31.1610   40.1220 H   0  0  0  0  0  0  0  0  0  0  0  0
   38.6490   34.3010   39.8910 H   0  0  0  0  0  0  0  0  0  0  0  0
  1  3  1  0  0  0  0
  2  1  1  0  0  0  0
  4  5  1  0  0  0  0
  5  6  1  0  0  0  0
  6  1  1  0  0  0  0
  6  7  2  0  0  0  0
  7  8  1  0  0  0  0
  9  7  1  0  0  0  0
  9 10  1  0  0  0  0
 11  9  2  0  0  0  0
 12  5  2  0  0  0  0
 12 11  1  0  0  0  0
 13 14  2  0  0  0  0
 14  1  1  0  0  0  0
 15 21  1  0  0  0  0
 16 15  1  0  0  0  0
 16 13  1  0  0  0  0
 17 16  2  0  0  0  0
 18 19  2  0  0  0  0
 18 17  1  0  0  0  0
 19 20  1  0  0  0  0
 20 15  2  0  0  0  0
 22 17  1  0  0  0  0
 23 19  1  0  0  0  0
M  END
>  <minimizedAffinity>
-4.99194002

$$$$

 OpenBabel03242517143D

 23 24  0  0  0  0  0  0  0  0999 V2000
   35.4160   28.9890   40.6680 C   0  0  0  0  0  0  0  0  0  0  0  0
   34.9040   29.2610   41.6250 H   0  0  0  0  0  0  0  0  0  0  0  0
   34.6080   28.6790   39.9890 H   0  0  0  0  0  0  0  0  0  0  0  0
   35.9620   29.1730   37.9470 F   0  0  0  0  0  0  0  0  0  0  0  0
   36.3920   30.1910   38.7400 C   0  0  0  0  0  0  0  0  0  0  0  0
   36.1350   30.1310   40.1130 C   0  0  0  0  0  0  0  0  0  0  0  0
   36.6270   31.2240   40.7810 C   0  0  0  0  0  0  0  0  0  0  0  0
   36.4590   31.2390   41.8580 H   0  0  0  0  0  0  0  0  0  0  0  0
   37.3030   32.3030   40.2750 C   0  0  0  0  0  0  0  0  0  0  0  0
   37.6500   33.1170   40.8950 H   0  0  0  0  0  0  0  0  0  0  0  0
   37.5020   32.2540   38.8920 C   0  0  0  0  0  3  0  0  0  0  0  0
   37.0620   31.2170   38.0890 C   0  0  0  0  0  3  0  0  0  0  0  0
   36.9260   27.7130   42.1340 C   0  0  0  0  0  3  0  0  0  0  0  0
   36.3590   27.8700   40.9650 C   0  0  0  0  0  3  0  0  0  0  0  0
   37.7250   25.3250   42.0310 C   0  0  0  0  0  0  0  0  0  0  0  0
   37.8560   26.6510   42.5020 C   0  0  0  0  0  0  0  0  0  0  0  0
   38.9170   26.9380   43.3530 C   0  0  0  0  0  0  0  0  0  0  0  0
   39.7650   25.9180   43.6790 N   0  0  0  0  0  0  0  0  0  0  0  0
   39.6180   24.6710   43.2150 C   0  0  0  0  0  0  0  0  0  0  0  0
   38.5960   24.3850   42.3920 N   0  0  0  0  0  0  0  0  0  0  0  0
   36.9150   25.0910   41.3760 H   0  0  0  0  0  0  0  0  0  0  0  0
   38.9990   27.9500   43.7000 H   0  0  0  0  0  0  0  0  0  0  0  0
   40.4180   24.0720   43.6260 H   0  0  0  0  0  0  0  0  0  0  0  0
  1 14  1  0  0  0  0
  1  2  1  0  0  0  0
  3  1  1  0  0  0  0
  4  5  1  0  0  0  0
  5  6  1  0  0  0  0
  6  1  1  0  0  0  0
  6  7  2  0  0  0  0
  7  8  1  0  0  0  0
  9  7  1  0  0  0  0
  9 10  1  0  0  0  0
 11  9  2  0  0  0  0
 12  5  2  0  0  0  0
 12 11  1  0  0  0  0
 13 16  1  0  0  0  0
 14 13  2  0  0  0  0
 15 20  2  0  0  0  0
 15 16  1  0  0  0  0
 16 17  2  0  0  0  0
 17 18  1  0  0  0  0
 17 22  1  0  0  0  0
 19 23  1  0  0  0  0
 19 18  2  0  0  0  0
 20 19  1  0  0  0  0
 21 15  1  0  0  0  0
M  END
>  <minimizedAffinity>
-4.98574591

$$$$

 OpenBabel03242517143D

 23 24  0  0  0  0  0  0  0  0999 V2000
   35.5020   28.7780   40.2060 C   0  0  0  0  0  0  0  0  0  0  0  0
   34.9570   29.0990   41.1290 H   0  0  0  0  0  0  0  0  0  0  0  0
   34.7240   28.3760   39.5390 H   0  0  0  0  0  0  0  0  0  0  0  0
   36.0710   31.1020   41.6250 F   0  0  0  0  0  0  0  0  0  0  0  0
   36.4490   31.0600   40.3200 C   0  0  0  0  0  0  0  0  0  0  0  0
   36.1790   29.9070   39.5760 C   0  0  0  0  0  0  0  0  0  0  0  0
   36.6170   30.0110   38.2800 C   0  0  0  0  0  0  0  0  0  0  0  0
   36.4370   29.1430   37.6450 H   0  0  0  0  0  0  0  0  0  0  0  0
   37.2540   31.0630   37.6740 C   0  0  0  0  0  0  0  0  0  0  0  0
   37.5590   31.0400   36.6380 H   0  0  0  0  0  0  0  0  0  0  0  0
   37.4710   32.1590   38.5130 C   0  0  0  0  0  3  0  0  0  0  0  0
   37.0840   32.1970   39.8410 C   0  0  0  0  0  3  0  0  0  0  0  0
   36.7990   27.4930   41.8570 C   0  0  0  0  0  3  0  0  0  0  0  0
   36.4900   27.7340   40.6080 C   0  0  0  0  0  3  0  0  0  0  0  0
   38.8240   26.8120   43.1940 C   0  0  0  0  0  0  0  0  0  0  0  0
   37.7510   26.4950   42.3300 C   0  0  0  0  0  0  0  0  0  0  0  0
   37.6130   25.1730   41.9220 C   0  0  0  0  0  0  0  0  0  0  0  0
   38.5240   24.2660   42.3830 N   0  0  0  0  0  0  0  0  0  0  0  0
   39.5300   24.5960   43.2020 C   0  0  0  0  0  0  0  0  0  0  0  0
   39.6710   25.8700   43.6020 N   0  0  0  0  0  0  0  0  0  0  0  0
   38.9420   27.8230   43.5160 H   0  0  0  0  0  0  0  0  0  0  0  0
   36.7920   24.9520   41.2660 H   0  0  0  0  0  0  0  0  0  0  0  0
   40.0930   23.6960   43.4070 H   0  0  0  0  0  0  0  0  0  0  0  0
  1 14  1  0  0  0  0
  1  2  1  0  0  0  0
  3  1  1  0  0  0  0
  5  4  1  0  0  0  0
  6  1  1  0  0  0  0
  6  5  2  0  0  0  0
  7  6  1  0  0  0  0
  8  7  1  0  0  0  0
  9  7  2  0  0  0  0
  9 11  1  0  0  0  0
 10  9  1  0  0  0  0
 11 12  2  0  0  0  0
 12  5  1  0  0  0  0
 13 16  1  0  0  0  0
 14 13  2  0  0  0  0
 15 21  1  0  0  0  0
 15 20  1  0  0  0  0
 16 15  2  0  0  0  0
 17 16  1  0  0  0  0
 17 18  2  0  0  0  0
 18 19  1  0  0  0  0
 19 23  1  0  0  0  0
 19 20  2  0  0  0  0
 22 17  1  0  0  0  0
M  END
>  <minimizedAffinity>
-4.97906733

$$$$

 OpenBabel03242517143D

 23 24  0  0  0  0  0  0  0  0999 V2000
   36.5430   27.5270   42.7830 C   0  0  0  0  0  0  0  0  0  0  0  0
   35.4950   27.1480   42.8790 H   0  0  0  0  0  0  0  0  0  0  0  0
   36.7220   28.1140   43.6970 H   0  0  0  0  0  0  0  0  0  0  0  0
   39.1700   27.8070   43.6540 F   0  0  0  0  0  0  0  0  0  0  0  0
   38.8080   26.6010   43.1430 C   0  0  0  0  0  0  0  0  0  0  0  0
   37.4950   26.4240   42.6940 C   0  0  0  0  0  0  0  0  0  0  0  0
   37.2790   25.1600   42.2070 C   0  0  0  0  0  0  0  0  0  0  0  0
   36.2720   24.9560   41.8420 H   0  0  0  0  0  0  0  0  0  0  0  0
   38.1610   24.1140   42.1180 C   0  0  0  0  0  0  0  0  0  0  0  0
   37.8840   23.1520   41.7140 H   0  0  0  0  0  0  0  0  0  0  0  0
   39.4420   24.4070   42.5960 C   0  0  0  0  0  3  0  0  0  0  0  0
   39.8060   25.6360   43.1150 C   0  0  0  0  0  3  0  0  0  0  0  0
   37.0590   29.5990   41.5600 C   0  0  0  0  0  3  0  0  0  0  0  0
   36.6060   28.3720   41.5530 C   0  0  0  0  0  3  0  0  0  0  0  0
   37.1320   30.0120   39.0750 C   0  0  0  0  0  0  0  0  0  0  0  0
   37.1530   30.4870   40.4060 C   0  0  0  0  0  0  0  0  0  0  0  0
   37.2700   31.8580   40.6070 C   0  0  0  0  0  0  0  0  0  0  0  0
   37.3580   32.6570   39.5030 N   0  0  0  0  0  0  0  0  0  0  0  0
   37.3340   32.1790   38.2530 C   0  0  0  0  0  0  0  0  0  0  0  0
   37.2210   30.8570   38.0490 N   0  0  0  0  0  0  0  0  0  0  0  0
   37.0420   28.9620   38.9050 H   0  0  0  0  0  0  0  0  0  0  0  0
   37.2830   32.1980   41.6250 H   0  0  0  0  0  0  0  0  0  0  0  0
   37.4200   33.0200   37.5790 H   0  0  0  0  0  0  0  0  0  0  0  0
  1  2  1  0  0  0  0
  1  3  1  0  0  0  0
  5  4  1  0  0  0  0
  6  1  1  0  0  0  0
  6  5  2  0  0  0  0
  7  6  1  0  0  0  0
  8  7  1  0  0  0  0
  9  7  2  0  0  0  0
  9 11  1  0  0  0  0
 10  9  1  0  0  0  0
 11 12  2  0  0  0  0
 12  5  1  0  0  0  0
 14 13  2  0  0  0  0
 14  1  1  0  0  0  0
 15 16  1  0  0  0  0
 16 17  2  0  0  0  0
 16 13  1  0  0  0  0
 17 22  1  0  0  0  0
 18 17  1  0  0  0  0
 19 18  2  0  0  0  0
 20 19  1  0  0  0  0
 20 15  2  0  0  0  0
 21 15  1  0  0  0  0
 23 19  1  0  0  0  0
M  END
>  <minimizedAffinity>
-4.8447566

$$$$

 OpenBabel03242517143D

 23 24  0  0  0  0  0  0  0  0999 V2000
   36.6860   27.0670   43.1160 C   0  0  0  0  0  0  0  0  0  0  0  0
   35.6040   26.8380   43.2840 H   0  0  0  0  0  0  0  0  0  0  0  0
   37.0970   27.2620   44.1180 H   0  0  0  0  0  0  0  0  0  0  0  0
   39.3620   26.5270   43.6510 F   0  0  0  0  0  0  0  0  0  0  0  0
   38.7180   25.6950   42.7900 C   0  0  0  0  0  0  0  0  0  0  0  0
   37.3720   25.9360   42.4970 C   0  0  0  0  0  0  0  0  0  0  0  0
   36.8600   25.0170   41.6170 C   0  0  0  0  0  0  0  0  0  0  0  0
   35.8110   25.1490   41.3470 H   0  0  0  0  0  0  0  0  0  0  0  0
   37.4900   23.9510   41.0290 C   0  0  0  0  0  0  0  0  0  0  0  0
   36.9890   23.2840   40.3440 H   0  0  0  0  0  0  0  0  0  0  0  0
   38.8320   23.8090   41.3960 C   0  0  0  0  0  3  0  0  0  0  0  0
   39.4830   24.6590   42.2720 C   0  0  0  0  0  3  0  0  0  0  0  0
   37.6450   29.2180   42.4050 C   0  0  0  0  0  3  0  0  0  0  0  0
   36.7600   28.2690   42.2340 C   0  0  0  0  0  3  0  0  0  0  0  0
   38.9920   31.1480   41.5030 C   0  0  0  0  0  0  0  0  0  0  0  0
   37.7840   30.4210   41.5910 C   0  0  0  0  0  0  0  0  0  0  0  0
   36.6900   30.8850   40.8670 C   0  0  0  0  0  0  0  0  0  0  0  0
   36.8570   32.0150   40.1180 N   0  0  0  0  0  0  0  0  0  0  0  0
   38.0150   32.6820   40.0530 C   0  0  0  0  0  0  0  0  0  0  0  0
   39.0760   32.2410   40.7480 N   0  0  0  0  0  0  0  0  0  0  0  0
   39.8400   30.8020   42.0520 H   0  0  0  0  0  0  0  0  0  0  0  0
   35.7820   30.3190   40.9470 H   0  0  0  0  0  0  0  0  0  0  0  0
   37.8690   33.5280   39.3960 H   0  0  0  0  0  0  0  0  0  0  0  0
  1  2  1  0  0  0  0
  1  3  1  0  0  0  0
  5  4  1  0  0  0  0
  6  5  1  0  0  0  0
  6  1  1  0  0  0  0
  7  6  2  0  0  0  0
  8  7  1  0  0  0  0
  9 11  2  0  0  0  0
  9  7  1  0  0  0  0
 10  9  1  0  0  0  0
 11 12  1  0  0  0  0
 12  5  2  0  0  0  0
 14 13  2  0  0  0  0
 14  1  1  0  0  0  0
 15 16  1  0  0  0  0
 15 21  1  0  0  0  0
 16 13  1  0  0  0  0
 17 22  1  0  0  0  0
 17 16  2  0  0  0  0
 18 17  1  0  0  0  0
 19 18  2  0  0  0  0
 19 20  1  0  0  0  0
 20 15  2  0  0  0  0
 23 19  1  0  0  0  0
M  END
>  <minimizedAffinity>
-4.7819953

$$$$

 OpenBabel03242517143D

 23 24  0  0  0  0  0  0  0  0999 V2000
   38.9310   27.1420   43.5660 C   0  0  0  0  0  0  0  0  0  0  0  0
   38.4400   27.0040   44.5610 H   0  0  0  0  0  0  0  0  0  0  0  0
   40.0090   27.1910   43.7830 H   0  0  0  0  0  0  0  0  0  0  0  0
   36.3290   26.2450   43.1610 F   0  0  0  0  0  0  0  0  0  0  0  0
   37.3230   25.5960   42.4970 C   0  0  0  0  0  0  0  0  0  0  0  0
   38.6430   26.0200   42.6780 C   0  0  0  0  0  0  0  0  0  0  0  0
   39.5330   25.2730   41.9470 C   0  0  0  0  0  0  0  0  0  0  0  0
   40.5820   25.5540   42.0420 H   0  0  0  0  0  0  0  0  0  0  0  0
   39.2780   24.2190   41.1080 C   0  0  0  0  0  0  0  0  0  0  0  0
   40.0590   23.6960   40.5760 H   0  0  0  0  0  0  0  0  0  0  0  0
   37.9240   23.8850   41.0060 C   0  0  0  0  0  3  0  0  0  0  0  0
   36.9160   24.5480   41.6830 C   0  0  0  0  0  3  0  0  0  0  0  0
   39.1340   29.1710   42.1890 C   0  0  0  0  0  3  0  0  0  0  0  0
   38.4170   28.4160   42.9830 C   0  0  0  0  0  3  0  0  0  0  0  0
   37.3860   30.6430   41.1260 C   0  0  0  0  0  0  0  0  0  0  0  0
   38.7060   30.4250   41.5800 C   0  0  0  0  0  0  0  0  0  0  0  0
   39.6250   31.4590   41.4290 C   0  0  0  0  0  0  0  0  0  0  0  0
   39.1900   32.6180   40.8520 N   0  0  0  0  0  0  0  0  0  0  0  0
   37.9310   32.7950   40.4340 C   0  0  0  0  0  0  0  0  0  0  0  0
   37.0370   31.8030   40.5750 N   0  0  0  0  0  0  0  0  0  0  0  0
   36.6690   29.8580   41.2360 H   0  0  0  0  0  0  0  0  0  0  0  0
   40.6220   31.2740   41.7800 H   0  0  0  0  0  0  0  0  0  0  0  0
   37.8610   33.7920   40.0210 H   0  0  0  0  0  0  0  0  0  0  0  0
  1  3  1  0  0  0  0
  1  2  1  0  0  0  0
  5  6  1  0  0  0  0
  5  4  1  0  0  0  0
  6  1  1  0  0  0  0
  7  8  1  0  0  0  0
  7  6  2  0  0  0  0
  9  7  1  0  0  0  0
 10  9  1  0  0  0  0
 11  9  2  0  0  0  0
 11 12  1  0  0  0  0
 12  5  2  0  0  0  0
 13 14  2  0  0  0  0
 14  1  1  0  0  0  0
 15 21  1  0  0  0  0
 15 16  1  0  0  0  0
 16 13  1  0  0  0  0
 17 16  2  0  0  0  0
 17 22  1  0  0  0  0
 18 17  1  0  0  0  0
 19 20  1  0  0  0  0
 19 18  2  0  0  0  0
 20 15  2  0  0  0  0
 23 19  1  0  0  0  0
M  END
>  <minimizedAffinity>
-4.60664129

$$$$

 OpenBabel03242517143D

 23 24  0  0  0  0  0  0  0  0999 V2000
   35.4730   29.6630   40.0450 C   0  0  0  0  0  0  0  0  0  0  0  0
   35.2720   29.5240   38.9540 H   0  0  0  0  0  0  0  0  0  0  0  0
   34.4880   29.8610   40.4950 H   0  0  0  0  0  0  0  0  0  0  0  0
   36.0640   27.4360   38.4860 F   0  0  0  0  0  0  0  0  0  0  0  0
   36.3490   27.3620   39.8130 C   0  0  0  0  0  0  0  0  0  0  0  0
   36.0650   28.4630   40.6280 C   0  0  0  0  0  0  0  0  0  0  0  0
   36.4060   28.2410   41.9380 C   0  0  0  0  0  0  0  0  0  0  0  0
   36.2100   29.0630   42.6270 H   0  0  0  0  0  0  0  0  0  0  0  0
   36.9630   27.1210   42.4990 C   0  0  0  0  0  0  0  0  0  0  0  0
   37.1940   27.0510   43.5520 H   0  0  0  0  0  0  0  0  0  0  0  0
   37.2030   26.0870   41.5910 C   0  0  0  0  0  3  0  0  0  0  0  0
   36.9110   26.1670   40.2410 C   0  0  0  0  0  3  0  0  0  0  0  0
   37.5210   30.9230   39.5230 C   0  0  0  0  0  3  0  0  0  0  0  0
   36.3990   30.8250   40.1890 C   0  0  0  0  0  3  0  0  0  0  0  0
   38.3700   33.0550   40.5630 C   0  0  0  0  0  0  0  0  0  0  0  0
   38.4770   32.0210   39.6060 C   0  0  0  0  0  0  0  0  0  0  0  0
   39.5420   32.0680   38.7130 C   0  0  0  0  0  0  0  0  0  0  0  0
   40.4150   33.1130   38.8190 N   0  0  0  0  0  0  0  0  0  0  0  0
   40.2890   34.0780   39.7380 C   0  0  0  0  0  0  0  0  0  0  0  0
   39.2650   34.0400   40.6050 N   0  0  0  0  0  0  0  0  0  0  0  0
   37.5580   33.0310   41.2560 H   0  0  0  0  0  0  0  0  0  0  0  0
   39.6060   31.2740   37.9940 H   0  0  0  0  0  0  0  0  0  0  0  0
   41.1070   34.7720   39.5980 H   0  0  0  0  0  0  0  0  0  0  0  0
  1 14  1  0  0  0  0
  1  3  1  0  0  0  0
  1  6  1  0  0  0  0
  2  1  1  0  0  0  0
  4  5  1  0  0  0  0
  5 12  2  0  0  0  0
  5  6  1  0  0  0  0
  6  7  2  0  0  0  0
  7  9  1  0  0  0  0
  7  8  1  0  0  0  0
  9 10  1  0  0  0  0
 11  9  2  0  0  0  0
 12 11  1  0  0  0  0
 13 16  1  0  0  0  0
 13 14  2  0  0  0  0
 15 20  1  0  0  0  0
 15 21  1  0  0  0  0
 16 15  2  0  0  0  0
 17 18  2  0  0  0  0
 17 16  1  0  0  0  0
 18 19  1  0  0  0  0
 19 20  2  0  0  0  0
 22 17  1  0  0  0  0
 23 19  1  0  0  0  0
M  END
>  <minimizedAffinity>
-4.51448536

$$$$

 OpenBabel03242517143D

 23 24  0  0  0  0  0  0  0  0999 V2000
   36.1780   30.2450   40.9610 C   0  0  0  0  0  0  0  0  0  0  0  0
   36.6380   31.2600   40.8720 H   0  0  0  0  0  0  0  0  0  0  0  0
   35.3380   30.3700   41.6600 H   0  0  0  0  0  0  0  0  0  0  0  0
   37.6260   30.6810   38.6260 F   0  0  0  0  0  0  0  0  0  0  0  0
   36.4500   30.0080   38.5140 C   0  0  0  0  0  0  0  0  0  0  0  0
   35.6950   29.7710   39.6670 C   0  0  0  0  0  0  0  0  0  0  0  0
   34.5380   29.0840   39.3980 C   0  0  0  0  0  0  0  0  0  0  0  0
   33.9040   28.8660   40.2570 H   0  0  0  0  0  0  0  0  0  0  0  0
   34.0720   28.6330   38.1910 C   0  0  0  0  0  0  0  0  0  0  0  0
   33.1400   28.0980   38.0900 H   0  0  0  0  0  0  0  0  0  0  0  0
   34.9090   28.9270   37.1100 C   0  0  0  0  0  3  0  0  0  0  0  0
   36.1050   29.6120   37.2290 C   0  0  0  0  0  3  0  0  0  0  0  0
   36.9650   28.0870   41.8460 C   0  0  0  0  0  3  0  0  0  0  0  0
   37.2220   29.3220   41.4980 C   0  0  0  0  0  3  0  0  0  0  0  0
   37.8550   25.7430   42.0950 C   0  0  0  0  0  0  0  0  0  0  0  0
   37.9250   27.1260   42.3770 C   0  0  0  0  0  0  0  0  0  0  0  0
   38.9540   27.5730   43.1980 C   0  0  0  0  0  0  0  0  0  0  0  0
   39.8330   26.6440   43.6790 N   0  0  0  0  0  0  0  0  0  0  0  0
   39.7430   25.3390   43.3930 C   0  0  0  0  0  0  0  0  0  0  0  0
   38.7520   24.8990   42.6010 N   0  0  0  0  0  0  0  0  0  0  0  0
   37.0700   25.3860   41.4660 H   0  0  0  0  0  0  0  0  0  0  0  0
   38.9900   28.6270   43.4000 H   0  0  0  0  0  0  0  0  0  0  0  0
   40.5550   24.8370   43.9000 H   0  0  0  0  0  0  0  0  0  0  0  0
  1 14  1  0  0  0  0
  1  3  1  0  0  0  0
  2  1  1  0  0  0  0
  5  4  1  0  0  0  0
  5  6  1  0  0  0  0
  6  1  1  0  0  0  0
  7  6  2  0  0  0  0
  7  8  1  0  0  0  0
  9  7  1  0  0  0  0
 10  9  1  0  0  0  0
 11 12  1  0  0  0  0
 11  9  2  0  0  0  0
 12  5  2  0  0  0  0
 13 16  1  0  0  0  0
 14 13  2  0  0  0  0
 15 16  2  0  0  0  0
 15 20  1  0  0  0  0
 16 17  1  0  0  0  0
 17 22  1  0  0  0  0
 17 18  2  0  0  0  0
 19 18  1  0  0  0  0
 19 23  1  0  0  0  0
 20 19  2  0  0  0  0
 21 15  1  0  0  0  0
M  END
>  <minimizedAffinity>
-4.4611125

$$$$

 OpenBabel03242517143D

 23 24  0  0  0  0  0  0  0  0999 V2000
   34.9140   29.1750   40.1400 C   0  0  0  0  0  0  0  0  0  0  0  0
   34.4520   30.1050   40.5560 H   0  0  0  0  0  0  0  0  0  0  0  0
   34.0800   28.4660   40.0270 H   0  0  0  0  0  0  0  0  0  0  0  0
   34.0940   27.8380   37.8420 F   0  0  0  0  0  0  0  0  0  0  0  0
   35.1010   28.7410   37.7120 C   0  0  0  0  0  0  0  0  0  0  0  0
   35.5400   29.4320   38.8460 C   0  0  0  0  0  0  0  0  0  0  0  0
   36.5580   30.3070   38.5600 C   0  0  0  0  0  0  0  0  0  0  0  0
   36.9450   30.8790   39.4040 H   0  0  0  0  0  0  0  0  0  0  0  0
   37.1540   30.5600   37.3520 C   0  0  0  0  0  0  0  0  0  0  0  0
   37.9550   31.2750   37.2370 H   0  0  0  0  0  0  0  0  0  0  0  0
   36.6350   29.8120   36.2920 C   0  0  0  0  0  3  0  0  0  0  0  0
   35.6090   28.8930   36.4290 C   0  0  0  0  0  3  0  0  0  0  0  0
   36.6760   27.6420   40.9160 C   0  0  0  0  0  3  0  0  0  0  0  0
   35.9280   28.6960   41.1250 C   0  0  0  0  0  3  0  0  0  0  0  0
   38.4240   27.9310   42.7080 C   0  0  0  0  0  0  0  0  0  0  0  0
   37.6850   27.1110   41.8250 C   0  0  0  0  0  0  0  0  0  0  0  0
   37.9460   25.7450   41.8330 C   0  0  0  0  0  0  0  0  0  0  0  0
   38.9000   25.2840   42.6950 N   0  0  0  0  0  0  0  0  0  0  0  0
   39.5830   26.0850   43.5220 C   0  0  0  0  0  0  0  0  0  0  0  0
   39.3380   27.4060   43.5220 N   0  0  0  0  0  0  0  0  0  0  0  0
   38.2340   28.9820   42.7140 H   0  0  0  0  0  0  0  0  0  0  0  0
   37.3750   25.1400   41.1550 H   0  0  0  0  0  0  0  0  0  0  0  0
   40.2670   25.4670   44.0860 H   0  0  0  0  0  0  0  0  0  0  0  0
  1  2  1  0  0  0  0
  1 14  1  0  0  0  0
  3  1  1  0  0  0  0
  5  4  1  0  0  0  0
  5  6  1  0  0  0  0
  6  1  1  0  0  0  0
  7  6  2  0  0  0  0
  7  8  1  0  0  0  0
  9  7  1  0  0  0  0
 10  9  1  0  0  0  0
 11 12  1  0  0  0  0
 11  9  2  0  0  0  0
 12  5  2  0  0  0  0
 13 14  2  0  0  0  0
 13 16  1  0  0  0  0
 15 21  1  0  0  0  0
 15 20  1  0  0  0  0
 16 17  1  0  0  0  0
 16 15  2  0  0  0  0
 17 18  2  0  0  0  0
 18 19  1  0  0  0  0
 19 20  2  0  0  0  0
 19 23  1  0  0  0  0
 22 17  1  0  0  0  0
M  END
>  <minimizedAffinity>
-4.38959646

$$$$
