
 OpenBabel03242514183D

 41 43  0  0  0  0  0  0  0  0999 V2000
   37.5610   31.5310   39.8240 C   0  0  0  0  0  0  0  0  0  0  0  0
   38.6460   31.6560   40.6680 C   0  0  0  0  0  0  0  0  0  0  0  0
   39.0940   32.9190   40.9350 C   0  0  0  0  0  0  0  0  0  0  0  0
   38.4540   33.9810   40.3630 N   0  0  0  0  0  0  0  0  0  0  0  0
   37.4110   33.8570   39.5550 C   0  0  0  0  0  0  0  0  0  0  0  0
   36.9810   32.6320   39.2980 N   0  0  0  0  0  0  0  0  0  0  0  0
   39.9010   33.2840   41.5410 H   0  0  0  0  0  0  0  0  0  0  0  0
   36.8880   34.6680   39.0940 H   0  0  0  0  0  0  0  0  0  0  0  0
   37.1390   30.1590   39.5290 C   0  0  0  0  0  0  0  0  0  0  0  0
   37.0990   29.7840   38.1240 C   0  0  0  0  0  0  0  0  0  0  0  0
   35.7420   29.5300   37.6160 C   0  0  0  0  0  0  0  0  0  0  0  0
   35.0360   28.4470   38.4270 C   0  0  0  0  0  0  0  0  0  0  0  0
   35.2590   28.5750   39.8940 C   0  0  0  0  0  0  0  0  0  0  0  0
   35.8110   29.9400   40.2510 C   0  0  0  0  0  0  0  0  0  0  0  0
   37.7870   29.4250   40.0720 H   0  0  0  0  0  0  0  0  0  0  0  0
   37.5110   30.6560   37.5310 H   0  0  0  0  0  0  0  0  0  0  0  0
   37.7630   28.9420   37.8040 H   0  0  0  0  0  0  0  0  0  0  0  0
   35.7680   29.1830   36.5750 H   0  0  0  0  0  0  0  0  0  0  0  0
   35.1310   30.4780   37.6420 H   0  0  0  0  0  0  0  0  0  0  0  0
   33.9470   28.5860   38.2230 H   0  0  0  0  0  0  0  0  0  0  0  0
   35.2740   27.4360   38.0290 H   0  0  0  0  0  0  0  0  0  0  0  0
   34.3860   28.3420   40.5140 H   0  0  0  0  0  0  0  0  0  0  0  0
   36.0670   27.8560   40.1700 H   0  0  0  0  0  0  0  0  0  0  0  0
   35.0980   30.7130   39.9240 H   0  0  0  0  0  0  0  0  0  0  0  0
   35.9410   30.0070   41.3360 H   0  0  0  0  0  0  0  0  0  0  0  0
   39.3940   30.7880   41.3140 O   0  0  0  0  0  0  0  0  0  0  0  0
   39.4400   30.2520   42.5590 C   0  0  0  0  0  0  0  0  0  0  0  0
   40.3580   29.6060   42.6700 H   0  0  0  0  0  0  0  0  0  0  0  0
   39.5430   31.0100   43.3620 H   0  0  0  0  0  0  0  0  0  0  0  0
   38.2890   29.3730   42.9520 C   0  0  0  0  0  0  0  0  0  0  0  0
   37.3550   29.9360   42.7500 H   0  0  0  0  0  0  0  0  0  0  0  0
   38.3030   29.2030   44.0690 H   0  0  0  0  0  0  0  0  0  0  0  0
   36.2080   27.6260   43.6800 F   0  0  0  0  0  0  0  0  0  0  0  0
   37.1410   27.2830   42.7370 C   0  0  0  0  0  0  0  0  0  0  0  0
   38.2140   28.0730   42.3080 C   0  0  0  0  0  0  0  0  0  0  0  0
   39.0080   27.4940   41.3460 C   0  0  0  0  0  0  0  0  0  0  0  0
   39.8280   28.1070   41.0110 H   0  0  0  0  0  0  0  0  0  0  0  0
   38.8330   26.2510   40.7980 C   0  0  0  0  0  0  0  0  0  0  0  0
   39.5510   25.9330   40.0420 H   0  0  0  0  0  0  0  0  0  0  0  0
   37.7820   25.4760   41.2190 C   0  0  0  0  0  3  0  0  0  0  0  0
   36.9440   26.0190   42.1960 C   0  0  0  0  0  3  0  0  0  0  0  0
  1  2  1  0  0  0  0
  2  3  2  0  0  0  0
  2 26  1  0  0  0  0
  3  7  1  0  0  0  0
  4  3  1  0  0  0  0
  5  4  2  0  0  0  0
  6  5  1  0  0  0  0
  6  1  2  0  0  0  0
  8  5  1  0  0  0  0
  9  1  1  0  0  0  0
  9 15  1  0  0  0  0
  9 14  1  0  0  0  0
 10  9  1  0  0  0  0
 11 19  1  0  0  0  0
 11 10  1  0  0  0  0
 11 12  1  0  0  0  0
 12 13  1  0  0  0  0
 13 23  1  0  0  0  0
 13 14  1  0  0  0  0
 13 22  1  0  0  0  0
 14 25  1  0  0  0  0
 16 10  1  0  0  0  0
 17 10  1  0  0  0  0
 18 11  1  0  0  0  0
 20 12  1  0  0  0  0
 21 12  1  0  0  0  0
 24 14  1  0  0  0  0
 26 27  1  0  0  0  0
 27 28  1  0  0  0  0
 27 30  1  0  0  0  0
 27 29  1  0  0  0  0
 30 32  1  0  0  0  0
 31 30  1  0  0  0  0
 34 33  1  0  0  0  0
 35 34  1  0  0  0  0
 35 30  1  0  0  0  0
 36 35  2  0  0  0  0
 37 36  1  0  0  0  0
 38 40  2  0  0  0  0
 38 36  1  0  0  0  0
 39 38  1  0  0  0  0
 40 41  1  0  0  0  0
 41 34  2  0  0  0  0
M  END
>  <minimizedAffinity>
-5.48817492

$$$$

 OpenBabel03242514183D

 41 43  0  0  0  0  0  0  0  0999 V2000
   38.3180   30.3190   39.2070 C   0  0  0  0  0  0  0  0  0  0  0  0
   39.2170   30.3230   40.2550 C   0  0  0  0  0  0  0  0  0  0  0  0
   40.3060   31.1430   40.1480 C   0  0  0  0  0  0  0  0  0  0  0  0
   40.4470   31.9090   39.0250 N   0  0  0  0  0  0  0  0  0  0  0  0
   39.5800   31.9030   38.0230 C   0  0  0  0  0  0  0  0  0  0  0  0
   38.5290   31.1070   38.1310 N   0  0  0  0  0  0  0  0  0  0  0  0
   41.1350   31.3280   40.8020 H   0  0  0  0  0  0  0  0  0  0  0  0
   39.6630   32.4910   37.1330 H   0  0  0  0  0  0  0  0  0  0  0  0
   37.1880   29.3960   39.3420 C   0  0  0  0  0  0  0  0  0  0  0  0
   36.7380   28.7430   38.1220 C   0  0  0  0  0  0  0  0  0  0  0  0
   35.3970   29.1610   37.6860 C   0  0  0  0  0  0  0  0  0  0  0  0
   34.3560   28.9210   38.7760 C   0  0  0  0  0  0  0  0  0  0  0  0
   34.8350   29.2940   40.1350 C   0  0  0  0  0  0  0  0  0  0  0  0
   36.0790   30.1560   40.0650 C   0  0  0  0  0  0  0  0  0  0  0  0
   37.4170   28.6050   40.1010 H   0  0  0  0  0  0  0  0  0  0  0  0
   37.4560   29.0400   37.2980 H   0  0  0  0  0  0  0  0  0  0  0  0
   36.7900   27.6260   38.0940 H   0  0  0  0  0  0  0  0  0  0  0  0
   35.0730   28.5930   36.8050 H   0  0  0  0  0  0  0  0  0  0  0  0
   35.4010   30.2530   37.4030 H   0  0  0  0  0  0  0  0  0  0  0  0
   33.4940   29.5810   38.5130 H   0  0  0  0  0  0  0  0  0  0  0  0
   33.9520   27.8870   38.7160 H   0  0  0  0  0  0  0  0  0  0  0  0
   34.0810   29.7640   40.7770 H   0  0  0  0  0  0  0  0  0  0  0  0
   35.1640   28.3540   40.6400 H   0  0  0  0  0  0  0  0  0  0  0  0
   35.8490   31.0720   39.4970 H   0  0  0  0  0  0  0  0  0  0  0  0
   36.3900   30.4300   41.0780 H   0  0  0  0  0  0  0  0  0  0  0  0
   39.2730   29.6820   41.4020 O   0  0  0  0  0  0  0  0  0  0  0  0
   38.8620   29.8950   42.6770 C   0  0  0  0  0  0  0  0  0  0  0  0
   39.7540   29.9970   43.3610 H   0  0  0  0  0  0  0  0  0  0  0  0
   38.3080   30.8470   42.8090 H   0  0  0  0  0  0  0  0  0  0  0  0
   38.0130   28.8220   43.2940 C   0  0  0  0  0  0  0  0  0  0  0  0
   36.9990   28.9060   42.8540 H   0  0  0  0  0  0  0  0  0  0  0  0
   37.8800   29.0290   44.3970 H   0  0  0  0  0  0  0  0  0  0  0  0
   36.5380   27.0410   41.6930 F   0  0  0  0  0  0  0  0  0  0  0  0
   37.6850   26.6550   42.3340 C   0  0  0  0  0  0  0  0  0  0  0  0
   38.4870   27.4570   43.1550 C   0  0  0  0  0  0  0  0  0  0  0  0
   39.5890   26.8240   43.6800 C   0  0  0  0  0  0  0  0  0  0  0  0
   40.2100   27.4460   44.3040 H   0  0  0  0  0  0  0  0  0  0  0  0
   39.9470   25.5190   43.4670 C   0  0  0  0  0  0  0  0  0  0  0  0
   40.8540   25.1640   43.9570 H   0  0  0  0  0  0  0  0  0  0  0  0
   39.1600   24.7320   42.6640 C   0  0  0  0  0  3  0  0  0  0  0  0
   38.0270   25.3280   42.1050 C   0  0  0  0  0  3  0  0  0  0  0  0
  1  9  1  0  0  0  0
  1  2  1  0  0  0  0
  2 26  1  0  0  0  0
  3  2  2  0  0  0  0
  3  7  1  0  0  0  0
  4  3  1  0  0  0  0
  5  6  1  0  0  0  0
  5  4  2  0  0  0  0
  6  1  2  0  0  0  0
  8  5  1  0  0  0  0
  9 14  1  0  0  0  0
  9 15  1  0  0  0  0
 10  9  1  0  0  0  0
 11 10  1  0  0  0  0
 11 12  1  0  0  0  0
 12 13  1  0  0  0  0
 13 23  1  0  0  0  0
 13 22  1  0  0  0  0
 14 13  1  0  0  0  0
 14 25  1  0  0  0  0
 16 10  1  0  0  0  0
 17 10  1  0  0  0  0
 18 11  1  0  0  0  0
 19 11  1  0  0  0  0
 20 12  1  0  0  0  0
 21 12  1  0  0  0  0
 24 14  1  0  0  0  0
 26 27  1  0  0  0  0
 27 29  1  0  0  0  0
 27 30  1  0  0  0  0
 27 28  1  0  0  0  0
 30 32  1  0  0  0  0
 31 30  1  0  0  0  0
 33 34  1  0  0  0  0
 34 35  1  0  0  0  0
 35 30  1  0  0  0  0
 35 36  2  0  0  0  0
 36 37  1  0  0  0  0
 38 36  1  0  0  0  0
 38 39  1  0  0  0  0
 40 38  2  0  0  0  0
 41 34  2  0  0  0  0
 41 40  1  0  0  0  0
M  END
>  <minimizedAffinity>
-5.42139244

$$$$

 OpenBabel03242514183D

 41 43  0  0  0  0  0  0  0  0999 V2000
   38.2630   31.8300   40.2290 C   0  0  0  0  0  0  0  0  0  0  0  0
   39.6070   31.8260   40.5450 C   0  0  0  0  0  0  0  0  0  0  0  0
   40.2550   33.0290   40.5580 C   0  0  0  0  0  0  0  0  0  0  0  0
   39.5500   34.1610   40.2620 N   0  0  0  0  0  0  0  0  0  0  0  0
   38.2600   34.1610   39.9610 C   0  0  0  0  0  0  0  0  0  0  0  0
   37.6370   32.9930   39.9490 N   0  0  0  0  0  0  0  0  0  0  0  0
   41.2730   33.2970   40.7630 H   0  0  0  0  0  0  0  0  0  0  0  0
   37.6810   35.0300   39.7260 H   0  0  0  0  0  0  0  0  0  0  0  0
   37.6160   30.5160   40.1850 C   0  0  0  0  0  0  0  0  0  0  0  0
   37.6620   29.8160   38.9100 C   0  0  0  0  0  0  0  0  0  0  0  0
   36.3470   29.6700   38.2650 C   0  0  0  0  0  0  0  0  0  0  0  0
   35.3560   28.9520   39.1770 C   0  0  0  0  0  0  0  0  0  0  0  0
   35.4340   29.4010   40.5940 C   0  0  0  0  0  0  0  0  0  0  0  0
   36.1990   30.7030   40.7200 C   0  0  0  0  0  0  0  0  0  0  0  0
   38.0420   29.8430   40.9710 H   0  0  0  0  0  0  0  0  0  0  0  0
   38.3020   30.4360   38.2090 H   0  0  0  0  0  0  0  0  0  0  0  0
   38.1790   28.8250   38.8920 H   0  0  0  0  0  0  0  0  0  0  0  0
   36.4220   29.0780   37.3450 H   0  0  0  0  0  0  0  0  0  0  0  0
   35.9360   30.6830   37.9840 H   0  0  0  0  0  0  0  0  0  0  0  0
   34.3460   29.2130   38.7790 H   0  0  0  0  0  0  0  0  0  0  0  0
   35.4340   27.8500   39.0560 H   0  0  0  0  0  0  0  0  0  0  0  0
   34.4670   29.4750   41.1070 H   0  0  0  0  0  0  0  0  0  0  0  0
   36.0480   28.6500   41.1460 H   0  0  0  0  0  0  0  0  0  0  0  0
   35.6930   31.4770   40.1220 H   0  0  0  0  0  0  0  0  0  0  0  0
   36.2160   31.0140   41.7700 H   0  0  0  0  0  0  0  0  0  0  0  0
   40.4600   30.8740   40.8560 O   0  0  0  0  0  0  0  0  0  0  0  0
   40.7090   30.0780   41.9250 C   0  0  0  0  0  0  0  0  0  0  0  0
   41.8010   30.1320   42.2050 H   0  0  0  0  0  0  0  0  0  0  0  0
   40.1780   30.3940   42.8450 H   0  0  0  0  0  0  0  0  0  0  0  0
   40.4200   28.6150   41.7510 C   0  0  0  0  0  0  0  0  0  0  0  0
   41.2290   28.0530   42.2600 H   0  0  0  0  0  0  0  0  0  0  0  0
   40.5020   28.3370   40.6590 H   0  0  0  0  0  0  0  0  0  0  0  0
   39.1530   26.5150   40.3750 F   0  0  0  0  0  0  0  0  0  0  0  0
   38.5900   27.0960   41.4800 C   0  0  0  0  0  0  0  0  0  0  0  0
   39.1330   28.1450   42.2320 C   0  0  0  0  0  0  0  0  0  0  0  0
   38.3640   28.5470   43.2990 C   0  0  0  0  0  0  0  0  0  0  0  0
   38.7880   29.3490   43.8810 H   0  0  0  0  0  0  0  0  0  0  0  0
   37.1560   28.0170   43.6670 C   0  0  0  0  0  0  0  0  0  0  0  0
   36.6690   28.4470   44.5420 H   0  0  0  0  0  0  0  0  0  0  0  0
   36.6240   26.9890   42.9310 C   0  0  0  0  0  3  0  0  0  0  0  0
   37.3660   26.5430   41.8340 C   0  0  0  0  0  3  0  0  0  0  0  0
  1  2  1  0  0  0  0
  2  3  2  0  0  0  0
  2 26  1  0  0  0  0
  3  7  1  0  0  0  0
  4  3  1  0  0  0  0
  5  4  2  0  0  0  0
  6  5  1  0  0  0  0
  6  1  2  0  0  0  0
  8  5  1  0  0  0  0
  9  1  1  0  0  0  0
  9 14  1  0  0  0  0
  9 15  1  0  0  0  0
 10  9  1  0  0  0  0
 11 10  1  0  0  0  0
 11 12  1  0  0  0  0
 12 13  1  0  0  0  0
 13 14  1  0  0  0  0
 13 22  1  0  0  0  0
 13 23  1  0  0  0  0
 14 25  1  0  0  0  0
 16 10  1  0  0  0  0
 17 10  1  0  0  0  0
 18 11  1  0  0  0  0
 19 11  1  0  0  0  0
 20 12  1  0  0  0  0
 21 12  1  0  0  0  0
 24 14  1  0  0  0  0
 26 27  1  0  0  0  0
 27 28  1  0  0  0  0
 27 29  1  0  0  0  0
 30 27  1  0  0  0  0
 30 35  1  0  0  0  0
 30 31  1  0  0  0  0
 32 30  1  0  0  0  0
 33 34  1  0  0  0  0
 34 41  2  0  0  0  0
 34 35  1  0  0  0  0
 35 36  2  0  0  0  0
 36 38  1  0  0  0  0
 36 37  1  0  0  0  0
 38 39  1  0  0  0  0
 40 38  2  0  0  0  0
 41 40  1  0  0  0  0
M  END
>  <minimizedAffinity>
-5.41272688

$$$$

 OpenBabel03242514183D

 41 43  0  0  0  0  0  0  0  0999 V2000
   37.2640   25.5940   40.7320 C   0  0  0  0  0  0  0  0  0  0  0  0
   36.5540   25.4190   39.5610 C   0  0  0  0  0  0  0  0  0  0  0  0
   36.5630   24.1730   39.0000 C   0  0  0  0  0  0  0  0  0  0  0  0
   37.2640   23.1760   39.6170 N   0  0  0  0  0  0  0  0  0  0  0  0
   37.9430   23.3480   40.7420 C   0  0  0  0  0  0  0  0  0  0  0  0
   37.9320   24.5570   41.2810 N   0  0  0  0  0  0  0  0  0  0  0  0
   36.1060   23.7800   38.1120 H   0  0  0  0  0  0  0  0  0  0  0  0
   38.4990   22.5880   41.2480 H   0  0  0  0  0  0  0  0  0  0  0  0
   37.2640   26.9540   41.2790 C   0  0  0  0  0  0  0  0  0  0  0  0
   38.4140   27.7820   40.9510 C   0  0  0  0  0  0  0  0  0  0  0  0
   39.2630   28.1040   42.1090 C   0  0  0  0  0  0  0  0  0  0  0  0
   38.4650   28.7980   43.2090 C   0  0  0  0  0  0  0  0  0  0  0  0
   37.1220   28.1930   43.4280 C   0  0  0  0  0  0  0  0  0  0  0  0
   37.0200   26.8270   42.7800 C   0  0  0  0  0  0  0  0  0  0  0  0
   36.3370   27.5010   40.9690 H   0  0  0  0  0  0  0  0  0  0  0  0
   39.0580   27.1920   40.2290 H   0  0  0  0  0  0  0  0  0  0  0  0
   38.2170   28.7240   40.3800 H   0  0  0  0  0  0  0  0  0  0  0  0
   40.0750   28.7850   41.8260 H   0  0  0  0  0  0  0  0  0  0  0  0
   39.7350   27.1660   42.5200 H   0  0  0  0  0  0  0  0  0  0  0  0
   39.0670   28.6660   44.1400 H   0  0  0  0  0  0  0  0  0  0  0  0
   38.4340   29.8970   43.0430 H   0  0  0  0  0  0  0  0  0  0  0  0
   36.8050   28.1430   44.4770 H   0  0  0  0  0  0  0  0  0  0  0  0
   36.3810   28.8270   42.8850 H   0  0  0  0  0  0  0  0  0  0  0  0
   37.7890   26.1670   43.2100 H   0  0  0  0  0  0  0  0  0  0  0  0
   36.0300   26.4030   42.9800 H   0  0  0  0  0  0  0  0  0  0  0  0
   35.8250   26.2220   38.8160 O   0  0  0  0  0  0  0  0  0  0  0  0
   36.0470   27.2040   37.9090 C   0  0  0  0  0  0  0  0  0  0  0  0
   37.1270   27.5310   37.9450 H   0  0  0  0  0  0  0  0  0  0  0  0
   35.8990   26.8780   36.8590 H   0  0  0  0  0  0  0  0  0  0  0  0
   35.2480   28.4640   38.0770 C   0  0  0  0  0  0  0  0  0  0  0  0
   34.3140   28.1970   38.6100 H   0  0  0  0  0  0  0  0  0  0  0  0
   34.9190   28.8440   37.0650 H   0  0  0  0  0  0  0  0  0  0  0  0
   34.5940   28.9340   40.7710 F   0  0  0  0  0  0  0  0  0  0  0  0
   35.5090   29.7060   40.1060 C   0  0  0  0  0  0  0  0  0  0  0  0
   35.9010   29.5600   38.7700 C   0  0  0  0  0  0  0  0  0  0  0  0
   36.8410   30.4680   38.3420 C   0  0  0  0  0  0  0  0  0  0  0  0
   37.1470   30.3490   37.3160 H   0  0  0  0  0  0  0  0  0  0  0  0
   37.4010   31.4650   39.0980 C   0  0  0  0  0  0  0  0  0  0  0  0
   38.1360   32.1060   38.6110 H   0  0  0  0  0  0  0  0  0  0  0  0
   37.0170   31.6080   40.4070 C   0  0  0  0  0  3  0  0  0  0  0  0
   36.0630   30.7090   40.8910 C   0  0  0  0  0  3  0  0  0  0  0  0
  1  9  1  0  0  0  0
  1  6  1  0  0  0  0
  2  1  2  0  0  0  0
  3  2  1  0  0  0  0
  3  4  2  0  0  0  0
  4  5  1  0  0  0  0
  5  8  1  0  0  0  0
  5  6  2  0  0  0  0
  7  3  1  0  0  0  0
  9 14  1  0  0  0  0
 10  9  1  0  0  0  0
 10 11  1  0  0  0  0
 11 19  1  0  0  0  0
 11 12  1  0  0  0  0
 12 13  1  0  0  0  0
 12 20  1  0  0  0  0
 13 22  1  0  0  0  0
 14 25  1  0  0  0  0
 14 24  1  0  0  0  0
 14 13  1  0  0  0  0
 15  9  1  0  0  0  0
 16 10  1  0  0  0  0
 17 10  1  0  0  0  0
 18 11  1  0  0  0  0
 21 12  1  0  0  0  0
 23 13  1  0  0  0  0
 26  2  1  0  0  0  0
 27 28  1  0  0  0  0
 27 30  1  0  0  0  0
 27 26  1  0  0  0  0
 29 27  1  0  0  0  0
 30 31  1  0  0  0  0
 30 35  1  0  0  0  0
 32 30  1  0  0  0  0
 34 33  1  0  0  0  0
 34 41  1  0  0  0  0
 35 34  2  0  0  0  0
 36 35  1  0  0  0  0
 36 38  2  0  0  0  0
 37 36  1  0  0  0  0
 38 40  1  0  0  0  0
 39 38  1  0  0  0  0
 40 41  2  0  0  0  0
M  END
>  <minimizedAffinity>
-5.39703321

$$$$

 OpenBabel03242514183D

 41 43  0  0  0  0  0  0  0  0999 V2000
   40.2220   29.6470   42.1560 C   0  0  0  0  0  0  0  0  0  0  0  0
   40.4240   30.8710   41.5510 C   0  0  0  0  0  0  0  0  0  0  0  0
   41.6460   31.4610   41.7160 C   0  0  0  0  0  0  0  0  0  0  0  0
   42.5930   30.8190   42.4610 N   0  0  0  0  0  0  0  0  0  0  0  0
   42.3950   29.6430   43.0390 C   0  0  0  0  0  0  0  0  0  0  0  0
   41.2100   29.0760   42.8770 N   0  0  0  0  0  0  0  0  0  0  0  0
   42.0510   32.3890   41.3620 H   0  0  0  0  0  0  0  0  0  0  0  0
   43.1170   29.1150   43.6260 H   0  0  0  0  0  0  0  0  0  0  0  0
   38.8850   29.0690   41.9900 C   0  0  0  0  0  0  0  0  0  0  0  0
   38.0400   29.0460   43.1740 C   0  0  0  0  0  0  0  0  0  0  0  0
   37.7620   27.6920   43.6790 C   0  0  0  0  0  0  0  0  0  0  0  0
   37.1170   26.8190   42.6070 C   0  0  0  0  0  0  0  0  0  0  0  0
   37.7360   26.9890   41.2640 C   0  0  0  0  0  0  0  0  0  0  0  0
   39.0750   27.6920   41.3570 C   0  0  0  0  0  0  0  0  0  0  0  0
   38.3300   29.5930   41.1720 H   0  0  0  0  0  0  0  0  0  0  0  0
   38.5970   29.5920   43.9960 H   0  0  0  0  0  0  0  0  0  0  0  0
   37.0760   29.6120   43.1220 H   0  0  0  0  0  0  0  0  0  0  0  0
   37.0670   27.7220   44.5280 H   0  0  0  0  0  0  0  0  0  0  0  0
   38.7150   27.2060   44.0390 H   0  0  0  0  0  0  0  0  0  0  0  0
   37.2850   25.7660   42.9420 H   0  0  0  0  0  0  0  0  0  0  0  0
   36.0120   26.9440   42.6050 H   0  0  0  0  0  0  0  0  0  0  0  0
   37.8300   26.0650   40.6800 H   0  0  0  0  0  0  0  0  0  0  0  0
   37.0840   27.6850   40.6840 H   0  0  0  0  0  0  0  0  0  0  0  0
   39.7490   27.0980   41.9940 H   0  0  0  0  0  0  0  0  0  0  0  0
   39.5100   27.7800   40.3570 H   0  0  0  0  0  0  0  0  0  0  0  0
   39.6680   31.6480   40.8060 O   0  0  0  0  0  0  0  0  0  0  0  0
   38.8560   32.7180   40.9950 C   0  0  0  0  0  0  0  0  0  0  0  0
   38.4320   32.7040   42.0410 H   0  0  0  0  0  0  0  0  0  0  0  0
   39.3850   33.6900   40.9310 H   0  0  0  0  0  0  0  0  0  0  0  0
   37.6650   32.8230   40.0880 C   0  0  0  0  0  0  0  0  0  0  0  0
   38.0240   33.1990   39.1090 H   0  0  0  0  0  0  0  0  0  0  0  0
   36.9610   33.6180   40.4760 H   0  0  0  0  0  0  0  0  0  0  0  0
   37.6330   31.6620   37.5270 F   0  0  0  0  0  0  0  0  0  0  0  0
   36.9470   31.1120   38.5770 C   0  0  0  0  0  0  0  0  0  0  0  0
   36.8940   31.6100   39.8840 C   0  0  0  0  0  0  0  0  0  0  0  0
   36.1320   30.8660   40.7540 C   0  0  0  0  0  0  0  0  0  0  0  0
   36.0990   31.2460   41.7620 H   0  0  0  0  0  0  0  0  0  0  0  0
   35.4500   29.7180   40.4490 C   0  0  0  0  0  0  0  0  0  0  0  0
   34.8890   29.2420   41.2530 H   0  0  0  0  0  0  0  0  0  0  0  0
   35.5020   29.2290   39.1670 C   0  0  0  0  0  3  0  0  0  0  0  0
   36.2630   29.9500   38.2440 C   0  0  0  0  0  3  0  0  0  0  0  0
  1  6  1  0  0  0  0
  2  3  1  0  0  0  0
  2  1  2  0  0  0  0
  3  4  2  0  0  0  0
  4  5  1  0  0  0  0
  5  8  1  0  0  0  0
  6  5  2  0  0  0  0
  7  3  1  0  0  0  0
  9  1  1  0  0  0  0
  9 10  1  0  0  0  0
 10 11  1  0  0  0  0
 10 16  1  0  0  0  0
 11 19  1  0  0  0  0
 11 18  1  0  0  0  0
 12 20  1  0  0  0  0
 12 11  1  0  0  0  0
 13 14  1  0  0  0  0
 13 12  1  0  0  0  0
 14  9  1  0  0  0  0
 14 24  1  0  0  0  0
 15  9  1  0  0  0  0
 17 10  1  0  0  0  0
 21 12  1  0  0  0  0
 22 13  1  0  0  0  0
 23 13  1  0  0  0  0
 25 14  1  0  0  0  0
 26 27  1  0  0  0  0
 26  2  1  0  0  0  0
 27 28  1  0  0  0  0
 29 27  1  0  0  0  0
 30 32  1  0  0  0  0
 30 27  1  0  0  0  0
 31 30  1  0  0  0  0
 33 34  1  0  0  0  0
 34 35  1  0  0  0  0
 35 30  1  0  0  0  0
 35 36  2  0  0  0  0
 36 37  1  0  0  0  0
 38 36  1  0  0  0  0
 38 39  1  0  0  0  0
 40 38  2  0  0  0  0
 41 34  2  0  0  0  0
 41 40  1  0  0  0  0
M  END
>  <minimizedAffinity>
-5.33287144

$$$$

 OpenBabel03242514183D

 41 43  0  0  0  0  0  0  0  0999 V2000
   37.3700   30.3500   40.8740 C   0  0  0  0  0  0  0  0  0  0  0  0
   37.8410   29.6010   39.8140 C   0  0  0  0  0  0  0  0  0  0  0  0
   37.8380   30.1880   38.5790 C   0  0  0  0  0  0  0  0  0  0  0  0
   37.3770   31.4670   38.4570 N   0  0  0  0  0  0  0  0  0  0  0  0
   36.9270   32.1830   39.4780 C   0  0  0  0  0  0  0  0  0  0  0  0
   36.9310   31.6110   40.6710 N   0  0  0  0  0  0  0  0  0  0  0  0
   38.1410   29.8330   37.6130 H   0  0  0  0  0  0  0  0  0  0  0  0
   36.5610   33.1860   39.4140 H   0  0  0  0  0  0  0  0  0  0  0  0
   37.3500   29.6710   42.1730 C   0  0  0  0  0  0  0  0  0  0  0  0
   38.6230   29.5720   42.8690 C   0  0  0  0  0  0  0  0  0  0  0  0
   39.1330   28.1970   42.9820 C   0  0  0  0  0  0  0  0  0  0  0  0
   38.1280   27.2850   43.6800 C   0  0  0  0  0  0  0  0  0  0  0  0
   36.7250   27.5140   43.2370 C   0  0  0  0  0  0  0  0  0  0  0  0
   36.6750   28.3190   41.9540 C   0  0  0  0  0  0  0  0  0  0  0  0
   36.6100   30.1570   42.8580 H   0  0  0  0  0  0  0  0  0  0  0  0
   39.3840   30.1540   42.2630 H   0  0  0  0  0  0  0  0  0  0  0  0
   38.6930   30.0620   43.8730 H   0  0  0  0  0  0  0  0  0  0  0  0
   40.0570   28.1650   43.5740 H   0  0  0  0  0  0  0  0  0  0  0  0
   39.3710   27.7840   41.9590 H   0  0  0  0  0  0  0  0  0  0  0  0
   38.4230   26.2460   43.3940 H   0  0  0  0  0  0  0  0  0  0  0  0
   38.2570   27.3240   44.7830 H   0  0  0  0  0  0  0  0  0  0  0  0
   36.1180   26.6050   43.1410 H   0  0  0  0  0  0  0  0  0  0  0  0
   36.2370   28.1620   44.0040 H   0  0  0  0  0  0  0  0  0  0  0  0
   37.2190   27.7740   41.1660 H   0  0  0  0  0  0  0  0  0  0  0  0
   35.6320   28.4480   41.6460 H   0  0  0  0  0  0  0  0  0  0  0  0
   38.3220   28.3820   39.7100 O   0  0  0  0  0  0  0  0  0  0  0  0
   39.1870   27.7230   38.9000 C   0  0  0  0  0  0  0  0  0  0  0  0
   39.2000   28.1990   37.8770 H   0  0  0  0  0  0  0  0  0  0  0  0
   40.2410   27.7830   39.2390 H   0  0  0  0  0  0  0  0  0  0  0  0
   38.9020   26.2700   38.6560 C   0  0  0  0  0  0  0  0  0  0  0  0
   39.8400   25.8030   38.2940 H   0  0  0  0  0  0  0  0  0  0  0  0
   38.1650   26.1640   37.8070 H   0  0  0  0  0  0  0  0  0  0  0  0
   40.7150   25.3750   40.6120 F   0  0  0  0  0  0  0  0  0  0  0  0
   39.3730   25.1160   40.7000 C   0  0  0  0  0  0  0  0  0  0  0  0
   38.3910   25.5100   39.7830 C   0  0  0  0  0  0  0  0  0  0  0  0
   37.1120   25.1220   40.1060 C   0  0  0  0  0  0  0  0  0  0  0  0
   36.3560   25.4330   39.4030 H   0  0  0  0  0  0  0  0  0  0  0  0
   36.7420   24.4080   41.2150 C   0  0  0  0  0  0  0  0  0  0  0  0
   35.6830   24.1770   41.3300 H   0  0  0  0  0  0  0  0  0  0  0  0
   37.7050   24.0210   42.1140 C   0  0  0  0  0  3  0  0  0  0  0  0
   39.0220   24.3910   41.8310 C   0  0  0  0  0  3  0  0  0  0  0  0
  1  9  1  0  0  0  0
  2  1  2  0  0  0  0
  3  2  1  0  0  0  0
  4  3  2  0  0  0  0
  4  5  1  0  0  0  0
  5  6  2  0  0  0  0
  6  1  1  0  0  0  0
  7  3  1  0  0  0  0
  8  5  1  0  0  0  0
  9 15  1  0  0  0  0
  9 10  1  0  0  0  0
 10 11  1  0  0  0  0
 10 17  1  0  0  0  0
 11 18  1  0  0  0  0
 11 12  1  0  0  0  0
 12 21  1  0  0  0  0
 13 12  1  0  0  0  0
 13 23  1  0  0  0  0
 14  9  1  0  0  0  0
 14 13  1  0  0  0  0
 16 10  1  0  0  0  0
 19 11  1  0  0  0  0
 20 12  1  0  0  0  0
 22 13  1  0  0  0  0
 24 14  1  0  0  0  0
 25 14  1  0  0  0  0
 26  2  1  0  0  0  0
 27 29  1  0  0  0  0
 27 26  1  0  0  0  0
 28 27  1  0  0  0  0
 30 27  1  0  0  0  0
 30 35  1  0  0  0  0
 31 30  1  0  0  0  0
 32 30  1  0  0  0  0
 33 34  1  0  0  0  0
 34 41  1  0  0  0  0
 35 36  1  0  0  0  0
 35 34  2  0  0  0  0
 36 38  2  0  0  0  0
 37 36  1  0  0  0  0
 38 39  1  0  0  0  0
 38 40  1  0  0  0  0
 41 40  2  0  0  0  0
M  END
>  <minimizedAffinity>
-5.19754219

$$$$

 OpenBabel03242514183D

 41 43  0  0  0  0  0  0  0  0999 V2000
   38.1300   30.6570   40.1760 C   0  0  0  0  0  0  0  0  0  0  0  0
   38.6660   30.5460   41.4430 C   0  0  0  0  0  0  0  0  0  0  0  0
   39.6030   31.4700   41.8130 C   0  0  0  0  0  0  0  0  0  0  0  0
   39.9560   32.4440   40.9240 N   0  0  0  0  0  0  0  0  0  0  0  0
   39.4380   32.5480   39.7090 C   0  0  0  0  0  0  0  0  0  0  0  0
   38.5310   31.6510   39.3550 N   0  0  0  0  0  0  0  0  0  0  0  0
   40.1640   31.6040   42.7180 H   0  0  0  0  0  0  0  0  0  0  0  0
   39.6930   33.2990   38.9910 H   0  0  0  0  0  0  0  0  0  0  0  0
   37.1600   29.6230   39.8030 C   0  0  0  0  0  0  0  0  0  0  0  0
   37.1480   29.2240   38.4040 C   0  0  0  0  0  0  0  0  0  0  0  0
   35.9170   29.5990   37.6910 C   0  0  0  0  0  0  0  0  0  0  0  0
   34.6800   29.0190   38.3700 C   0  0  0  0  0  0  0  0  0  0  0  0
   34.7280   29.1190   39.8550 C   0  0  0  0  0  0  0  0  0  0  0  0
   35.7980   30.0900   40.3100 C   0  0  0  0  0  0  0  0  0  0  0  0
   37.3040   28.7060   40.4290 H   0  0  0  0  0  0  0  0  0  0  0  0
   38.0000   29.7670   37.8920 H   0  0  0  0  0  0  0  0  0  0  0  0
   37.3780   28.1520   38.1790 H   0  0  0  0  0  0  0  0  0  0  0  0
   35.9240   29.2170   36.6620 H   0  0  0  0  0  0  0  0  0  0  0  0
   35.8250   30.7220   37.6350 H   0  0  0  0  0  0  0  0  0  0  0  0
   33.8240   29.6360   38.0030 H   0  0  0  0  0  0  0  0  0  0  0  0
   34.4700   27.9920   38.0010 H   0  0  0  0  0  0  0  0  0  0  0  0
   33.7690   29.3570   40.3320 H   0  0  0  0  0  0  0  0  0  0  0  0
   35.0560   28.1250   40.2430 H   0  0  0  0  0  0  0  0  0  0  0  0
   35.5840   31.0850   39.8870 H   0  0  0  0  0  0  0  0  0  0  0  0
   35.7890   30.1560   41.4030 H   0  0  0  0  0  0  0  0  0  0  0  0
   38.4720   29.7070   42.4380 O   0  0  0  0  0  0  0  0  0  0  0  0
   39.0670   28.5880   42.9200 C   0  0  0  0  0  0  0  0  0  0  0  0
   40.0010   28.8590   43.4910 H   0  0  0  0  0  0  0  0  0  0  0  0
   38.4460   28.0410   43.6590 H   0  0  0  0  0  0  0  0  0  0  0  0
   39.5070   27.5730   41.9040 C   0  0  0  0  0  0  0  0  0  0  0  0
   40.4630   27.1390   42.2600 H   0  0  0  0  0  0  0  0  0  0  0  0
   39.7550   28.0910   40.9310 H   0  0  0  0  0  0  0  0  0  0  0  0
   39.5490   25.2670   43.5150 F   0  0  0  0  0  0  0  0  0  0  0  0
   38.6720   25.4030   42.4710 C   0  0  0  0  0  0  0  0  0  0  0  0
   38.5730   26.5010   41.6090 C   0  0  0  0  0  0  0  0  0  0  0  0
   37.6050   26.3870   40.6390 C   0  0  0  0  0  0  0  0  0  0  0  0
   37.5240   27.2380   39.9820 H   0  0  0  0  0  0  0  0  0  0  0  0
   36.7640   25.3200   40.4610 C   0  0  0  0  0  0  0  0  0  0  0  0
   36.0470   25.3820   39.6420 H   0  0  0  0  0  0  0  0  0  0  0  0
   36.8620   24.2430   41.3050 C   0  0  0  0  0  3  0  0  0  0  0  0
   37.8310   24.3100   42.3090 C   0  0  0  0  0  3  0  0  0  0  0  0
  1  2  1  0  0  0  0
  2  3  2  0  0  0  0
  2 26  1  0  0  0  0
  3  7  1  0  0  0  0
  4  3  1  0  0  0  0
  5  4  2  0  0  0  0
  6  5  1  0  0  0  0
  6  1  2  0  0  0  0
  8  5  1  0  0  0  0
  9  1  1  0  0  0  0
  9 14  1  0  0  0  0
  9 15  1  0  0  0  0
 10  9  1  0  0  0  0
 11 12  1  0  0  0  0
 11 10  1  0  0  0  0
 12 13  1  0  0  0  0
 13 23  1  0  0  0  0
 13 14  1  0  0  0  0
 13 22  1  0  0  0  0
 14 25  1  0  0  0  0
 16 10  1  0  0  0  0
 17 10  1  0  0  0  0
 18 11  1  0  0  0  0
 19 11  1  0  0  0  0
 20 12  1  0  0  0  0
 21 12  1  0  0  0  0
 24 14  1  0  0  0  0
 26 27  1  0  0  0  0
 27 28  1  0  0  0  0
 27 29  1  0  0  0  0
 30 31  1  0  0  0  0
 30 27  1  0  0  0  0
 32 30  1  0  0  0  0
 34 33  1  0  0  0  0
 35 30  1  0  0  0  0
 35 34  2  0  0  0  0
 36 35  1  0  0  0  0
 37 36  1  0  0  0  0
 38 36  2  0  0  0  0
 38 40  1  0  0  0  0
 39 38  1  0  0  0  0
 40 41  2  0  0  0  0
 41 34  1  0  0  0  0
M  END
>  <minimizedAffinity>
-5.1535244

$$$$

 OpenBabel03242514183D

 41 43  0  0  0  0  0  0  0  0999 V2000
   38.4690   26.1100   41.5980 C   0  0  0  0  0  0  0  0  0  0  0  0
   37.4360   26.4300   40.7400 C   0  0  0  0  0  0  0  0  0  0  0  0
   36.7670   25.3960   40.1470 C   0  0  0  0  0  0  0  0  0  0  0  0
   37.1470   24.1150   40.4310 N   0  0  0  0  0  0  0  0  0  0  0  0
   38.1380   23.8120   41.2570 C   0  0  0  0  0  0  0  0  0  0  0  0
   38.7840   24.8170   41.8280 N   0  0  0  0  0  0  0  0  0  0  0  0
   35.9480   25.3710   39.4550 H   0  0  0  0  0  0  0  0  0  0  0  0
   38.4570   22.8210   41.4990 H   0  0  0  0  0  0  0  0  0  0  0  0
   39.1880   27.2470   42.1800 C   0  0  0  0  0  0  0  0  0  0  0  0
   38.5930   27.8500   43.3630 C   0  0  0  0  0  0  0  0  0  0  0  0
   38.0950   29.2170   43.1460 C   0  0  0  0  0  0  0  0  0  0  0  0
   39.2000   30.1380   42.6360 C   0  0  0  0  0  0  0  0  0  0  0  0
   40.0660   29.5000   41.6060 C   0  0  0  0  0  0  0  0  0  0  0  0
   39.4260   28.2440   41.0490 C   0  0  0  0  0  0  0  0  0  0  0  0
   40.2430   26.9610   42.4230 H   0  0  0  0  0  0  0  0  0  0  0  0
   37.6970   27.2180   43.6480 H   0  0  0  0  0  0  0  0  0  0  0  0
   39.2020   27.8370   44.3010 H   0  0  0  0  0  0  0  0  0  0  0  0
   37.7210   29.6550   44.0800 H   0  0  0  0  0  0  0  0  0  0  0  0
   37.2410   29.2090   42.4090 H   0  0  0  0  0  0  0  0  0  0  0  0
   38.6710   31.0020   42.1650 H   0  0  0  0  0  0  0  0  0  0  0  0
   39.7700   30.5800   43.4820 H   0  0  0  0  0  0  0  0  0  0  0  0
   40.3780   30.1630   40.7910 H   0  0  0  0  0  0  0  0  0  0  0  0
   40.9900   29.1480   42.1240 H   0  0  0  0  0  0  0  0  0  0  0  0
   38.4570   28.5060   40.5960 H   0  0  0  0  0  0  0  0  0  0  0  0
   40.0780   27.8150   40.2810 H   0  0  0  0  0  0  0  0  0  0  0  0
   36.9150   27.5680   40.3360 O   0  0  0  0  0  0  0  0  0  0  0  0
   35.7750   28.2690   40.5550 C   0  0  0  0  0  0  0  0  0  0  0  0
   34.8890   27.5700   40.5830 H   0  0  0  0  0  0  0  0  0  0  0  0
   35.7510   28.7760   41.5410 H   0  0  0  0  0  0  0  0  0  0  0  0
   35.4230   29.3110   39.5340 C   0  0  0  0  0  0  0  0  0  0  0  0
   34.4800   29.7920   39.8610 H   0  0  0  0  0  0  0  0  0  0  0  0
   35.1810   28.8130   38.5490 H   0  0  0  0  0  0  0  0  0  0  0  0
   35.9060   31.2470   41.5160 F   0  0  0  0  0  0  0  0  0  0  0  0
   36.5880   31.2450   40.3280 C   0  0  0  0  0  0  0  0  0  0  0  0
   36.4210   30.3340   39.2780 C   0  0  0  0  0  0  0  0  0  0  0  0
   37.2340   30.5530   38.1910 C   0  0  0  0  0  0  0  0  0  0  0  0
   37.1100   29.8450   37.3870 H   0  0  0  0  0  0  0  0  0  0  0  0
   38.1580   31.5560   38.0640 C   0  0  0  0  0  0  0  0  0  0  0  0
   38.7270   31.5960   37.1350 H   0  0  0  0  0  0  0  0  0  0  0  0
   38.3210   32.4490   39.0930 C   0  0  0  0  0  3  0  0  0  0  0  0
   37.5190   32.2700   40.2220 C   0  0  0  0  0  3  0  0  0  0  0  0
  1  6  1  0  0  0  0
  1  9  1  0  0  0  0
  2  1  2  0  0  0  0
  3  4  2  0  0  0  0
  3  2  1  0  0  0  0
  4  5  1  0  0  0  0
  5  8  1  0  0  0  0
  5  6  2  0  0  0  0
  7  3  1  0  0  0  0
  9 15  1  0  0  0  0
  9 10  1  0  0  0  0
 10 16  1  0  0  0  0
 10 17  1  0  0  0  0
 11 10  1  0  0  0  0
 11 18  1  0  0  0  0
 12 11  1  0  0  0  0
 12 21  1  0  0  0  0
 13 23  1  0  0  0  0
 13 12  1  0  0  0  0
 14 13  1  0  0  0  0
 14  9  1  0  0  0  0
 19 11  1  0  0  0  0
 20 12  1  0  0  0  0
 22 13  1  0  0  0  0
 24 14  1  0  0  0  0
 25 14  1  0  0  0  0
 26 27  1  0  0  0  0
 26  2  1  0  0  0  0
 27 28  1  0  0  0  0
 27 29  1  0  0  0  0
 30 31  1  0  0  0  0
 30 27  1  0  0  0  0
 32 30  1  0  0  0  0
 34 33  1  0  0  0  0
 35 30  1  0  0  0  0
 35 34  2  0  0  0  0
 36 35  1  0  0  0  0
 37 36  1  0  0  0  0
 38 36  2  0  0  0  0
 38 40  1  0  0  0  0
 39 38  1  0  0  0  0
 40 41  2  0  0  0  0
 41 34  1  0  0  0  0
M  END
>  <minimizedAffinity>
-5.13560963

$$$$

 OpenBabel03242514183D

 41 43  0  0  0  0  0  0  0  0999 V2000
   37.2480   29.4880   39.3820 C   0  0  0  0  0  0  0  0  0  0  0  0
   37.2370   30.2690   40.5200 C   0  0  0  0  0  0  0  0  0  0  0  0
   37.2750   31.6260   40.3530 C   0  0  0  0  0  0  0  0  0  0  0  0
   37.3210   32.1330   39.0860 N   0  0  0  0  0  0  0  0  0  0  0  0
   37.3290   31.3790   37.9960 C   0  0  0  0  0  0  0  0  0  0  0  0
   37.2930   30.0670   38.1630 N   0  0  0  0  0  0  0  0  0  0  0  0
   37.2790   32.4380   41.0540 H   0  0  0  0  0  0  0  0  0  0  0  0
   37.3630   31.7470   36.9920 H   0  0  0  0  0  0  0  0  0  0  0  0
   37.2490   28.0390   39.6060 C   0  0  0  0  0  0  0  0  0  0  0  0
   38.5380   27.3720   39.5090 C   0  0  0  0  0  0  0  0  0  0  0  0
   38.6490   26.4560   38.3630 C   0  0  0  0  0  0  0  0  0  0  0  0
   37.5540   25.3930   38.3920 C   0  0  0  0  0  0  0  0  0  0  0  0
   36.2210   25.9360   38.7730 C   0  0  0  0  0  0  0  0  0  0  0  0
   36.1920   27.4480   38.6760 C   0  0  0  0  0  0  0  0  0  0  0  0
   36.8010   27.7960   40.6020 H   0  0  0  0  0  0  0  0  0  0  0  0
   39.3230   28.1760   39.3600 H   0  0  0  0  0  0  0  0  0  0  0  0
   38.9080   26.8440   40.4240 H   0  0  0  0  0  0  0  0  0  0  0  0
   39.6090   25.9260   38.3720 H   0  0  0  0  0  0  0  0  0  0  0  0
   38.5880   27.0330   37.3950 H   0  0  0  0  0  0  0  0  0  0  0  0
   37.4910   25.0050   37.3470 H   0  0  0  0  0  0  0  0  0  0  0  0
   37.8670   24.5180   39.0020 H   0  0  0  0  0  0  0  0  0  0  0  0
   35.3740   25.5030   38.2270 H   0  0  0  0  0  0  0  0  0  0  0  0
   36.0700   25.7130   39.8560 H   0  0  0  0  0  0  0  0  0  0  0  0
   36.4230   27.7460   37.6410 H   0  0  0  0  0  0  0  0  0  0  0  0
   35.1930   27.8100   38.9410 H   0  0  0  0  0  0  0  0  0  0  0  0
   37.1950   29.9950   41.8060 O   0  0  0  0  0  0  0  0  0  0  0  0
   38.0620   29.5690   42.7570 C   0  0  0  0  0  0  0  0  0  0  0  0
   39.0070   29.1810   42.2760 H   0  0  0  0  0  0  0  0  0  0  0  0
   38.4130   30.3780   43.4300 H   0  0  0  0  0  0  0  0  0  0  0  0
   37.5880   28.4560   43.6460 C   0  0  0  0  0  0  0  0  0  0  0  0
   36.5210   28.6480   43.8780 H   0  0  0  0  0  0  0  0  0  0  0  0
   38.1260   28.5050   44.6380 H   0  0  0  0  0  0  0  0  0  0  0  0
   40.1380   27.2700   43.6740 F   0  0  0  0  0  0  0  0  0  0  0  0
   39.0390   26.6070   43.1940 C   0  0  0  0  0  0  0  0  0  0  0  0
   37.7330   27.1060   43.1310 C   0  0  0  0  0  0  0  0  0  0  0  0
   36.8080   26.2350   42.6040 C   0  0  0  0  0  0  0  0  0  0  0  0
   35.8010   26.6180   42.5640 H   0  0  0  0  0  0  0  0  0  0  0  0
   37.0610   24.9660   42.1550 C   0  0  0  0  0  0  0  0  0  0  0  0
   36.2170   24.3980   41.7630 H   0  0  0  0  0  0  0  0  0  0  0  0
   38.3420   24.4770   42.2160 C   0  0  0  0  0  3  0  0  0  0  0  0
   39.3190   25.3230   42.7440 C   0  0  0  0  0  3  0  0  0  0  0  0
  1  9  1  0  0  0  0
  1  2  1  0  0  0  0
  2 26  1  0  0  0  0
  3  2  2  0  0  0  0
  3  7  1  0  0  0  0
  4  3  1  0  0  0  0
  5  6  1  0  0  0  0
  5  4  2  0  0  0  0
  6  1  2  0  0  0  0
  8  5  1  0  0  0  0
  9 15  1  0  0  0  0
 10  9  1  0  0  0  0
 10 17  1  0  0  0  0
 11 18  1  0  0  0  0
 11 12  1  0  0  0  0
 11 10  1  0  0  0  0
 12 13  1  0  0  0  0
 12 21  1  0  0  0  0
 13 23  1  0  0  0  0
 14 13  1  0  0  0  0
 14 25  1  0  0  0  0
 14  9  1  0  0  0  0
 16 10  1  0  0  0  0
 19 11  1  0  0  0  0
 20 12  1  0  0  0  0
 22 13  1  0  0  0  0
 24 14  1  0  0  0  0
 26 27  1  0  0  0  0
 27 29  1  0  0  0  0
 27 30  1  0  0  0  0
 28 27  1  0  0  0  0
 30 31  1  0  0  0  0
 30 32  1  0  0  0  0
 34 33  1  0  0  0  0
 35 34  1  0  0  0  0
 35 30  1  0  0  0  0
 36 35  2  0  0  0  0
 37 36  1  0  0  0  0
 38 40  2  0  0  0  0
 38 36  1  0  0  0  0
 39 38  1  0  0  0  0
 40 41  1  0  0  0  0
 41 34  2  0  0  0  0
M  END
>  <minimizedAffinity>
-5.12051868

$$$$
