
 OpenBabel03252508073D

 44 47  0  0  0  0  0  0  0  0999 V2000
   45.1620   35.4490   43.1790 C   0  0  0  0  0  0  0  0  0  0  0  0
   45.5580   34.1220   43.2640 C   0  0  0  0  0  0  0  0  0  0  0  0
   45.4910   33.4670   44.4700 C   0  0  0  0  0  0  0  0  0  0  0  0
   45.0190   34.1870   45.5530 N   0  0  0  0  0  0  0  0  0  0  0  0
   44.6420   35.4600   45.4590 C   0  0  0  0  0  0  0  0  0  0  0  0
   44.7200   36.0810   44.2610 N   0  0  0  0  0  0  0  0  0  0  0  0
   45.2070   35.9890   42.2340 H   0  0  0  0  0  0  0  0  0  0  0  0
   44.2820   35.9600   46.3550 H   0  0  0  0  0  0  0  0  0  0  0  0
   45.8550   32.1250   44.7240 C   0  0  0  0  0  0  0  0  0  0  0  0
   45.5470   31.0570   43.8760 C   0  0  0  0  0  0  0  0  0  0  0  0
   45.8420   29.7450   44.1530 C   0  0  0  0  0  0  0  0  0  0  0  0
   46.4830   29.4190   45.3360 C   0  0  0  0  0  0  0  0  0  0  0  0
   46.8020   30.4950   46.2030 C   0  0  0  0  0  0  0  0  0  0  0  0
   47.4370   30.1860   47.3810 C   0  0  0  0  0  0  0  0  0  0  0  0
   47.7810   31.1810   48.2760 C   0  0  0  0  0  0  0  0  0  0  0  0
   47.4770   32.5120   47.9700 C   0  0  0  0  0  0  0  0  0  0  0  0
   46.8250   32.7840   46.7510 C   0  0  0  0  0  0  0  0  0  0  0  0
   46.4930   31.7760   45.8870 C   0  0  0  0  0  0  0  0  0  0  0  0
   45.0430   31.3170   42.9470 H   0  0  0  0  0  0  0  0  0  0  0  0
   45.5590   28.9920   43.4260 H   0  0  0  0  0  0  0  0  0  0  0  0
   46.7110   28.4040   45.5550 H   0  0  0  0  0  0  0  0  0  0  0  0
   47.6640   29.1420   47.5960 H   0  0  0  0  0  0  0  0  0  0  0  0
   48.2720   30.8550   49.1710 H   0  0  0  0  0  0  0  0  0  0  0  0
   47.7830   33.2220   48.7230 H   0  0  0  0  0  0  0  0  0  0  0  0
   46.7050   33.8440   46.6930 H   0  0  0  0  0  0  0  0  0  0  0  0
   45.9980   33.5290   42.1210 O   0  0  0  0  0  0  0  0  0  0  0  0
   48.2040   32.4100   41.2340 O   0  0  0  0  0  0  0  0  0  0  0  0
   47.5430   33.7350   41.4590 P   0  0  1  0  0  0  0  0  0  0  0  0
   47.4860   34.5270   39.9730 O   0  0  0  0  0  0  0  0  0  0  0  0
   45.2730   32.9240   39.1890 F   0  0  0  0  0  0  0  0  0  0  0  0
   46.3230   33.0050   38.3410 C   0  0  0  0  0  0  0  0  0  0  0  0
   47.3410   33.8010   38.8090 C   0  0  0  0  0  0  0  0  0  0  0  0
   48.4740   33.9470   38.0020 C   0  0  0  0  0  0  0  0  0  0  0  0
   49.3700   34.5450   38.2300 H   0  0  0  0  0  0  0  0  0  0  0  0
   48.5780   33.3150   36.7710 C   0  0  0  0  0  0  0  0  0  0  0  0
   49.4340   33.4030   36.1210 H   0  0  0  0  0  0  0  0  0  0  0  0
   47.5490   32.5190   36.3140 C   0  0  0  0  0  3  0  0  0  0  0  0
   46.4360   32.3800   37.1160 C   0  0  0  0  0  3  0  0  0  0  0  0
   48.4450   34.6730   42.5220 O   0  0  0  0  0  0  0  0  0  0  0  0
   49.6590   35.2900   42.2550 C   0  0  0  0  0  0  0  0  0  0  0  0
   49.3480   36.3570   41.6880 O   0  0  0  0  0  0  0  0  0  0  0  0
   50.7600   34.4890   42.7190 N   0  0  0  0  0  0  0  0  0  0  0  0
   51.4720   33.9660   42.1490 H   0  0  0  0  0  0  0  0  0  0  0  0
   50.8430   34.4330   43.7650 H   0  0  0  0  0  0  0  0  0  0  0  0
  1  2  2  0  0  0  0
  1  6  1  0  0  0  0
  2  3  1  0  0  0  0
  3  9  1  0  0  0  0
  3  4  2  0  0  0  0
  5  4  1  0  0  0  0
  5  8  1  0  0  0  0
  6  5  2  0  0  0  0
  7  1  1  0  0  0  0
  9 18  1  0  0  0  0
 10 11  1  0  0  0  0
 10  9  2  0  0  0  0
 11 12  2  0  0  0  0
 12 21  1  0  0  0  0
 12 13  1  0  0  0  0
 13 14  1  0  0  0  0
 14 22  1  0  0  0  0
 14 15  2  0  0  0  0
 15 23  1  0  0  0  0
 16 15  1  0  0  0  0
 16 24  1  0  0  0  0
 17 16  2  0  0  0  0
 18 13  2  0  0  0  0
 18 17  1  0  0  0  0
 19 10  1  0  0  0  0
 20 11  1  0  0  0  0
 25 17  1  0  0  0  0
 26  2  1  0  0  0  0
 28 27  2  6  0  0  0
 28 26  1  0  0  0  0
 28 39  1  0  0  0  0
 29 28  1  0  0  0  0
 31 32  1  0  0  0  0
 31 30  1  0  0  0  0
 32 29  1  0  0  0  0
 33 34  1  0  0  0  0
 33 32  2  0  0  0  0
 35 33  1  0  0  0  0
 36 35  1  0  0  0  0
 37 35  2  0  0  0  0
 37 38  1  0  0  0  0
 38 31  2  0  0  0  0
 40 39  1  0  0  0  0
 40 42  1  0  0  0  0
 41 40  2  0  0  0  0
 42 44  1  0  0  0  0
 43 42  1  0  0  0  0
M  END
>  <minimizedAffinity>
-6.44877768

>  <minimizedRMSD>
0.986792922

$$$$
