
 OpenBabel03252508103D

 44 47  0  0  0  0  0  0  0  0999 V2000
   41.7180   30.8590   41.1650 C   0  0  0  0  0  0  0  0  0  0  0  0
   40.4290   30.3850   41.3670 C   0  0  0  0  0  0  0  0  0  0  0  0
   40.2380   29.1540   41.9450 C   0  0  0  0  0  0  0  0  0  0  0  0
   41.3700   28.4440   42.3030 N   0  0  0  0  0  0  0  0  0  0  0  0
   42.6010   28.9080   42.1050 C   0  0  0  0  0  0  0  0  0  0  0  0
   42.7610   30.1220   41.5330 N   0  0  0  0  0  0  0  0  0  0  0  0
   41.8930   31.8320   40.7080 H   0  0  0  0  0  0  0  0  0  0  0  0
   43.4430   28.2910   42.4140 H   0  0  0  0  0  0  0  0  0  0  0  0
   38.9990   28.5300   42.2160 C   0  0  0  0  0  0  0  0  0  0  0  0
   38.2590   28.7350   43.3850 C   0  0  0  0  0  0  0  0  0  0  0  0
   37.0890   28.0810   43.6800 C   0  0  0  0  0  0  0  0  0  0  0  0
   36.5770   27.1520   42.7890 C   0  0  0  0  0  0  0  0  0  0  0  0
   37.3180   26.9390   41.5990 C   0  0  0  0  0  0  0  0  0  0  0  0
   36.8220   26.0190   40.7070 C   0  0  0  0  0  0  0  0  0  0  0  0
   37.4880   25.7570   39.5240 C   0  0  0  0  0  0  0  0  0  0  0  0
   38.6750   26.4420   39.2420 C   0  0  0  0  0  0  0  0  0  0  0  0
   39.1480   27.3760   40.1850 C   0  0  0  0  0  0  0  0  0  0  0  0
   38.4690   27.6100   41.3490 C   0  0  0  0  0  0  0  0  0  0  0  0
   38.6660   29.4650   44.0830 H   0  0  0  0  0  0  0  0  0  0  0  0
   36.5940   28.3140   44.6150 H   0  0  0  0  0  0  0  0  0  0  0  0
   35.6720   26.6430   43.0140 H   0  0  0  0  0  0  0  0  0  0  0  0
   35.8950   25.5010   40.9490 H   0  0  0  0  0  0  0  0  0  0  0  0
   37.0350   25.0270   38.8850 H   0  0  0  0  0  0  0  0  0  0  0  0
   39.1260   26.1770   38.2970 H   0  0  0  0  0  0  0  0  0  0  0  0
   40.0400   27.8010   39.7800 H   0  0  0  0  0  0  0  0  0  0  0  0
   39.4030   31.1870   40.9730 O   0  0  0  0  0  0  0  0  0  0  0  0
   39.7390   30.7850   38.3970 O   0  0  0  0  0  0  0  0  0  0  0  0
   39.1670   31.7480   39.3920 P   0  0  1  0  0  0  0  0  0  0  0  0
   37.5320   31.9310   39.0310 O   0  0  0  0  0  0  0  0  0  0  0  0
   36.2070   31.2100   41.4390 F   0  0  0  0  0  0  0  0  0  0  0  0
   35.9730   30.4540   40.3430 C   0  0  0  0  0  0  0  0  0  0  0  0
   36.6590   30.8820   39.2320 C   0  0  0  0  0  0  0  0  0  0  0  0
   36.4840   30.1630   38.0450 C   0  0  0  0  0  0  0  0  0  0  0  0
   36.9580   30.3730   37.0740 H   0  0  0  0  0  0  0  0  0  0  0  0
   35.6500   29.0550   37.9810 C   0  0  0  0  0  0  0  0  0  0  0  0
   35.4900   28.4750   37.0850 H   0  0  0  0  0  0  0  0  0  0  0  0
   34.9690   28.6370   39.1040 C   0  0  0  0  0  3  0  0  0  0  0  0
   35.1470   29.3530   40.2690 C   0  0  0  0  0  3  0  0  0  0  0  0
   39.9090   33.2490   39.2550 O   0  0  0  0  0  0  0  0  0  0  0  0
   41.1300   33.5170   38.6530 C   0  0  0  0  0  0  0  0  0  0  0  0
   41.8280   34.0020   39.5650 O   0  0  0  0  0  0  0  0  0  0  0  0
   41.1130   33.1440   37.2630 N   0  0  0  0  0  0  0  0  0  0  0  0
   41.1270   33.7710   36.4190 H   0  0  0  0  0  0  0  0  0  0  0  0
   41.0830   32.1080   37.0940 H   0  0  0  0  0  0  0  0  0  0  0  0
  1  2  2  0  0  0  0
  1  6  1  0  0  0  0
  2  3  1  0  0  0  0
  3  9  1  0  0  0  0
  3  4  2  0  0  0  0
  5  4  1  0  0  0  0
  5  8  1  0  0  0  0
  6  5  2  0  0  0  0
  7  1  1  0  0  0  0
  9 10  1  0  0  0  0
 10 11  2  0  0  0  0
 10 19  1  0  0  0  0
 11 20  1  0  0  0  0
 12 21  1  0  0  0  0
 12 11  1  0  0  0  0
 13 12  2  0  0  0  0
 14 22  1  0  0  0  0
 14 13  1  0  0  0  0
 15 14  2  0  0  0  0
 16 15  1  0  0  0  0
 16 17  2  0  0  0  0
 17 18  1  0  0  0  0
 18 13  1  0  0  0  0
 18  9  2  0  0  0  0
 23 15  1  0  0  0  0
 24 16  1  0  0  0  0
 25 17  1  0  0  0  0
 26  2  1  0  0  0  0
 28 27  2  6  0  0  0
 28 26  1  0  0  0  0
 29 32  1  0  0  0  0
 29 28  1  0  0  0  0
 31 30  1  0  0  0  0
 32 31  2  0  0  0  0
 33 32  1  0  0  0  0
 34 33  1  0  0  0  0
 35 33  2  0  0  0  0
 35 37  1  0  0  0  0
 36 35  1  0  0  0  0
 37 38  2  0  0  0  0
 38 31  1  0  0  0  0
 39 28  1  0  0  0  0
 40 39  1  0  0  0  0
 40 41  2  0  0  0  0
 42 40  1  0  0  0  0
 43 42  1  0  0  0  0
 44 42  1  0  0  0  0
M  END
>  <minimizedAffinity>
-6.25931787

$$$$

 OpenBabel03252508103D

 44 47  0  0  0  0  0  0  0  0999 V2000
   37.7850   29.7670   37.4690 C   0  0  0  0  0  0  0  0  0  0  0  0
   37.9270   29.2110   38.7330 C   0  0  0  0  0  0  0  0  0  0  0  0
   36.8360   28.6670   39.3650 C   0  0  0  0  0  0  0  0  0  0  0  0
   35.6320   28.7040   38.6860 N   0  0  0  0  0  0  0  0  0  0  0  0
   35.5070   29.2390   37.4740 C   0  0  0  0  0  0  0  0  0  0  0  0
   36.5970   29.7680   36.8750 N   0  0  0  0  0  0  0  0  0  0  0  0
   38.6360   30.2040   36.9490 H   0  0  0  0  0  0  0  0  0  0  0  0
   34.5260   29.2300   37.0030 H   0  0  0  0  0  0  0  0  0  0  0  0
   36.8120   28.0680   40.6450 C   0  0  0  0  0  0  0  0  0  0  0  0
   36.7920   28.7860   41.8450 C   0  0  0  0  0  0  0  0  0  0  0  0
   36.8350   28.2070   43.0890 C   0  0  0  0  0  0  0  0  0  0  0  0
   36.9040   26.8290   43.2050 C   0  0  0  0  0  0  0  0  0  0  0  0
   36.9230   26.0910   41.9940 C   0  0  0  0  0  0  0  0  0  0  0  0
   36.9930   24.7230   42.0940 C   0  0  0  0  0  0  0  0  0  0  0  0
   37.0140   23.9350   40.9580 C   0  0  0  0  0  0  0  0  0  0  0  0
   36.9620   24.5470   39.7010 C   0  0  0  0  0  0  0  0  0  0  0  0
   36.8910   25.9530   39.6450 C   0  0  0  0  0  0  0  0  0  0  0  0
   36.8760   26.7060   40.7870 C   0  0  0  0  0  0  0  0  0  0  0  0
   36.7380   29.8690   41.7500 H   0  0  0  0  0  0  0  0  0  0  0  0
   36.8140   28.8560   43.9570 H   0  0  0  0  0  0  0  0  0  0  0  0
   36.9390   26.3770   44.1660 H   0  0  0  0  0  0  0  0  0  0  0  0
   37.0310   24.2710   43.0840 H   0  0  0  0  0  0  0  0  0  0  0  0
   37.0700   22.8790   41.1230 H   0  0  0  0  0  0  0  0  0  0  0  0
   36.9810   23.8570   38.8710 H   0  0  0  0  0  0  0  0  0  0  0  0
   36.8360   26.2200   38.6120 H   0  0  0  0  0  0  0  0  0  0  0  0
   39.1700   29.2360   39.2870 O   0  0  0  0  0  0  0  0  0  0  0  0
   39.8050   30.3390   41.5870 O   0  0  0  0  0  0  0  0  0  0  0  0
   39.8370   30.5600   40.1050 P   0  0  1  0  0  0  0  0  0  0  0  0
   41.4450   30.8170   39.6720 O   0  0  0  0  0  0  0  0  0  0  0  0
   42.1400   33.1020   41.2110 F   0  0  0  0  0  0  0  0  0  0  0  0
   42.2010   33.2090   39.8650 C   0  0  0  0  0  0  0  0  0  0  0  0
   41.8460   32.0540   39.2110 C   0  0  0  0  0  0  0  0  0  0  0  0
   41.8760   32.0650   37.8120 C   0  0  0  0  0  0  0  0  0  0  0  0
   41.6220   31.2270   37.1440 H   0  0  0  0  0  0  0  0  0  0  0  0
   42.2480   33.1960   37.1010 C   0  0  0  0  0  0  0  0  0  0  0  0
   42.2840   33.2440   36.0230 H   0  0  0  0  0  0  0  0  0  0  0  0
   42.6020   34.3490   37.7700 C   0  0  0  0  0  3  0  0  0  0  0  0
   42.5700   34.3280   39.1490 C   0  0  0  0  0  3  0  0  0  0  0  0
   38.9530   31.9280   39.6920 O   0  0  0  0  0  0  0  0  0  0  0  0
   38.1250   32.6610   40.5290 C   0  0  0  0  0  0  0  0  0  0  0  0
   36.9710   32.3140   40.2090 O   0  0  0  0  0  0  0  0  0  0  0  0
   38.8930   33.5050   41.4060 N   0  0  0  0  0  0  0  0  0  0  0  0
   38.9750   34.5540   41.3960 H   0  0  0  0  0  0  0  0  0  0  0  0
   39.4330   32.9860   42.1410 H   0  0  0  0  0  0  0  0  0  0  0  0
  1  2  1  0  0  0  0
  2 26  1  0  0  0  0
  2  3  2  0  0  0  0
  3  9  1  0  0  0  0
  4  3  1  0  0  0  0
  5  4  2  0  0  0  0
  6  1  2  0  0  0  0
  6  5  1  0  0  0  0
  7  1  1  0  0  0  0
  8  5  1  0  0  0  0
  9 18  2  0  0  0  0
  9 10  1  0  0  0  0
 10 11  2  0  0  0  0
 11 12  1  0  0  0  0
 11 20  1  0  0  0  0
 12 21  1  0  0  0  0
 13 14  1  0  0  0  0
 13 12  2  0  0  0  0
 14 22  1  0  0  0  0
 15 23  1  0  0  0  0
 15 14  2  0  0  0  0
 16 15  1  0  0  0  0
 17 16  2  0  0  0  0
 17 18  1  0  0  0  0
 18 13  1  0  0  0  0
 19 10  1  0  0  0  0
 24 16  1  0  0  0  0
 25 17  1  0  0  0  0
 26 28  1  0  0  0  0
 28 27  2  1  0  0  0
 29 28  1  0  0  0  0
 31 30  1  0  0  0  0
 32 29  1  0  0  0  0
 32 31  1  0  0  0  0
 33 32  2  0  0  0  0
 34 33  1  0  0  0  0
 35 37  2  0  0  0  0
 35 33  1  0  0  0  0
 36 35  1  0  0  0  0
 37 38  1  0  0  0  0
 38 31  2  0  0  0  0
 39 28  1  0  0  0  0
 39 40  1  0  0  0  0
 40 42  1  0  0  0  0
 41 40  2  0  0  0  0
 42 44  1  0  0  0  0
 43 42  1  0  0  0  0
M  END
>  <minimizedAffinity>
-6.19279575

$$$$

 OpenBabel03252508103D

 44 47  0  0  0  0  0  0  0  0999 V2000
   42.3940   29.4020   41.0130 C   0  0  0  0  0  0  0  0  0  0  0  0
   41.0400   29.1560   41.1880 C   0  0  0  0  0  0  0  0  0  0  0  0
   40.6180   28.3790   42.2380 C   0  0  0  0  0  0  0  0  0  0  0  0
   41.5920   27.8780   43.0820 N   0  0  0  0  0  0  0  0  0  0  0  0
   42.8880   28.1200   42.9060 C   0  0  0  0  0  0  0  0  0  0  0  0
   43.2770   28.8870   41.8630 N   0  0  0  0  0  0  0  0  0  0  0  0
   42.7520   30.0140   40.1870 H   0  0  0  0  0  0  0  0  0  0  0  0
   43.5960   27.6910   43.6120 H   0  0  0  0  0  0  0  0  0  0  0  0
   39.2830   28.0340   42.5520 C   0  0  0  0  0  0  0  0  0  0  0  0
   38.4290   28.8340   43.3180 C   0  0  0  0  0  0  0  0  0  0  0  0
   37.1550   28.4710   43.6800 C   0  0  0  0  0  0  0  0  0  0  0  0
   36.6490   27.2460   43.2810 C   0  0  0  0  0  0  0  0  0  0  0  0
   37.5060   26.4280   42.5010 C   0  0  0  0  0  0  0  0  0  0  0  0
   37.0180   25.2090   42.1000 C   0  0  0  0  0  0  0  0  0  0  0  0
   37.7940   24.3570   41.3380 C   0  0  0  0  0  0  0  0  0  0  0  0
   39.0870   24.7500   40.9750 C   0  0  0  0  0  0  0  0  0  0  0  0
   39.5480   26.0090   41.4080 C   0  0  0  0  0  0  0  0  0  0  0  0
   38.7570   26.8280   42.1660 C   0  0  0  0  0  0  0  0  0  0  0  0
   38.8300   29.7960   43.6300 H   0  0  0  0  0  0  0  0  0  0  0  0
   36.5750   29.1660   44.2760 H   0  0  0  0  0  0  0  0  0  0  0  0
   35.6630   26.9610   43.5600 H   0  0  0  0  0  0  0  0  0  0  0  0
   36.0070   24.9260   42.3940 H   0  0  0  0  0  0  0  0  0  0  0  0
   37.3390   23.4260   41.0680 H   0  0  0  0  0  0  0  0  0  0  0  0
   39.6200   24.0260   40.3780 H   0  0  0  0  0  0  0  0  0  0  0  0
   40.5330   26.1310   41.0140 H   0  0  0  0  0  0  0  0  0  0  0  0
   40.1850   29.7140   40.2870 O   0  0  0  0  0  0  0  0  0  0  0  0
   40.7060   27.9990   38.3640 O   0  0  0  0  0  0  0  0  0  0  0  0
   40.1740   29.3750   38.6280 P   0  0  1  0  0  0  0  0  0  0  0  0
   38.6170   29.4410   37.9870 O   0  0  0  0  0  0  0  0  0  0  0  0
   37.5160   31.7120   39.2930 F   0  0  0  0  0  0  0  0  0  0  0  0
   36.9200   30.5170   39.5010 C   0  0  0  0  0  0  0  0  0  0  0  0
   37.5250   29.4830   38.8280 C   0  0  0  0  0  0  0  0  0  0  0  0
   36.9810   28.2030   38.9810 C   0  0  0  0  0  0  0  0  0  0  0  0
   37.3460   27.2750   38.5130 H   0  0  0  0  0  0  0  0  0  0  0  0
   35.8710   27.9740   39.7810 C   0  0  0  0  0  0  0  0  0  0  0  0
   35.4220   27.0030   39.9240 H   0  0  0  0  0  0  0  0  0  0  0  0
   35.2740   29.0210   40.4510 C   0  0  0  0  0  3  0  0  0  0  0  0
   35.8170   30.2790   40.2940 C   0  0  0  0  0  3  0  0  0  0  0  0
   41.1140   30.5310   37.8520 O   0  0  0  0  0  0  0  0  0  0  0  0
   40.8850   31.8990   37.8210 C   0  0  0  0  0  0  0  0  0  0  0  0
   41.6990   32.3710   38.6390 O   0  0  0  0  0  0  0  0  0  0  0  0
   39.8350   32.2260   36.8920 N   0  0  0  0  0  0  0  0  0  0  0  0
   38.8650   32.5750   37.1000 H   0  0  0  0  0  0  0  0  0  0  0  0
   40.0940   32.0910   35.8830 H   0  0  0  0  0  0  0  0  0  0  0  0
  1  2  2  0  0  0  0
  1  6  1  0  0  0  0
  2  3  1  0  0  0  0
  3  9  1  0  0  0  0
  3  4  2  0  0  0  0
  5  4  1  0  0  0  0
  5  8  1  0  0  0  0
  6  5  2  0  0  0  0
  7  1  1  0  0  0  0
  9 10  1  0  0  0  0
 10 19  1  0  0  0  0
 10 11  2  0  0  0  0
 11 20  1  0  0  0  0
 12 21  1  0  0  0  0
 12 11  1  0  0  0  0
 13 12  2  0  0  0  0
 14 22  1  0  0  0  0
 14 13  1  0  0  0  0
 15 14  2  0  0  0  0
 16 15  1  0  0  0  0
 16 17  2  0  0  0  0
 17 18  1  0  0  0  0
 18 13  1  0  0  0  0
 18  9  2  0  0  0  0
 23 15  1  0  0  0  0
 24 16  1  0  0  0  0
 25 17  1  0  0  0  0
 26  2  1  0  0  0  0
 28 27  2  6  0  0  0
 28 26  1  0  0  0  0
 29 28  1  0  0  0  0
 29 32  1  0  0  0  0
 30 31  1  0  0  0  0
 31 38  1  0  0  0  0
 32 33  1  0  0  0  0
 32 31  2  0  0  0  0
 33 35  2  0  0  0  0
 34 33  1  0  0  0  0
 35 36  1  0  0  0  0
 35 37  1  0  0  0  0
 38 37  2  0  0  0  0
 39 28  1  0  0  0  0
 40 39  1  0  0  0  0
 40 41  2  0  0  0  0
 42 43  1  0  0  0  0
 42 40  1  0  0  0  0
 44 42  1  0  0  0  0
M  END
>  <minimizedAffinity>
-6.19072628

$$$$

 OpenBabel03252508103D

 44 47  0  0  0  0  0  0  0  0999 V2000
   37.4510   29.8110   37.2790 C   0  0  0  0  0  0  0  0  0  0  0  0
   37.7590   29.3430   38.5490 C   0  0  0  0  0  0  0  0  0  0  0  0
   36.7660   28.8310   39.3460 C   0  0  0  0  0  0  0  0  0  0  0  0
   35.4860   28.8070   38.8210 N   0  0  0  0  0  0  0  0  0  0  0  0
   35.2020   29.2580   37.6020 C   0  0  0  0  0  0  0  0  0  0  0  0
   36.1980   29.7590   36.8390 N   0  0  0  0  0  0  0  0  0  0  0  0
   38.2230   30.2220   36.6300 H   0  0  0  0  0  0  0  0  0  0  0  0
   34.1710   29.2060   37.2590 H   0  0  0  0  0  0  0  0  0  0  0  0
   36.9120   28.3190   40.6560 C   0  0  0  0  0  0  0  0  0  0  0  0
   37.1520   29.1100   41.7830 C   0  0  0  0  0  0  0  0  0  0  0  0
   37.3600   28.6100   43.0440 C   0  0  0  0  0  0  0  0  0  0  0  0
   37.3380   27.2410   43.2540 C   0  0  0  0  0  0  0  0  0  0  0  0
   37.0930   26.4290   42.1180 C   0  0  0  0  0  0  0  0  0  0  0  0
   37.0700   25.0700   42.3110 C   0  0  0  0  0  0  0  0  0  0  0  0
   36.8360   24.2130   41.2520 C   0  0  0  0  0  0  0  0  0  0  0  0
   36.6190   24.7460   39.9760 C   0  0  0  0  0  0  0  0  0  0  0  0
   36.6520   26.1460   39.8230 C   0  0  0  0  0  0  0  0  0  0  0  0
   36.8910   26.9680   40.8910 C   0  0  0  0  0  0  0  0  0  0  0  0
   37.1700   30.1850   41.6140 H   0  0  0  0  0  0  0  0  0  0  0  0
   37.5380   29.3120   43.8510 H   0  0  0  0  0  0  0  0  0  0  0  0
   37.5000   26.8500   44.2290 H   0  0  0  0  0  0  0  0  0  0  0  0
   37.2400   24.6800   43.3140 H   0  0  0  0  0  0  0  0  0  0  0  0
   36.8350   23.1680   41.4870 H   0  0  0  0  0  0  0  0  0  0  0  0
   36.4430   24.0060   39.2110 H   0  0  0  0  0  0  0  0  0  0  0  0
   36.4440   26.3510   38.7960 H   0  0  0  0  0  0  0  0  0  0  0  0
   39.0600   29.4200   38.9410 O   0  0  0  0  0  0  0  0  0  0  0  0
   41.1400   30.7140   39.8930 O   0  0  0  0  0  0  0  0  0  0  0  0
   39.9860   30.8370   38.9450 P   0  0  1  0  0  0  0  0  0  0  0  0
   40.6220   31.1720   37.4210 O   0  0  0  0  0  0  0  0  0  0  0  0
   40.8200   28.4590   36.6020 F   0  0  0  0  0  0  0  0  0  0  0  0
   41.9430   29.2090   36.5650 C   0  0  0  0  0  0  0  0  0  0  0  0
   41.7450   30.5040   36.9800 C   0  0  0  0  0  0  0  0  0  0  0  0
   42.8510   31.3620   36.9780 C   0  0  0  0  0  0  0  0  0  0  0  0
   42.8600   32.4210   37.2800 H   0  0  0  0  0  0  0  0  0  0  0  0
   44.1060   30.9310   36.5740 C   0  0  0  0  0  0  0  0  0  0  0  0
   44.9820   31.5610   36.5590 H   0  0  0  0  0  0  0  0  0  0  0  0
   44.2900   29.6280   36.1610 C   0  0  0  0  0  3  0  0  0  0  0  0
   43.1940   28.7900   36.1650 C   0  0  0  0  0  3  0  0  0  0  0  0
   38.9880   32.1120   39.3920 O   0  0  0  0  0  0  0  0  0  0  0  0
   38.5050   32.3770   40.6650 C   0  0  0  0  0  0  0  0  0  0  0  0
   37.2660   32.2810   40.5560 O   0  0  0  0  0  0  0  0  0  0  0  0
   39.5820   32.6500   41.5800 N   0  0  0  0  0  0  0  0  0  0  0  0
   39.8380   33.5650   42.0320 H   0  0  0  0  0  0  0  0  0  0  0  0
   40.1730   31.8150   41.8120 H   0  0  0  0  0  0  0  0  0  0  0  0
  1  2  1  0  0  0  0
  2 26  1  0  0  0  0
  2  3  2  0  0  0  0
  3  9  1  0  0  0  0
  4  3  1  0  0  0  0
  5  4  2  0  0  0  0
  6  1  2  0  0  0  0
  6  5  1  0  0  0  0
  7  1  1  0  0  0  0
  8  5  1  0  0  0  0
  9 18  2  0  0  0  0
  9 10  1  0  0  0  0
 10 11  2  0  0  0  0
 11 12  1  0  0  0  0
 11 20  1  0  0  0  0
 12 21  1  0  0  0  0
 13 14  1  0  0  0  0
 13 12  2  0  0  0  0
 14 22  1  0  0  0  0
 15 23  1  0  0  0  0
 15 14  2  0  0  0  0
 16 15  1  0  0  0  0
 17 16  2  0  0  0  0
 17 18  1  0  0  0  0
 18 13  1  0  0  0  0
 19 10  1  0  0  0  0
 24 16  1  0  0  0  0
 25 17  1  0  0  0  0
 26 28  1  0  0  0  0
 28 39  1  0  0  0  0
 28 27  2  1  0  0  0
 29 28  1  0  0  0  0
 31 30  1  0  0  0  0
 31 32  1  0  0  0  0
 32 29  1  0  0  0  0
 33 32  2  0  0  0  0
 33 34  1  0  0  0  0
 35 33  1  0  0  0  0
 36 35  1  0  0  0  0
 37 38  1  0  0  0  0
 37 35  2  0  0  0  0
 38 31  2  0  0  0  0
 39 40  1  0  0  0  0
 40 42  1  0  0  0  0
 41 40  2  0  0  0  0
 42 44  1  0  0  0  0
 42 43  1  0  0  0  0
M  END
>  <minimizedAffinity>
-6.14063072

$$$$

 OpenBabel03252508103D

 44 47  0  0  0  0  0  0  0  0999 V2000
   36.8540   24.3530   38.8960 C   0  0  0  0  0  0  0  0  0  0  0  0
   36.8650   25.5050   39.6690 C   0  0  0  0  0  0  0  0  0  0  0  0
   37.5930   25.5380   40.8330 C   0  0  0  0  0  0  0  0  0  0  0  0
   38.2930   24.3940   41.1710 N   0  0  0  0  0  0  0  0  0  0  0  0
   38.2760   23.2950   40.4210 C   0  0  0  0  0  0  0  0  0  0  0  0
   37.5490   23.2890   39.2820 N   0  0  0  0  0  0  0  0  0  0  0  0
   36.2830   24.3040   37.9700 H   0  0  0  0  0  0  0  0  0  0  0  0
   38.8520   22.4330   40.7530 H   0  0  0  0  0  0  0  0  0  0  0  0
   37.7070   26.6260   41.7290 C   0  0  0  0  0  0  0  0  0  0  0  0
   36.8780   26.8150   42.8390 C   0  0  0  0  0  0  0  0  0  0  0  0
   36.9440   27.9040   43.6720 C   0  0  0  0  0  0  0  0  0  0  0  0
   37.8760   28.8990   43.4310 C   0  0  0  0  0  0  0  0  0  0  0  0
   38.7240   28.7170   42.3090 C   0  0  0  0  0  0  0  0  0  0  0  0
   39.6520   29.6970   42.0560 C   0  0  0  0  0  0  0  0  0  0  0  0
   40.5140   29.5890   40.9810 C   0  0  0  0  0  0  0  0  0  0  0  0
   40.4330   28.4660   40.1500 C   0  0  0  0  0  0  0  0  0  0  0  0
   39.4660   27.4850   40.4450 C   0  0  0  0  0  0  0  0  0  0  0  0
   38.6230   27.6230   41.5140 C   0  0  0  0  0  0  0  0  0  0  0  0
   36.1460   26.0310   43.0250 H   0  0  0  0  0  0  0  0  0  0  0  0
   36.2540   27.9530   44.5060 H   0  0  0  0  0  0  0  0  0  0  0  0
   37.9290   29.7450   44.0730 H   0  0  0  0  0  0  0  0  0  0  0  0
   39.6960   30.5600   42.7190 H   0  0  0  0  0  0  0  0  0  0  0  0
   41.2060   30.3960   40.8550 H   0  0  0  0  0  0  0  0  0  0  0  0
   41.1440   28.4640   39.3380 H   0  0  0  0  0  0  0  0  0  0  0  0
   39.5790   26.7100   39.7190 H   0  0  0  0  0  0  0  0  0  0  0  0
   36.1370   26.5630   39.2200 O   0  0  0  0  0  0  0  0  0  0  0  0
   35.6160   26.5960   36.6440 O   0  0  0  0  0  0  0  0  0  0  0  0
   36.3590   27.3230   37.7230 P   0  0  1  0  0  0  0  0  0  0  0  0
   35.7950   28.9110   37.7380 O   0  0  0  0  0  0  0  0  0  0  0  0
   34.6430   28.9600   40.3350 F   0  0  0  0  0  0  0  0  0  0  0  0
   35.6250   29.8500   40.0660 C   0  0  0  0  0  0  0  0  0  0  0  0
   36.1150   29.7470   38.7860 C   0  0  0  0  0  0  0  0  0  0  0  0
   37.1360   30.6280   38.4110 C   0  0  0  0  0  0  0  0  0  0  0  0
   37.6330   30.6760   37.4290 H   0  0  0  0  0  0  0  0  0  0  0  0
   37.6400   31.5750   39.2900 C   0  0  0  0  0  0  0  0  0  0  0  0
   38.4250   32.2720   39.0380 H   0  0  0  0  0  0  0  0  0  0  0  0
   37.1380   31.6670   40.5700 C   0  0  0  0  0  3  0  0  0  0  0  0
   36.1330   30.7940   40.9320 C   0  0  0  0  0  3  0  0  0  0  0  0
   38.0060   27.3510   37.3910 O   0  0  0  0  0  0  0  0  0  0  0  0
   38.6240   27.9860   36.3240 C   0  0  0  0  0  0  0  0  0  0  0  0
   39.8360   27.9840   36.6190 O   0  0  0  0  0  0  0  0  0  0  0  0
   37.6620   28.3850   35.3320 N   0  0  0  0  0  0  0  0  0  0  0  0
   37.3490   29.3570   35.0790 H   0  0  0  0  0  0  0  0  0  0  0  0
   37.2290   27.5870   34.8050 H   0  0  0  0  0  0  0  0  0  0  0  0
  1  6  2  0  0  0  0
  1  2  1  0  0  0  0
  2  3  2  0  0  0  0
  3  4  1  0  0  0  0
  3  9  1  0  0  0  0
  5  8  1  0  0  0  0
  5  4  2  0  0  0  0
  6  5  1  0  0  0  0
  7  1  1  0  0  0  0
  9 10  1  0  0  0  0
 10 19  1  0  0  0  0
 10 11  2  0  0  0  0
 11 20  1  0  0  0  0
 12 11  1  0  0  0  0
 12 21  1  0  0  0  0
 13 12  2  0  0  0  0
 14 13  1  0  0  0  0
 14 22  1  0  0  0  0
 15 14  2  0  0  0  0
 16 17  2  0  0  0  0
 16 15  1  0  0  0  0
 17 18  1  0  0  0  0
 18  9  2  0  0  0  0
 18 13  1  0  0  0  0
 23 15  1  0  0  0  0
 24 16  1  0  0  0  0
 25 17  1  0  0  0  0
 26  2  1  0  0  0  0
 28 27  2  6  0  0  0
 28 29  1  0  0  0  0
 28 26  1  0  0  0  0
 29 32  1  0  0  0  0
 31 30  1  0  0  0  0
 31 38  1  0  0  0  0
 32 31  2  0  0  0  0
 33 32  1  0  0  0  0
 33 35  2  0  0  0  0
 34 33  1  0  0  0  0
 35 37  1  0  0  0  0
 36 35  1  0  0  0  0
 37 38  2  0  0  0  0
 39 28  1  0  0  0  0
 40 41  2  0  0  0  0
 40 39  1  0  0  0  0
 42 40  1  0  0  0  0
 43 42  1  0  0  0  0
 44 42  1  0  0  0  0
M  END
>  <minimizedAffinity>
-6.12633514

$$$$

 OpenBabel03252508103D

 44 47  0  0  0  0  0  0  0  0999 V2000
   37.6770   29.4100   37.1010 C   0  0  0  0  0  0  0  0  0  0  0  0
   37.9230   28.9770   38.3960 C   0  0  0  0  0  0  0  0  0  0  0  0
   36.8740   28.7880   39.2620 C   0  0  0  0  0  0  0  0  0  0  0  0
   35.6030   29.0440   38.7780 N   0  0  0  0  0  0  0  0  0  0  0  0
   35.3800   29.4580   37.5340 C   0  0  0  0  0  0  0  0  0  0  0  0
   36.4300   29.6380   36.7030 N   0  0  0  0  0  0  0  0  0  0  0  0
   38.4930   29.5680   36.3970 H   0  0  0  0  0  0  0  0  0  0  0  0
   34.3510   29.6390   37.2250 H   0  0  0  0  0  0  0  0  0  0  0  0
   36.9540   28.3560   40.6060 C   0  0  0  0  0  0  0  0  0  0  0  0
   37.1350   29.2140   41.6940 C   0  0  0  0  0  0  0  0  0  0  0  0
   37.2790   28.7900   42.9920 C   0  0  0  0  0  0  0  0  0  0  0  0
   37.2480   27.4360   43.2820 C   0  0  0  0  0  0  0  0  0  0  0  0
   37.0620   26.5570   42.1850 C   0  0  0  0  0  0  0  0  0  0  0  0
   37.0310   25.2110   42.4570 C   0  0  0  0  0  0  0  0  0  0  0  0
   36.8530   24.2920   41.4410 C   0  0  0  0  0  0  0  0  0  0  0  0
   36.7010   24.7470   40.1260 C   0  0  0  0  0  0  0  0  0  0  0  0
   36.7400   26.1360   39.8920 C   0  0  0  0  0  0  0  0  0  0  0  0
   36.9230   27.0210   40.9190 C   0  0  0  0  0  0  0  0  0  0  0  0
   37.1590   30.2770   41.4630 H   0  0  0  0  0  0  0  0  0  0  0  0
   37.4150   29.5400   43.7630 H   0  0  0  0  0  0  0  0  0  0  0  0
   37.3610   27.1050   44.2850 H   0  0  0  0  0  0  0  0  0  0  0  0
   37.1500   24.8820   43.4890 H   0  0  0  0  0  0  0  0  0  0  0  0
   36.8420   23.2630   41.7370 H   0  0  0  0  0  0  0  0  0  0  0  0
   36.5650   23.9620   39.3980 H   0  0  0  0  0  0  0  0  0  0  0  0
   36.5840   26.2790   38.8450 H   0  0  0  0  0  0  0  0  0  0  0  0
   39.2200   28.7580   38.7430 O   0  0  0  0  0  0  0  0  0  0  0  0
   39.6570   31.1010   39.8490 O   0  0  0  0  0  0  0  0  0  0  0  0
   40.3340   29.9710   39.1350 P   0  0  1  0  0  0  0  0  0  0  0  0
   41.5530   29.3980   40.1470 O   0  0  0  0  0  0  0  0  0  0  0  0
   41.2880   29.9790   42.9150 F   0  0  0  0  0  0  0  0  0  0  0  0
   41.0980   28.7000   42.5210 C   0  0  0  0  0  0  0  0  0  0  0  0
   41.2490   28.5210   41.1670 C   0  0  0  0  0  0  0  0  0  0  0  0
   41.0730   27.2290   40.6600 C   0  0  0  0  0  0  0  0  0  0  0  0
   41.1580   26.9200   39.6070 H   0  0  0  0  0  0  0  0  0  0  0  0
   40.7580   26.1590   41.4860 C   0  0  0  0  0  0  0  0  0  0  0  0
   40.6150   25.1490   41.1340 H   0  0  0  0  0  0  0  0  0  0  0  0
   40.6110   26.3530   42.8430 C   0  0  0  0  0  3  0  0  0  0  0  0
   40.7860   27.6310   43.3330 C   0  0  0  0  0  3  0  0  0  0  0  0
   41.0410   30.5110   37.7100 O   0  0  0  0  0  0  0  0  0  0  0  0
   41.1360   31.8270   37.2800 C   0  0  0  0  0  0  0  0  0  0  0  0
   42.3470   32.1040   37.3890 O   0  0  0  0  0  0  0  0  0  0  0  0
   39.8470   32.3380   36.8920 N   0  0  0  0  0  0  0  0  0  0  0  0
   39.2610   33.0660   37.3760 H   0  0  0  0  0  0  0  0  0  0  0  0
   39.4630   31.9160   36.0110 H   0  0  0  0  0  0  0  0  0  0  0  0
  1  2  1  0  0  0  0
  2 26  1  0  0  0  0
  2  3  2  0  0  0  0
  3  9  1  0  0  0  0
  4  3  1  0  0  0  0
  5  4  2  0  0  0  0
  6  1  2  0  0  0  0
  6  5  1  0  0  0  0
  7  1  1  0  0  0  0
  8  5  1  0  0  0  0
  9 18  2  0  0  0  0
  9 10  1  0  0  0  0
 10 11  2  0  0  0  0
 11 12  1  0  0  0  0
 11 20  1  0  0  0  0
 12 21  1  0  0  0  0
 13 14  1  0  0  0  0
 13 12  2  0  0  0  0
 14 22  1  0  0  0  0
 15 23  1  0  0  0  0
 15 14  2  0  0  0  0
 16 15  1  0  0  0  0
 17 16  2  0  0  0  0
 17 18  1  0  0  0  0
 18 13  1  0  0  0  0
 19 10  1  0  0  0  0
 24 16  1  0  0  0  0
 25 17  1  0  0  0  0
 26 28  1  0  0  0  0
 28 27  2  1  0  0  0
 28 29  1  0  0  0  0
 29 32  1  0  0  0  0
 31 30  1  0  0  0  0
 31 38  1  0  0  0  0
 32 31  2  0  0  0  0
 33 32  1  0  0  0  0
 33 35  2  0  0  0  0
 34 33  1  0  0  0  0
 35 37  1  0  0  0  0
 36 35  1  0  0  0  0
 37 38  2  0  0  0  0
 39 28  1  0  0  0  0
 40 41  2  0  0  0  0
 40 39  1  0  0  0  0
 42 40  1  0  0  0  0
 42 43  1  0  0  0  0
 44 42  1  0  0  0  0
M  END
>  <minimizedAffinity>
-6.10107517

$$$$

 OpenBabel03252508103D

 44 47  0  0  0  0  0  0  0  0999 V2000
   37.4100   30.0170   37.6130 C   0  0  0  0  0  0  0  0  0  0  0  0
   37.6070   29.5030   38.8870 C   0  0  0  0  0  0  0  0  0  0  0  0
   36.8130   28.4780   39.3390 C   0  0  0  0  0  0  0  0  0  0  0  0
   35.8420   28.0050   38.4750 N   0  0  0  0  0  0  0  0  0  0  0  0
   35.6620   28.5040   37.2550 C   0  0  0  0  0  0  0  0  0  0  0  0
   36.4560   29.5140   36.8350 N   0  0  0  0  0  0  0  0  0  0  0  0
   38.0270   30.8300   37.2330 H   0  0  0  0  0  0  0  0  0  0  0  0
   34.8770   28.0790   36.6320 H   0  0  0  0  0  0  0  0  0  0  0  0
   36.8830   27.8490   40.6030 C   0  0  0  0  0  0  0  0  0  0  0  0
   36.2500   28.3310   41.7530 C   0  0  0  0  0  0  0  0  0  0  0  0
   36.3700   27.7580   42.9950 C   0  0  0  0  0  0  0  0  0  0  0  0
   37.1590   26.6320   43.1600 C   0  0  0  0  0  0  0  0  0  0  0  0
   37.8040   26.1340   42.0000 C   0  0  0  0  0  0  0  0  0  0  0  0
   38.5910   25.0180   42.1490 C   0  0  0  0  0  0  0  0  0  0  0  0
   39.2510   24.4730   41.0630 C   0  0  0  0  0  0  0  0  0  0  0  0
   39.1080   25.0690   39.8060 C   0  0  0  0  0  0  0  0  0  0  0  0
   38.2920   26.2120   39.6980 C   0  0  0  0  0  0  0  0  0  0  0  0
   37.6550   26.7310   40.7920 C   0  0  0  0  0  0  0  0  0  0  0  0
   35.6310   29.2160   41.6200 H   0  0  0  0  0  0  0  0  0  0  0  0
   35.8370   28.2120   43.8220 H   0  0  0  0  0  0  0  0  0  0  0  0
   37.2560   26.1870   44.1200 H   0  0  0  0  0  0  0  0  0  0  0  0
   38.6860   24.5720   43.1380 H   0  0  0  0  0  0  0  0  0  0  0  0
   39.8450   23.6050   41.2650 H   0  0  0  0  0  0  0  0  0  0  0  0
   39.6560   24.5770   39.0160 H   0  0  0  0  0  0  0  0  0  0  0  0
   38.2930   26.4990   38.6690 H   0  0  0  0  0  0  0  0  0  0  0  0
   38.6010   30.0570   39.6330 O   0  0  0  0  0  0  0  0  0  0  0  0
   37.0190   31.9010   40.6350 O   0  0  0  0  0  0  0  0  0  0  0  0
   38.4550   31.4870   40.5280 P   0  0  1  0  0  0  0  0  0  0  0  0
   39.0440   31.3070   42.0960 O   0  0  0  0  0  0  0  0  0  0  0  0
   41.7710   32.1030   42.0360 F   0  0  0  0  0  0  0  0  0  0  0  0
   41.5000   30.8120   42.3270 C   0  0  0  0  0  0  0  0  0  0  0  0
   40.1560   30.5260   42.3300 C   0  0  0  0  0  0  0  0  0  0  0  0
   39.7730   29.2110   42.6200 C   0  0  0  0  0  0  0  0  0  0  0  0
   38.7440   28.8220   42.6620 H   0  0  0  0  0  0  0  0  0  0  0  0
   40.7090   28.2240   42.8940 C   0  0  0  0  0  0  0  0  0  0  0  0
   40.4540   27.2000   43.1210 H   0  0  0  0  0  0  0  0  0  0  0  0
   42.0540   28.5250   42.8860 C   0  0  0  0  0  3  0  0  0  0  0  0
   42.4220   29.8240   42.6010 C   0  0  0  0  0  3  0  0  0  0  0  0
   39.3580   32.6780   39.7590 O   0  0  0  0  0  0  0  0  0  0  0  0
   39.6710   33.9320   40.2610 C   0  0  0  0  0  0  0  0  0  0  0  0
   40.5810   34.3490   39.5170 O   0  0  0  0  0  0  0  0  0  0  0  0
   38.8540   34.2510   41.4020 N   0  0  0  0  0  0  0  0  0  0  0  0
   39.1430   34.3280   42.4110 H   0  0  0  0  0  0  0  0  0  0  0  0
   37.8440   34.4240   41.1750 H   0  0  0  0  0  0  0  0  0  0  0  0
  1  2  1  0  0  0  0
  2  3  2  0  0  0  0
  2 26  1  0  0  0  0
  3  9  1  0  0  0  0
  4  3  1  0  0  0  0
  5  4  2  0  0  0  0
  6  5  1  0  0  0  0
  6  1  2  0  0  0  0
  7  1  1  0  0  0  0
  8  5  1  0  0  0  0
  9 18  2  0  0  0  0
  9 10  1  0  0  0  0
 10 11  2  0  0  0  0
 11 12  1  0  0  0  0
 11 20  1  0  0  0  0
 12 21  1  0  0  0  0
 13 14  1  0  0  0  0
 13 12  2  0  0  0  0
 14 22  1  0  0  0  0
 15 23  1  0  0  0  0
 15 14  2  0  0  0  0
 16 15  1  0  0  0  0
 17 16  2  0  0  0  0
 17 18  1  0  0  0  0
 18 13  1  0  0  0  0
 19 10  1  0  0  0  0
 24 16  1  0  0  0  0
 25 17  1  0  0  0  0
 26 28  1  0  0  0  0
 28 27  2  1  0  0  0
 28 29  1  0  0  0  0
 29 32  1  0  0  0  0
 30 31  1  0  0  0  0
 31 32  2  0  0  0  0
 31 38  1  0  0  0  0
 32 33  1  0  0  0  0
 33 34  1  0  0  0  0
 33 35  2  0  0  0  0
 35 36  1  0  0  0  0
 37 35  1  0  0  0  0
 38 37  2  0  0  0  0
 39 40  1  0  0  0  0
 39 28  1  0  0  0  0
 40 42  1  0  0  0  0
 41 40  2  0  0  0  0
 42 43  1  0  0  0  0
 44 42  1  0  0  0  0
M  END
>  <minimizedAffinity>
-6.03779221

$$$$

 OpenBabel03252508103D

 44 47  0  0  0  0  0  0  0  0999 V2000
   36.1540   29.4230   37.7970 C   0  0  0  0  0  0  0  0  0  0  0  0
   36.5650   29.3560   39.1210 C   0  0  0  0  0  0  0  0  0  0  0  0
   36.8720   28.1390   39.6780 C   0  0  0  0  0  0  0  0  0  0  0  0
   36.7540   27.0260   38.8660 N   0  0  0  0  0  0  0  0  0  0  0  0
   36.3600   27.1020   37.5970 C   0  0  0  0  0  0  0  0  0  0  0  0
   36.0620   28.3120   37.0740 N   0  0  0  0  0  0  0  0  0  0  0  0
   35.9040   30.3770   37.3350 H   0  0  0  0  0  0  0  0  0  0  0  0
   36.2910   26.1820   37.0200 H   0  0  0  0  0  0  0  0  0  0  0  0
   37.3010   27.9000   41.0040 C   0  0  0  0  0  0  0  0  0  0  0  0
   36.4460   27.8760   42.1110 C   0  0  0  0  0  0  0  0  0  0  0  0
   36.8690   27.7100   43.4060 C   0  0  0  0  0  0  0  0  0  0  0  0
   38.2190   27.5540   43.6750 C   0  0  0  0  0  0  0  0  0  0  0  0
   39.0940   27.5750   42.5600 C   0  0  0  0  0  0  0  0  0  0  0  0
   40.4360   27.4240   42.8120 C   0  0  0  0  0  0  0  0  0  0  0  0
   41.3510   27.4330   41.7760 C   0  0  0  0  0  0  0  0  0  0  0  0
   40.8970   27.5960   40.4630 C   0  0  0  0  0  0  0  0  0  0  0  0
   39.5120   27.7490   40.2500 C   0  0  0  0  0  0  0  0  0  0  0  0
   38.6310   27.7400   41.2970 C   0  0  0  0  0  0  0  0  0  0  0  0
   35.3860   27.9990   41.8960 H   0  0  0  0  0  0  0  0  0  0  0  0
   36.1230   27.7060   44.1920 H   0  0  0  0  0  0  0  0  0  0  0  0
   38.5500   27.4270   44.6770 H   0  0  0  0  0  0  0  0  0  0  0  0
   40.7650   27.2970   43.8420 H   0  0  0  0  0  0  0  0  0  0  0  0
   42.3770   27.3100   42.0580 H   0  0  0  0  0  0  0  0  0  0  0  0
   41.6780   27.5890   39.7180 H   0  0  0  0  0  0  0  0  0  0  0  0
   39.3680   27.8350   39.1950 H   0  0  0  0  0  0  0  0  0  0  0  0
   36.6430   30.5280   39.8080 O   0  0  0  0  0  0  0  0  0  0  0  0
   37.0860   32.8960   38.7590 O   0  0  0  0  0  0  0  0  0  0  0  0
   37.7510   31.7660   39.4840 P   0  0  1  0  0  0  0  0  0  0  0  0
   38.4140   32.3980   40.8980 O   0  0  0  0  0  0  0  0  0  0  0  0
   40.3760   30.5770   41.8510 F   0  0  0  0  0  0  0  0  0  0  0  0
   40.7970   31.7910   41.4330 C   0  0  0  0  0  0  0  0  0  0  0  0
   39.7760   32.5980   40.9930 C   0  0  0  0  0  0  0  0  0  0  0  0
   40.1110   33.8790   40.5400 C   0  0  0  0  0  0  0  0  0  0  0  0
   39.4150   34.6430   40.1580 H   0  0  0  0  0  0  0  0  0  0  0  0
   41.4230   34.3290   40.5320 C   0  0  0  0  0  0  0  0  0  0  0  0
   41.7210   35.3080   40.1910 H   0  0  0  0  0  0  0  0  0  0  0  0
   42.4380   33.5080   40.9780 C   0  0  0  0  0  3  0  0  0  0  0  0
   42.0980   32.2470   41.4210 C   0  0  0  0  0  3  0  0  0  0  0  0
   38.9970   31.1230   38.5580 O   0  0  0  0  0  0  0  0  0  0  0  0
   39.6530   31.7450   37.5060 C   0  0  0  0  0  0  0  0  0  0  0  0
   40.8630   31.6380   37.7850 O   0  0  0  0  0  0  0  0  0  0  0  0
   38.7140   32.2520   36.5400 N   0  0  0  0  0  0  0  0  0  0  0  0
   38.4760   33.2540   36.3250 H   0  0  0  0  0  0  0  0  0  0  0  0
   38.2150   31.5080   35.9920 H   0  0  0  0  0  0  0  0  0  0  0  0
  1  2  1  0  0  0  0
  2  3  2  0  0  0  0
  2 26  1  0  0  0  0
  3  9  1  0  0  0  0
  4  3  1  0  0  0  0
  5  4  2  0  0  0  0
  6  5  1  0  0  0  0
  6  1  2  0  0  0  0
  7  1  1  0  0  0  0
  8  5  1  0  0  0  0
  9 18  2  0  0  0  0
  9 10  1  0  0  0  0
 10 11  2  0  0  0  0
 11 12  1  0  0  0  0
 11 20  1  0  0  0  0
 12 21  1  0  0  0  0
 13 14  1  0  0  0  0
 13 12  2  0  0  0  0
 14 22  1  0  0  0  0
 15 23  1  0  0  0  0
 15 14  2  0  0  0  0
 16 15  1  0  0  0  0
 17 16  2  0  0  0  0
 17 18  1  0  0  0  0
 18 13  1  0  0  0  0
 19 10  1  0  0  0  0
 24 16  1  0  0  0  0
 25 17  1  0  0  0  0
 28 27  2  6  0  0  0
 28 26  1  0  0  0  0
 28 29  1  0  0  0  0
 29 32  1  0  0  0  0
 31 30  1  0  0  0  0
 32 31  2  0  0  0  0
 33 32  1  0  0  0  0
 34 33  1  0  0  0  0
 35 33  2  0  0  0  0
 35 37  1  0  0  0  0
 36 35  1  0  0  0  0
 37 38  2  0  0  0  0
 38 31  1  0  0  0  0
 39 28  1  0  0  0  0
 40 41  2  0  0  0  0
 40 39  1  0  0  0  0
 42 40  1  0  0  0  0
 43 42  1  0  0  0  0
 44 42  1  0  0  0  0
M  END
>  <minimizedAffinity>
-5.92620325

$$$$

 OpenBabel03252508103D

 44 47  0  0  0  0  0  0  0  0999 V2000
   37.5520   29.5410   37.2110 C   0  0  0  0  0  0  0  0  0  0  0  0
   37.8280   29.1310   38.5080 C   0  0  0  0  0  0  0  0  0  0  0  0
   36.8070   28.7070   39.3210 C   0  0  0  0  0  0  0  0  0  0  0  0
   35.5320   28.7090   38.7850 N   0  0  0  0  0  0  0  0  0  0  0  0
   35.2780   29.1030   37.5400 C   0  0  0  0  0  0  0  0  0  0  0  0
   36.3010   29.5180   36.7610 N   0  0  0  0  0  0  0  0  0  0  0  0
   38.3450   29.8830   36.5490 H   0  0  0  0  0  0  0  0  0  0  0  0
   34.2480   29.0760   37.1880 H   0  0  0  0  0  0  0  0  0  0  0  0
   36.9200   28.2620   40.6590 C   0  0  0  0  0  0  0  0  0  0  0  0
   37.1270   29.1110   41.7510 C   0  0  0  0  0  0  0  0  0  0  0  0
   37.3030   28.6760   43.0410 C   0  0  0  0  0  0  0  0  0  0  0  0
   37.2800   27.3200   43.3190 C   0  0  0  0  0  0  0  0  0  0  0  0
   37.0690   26.4500   42.2190 C   0  0  0  0  0  0  0  0  0  0  0  0
   37.0460   25.1020   42.4800 C   0  0  0  0  0  0  0  0  0  0  0  0
   36.8440   24.1910   41.4600 C   0  0  0  0  0  0  0  0  0  0  0  0
   36.6600   24.6580   40.1530 C   0  0  0  0  0  0  0  0  0  0  0  0
   36.6910   26.0490   39.9310 C   0  0  0  0  0  0  0  0  0  0  0  0
   36.8980   26.9250   40.9610 C   0  0  0  0  0  0  0  0  0  0  0  0
   37.1440   30.1760   41.5280 H   0  0  0  0  0  0  0  0  0  0  0  0
   37.4560   29.4190   43.8150 H   0  0  0  0  0  0  0  0  0  0  0  0
   37.4170   26.9790   44.3160 H   0  0  0  0  0  0  0  0  0  0  0  0
   37.1900   24.7640   43.5050 H   0  0  0  0  0  0  0  0  0  0  0  0
   36.8410   23.1600   41.7480 H   0  0  0  0  0  0  0  0  0  0  0  0
   36.5070   23.8790   39.4220 H   0  0  0  0  0  0  0  0  0  0  0  0
   36.5100   26.2000   38.8890 H   0  0  0  0  0  0  0  0  0  0  0  0
   39.1280   29.1740   38.9100 O   0  0  0  0  0  0  0  0  0  0  0  0
   39.0160   31.7110   39.5870 O   0  0  0  0  0  0  0  0  0  0  0  0
   39.9690   30.5870   39.3140 P   0  0  1  0  0  0  0  0  0  0  0  0
   40.9110   30.3810   40.6950 O   0  0  0  0  0  0  0  0  0  0  0  0
   43.4720   29.4020   39.9490 F   0  0  0  0  0  0  0  0  0  0  0  0
   43.4040   30.6450   40.4760 C   0  0  0  0  0  0  0  0  0  0  0  0
   42.1250   31.0260   40.8050 C   0  0  0  0  0  0  0  0  0  0  0  0
   41.9500   32.2980   41.3600 C   0  0  0  0  0  0  0  0  0  0  0  0
   40.9980   32.7510   41.6760 H   0  0  0  0  0  0  0  0  0  0  0  0
   43.0230   33.1520   41.5770 C   0  0  0  0  0  0  0  0  0  0  0  0
   42.9290   34.1390   42.0020 H   0  0  0  0  0  0  0  0  0  0  0  0
   44.3000   32.7560   41.2430 C   0  0  0  0  0  3  0  0  0  0  0  0
   44.4620   31.5000   40.6950 C   0  0  0  0  0  3  0  0  0  0  0  0
   40.9860   30.9730   38.0330 O   0  0  0  0  0  0  0  0  0  0  0  0
   40.9780   32.1480   37.2960 C   0  0  0  0  0  0  0  0  0  0  0  0
   42.1380   32.5940   37.4060 O   0  0  0  0  0  0  0  0  0  0  0  0
   39.6830   32.3850   36.7140 N   0  0  0  0  0  0  0  0  0  0  0  0
   38.9810   33.1270   36.9630 H   0  0  0  0  0  0  0  0  0  0  0  0
   39.4280   31.7180   35.9440 H   0  0  0  0  0  0  0  0  0  0  0  0
  1  2  1  0  0  0  0
  2 26  1  0  0  0  0
  2  3  2  0  0  0  0
  3  9  1  0  0  0  0
  4  3  1  0  0  0  0
  5  4  2  0  0  0  0
  6  1  2  0  0  0  0
  6  5  1  0  0  0  0
  7  1  1  0  0  0  0
  8  5  1  0  0  0  0
  9 18  2  0  0  0  0
  9 10  1  0  0  0  0
 10 11  2  0  0  0  0
 11 12  1  0  0  0  0
 11 20  1  0  0  0  0
 12 21  1  0  0  0  0
 13 14  1  0  0  0  0
 13 12  2  0  0  0  0
 14 22  1  0  0  0  0
 15 23  1  0  0  0  0
 15 14  2  0  0  0  0
 16 15  1  0  0  0  0
 17 16  2  0  0  0  0
 17 18  1  0  0  0  0
 18 13  1  0  0  0  0
 19 10  1  0  0  0  0
 24 16  1  0  0  0  0
 25 17  1  0  0  0  0
 26 28  1  0  0  0  0
 28 27  2  1  0  0  0
 28 29  1  0  0  0  0
 29 32  1  0  0  0  0
 30 31  1  0  0  0  0
 31 38  2  0  0  0  0
 31 32  1  0  0  0  0
 32 33  2  0  0  0  0
 33 35  1  0  0  0  0
 33 34  1  0  0  0  0
 35 36  1  0  0  0  0
 37 35  2  0  0  0  0
 38 37  1  0  0  0  0
 39 28  1  0  0  0  0
 40 41  2  0  0  0  0
 40 39  1  0  0  0  0
 42 43  1  0  0  0  0
 42 40  1  0  0  0  0
 44 42  1  0  0  0  0
M  END
>  <minimizedAffinity>
-5.91632175

$$$$
