
 OpenBabel03242513433D

 40 43  0  0  0  0  0  0  0  0999 V2000
   38.5200   31.1310   39.6200 C   0  0  0  0  0  0  0  0  0  0  0  0
   38.1710   30.9920   38.2890 C   0  0  0  0  0  0  0  0  0  0  0  0
   38.9790   31.5840   37.3420 C   0  0  0  0  0  0  0  0  0  0  0  0
   40.1110   32.3030   37.6690 C   0  0  0  0  0  0  0  0  0  0  0  0
   41.0800   32.9800   37.0160 N   0  0  0  0  0  0  0  0  0  0  0  0
   41.9670   33.5020   37.8940 C   0  0  0  0  0  0  0  0  0  0  0  0
   41.5350   33.1380   39.1150 N   0  0  0  0  0  0  0  0  0  0  0  0
   40.4050   32.4060   39.0060 C   0  0  0  0  0  0  0  0  0  0  0  0
   39.6550   31.8500   39.9910 C   0  0  0  0  0  0  0  0  0  0  0  0
   37.8970   30.6740   40.3590 H   0  0  0  0  0  0  0  0  0  0  0  0
   38.7380   31.4970   36.2890 H   0  0  0  0  0  0  0  0  0  0  0  0
   41.0900   33.0570   35.9650 H   0  0  0  0  0  0  0  0  0  0  0  0
   42.8490   34.0960   37.6510 H   0  0  0  0  0  0  0  0  0  0  0  0
   35.6790   29.2170   36.2960 C   0  0  0  0  0  0  0  0  0  0  0  0
   34.7340   28.8230   37.2460 C   0  0  0  0  0  0  0  0  0  0  0  0
   34.9930   29.1910   38.5680 C   0  0  0  0  0  0  0  0  0  0  0  0
   36.1120   29.8910   38.8690 N   0  0  0  0  0  0  0  0  0  0  0  0
   36.9800   30.2380   37.9100 C   0  0  0  0  0  0  0  0  0  0  0  0
   36.7870   29.9160   36.6360 N   0  0  0  0  0  0  0  0  0  0  0  0
   35.5960   28.9940   35.2330 H   0  0  0  0  0  0  0  0  0  0  0  0
   34.2610   28.8880   39.3050 H   0  0  0  0  0  0  0  0  0  0  0  0
   33.5490   28.0600   36.7870 C   0  0  0  0  0  0  0  0  0  0  0  0
   33.6550   28.0390   35.4080 F   0  0  0  0  0  0  0  0  0  0  0  0
   32.4260   28.7420   37.1660 F   0  0  0  0  0  0  0  0  0  0  0  0
   33.6050   26.7940   37.3570 F   0  0  0  0  0  0  0  0  0  0  0  0
   40.0150   31.9960   41.3220 O   0  0  0  0  0  0  0  0  0  0  0  0
   41.6000   31.2120   43.2130 O   0  0  0  0  0  0  0  0  0  0  0  0
   40.4240   30.7370   42.3560 P   0  0  2  0  0  0  0  0  0  0  0  0
   41.0360   29.4690   41.3860 O   0  0  0  0  0  0  0  0  0  0  0  0
   41.9080   29.7640   41.0070 H   0  0  0  0  0  0  0  0  0  0  0  0
   39.1810   30.1830   43.3170 O   0  0  0  0  0  0  0  0  0  0  0  0
   36.6990   30.2820   42.0010 F   0  0  0  0  0  0  0  0  0  0  0  0
   37.1710   29.0690   42.2980 C   0  0  0  0  0  0  0  0  0  0  0  0
   38.4090   29.0940   42.9510 C   0  0  0  0  0  0  0  0  0  0  0  0
   38.9870   27.8690   43.3030 C   0  0  0  0  0  0  0  0  0  0  0  0
   39.9480   27.7840   43.8150 H   0  0  0  0  0  0  0  0  0  0  0  0
   38.3590   26.6580   43.0190 C   0  0  0  0  0  0  0  0  0  0  0  0
   38.8260   25.7250   43.3000 H   0  0  0  0  0  0  0  0  0  0  0  0
   37.1510   26.6450   42.3800 C   0  0  0  0  0  3  0  0  0  0  0  0
   36.6090   27.8470   42.0470 C   0  0  0  0  0  3  0  0  0  0  0  0
  1  9  1  0  0  0  0
  1 10  1  0  0  0  0
  2  1  2  0  0  0  0
  3  4  2  0  0  0  0
  3  2  1  0  0  0  0
  4  8  1  0  0  0  0
  5  4  1  0  0  0  0
  5  6  1  0  0  0  0
  6  7  2  0  0  0  0
  8  7  1  0  0  0  0
  8  9  2  0  0  0  0
  9 26  1  0  0  0  0
 11  3  1  0  0  0  0
 12  5  1  0  0  0  0
 13  6  1  0  0  0  0
 14 19  2  0  0  0  0
 14 15  1  0  0  0  0
 15 16  2  0  0  0  0
 16 17  1  0  0  0  0
 16 21  1  0  0  0  0
 18  2  1  0  0  0  0
 18 17  2  0  0  0  0
 19 18  1  0  0  0  0
 20 14  1  0  0  0  0
 22 24  1  0  0  0  0
 22 15  1  0  0  0  0
 22 25  1  0  0  0  0
 23 22  1  0  0  0  0
 26 28  1  0  0  0  0
 28 27  2  1  0  0  0
 28 31  1  0  0  0  0
 29 28  1  0  0  0  0
 30 29  1  0  0  0  0
 32 33  1  0  0  0  0
 33 34  1  0  0  0  0
 34 35  2  0  0  0  0
 34 31  1  0  0  0  0
 35 36  1  0  0  0  0
 37 38  1  0  0  0  0
 37 35  1  0  0  0  0
 39 37  2  0  0  0  0
 40 33  2  0  0  0  0
 40 39  1  0  0  0  0
M  END
>  <minimizedAffinity>
-6.28573513

$$$$

 OpenBabel03242513433D

 40 43  0  0  0  0  0  0  0  0999 V2000
   36.9320   27.0900   39.8480 C   0  0  0  0  0  0  0  0  0  0  0  0
   36.7420   28.0920   38.9140 C   0  0  0  0  0  0  0  0  0  0  0  0
   36.1570   27.7550   37.7130 C   0  0  0  0  0  0  0  0  0  0  0  0
   35.7580   26.4690   37.4100 C   0  0  0  0  0  0  0  0  0  0  0  0
   35.1780   25.8280   36.3730 N   0  0  0  0  0  0  0  0  0  0  0  0
   35.0230   24.5130   36.6540 C   0  0  0  0  0  0  0  0  0  0  0  0
   35.5180   24.3410   37.8940 N   0  0  0  0  0  0  0  0  0  0  0  0
   35.9720   25.5180   38.3770 C   0  0  0  0  0  0  0  0  0  0  0  0
   36.5440   25.7780   39.5810 C   0  0  0  0  0  0  0  0  0  0  0  0
   37.3860   27.3440   40.7820 H   0  0  0  0  0  0  0  0  0  0  0  0
   35.9910   28.5130   36.9560 H   0  0  0  0  0  0  0  0  0  0  0  0
   34.9060   26.3350   35.4900 H   0  0  0  0  0  0  0  0  0  0  0  0
   34.5860   23.7560   36.0030 H   0  0  0  0  0  0  0  0  0  0  0  0
   36.8420   31.4570   40.3270 C   0  0  0  0  0  0  0  0  0  0  0  0
   37.9620   32.0250   39.7170 C   0  0  0  0  0  0  0  0  0  0  0  0
   38.6600   31.2130   38.8210 C   0  0  0  0  0  0  0  0  0  0  0  0
   38.2380   29.9480   38.5850 N   0  0  0  0  0  0  0  0  0  0  0  0
   37.1540   29.4620   39.2040 C   0  0  0  0  0  0  0  0  0  0  0  0
   36.4510   30.1880   40.0660 N   0  0  0  0  0  0  0  0  0  0  0  0
   36.2130   31.9840   41.0440 H   0  0  0  0  0  0  0  0  0  0  0  0
   39.5280   31.6520   38.3460 H   0  0  0  0  0  0  0  0  0  0  0  0
   38.3190   33.4220   40.0600 C   0  0  0  0  0  0  0  0  0  0  0  0
   37.1920   34.1610   39.7500 F   0  0  0  0  0  0  0  0  0  0  0  0
   39.3680   33.8040   39.2700 F   0  0  0  0  0  0  0  0  0  0  0  0
   38.6440   33.4640   41.4110 F   0  0  0  0  0  0  0  0  0  0  0  0
   36.7290   24.7650   40.5090 O   0  0  0  0  0  0  0  0  0  0  0  0
   39.2880   24.6240   40.1450 O   0  0  0  0  0  0  0  0  0  0  0  0
   38.2050   24.3350   41.1870 P   0  0  2  0  0  0  0  0  0  0  0  0
   38.1910   22.6380   41.3870 O   0  0  0  0  0  0  0  0  0  0  0  0
   38.2090   22.2200   40.4830 H   0  0  0  0  0  0  0  0  0  0  0  0
   38.5620   25.0860   42.6310 O   0  0  0  0  0  0  0  0  0  0  0  0
   36.2300   26.4450   43.4150 F   0  0  0  0  0  0  0  0  0  0  0  0
   37.3080   27.1950   43.1750 C   0  0  0  0  0  0  0  0  0  0  0  0
   38.4320   26.4540   42.7900 C   0  0  0  0  0  0  0  0  0  0  0  0
   39.6120   27.1530   42.5160 C   0  0  0  0  0  0  0  0  0  0  0  0
   40.5410   26.6660   42.2090 H   0  0  0  0  0  0  0  0  0  0  0  0
   39.6800   28.5410   42.6200 C   0  0  0  0  0  0  0  0  0  0  0  0
   40.6030   29.0580   42.4040 H   0  0  0  0  0  0  0  0  0  0  0  0
   38.5770   29.2550   42.9970 C   0  0  0  0  0  3  0  0  0  0  0  0
   37.4410   28.5550   43.2580 C   0  0  0  0  0  3  0  0  0  0  0  0
  1 10  1  0  0  0  0
  2 18  1  0  0  0  0
  2  1  2  0  0  0  0
  3  2  1  0  0  0  0
  4  3  2  0  0  0  0
  4  8  1  0  0  0  0
  5  6  1  0  0  0  0
  5  4  1  0  0  0  0
  6  7  2  0  0  0  0
  7  8  1  0  0  0  0
  8  9  2  0  0  0  0
  9  1  1  0  0  0  0
  9 26  1  0  0  0  0
 11  3  1  0  0  0  0
 12  5  1  0  0  0  0
 13  6  1  0  0  0  0
 14 20  1  0  0  0  0
 15 22  1  0  0  0  0
 15 14  2  0  0  0  0
 16 15  1  0  0  0  0
 17 16  2  0  0  0  0
 17 18  1  0  0  0  0
 18 19  2  0  0  0  0
 19 14  1  0  0  0  0
 21 16  1  0  0  0  0
 22 25  1  0  0  0  0
 23 22  1  0  0  0  0
 24 22  1  0  0  0  0
 26 28  1  0  0  0  0
 28 27  2  6  0  0  0
 28 29  1  0  0  0  0
 28 31  1  0  0  0  0
 30 29  1  0  0  0  0
 31 34  1  0  0  0  0
 33 40  1  0  0  0  0
 33 32  1  0  0  0  0
 34 33  2  0  0  0  0
 35 37  2  0  0  0  0
 35 34  1  0  0  0  0
 36 35  1  0  0  0  0
 37 39  1  0  0  0  0
 38 37  1  0  0  0  0
 39 40  2  0  0  0  0
M  END
>  <minimizedAffinity>
-6.25152302

$$$$

 OpenBabel03242513433D

 40 43  0  0  0  0  0  0  0  0999 V2000
   36.8500   26.8330   39.2530 C   0  0  0  0  0  0  0  0  0  0  0  0
   36.7170   28.2050   39.1340 C   0  0  0  0  0  0  0  0  0  0  0  0
   36.6800   28.9550   40.2900 C   0  0  0  0  0  0  0  0  0  0  0  0
   36.7700   28.3940   41.5480 C   0  0  0  0  0  0  0  0  0  0  0  0
   36.7680   28.8230   42.8280 N   0  0  0  0  0  0  0  0  0  0  0  0
   36.8920   27.7780   43.6790 C   0  0  0  0  0  0  0  0  0  0  0  0
   36.9730   26.6800   42.9050 N   0  0  0  0  0  0  0  0  0  0  0  0
   36.9010   27.0280   41.6010 C   0  0  0  0  0  0  0  0  0  0  0  0
   36.9430   26.2280   40.5050 C   0  0  0  0  0  0  0  0  0  0  0  0
   36.8780   26.2460   38.3600 H   0  0  0  0  0  0  0  0  0  0  0  0
   36.5770   30.0320   40.2380 H   0  0  0  0  0  0  0  0  0  0  0  0
   36.6800   29.8440   43.0700 H   0  0  0  0  0  0  0  0  0  0  0  0
   36.9200   27.8260   44.7680 H   0  0  0  0  0  0  0  0  0  0  0  0
   35.8840   28.7880   35.6280 C   0  0  0  0  0  0  0  0  0  0  0  0
   36.4580   30.0350   35.3680 C   0  0  0  0  0  0  0  0  0  0  0  0
   37.1260   30.6440   36.4310 C   0  0  0  0  0  0  0  0  0  0  0  0
   37.1900   30.0260   37.6340 N   0  0  0  0  0  0  0  0  0  0  0  0
   36.6180   28.8280   37.8180 C   0  0  0  0  0  0  0  0  0  0  0  0
   35.9700   28.2010   36.8440 N   0  0  0  0  0  0  0  0  0  0  0  0
   35.3360   28.2090   34.8850 H   0  0  0  0  0  0  0  0  0  0  0  0
   37.5720   31.6100   36.2310 H   0  0  0  0  0  0  0  0  0  0  0  0
   36.3170   30.6050   34.0070 C   0  0  0  0  0  0  0  0  0  0  0  0
   36.9460   31.8350   34.0720 F   0  0  0  0  0  0  0  0  0  0  0  0
   34.9850   30.7680   33.7460 F   0  0  0  0  0  0  0  0  0  0  0  0
   36.9190   29.7320   33.1090 F   0  0  0  0  0  0  0  0  0  0  0  0
   37.0770   24.8540   40.6370 O   0  0  0  0  0  0  0  0  0  0  0  0
   38.1620   23.6920   38.5950 O   0  0  0  0  0  0  0  0  0  0  0  0
   38.3840   23.9540   40.0860 P   0  0  2  0  0  0  0  0  0  0  0  0
   38.2990   22.4270   40.8470 O   0  0  0  0  0  0  0  0  0  0  0  0
   37.5050   21.9460   40.4860 H   0  0  0  0  0  0  0  0  0  0  0  0
   39.8760   24.6490   40.3470 O   0  0  0  0  0  0  0  0  0  0  0  0
   39.9540   23.8550   43.0410 F   0  0  0  0  0  0  0  0  0  0  0  0
   40.1670   25.1490   42.7920 C   0  0  0  0  0  0  0  0  0  0  0  0
   40.1140   25.4740   41.4320 C   0  0  0  0  0  0  0  0  0  0  0  0
   40.3250   26.8090   41.0700 C   0  0  0  0  0  0  0  0  0  0  0  0
   40.3030   27.1620   40.0360 H   0  0  0  0  0  0  0  0  0  0  0  0
   40.5790   27.7920   42.0240 C   0  0  0  0  0  0  0  0  0  0  0  0
   40.7390   28.8160   41.7200 H   0  0  0  0  0  0  0  0  0  0  0  0
   40.6290   27.4640   43.3510 C   0  0  0  0  0  3  0  0  0  0  0  0
   40.4220   26.1610   43.6790 C   0  0  0  0  0  3  0  0  0  0  0  0
  1  9  1  0  0  0  0
  2  1  2  0  0  0  0
  2  3  1  0  0  0  0
  3  4  2  0  0  0  0
  4  8  1  0  0  0  0
  4  5  1  0  0  0  0
  5 12  1  0  0  0  0
  5  6  1  0  0  0  0
  6 13  1  0  0  0  0
  7  6  2  0  0  0  0
  8  7  1  0  0  0  0
  9 26  1  0  0  0  0
  9  8  2  0  0  0  0
 10  1  1  0  0  0  0
 11  3  1  0  0  0  0
 14 19  1  0  0  0  0
 15 14  2  0  0  0  0
 15 16  1  0  0  0  0
 16 17  2  0  0  0  0
 17 18  1  0  0  0  0
 18  2  1  0  0  0  0
 19 18  2  0  0  0  0
 20 14  1  0  0  0  0
 21 16  1  0  0  0  0
 22 23  1  0  0  0  0
 22 15  1  0  0  0  0
 24 22  1  0  0  0  0
 25 22  1  0  0  0  0
 28 27  2  6  0  0  0
 28 31  1  0  0  0  0
 28 26  1  0  0  0  0
 28 29  1  0  0  0  0
 30 29  1  0  0  0  0
 31 34  1  0  0  0  0
 33 32  1  0  0  0  0
 33 40  1  0  0  0  0
 34 33  2  0  0  0  0
 35 34  1  0  0  0  0
 35 37  2  0  0  0  0
 36 35  1  0  0  0  0
 37 39  1  0  0  0  0
 38 37  1  0  0  0  0
 39 40  2  0  0  0  0
M  END
>  <minimizedAffinity>
-6.18554497

$$$$

 OpenBabel03242513433D

 40 43  0  0  0  0  0  0  0  0999 V2000
   39.6940   29.9650   39.8340 C   0  0  0  0  0  0  0  0  0  0  0  0
   38.4720   29.5670   40.3450 C   0  0  0  0  0  0  0  0  0  0  0  0
   37.5110   30.5330   40.5530 C   0  0  0  0  0  0  0  0  0  0  0  0
   37.7200   31.8680   40.2720 C   0  0  0  0  0  0  0  0  0  0  0  0
   37.0210   33.0200   40.3530 N   0  0  0  0  0  0  0  0  0  0  0  0
   37.7690   34.0610   39.9180 C   0  0  0  0  0  0  0  0  0  0  0  0
   38.9560   33.5360   39.5600 N   0  0  0  0  0  0  0  0  0  0  0  0
   38.9520   32.2010   39.7660 C   0  0  0  0  0  0  0  0  0  0  0  0
   39.9450   31.3030   39.5380 C   0  0  0  0  0  0  0  0  0  0  0  0
   40.4440   29.2210   39.6710 H   0  0  0  0  0  0  0  0  0  0  0  0
   36.5420   30.2600   40.9520 H   0  0  0  0  0  0  0  0  0  0  0  0
   36.0320   33.0440   40.7140 H   0  0  0  0  0  0  0  0  0  0  0  0
   37.4640   35.1060   39.8710 H   0  0  0  0  0  0  0  0  0  0  0  0
   37.2290   26.5430   41.9700 C   0  0  0  0  0  0  0  0  0  0  0  0
   37.7730   25.5180   41.1930 C   0  0  0  0  0  0  0  0  0  0  0  0
   38.5660   25.9120   40.1130 C   0  0  0  0  0  0  0  0  0  0  0  0
   38.7710   27.2270   39.8690 N   0  0  0  0  0  0  0  0  0  0  0  0
   38.2200   28.1620   40.6530 C   0  0  0  0  0  0  0  0  0  0  0  0
   37.4570   27.8480   41.6930 N   0  0  0  0  0  0  0  0  0  0  0  0
   36.5940   26.3700   42.8380 H   0  0  0  0  0  0  0  0  0  0  0  0
   38.9890   25.1180   39.5110 H   0  0  0  0  0  0  0  0  0  0  0  0
   37.4730   24.1150   41.5670 C   0  0  0  0  0  0  0  0  0  0  0  0
   36.0920   24.0380   41.5710 F   0  0  0  0  0  0  0  0  0  0  0  0
   37.9640   23.8920   42.8230 F   0  0  0  0  0  0  0  0  0  0  0  0
   38.0620   23.2820   40.6230 F   0  0  0  0  0  0  0  0  0  0  0  0
   41.1660   31.7150   39.0240 O   0  0  0  0  0  0  0  0  0  0  0  0
   42.3820   33.2200   37.3050 O   0  0  0  0  0  0  0  0  0  0  0  0
   41.4880   31.9810   37.3970 P   0  0  2  0  0  0  0  0  0  0  0  0
   40.0110   32.4140   36.6560 O   0  0  0  0  0  0  0  0  0  0  0  0
   39.7440   33.3100   37.0000 H   0  0  0  0  0  0  0  0  0  0  0  0
   42.1820   30.6930   36.5980 O   0  0  0  0  0  0  0  0  0  0  0  0
   44.0660   29.7660   38.4660 F   0  0  0  0  0  0  0  0  0  0  0  0
   43.1240   28.9000   38.0850 C   0  0  0  0  0  0  0  0  0  0  0  0
   42.2200   29.4270   37.1550 C   0  0  0  0  0  0  0  0  0  0  0  0
   41.1940   28.5940   36.6960 C   0  0  0  0  0  0  0  0  0  0  0  0
   40.4410   28.9130   35.9710 H   0  0  0  0  0  0  0  0  0  0  0  0
   41.0660   27.2800   37.1410 C   0  0  0  0  0  0  0  0  0  0  0  0
   40.2650   26.6570   36.7720 H   0  0  0  0  0  0  0  0  0  0  0  0
   41.9540   26.7750   38.0500 C   0  0  0  0  0  3  0  0  0  0  0  0
   42.9420   27.6030   38.4830 C   0  0  0  0  0  3  0  0  0  0  0  0
  1  2  1  0  0  0  0
  2  3  2  0  0  0  0
  2 18  1  0  0  0  0
  3 11  1  0  0  0  0
  4  5  1  0  0  0  0
  4  3  1  0  0  0  0
  5 12  1  0  0  0  0
  6  5  1  0  0  0  0
  7  8  1  0  0  0  0
  7  6  2  0  0  0  0
  8  4  2  0  0  0  0
  9  8  1  0  0  0  0
  9  1  2  0  0  0  0
 10  1  1  0  0  0  0
 13  6  1  0  0  0  0
 14 20  1  0  0  0  0
 15 22  1  0  0  0  0
 15 14  2  0  0  0  0
 16 15  1  0  0  0  0
 17 16  2  0  0  0  0
 17 18  1  0  0  0  0
 18 19  2  0  0  0  0
 19 14  1  0  0  0  0
 21 16  1  0  0  0  0
 22 23  1  0  0  0  0
 22 24  1  0  0  0  0
 25 22  1  0  0  0  0
 26  9  1  0  0  0  0
 28 27  2  6  0  0  0
 28 26  1  0  0  0  0
 29 30  1  0  0  0  0
 29 28  1  0  0  0  0
 31 34  1  0  0  0  0
 31 28  1  0  0  0  0
 33 32  1  0  0  0  0
 33 40  1  0  0  0  0
 34 33  2  0  0  0  0
 35 37  2  0  0  0  0
 35 34  1  0  0  0  0
 36 35  1  0  0  0  0
 37 39  1  0  0  0  0
 38 37  1  0  0  0  0
 39 40  2  0  0  0  0
M  END
>  <minimizedAffinity>
-6.17142153

$$$$

 OpenBabel03242513433D

 40 43  0  0  0  0  0  0  0  0999 V2000
   38.7570   29.5650   38.2740 C   0  0  0  0  0  0  0  0  0  0  0  0
   40.0580   29.9240   37.9720 C   0  0  0  0  0  0  0  0  0  0  0  0
   40.4570   31.2130   38.2520 C   0  0  0  0  0  0  0  0  0  0  0  0
   39.6140   32.1500   38.8160 C   0  0  0  0  0  0  0  0  0  0  0  0
   39.6830   33.4420   39.2030 N   0  0  0  0  0  0  0  0  0  0  0  0
   38.4970   33.8490   39.7090 C   0  0  0  0  0  0  0  0  0  0  0  0
   37.6790   32.7840   39.6340 N   0  0  0  0  0  0  0  0  0  0  0  0
   38.3350   31.7340   39.0930 C   0  0  0  0  0  0  0  0  0  0  0  0
   37.8750   30.4820   38.8430 C   0  0  0  0  0  0  0  0  0  0  0  0
   38.4420   28.5660   38.0580 H   0  0  0  0  0  0  0  0  0  0  0  0
   41.4680   31.5310   38.0310 H   0  0  0  0  0  0  0  0  0  0  0  0
   40.5680   34.0040   39.0990 H   0  0  0  0  0  0  0  0  0  0  0  0
   38.2620   34.8410   40.0970 H   0  0  0  0  0  0  0  0  0  0  0  0
   41.5960   26.7690   36.9660 C   0  0  0  0  0  0  0  0  0  0  0  0
   42.7150   27.1790   36.2370 C   0  0  0  0  0  0  0  0  0  0  0  0
   42.9050   28.5560   36.1140 C   0  0  0  0  0  0  0  0  0  0  0  0
   42.0280   29.4140   36.6870 N   0  0  0  0  0  0  0  0  0  0  0  0
   40.9740   28.9560   37.3750 C   0  0  0  0  0  0  0  0  0  0  0  0
   40.7410   27.6580   37.5240 N   0  0  0  0  0  0  0  0  0  0  0  0
   41.3350   25.7250   37.1350 H   0  0  0  0  0  0  0  0  0  0  0  0
   43.7720   28.8760   35.5510 H   0  0  0  0  0  0  0  0  0  0  0  0
   43.5990   26.1380   35.6600 C   0  0  0  0  0  0  0  0  0  0  0  0
   43.4870   25.0620   36.5200 F   0  0  0  0  0  0  0  0  0  0  0  0
   44.8810   26.6150   35.6630 F   0  0  0  0  0  0  0  0  0  0  0  0
   43.1530   25.8580   34.3740 F   0  0  0  0  0  0  0  0  0  0  0  0
   36.5680   30.1350   39.1500 O   0  0  0  0  0  0  0  0  0  0  0  0
   34.7150   28.9160   40.4840 O   0  0  0  0  0  0  0  0  0  0  0  0
   36.0190   29.6940   40.6750 P   0  0  2  0  0  0  0  0  0  0  0  0
   35.5890   31.1330   41.4900 O   0  0  0  0  0  0  0  0  0  0  0  0
   34.7840   31.5120   41.0430 H   0  0  0  0  0  0  0  0  0  0  0  0
   37.1030   28.8140   41.5850 O   0  0  0  0  0  0  0  0  0  0  0  0
   36.2320   27.1510   43.6770 F   0  0  0  0  0  0  0  0  0  0  0  0
   36.6860   26.5430   42.5780 C   0  0  0  0  0  0  0  0  0  0  0  0
   37.1030   27.4310   41.5780 C   0  0  0  0  0  0  0  0  0  0  0  0
   37.5960   26.8880   40.3870 C   0  0  0  0  0  0  0  0  0  0  0  0
   37.9440   27.4970   39.5490 H   0  0  0  0  0  0  0  0  0  0  0  0
   37.6760   25.5110   40.1900 C   0  0  0  0  0  0  0  0  0  0  0  0
   38.0590   25.1160   39.2610 H   0  0  0  0  0  0  0  0  0  0  0  0
   37.2660   24.6530   41.1730 C   0  0  0  0  0  3  0  0  0  0  0  0
   36.7900   25.2030   42.3220 C   0  0  0  0  0  3  0  0  0  0  0  0
  1  9  1  0  0  0  0
  2  3  1  0  0  0  0
  2  1  2  0  0  0  0
  3  4  2  0  0  0  0
  4  8  1  0  0  0  0
  4  5  1  0  0  0  0
  5  6  1  0  0  0  0
  6 13  1  0  0  0  0
  7  6  2  0  0  0  0
  8  7  1  0  0  0  0
  9  8  2  0  0  0  0
  9 26  1  0  0  0  0
 10  1  1  0  0  0  0
 11  3  1  0  0  0  0
 12  5  1  0  0  0  0
 14 20  1  0  0  0  0
 14 19  1  0  0  0  0
 15 14  2  0  0  0  0
 16 15  1  0  0  0  0
 16 17  2  0  0  0  0
 17 18  1  0  0  0  0
 18 19  2  0  0  0  0
 18  2  1  0  0  0  0
 21 16  1  0  0  0  0
 22 24  1  0  0  0  0
 22 15  1  0  0  0  0
 22 23  1  0  0  0  0
 25 22  1  0  0  0  0
 26 28  1  0  0  0  0
 28 27  2  6  0  0  0
 28 29  1  0  0  0  0
 28 31  1  0  0  0  0
 30 29  1  0  0  0  0
 33 32  1  0  0  0  0
 34 31  1  0  0  0  0
 34 33  2  0  0  0  0
 35 34  1  0  0  0  0
 36 35  1  0  0  0  0
 37 35  2  0  0  0  0
 37 39  1  0  0  0  0
 38 37  1  0  0  0  0
 39 40  2  0  0  0  0
 40 33  1  0  0  0  0
M  END
>  <minimizedAffinity>
-6.10166931

$$$$

 OpenBabel03242513433D

 40 43  0  0  0  0  0  0  0  0999 V2000
   37.7640   29.1540   41.3830 C   0  0  0  0  0  0  0  0  0  0  0  0
   37.0990   28.0640   40.8530 C   0  0  0  0  0  0  0  0  0  0  0  0
   37.4680   26.8080   41.2830 C   0  0  0  0  0  0  0  0  0  0  0  0
   38.4660   26.6000   42.2140 C   0  0  0  0  0  0  0  0  0  0  0  0
   39.0480   25.5470   42.8260 N   0  0  0  0  0  0  0  0  0  0  0  0
   40.0110   25.9670   43.6790 C   0  0  0  0  0  0  0  0  0  0  0  0
   40.0210   27.3100   43.5900 N   0  0  0  0  0  0  0  0  0  0  0  0
   39.0880   27.7210   42.7040 C   0  0  0  0  0  0  0  0  0  0  0  0
   38.7770   28.9870   42.3250 C   0  0  0  0  0  0  0  0  0  0  0  0
   37.4820   30.1320   41.0530 H   0  0  0  0  0  0  0  0  0  0  0  0
   36.9700   25.9290   40.8910 H   0  0  0  0  0  0  0  0  0  0  0  0
   38.7510   24.5560   42.6260 H   0  0  0  0  0  0  0  0  0  0  0  0
   40.6440   25.3380   44.3050 H   0  0  0  0  0  0  0  0  0  0  0  0
   34.0880   29.2850   39.1870 C   0  0  0  0  0  0  0  0  0  0  0  0
   34.0740   28.5680   37.9890 C   0  0  0  0  0  0  0  0  0  0  0  0
   35.1240   27.6700   37.7920 C   0  0  0  0  0  0  0  0  0  0  0  0
   36.0840   27.5320   38.7370 N   0  0  0  0  0  0  0  0  0  0  0  0
   36.0390   28.2500   39.8660 C   0  0  0  0  0  0  0  0  0  0  0  0
   35.0660   29.1200   40.1080 N   0  0  0  0  0  0  0  0  0  0  0  0
   33.3280   30.0160   39.4620 H   0  0  0  0  0  0  0  0  0  0  0  0
   35.1140   27.1120   36.8640 H   0  0  0  0  0  0  0  0  0  0  0  0
   32.9650   28.8110   37.0350 C   0  0  0  0  0  0  0  0  0  0  0  0
   31.9480   29.3440   37.8050 F   0  0  0  0  0  0  0  0  0  0  0  0
   32.5810   27.6090   36.5090 F   0  0  0  0  0  0  0  0  0  0  0  0
   33.4230   29.6840   36.0560 F   0  0  0  0  0  0  0  0  0  0  0  0
   39.4510   30.0730   42.8640 O   0  0  0  0  0  0  0  0  0  0  0  0
   41.6050   29.8160   41.4500 O   0  0  0  0  0  0  0  0  0  0  0  0
   40.7320   30.8740   42.1300 P   0  0  2  0  0  0  0  0  0  0  0  0
   41.6920   31.5370   43.3790 O   0  0  0  0  0  0  0  0  0  0  0  0
   42.1250   30.7860   43.8680 H   0  0  0  0  0  0  0  0  0  0  0  0
   40.2920   32.0600   41.0450 O   0  0  0  0  0  0  0  0  0  0  0  0
   40.6800   30.6590   38.6400 F   0  0  0  0  0  0  0  0  0  0  0  0
   39.4570   31.1500   38.8560 C   0  0  0  0  0  0  0  0  0  0  0  0
   39.3350   31.8350   40.0720 C   0  0  0  0  0  0  0  0  0  0  0  0
   38.0890   32.3870   40.3890 C   0  0  0  0  0  0  0  0  0  0  0  0
   37.8950   32.9390   41.3110 H   0  0  0  0  0  0  0  0  0  0  0  0
   36.9980   32.2660   39.5310 C   0  0  0  0  0  0  0  0  0  0  0  0
   36.0460   32.7010   39.7980 H   0  0  0  0  0  0  0  0  0  0  0  0
   37.1270   31.5950   38.3470 C   0  0  0  0  0  3  0  0  0  0  0  0
   38.3470   31.0670   38.0600 C   0  0  0  0  0  3  0  0  0  0  0  0
  1  9  1  0  0  0  0
  2  3  1  0  0  0  0
  2  1  2  0  0  0  0
  3  4  2  0  0  0  0
  4  8  1  0  0  0  0
  4  5  1  0  0  0  0
  5  6  1  0  0  0  0
  6 13  1  0  0  0  0
  7  6  2  0  0  0  0
  8  7  1  0  0  0  0
  9  8  2  0  0  0  0
  9 26  1  0  0  0  0
 10  1  1  0  0  0  0
 11  3  1  0  0  0  0
 12  5  1  0  0  0  0
 14 20  1  0  0  0  0
 14 19  1  0  0  0  0
 15 14  2  0  0  0  0
 16 15  1  0  0  0  0
 16 17  2  0  0  0  0
 17 18  1  0  0  0  0
 18 19  2  0  0  0  0
 18  2  1  0  0  0  0
 21 16  1  0  0  0  0
 22 23  1  0  0  0  0
 22 15  1  0  0  0  0
 24 22  1  0  0  0  0
 25 22  1  0  0  0  0
 28 27  2  6  0  0  0
 28 26  1  0  0  0  0
 28 29  1  0  0  0  0
 29 30  1  0  0  0  0
 31 28  1  0  0  0  0
 32 33  1  0  0  0  0
 33 34  1  0  0  0  0
 34 35  2  0  0  0  0
 34 31  1  0  0  0  0
 35 36  1  0  0  0  0
 37 38  1  0  0  0  0
 37 35  1  0  0  0  0
 39 37  2  0  0  0  0
 40 39  1  0  0  0  0
 40 33  2  0  0  0  0
M  END
>  <minimizedAffinity>
-6.07960176

$$$$

 OpenBabel03242513433D

 40 43  0  0  0  0  0  0  0  0999 V2000
   36.4280   29.4930   39.1190 C   0  0  0  0  0  0  0  0  0  0  0  0
   36.5640   29.9380   37.8160 C   0  0  0  0  0  0  0  0  0  0  0  0
   37.1260   31.1800   37.6110 C   0  0  0  0  0  0  0  0  0  0  0  0
   37.5540   31.9870   38.6460 C   0  0  0  0  0  0  0  0  0  0  0  0
   38.1230   33.2030   38.7870 N   0  0  0  0  0  0  0  0  0  0  0  0
   38.3230   33.4850   40.0950 C   0  0  0  0  0  0  0  0  0  0  0  0
   37.8670   32.4180   40.7760 N   0  0  0  0  0  0  0  0  0  0  0  0
   37.3920   31.4900   39.9160 C   0  0  0  0  0  0  0  0  0  0  0  0
   36.8460   30.2780   40.1910 C   0  0  0  0  0  0  0  0  0  0  0  0
   35.9920   28.5310   39.2840 H   0  0  0  0  0  0  0  0  0  0  0  0
   37.2500   31.5620   36.6060 H   0  0  0  0  0  0  0  0  0  0  0  0
   38.3570   33.8040   37.9540 H   0  0  0  0  0  0  0  0  0  0  0  0
   38.7640   34.3940   40.5030 H   0  0  0  0  0  0  0  0  0  0  0  0
   35.9820   28.7080   34.4280 C   0  0  0  0  0  0  0  0  0  0  0  0
   35.2730   27.5230   34.6370 C   0  0  0  0  0  0  0  0  0  0  0  0
   35.0150   27.1810   35.9660 C   0  0  0  0  0  0  0  0  0  0  0  0
   35.4470   27.9830   36.9680 N   0  0  0  0  0  0  0  0  0  0  0  0
   36.1210   29.1080   36.6990 C   0  0  0  0  0  0  0  0  0  0  0  0
   36.3970   29.4840   35.4560 N   0  0  0  0  0  0  0  0  0  0  0  0
   36.2470   29.0870   33.4410 H   0  0  0  0  0  0  0  0  0  0  0  0
   34.4660   26.2630   36.1300 H   0  0  0  0  0  0  0  0  0  0  0  0
   34.8570   26.7320   33.4550 C   0  0  0  0  0  0  0  0  0  0  0  0
   35.2910   25.4460   33.7180 F   0  0  0  0  0  0  0  0  0  0  0  0
   35.4990   27.2340   32.3560 F   0  0  0  0  0  0  0  0  0  0  0  0
   33.4760   26.8280   33.3370 F   0  0  0  0  0  0  0  0  0  0  0  0
   36.7150   29.8430   41.5020 O   0  0  0  0  0  0  0  0  0  0  0  0
   37.2690   28.5580   43.6790 O   0  0  0  0  0  0  0  0  0  0  0  0
   37.9100   29.0550   42.3810 P   0  0  2  0  0  0  0  0  0  0  0  0
   39.0520   30.2370   42.8480 O   0  0  0  0  0  0  0  0  0  0  0  0
   38.6190   30.8390   43.5120 H   0  0  0  0  0  0  0  0  0  0  0  0
   38.6650   27.8040   41.5800 O   0  0  0  0  0  0  0  0  0  0  0  0
   39.1280   25.7420   43.4330 F   0  0  0  0  0  0  0  0  0  0  0  0
   38.3030   25.4630   42.4200 C   0  0  0  0  0  0  0  0  0  0  0  0
   38.1180   26.5340   41.5370 C   0  0  0  0  0  0  0  0  0  0  0  0
   37.2690   26.3380   40.4420 C   0  0  0  0  0  0  0  0  0  0  0  0
   37.0610   27.1110   39.6980 H   0  0  0  0  0  0  0  0  0  0  0  0
   36.6240   25.1220   40.2260 C   0  0  0  0  0  0  0  0  0  0  0  0
   35.9730   24.9950   39.3740 H   0  0  0  0  0  0  0  0  0  0  0  0
   36.8120   24.0830   41.0950 C   0  0  0  0  0  3  0  0  0  0  0  0
   37.6410   24.2960   42.1520 C   0  0  0  0  0  3  0  0  0  0  0  0
  1 10  1  0  0  0  0
  1  9  1  0  0  0  0
  2  1  2  0  0  0  0
  3  2  1  0  0  0  0
  3  4  2  0  0  0  0
  4  5  1  0  0  0  0
  4  8  1  0  0  0  0
  5  6  1  0  0  0  0
  6 13  1  0  0  0  0
  6  7  2  0  0  0  0
  8  9  2  0  0  0  0
  8  7  1  0  0  0  0
  9 26  1  0  0  0  0
 11  3  1  0  0  0  0
 12  5  1  0  0  0  0
 14 15  2  0  0  0  0
 14 19  1  0  0  0  0
 15 16  1  0  0  0  0
 16 21  1  0  0  0  0
 16 17  2  0  0  0  0
 18 17  1  0  0  0  0
 18  2  1  0  0  0  0
 19 18  2  0  0  0  0
 20 14  1  0  0  0  0
 22 23  1  0  0  0  0
 22 15  1  0  0  0  0
 24 22  1  0  0  0  0
 25 22  1  0  0  0  0
 26 28  1  0  0  0  0
 28 29  1  0  0  0  0
 28 27  2  1  0  0  0
 29 30  1  0  0  0  0
 31 28  1  0  0  0  0
 33 32  1  0  0  0  0
 34 31  1  0  0  0  0
 34 33  2  0  0  0  0
 35 34  1  0  0  0  0
 36 35  1  0  0  0  0
 37 35  2  0  0  0  0
 37 39  1  0  0  0  0
 38 37  1  0  0  0  0
 39 40  2  0  0  0  0
 40 33  1  0  0  0  0
M  END
>  <minimizedAffinity>
-6.04035378

$$$$

 OpenBabel03242513433D

 40 43  0  0  0  0  0  0  0  0999 V2000
   39.0950   28.9670   39.3970 C   0  0  0  0  0  0  0  0  0  0  0  0
   39.6910   27.9750   38.6380 C   0  0  0  0  0  0  0  0  0  0  0  0
   40.6280   28.3520   37.7000 C   0  0  0  0  0  0  0  0  0  0  0  0
   40.9900   29.6670   37.4920 C   0  0  0  0  0  0  0  0  0  0  0  0
   41.8360   30.3490   36.6910 N   0  0  0  0  0  0  0  0  0  0  0  0
   41.7630   31.6760   36.9430 C   0  0  0  0  0  0  0  0  0  0  0  0
   40.8510   31.8150   37.9220 N   0  0  0  0  0  0  0  0  0  0  0  0
   40.3640   30.6050   38.2750 C   0  0  0  0  0  0  0  0  0  0  0  0
   39.4330   30.3060   39.2160 C   0  0  0  0  0  0  0  0  0  0  0  0
   38.3670   28.6810   40.1260 H   0  0  0  0  0  0  0  0  0  0  0  0
   41.1160   27.6040   37.0880 H   0  0  0  0  0  0  0  0  0  0  0  0
   42.4460   29.8590   35.9850 H   0  0  0  0  0  0  0  0  0  0  0  0
   42.3310   32.4640   36.4470 H   0  0  0  0  0  0  0  0  0  0  0  0
   38.1680   24.6900   38.1730 C   0  0  0  0  0  0  0  0  0  0  0  0
   38.6800   23.9470   39.2390 C   0  0  0  0  0  0  0  0  0  0  0  0
   39.5510   24.6180   40.1000 C   0  0  0  0  0  0  0  0  0  0  0  0
   39.8560   25.9180   39.8770 N   0  0  0  0  0  0  0  0  0  0  0  0
   39.3290   26.5740   38.8340 C   0  0  0  0  0  0  0  0  0  0  0  0
   38.4970   25.9890   37.9820 N   0  0  0  0  0  0  0  0  0  0  0  0
   37.4800   24.2850   37.4310 H   0  0  0  0  0  0  0  0  0  0  0  0
   39.9490   24.0450   40.9280 H   0  0  0  0  0  0  0  0  0  0  0  0
   38.2680   22.5300   39.3740 C   0  0  0  0  0  0  0  0  0  0  0  0
   38.6020   22.1860   40.6710 F   0  0  0  0  0  0  0  0  0  0  0  0
   38.9930   21.7860   38.4850 F   0  0  0  0  0  0  0  0  0  0  0  0
   36.9030   22.4530   39.1240 F   0  0  0  0  0  0  0  0  0  0  0  0
   38.8420   31.3100   39.9700 O   0  0  0  0  0  0  0  0  0  0  0  0
   36.5040   31.0220   38.8980 O   0  0  0  0  0  0  0  0  0  0  0  0
   37.1880   31.5160   40.1750 P   0  0  2  0  0  0  0  0  0  0  0  0
   36.8950   33.1980   40.2390 O   0  0  0  0  0  0  0  0  0  0  0  0
   37.0770   33.5780   39.3370 H   0  0  0  0  0  0  0  0  0  0  0  0
   36.5450   30.7650   41.5170 O   0  0  0  0  0  0  0  0  0  0  0  0
   35.3940   28.4200   40.4790 F   0  0  0  0  0  0  0  0  0  0  0  0
   36.3620   28.2620   41.3840 C   0  0  0  0  0  0  0  0  0  0  0  0
   36.8900   29.4690   41.8580 C   0  0  0  0  0  0  0  0  0  0  0  0
   37.9110   29.4050   42.8120 C   0  0  0  0  0  0  0  0  0  0  0  0
   38.3860   30.2900   43.2420 H   0  0  0  0  0  0  0  0  0  0  0  0
   38.3950   28.1870   43.2840 C   0  0  0  0  0  0  0  0  0  0  0  0
   39.1850   28.1640   44.0200 H   0  0  0  0  0  0  0  0  0  0  0  0
   37.8730   27.0140   42.8150 C   0  0  0  0  0  3  0  0  0  0  0  0
   36.8810   27.0990   41.8880 C   0  0  0  0  0  3  0  0  0  0  0  0
  1 10  1  0  0  0  0
  2 18  1  0  0  0  0
  2  1  2  0  0  0  0
  3  2  1  0  0  0  0
  4  3  2  0  0  0  0
  4  8  1  0  0  0  0
  5  6  1  0  0  0  0
  5  4  1  0  0  0  0
  6  7  2  0  0  0  0
  7  8  1  0  0  0  0
  8  9  2  0  0  0  0
  9  1  1  0  0  0  0
  9 26  1  0  0  0  0
 11  3  1  0  0  0  0
 12  5  1  0  0  0  0
 13  6  1  0  0  0  0
 14 15  1  0  0  0  0
 15 22  1  0  0  0  0
 15 16  2  0  0  0  0
 16 21  1  0  0  0  0
 17 16  1  0  0  0  0
 18 17  2  0  0  0  0
 19 14  2  0  0  0  0
 19 18  1  0  0  0  0
 20 14  1  0  0  0  0
 22 23  1  0  0  0  0
 24 22  1  0  0  0  0
 25 22  1  0  0  0  0
 26 28  1  0  0  0  0
 28 27  2  6  0  0  0
 28 29  1  0  0  0  0
 28 31  1  0  0  0  0
 30 29  1  0  0  0  0
 31 34  1  0  0  0  0
 32 33  1  0  0  0  0
 33 34  2  0  0  0  0
 33 40  1  0  0  0  0
 34 35  1  0  0  0  0
 35 36  1  0  0  0  0
 35 37  2  0  0  0  0
 37 38  1  0  0  0  0
 39 37  1  0  0  0  0
 40 39  2  0  0  0  0
M  END
>  <minimizedAffinity>
-6.00914812

$$$$

 OpenBabel03242513433D

 40 43  0  0  0  0  0  0  0  0999 V2000
   37.1500   26.2860   40.2310 C   0  0  0  0  0  0  0  0  0  0  0  0
   36.8020   24.9480   40.2030 C   0  0  0  0  0  0  0  0  0  0  0  0
   37.4480   24.0930   41.0690 C   0  0  0  0  0  0  0  0  0  0  0  0
   38.4190   24.5180   41.9540 C   0  0  0  0  0  0  0  0  0  0  0  0
   39.2120   23.9660   42.8980 N   0  0  0  0  0  0  0  0  0  0  0  0
   39.9970   24.9090   43.4680 C   0  0  0  0  0  0  0  0  0  0  0  0
   39.6800   26.0680   42.8620 N   0  0  0  0  0  0  0  0  0  0  0  0
   38.7200   25.8570   41.9350 C   0  0  0  0  0  0  0  0  0  0  0  0
   38.1250   26.7550   41.1090 C   0  0  0  0  0  0  0  0  0  0  0  0
   36.6520   26.9550   39.5610 H   0  0  0  0  0  0  0  0  0  0  0  0
   37.2030   23.0380   41.0770 H   0  0  0  0  0  0  0  0  0  0  0  0
   39.1790   22.9360   43.1160 H   0  0  0  0  0  0  0  0  0  0  0  0
   40.7330   24.7520   44.2560 H   0  0  0  0  0  0  0  0  0  0  0  0
   34.5190   24.7380   37.3610 C   0  0  0  0  0  0  0  0  0  0  0  0
   33.8590   23.5250   37.5720 C   0  0  0  0  0  0  0  0  0  0  0  0
   34.2310   22.8070   38.7090 C   0  0  0  0  0  0  0  0  0  0  0  0
   35.1850   23.2950   39.5370 N   0  0  0  0  0  0  0  0  0  0  0  0
   35.7800   24.4670   39.2780 C   0  0  0  0  0  0  0  0  0  0  0  0
   35.4680   25.1940   38.2120 N   0  0  0  0  0  0  0  0  0  0  0  0
   34.3230   25.3930   36.5130 H   0  0  0  0  0  0  0  0  0  0  0  0
   33.7200   21.8670   38.8750 H   0  0  0  0  0  0  0  0  0  0  0  0
   32.8330   23.1020   36.5900 C   0  0  0  0  0  0  0  0  0  0  0  0
   32.9640   23.9890   35.5370 F   0  0  0  0  0  0  0  0  0  0  0  0
   31.6030   23.2350   37.1710 F   0  0  0  0  0  0  0  0  0  0  0  0
   33.0970   21.7860   36.2310 F   0  0  0  0  0  0  0  0  0  0  0  0
   38.4820   28.0950   41.1460 O   0  0  0  0  0  0  0  0  0  0  0  0
   38.7200   30.0800   42.7900 O   0  0  0  0  0  0  0  0  0  0  0  0
   37.6700   29.2860   42.0090 P   0  0  2  0  0  0  0  0  0  0  0  0
   36.7150   28.4940   43.1840 O   0  0  0  0  0  0  0  0  0  0  0  0
   37.3270   28.0840   43.8540 H   0  0  0  0  0  0  0  0  0  0  0  0
   36.7270   30.3040   41.0860 O   0  0  0  0  0  0  0  0  0  0  0  0
   34.3310   28.8870   40.7030 F   0  0  0  0  0  0  0  0  0  0  0  0
   35.0230   29.2010   39.6050 C   0  0  0  0  0  0  0  0  0  0  0  0
   36.2040   29.9050   39.8690 C   0  0  0  0  0  0  0  0  0  0  0  0
   36.9980   30.2800   38.7800 C   0  0  0  0  0  0  0  0  0  0  0  0
   37.9360   30.8310   38.8830 H   0  0  0  0  0  0  0  0  0  0  0  0
   36.6370   29.9670   37.4710 C   0  0  0  0  0  0  0  0  0  0  0  0
   37.2670   30.2680   36.6470 H   0  0  0  0  0  0  0  0  0  0  0  0
   35.4820   29.2790   37.2240 C   0  0  0  0  0  3  0  0  0  0  0  0
   34.7250   28.9260   38.2980 C   0  0  0  0  0  3  0  0  0  0  0  0
  1  9  1  0  0  0  0
  2  1  2  0  0  0  0
  2  3  1  0  0  0  0
  3 11  1  0  0  0  0
  3  4  2  0  0  0  0
  4  5  1  0  0  0  0
  5 12  1  0  0  0  0
  5  6  1  0  0  0  0
  6 13  1  0  0  0  0
  7  6  2  0  0  0  0
  8  4  1  0  0  0  0
  8  7  1  0  0  0  0
  9 26  1  0  0  0  0
  9  8  2  0  0  0  0
 10  1  1  0  0  0  0
 14 15  2  0  0  0  0
 14 19  1  0  0  0  0
 15 16  1  0  0  0  0
 16 21  1  0  0  0  0
 16 17  2  0  0  0  0
 18 17  1  0  0  0  0
 18  2  1  0  0  0  0
 19 18  2  0  0  0  0
 20 14  1  0  0  0  0
 22 24  1  0  0  0  0
 22 15  1  0  0  0  0
 23 22  1  0  0  0  0
 25 22  1  0  0  0  0
 26 28  1  0  0  0  0
 28 27  2  1  0  0  0
 28 29  1  0  0  0  0
 29 30  1  0  0  0  0
 31 28  1  0  0  0  0
 33 34  1  0  0  0  0
 33 32  1  0  0  0  0
 34 31  1  0  0  0  0
 35 36  1  0  0  0  0
 35 34  2  0  0  0  0
 37 35  1  0  0  0  0
 38 37  1  0  0  0  0
 39 37  2  0  0  0  0
 39 40  1  0  0  0  0
 40 33  2  0  0  0  0
M  END
>  <minimizedAffinity>
-5.93812418

$$$$
