
 OpenBabel03242514163D

 41 43  0  0  0  0  0  0  0  0999 V2000
   46.1560   34.5470   43.5890 C   0  0  0  0  0  0  0  0  0  0  0  0
   46.1820   33.7720   44.7310 C   0  0  0  0  0  0  0  0  0  0  0  0
   45.3720   34.1490   45.7670 C   0  0  0  0  0  0  0  0  0  0  0  0
   44.5890   35.2590   45.6210 N   0  0  0  0  0  0  0  0  0  0  0  0
   44.5670   35.9990   44.5220 C   0  0  0  0  0  0  0  0  0  0  0  0
   45.3530   35.6300   43.5230 N   0  0  0  0  0  0  0  0  0  0  0  0
   45.2090   33.7330   46.7420 H   0  0  0  0  0  0  0  0  0  0  0  0
   43.9650   36.8710   44.3780 H   0  0  0  0  0  0  0  0  0  0  0  0
   47.0690   34.1320   42.5200 C   0  0  0  0  0  0  0  0  0  0  0  0
   48.4190   34.6710   42.5790 C   0  0  0  0  0  0  0  0  0  0  0  0
   48.7340   35.6040   41.4850 C   0  0  0  0  0  0  0  0  0  0  0  0
   48.5320   34.9510   40.1210 C   0  0  0  0  0  0  0  0  0  0  0  0
   47.2970   34.1220   40.0460 C   0  0  0  0  0  0  0  0  0  0  0  0
   46.3610   34.4210   41.1980 C   0  0  0  0  0  0  0  0  0  0  0  0
   47.1360   33.0160   42.4730 H   0  0  0  0  0  0  0  0  0  0  0  0
   48.5050   35.2580   43.5440 H   0  0  0  0  0  0  0  0  0  0  0  0
   49.2560   33.9350   42.6720 H   0  0  0  0  0  0  0  0  0  0  0  0
   49.7810   35.9280   41.5320 H   0  0  0  0  0  0  0  0  0  0  0  0
   48.0900   36.5270   41.5620 H   0  0  0  0  0  0  0  0  0  0  0  0
   48.4320   35.7990   39.4000 H   0  0  0  0  0  0  0  0  0  0  0  0
   49.4490   34.4110   39.8000 H   0  0  0  0  0  0  0  0  0  0  0  0
   46.7600   34.1820   39.0910 H   0  0  0  0  0  0  0  0  0  0  0  0
   47.6040   33.0590   40.1900 H   0  0  0  0  0  0  0  0  0  0  0  0
   46.0840   35.4870   41.1690 H   0  0  0  0  0  0  0  0  0  0  0  0
   45.4560   33.8120   41.0990 H   0  0  0  0  0  0  0  0  0  0  0  0
   46.8430   32.6880   45.0750 O   0  0  0  0  0  0  0  0  0  0  0  0
   47.0280   31.9560   46.2010 C   0  0  0  0  0  0  0  0  0  0  0  0
   47.7550   32.4770   46.8890 H   0  0  0  0  0  0  0  0  0  0  0  0
   46.1090   31.8450   46.8120 H   0  0  0  0  0  0  0  0  0  0  0  0
   47.5820   30.5730   46.0170 C   0  0  0  0  0  0  0  0  0  0  0  0
   48.6140   30.5710   46.4220 H   0  0  0  0  0  0  0  0  0  0  0  0
   47.6910   30.3500   44.9150 H   0  0  0  0  0  0  0  0  0  0  0  0
   45.2120   31.1800   47.4050 F   0  0  0  0  0  0  0  0  0  0  0  0
   45.6650   29.8930   47.2780 C   0  0  0  0  0  0  0  0  0  0  0  0
   46.8290   29.4850   46.6160 C   0  0  0  0  0  0  0  0  0  0  0  0
   47.0570   28.1290   46.6340 C   0  0  0  0  0  0  0  0  0  0  0  0
   47.9490   27.8170   46.1150 H   0  0  0  0  0  0  0  0  0  0  0  0
   46.2610   27.1860   47.2280 C   0  0  0  0  0  0  0  0  0  0  0  0
   46.5800   26.1460   47.1540 H   0  0  0  0  0  0  0  0  0  0  0  0
   45.1210   27.5850   47.8780 C   0  0  0  0  0  0  0  0  0  0  0  0
   44.8430   28.9540   47.8880 C   0  0  0  0  0  0  0  0  0  0  0  0
  1  2  1  0  0  0  0
  2 26  1  0  0  0  0
  2  3  2  0  0  0  0
  3  7  1  0  0  0  0
  4  3  1  0  0  0  0
  5  4  2  0  0  0  0
  6  1  2  0  0  0  0
  6  5  1  0  0  0  0
  8  5  1  0  0  0  0
  9 10  1  0  0  0  0
  9  1  1  0  0  0  0
 10 17  1  0  0  0  0
 10 16  1  0  0  0  0
 11 18  1  0  0  0  0
 11 19  1  0  0  0  0
 11 10  1  0  0  0  0
 12 11  1  0  0  0  0
 13 12  1  0  0  0  0
 13 23  1  0  0  0  0
 13 14  1  0  0  0  0
 14  9  1  0  0  0  0
 15  9  1  0  0  0  0
 20 12  1  0  0  0  0
 21 12  1  0  0  0  0
 22 13  1  0  0  0  0
 24 14  1  0  0  0  0
 25 14  1  0  0  0  0
 26 27  1  0  0  0  0
 27 29  1  0  0  0  0
 27 28  1  0  0  0  0
 30 27  1  0  0  0  0
 30 31  1  0  0  0  0
 30 35  1  0  0  0  0
 32 30  1  0  0  0  0
 34 33  1  0  0  0  0
 34 41  1  0  0  0  0
 35 36  1  0  0  0  0
 35 34  2  0  0  0  0
 36 38  2  0  0  0  0
 37 36  1  0  0  0  0
 38 40  1  0  0  0  0
 39 38  1  0  0  0  0
 40 41  2  0  0  0  0
M  END
>  <minimizedAffinity>
-5.80565453

>  <minimizedRMSD>
2.3612473

$$$$
