
 OpenBabel03242520343D

 28 30  0  0  1  0  0  0  0  0999 V2000
   37.5990   27.0680   40.4790 C   0  0  0  0  0  0  0  0  0  0  0  0
   37.1040   26.6360   41.7510 C   0  0  0  0  0  0  0  0  0  0  0  0
   36.9270   27.5830   42.7420 C   0  0  0  0  0  0  0  0  0  0  0  0
   37.2310   28.8740   42.4580 N   0  0  0  0  0  0  0  0  0  0  0  0
   37.6910   29.2590   41.2660 C   0  0  0  0  0  0  0  0  0  0  0  0
   37.8710   28.3610   40.2910 N   0  0  0  0  0  0  0  0  0  0  0  0
   37.7390   26.3290   39.7020 H   0  0  0  0  0  0  0  0  0  0  0  0
   36.5540   27.2720   43.7080 H   0  0  0  0  0  0  0  0  0  0  0  0
   35.8650   30.9340   39.9400 F   0  0  0  0  0  0  0  0  0  0  0  0
   37.0630   31.4450   40.3170 C   0  0  0  0  0  0  0  0  0  0  0  0
   38.0170   30.6700   40.9780 C   0  0  0  0  0  0  0  0  0  0  0  0
   39.2310   31.2170   41.3530 C   0  0  0  0  0  0  0  0  0  0  0  0
   39.9500   30.5700   41.8700 H   0  0  0  0  0  0  0  0  0  0  0  0
   39.5070   32.5520   41.0660 C   0  0  0  0  0  0  0  0  0  0  0  0
   40.4520   32.9400   41.3670 H   0  0  0  0  0  0  0  0  0  0  0  0
   38.5440   33.3130   40.4030 C   0  0  0  0  0  3  0  0  0  0  0  0
   37.3240   32.7720   40.0260 C   0  0  0  0  0  3  0  0  0  0  0  0
   36.8000   25.1940   42.0180 C   0  0  1  0  0  0  0  0  0  0  0  0
   37.3230   24.1650   41.1440 C   0  0  0  0  0  0  0  0  0  0  0  0
   37.9450   24.3010   42.4850 C   0  0  1  0  0  0  0  0  0  0  0  0
   35.9010   25.0750   42.6420 H   0  0  0  0  0  0  0  0  0  0  0  0
   37.8810   24.4380   40.2150 H   0  0  0  0  0  0  0  0  0  0  0  0
   36.6220   23.3010   40.9450 H   0  0  0  0  0  0  0  0  0  0  0  0
   37.7010   23.5160   43.2580 H   0  0  0  0  0  0  0  0  0  0  0  0
   39.3120   24.8550   42.6590 C   0  0  0  0  0  0  0  0  0  0  0  0
   39.3400   25.8990   43.5680 F   0  0  0  0  0  0  0  0  0  0  0  0
   39.8550   25.2970   41.4510 F   0  0  0  0  0  0  0  0  0  0  0  0
   40.1160   23.8610   43.1650 F   0  0  0  0  0  0  0  0  0  0  0  0
  1  2  1  0  0  0  0
  2 18  1  0  0  0  0
  2  3  2  0  0  0  0
  3  8  1  0  0  0  0
  4  3  1  0  0  0  0
  5  4  2  0  0  0  0
  6  1  2  0  0  0  0
  6  5  1  0  0  0  0
  7  1  1  0  0  0  0
  9 10  1  0  0  0  0
 10 11  1  0  0  0  0
 11  5  1  0  0  0  0
 11 12  2  0  0  0  0
 12 13  1  0  0  0  0
 14 12  1  0  0  0  0
 14 15  1  0  0  0  0
 16 14  2  0  0  0  0
 17 10  2  0  0  0  0
 17 16  1  0  0  0  0
 18 20  1  0  0  0  0
 18 21  1  1  0  0  0
 19 18  1  0  0  0  0
 19 20  1  0  0  0  0
 20 25  1  0  0  0  0
 20 24  1  1  0  0  0
 22 19  1  0  0  0  0
 23 19  1  0  0  0  0
 25 28  1  0  0  0  0
 25 26  1  0  0  0  0
 27 25  1  0  0  0  0
M  END
>  <minimizedAffinity>
-5.46287584

$$$$

 OpenBabel03242520343D

 28 30  0  0  1  0  0  0  0  0999 V2000
   37.4970   27.0080   40.3690 C   0  0  0  0  0  0  0  0  0  0  0  0
   37.0520   26.5950   41.6670 C   0  0  0  0  0  0  0  0  0  0  0  0
   36.8270   27.5680   42.6220 C   0  0  0  0  0  0  0  0  0  0  0  0
   37.0390   28.8640   42.2820 N   0  0  0  0  0  0  0  0  0  0  0  0
   37.4530   29.2300   41.0680 C   0  0  0  0  0  0  0  0  0  0  0  0
   37.6780   28.3080   40.1260 N   0  0  0  0  0  0  0  0  0  0  0  0
   37.6740   26.2490   39.6190 H   0  0  0  0  0  0  0  0  0  0  0  0
   36.4910   27.2730   43.6070 H   0  0  0  0  0  0  0  0  0  0  0  0
   39.5860   30.6830   42.1790 F   0  0  0  0  0  0  0  0  0  0  0  0
   38.7570   31.3070   41.3060 C   0  0  0  0  0  0  0  0  0  0  0  0
   37.6780   30.6470   40.7180 C   0  0  0  0  0  0  0  0  0  0  0  0
   36.8480   31.3080   39.8300 C   0  0  0  0  0  0  0  0  0  0  0  0
   36.0120   30.7490   39.3920 H   0  0  0  0  0  0  0  0  0  0  0  0
   37.0900   32.6450   39.5210 C   0  0  0  0  0  0  0  0  0  0  0  0
   36.4300   33.1230   38.8350 H   0  0  0  0  0  0  0  0  0  0  0  0
   38.1710   33.2900   40.1180 C   0  0  0  0  0  3  0  0  0  0  0  0
   39.0080   32.6350   41.0080 C   0  0  0  0  0  3  0  0  0  0  0  0
   36.8500   25.1480   41.9950 C   0  0  1  0  0  0  0  0  0  0  0  0
   37.4490   24.1220   41.1680 C   0  0  0  0  0  0  0  0  0  0  0  0
   38.0540   24.3600   42.5020 C   0  0  1  0  0  0  0  0  0  0  0  0
   35.9590   24.9930   42.6240 H   0  0  0  0  0  0  0  0  0  0  0  0
   37.9890   24.3940   40.2280 H   0  0  0  0  0  0  0  0  0  0  0  0
   36.8120   23.2030   41.0060 H   0  0  0  0  0  0  0  0  0  0  0  0
   37.8640   23.5940   43.3080 H   0  0  0  0  0  0  0  0  0  0  0  0
   39.3780   25.0170   42.6520 C   0  0  0  0  0  0  0  0  0  0  0  0
   39.3350   26.0790   43.5410 F   0  0  0  0  0  0  0  0  0  0  0  0
   39.8770   25.4740   41.4310 F   0  0  0  0  0  0  0  0  0  0  0  0
   40.2570   24.0960   43.1710 F   0  0  0  0  0  0  0  0  0  0  0  0
  1  2  1  0  0  0  0
  2 18  1  0  0  0  0
  2  3  2  0  0  0  0
  3  8  1  0  0  0  0
  4  3  1  0  0  0  0
  5  4  2  0  0  0  0
  6  1  2  0  0  0  0
  6  5  1  0  0  0  0
  7  1  1  0  0  0  0
 10  9  1  0  0  0  0
 11  5  1  0  0  0  0
 11 10  2  0  0  0  0
 12 11  1  0  0  0  0
 13 12  1  0  0  0  0
 14 12  2  0  0  0  0
 14 16  1  0  0  0  0
 15 14  1  0  0  0  0
 16 17  2  0  0  0  0
 17 10  1  0  0  0  0
 18 20  1  0  0  0  0
 18 21  1  1  0  0  0
 19 18  1  0  0  0  0
 19 20  1  0  0  0  0
 20 25  1  0  0  0  0
 20 24  1  1  0  0  0
 22 19  1  0  0  0  0
 23 19  1  0  0  0  0
 25 28  1  0  0  0  0
 25 26  1  0  0  0  0
 27 25  1  0  0  0  0
M  END
>  <minimizedAffinity>
-5.45008373

$$$$

 OpenBabel03242520343D

 28 30  0  0  1  0  0  0  0  0999 V2000
   39.5250   28.0940   40.5460 C   0  0  0  0  0  0  0  0  0  0  0  0
   39.5370   27.7230   41.9290 C   0  0  0  0  0  0  0  0  0  0  0  0
   39.2350   28.6890   42.8700 C   0  0  0  0  0  0  0  0  0  0  0  0
   38.9430   29.9400   42.4350 N   0  0  0  0  0  0  0  0  0  0  0  0
   38.9360   30.2690   41.1420 C   0  0  0  0  0  0  0  0  0  0  0  0
   39.2250   29.3520   40.2120 N   0  0  0  0  0  0  0  0  0  0  0  0
   39.7610   27.3410   39.8070 H   0  0  0  0  0  0  0  0  0  0  0  0
   39.2390   28.4240   43.9190 H   0  0  0  0  0  0  0  0  0  0  0  0
   36.5510   30.8280   39.7650 F   0  0  0  0  0  0  0  0  0  0  0  0
   37.4150   31.8440   40.0120 C   0  0  0  0  0  0  0  0  0  0  0  0
   38.6170   31.6370   40.6890 C   0  0  0  0  0  0  0  0  0  0  0  0
   39.4800   32.6920   40.9290 C   0  0  0  0  0  0  0  0  0  0  0  0
   40.4130   32.4830   41.4650 H   0  0  0  0  0  0  0  0  0  0  0  0
   39.1470   33.9720   40.4890 C   0  0  0  0  0  0  0  0  0  0  0  0
   39.8350   34.7600   40.6880 H   0  0  0  0  0  0  0  0  0  0  0  0
   37.9430   34.1610   39.8130 C   0  0  0  0  0  3  0  0  0  0  0  0
   37.0730   33.1090   39.5690 C   0  0  0  0  0  3  0  0  0  0  0  0
   39.8830   26.3300   42.3560 C   0  0  1  0  0  0  0  0  0  0  0  0
   39.5270   25.8630   43.6790 C   0  0  0  0  0  0  0  0  0  0  0  0
   38.7390   25.3370   42.5370 C   0  0  1  0  0  0  0  0  0  0  0  0
   40.7040   25.9100   41.7540 H   0  0  0  0  0  0  0  0  0  0  0  0
   39.0730   26.5620   44.4250 H   0  0  0  0  0  0  0  0  0  0  0  0
   40.2920   25.1970   44.1770 H   0  0  0  0  0  0  0  0  0  0  0  0
   38.9280   24.2720   42.2160 H   0  0  0  0  0  0  0  0  0  0  0  0
   37.3330   25.7540   42.3000 C   0  0  0  0  0  0  0  0  0  0  0  0
   37.1270   26.1750   40.9970 F   0  0  0  0  0  0  0  0  0  0  0  0
   36.9360   26.7710   43.1690 F   0  0  0  0  0  0  0  0  0  0  0  0
   36.5230   24.6620   42.5010 F   0  0  0  0  0  0  0  0  0  0  0  0
  1  2  1  0  0  0  0
  2 18  1  0  0  0  0
  2  3  2  0  0  0  0
  3  8  1  0  0  0  0
  4  3  1  0  0  0  0
  5  4  2  0  0  0  0
  6  1  2  0  0  0  0
  6  5  1  0  0  0  0
  7  1  1  0  0  0  0
  9 10  1  0  0  0  0
 10 11  1  0  0  0  0
 11 12  2  0  0  0  0
 11  5  1  0  0  0  0
 12 13  1  0  0  0  0
 14 15  1  0  0  0  0
 14 12  1  0  0  0  0
 16 14  2  0  0  0  0
 17 16  1  0  0  0  0
 17 10  2  0  0  0  0
 18 21  1  6  0  0  0
 18 20  1  0  0  0  0
 18 19  1  0  0  0  0
 19 23  1  0  0  0  0
 19 22  1  0  0  0  0
 20 24  1  6  0  0  0
 20 19  1  0  0  0  0
 25 28  1  0  0  0  0
 25 20  1  0  0  0  0
 25 27  1  0  0  0  0
 26 25  1  0  0  0  0
M  END
>  <minimizedAffinity>
-5.3117156

$$$$

 OpenBabel03242520343D

 28 30  0  0  1  0  0  0  0  0999 V2000
   36.6400   29.8830   41.0820 C   0  0  0  0  0  0  0  0  0  0  0  0
   37.6400   30.8690   40.8030 C   0  0  0  0  0  0  0  0  0  0  0  0
   38.9680   30.5200   40.9640 C   0  0  0  0  0  0  0  0  0  0  0  0
   39.2550   29.2600   41.3780 N   0  0  0  0  0  0  0  0  0  0  0  0
   38.3100   28.3540   41.6330 C   0  0  0  0  0  0  0  0  0  0  0  0
   37.0180   28.6680   41.4850 N   0  0  0  0  0  0  0  0  0  0  0  0
   35.6000   30.1530   40.9570 H   0  0  0  0  0  0  0  0  0  0  0  0
   39.7350   31.2530   40.7570 H   0  0  0  0  0  0  0  0  0  0  0  0
   40.2070   27.9120   43.6580 F   0  0  0  0  0  0  0  0  0  0  0  0
   39.5940   26.8420   43.0950 C   0  0  0  0  0  0  0  0  0  0  0  0
   38.6440   26.9880   42.0840 C   0  0  0  0  0  0  0  0  0  0  0  0
   38.0330   25.8790   41.5270 C   0  0  0  0  0  0  0  0  0  0  0  0
   37.2910   26.0420   40.7350 H   0  0  0  0  0  0  0  0  0  0  0  0
   38.3700   24.6040   41.9770 C   0  0  0  0  0  0  0  0  0  0  0  0
   37.8820   23.7730   41.5250 H   0  0  0  0  0  0  0  0  0  0  0  0
   39.3230   24.4750   42.9860 C   0  0  0  0  0  3  0  0  0  0  0  0
   39.9390   25.5820   43.5500 C   0  0  0  0  0  3  0  0  0  0  0  0
   37.2680   32.2520   40.3650 C   0  0  1  0  0  0  0  0  0  0  0  0
   38.2570   33.1140   39.7530 C   0  0  0  0  0  0  0  0  0  0  0  0
   37.2180   32.5330   38.8660 C   0  0  1  0  0  0  0  0  0  0  0  0
   36.3670   32.6160   40.8840 H   0  0  0  0  0  0  0  0  0  0  0  0
   39.3250   32.7930   39.6850 H   0  0  0  0  0  0  0  0  0  0  0  0
   38.1890   34.2040   40.0430 H   0  0  0  0  0  0  0  0  0  0  0  0
   36.4000   33.2170   38.4990 H   0  0  0  0  0  0  0  0  0  0  0  0
   37.5390   31.4630   37.8870 C   0  0  0  0  0  0  0  0  0  0  0  0
   36.6630   30.3940   37.9770 F   0  0  0  0  0  0  0  0  0  0  0  0
   38.8430   30.9890   38.0380 F   0  0  0  0  0  0  0  0  0  0  0  0
   37.4040   31.9850   36.6220 F   0  0  0  0  0  0  0  0  0  0  0  0
  1  6  1  0  0  0  0
  2  3  1  0  0  0  0
  2  1  2  0  0  0  0
  3  4  2  0  0  0  0
  4  5  1  0  0  0  0
  5 11  1  0  0  0  0
  6  5  2  0  0  0  0
  7  1  1  0  0  0  0
  8  3  1  0  0  0  0
 10 17  1  0  0  0  0
 10  9  1  0  0  0  0
 11 10  2  0  0  0  0
 12 14  2  0  0  0  0
 12 11  1  0  0  0  0
 13 12  1  0  0  0  0
 14 16  1  0  0  0  0
 15 14  1  0  0  0  0
 16 17  2  0  0  0  0
 18  2  1  0  0  0  0
 18 21  1  1  0  0  0
 19 23  1  0  0  0  0
 19 18  1  0  0  0  0
 20 24  1  6  0  0  0
 20 19  1  0  0  0  0
 20 18  1  0  0  0  0
 22 19  1  0  0  0  0
 25 26  1  0  0  0  0
 25 27  1  0  0  0  0
 25 20  1  0  0  0  0
 28 25  1  0  0  0  0
M  END
>  <minimizedAffinity>
-5.30680561

$$$$

 OpenBabel03242520343D

 28 30  0  0  1  0  0  0  0  0999 V2000
   39.1370   28.5870   42.8450 C   0  0  0  0  0  0  0  0  0  0  0  0
   39.5500   27.5830   41.9120 C   0  0  0  0  0  0  0  0  0  0  0  0
   39.6320   27.9250   40.5750 C   0  0  0  0  0  0  0  0  0  0  0  0
   39.3160   29.1940   40.2160 N   0  0  0  0  0  0  0  0  0  0  0  0
   38.9330   30.1170   41.1000 C   0  0  0  0  0  0  0  0  0  0  0  0
   38.8460   29.8110   42.3990 N   0  0  0  0  0  0  0  0  0  0  0  0
   39.0720   28.3230   43.8920 H   0  0  0  0  0  0  0  0  0  0  0  0
   39.9420   27.1780   39.8570 H   0  0  0  0  0  0  0  0  0  0  0  0
   40.6950   32.2550   41.5660 F   0  0  0  0  0  0  0  0  0  0  0  0
   39.5140   32.5070   40.9500 C   0  0  0  0  0  0  0  0  0  0  0  0
   38.5920   31.4930   40.6880 C   0  0  0  0  0  0  0  0  0  0  0  0
   37.3940   31.7780   40.0570 C   0  0  0  0  0  0  0  0  0  0  0  0
   36.7000   30.9490   39.8720 H   0  0  0  0  0  0  0  0  0  0  0  0
   37.1040   33.0880   39.6810 C   0  0  0  0  0  0  0  0  0  0  0  0
   36.1720   33.2710   39.1990 H   0  0  0  0  0  0  0  0  0  0  0  0
   38.0350   34.0890   39.9500 C   0  0  0  0  0  3  0  0  0  0  0  0
   39.2380   33.8120   40.5820 C   0  0  0  0  0  3  0  0  0  0  0  0
   39.8710   26.1910   42.3600 C   0  0  1  0  0  0  0  0  0  0  0  0
   39.4740   25.7380   43.6760 C   0  0  0  0  0  0  0  0  0  0  0  0
   38.7140   25.2100   42.5160 C   0  0  1  0  0  0  0  0  0  0  0  0
   40.7050   25.7590   41.7840 H   0  0  0  0  0  0  0  0  0  0  0  0
   39.0060   26.4470   44.4030 H   0  0  0  0  0  0  0  0  0  0  0  0
   40.2190   25.0690   44.2000 H   0  0  0  0  0  0  0  0  0  0  0  0
   38.9020   24.1400   42.2090 H   0  0  0  0  0  0  0  0  0  0  0  0
   37.3190   25.6370   42.2370 C   0  0  0  0  0  0  0  0  0  0  0  0
   37.1710   26.1240   40.9480 F   0  0  0  0  0  0  0  0  0  0  0  0
   36.8800   26.6090   43.1370 F   0  0  0  0  0  0  0  0  0  0  0  0
   36.5030   24.5360   42.3450 F   0  0  0  0  0  0  0  0  0  0  0  0
  1  7  1  0  0  0  0
  2 18  1  0  0  0  0
  2  1  2  0  0  0  0
  3  2  1  0  0  0  0
  4  3  2  0  0  0  0
  4  5  1  0  0  0  0
  5  6  2  0  0  0  0
  6  1  1  0  0  0  0
  8  3  1  0  0  0  0
 10  9  1  0  0  0  0
 11 10  1  0  0  0  0
 11  5  1  0  0  0  0
 12 11  2  0  0  0  0
 13 12  1  0  0  0  0
 14 16  2  0  0  0  0
 14 12  1  0  0  0  0
 15 14  1  0  0  0  0
 16 17  1  0  0  0  0
 17 10  2  0  0  0  0
 18 21  1  6  0  0  0
 18 20  1  0  0  0  0
 18 19  1  0  0  0  0
 19 23  1  0  0  0  0
 19 22  1  0  0  0  0
 20 24  1  6  0  0  0
 20 19  1  0  0  0  0
 25 28  1  0  0  0  0
 25 20  1  0  0  0  0
 25 27  1  0  0  0  0
 26 25  1  0  0  0  0
M  END
>  <minimizedAffinity>
-5.2756362

$$$$

 OpenBabel03242520343D

 28 30  0  0  1  0  0  0  0  0999 V2000
   39.2350   29.5550   40.2220 C   0  0  0  0  0  0  0  0  0  0  0  0
   38.7310   30.4290   41.2380 C   0  0  0  0  0  0  0  0  0  0  0  0
   37.7320   29.9610   42.0700 C   0  0  0  0  0  0  0  0  0  0  0  0
   37.2800   28.6960   41.8810 N   0  0  0  0  0  0  0  0  0  0  0  0
   37.7610   27.8950   40.9290 C   0  0  0  0  0  0  0  0  0  0  0  0
   38.7280   28.3250   40.1110 N   0  0  0  0  0  0  0  0  0  0  0  0
   40.0170   29.9190   39.5700 H   0  0  0  0  0  0  0  0  0  0  0  0
   37.3410   30.6090   42.8420 H   0  0  0  0  0  0  0  0  0  0  0  0
   38.0040   25.9590   42.9510 F   0  0  0  0  0  0  0  0  0  0  0  0
   37.4070   25.6110   41.7850 C   0  0  0  0  0  0  0  0  0  0  0  0
   37.2540   26.5210   40.7390 C   0  0  0  0  0  0  0  0  0  0  0  0
   36.6390   26.1400   39.5590 C   0  0  0  0  0  0  0  0  0  0  0  0
   36.5410   26.8890   38.7640 H   0  0  0  0  0  0  0  0  0  0  0  0
   36.1710   24.8360   39.4130 C   0  0  0  0  0  0  0  0  0  0  0  0
   35.7050   24.5760   38.4910 H   0  0  0  0  0  0  0  0  0  0  0  0
   36.3330   23.9390   40.4670 C   0  0  0  0  0  3  0  0  0  0  0  0
   36.9470   24.3130   41.6530 C   0  0  0  0  0  3  0  0  0  0  0  0
   39.2550   31.8240   41.3930 C   0  0  1  0  0  0  0  0  0  0  0  0
   39.9330   32.4750   40.2920 C   0  0  0  0  0  0  0  0  0  0  0  0
   38.5590   32.9350   40.6140 C   0  0  1  0  0  0  0  0  0  0  0  0
   39.4010   32.0900   42.4520 H   0  0  0  0  0  0  0  0  0  0  0  0
   40.1520   31.9150   39.3500 H   0  0  0  0  0  0  0  0  0  0  0  0
   40.8140   33.1190   40.5830 H   0  0  0  0  0  0  0  0  0  0  0  0
   38.4470   33.9320   41.1300 H   0  0  0  0  0  0  0  0  0  0  0  0
   37.4060   32.6280   39.7290 C   0  0  0  0  0  0  0  0  0  0  0  0
   36.3780   31.9970   40.4110 F   0  0  0  0  0  0  0  0  0  0  0  0
   37.7770   31.8340   38.6430 F   0  0  0  0  0  0  0  0  0  0  0  0
   36.9010   33.8160   39.2550 F   0  0  0  0  0  0  0  0  0  0  0  0
  1  2  1  0  0  0  0
  2 18  1  0  0  0  0
  2  3  2  0  0  0  0
  3  8  1  0  0  0  0
  4  3  1  0  0  0  0
  5  4  2  0  0  0  0
  6  1  2  0  0  0  0
  6  5  1  0  0  0  0
  7  1  1  0  0  0  0
 10  9  1  0  0  0  0
 11  5  1  0  0  0  0
 11 10  2  0  0  0  0
 12 11  1  0  0  0  0
 13 12  1  0  0  0  0
 14 12  2  0  0  0  0
 14 16  1  0  0  0  0
 15 14  1  0  0  0  0
 16 17  2  0  0  0  0
 17 10  1  0  0  0  0
 18 21  1  1  0  0  0
 19 23  1  0  0  0  0
 19 20  1  0  0  0  0
 19 18  1  0  0  0  0
 20 24  1  1  0  0  0
 20 18  1  0  0  0  0
 22 19  1  0  0  0  0
 25 26  1  0  0  0  0
 25 20  1  0  0  0  0
 27 25  1  0  0  0  0
 28 25  1  0  0  0  0
M  END
>  <minimizedAffinity>
-5.24845409

$$$$

 OpenBabel03242520343D

 28 30  0  0  1  0  0  0  0  0999 V2000
   38.1840   29.8600   40.5450 C   0  0  0  0  0  0  0  0  0  0  0  0
   36.9740   30.6130   40.4060 C   0  0  0  0  0  0  0  0  0  0  0  0
   35.7710   29.9320   40.4310 C   0  0  0  0  0  0  0  0  0  0  0  0
   35.7990   28.5850   40.5880 N   0  0  0  0  0  0  0  0  0  0  0  0
   36.9370   27.9000   40.7170 C   0  0  0  0  0  0  0  0  0  0  0  0
   38.1130   28.5360   40.6950 N   0  0  0  0  0  0  0  0  0  0  0  0
   39.1260   30.3900   40.5260 H   0  0  0  0  0  0  0  0  0  0  0  0
   34.8480   30.4860   40.3270 H   0  0  0  0  0  0  0  0  0  0  0  0
   36.2830   26.1860   38.5880 F   0  0  0  0  0  0  0  0  0  0  0  0
   36.6110   25.6410   39.7860 C   0  0  0  0  0  0  0  0  0  0  0  0
   36.9450   26.4330   40.8850 C   0  0  0  0  0  0  0  0  0  0  0  0
   37.2770   25.8510   42.0960 C   0  0  0  0  0  0  0  0  0  0  0  0
   37.5330   26.5130   42.9330 H   0  0  0  0  0  0  0  0  0  0  0  0
   37.2760   24.4640   42.2210 C   0  0  0  0  0  0  0  0  0  0  0  0
   37.5350   24.0490   43.1670 H   0  0  0  0  0  0  0  0  0  0  0  0
   36.9390   23.6870   41.1130 C   0  0  0  0  0  3  0  0  0  0  0  0
   36.6060   24.2620   39.8960 C   0  0  0  0  0  3  0  0  0  0  0  0
   37.0000   32.0990   40.2180 C   0  0  1  0  0  0  0  0  0  0  0  0
   38.2500   32.7790   39.9560 C   0  0  0  0  0  0  0  0  0  0  0  0
   37.3030   32.6340   38.8220 C   0  0  1  0  0  0  0  0  0  0  0  0
   36.1160   32.5820   40.6640 H   0  0  0  0  0  0  0  0  0  0  0  0
   39.2180   32.2180   39.9800 H   0  0  0  0  0  0  0  0  0  0  0  0
   38.3640   33.7860   40.4550 H   0  0  0  0  0  0  0  0  0  0  0  0
   36.7390   33.5520   38.4900 H   0  0  0  0  0  0  0  0  0  0  0  0
   37.5690   31.7000   37.6980 C   0  0  0  0  0  0  0  0  0  0  0  0
   36.5990   30.7170   37.5960 F   0  0  0  0  0  0  0  0  0  0  0  0
   38.8180   31.0880   37.8100 F   0  0  0  0  0  0  0  0  0  0  0  0
   37.5350   32.4200   36.5260 F   0  0  0  0  0  0  0  0  0  0  0  0
  1  6  1  0  0  0  0
  2  3  1  0  0  0  0
  2  1  2  0  0  0  0
  3  4  2  0  0  0  0
  4  5  1  0  0  0  0
  5 11  1  0  0  0  0
  6  5  2  0  0  0  0
  7  1  1  0  0  0  0
  8  3  1  0  0  0  0
  9 10  1  0  0  0  0
 10 17  2  0  0  0  0
 10 11  1  0  0  0  0
 11 12  2  0  0  0  0
 12 14  1  0  0  0  0
 12 13  1  0  0  0  0
 14 15  1  0  0  0  0
 16 14  2  0  0  0  0
 17 16  1  0  0  0  0
 18  2  1  0  0  0  0
 18 21  1  1  0  0  0
 19 22  1  0  0  0  0
 19 18  1  0  0  0  0
 19 23  1  0  0  0  0
 20 24  1  6  0  0  0
 20 19  1  0  0  0  0
 20 18  1  0  0  0  0
 25 27  1  0  0  0  0
 25 20  1  0  0  0  0
 26 25  1  0  0  0  0
 28 25  1  0  0  0  0
M  END
>  <minimizedAffinity>
-5.23571205

$$$$

 OpenBabel03242520343D

 28 30  0  0  1  0  0  0  0  0999 V2000
   35.9650   29.5780   40.1330 C   0  0  0  0  0  0  0  0  0  0  0  0
   37.1080   30.4330   40.2400 C   0  0  0  0  0  0  0  0  0  0  0  0
   38.3340   29.8580   40.5180 C   0  0  0  0  0  0  0  0  0  0  0  0
   38.3910   28.5120   40.6730 N   0  0  0  0  0  0  0  0  0  0  0  0
   37.3150   27.7300   40.5690 C   0  0  0  0  0  0  0  0  0  0  0  0
   36.1180   28.2620   40.3020 N   0  0  0  0  0  0  0  0  0  0  0  0
   35.0040   30.0240   39.9160 H   0  0  0  0  0  0  0  0  0  0  0  0
   39.2070   30.4910   40.6020 H   0  0  0  0  0  0  0  0  0  0  0  0
   36.7050   26.5190   43.0310 F   0  0  0  0  0  0  0  0  0  0  0  0
   37.0810   25.7320   41.9930 C   0  0  0  0  0  0  0  0  0  0  0  0
   37.3990   26.2660   40.7440 C   0  0  0  0  0  0  0  0  0  0  0  0
   37.7790   25.4390   39.7010 C   0  0  0  0  0  0  0  0  0  0  0  0
   38.0190   25.9040   38.7370 H   0  0  0  0  0  0  0  0  0  0  0  0
   37.8470   24.0620   39.8990 C   0  0  0  0  0  0  0  0  0  0  0  0
   38.1440   23.4560   39.0760 H   0  0  0  0  0  0  0  0  0  0  0  0
   37.5270   23.5440   41.1530 C   0  0  0  0  0  3  0  0  0  0  0  0
   37.1450   24.3660   42.2030 C   0  0  0  0  0  3  0  0  0  0  0  0
   36.9860   31.9170   40.0760 C   0  0  1  0  0  0  0  0  0  0  0  0
   38.1620   32.7210   39.8210 C   0  0  0  0  0  0  0  0  0  0  0  0
   37.2300   32.5000   38.6880 C   0  0  1  0  0  0  0  0  0  0  0  0
   36.0610   32.3040   40.5310 H   0  0  0  0  0  0  0  0  0  0  0  0
   39.1800   32.2590   39.8350 H   0  0  0  0  0  0  0  0  0  0  0  0
   38.1780   33.7270   40.3360 H   0  0  0  0  0  0  0  0  0  0  0  0
   36.5760   33.3630   38.3720 H   0  0  0  0  0  0  0  0  0  0  0  0
   37.5830   31.6160   37.5480 C   0  0  0  0  0  0  0  0  0  0  0  0
   37.6030   32.3000   36.3440 F   0  0  0  0  0  0  0  0  0  0  0  0
   36.7070   30.5340   37.4340 F   0  0  0  0  0  0  0  0  0  0  0  0
   38.8530   31.1340   37.7570 F   0  0  0  0  0  0  0  0  0  0  0  0
  1  2  2  0  0  0  0
  1  6  1  0  0  0  0
  2  3  1  0  0  0  0
  3  8  1  0  0  0  0
  3  4  2  0  0  0  0
  5  4  1  0  0  0  0
  5 11  1  0  0  0  0
  6  5  2  0  0  0  0
  7  1  1  0  0  0  0
 10 17  1  0  0  0  0
 10  9  1  0  0  0  0
 11 10  2  0  0  0  0
 12 14  2  0  0  0  0
 12 11  1  0  0  0  0
 13 12  1  0  0  0  0
 14 16  1  0  0  0  0
 15 14  1  0  0  0  0
 16 17  2  0  0  0  0
 18  2  1  0  0  0  0
 18 21  1  1  0  0  0
 19 22  1  0  0  0  0
 19 18  1  0  0  0  0
 19 23  1  0  0  0  0
 20 24  1  6  0  0  0
 20 19  1  0  0  0  0
 20 18  1  0  0  0  0
 25 28  1  0  0  0  0
 25 20  1  0  0  0  0
 26 25  1  0  0  0  0
 27 25  1  0  0  0  0
M  END
>  <minimizedAffinity>
-5.14288139

$$$$

 OpenBabel03242520343D

 28 30  0  0  1  0  0  0  0  0999 V2000
   38.1540   29.7190   38.6710 C   0  0  0  0  0  0  0  0  0  0  0  0
   37.3560   30.7790   39.2080 C   0  0  0  0  0  0  0  0  0  0  0  0
   36.4220   30.4700   40.1780 C   0  0  0  0  0  0  0  0  0  0  0  0
   36.3090   29.1770   40.5730 N   0  0  0  0  0  0  0  0  0  0  0  0
   37.0620   28.2020   40.0620 C   0  0  0  0  0  0  0  0  0  0  0  0
   37.9730   28.4750   39.1210 N   0  0  0  0  0  0  0  0  0  0  0  0
   38.8860   29.9570   37.9110 H   0  0  0  0  0  0  0  0  0  0  0  0
   35.8110   31.2600   40.5940 H   0  0  0  0  0  0  0  0  0  0  0  0
   36.1830   26.1980   38.2990 F   0  0  0  0  0  0  0  0  0  0  0  0
   36.4830   25.8560   39.5760 C   0  0  0  0  0  0  0  0  0  0  0  0
   36.9230   26.8000   40.5040 C   0  0  0  0  0  0  0  0  0  0  0  0
   37.2230   26.4240   41.8020 C   0  0  0  0  0  0  0  0  0  0  0  0
   37.5660   27.2000   42.4970 H   0  0  0  0  0  0  0  0  0  0  0  0
   37.0810   25.0920   42.1870 C   0  0  0  0  0  0  0  0  0  0  0  0
   37.3190   24.8380   43.1930 H   0  0  0  0  0  0  0  0  0  0  0  0
   36.6390   24.1620   41.2470 C   0  0  0  0  0  3  0  0  0  0  0  0
   36.3370   24.5310   39.9450 C   0  0  0  0  0  3  0  0  0  0  0  0
   37.5090   32.1890   38.7240 C   0  0  1  0  0  0  0  0  0  0  0  0
   37.1460   33.2970   39.5810 C   0  0  0  0  0  0  0  0  0  0  0  0
   38.5930   33.0470   39.3670 C   0  0  1  0  0  0  0  0  0  0  0  0
   37.5370   32.2420   37.6240 H   0  0  0  0  0  0  0  0  0  0  0  0
   36.6640   33.1140   40.5730 H   0  0  0  0  0  0  0  0  0  0  0  0
   36.6520   34.1680   39.0570 H   0  0  0  0  0  0  0  0  0  0  0  0
   39.1540   33.7570   38.6930 H   0  0  0  0  0  0  0  0  0  0  0  0
   39.4560   32.4930   40.4420 C   0  0  0  0  0  0  0  0  0  0  0  0
   40.2350   31.4390   39.9940 F   0  0  0  0  0  0  0  0  0  0  0  0
   38.7110   32.0640   41.5420 F   0  0  0  0  0  0  0  0  0  0  0  0
   40.3180   33.4820   40.8530 F   0  0  0  0  0  0  0  0  0  0  0  0
  1  6  2  0  0  0  0
  1  2  1  0  0  0  0
  2  3  2  0  0  0  0
  3  4  1  0  0  0  0
  3  8  1  0  0  0  0
  5 11  1  0  0  0  0
  5  4  2  0  0  0  0
  6  5  1  0  0  0  0
  7  1  1  0  0  0  0
  9 10  1  0  0  0  0
 10 17  2  0  0  0  0
 10 11  1  0  0  0  0
 11 12  2  0  0  0  0
 12 14  1  0  0  0  0
 12 13  1  0  0  0  0
 14 15  1  0  0  0  0
 16 14  2  0  0  0  0
 17 16  1  0  0  0  0
 18 21  1  6  0  0  0
 18  2  1  0  0  0  0
 18 20  1  0  0  0  0
 18 19  1  0  0  0  0
 19 22  1  0  0  0  0
 20 24  1  6  0  0  0
 20 19  1  0  0  0  0
 20 25  1  0  0  0  0
 23 19  1  0  0  0  0
 25 28  1  0  0  0  0
 25 27  1  0  0  0  0
 26 25  1  0  0  0  0
M  END
>  <minimizedAffinity>
-5.0072999

$$$$
