
 OpenBabel03242517133D

 23 24  0  0  0  0  0  0  0  0999 V2000
   41.5210   35.7080   39.8350 C   0  0  0  0  0  0  0  0  0  0  0  0
   42.2860   35.6720   39.0200 H   0  0  0  0  0  0  0  0  0  0  0  0
   41.2510   36.7710   39.9290 H   0  0  0  0  0  0  0  0  0  0  0  0
   40.6730   35.4520   37.1980 F   0  0  0  0  0  0  0  0  0  0  0  0
   39.9480   34.8080   38.1510 C   0  0  0  0  0  0  0  0  0  0  0  0
   40.3450   34.9150   39.4880 C   0  0  0  0  0  0  0  0  0  0  0  0
   39.5210   34.2150   40.3320 C   0  0  0  0  0  0  0  0  0  0  0  0
   39.7770   34.2560   41.3910 H   0  0  0  0  0  0  0  0  0  0  0  0
   38.4150   33.4660   40.0220 C   0  0  0  0  0  0  0  0  0  0  0  0
   37.8320   32.9510   40.7710 H   0  0  0  0  0  0  0  0  0  0  0  0
   38.1140   33.4310   38.6570 C   0  0  0  0  0  0  0  0  0  0  0  0
   38.8550   34.0880   37.6900 C   0  0  0  0  0  0  0  0  0  0  0  0
   43.3820   35.4870   41.4300 C   0  0  0  0  0  0  0  0  0  0  0  0
   42.1600   35.1790   41.0760 C   0  0  0  0  0  0  0  0  0  0  0  0
   44.2660   35.8230   43.7660 C   0  0  0  0  0  0  0  0  0  0  0  0
   44.0760   35.0140   42.6230 C   0  0  0  0  0  0  0  0  0  0  0  0
   44.5800   33.7180   42.6510 C   0  0  0  0  0  0  0  0  0  0  0  0
   45.2260   33.3120   43.7830 N   0  0  0  0  0  0  0  0  0  0  0  0
   45.3890   34.1000   44.8520 C   0  0  0  0  0  0  0  0  0  0  0  0
   44.9060   35.3530   44.8340 N   0  0  0  0  0  0  0  0  0  0  0  0
   43.8840   36.8200   43.7580 H   0  0  0  0  0  0  0  0  0  0  0  0
   44.4250   33.1200   41.7730 H   0  0  0  0  0  0  0  0  0  0  0  0
   45.9300   33.5340   45.5980 H   0  0  0  0  0  0  0  0  0  0  0  0
  1  3  1  0  0  0  0
  1 14  1  0  0  0  0
  2  1  1  0  0  0  0
  4  5  1  0  0  0  0
  5  6  1  0  0  0  0
  6  1  1  0  0  0  0
  6  7  2  0  0  0  0
  7  8  1  0  0  0  0
  9  7  1  0  0  0  0
  9 10  1  0  0  0  0
 11  9  2  0  0  0  0
 12  5  2  0  0  0  0
 12 11  1  0  0  0  0
 13 16  1  0  0  0  0
 14 13  2  0  0  0  0
 15 20  1  0  0  0  0
 16 17  1  0  0  0  0
 16 15  2  0  0  0  0
 17 18  2  0  0  0  0
 18 19  1  0  0  0  0
 19 23  1  0  0  0  0
 20 19  2  0  0  0  0
 21 15  1  0  0  0  0
 22 17  1  0  0  0  0
M  END
>  <minimizedAffinity>
-5.49905014

>  <minimizedRMSD>
1.64618897

$$$$
