
 OpenBabel03252508073D

 44 47  0  0  0  0  0  0  0  0999 V2000
   45.4420   34.9210   43.5970 C   0  0  0  0  0  0  0  0  0  0  0  0
   45.8640   33.6160   43.8120 C   0  0  0  0  0  0  0  0  0  0  0  0
   45.6910   33.0390   45.0460 C   0  0  0  0  0  0  0  0  0  0  0  0
   45.0890   33.8090   46.0240 N   0  0  0  0  0  0  0  0  0  0  0  0
   44.6880   35.0590   45.8060 C   0  0  0  0  0  0  0  0  0  0  0  0
   44.8710   35.6040   44.5840 N   0  0  0  0  0  0  0  0  0  0  0  0
   45.5700   35.4000   42.6280 H   0  0  0  0  0  0  0  0  0  0  0  0
   44.2210   35.6030   46.6260 H   0  0  0  0  0  0  0  0  0  0  0  0
   46.0650   31.7290   45.4260 C   0  0  0  0  0  0  0  0  0  0  0  0
   45.6920   30.5760   44.7280 C   0  0  0  0  0  0  0  0  0  0  0  0
   45.9980   29.3000   45.1320 C   0  0  0  0  0  0  0  0  0  0  0  0
   46.7190   29.1020   46.2980 C   0  0  0  0  0  0  0  0  0  0  0  0
   47.1030   30.2640   47.0120 C   0  0  0  0  0  0  0  0  0  0  0  0
   47.8170   30.0820   48.1710 C   0  0  0  0  0  0  0  0  0  0  0  0
   48.2280   31.1680   48.9220 C   0  0  0  0  0  0  0  0  0  0  0  0
   47.9110   32.4590   48.4870 C   0  0  0  0  0  0  0  0  0  0  0  0
   47.1770   32.6000   47.2930 C   0  0  0  0  0  0  0  0  0  0  0  0
   46.7800   31.5060   46.5740 C   0  0  0  0  0  0  0  0  0  0  0  0
   45.1260   30.7360   43.8130 H   0  0  0  0  0  0  0  0  0  0  0  0
   45.6610   28.4740   44.5170 H   0  0  0  0  0  0  0  0  0  0  0  0
   46.9560   28.1150   46.6140 H   0  0  0  0  0  0  0  0  0  0  0  0
   48.0520   29.0670   48.4880 H   0  0  0  0  0  0  0  0  0  0  0  0
   48.7780   30.9390   49.8120 H   0  0  0  0  0  0  0  0  0  0  0  0
   48.2730   33.2460   49.1320 H   0  0  0  0  0  0  0  0  0  0  0  0
   47.0590   33.6480   47.1230 H   0  0  0  0  0  0  0  0  0  0  0  0
   46.4380   32.9670   42.7620 O   0  0  0  0  0  0  0  0  0  0  0  0
   48.5860   32.6930   41.2740 O   0  0  0  0  0  0  0  0  0  0  0  0
   47.5210   33.6700   41.6670 P   0  0  1  0  0  0  0  0  0  0  0  0
   46.7480   34.1660   40.2540 O   0  0  0  0  0  0  0  0  0  0  0  0
   48.8350   35.3730   38.7500 F   0  0  0  0  0  0  0  0  0  0  0  0
   48.2320   34.2830   38.2250 C   0  0  0  0  0  0  0  0  0  0  0  0
   47.2380   33.7740   39.0260 C   0  0  0  0  0  0  0  0  0  0  0  0
   46.5520   32.6430   38.5680 C   0  0  0  0  0  0  0  0  0  0  0  0
   45.7350   32.1180   39.0860 H   0  0  0  0  0  0  0  0  0  0  0  0
   46.8560   32.0500   37.3510 C   0  0  0  0  0  0  0  0  0  0  0  0
   46.3510   31.1790   36.9640 H   0  0  0  0  0  0  0  0  0  0  0  0
   47.8560   32.5720   36.5580 C   0  0  0  0  0  3  0  0  0  0  0  0
   48.5270   33.6860   37.0180 C   0  0  0  0  0  3  0  0  0  0  0  0
   48.2000   35.0220   42.3990 O   0  0  0  0  0  0  0  0  0  0  0  0
   49.4910   35.4980   42.2220 C   0  0  0  0  0  0  0  0  0  0  0  0
   49.3550   36.5100   41.5060 O   0  0  0  0  0  0  0  0  0  0  0  0
   50.4460   34.6680   42.9080 N   0  0  0  0  0  0  0  0  0  0  0  0
   51.1650   34.0220   42.4950 H   0  0  0  0  0  0  0  0  0  0  0  0
   50.4000   34.7330   43.9550 H   0  0  0  0  0  0  0  0  0  0  0  0
  1  2  2  0  0  0  0
  1  6  1  0  0  0  0
  2  3  1  0  0  0  0
  3  9  1  0  0  0  0
  3  4  2  0  0  0  0
  5  4  1  0  0  0  0
  5  8  1  0  0  0  0
  6  5  2  0  0  0  0
  7  1  1  0  0  0  0
  9 18  1  0  0  0  0
 10 11  1  0  0  0  0
 10  9  2  0  0  0  0
 11 12  2  0  0  0  0
 12 21  1  0  0  0  0
 12 13  1  0  0  0  0
 13 14  1  0  0  0  0
 14 22  1  0  0  0  0
 14 15  2  0  0  0  0
 15 23  1  0  0  0  0
 16 15  1  0  0  0  0
 16 24  1  0  0  0  0
 17 16  2  0  0  0  0
 18 13  2  0  0  0  0
 18 17  1  0  0  0  0
 19 10  1  0  0  0  0
 20 11  1  0  0  0  0
 25 17  1  0  0  0  0
 26  2  1  0  0  0  0
 28 27  2  6  0  0  0
 28 39  1  0  0  0  0
 28 26  1  0  0  0  0
 29 28  1  0  0  0  0
 31 30  1  0  0  0  0
 31 32  1  0  0  0  0
 32 29  1  0  0  0  0
 33 32  2  0  0  0  0
 33 34  1  0  0  0  0
 35 33  1  0  0  0  0
 36 35  1  0  0  0  0
 37 38  1  0  0  0  0
 37 35  2  0  0  0  0
 38 31  2  0  0  0  0
 40 39  1  0  0  0  0
 40 42  1  0  0  0  0
 41 40  2  0  0  0  0
 42 44  1  0  0  0  0
 43 42  1  0  0  0  0
M  END
>  <minimizedAffinity>
-6.4828949

>  <minimizedRMSD>
1.51102436

$$$$
