
 OpenBabel03242521583D

 33 35  0  0  0  0  0  0  0  0999 V2000
   46.4040   34.5060   41.7510 C   0  0  0  0  0  0  0  0  0  0  0  0
   47.6400   34.9840   41.3530 C   0  0  0  0  0  0  0  0  0  0  0  0
   48.2570   34.6700   40.1450 C   0  0  0  0  0  0  0  0  0  0  0  0
   47.5980   33.8250   39.2770 C   0  0  0  0  0  0  0  0  0  0  0  0
   46.3910   33.3690   39.6810 C   0  0  0  0  0  0  0  0  0  0  0  0
   45.8230   33.6850   40.8440 N   0  0  0  0  0  0  0  0  0  0  0  0
   48.0950   35.6510   42.1020 H   0  0  0  0  0  0  0  0  0  0  0  0
   49.2250   35.1600   40.0420 H   0  0  0  0  0  0  0  0  0  0  0  0
   48.2340   33.6930   38.4230 H   0  0  0  0  0  0  0  0  0  0  0  0
   44.5530   36.1160   44.5960 C   0  0  0  0  0  0  0  0  0  0  0  0
   45.0710   35.9720   43.3030 C   0  0  0  0  0  0  0  0  0  0  0  0
   45.7890   34.8390   43.0230 C   0  0  0  0  0  0  0  0  0  0  0  0
   45.9620   33.9100   44.0240 N   0  0  0  0  0  0  0  0  0  0  0  0
   45.4520   34.0760   45.2610 C   0  0  0  0  0  0  0  0  0  0  0  0
   44.7480   35.1790   45.5440 N   0  0  0  0  0  0  0  0  0  0  0  0
   43.9850   37.0390   44.7710 H   0  0  0  0  0  0  0  0  0  0  0  0
   44.9460   36.6880   42.5030 H   0  0  0  0  0  0  0  0  0  0  0  0
   45.6520   33.2800   45.9650 H   0  0  0  0  0  0  0  0  0  0  0  0
   45.7130   32.5220   38.8240 O   0  0  0  0  0  0  0  0  0  0  0  0
   44.3700   34.2830   37.3930 O   0  0  0  0  0  0  0  0  0  0  0  0
   44.2300   32.9530   38.0740 P   0  0  1  0  0  0  0  0  0  0  0  0
   43.8780   31.7710   36.9050 O   0  0  0  0  0  0  0  0  0  0  0  0
   43.0290   31.3190   37.0560 H   0  0  0  0  0  0  0  0  0  0  0  0
   43.0430   32.9950   39.2610 O   0  0  0  0  0  0  0  0  0  0  0  0
   42.9470   33.5900   41.9420 F   0  0  0  0  0  0  0  0  0  0  0  0
   42.1970   34.2640   41.0080 C   0  0  0  0  0  0  0  0  0  0  0  0
   42.2130   33.9970   39.6370 C   0  0  0  0  0  0  0  0  0  0  0  0
   41.3880   34.7880   38.8620 C   0  0  0  0  0  0  0  0  0  0  0  0
   41.4170   34.5620   37.8060 H   0  0  0  0  0  0  0  0  0  0  0  0
   40.5900   35.7820   39.3900 C   0  0  0  0  0  0  0  0  0  0  0  0
   39.9930   36.3260   38.6720 H   0  0  0  0  0  0  0  0  0  0  0  0
   40.5840   36.0360   40.7500 C   0  0  0  0  0  0  0  0  0  0  0  0
   41.4060   35.2520   41.5330 C   0  0  0  0  0  0  0  0  0  0  0  0
  1 12  1  0  0  0  0
  2  1  1  0  0  0  0
  2  7  1  0  0  0  0
  3  2  2  0  0  0  0
  4  5  2  0  0  0  0
  4  3  1  0  0  0  0
  5  6  1  0  0  0  0
  6  1  2  0  0  0  0
  8  3  1  0  0  0  0
  9  4  1  0  0  0  0
 10 16  1  0  0  0  0
 10 15  1  0  0  0  0
 11 10  2  0  0  0  0
 12 11  1  0  0  0  0
 12 13  2  0  0  0  0
 13 14  1  0  0  0  0
 14 15  2  0  0  0  0
 14 18  1  0  0  0  0
 17 11  1  0  0  0  0
 19  5  1  0  0  0  0
 21 20  2  6  0  0  0
 21 19  1  0  0  0  0
 21 24  1  0  0  0  0
 22 23  1  0  0  0  0
 22 21  1  0  0  0  0
 24 27  1  0  0  0  0
 26 33  1  0  0  0  0
 26 25  1  0  0  0  0
 27 26  2  0  0  0  0
 28 30  2  0  0  0  0
 28 27  1  0  0  0  0
 29 28  1  0  0  0  0
 30 32  1  0  0  0  0
 31 30  1  0  0  0  0
 32 33  2  0  0  0  0
M  END
>  <minimizedAffinity>
-5.8295536

>  <minimizedRMSD>
3.20473003

$$$$
