
 OpenBabel03252500393D

 21 22  0  0  0  0  0  0  0  0999 V2000
   44.9490   36.0230   42.7490 C   0  0  0  0  0  0  0  0  0  0  0  0
   44.4300   36.9570   43.0570 H   0  0  0  0  0  0  0  0  0  0  0  0
   45.9220   36.3370   42.3180 H   0  0  0  0  0  0  0  0  0  0  0  0
   45.1480   35.2180   43.9890 C   0  0  0  0  0  0  0  0  0  0  0  0
   46.0410   34.1530   43.9480 C   0  0  0  0  0  0  0  0  0  0  0  0
   46.2240   33.3960   45.1090 C   0  0  0  0  0  0  0  0  0  0  0  0
   45.5160   33.7520   46.2110 N   0  0  0  0  0  0  0  0  0  0  0  0
   44.6570   34.7950   46.2140 C   0  0  0  0  0  0  0  0  0  0  0  0
   44.4700   35.5320   45.1040 N   0  0  0  0  0  0  0  0  0  0  0  0
   46.6130   33.8440   43.1020 H   0  0  0  0  0  0  0  0  0  0  0  0
   46.9160   32.5440   45.1340 H   0  0  0  0  0  0  0  0  0  0  0  0
   44.1560   34.9730   47.1510 H   0  0  0  0  0  0  0  0  0  0  0  0
   45.8380   34.3770   40.5520 F   0  0  0  0  0  0  0  0  0  0  0  0
   44.5170   34.5430   40.7240 C   0  0  0  0  0  0  0  0  0  0  0  0
   44.0990   35.3240   41.7630 C   0  0  0  0  0  0  0  0  0  0  0  0
   42.7030   35.4340   41.8510 C   0  0  0  0  0  0  0  0  0  0  0  0
   42.3220   36.0550   42.6750 H   0  0  0  0  0  0  0  0  0  0  0  0
   41.8070   34.8490   41.0160 C   0  0  0  0  0  0  0  0  0  0  0  0
   40.7500   35.0170   41.1910 H   0  0  0  0  0  0  0  0  0  0  0  0
   42.2840   34.0730   39.9850 C   0  0  0  0  0  0  0  0  0  0  0  0
   43.6450   33.9300   39.8520 C   0  0  0  0  0  0  0  0  0  0  0  0
  1  2  1  0  0  0  0
  1  4  1  0  0  0  0
  3  1  1  0  0  0  0
  4  9  1  0  0  0  0
  5  4  2  0  0  0  0
  5  6  1  0  0  0  0
  6 11  1  0  0  0  0
  6  7  2  0  0  0  0
  7  8  1  0  0  0  0
  8 12  1  0  0  0  0
  9  8  2  0  0  0  0
 10  5  1  0  0  0  0
 13 14  1  0  0  0  0
 14 15  1  0  0  0  0
 15 16  2  0  0  0  0
 15  1  1  0  0  0  0
 16 17  1  0  0  0  0
 18 19  1  0  0  0  0
 18 16  1  0  0  0  0
 20 18  2  0  0  0  0
 21 20  1  0  0  0  0
 21 14  2  0  0  0  0
M  END
>  <minimizedAffinity>
-4.29701376

>  <minimizedRMSD>
1.13132143

$$$$
