
 OpenBabel03242518443D

 35 37  0  0  1  0  0  0  0  0999 V2000
   47.4060   33.0090   44.3930 C   0  0  2  0  0  0  0  0  0  0  0  0
   47.2410   33.2970   42.9570 C   0  0  1  0  0  0  0  0  0  0  0  0
   47.0300   31.9980   42.1370 C   0  0  0  0  0  0  0  0  0  0  0  0
   48.1570   31.2310   42.4610 O   0  0  0  0  0  0  0  0  0  0  0  0
   48.0900   30.7250   43.7430 C   0  0  0  0  0  0  0  0  0  0  0  0
   47.1980   31.5310   44.6670 C   0  0  1  0  0  0  0  0  0  0  0  0
   48.4220   33.2610   44.7590 H   0  0  0  0  0  0  0  0  0  0  0  0
   48.1450   33.8000   42.5470 H   0  0  0  0  0  0  0  0  0  0  0  0
   47.1090   32.2980   41.0820 H   0  0  0  0  0  0  0  0  0  0  0  0
   46.0780   31.5460   42.4030 H   0  0  0  0  0  0  0  0  0  0  0  0
   49.1090   30.7460   44.1670 H   0  0  0  0  0  0  0  0  0  0  0  0
   47.7690   29.6590   43.7670 H   0  0  0  0  0  0  0  0  0  0  0  0
   46.1030   31.2900   44.4160 H   0  0  0  0  0  0  0  0  0  0  0  0
   44.9730   36.1760   42.7780 C   0  0  0  0  0  0  0  0  0  0  0  0
   43.8920   35.7170   41.9810 C   0  0  0  0  0  0  0  0  0  0  0  0
   43.9910   34.3770   41.5230 C   0  0  0  0  0  0  0  0  0  0  0  0
   45.0690   33.6360   41.8580 N   0  0  0  0  0  0  0  0  0  0  0  0
   46.0590   34.1260   42.6160 C   0  0  0  0  0  0  0  0  0  0  0  0
   46.0050   35.4030   43.0750 N   0  0  0  0  0  0  0  0  0  0  0  0
   43.0410   36.3390   41.7300 H   0  0  0  0  0  0  0  0  0  0  0  0
   43.1830   34.0000   40.9140 H   0  0  0  0  0  0  0  0  0  0  0  0
   44.8890   37.4590   43.2220 O   0  0  0  0  0  0  0  0  0  0  0  0
   44.9540   37.7820   44.1730 H   0  0  0  0  0  0  0  0  0  0  0  0
   46.5470   33.7310   45.2330 O   0  0  0  0  0  0  0  0  0  0  0  0
   45.7720   33.1440   45.4410 H   0  0  0  0  0  0  0  0  0  0  0  0
   47.4450   31.2580   45.9750 O   0  0  0  0  0  0  0  0  0  0  0  0
   45.9140   29.0900   46.2790 F   0  0  0  0  0  0  0  0  0  0  0  0
   46.0030   30.1130   47.1800 C   0  0  0  0  0  0  0  0  0  0  0  0
   46.7650   31.2920   47.1290 C   0  0  0  0  0  0  0  0  0  0  0  0
   46.6170   32.1110   48.2120 C   0  0  0  0  0  0  0  0  0  0  0  0
   47.2120   33.0040   48.1460 H   0  0  0  0  0  0  0  0  0  0  0  0
   45.8170   31.8910   49.3060 C   0  0  0  0  0  0  0  0  0  0  0  0
   45.8230   32.6470   50.0680 H   0  0  0  0  0  0  0  0  0  0  0  0
   45.0920   30.7270   49.3090 C   0  0  0  0  0  0  0  0  0  0  0  0
   45.1610   29.8150   48.2610 C   0  0  0  0  0  0  0  0  0  0  0  0
  1  6  1  0  0  0  0
  1  7  1  1  0  0  0
  1 24  1  0  0  0  0
  2  8  1  6  0  0  0
  2  1  1  0  0  0  0
  3 10  1  0  0  0  0
  3  4  1  0  0  0  0
  3  2  1  0  0  0  0
  4  5  1  0  0  0  0
  5 12  1  0  0  0  0
  5 11  1  0  0  0  0
  5  6  1  0  0  0  0
  6 13  1  6  0  0  0
  6 26  1  0  0  0  0
  9  3  1  0  0  0  0
 14 19  1  0  0  0  0
 14 22  1  0  0  0  0
 15 14  2  0  0  0  0
 16 17  2  0  0  0  0
 16 15  1  0  0  0  0
 17 18  1  0  0  0  0
 18  2  1  0  0  0  0
 18 19  2  0  0  0  0
 20 15  1  0  0  0  0
 21 16  1  0  0  0  0
 22 23  1  0  0  0  0
 24 25  1  0  0  0  0
 26 29  1  0  0  0  0
 27 28  1  0  0  0  0
 28 35  1  0  0  0  0
 29 28  2  0  0  0  0
 29 30  1  0  0  0  0
 30 32  2  0  0  0  0
 31 30  1  0  0  0  0
 32 34  1  0  0  0  0
 32 33  1  0  0  0  0
 35 34  2  0  0  0  0
M  END
>  <minimizedAffinity>
-5.44689655

>  <minimizedRMSD>
4.00266266

$$$$
