
 OpenBabel03252509293D

 21 22  0  0  0  0  0  0  0  0999 V2000
   46.8700   34.9950   42.0110 C   0  0  0  0  0  0  0  0  0  0  0  0
   47.9610   34.8670   42.2670 H   0  0  0  0  0  0  0  0  0  0  0  0
   46.6690   35.9400   41.5000 H   0  0  0  0  0  0  0  0  0  0  0  0
   44.5080   35.9210   44.7330 C   0  0  0  0  0  0  0  0  0  0  0  0
   45.2190   35.9550   43.5170 C   0  0  0  0  0  0  0  0  0  0  0  0
   46.1500   34.9290   43.2830 C   0  0  0  0  0  0  0  0  0  0  0  0
   46.3140   33.9700   44.2290 N   0  0  0  0  0  0  0  0  0  0  0  0
   45.6140   33.9740   45.3810 C   0  0  0  0  0  0  0  0  0  0  0  0
   44.7190   34.9510   45.6180 N   0  0  0  0  0  0  0  0  0  0  0  0
   43.7970   36.7240   44.8870 H   0  0  0  0  0  0  0  0  0  0  0  0
   45.0490   36.7450   42.7940 H   0  0  0  0  0  0  0  0  0  0  0  0
   45.7670   33.1930   46.1210 H   0  0  0  0  0  0  0  0  0  0  0  0
   48.5590   32.8160   41.5380 F   0  0  0  0  0  0  0  0  0  0  0  0
   47.3860   32.7970   40.8270 C   0  0  0  0  0  0  0  0  0  0  0  0
   46.5570   33.8940   41.0780 C   0  0  0  0  0  0  0  0  0  0  0  0
   45.3680   33.9180   40.3870 C   0  0  0  0  0  0  0  0  0  0  0  0
   44.6350   34.7050   40.4850 H   0  0  0  0  0  0  0  0  0  0  0  0
   45.0120   32.9120   39.4930 C   0  0  0  0  0  0  0  0  0  0  0  0
   44.0780   32.9150   38.9400 H   0  0  0  0  0  0  0  0  0  0  0  0
   45.8350   31.8440   39.2580 C   0  0  0  0  0  3  0  0  0  0  0  0
   47.0350   31.8000   39.9430 C   0  0  0  0  0  3  0  0  0  0  0  0
  1  2  1  0  0  0  0
  1  6  1  0  0  0  0
  3  1  1  0  0  0  0
  4 10  1  0  0  0  0
  4  9  1  0  0  0  0
  5  4  2  0  0  0  0
  6  5  1  0  0  0  0
  6  7  2  0  0  0  0
  7  8  1  0  0  0  0
  8  9  2  0  0  0  0
  8 12  1  0  0  0  0
 11  5  1  0  0  0  0
 14 15  1  0  0  0  0
 14 13  1  0  0  0  0
 15  1  1  0  0  0  0
 16 17  1  0  0  0  0
 16 15  2  0  0  0  0
 18 16  1  0  0  0  0
 19 18  1  0  0  0  0
 20 18  2  0  0  0  0
 20 21  1  0  0  0  0
 21 14  2  0  0  0  0
M  END
>  <minimizedAffinity>
-3.85066724

>  <minimizedRMSD>
0.931840301

$$$$
