
 OpenBabel03242519553D

 40 42  0  0  1  0  0  0  0  0999 V2000
   37.8580   30.4560   40.0700 C   0  0  2  0  0  0  0  0  0  0  0  0
   37.6340   29.9770   38.6890 C   0  0  0  0  0  0  0  0  0  0  0  0
   36.1970   30.0280   38.2910 C   0  0  0  0  0  0  0  0  0  0  0  0
   35.2870   29.2860   39.2370 C   0  0  0  0  0  0  0  0  0  0  0  0
   35.6750   29.4070   40.6790 C   0  0  2  0  0  0  0  0  0  0  0  0
   36.6330   30.5570   40.9070 C   0  0  0  0  0  0  0  0  0  0  0  0
   38.5530   29.6930   40.5480 H   0  0  0  0  0  0  0  0  0  0  0  0
   38.2090   30.5960   37.9880 H   0  0  0  0  0  0  0  0  0  0  0  0
   37.9820   28.9370   38.5320 H   0  0  0  0  0  0  0  0  0  0  0  0
   36.0950   29.5970   37.2770 H   0  0  0  0  0  0  0  0  0  0  0  0
   35.8450   31.0910   38.2150 H   0  0  0  0  0  0  0  0  0  0  0  0
   35.2920   28.2210   38.8850 H   0  0  0  0  0  0  0  0  0  0  0  0
   34.2530   29.6350   39.0200 H   0  0  0  0  0  0  0  0  0  0  0  0
   34.7250   29.6860   41.2240 H   0  0  0  0  0  0  0  0  0  0  0  0
   36.0600   31.4640   40.9090 H   0  0  0  0  0  0  0  0  0  0  0  0
   36.9820   30.4190   41.9790 H   0  0  0  0  0  0  0  0  0  0  0  0
   38.6050   31.7230   40.1430 C   0  0  0  0  0  0  0  0  0  0  0  0
   37.7950   32.8560   40.1360 C   0  0  0  0  0  0  0  0  0  0  0  0
   38.3720   34.1250   40.2230 C   0  0  0  0  0  0  0  0  0  0  0  0
   39.7530   34.1610   40.3100 N   0  0  0  0  0  0  0  0  0  0  0  0
   40.5000   33.0400   40.3110 C   0  0  0  0  0  0  0  0  0  0  0  0
   39.9200   31.8400   40.2270 N   0  0  0  0  0  0  0  0  0  0  0  0
   36.7380   33.0680   40.0660 H   0  0  0  0  0  0  0  0  0  0  0  0
   37.9550   35.1040   40.2390 H   0  0  0  0  0  0  0  0  0  0  0  0
   41.5780   33.1000   40.3780 H   0  0  0  0  0  0  0  0  0  0  0  0
   36.1960   28.1040   41.1350 C   0  0  0  0  0  0  0  0  0  0  0  0
   35.4020   27.3440   40.9460 H   0  0  0  0  0  0  0  0  0  0  0  0
   37.0370   27.8100   40.4750 H   0  0  0  0  0  0  0  0  0  0  0  0
   36.6100   28.0050   42.5580 C   0  0  0  0  0  0  0  0  0  0  0  0
   35.8390   27.4450   43.1200 H   0  0  0  0  0  0  0  0  0  0  0  0
   36.6140   29.0210   43.0140 H   0  0  0  0  0  0  0  0  0  0  0  0
   38.7840   29.5760   43.2110 F   0  0  0  0  0  0  0  0  0  0  0  0
   39.0330   28.2290   43.1030 C   0  0  0  0  0  0  0  0  0  0  0  0
   37.9470   27.4520   42.7780 C   0  0  0  0  0  0  0  0  0  0  0  0
   38.1690   26.0930   42.6630 C   0  0  0  0  0  0  0  0  0  0  0  0
   37.3900   25.3860   42.4120 H   0  0  0  0  0  0  0  0  0  0  0  0
   39.4110   25.5780   42.8670 C   0  0  0  0  0  0  0  0  0  0  0  0
   39.6030   24.5090   42.7810 H   0  0  0  0  0  0  0  0  0  0  0  0
   40.4580   26.4150   43.1910 C   0  0  0  0  0  3  0  0  0  0  0  0
   40.3260   27.8010   43.3290 C   0  0  0  0  0  3  0  0  0  0  0  0
  1 17  1  0  0  0  0
  1  7  1  1  0  0  0
  1  6  1  0  0  0  0
  2  1  1  0  0  0  0
  3  2  1  0  0  0  0
  3  4  1  0  0  0  0
  4  5  1  0  0  0  0
  5  6  1  0  0  0  0
  5 26  1  0  0  0  0
  5 14  1  1  0  0  0
  6 15  1  0  0  0  0
  6 16  1  0  0  0  0
  8  2  1  0  0  0  0
  9  2  1  0  0  0  0
 10  3  1  0  0  0  0
 11  3  1  0  0  0  0
 12  4  1  0  0  0  0
 13  4  1  0  0  0  0
 17 22  1  0  0  0  0
 18 17  2  0  0  0  0
 18 19  1  0  0  0  0
 19 24  1  0  0  0  0
 19 20  2  0  0  0  0
 20 21  1  0  0  0  0
 21 25  1  0  0  0  0
 22 21  2  0  0  0  0
 23 18  1  0  0  0  0
 26 29  1  0  0  0  0
 27 26  1  0  0  0  0
 28 26  1  0  0  0  0
 29 34  1  0  0  0  0
 29 31  1  0  0  0  0
 29 30  1  0  0  0  0
 33 32  1  0  0  0  0
 33 40  1  0  0  0  0
 34 33  2  0  0  0  0
 35 34  1  0  0  0  0
 35 37  2  0  0  0  0
 36 35  1  0  0  0  0
 37 39  1  0  0  0  0
 38 37  1  0  0  0  0
 39 40  2  0  0  0  0
M  END
>  <minimizedAffinity>
-5.7340436

$$$$

 OpenBabel03242519553D

 40 42  0  0  1  0  0  0  0  0999 V2000
   39.3580   27.7050   42.2070 C   0  0  2  0  0  0  0  0  0  0  0  0
   38.6800   28.7990   42.9360 C   0  0  0  0  0  0  0  0  0  0  0  0
   37.4740   28.3320   43.6800 C   0  0  0  0  0  0  0  0  0  0  0  0
   36.4770   27.6090   42.8090 C   0  0  0  0  0  0  0  0  0  0  0  0
   37.0980   26.7410   41.7580 C   0  0  2  0  0  0  0  0  0  0  0  0
   38.5570   26.4610   42.0530 C   0  0  0  0  0  0  0  0  0  0  0  0
   39.5760   28.1180   41.1700 H   0  0  0  0  0  0  0  0  0  0  0  0
   39.3770   29.2480   43.6550 H   0  0  0  0  0  0  0  0  0  0  0  0
   38.3570   29.6240   42.2700 H   0  0  0  0  0  0  0  0  0  0  0  0
   36.9830   29.2070   44.1430 H   0  0  0  0  0  0  0  0  0  0  0  0
   37.7690   27.6550   44.5240 H   0  0  0  0  0  0  0  0  0  0  0  0
   35.8280   28.4120   42.3680 H   0  0  0  0  0  0  0  0  0  0  0  0
   35.7940   27.0620   43.4970 H   0  0  0  0  0  0  0  0  0  0  0  0
   36.5720   25.7450   41.8410 H   0  0  0  0  0  0  0  0  0  0  0  0
   38.5970   25.7020   42.8090 H   0  0  0  0  0  0  0  0  0  0  0  0
   38.9410   25.9660   41.1060 H   0  0  0  0  0  0  0  0  0  0  0  0
   40.6840   27.3660   42.7500 C   0  0  0  0  0  0  0  0  0  0  0  0
   40.9250   25.9980   42.8380 C   0  0  0  0  0  0  0  0  0  0  0  0
   42.1540   25.5360   43.3160 C   0  0  0  0  0  0  0  0  0  0  0  0
   43.0700   26.5080   43.6800 N   0  0  0  0  0  0  0  0  0  0  0  0
   42.7960   27.8220   43.5810 C   0  0  0  0  0  0  0  0  0  0  0  0
   41.6120   28.2340   43.1200 N   0  0  0  0  0  0  0  0  0  0  0  0
   40.3800   25.0880   42.6340 H   0  0  0  0  0  0  0  0  0  0  0  0
   42.5450   24.5570   43.4610 H   0  0  0  0  0  0  0  0  0  0  0  0
   43.5310   28.5590   43.8740 H   0  0  0  0  0  0  0  0  0  0  0  0
   36.8700   27.3650   40.4400 C   0  0  0  0  0  0  0  0  0  0  0  0
   37.8550   27.7420   40.0770 H   0  0  0  0  0  0  0  0  0  0  0  0
   36.5830   26.5730   39.7200 H   0  0  0  0  0  0  0  0  0  0  0  0
   35.8920   28.4810   40.3830 C   0  0  0  0  0  0  0  0  0  0  0  0
   35.4890   28.6610   41.3970 H   0  0  0  0  0  0  0  0  0  0  0  0
   35.0110   28.1690   39.7770 H   0  0  0  0  0  0  0  0  0  0  0  0
   36.1990   30.8290   41.8030 F   0  0  0  0  0  0  0  0  0  0  0  0
   36.5480   30.8860   40.4750 C   0  0  0  0  0  0  0  0  0  0  0  0
   36.3930   29.7140   39.7730 C   0  0  0  0  0  0  0  0  0  0  0  0
   36.7370   29.7420   38.4350 C   0  0  0  0  0  0  0  0  0  0  0  0
   36.6560   28.8810   37.7870 H   0  0  0  0  0  0  0  0  0  0  0  0
   37.2020   30.8870   37.8680 C   0  0  0  0  0  0  0  0  0  0  0  0
   37.4770   30.9260   36.8140 H   0  0  0  0  0  0  0  0  0  0  0  0
   37.3330   32.0280   38.6310 C   0  0  0  0  0  3  0  0  0  0  0  0
   37.0100   32.0920   39.9900 C   0  0  0  0  0  3  0  0  0  0  0  0
  1  7  1  6  0  0  0
  1 17  1  0  0  0  0
  1  2  1  0  0  0  0
  2  8  1  0  0  0  0
  2  3  1  0  0  0  0
  3 10  1  0  0  0  0
  3 11  1  0  0  0  0
  4 13  1  0  0  0  0
  4  3  1  0  0  0  0
  5 14  1  1  0  0  0
  5  6  1  0  0  0  0
  5  4  1  0  0  0  0
  6  1  1  0  0  0  0
  6 15  1  0  0  0  0
  9  2  1  0  0  0  0
 12  4  1  0  0  0  0
 16  6  1  0  0  0  0
 17 18  2  0  0  0  0
 17 22  1  0  0  0  0
 18 19  1  0  0  0  0
 19 24  1  0  0  0  0
 19 20  2  0  0  0  0
 21 20  1  0  0  0  0
 21 25  1  0  0  0  0
 22 21  2  0  0  0  0
 23 18  1  0  0  0  0
 26  5  1  0  0  0  0
 27 26  1  0  0  0  0
 28 26  1  0  0  0  0
 29 26  1  0  0  0  0
 29 30  1  0  0  0  0
 31 29  1  0  0  0  0
 33 32  1  0  0  0  0
 34 29  1  0  0  0  0
 34 33  2  0  0  0  0
 35 34  1  0  0  0  0
 36 35  1  0  0  0  0
 37 35  2  0  0  0  0
 37 39  1  0  0  0  0
 38 37  1  0  0  0  0
 39 40  2  0  0  0  0
 40 33  1  0  0  0  0
M  END
>  <minimizedAffinity>
-5.61773348

$$$$

 OpenBabel03242519553D

 40 42  0  0  1  0  0  0  0  0999 V2000
   38.0250   30.5600   38.9370 C   0  0  2  0  0  0  0  0  0  0  0  0
   38.4360   29.8530   37.7060 C   0  0  0  0  0  0  0  0  0  0  0  0
   37.3710   29.8560   36.6600 C   0  0  0  0  0  0  0  0  0  0  0  0
   36.0550   29.3040   37.1450 C   0  0  0  0  0  0  0  0  0  0  0  0
   35.7230   29.6670   38.5600 C   0  0  2  0  0  0  0  0  0  0  0  0
   36.5660   30.8250   39.0540 C   0  0  0  0  0  0  0  0  0  0  0  0
   38.3320   29.8800   39.7960 H   0  0  0  0  0  0  0  0  0  0  0  0
   39.3320   30.3320   37.2890 H   0  0  0  0  0  0  0  0  0  0  0  0
   38.7150   28.7960   37.8880 H   0  0  0  0  0  0  0  0  0  0  0  0
   37.7210   29.2570   35.7980 H   0  0  0  0  0  0  0  0  0  0  0  0
   37.2030   30.8950   36.2710 H   0  0  0  0  0  0  0  0  0  0  0  0
   36.1230   28.1940   36.9970 H   0  0  0  0  0  0  0  0  0  0  0  0
   35.2860   29.6260   36.4070 H   0  0  0  0  0  0  0  0  0  0  0  0
   34.6610   30.0520   38.5310 H   0  0  0  0  0  0  0  0  0  0  0  0
   36.1520   31.7260   38.6470 H   0  0  0  0  0  0  0  0  0  0  0  0
   36.3510   30.8680   40.1680 H   0  0  0  0  0  0  0  0  0  0  0  0
   38.7680   31.8090   39.1780 C   0  0  0  0  0  0  0  0  0  0  0  0
   38.0810   32.7310   39.9620 C   0  0  0  0  0  0  0  0  0  0  0  0
   38.6780   33.9510   40.2880 C   0  0  0  0  0  0  0  0  0  0  0  0
   39.9510   34.1580   39.7860 N   0  0  0  0  0  0  0  0  0  0  0  0
   40.5800   33.2400   39.0280 C   0  0  0  0  0  0  0  0  0  0  0  0
   39.9840   32.0820   38.7340 N   0  0  0  0  0  0  0  0  0  0  0  0
   37.1130   32.7950   40.4380 H   0  0  0  0  0  0  0  0  0  0  0  0
   38.3460   34.7830   40.8620 H   0  0  0  0  0  0  0  0  0  0  0  0
   41.5750   33.4300   38.6490 H   0  0  0  0  0  0  0  0  0  0  0  0
   35.8370   28.4550   39.3940 C   0  0  0  0  0  0  0  0  0  0  0  0
   35.1340   27.6970   38.9750 H   0  0  0  0  0  0  0  0  0  0  0  0
   36.8470   28.0210   39.2490 H   0  0  0  0  0  0  0  0  0  0  0  0
   35.5530   28.6060   40.8430 C   0  0  0  0  0  0  0  0  0  0  0  0
   34.6270   28.0540   41.0900 H   0  0  0  0  0  0  0  0  0  0  0  0
   35.3190   29.6720   41.0660 H   0  0  0  0  0  0  0  0  0  0  0  0
   37.0740   30.4750   42.1920 F   0  0  0  0  0  0  0  0  0  0  0  0
   37.4160   29.1610   42.4070 C   0  0  0  0  0  0  0  0  0  0  0  0
   36.6560   28.2350   41.7330 C   0  0  0  0  0  0  0  0  0  0  0  0
   36.9770   26.9060   41.9310 C   0  0  0  0  0  0  0  0  0  0  0  0
   36.4480   26.0930   41.4530 H   0  0  0  0  0  0  0  0  0  0  0  0
   38.0010   26.5610   42.7570 C   0  0  0  0  0  0  0  0  0  0  0  0
   38.2670   25.5180   42.9240 H   0  0  0  0  0  0  0  0  0  0  0  0
   38.7240   27.5420   43.4030 C   0  0  0  0  0  3  0  0  0  0  0  0
   38.4690   28.9100   43.2620 C   0  0  0  0  0  3  0  0  0  0  0  0
  1  6  1  0  0  0  0
  1 17  1  0  0  0  0
  1  7  1  1  0  0  0
  2  9  1  0  0  0  0
  2  1  1  0  0  0  0
  3  4  1  0  0  0  0
  3  2  1  0  0  0  0
  4  5  1  0  0  0  0
  5 14  1  1  0  0  0
  5  6  1  0  0  0  0
  5 26  1  0  0  0  0
  6 16  1  0  0  0  0
  8  2  1  0  0  0  0
 10  3  1  0  0  0  0
 11  3  1  0  0  0  0
 12  4  1  0  0  0  0
 13  4  1  0  0  0  0
 15  6  1  0  0  0  0
 17 18  1  0  0  0  0
 18 19  2  0  0  0  0
 18 23  1  0  0  0  0
 19 24  1  0  0  0  0
 20 19  1  0  0  0  0
 21 20  2  0  0  0  0
 22 21  1  0  0  0  0
 22 17  2  0  0  0  0
 25 21  1  0  0  0  0
 26 29  1  0  0  0  0
 27 26  1  0  0  0  0
 28 26  1  0  0  0  0
 29 31  1  0  0  0  0
 29 30  1  0  0  0  0
 29 34  1  0  0  0  0
 32 33  1  0  0  0  0
 33 40  1  0  0  0  0
 34 35  1  0  0  0  0
 34 33  2  0  0  0  0
 35 37  2  0  0  0  0
 36 35  1  0  0  0  0
 37 38  1  0  0  0  0
 37 39  1  0  0  0  0
 40 39  2  0  0  0  0
M  END
>  <minimizedAffinity>
-5.5893383

$$$$

 OpenBabel03242519553D

 40 42  0  0  1  0  0  0  0  0999 V2000
   38.3520   30.0240   39.0470 C   0  0  2  0  0  0  0  0  0  0  0  0
   37.1430   30.7800   38.6570 C   0  0  0  0  0  0  0  0  0  0  0  0
   36.6400   31.6610   39.7510 C   0  0  0  0  0  0  0  0  0  0  0  0
   36.3820   30.9250   41.0420 C   0  0  0  0  0  0  0  0  0  0  0  0
   37.3770   29.8460   41.3400 C   0  0  2  0  0  0  0  0  0  0  0  0
   38.6340   29.9970   40.5080 C   0  0  0  0  0  0  0  0  0  0  0  0
   38.1690   28.9560   38.7010 H   0  0  0  0  0  0  0  0  0  0  0  0
   37.3680   31.4070   37.7840 H   0  0  0  0  0  0  0  0  0  0  0  0
   36.3050   30.1230   38.3510 H   0  0  0  0  0  0  0  0  0  0  0  0
   35.7030   32.1420   39.4150 H   0  0  0  0  0  0  0  0  0  0  0  0
   37.3640   32.4940   39.9530 H   0  0  0  0  0  0  0  0  0  0  0  0
   35.3370   30.5250   40.9550 H   0  0  0  0  0  0  0  0  0  0  0  0
   36.3070   31.6980   41.8380 H   0  0  0  0  0  0  0  0  0  0  0  0
   37.6960   30.0170   42.4100 H   0  0  0  0  0  0  0  0  0  0  0  0
   39.2280   30.7710   40.9520 H   0  0  0  0  0  0  0  0  0  0  0  0
   39.2050   29.0330   40.6910 H   0  0  0  0  0  0  0  0  0  0  0  0
   39.5670   30.4370   38.3240 C   0  0  0  0  0  0  0  0  0  0  0  0
   40.3950   29.3790   37.9600 C   0  0  0  0  0  0  0  0  0  0  0  0
   41.5710   29.6260   37.2490 C   0  0  0  0  0  0  0  0  0  0  0  0
   41.8350   30.9520   36.9520 N   0  0  0  0  0  0  0  0  0  0  0  0
   41.0080   31.9480   37.3250 C   0  0  0  0  0  0  0  0  0  0  0  0
   39.8890   31.6800   38.0040 N   0  0  0  0  0  0  0  0  0  0  0  0
   40.4030   28.3060   38.0870 H   0  0  0  0  0  0  0  0  0  0  0  0
   42.3320   28.9840   36.8740 H   0  0  0  0  0  0  0  0  0  0  0  0
   41.2410   32.9750   37.0800 H   0  0  0  0  0  0  0  0  0  0  0  0
   36.7140   28.5380   41.1760 C   0  0  0  0  0  0  0  0  0  0  0  0
   35.7080   28.7290   40.7340 H   0  0  0  0  0  0  0  0  0  0  0  0
   37.2610   27.9580   40.4060 H   0  0  0  0  0  0  0  0  0  0  0  0
   36.5380   27.7150   42.4000 C   0  0  0  0  0  0  0  0  0  0  0  0
   35.5050   27.3200   42.4250 H   0  0  0  0  0  0  0  0  0  0  0  0
   36.6170   28.3670   43.2990 H   0  0  0  0  0  0  0  0  0  0  0  0
   38.9510   28.1210   43.6790 F   0  0  0  0  0  0  0  0  0  0  0  0
   38.7300   26.8460   43.2150 C   0  0  0  0  0  0  0  0  0  0  0  0
   37.5280   26.6500   42.5780 C   0  0  0  0  0  0  0  0  0  0  0  0
   37.2790   25.3780   42.1010 C   0  0  0  0  0  0  0  0  0  0  0  0
   36.3680   25.1080   41.5850 H   0  0  0  0  0  0  0  0  0  0  0  0
   38.1970   24.3890   42.2670 C   0  0  0  0  0  0  0  0  0  0  0  0
   38.0170   23.3800   41.8970 H   0  0  0  0  0  0  0  0  0  0  0  0
   39.3840   24.6540   42.9150 C   0  0  0  0  0  3  0  0  0  0  0  0
   39.7210   25.9100   43.4300 C   0  0  0  0  0  3  0  0  0  0  0  0
  1  7  1  6  0  0  0
  1  6  1  0  0  0  0
  2  1  1  0  0  0  0
  2  3  1  0  0  0  0
  3 11  1  0  0  0  0
  3  4  1  0  0  0  0
  4  5  1  0  0  0  0
  4 13  1  0  0  0  0
  5 14  1  1  0  0  0
  6 16  1  0  0  0  0
  6 15  1  0  0  0  0
  6  5  1  0  0  0  0
  8  2  1  0  0  0  0
  9  2  1  0  0  0  0
 10  3  1  0  0  0  0
 12  4  1  0  0  0  0
 17  1  1  0  0  0  0
 18 23  1  0  0  0  0
 18 17  2  0  0  0  0
 19 18  1  0  0  0  0
 20 19  2  0  0  0  0
 20 21  1  0  0  0  0
 21 22  2  0  0  0  0
 22 17  1  0  0  0  0
 24 19  1  0  0  0  0
 25 21  1  0  0  0  0
 26  5  1  0  0  0  0
 26 29  1  0  0  0  0
 27 26  1  0  0  0  0
 28 26  1  0  0  0  0
 29 30  1  0  0  0  0
 29 34  1  0  0  0  0
 29 31  1  0  0  0  0
 33 40  1  0  0  0  0
 33 32  1  0  0  0  0
 34 33  2  0  0  0  0
 35 37  2  0  0  0  0
 35 34  1  0  0  0  0
 36 35  1  0  0  0  0
 37 39  1  0  0  0  0
 38 37  1  0  0  0  0
 39 40  2  0  0  0  0
M  END
>  <minimizedAffinity>
-5.56118536

$$$$

 OpenBabel03242519553D

 40 42  0  0  1  0  0  0  0  0999 V2000
   38.3420   26.7240   41.2360 C   0  0  2  0  0  0  0  0  0  0  0  0
   39.2670   27.0090   42.3530 C   0  0  0  0  0  0  0  0  0  0  0  0
   38.5680   27.0980   43.6690 C   0  0  0  0  0  0  0  0  0  0  0  0
   37.4390   28.0970   43.6800 C   0  0  0  0  0  0  0  0  0  0  0  0
   36.6560   28.1490   42.4040 C   0  0  2  0  0  0  0  0  0  0  0  0
   36.9010   26.9260   41.5460 C   0  0  0  0  0  0  0  0  0  0  0  0
   38.6310   27.4470   40.4080 H   0  0  0  0  0  0  0  0  0  0  0  0
   40.0220   26.2140   42.4160 H   0  0  0  0  0  0  0  0  0  0  0  0
   39.8310   27.9530   42.2160 H   0  0  0  0  0  0  0  0  0  0  0  0
   39.3070   27.3770   44.4430 H   0  0  0  0  0  0  0  0  0  0  0  0
   38.1630   26.0960   43.9690 H   0  0  0  0  0  0  0  0  0  0  0  0
   37.9150   29.0840   43.9250 H   0  0  0  0  0  0  0  0  0  0  0  0
   36.8220   27.8670   44.5770 H   0  0  0  0  0  0  0  0  0  0  0  0
   35.5710   28.0930   42.7150 H   0  0  0  0  0  0  0  0  0  0  0  0
   36.3240   26.1190   41.9550 H   0  0  0  0  0  0  0  0  0  0  0  0
   36.4080   27.1790   40.5550 H   0  0  0  0  0  0  0  0  0  0  0  0
   38.5300   25.3920   40.6380 C   0  0  0  0  0  0  0  0  0  0  0  0
   37.6760   24.4180   41.1490 C   0  0  0  0  0  0  0  0  0  0  0  0
   37.7310   23.1130   40.6530 C   0  0  0  0  0  0  0  0  0  0  0  0
   38.6650   22.8780   39.6590 N   0  0  0  0  0  0  0  0  0  0  0  0
   39.4750   23.8490   39.1940 C   0  0  0  0  0  0  0  0  0  0  0  0
   39.3980   25.0880   39.6870 N   0  0  0  0  0  0  0  0  0  0  0  0
   36.9050   24.3640   41.9040 H   0  0  0  0  0  0  0  0  0  0  0  0
   37.1840   22.2310   40.8900 H   0  0  0  0  0  0  0  0  0  0  0  0
   40.1960   23.6350   38.4170 H   0  0  0  0  0  0  0  0  0  0  0  0
   36.9570   29.4210   41.7200 C   0  0  0  0  0  0  0  0  0  0  0  0
   37.1020   30.1960   42.5090 H   0  0  0  0  0  0  0  0  0  0  0  0
   37.9440   29.3300   41.2230 H   0  0  0  0  0  0  0  0  0  0  0  0
   35.9470   29.9210   40.7530 C   0  0  0  0  0  0  0  0  0  0  0  0
   35.3630   30.7310   41.2260 H   0  0  0  0  0  0  0  0  0  0  0  0
   35.2050   29.1170   40.5440 H   0  0  0  0  0  0  0  0  0  0  0  0
   37.0040   32.4310   40.2980 F   0  0  0  0  0  0  0  0  0  0  0  0
   37.0110   31.5780   39.2210 C   0  0  0  0  0  0  0  0  0  0  0  0
   36.4840   30.3300   39.4530 C   0  0  0  0  0  0  0  0  0  0  0  0
   36.4780   29.4510   38.3870 C   0  0  0  0  0  0  0  0  0  0  0  0
   36.0890   28.4450   38.4530 H   0  0  0  0  0  0  0  0  0  0  0  0
   36.9760   29.8300   37.1800 C   0  0  0  0  0  0  0  0  0  0  0  0
   36.9790   29.1490   36.3290 H   0  0  0  0  0  0  0  0  0  0  0  0
   37.4910   31.0980   37.0150 C   0  0  0  0  0  3  0  0  0  0  0  0
   37.5380   32.0530   38.0370 C   0  0  0  0  0  3  0  0  0  0  0  0
  1  7  1  6  0  0  0
  1  6  1  0  0  0  0
  1  2  1  0  0  0  0
  2  8  1  0  0  0  0
  2  3  1  0  0  0  0
  3  4  1  0  0  0  0
  3 11  1  0  0  0  0
  3 10  1  0  0  0  0
  4 12  1  0  0  0  0
  4 13  1  0  0  0  0
  5 14  1  1  0  0  0
  5  4  1  0  0  0  0
  6 15  1  0  0  0  0
  6  5  1  0  0  0  0
  9  2  1  0  0  0  0
 16  6  1  0  0  0  0
 17 18  1  0  0  0  0
 17  1  1  0  0  0  0
 18 23  1  0  0  0  0
 19 24  1  0  0  0  0
 19 18  2  0  0  0  0
 20 19  1  0  0  0  0
 21 20  2  0  0  0  0
 21 22  1  0  0  0  0
 22 17  2  0  0  0  0
 25 21  1  0  0  0  0
 26  5  1  0  0  0  0
 26 27  1  0  0  0  0
 28 26  1  0  0  0  0
 29 30  1  0  0  0  0
 29 26  1  0  0  0  0
 31 29  1  0  0  0  0
 33 34  1  0  0  0  0
 33 32  1  0  0  0  0
 34 29  1  0  0  0  0
 35 36  1  0  0  0  0
 35 34  2  0  0  0  0
 37 35  1  0  0  0  0
 38 37  1  0  0  0  0
 39 37  2  0  0  0  0
 39 40  1  0  0  0  0
 40 33  2  0  0  0  0
M  END
>  <minimizedAffinity>
-5.51120424

$$$$

 OpenBabel03242519553D

 40 42  0  0  1  0  0  0  0  0999 V2000
   38.8650   31.0560   39.2170 C   0  0  2  0  0  0  0  0  0  0  0  0
   38.5830   30.2410   38.0160 C   0  0  0  0  0  0  0  0  0  0  0  0
   37.1830   30.4080   37.5260 C   0  0  0  0  0  0  0  0  0  0  0  0
   36.1430   30.1310   38.5820 C   0  0  0  0  0  0  0  0  0  0  0  0
   36.5230   30.6000   39.9530 C   0  0  2  0  0  0  0  0  0  0  0  0
   37.6640   31.5950   39.9090 C   0  0  0  0  0  0  0  0  0  0  0  0
   39.4080   30.3620   39.9360 H   0  0  0  0  0  0  0  0  0  0  0  0
   39.2680   30.5280   37.2080 H   0  0  0  0  0  0  0  0  0  0  0  0
   38.7460   29.1580   38.1820 H   0  0  0  0  0  0  0  0  0  0  0  0
   37.0240   29.7240   36.6720 H   0  0  0  0  0  0  0  0  0  0  0  0
   37.0240   31.4460   37.1300 H   0  0  0  0  0  0  0  0  0  0  0  0
   35.9670   29.0240   38.5460 H   0  0  0  0  0  0  0  0  0  0  0  0
   35.1890   30.5660   38.2080 H   0  0  0  0  0  0  0  0  0  0  0  0
   35.6290   31.1760   40.3330 H   0  0  0  0  0  0  0  0  0  0  0  0
   37.2590   32.5430   39.6160 H   0  0  0  0  0  0  0  0  0  0  0  0
   37.9670   31.7170   40.9960 H   0  0  0  0  0  0  0  0  0  0  0  0
   39.8210   32.1510   38.9770 C   0  0  0  0  0  0  0  0  0  0  0  0
   40.5650   32.0050   37.8090 C   0  0  0  0  0  0  0  0  0  0  0  0
   41.4940   32.9830   37.4470 C   0  0  0  0  0  0  0  0  0  0  0  0
   41.6110   34.0600   38.3090 N   0  0  0  0  0  0  0  0  0  0  0  0
   40.8730   34.1610   39.4320 C   0  0  0  0  0  0  0  0  0  0  0  0
   39.9920   33.2100   39.7510 N   0  0  0  0  0  0  0  0  0  0  0  0
   40.6530   31.2750   37.0170 H   0  0  0  0  0  0  0  0  0  0  0  0
   42.1520   33.0760   36.6160 H   0  0  0  0  0  0  0  0  0  0  0  0
   40.9880   35.0140   40.0870 H   0  0  0  0  0  0  0  0  0  0  0  0
   36.8010   29.4180   40.7920 C   0  0  0  0  0  0  0  0  0  0  0  0
   35.8680   28.8080   40.8240 H   0  0  0  0  0  0  0  0  0  0  0  0
   37.5430   28.7810   40.2700 H   0  0  0  0  0  0  0  0  0  0  0  0
   37.2430   29.6720   42.1870 C   0  0  0  0  0  0  0  0  0  0  0  0
   36.3740   29.5820   42.8640 H   0  0  0  0  0  0  0  0  0  0  0  0
   37.5730   30.7310   42.2840 H   0  0  0  0  0  0  0  0  0  0  0  0
   36.9040   27.1950   43.3610 F   0  0  0  0  0  0  0  0  0  0  0  0
   38.2060   27.6170   43.2240 C   0  0  0  0  0  0  0  0  0  0  0  0
   38.3680   28.8500   42.6390 C   0  0  0  0  0  0  0  0  0  0  0  0
   39.6660   29.2990   42.4880 C   0  0  0  0  0  0  0  0  0  0  0  0
   39.9130   30.2530   42.0420 H   0  0  0  0  0  0  0  0  0  0  0  0
   40.7110   28.5370   42.9080 C   0  0  0  0  0  0  0  0  0  0  0  0
   41.7410   28.8760   42.7970 H   0  0  0  0  0  0  0  0  0  0  0  0
   40.4770   27.3080   43.4870 C   0  0  0  0  0  3  0  0  0  0  0  0
   39.1980   26.7740   43.6800 C   0  0  0  0  0  3  0  0  0  0  0  0
  1  6  1  0  0  0  0
  1  7  1  1  0  0  0
  2  9  1  0  0  0  0
  2  1  1  0  0  0  0
  3  2  1  0  0  0  0
  3  4  1  0  0  0  0
  4  5  1  0  0  0  0
  5 14  1  1  0  0  0
  5 26  1  0  0  0  0
  6  5  1  0  0  0  0
  6 16  1  0  0  0  0
  8  2  1  0  0  0  0
 10  3  1  0  0  0  0
 11  3  1  0  0  0  0
 12  4  1  0  0  0  0
 13  4  1  0  0  0  0
 15  6  1  0  0  0  0
 17  1  1  0  0  0  0
 17 22  1  0  0  0  0
 18 17  2  0  0  0  0
 19 18  1  0  0  0  0
 19 20  2  0  0  0  0
 20 21  1  0  0  0  0
 21 22  2  0  0  0  0
 21 25  1  0  0  0  0
 23 18  1  0  0  0  0
 24 19  1  0  0  0  0
 26 27  1  0  0  0  0
 26 29  1  0  0  0  0
 28 26  1  0  0  0  0
 29 31  1  0  0  0  0
 29 34  1  0  0  0  0
 29 30  1  0  0  0  0
 33 32  1  0  0  0  0
 33 40  1  0  0  0  0
 34 33  2  0  0  0  0
 35 34  1  0  0  0  0
 35 37  2  0  0  0  0
 36 35  1  0  0  0  0
 37 39  1  0  0  0  0
 38 37  1  0  0  0  0
 39 40  2  0  0  0  0
M  END
>  <minimizedAffinity>
-5.45484877

$$$$

 OpenBabel03242519553D

 40 42  0  0  1  0  0  0  0  0999 V2000
   37.8120   27.2920   41.0590 C   0  0  2  0  0  0  0  0  0  0  0  0
   39.2390   27.4180   41.4250 C   0  0  0  0  0  0  0  0  0  0  0  0
   39.4320   27.8330   42.8450 C   0  0  0  0  0  0  0  0  0  0  0  0
   38.7040   29.1050   43.2010 C   0  0  0  0  0  0  0  0  0  0  0  0
   37.3620   29.2440   42.5500 C   0  0  2  0  0  0  0  0  0  0  0  0
   36.8600   27.9200   42.0130 C   0  0  0  0  0  0  0  0  0  0  0  0
   37.7070   27.8160   40.0550 H   0  0  0  0  0  0  0  0  0  0  0  0
   39.7430   26.4540   41.2750 H   0  0  0  0  0  0  0  0  0  0  0  0
   39.7840   28.1460   40.7920 H   0  0  0  0  0  0  0  0  0  0  0  0
   40.5140   27.9710   43.0290 H   0  0  0  0  0  0  0  0  0  0  0  0
   39.0970   27.0210   43.5430 H   0  0  0  0  0  0  0  0  0  0  0  0
   39.4010   29.9380   42.9180 H   0  0  0  0  0  0  0  0  0  0  0  0
   38.6710   29.1500   44.3120 H   0  0  0  0  0  0  0  0  0  0  0  0
   36.6520   29.5260   43.3820 H   0  0  0  0  0  0  0  0  0  0  0  0
   36.4820   27.3540   42.8420 H   0  0  0  0  0  0  0  0  0  0  0  0
   35.9480   28.1990   41.3960 H   0  0  0  0  0  0  0  0  0  0  0  0
   37.3910   25.9060   40.7900 C   0  0  0  0  0  0  0  0  0  0  0  0
   36.5520   25.7760   39.6870 C   0  0  0  0  0  0  0  0  0  0  0  0
   36.0940   24.5120   39.3050 C   0  0  0  0  0  0  0  0  0  0  0  0
   36.5230   23.4490   40.0820 N   0  0  0  0  0  0  0  0  0  0  0  0
   37.3340   23.6200   41.1440 C   0  0  0  0  0  0  0  0  0  0  0  0
   37.7560   24.8400   41.4840 N   0  0  0  0  0  0  0  0  0  0  0  0
   36.0910   26.4340   38.9660 H   0  0  0  0  0  0  0  0  0  0  0  0
   35.4630   24.1860   38.5130 H   0  0  0  0  0  0  0  0  0  0  0  0
   37.6510   22.7700   41.7330 H   0  0  0  0  0  0  0  0  0  0  0  0
   37.4450   30.3040   41.5260 C   0  0  0  0  0  0  0  0  0  0  0  0
   37.8980   31.1990   42.0130 H   0  0  0  0  0  0  0  0  0  0  0  0
   38.1790   29.9940   40.7560 H   0  0  0  0  0  0  0  0  0  0  0  0
   36.1740   30.7150   40.8790 C   0  0  0  0  0  0  0  0  0  0  0  0
   36.1280   31.8190   40.8420 H   0  0  0  0  0  0  0  0  0  0  0  0
   35.3160   30.4140   41.5220 H   0  0  0  0  0  0  0  0  0  0  0  0
   34.0800   28.9800   40.3970 F   0  0  0  0  0  0  0  0  0  0  0  0
   34.8860   29.2560   39.3180 C   0  0  0  0  0  0  0  0  0  0  0  0
   35.9270   30.1190   39.5640 C   0  0  0  0  0  0  0  0  0  0  0  0
   36.7530   30.4140   38.4970 C   0  0  0  0  0  0  0  0  0  0  0  0
   37.6020   31.0800   38.5730 H   0  0  0  0  0  0  0  0  0  0  0  0
   36.5240   29.8610   37.2760 C   0  0  0  0  0  0  0  0  0  0  0  0
   37.1660   30.0830   36.4240 H   0  0  0  0  0  0  0  0  0  0  0  0
   35.4610   29.0010   37.0980 C   0  0  0  0  0  3  0  0  0  0  0  0
   34.5740   28.6470   38.1200 C   0  0  0  0  0  3  0  0  0  0  0  0
  1  7  1  6  0  0  0
  1  2  1  0  0  0  0
  1  6  1  0  0  0  0
  2  3  1  0  0  0  0
  3 10  1  0  0  0  0
  3  4  1  0  0  0  0
  3 11  1  0  0  0  0
  4 13  1  0  0  0  0
  5  4  1  0  0  0  0
  5 14  1  1  0  0  0
  6  5  1  0  0  0  0
  6 15  1  0  0  0  0
  8  2  1  0  0  0  0
  9  2  1  0  0  0  0
 12  4  1  0  0  0  0
 16  6  1  0  0  0  0
 17  1  1  0  0  0  0
 17 22  1  0  0  0  0
 18 17  2  0  0  0  0
 19 18  1  0  0  0  0
 19 20  2  0  0  0  0
 20 21  1  0  0  0  0
 21 22  2  0  0  0  0
 21 25  1  0  0  0  0
 23 18  1  0  0  0  0
 24 19  1  0  0  0  0
 26 27  1  0  0  0  0
 26  5  1  0  0  0  0
 28 26  1  0  0  0  0
 29 31  1  0  0  0  0
 29 26  1  0  0  0  0
 30 29  1  0  0  0  0
 33 34  1  0  0  0  0
 33 32  1  0  0  0  0
 34 29  1  0  0  0  0
 35 36  1  0  0  0  0
 35 34  2  0  0  0  0
 37 35  1  0  0  0  0
 38 37  1  0  0  0  0
 39 37  2  0  0  0  0
 39 40  1  0  0  0  0
 40 33  2  0  0  0  0
M  END
>  <minimizedAffinity>
-5.41915894

$$$$

 OpenBabel03242519553D

 40 42  0  0  1  0  0  0  0  0999 V2000
   36.2030   30.5960   39.9680 C   0  0  2  0  0  0  0  0  0  0  0  0
   36.1850   29.6130   41.0720 C   0  0  0  0  0  0  0  0  0  0  0  0
   36.7260   28.2830   40.6650 C   0  0  0  0  0  0  0  0  0  0  0  0
   36.0350   27.7000   39.4580 C   0  0  0  0  0  0  0  0  0  0  0  0
   35.6620   28.7130   38.4200 C   0  0  2  0  0  0  0  0  0  0  0  0
   36.4070   30.0160   38.6130 C   0  0  0  0  0  0  0  0  0  0  0  0
   35.1830   31.0970   39.9890 H   0  0  0  0  0  0  0  0  0  0  0  0
   36.7890   29.9900   41.9090 H   0  0  0  0  0  0  0  0  0  0  0  0
   35.1700   29.4440   41.4820 H   0  0  0  0  0  0  0  0  0  0  0  0
   36.6220   27.5840   41.5160 H   0  0  0  0  0  0  0  0  0  0  0  0
   37.8250   28.3520   40.4500 H   0  0  0  0  0  0  0  0  0  0  0  0
   35.1410   27.1550   39.8600 H   0  0  0  0  0  0  0  0  0  0  0  0
   36.6950   26.8890   39.0770 H   0  0  0  0  0  0  0  0  0  0  0  0
   36.0330   28.2900   37.4400 H   0  0  0  0  0  0  0  0  0  0  0  0
   37.4010   29.8830   38.2330 H   0  0  0  0  0  0  0  0  0  0  0  0
   35.9010   30.7340   37.8940 H   0  0  0  0  0  0  0  0  0  0  0  0
   37.1550   31.7000   40.1740 C   0  0  0  0  0  0  0  0  0  0  0  0
   38.2340   31.3700   40.9900 C   0  0  0  0  0  0  0  0  0  0  0  0
   39.2270   32.3180   41.2510 C   0  0  0  0  0  0  0  0  0  0  0  0
   39.0540   33.5580   40.6600 N   0  0  0  0  0  0  0  0  0  0  0  0
   37.9930   33.8370   39.8790 C   0  0  0  0  0  0  0  0  0  0  0  0
   37.0610   32.9100   39.6470 N   0  0  0  0  0  0  0  0  0  0  0  0
   38.5630   30.5060   41.5500 H   0  0  0  0  0  0  0  0  0  0  0  0
   40.1190   32.2820   41.8290 H   0  0  0  0  0  0  0  0  0  0  0  0
   37.8850   34.8160   39.4320 H   0  0  0  0  0  0  0  0  0  0  0  0
   34.1940   28.8660   38.4210 C   0  0  0  0  0  0  0  0  0  0  0  0
   33.8070   28.3510   39.3320 H   0  0  0  0  0  0  0  0  0  0  0  0
   33.9510   29.9370   38.5710 H   0  0  0  0  0  0  0  0  0  0  0  0
   33.4610   28.3400   37.2410 C   0  0  0  0  0  0  0  0  0  0  0  0
   32.9310   27.4130   37.5280 H   0  0  0  0  0  0  0  0  0  0  0  0
   34.1920   28.0230   36.4630 H   0  0  0  0  0  0  0  0  0  0  0  0
   33.7150   29.0620   34.5880 F   0  0  0  0  0  0  0  0  0  0  0  0
   32.6840   29.6600   35.2720 C   0  0  0  0  0  0  0  0  0  0  0  0
   32.5630   29.2970   36.5920 C   0  0  0  0  0  0  0  0  0  0  0  0
   31.5340   29.8830   37.3040 C   0  0  0  0  0  0  0  0  0  0  0  0
   31.3430   29.6730   38.3480 H   0  0  0  0  0  0  0  0  0  0  0  0
   30.6990   30.7720   36.7030 C   0  0  0  0  0  0  0  0  0  0  0  0
   29.8830   31.2430   37.2500 H   0  0  0  0  0  0  0  0  0  0  0  0
   30.8770   31.0920   35.3740 C   0  0  0  0  0  3  0  0  0  0  0  0
   31.8900   30.5490   34.5760 C   0  0  0  0  0  3  0  0  0  0  0  0
  1  7  1  6  0  0  0
  1 17  1  0  0  0  0
  1  2  1  0  0  0  0
  2  9  1  0  0  0  0
  2  8  1  0  0  0  0
  3  2  1  0  0  0  0
  3 10  1  0  0  0  0
  4 12  1  0  0  0  0
  4  3  1  0  0  0  0
  5 14  1  6  0  0  0
  5 26  1  0  0  0  0
  5  6  1  0  0  0  0
  5  4  1  0  0  0  0
  6  1  1  0  0  0  0
 11  3  1  0  0  0  0
 13  4  1  0  0  0  0
 15  6  1  0  0  0  0
 16  6  1  0  0  0  0
 17 18  1  0  0  0  0
 18 19  2  0  0  0  0
 18 23  1  0  0  0  0
 19 24  1  0  0  0  0
 20 19  1  0  0  0  0
 21 20  2  0  0  0  0
 22 21  1  0  0  0  0
 22 17  2  0  0  0  0
 25 21  1  0  0  0  0
 26 28  1  0  0  0  0
 26 27  1  0  0  0  0
 29 30  1  0  0  0  0
 29 26  1  0  0  0  0
 31 29  1  0  0  0  0
 32 33  1  0  0  0  0
 33 34  1  0  0  0  0
 34 29  1  0  0  0  0
 34 35  2  0  0  0  0
 35 36  1  0  0  0  0
 37 38  1  0  0  0  0
 37 35  1  0  0  0  0
 39 37  2  0  0  0  0
 40 33  2  0  0  0  0
 40 39  1  0  0  0  0
M  END
>  <minimizedAffinity>
-5.3907342

$$$$

 OpenBabel03242519553D

 40 42  0  0  1  0  0  0  0  0999 V2000
   39.2230   31.2580   40.8620 C   0  0  2  0  0  0  0  0  0  0  0  0
   39.3360   30.1430   39.8980 C   0  0  0  0  0  0  0  0  0  0  0  0
   38.6020   30.4080   38.6260 C   0  0  0  0  0  0  0  0  0  0  0  0
   37.1480   30.7510   38.8350 C   0  0  0  0  0  0  0  0  0  0  0  0
   36.8860   31.5920   40.0470 C   0  0  2  0  0  0  0  0  0  0  0  0
   38.1520   32.2460   40.5600 C   0  0  0  0  0  0  0  0  0  0  0  0
   38.9860   30.7730   41.8640 H   0  0  0  0  0  0  0  0  0  0  0  0
   40.3930   29.9720   39.6570 H   0  0  0  0  0  0  0  0  0  0  0  0
   38.9580   29.1840   40.3030 H   0  0  0  0  0  0  0  0  0  0  0  0
   38.6740   29.5120   37.9830 H   0  0  0  0  0  0  0  0  0  0  0  0
   39.0880   31.2430   38.0560 H   0  0  0  0  0  0  0  0  0  0  0  0
   36.6110   29.7670   38.8780 H   0  0  0  0  0  0  0  0  0  0  0  0
   36.7910   31.2090   37.8860 H   0  0  0  0  0  0  0  0  0  0  0  0
   36.2280   32.4380   39.6900 H   0  0  0  0  0  0  0  0  0  0  0  0
   38.3630   33.0870   39.9300 H   0  0  0  0  0  0  0  0  0  0  0  0
   37.8500   32.6860   41.5620 H   0  0  0  0  0  0  0  0  0  0  0  0
   40.4910   31.9700   41.0940 C   0  0  0  0  0  0  0  0  0  0  0  0
   40.5810   33.1920   40.4340 C   0  0  0  0  0  0  0  0  0  0  0  0
   41.7220   33.9840   40.5840 C   0  0  0  0  0  0  0  0  0  0  0  0
   42.7130   33.4740   41.4050 N   0  0  0  0  0  0  0  0  0  0  0  0
   42.5870   32.2840   42.0250 C   0  0  0  0  0  0  0  0  0  0  0  0
   41.4830   31.5500   41.8630 N   0  0  0  0  0  0  0  0  0  0  0  0
   39.9670   33.7690   39.7570 H   0  0  0  0  0  0  0  0  0  0  0  0
   41.9960   34.9310   40.1850 H   0  0  0  0  0  0  0  0  0  0  0  0
   43.3790   31.9110   42.6600 H   0  0  0  0  0  0  0  0  0  0  0  0
   36.1990   30.7610   41.0550 C   0  0  0  0  0  0  0  0  0  0  0  0
   36.9400   30.5320   41.8560 H   0  0  0  0  0  0  0  0  0  0  0  0
   35.4220   31.3770   41.5500 H   0  0  0  0  0  0  0  0  0  0  0  0
   35.6090   29.4830   40.5840 C   0  0  0  0  0  0  0  0  0  0  0  0
   35.5730   29.4860   39.4790 H   0  0  0  0  0  0  0  0  0  0  0  0
   34.5430   29.4270   40.9040 H   0  0  0  0  0  0  0  0  0  0  0  0
   36.2460   27.3290   38.9780 F   0  0  0  0  0  0  0  0  0  0  0  0
   36.5740   27.1990   40.3060 C   0  0  0  0  0  0  0  0  0  0  0  0
   36.2550   28.2740   41.1010 C   0  0  0  0  0  0  0  0  0  0  0  0
   36.5740   28.1710   42.4410 C   0  0  0  0  0  0  0  0  0  0  0  0
   36.3700   28.9540   43.1590 H   0  0  0  0  0  0  0  0  0  0  0  0
   37.1740   27.0500   42.9220 C   0  0  0  0  0  0  0  0  0  0  0  0
   37.4330   26.9530   43.9760 H   0  0  0  0  0  0  0  0  0  0  0  0
   37.4670   26.0070   42.0690 C   0  0  0  0  0  3  0  0  0  0  0  0
   37.1810   26.0240   40.7000 C   0  0  0  0  0  3  0  0  0  0  0  0
  1 17  1  0  0  0  0
  1  7  1  1  0  0  0
  2  9  1  0  0  0  0
  2  1  1  0  0  0  0
  3  4  1  0  0  0  0
  3  2  1  0  0  0  0
  4 12  1  0  0  0  0
  4  5  1  0  0  0  0
  5 14  1  6  0  0  0
  5  6  1  0  0  0  0
  5 26  1  0  0  0  0
  6  1  1  0  0  0  0
  6 16  1  0  0  0  0
  8  2  1  0  0  0  0
 10  3  1  0  0  0  0
 11  3  1  0  0  0  0
 13  4  1  0  0  0  0
 15  6  1  0  0  0  0
 17 22  1  0  0  0  0
 18 19  1  0  0  0  0
 18 17  2  0  0  0  0
 19 20  2  0  0  0  0
 20 21  1  0  0  0  0
 21 25  1  0  0  0  0
 22 21  2  0  0  0  0
 23 18  1  0  0  0  0
 24 19  1  0  0  0  0
 26 28  1  0  0  0  0
 26 27  1  0  0  0  0
 29 31  1  0  0  0  0
 29 26  1  0  0  0  0
 29 34  1  0  0  0  0
 30 29  1  0  0  0  0
 32 33  1  0  0  0  0
 33 40  2  0  0  0  0
 33 34  1  0  0  0  0
 34 35  2  0  0  0  0
 35 37  1  0  0  0  0
 35 36  1  0  0  0  0
 37 38  1  0  0  0  0
 39 37  2  0  0  0  0
 40 39  1  0  0  0  0
M  END
>  <minimizedAffinity>
-5.35161018

$$$$
