
 OpenBabel03242514563D

 25 26  0  0  0  0  0  0  0  0999 V2000
   42.3540   34.6890   41.1360 C   0  0  0  0  0  0  0  0  0  0  0  0
   42.0230   34.0500   42.0070 H   0  0  0  0  0  0  0  0  0  0  0  0
   42.5660   33.9650   40.3280 H   0  0  0  0  0  0  0  0  0  0  0  0
   41.1870   35.5510   40.7670 C   0  0  0  0  0  0  0  0  0  0  0  0
   40.6680   35.8490   41.7020 H   0  0  0  0  0  0  0  0  0  0  0  0
   41.5520   36.5000   40.3000 H   0  0  0  0  0  0  0  0  0  0  0  0
   41.4940   35.8300   38.0560 F   0  0  0  0  0  0  0  0  0  0  0  0
   40.4550   35.1040   38.5350 C   0  0  0  0  0  0  0  0  0  0  0  0
   40.1960   34.8920   39.8850 C   0  0  0  0  0  0  0  0  0  0  0  0
   39.1340   34.1500   40.3350 C   0  0  0  0  0  0  0  0  0  0  0  0
   38.9900   34.0250   41.3880 H   0  0  0  0  0  0  0  0  0  0  0  0
   38.2930   33.5950   39.3700 C   0  0  0  0  0  0  0  0  0  0  0  0
   37.4380   33.0010   39.6880 H   0  0  0  0  0  0  0  0  0  0  0  0
   38.5360   33.7970   38.0340 C   0  0  0  0  0  0  0  0  0  0  0  0
   39.6080   34.5450   37.5850 C   0  0  0  0  0  0  0  0  0  0  0  0
   43.8280   35.5290   41.6470 S   0  0  0  0  0  0  0  0  0  0  0  0
   44.4110   35.0420   43.2720 C   0  0  0  0  0  0  0  0  0  0  0  0
   45.1020   33.8260   43.3280 C   0  0  0  0  0  0  0  0  0  0  0  0
   45.5870   33.3780   44.5590 C   0  0  0  0  0  0  0  0  0  0  0  0
   45.3550   34.1630   45.6580 N   0  0  0  0  0  0  0  0  0  0  0  0
   44.6870   35.3270   45.5730 C   0  0  0  0  0  0  0  0  0  0  0  0
   44.2200   35.7650   44.4030 N   0  0  0  0  0  0  0  0  0  0  0  0
   45.2880   33.2030   42.4650 H   0  0  0  0  0  0  0  0  0  0  0  0
   46.1260   32.4420   44.6400 H   0  0  0  0  0  0  0  0  0  0  0  0
   44.5120   35.9400   46.4660 H   0  0  0  0  0  0  0  0  0  0  0  0
  1 16  1  0  0  0  0
  1  2  1  0  0  0  0
  3  1  1  0  0  0  0
  4  1  1  0  0  0  0
  4  5  1  0  0  0  0
  6  4  1  0  0  0  0
  7  8  1  0  0  0  0
  8  9  1  0  0  0  0
  9 10  2  0  0  0  0
  9  4  1  0  0  0  0
 10 11  1  0  0  0  0
 12 13  1  0  0  0  0
 12 10  1  0  0  0  0
 14 12  2  0  0  0  0
 15 14  1  0  0  0  0
 15  8  2  0  0  0  0
 16 17  1  0  0  0  0
 17 18  2  0  0  0  0
 17 22  1  0  0  0  0
 18 19  1  0  0  0  0
 19 24  1  0  0  0  0
 19 20  2  0  0  0  0
 21 20  1  0  0  0  0
 21 25  1  0  0  0  0
 22 21  2  0  0  0  0
 23 18  1  0  0  0  0
M  END
>  <minimizedAffinity>
-5.29310989

>  <minimizedRMSD>
2.0594449

$$$$
