
 OpenBabel03252509283D

 21 22  0  0  0  0  0  0  0  0999 V2000
   47.2230   35.3010   41.8660 C   0  0  0  0  0  0  0  0  0  0  0  0
   48.2760   35.4820   42.2270 H   0  0  0  0  0  0  0  0  0  0  0  0
   46.8270   36.1430   41.2930 H   0  0  0  0  0  0  0  0  0  0  0  0
   44.5810   35.7800   44.4430 C   0  0  0  0  0  0  0  0  0  0  0  0
   45.3720   35.9750   43.2930 C   0  0  0  0  0  0  0  0  0  0  0  0
   46.4220   35.0690   43.0680 C   0  0  0  0  0  0  0  0  0  0  0  0
   46.6180   34.0640   43.9600 N   0  0  0  0  0  0  0  0  0  0  0  0
   45.8380   33.9120   45.0490 C   0  0  0  0  0  0  0  0  0  0  0  0
   44.8290   34.7740   45.2760 N   0  0  0  0  0  0  0  0  0  0  0  0
   43.7790   36.4930   44.5910 H   0  0  0  0  0  0  0  0  0  0  0  0
   45.1720   36.7950   42.6120 H   0  0  0  0  0  0  0  0  0  0  0  0
   46.0180   33.0990   45.7460 H   0  0  0  0  0  0  0  0  0  0  0  0
   49.5640   33.8300   41.4450 F   0  0  0  0  0  0  0  0  0  0  0  0
   48.4750   33.3880   40.7390 C   0  0  0  0  0  0  0  0  0  0  0  0
   47.3160   34.1360   40.9640 C   0  0  0  0  0  0  0  0  0  0  0  0
   46.1960   33.7280   40.2770 C   0  0  0  0  0  0  0  0  0  0  0  0
   45.2350   34.2160   40.3570 H   0  0  0  0  0  0  0  0  0  0  0  0
   46.2160   32.6390   39.4110 C   0  0  0  0  0  0  0  0  0  0  0  0
   45.3420   32.3040   38.8610 H   0  0  0  0  0  0  0  0  0  0  0  0
   47.3580   31.9150   39.2010 C   0  0  0  0  0  3  0  0  0  0  0  0
   48.4960   32.3090   39.8820 C   0  0  0  0  0  3  0  0  0  0  0  0
  1  2  1  0  0  0  0
  1  6  1  0  0  0  0
  3  1  1  0  0  0  0
  4 10  1  0  0  0  0
  4  9  1  0  0  0  0
  5  4  2  0  0  0  0
  6  5  1  0  0  0  0
  6  7  2  0  0  0  0
  7  8  1  0  0  0  0
  8  9  2  0  0  0  0
  8 12  1  0  0  0  0
 11  5  1  0  0  0  0
 14 15  1  0  0  0  0
 14 13  1  0  0  0  0
 15  1  1  0  0  0  0
 16 17  1  0  0  0  0
 16 15  2  0  0  0  0
 18 16  1  0  0  0  0
 19 18  1  0  0  0  0
 20 18  2  0  0  0  0
 20 21  1  0  0  0  0
 21 14  2  0  0  0  0
M  END
>  <minimizedAffinity>
-3.93633151

>  <minimizedRMSD>
1.87912631

$$$$
