
 OpenBabel03252501473D

 33 35  0  0  0  0  0  0  0  0999 V2000
   44.0930   33.6330   40.6550 C   0  0  0  0  0  0  0  0  0  0  0  0
   44.3430   34.7820   41.4580 C   0  0  0  0  0  0  0  0  0  0  0  0
   43.3290   35.7240   41.6190 C   0  0  0  0  0  0  0  0  0  0  0  0
   42.1370   35.4980   40.9960 N   0  0  0  0  0  0  0  0  0  0  0  0
   41.9420   34.3970   40.2460 C   0  0  0  0  0  0  0  0  0  0  0  0
   42.9050   33.4790   40.0780 N   0  0  0  0  0  0  0  0  0  0  0  0
   44.8500   32.8670   40.4960 H   0  0  0  0  0  0  0  0  0  0  0  0
   43.5050   36.6010   42.2250 H   0  0  0  0  0  0  0  0  0  0  0  0
   39.7300   33.5850   41.7180 F   0  0  0  0  0  0  0  0  0  0  0  0
   39.5470   33.8080   40.3810 C   0  0  0  0  0  0  0  0  0  0  0  0
   40.6400   34.2180   39.6120 C   0  0  0  0  0  0  0  0  0  0  0  0
   40.5140   34.4540   38.2690 C   0  0  0  0  0  0  0  0  0  0  0  0
   39.2580   34.2750   37.6860 C   0  0  0  0  0  0  0  0  0  0  0  0
   38.1490   33.8630   38.4490 C   0  0  0  0  0  0  0  0  0  0  0  0
   38.3040   33.6290   39.8120 C   0  0  0  0  0  0  0  0  0  0  0  0
   41.3630   34.7720   37.6730 H   0  0  0  0  0  0  0  0  0  0  0  0
   39.1550   34.4620   36.6260 H   0  0  0  0  0  0  0  0  0  0  0  0
   37.1790   33.7320   37.9640 H   0  0  0  0  0  0  0  0  0  0  0  0
   37.4640   33.3100   40.4270 H   0  0  0  0  0  0  0  0  0  0  0  0
   45.6510   34.9290   42.0870 C   0  0  0  0  0  0  0  0  0  0  0  0
   46.8090   34.6790   41.5070 C   0  0  0  0  0  0  0  0  0  0  0  0
   48.0920   34.8640   42.2660 C   0  0  0  0  0  0  0  0  0  0  0  0
   47.8740   35.0950   43.3250 H   0  0  0  0  0  0  0  0  0  0  0  0
   48.7350   35.6350   41.7980 H   0  0  0  0  0  0  0  0  0  0  0  0
   50.8390   34.9220   42.4840 F   0  0  0  0  0  0  0  0  0  0  0  0
   50.2040   33.7270   42.2990 C   0  0  0  0  0  0  0  0  0  0  0  0
   48.8280   33.5770   42.1760 C   0  0  0  0  0  0  0  0  0  0  0  0
   48.3240   32.3040   41.9930 C   0  0  0  0  0  0  0  0  0  0  0  0
   47.2540   32.2740   41.9070 H   0  0  0  0  0  0  0  0  0  0  0  0
   49.1800   31.2270   41.9350 C   0  0  0  0  0  0  0  0  0  0  0  0
   48.7410   30.2430   41.7900 H   0  0  0  0  0  0  0  0  0  0  0  0
   50.5600   31.3900   42.0610 C   0  0  0  0  0  0  0  0  0  0  0  0
   51.0860   32.6570   42.2450 C   0  0  0  0  0  0  0  0  0  0  0  0
  1  2  1  0  0  0  0
  2  3  2  0  0  0  0
  2 20  1  0  0  0  0
  3  8  1  0  0  0  0
  4  3  1  0  0  0  0
  5  4  2  0  0  0  0
  6  5  1  0  0  0  0
  6  1  2  0  0  0  0
  7  1  1  0  0  0  0
 10  9  1  0  0  0  0
 11  5  1  0  0  0  0
 11 10  2  0  0  0  0
 12 11  1  0  0  0  0
 13 12  2  0  0  0  0
 13 14  1  0  0  0  0
 14 15  2  0  0  0  0
 15 10  1  0  0  0  0
 15 19  1  0  0  0  0
 16 12  1  0  0  0  0
 17 13  1  0  0  0  0
 18 14  1  0  0  0  0
 21 20  2  0  0  0  0
 21 22  1  0  0  0  0
 22 23  1  0  0  0  0
 24 22  1  0  0  0  0
 26 25  1  0  0  0  0
 27 22  1  0  0  0  0
 27 26  2  0  0  0  0
 28 27  1  0  0  0  0
 29 28  1  0  0  0  0
 30 28  2  0  0  0  0
 30 32  1  0  0  0  0
 31 30  1  0  0  0  0
 32 33  2  0  0  0  0
 33 26  1  0  0  0  0
M  END
>  <minimizedAffinity>
-6.37832642

>  <minimizedRMSD>
0.161853358

$$$$
