
 OpenBabel03252509293D

 21 22  0  0  0  0  0  0  0  0999 V2000
   46.6950   35.0110   42.0170 C   0  0  0  0  0  0  0  0  0  0  0  0
   47.7950   34.8460   42.2010 H   0  0  0  0  0  0  0  0  0  0  0  0
   46.4890   35.9780   41.5530 H   0  0  0  0  0  0  0  0  0  0  0  0
   44.4940   35.8720   44.8910 C   0  0  0  0  0  0  0  0  0  0  0  0
   45.1320   35.9330   43.6360 C   0  0  0  0  0  0  0  0  0  0  0  0
   46.0510   34.9170   43.3270 C   0  0  0  0  0  0  0  0  0  0  0  0
   46.2730   33.9380   44.2420 N   0  0  0  0  0  0  0  0  0  0  0  0
   45.6410   33.9170   45.4330 C   0  0  0  0  0  0  0  0  0  0  0  0
   44.7590   34.8850   45.7420 N   0  0  0  0  0  0  0  0  0  0  0  0
   43.7920   36.6690   45.1030 H   0  0  0  0  0  0  0  0  0  0  0  0
   44.9180   36.7380   42.9410 H   0  0  0  0  0  0  0  0  0  0  0  0
   45.8390   33.1210   46.1460 H   0  0  0  0  0  0  0  0  0  0  0  0
   44.2700   34.9880   40.6230 F   0  0  0  0  0  0  0  0  0  0  0  0
   45.0920   33.9220   40.3600 C   0  0  0  0  0  0  0  0  0  0  0  0
   46.2970   33.9530   41.0670 C   0  0  0  0  0  0  0  0  0  0  0  0
   47.1540   32.9020   40.8360 C   0  0  0  0  0  0  0  0  0  0  0  0
   48.1180   32.8000   41.3140 H   0  0  0  0  0  0  0  0  0  0  0  0
   46.8420   31.8720   39.9540 C   0  0  0  0  0  0  0  0  0  0  0  0
   47.5060   31.0370   39.7580 H   0  0  0  0  0  0  0  0  0  0  0  0
   45.6570   31.8570   39.2680 C   0  0  0  0  0  3  0  0  0  0  0  0
   44.7790   32.9040   39.4860 C   0  0  0  0  0  3  0  0  0  0  0  0
  1  2  1  0  0  0  0
  1  6  1  0  0  0  0
  3  1  1  0  0  0  0
  4 10  1  0  0  0  0
  4  9  1  0  0  0  0
  5  4  2  0  0  0  0
  6  5  1  0  0  0  0
  6  7  2  0  0  0  0
  7  8  1  0  0  0  0
  8  9  2  0  0  0  0
  8 12  1  0  0  0  0
 11  5  1  0  0  0  0
 14 13  1  0  0  0  0
 14 15  1  0  0  0  0
 15  1  1  0  0  0  0
 16 15  2  0  0  0  0
 16 17  1  0  0  0  0
 18 16  1  0  0  0  0
 19 18  1  0  0  0  0
 20 21  1  0  0  0  0
 20 18  2  0  0  0  0
 21 14  2  0  0  0  0
M  END
>  <minimizedAffinity>
-3.94859314

>  <minimizedRMSD>
0.841674805

$$$$
