
 OpenBabel03252509293D

 21 22  0  0  0  0  0  0  0  0999 V2000
   47.2730   34.9760   41.9720 C   0  0  0  0  0  0  0  0  0  0  0  0
   48.2750   34.5750   42.2990 H   0  0  0  0  0  0  0  0  0  0  0  0
   47.3350   35.9970   41.5870 H   0  0  0  0  0  0  0  0  0  0  0  0
   44.5640   35.8700   44.3610 C   0  0  0  0  0  0  0  0  0  0  0  0
   45.4080   35.8970   43.2330 C   0  0  0  0  0  0  0  0  0  0  0  0
   46.4140   34.9190   43.1540 C   0  0  0  0  0  0  0  0  0  0  0  0
   46.5180   34.0090   44.1570 N   0  0  0  0  0  0  0  0  0  0  0  0
   45.6890   34.0180   45.2200 C   0  0  0  0  0  0  0  0  0  0  0  0
   44.7220   34.9500   45.3070 N   0  0  0  0  0  0  0  0  0  0  0  0
   43.7980   36.6360   44.3950 H   0  0  0  0  0  0  0  0  0  0  0  0
   45.2820   36.6470   42.4600 H   0  0  0  0  0  0  0  0  0  0  0  0
   45.7960   33.2780   46.0070 H   0  0  0  0  0  0  0  0  0  0  0  0
   48.4330   34.9770   39.4270 F   0  0  0  0  0  0  0  0  0  0  0  0
   47.4090   34.0800   39.5900 C   0  0  0  0  0  0  0  0  0  0  0  0
   46.8440   34.0950   40.8670 C   0  0  0  0  0  0  0  0  0  0  0  0
   45.8110   33.2100   41.0770 C   0  0  0  0  0  0  0  0  0  0  0  0
   45.2850   33.1170   42.0150 H   0  0  0  0  0  0  0  0  0  0  0  0
   45.3590   32.3520   40.0800 C   0  0  0  0  0  0  0  0  0  0  0  0
   44.5460   31.6490   40.2270 H   0  0  0  0  0  0  0  0  0  0  0  0
   45.9230   32.3490   38.8320 C   0  0  0  0  0  3  0  0  0  0  0  0
   46.9630   33.2310   38.6000 C   0  0  0  0  0  3  0  0  0  0  0  0
  1  2  1  0  0  0  0
  1  6  1  0  0  0  0
  3  1  1  0  0  0  0
  4 10  1  0  0  0  0
  4  9  1  0  0  0  0
  5  4  2  0  0  0  0
  6  5  1  0  0  0  0
  6  7  2  0  0  0  0
  7  8  1  0  0  0  0
  8  9  2  0  0  0  0
  8 12  1  0  0  0  0
 11  5  1  0  0  0  0
 13 14  1  0  0  0  0
 14 15  1  0  0  0  0
 15 16  2  0  0  0  0
 15  1  1  0  0  0  0
 16 17  1  0  0  0  0
 18 19  1  0  0  0  0
 18 16  1  0  0  0  0
 20 18  2  0  0  0  0
 21 20  1  0  0  0  0
 21 14  2  0  0  0  0
M  END
>  <minimizedAffinity>
-4.23855162

>  <minimizedRMSD>
0.582011223

$$$$
