
 OpenBabel03252509293D

 21 22  0  0  0  0  0  0  0  0999 V2000
   46.6750   35.0250   42.0310 C   0  0  0  0  0  0  0  0  0  0  0  0
   47.7710   34.8220   42.2030 H   0  0  0  0  0  0  0  0  0  0  0  0
   46.4970   36.0080   41.5880 H   0  0  0  0  0  0  0  0  0  0  0  0
   44.4920   35.8740   44.9220 C   0  0  0  0  0  0  0  0  0  0  0  0
   45.1230   35.9410   43.6640 C   0  0  0  0  0  0  0  0  0  0  0  0
   46.0380   34.9240   43.3430 C   0  0  0  0  0  0  0  0  0  0  0  0
   46.2620   33.9390   44.2510 N   0  0  0  0  0  0  0  0  0  0  0  0
   45.6360   33.9110   45.4450 C   0  0  0  0  0  0  0  0  0  0  0  0
   44.7580   34.8810   45.7640 N   0  0  0  0  0  0  0  0  0  0  0  0
   43.7930   36.6710   45.1420 H   0  0  0  0  0  0  0  0  0  0  0  0
   44.9080   36.7510   42.9750 H   0  0  0  0  0  0  0  0  0  0  0  0
   45.8350   33.1110   46.1520 H   0  0  0  0  0  0  0  0  0  0  0  0
   44.2340   35.0990   40.6670 F   0  0  0  0  0  0  0  0  0  0  0  0
   45.0240   34.0180   40.3700 C   0  0  0  0  0  0  0  0  0  0  0  0
   46.2380   34.0000   41.0620 C   0  0  0  0  0  0  0  0  0  0  0  0
   47.0640   32.9320   40.7970 C   0  0  0  0  0  0  0  0  0  0  0  0
   48.0300   32.7940   41.2610 H   0  0  0  0  0  0  0  0  0  0  0  0
   46.7130   31.9310   39.8960 C   0  0  0  0  0  0  0  0  0  0  0  0
   47.3510   31.0830   39.6740 H   0  0  0  0  0  0  0  0  0  0  0  0
   45.5190   31.9630   39.2260 C   0  0  0  0  0  3  0  0  0  0  0  0
   44.6740   33.0280   39.4780 C   0  0  0  0  0  3  0  0  0  0  0  0
  1  2  1  0  0  0  0
  1  6  1  0  0  0  0
  3  1  1  0  0  0  0
  4 10  1  0  0  0  0
  4  9  1  0  0  0  0
  5  4  2  0  0  0  0
  6  5  1  0  0  0  0
  6  7  2  0  0  0  0
  7  8  1  0  0  0  0
  8  9  2  0  0  0  0
  8 12  1  0  0  0  0
 11  5  1  0  0  0  0
 14 13  1  0  0  0  0
 14 15  1  0  0  0  0
 15  1  1  0  0  0  0
 16 15  2  0  0  0  0
 16 17  1  0  0  0  0
 18 16  1  0  0  0  0
 19 18  1  0  0  0  0
 20 21  1  0  0  0  0
 20 18  2  0  0  0  0
 21 14  2  0  0  0  0
M  END
>  <minimizedAffinity>
-3.9643383

>  <minimizedRMSD>
0.437898576

$$$$
