
 OpenBabel03252509303D

 21 22  0  0  0  0  0  0  0  0999 V2000
   37.7630   28.4060   43.6470 C   0  0  0  0  0  0  0  0  0  0  0  0
   36.6790   28.4230   43.9570 H   0  0  0  0  0  0  0  0  0  0  0  0
   38.4410   28.5660   44.4890 H   0  0  0  0  0  0  0  0  0  0  0  0
   39.3540   31.1010   41.6330 C   0  0  0  0  0  0  0  0  0  0  0  0
   39.1780   30.0720   42.5800 C   0  0  0  0  0  0  0  0  0  0  0  0
   37.9110   29.4690   42.6530 C   0  0  0  0  0  0  0  0  0  0  0  0
   36.9340   29.9030   41.8160 N   0  0  0  0  0  0  0  0  0  0  0  0
   37.1440   30.8910   40.9220 C   0  0  0  0  0  0  0  0  0  0  0  0
   38.3530   31.4770   40.8440 N   0  0  0  0  0  0  0  0  0  0  0  0
   40.3410   31.5480   41.6000 H   0  0  0  0  0  0  0  0  0  0  0  0
   39.9930   29.7640   43.2260 H   0  0  0  0  0  0  0  0  0  0  0  0
   36.3440   31.2170   40.2650 H   0  0  0  0  0  0  0  0  0  0  0  0
   40.2470   27.1200   43.6790 F   0  0  0  0  0  0  0  0  0  0  0  0
   39.2280   26.3860   43.1290 C   0  0  0  0  0  0  0  0  0  0  0  0
   37.9970   27.0470   43.1220 C   0  0  0  0  0  0  0  0  0  0  0  0
   36.9440   26.3480   42.5770 C   0  0  0  0  0  0  0  0  0  0  0  0
   35.9390   26.7380   42.5080 H   0  0  0  0  0  0  0  0  0  0  0  0
   37.0950   25.0630   42.0650 C   0  0  0  0  0  0  0  0  0  0  0  0
   36.2770   24.4970   41.6330 H   0  0  0  0  0  0  0  0  0  0  0  0
   38.3090   24.4300   42.0790 C   0  0  0  0  0  3  0  0  0  0  0  0
   39.3800   25.1140   42.6210 C   0  0  0  0  0  3  0  0  0  0  0  0
  1  2  1  0  0  0  0
  1  3  1  0  0  0  0
  4  5  1  0  0  0  0
  5  6  2  0  0  0  0
  5 11  1  0  0  0  0
  6  1  1  0  0  0  0
  7  6  1  0  0  0  0
  8  7  2  0  0  0  0
  9  8  1  0  0  0  0
  9  4  2  0  0  0  0
 10  4  1  0  0  0  0
 12  8  1  0  0  0  0
 14 13  1  0  0  0  0
 15 14  1  0  0  0  0
 15  1  1  0  0  0  0
 16 15  2  0  0  0  0
 17 16  1  0  0  0  0
 18 20  2  0  0  0  0
 18 16  1  0  0  0  0
 19 18  1  0  0  0  0
 20 21  1  0  0  0  0
 21 14  2  0  0  0  0
M  END
>  <minimizedAffinity>
-4.65237427

$$$$

 OpenBabel03252509303D

 21 22  0  0  0  0  0  0  0  0999 V2000
   36.5960   27.6430   43.0070 C   0  0  0  0  0  0  0  0  0  0  0  0
   35.5600   27.2050   42.9250 H   0  0  0  0  0  0  0  0  0  0  0  0
   36.8090   28.0260   44.0080 H   0  0  0  0  0  0  0  0  0  0  0  0
   35.7280   29.6850   40.0200 C   0  0  0  0  0  0  0  0  0  0  0  0
   35.6980   28.6640   40.9900 C   0  0  0  0  0  0  0  0  0  0  0  0
   36.6560   28.7170   42.0170 C   0  0  0  0  0  0  0  0  0  0  0  0
   37.5500   29.7390   42.0200 N   0  0  0  0  0  0  0  0  0  0  0  0
   37.5460   30.6970   41.0710 C   0  0  0  0  0  0  0  0  0  0  0  0
   36.6330   30.6570   40.0830 N   0  0  0  0  0  0  0  0  0  0  0  0
   34.9790   29.6180   39.2400 H   0  0  0  0  0  0  0  0  0  0  0  0
   34.9600   27.8700   40.9410 H   0  0  0  0  0  0  0  0  0  0  0  0
   38.2740   31.5020   41.0990 H   0  0  0  0  0  0  0  0  0  0  0  0
   39.3110   27.6470   43.6790 F   0  0  0  0  0  0  0  0  0  0  0  0
   38.8730   26.5000   43.0680 C   0  0  0  0  0  0  0  0  0  0  0  0
   37.5150   26.5190   42.7400 C   0  0  0  0  0  0  0  0  0  0  0  0
   37.0310   25.3880   42.1240 C   0  0  0  0  0  0  0  0  0  0  0  0
   36.0020   25.2680   41.8170 H   0  0  0  0  0  0  0  0  0  0  0  0
   37.8420   24.2930   41.8440 C   0  0  0  0  0  0  0  0  0  0  0  0
   37.4780   23.3940   41.3590 H   0  0  0  0  0  0  0  0  0  0  0  0
   39.1720   24.2900   42.1710 C   0  0  0  0  0  3  0  0  0  0  0  0
   39.6790   25.4170   42.7910 C   0  0  0  0  0  3  0  0  0  0  0  0
  1  3  1  0  0  0  0
  2  1  1  0  0  0  0
  4  9  2  0  0  0  0
  4  5  1  0  0  0  0
  5  6  2  0  0  0  0
  6  7  1  0  0  0  0
  6  1  1  0  0  0  0
  8 12  1  0  0  0  0
  8  7  2  0  0  0  0
  9  8  1  0  0  0  0
 10  4  1  0  0  0  0
 11  5  1  0  0  0  0
 14 13  1  0  0  0  0
 15  1  1  0  0  0  0
 15 14  2  0  0  0  0
 16 15  1  0  0  0  0
 17 16  1  0  0  0  0
 18 16  2  0  0  0  0
 18 20  1  0  0  0  0
 19 18  1  0  0  0  0
 20 21  2  0  0  0  0
 21 14  1  0  0  0  0
M  END
>  <minimizedAffinity>
-4.5717802

$$$$

 OpenBabel03252509303D

 21 22  0  0  0  0  0  0  0  0999 V2000
   36.5790   27.6390   42.9550 C   0  0  0  0  0  0  0  0  0  0  0  0
   35.6720   27.0230   42.6890 H   0  0  0  0  0  0  0  0  0  0  0  0
   36.5150   28.0640   43.9600 H   0  0  0  0  0  0  0  0  0  0  0  0
   35.8740   29.5380   39.8330 C   0  0  0  0  0  0  0  0  0  0  0  0
   35.8270   28.5350   40.8220 C   0  0  0  0  0  0  0  0  0  0  0  0
   36.6510   28.6980   41.9480 C   0  0  0  0  0  0  0  0  0  0  0  0
   37.4400   29.8010   42.0250 N   0  0  0  0  0  0  0  0  0  0  0  0
   37.4550   30.7380   41.0550 C   0  0  0  0  0  0  0  0  0  0  0  0
   36.6710   30.5930   39.9710 N   0  0  0  0  0  0  0  0  0  0  0  0
   35.2290   29.3860   38.9760 H   0  0  0  0  0  0  0  0  0  0  0  0
   35.1780   27.6730   40.7120 H   0  0  0  0  0  0  0  0  0  0  0  0
   38.0970   31.6090   41.1430 H   0  0  0  0  0  0  0  0  0  0  0  0
   36.6000   25.2580   41.4860 F   0  0  0  0  0  0  0  0  0  0  0  0
   37.7450   25.5020   42.2010 C   0  0  0  0  0  0  0  0  0  0  0  0
   37.7130   26.6950   42.9270 C   0  0  0  0  0  0  0  0  0  0  0  0
   38.8410   26.9810   43.6610 C   0  0  0  0  0  0  0  0  0  0  0  0
   38.9520   27.8680   44.2670 H   0  0  0  0  0  0  0  0  0  0  0  0
   39.9460   26.1350   43.6800 C   0  0  0  0  0  0  0  0  0  0  0  0
   40.8430   26.3440   44.2520 H   0  0  0  0  0  0  0  0  0  0  0  0
   39.9610   24.9690   42.9630 C   0  0  0  0  0  3  0  0  0  0  0  0
   38.8380   24.6620   42.2180 C   0  0  0  0  0  3  0  0  0  0  0  0
  1  3  1  0  0  0  0
  2  1  1  0  0  0  0
  4  9  2  0  0  0  0
  4  5  1  0  0  0  0
  5  6  2  0  0  0  0
  6  7  1  0  0  0  0
  6  1  1  0  0  0  0
  8 12  1  0  0  0  0
  8  7  2  0  0  0  0
  9  8  1  0  0  0  0
 10  4  1  0  0  0  0
 11  5  1  0  0  0  0
 13 14  1  0  0  0  0
 14 21  2  0  0  0  0
 14 15  1  0  0  0  0
 15  1  1  0  0  0  0
 15 16  2  0  0  0  0
 16 18  1  0  0  0  0
 16 17  1  0  0  0  0
 18 19  1  0  0  0  0
 20 18  2  0  0  0  0
 21 20  1  0  0  0  0
M  END
>  <minimizedAffinity>
-4.57079363

$$$$

 OpenBabel03252509303D

 21 22  0  0  0  0  0  0  0  0999 V2000
   36.7350   27.3690   42.9500 C   0  0  0  0  0  0  0  0  0  0  0  0
   37.2410   27.7620   43.8780 H   0  0  0  0  0  0  0  0  0  0  0  0
   35.7210   27.0120   43.1460 H   0  0  0  0  0  0  0  0  0  0  0  0
   37.7110   24.0130   41.6720 C   0  0  0  0  0  0  0  0  0  0  0  0
   36.9230   25.0820   42.1450 C   0  0  0  0  0  0  0  0  0  0  0  0
   37.5820   26.2820   42.4610 C   0  0  0  0  0  0  0  0  0  0  0  0
   38.9280   26.3490   42.2950 N   0  0  0  0  0  0  0  0  0  0  0  0
   39.6460   25.3020   41.8390 C   0  0  0  0  0  0  0  0  0  0  0  0
   39.0260   24.1470   41.5340 N   0  0  0  0  0  0  0  0  0  0  0  0
   37.1760   23.1010   41.4370 H   0  0  0  0  0  0  0  0  0  0  0  0
   35.8490   24.9750   42.2590 H   0  0  0  0  0  0  0  0  0  0  0  0
   40.7220   25.3850   41.7170 H   0  0  0  0  0  0  0  0  0  0  0  0
   38.3780   29.6270   43.1150 F   0  0  0  0  0  0  0  0  0  0  0  0
   37.4540   29.6620   42.1010 C   0  0  0  0  0  0  0  0  0  0  0  0
   36.6450   28.5260   42.0370 C   0  0  0  0  0  0  0  0  0  0  0  0
   35.7020   28.5170   41.0350 C   0  0  0  0  0  0  0  0  0  0  0  0
   35.0110   27.7040   40.8700 H   0  0  0  0  0  0  0  0  0  0  0  0
   35.5630   29.5740   40.1400 C   0  0  0  0  0  0  0  0  0  0  0  0
   34.8270   29.5850   39.3440 H   0  0  0  0  0  0  0  0  0  0  0  0
   36.3650   30.6810   40.2170 C   0  0  0  0  0  3  0  0  0  0  0  0
   37.3190   30.7110   41.2170 C   0  0  0  0  0  3  0  0  0  0  0  0
  1  3  1  0  0  0  0
  1  2  1  0  0  0  0
  4  5  1  0  0  0  0
  5 11  1  0  0  0  0
  5  6  2  0  0  0  0
  6  1  1  0  0  0  0
  7  6  1  0  0  0  0
  8  7  2  0  0  0  0
  9  4  2  0  0  0  0
  9  8  1  0  0  0  0
 10  4  1  0  0  0  0
 12  8  1  0  0  0  0
 14 13  1  0  0  0  0
 15 14  1  0  0  0  0
 15  1  1  0  0  0  0
 16 15  2  0  0  0  0
 17 16  1  0  0  0  0
 18 20  2  0  0  0  0
 18 16  1  0  0  0  0
 19 18  1  0  0  0  0
 20 21  1  0  0  0  0
 21 14  2  0  0  0  0
M  END
>  <minimizedAffinity>
-4.55342197

$$$$

 OpenBabel03252509303D

 21 22  0  0  0  0  0  0  0  0999 V2000
   35.6980   29.7700   40.5950 C   0  0  0  0  0  0  0  0  0  0  0  0
   35.2850   30.6280   41.2000 H   0  0  0  0  0  0  0  0  0  0  0  0
   34.9140   29.1160   40.2080 H   0  0  0  0  0  0  0  0  0  0  0  0
   37.4440   26.9030   42.2000 C   0  0  0  0  0  0  0  0  0  0  0  0
   36.6000   27.6400   41.3460 C   0  0  0  0  0  0  0  0  0  0  0  0
   36.5860   29.0370   41.4960 C   0  0  0  0  0  0  0  0  0  0  0  0
   37.3810   29.5970   42.4440 N   0  0  0  0  0  0  0  0  0  0  0  0
   38.1760   28.8560   43.2420 C   0  0  0  0  0  0  0  0  0  0  0  0
   38.1960   27.5170   43.1080 N   0  0  0  0  0  0  0  0  0  0  0  0
   37.4340   25.8280   42.0620 H   0  0  0  0  0  0  0  0  0  0  0  0
   35.9840   27.1410   40.6050 H   0  0  0  0  0  0  0  0  0  0  0  0
   38.8000   29.3320   43.9920 H   0  0  0  0  0  0  0  0  0  0  0  0
   36.9260   32.2820   40.6820 F   0  0  0  0  0  0  0  0  0  0  0  0
   37.0010   31.6490   39.4680 C   0  0  0  0  0  0  0  0  0  0  0  0
   36.3820   30.3970   39.4460 C   0  0  0  0  0  0  0  0  0  0  0  0
   36.4300   29.7240   38.2470 C   0  0  0  0  0  0  0  0  0  0  0  0
   35.9930   28.7490   38.0900 H   0  0  0  0  0  0  0  0  0  0  0  0
   37.0580   30.2570   37.1250 C   0  0  0  0  0  0  0  0  0  0  0  0
   37.1070   29.7410   36.1720 H   0  0  0  0  0  0  0  0  0  0  0  0
   37.6600   31.4860   37.1630 C   0  0  0  0  0  3  0  0  0  0  0  0
   37.6220   32.1790   38.3580 C   0  0  0  0  0  3  0  0  0  0  0  0
  1  2  1  0  0  0  0
  1  6  1  0  0  0  0
  3  1  1  0  0  0  0
  4  9  1  0  0  0  0
  5  6  1  0  0  0  0
  5  4  2  0  0  0  0
  6  7  2  0  0  0  0
  7  8  1  0  0  0  0
  8 12  1  0  0  0  0
  9  8  2  0  0  0  0
 10  4  1  0  0  0  0
 11  5  1  0  0  0  0
 14 13  1  0  0  0  0
 15 14  1  0  0  0  0
 15  1  1  0  0  0  0
 16 15  2  0  0  0  0
 17 16  1  0  0  0  0
 18 20  2  0  0  0  0
 18 16  1  0  0  0  0
 19 18  1  0  0  0  0
 20 21  1  0  0  0  0
 21 14  2  0  0  0  0
M  END
>  <minimizedAffinity>
-4.510571

$$$$

 OpenBabel03252509303D

 21 22  0  0  0  0  0  0  0  0999 V2000
   35.6390   29.2230   40.8820 C   0  0  0  0  0  0  0  0  0  0  0  0
   35.0750   28.5560   40.1680 H   0  0  0  0  0  0  0  0  0  0  0  0
   34.9870   29.6770   41.6330 H   0  0  0  0  0  0  0  0  0  0  0  0
   37.1120   30.8740   37.8900 C   0  0  0  0  0  0  0  0  0  0  0  0
   36.5040   29.9050   38.7140 C   0  0  0  0  0  0  0  0  0  0  0  0
   36.2710   30.2510   40.0560 C   0  0  0  0  0  0  0  0  0  0  0  0
   36.6380   31.4860   40.4830 N   0  0  0  0  0  0  0  0  0  0  0  0
   37.2180   32.3850   39.6620 C   0  0  0  0  0  0  0  0  0  0  0  0
   37.4470   32.0650   38.3750 N   0  0  0  0  0  0  0  0  0  0  0  0
   37.2800   30.5800   36.8610 H   0  0  0  0  0  0  0  0  0  0  0  0
   36.2300   28.9320   38.3210 H   0  0  0  0  0  0  0  0  0  0  0  0
   37.5020   33.3650   40.0320 H   0  0  0  0  0  0  0  0  0  0  0  0
   36.2810   26.6390   40.0260 F   0  0  0  0  0  0  0  0  0  0  0  0
   36.9240   27.0410   41.1680 C   0  0  0  0  0  0  0  0  0  0  0  0
   36.5890   28.3330   41.5780 C   0  0  0  0  0  0  0  0  0  0  0  0
   37.2110   28.7800   42.7220 C   0  0  0  0  0  0  0  0  0  0  0  0
   37.0450   29.7580   43.1500 H   0  0  0  0  0  0  0  0  0  0  0  0
   38.1180   27.9940   43.4260 C   0  0  0  0  0  0  0  0  0  0  0  0
   38.6170   28.3290   44.3290 H   0  0  0  0  0  0  0  0  0  0  0  0
   38.4350   26.7280   43.0110 C   0  0  0  0  0  3  0  0  0  0  0  0
   37.8210   26.2600   41.8650 C   0  0  0  0  0  3  0  0  0  0  0  0
  1 15  1  0  0  0  0
  1  3  1  0  0  0  0
  2  1  1  0  0  0  0
  4  9  2  0  0  0  0
  4  5  1  0  0  0  0
  5  6  2  0  0  0  0
  6  7  1  0  0  0  0
  6  1  1  0  0  0  0
  8 12  1  0  0  0  0
  8  7  2  0  0  0  0
  9  8  1  0  0  0  0
 10  4  1  0  0  0  0
 11  5  1  0  0  0  0
 13 14  1  0  0  0  0
 14 15  2  0  0  0  0
 14 21  1  0  0  0  0
 15 16  1  0  0  0  0
 16 17  1  0  0  0  0
 16 18  2  0  0  0  0
 18 19  1  0  0  0  0
 20 18  1  0  0  0  0
 21 20  2  0  0  0  0
M  END
>  <minimizedAffinity>
-4.44346237

$$$$

 OpenBabel03252509303D

 21 22  0  0  0  0  0  0  0  0999 V2000
   36.6160   30.9360   41.0630 C   0  0  0  0  0  0  0  0  0  0  0  0
   35.5450   30.7770   40.7490 H   0  0  0  0  0  0  0  0  0  0  0  0
   36.7260   31.7580   41.7740 H   0  0  0  0  0  0  0  0  0  0  0  0
   37.4740   30.9770   37.4430 C   0  0  0  0  0  0  0  0  0  0  0  0
   36.7840   30.7280   38.6460 C   0  0  0  0  0  0  0  0  0  0  0  0
   37.3580   31.2120   39.8330 C   0  0  0  0  0  0  0  0  0  0  0  0
   38.5330   31.8880   39.7600 N   0  0  0  0  0  0  0  0  0  0  0  0
   39.1620   32.1060   38.5870 C   0  0  0  0  0  0  0  0  0  0  0  0
   38.6220   31.6460   37.4430 N   0  0  0  0  0  0  0  0  0  0  0  0
   37.0080   30.5920   36.5430 H   0  0  0  0  0  0  0  0  0  0  0  0
   35.8470   30.1820   38.6480 H   0  0  0  0  0  0  0  0  0  0  0  0
   40.1010   32.6500   38.5600 H   0  0  0  0  0  0  0  0  0  0  0  0
   35.2260   28.5200   40.8330 F   0  0  0  0  0  0  0  0  0  0  0  0
   36.3320   28.4700   41.6420 C   0  0  0  0  0  0  0  0  0  0  0  0
   37.0110   29.6860   41.7430 C   0  0  0  0  0  0  0  0  0  0  0  0
   38.1280   29.6850   42.5460 C   0  0  0  0  0  0  0  0  0  0  0  0
   38.7460   30.5540   42.7140 H   0  0  0  0  0  0  0  0  0  0  0  0
   38.5570   28.5420   43.2160 C   0  0  0  0  0  0  0  0  0  0  0  0
   39.4340   28.5220   43.8520 H   0  0  0  0  0  0  0  0  0  0  0  0
   37.8790   27.3570   43.1060 C   0  0  0  0  0  3  0  0  0  0  0  0
   36.7540   27.3370   42.3040 C   0  0  0  0  0  3  0  0  0  0  0  0
  1 15  1  0  0  0  0
  1  3  1  0  0  0  0
  2  1  1  0  0  0  0
  4  9  2  0  0  0  0
  4  5  1  0  0  0  0
  5 11  1  0  0  0  0
  5  6  2  0  0  0  0
  6  1  1  0  0  0  0
  7  6  1  0  0  0  0
  8  7  2  0  0  0  0
  9  8  1  0  0  0  0
 10  4  1  0  0  0  0
 12  8  1  0  0  0  0
 13 14  1  0  0  0  0
 14 15  2  0  0  0  0
 14 21  1  0  0  0  0
 15 16  1  0  0  0  0
 16 17  1  0  0  0  0
 16 18  2  0  0  0  0
 18 19  1  0  0  0  0
 20 18  1  0  0  0  0
 21 20  2  0  0  0  0
M  END
>  <minimizedAffinity>
-4.43621635

$$$$

 OpenBabel03252509303D

 21 22  0  0  0  0  0  0  0  0999 V2000
   39.2530   29.8190   40.6430 C   0  0  0  0  0  0  0  0  0  0  0  0
   40.2210   29.9560   41.2060 H   0  0  0  0  0  0  0  0  0  0  0  0
   39.3880   29.2730   39.7070 H   0  0  0  0  0  0  0  0  0  0  0  0
   37.1430   32.5420   39.2340 C   0  0  0  0  0  0  0  0  0  0  0  0
   37.6580   31.2570   39.5010 C   0  0  0  0  0  0  0  0  0  0  0  0
   38.7430   31.1660   40.3890 C   0  0  0  0  0  0  0  0  0  0  0  0
   39.2330   32.3080   40.9380 N   0  0  0  0  0  0  0  0  0  0  0  0
   38.7110   33.5180   40.6560 C   0  0  0  0  0  0  0  0  0  0  0  0
   37.6720   33.6190   39.8060 N   0  0  0  0  0  0  0  0  0  0  0  0
   36.3080   32.5820   38.5460 H   0  0  0  0  0  0  0  0  0  0  0  0
   37.2290   30.3770   39.0350 H   0  0  0  0  0  0  0  0  0  0  0  0
   39.1250   34.4150   41.1100 H   0  0  0  0  0  0  0  0  0  0  0  0
   38.9830   30.2550   43.3930 F   0  0  0  0  0  0  0  0  0  0  0  0
   38.2500   29.2050   42.9040 C   0  0  0  0  0  0  0  0  0  0  0  0
   38.3990   29.0040   41.5300 C   0  0  0  0  0  0  0  0  0  0  0  0
   37.6820   27.9590   40.9950 C   0  0  0  0  0  0  0  0  0  0  0  0
   37.7040   27.6920   39.9490 H   0  0  0  0  0  0  0  0  0  0  0  0
   36.8580   27.1510   41.7740 C   0  0  0  0  0  0  0  0  0  0  0  0
   36.2860   26.3240   41.3700 H   0  0  0  0  0  0  0  0  0  0  0  0
   36.7240   27.3610   43.1200 C   0  0  0  0  0  3  0  0  0  0  0  0
   37.4360   28.4060   43.6780 C   0  0  0  0  0  3  0  0  0  0  0  0
  1  2  1  0  0  0  0
  1 15  1  0  0  0  0
  3  1  1  0  0  0  0
  4  5  2  0  0  0  0
  4  9  1  0  0  0  0
  5  6  1  0  0  0  0
  6  1  1  0  0  0  0
  6  7  2  0  0  0  0
  8  7  1  0  0  0  0
  8 12  1  0  0  0  0
  9  8  2  0  0  0  0
 10  4  1  0  0  0  0
 11  5  1  0  0  0  0
 14 13  1  0  0  0  0
 14 21  1  0  0  0  0
 15 14  2  0  0  0  0
 16 15  1  0  0  0  0
 16 18  2  0  0  0  0
 17 16  1  0  0  0  0
 18 20  1  0  0  0  0
 19 18  1  0  0  0  0
 20 21  2  0  0  0  0
M  END
>  <minimizedAffinity>
-4.42760372

$$$$

 OpenBabel03252509303D

 21 22  0  0  0  0  0  0  0  0999 V2000
   35.3670   29.1890   40.4260 C   0  0  0  0  0  0  0  0  0  0  0  0
   34.7630   29.6400   41.2650 H   0  0  0  0  0  0  0  0  0  0  0  0
   34.7370   28.8040   39.6190 H   0  0  0  0  0  0  0  0  0  0  0  0
   37.3670   26.0640   40.7020 C   0  0  0  0  0  0  0  0  0  0  0  0
   36.6090   27.1160   40.1520 C   0  0  0  0  0  0  0  0  0  0  0  0
   36.1510   28.1120   41.0300 C   0  0  0  0  0  0  0  0  0  0  0  0
   36.4620   28.0120   42.3480 N   0  0  0  0  0  0  0  0  0  0  0  0
   37.1920   26.9880   42.8350 C   0  0  0  0  0  0  0  0  0  0  0  0
   37.6350   26.0270   42.0040 N   0  0  0  0  0  0  0  0  0  0  0  0
   37.7060   25.3090   40.0030 H   0  0  0  0  0  0  0  0  0  0  0  0
   36.3880   27.1480   39.0900 H   0  0  0  0  0  0  0  0  0  0  0  0
   37.4240   26.9340   43.8940 H   0  0  0  0  0  0  0  0  0  0  0  0
   36.0450   29.4660   37.7260 F   0  0  0  0  0  0  0  0  0  0  0  0
   36.5240   30.4580   38.5430 C   0  0  0  0  0  0  0  0  0  0  0  0
   36.1740   30.3000   39.8860 C   0  0  0  0  0  0  0  0  0  0  0  0
   36.6340   31.2730   40.7440 C   0  0  0  0  0  0  0  0  0  0  0  0
   36.4380   31.2750   41.8060 H   0  0  0  0  0  0  0  0  0  0  0  0
   37.3990   32.3480   40.3020 C   0  0  0  0  0  0  0  0  0  0  0  0
   37.7700   33.1230   40.9640 H   0  0  0  0  0  0  0  0  0  0  0  0
   37.7340   32.4880   38.9820 C   0  0  0  0  0  3  0  0  0  0  0  0
   37.2830   31.5220   38.1030 C   0  0  0  0  0  3  0  0  0  0  0  0
  1  6  1  0  0  0  0
  1  2  1  0  0  0  0
  3  1  1  0  0  0  0
  4  9  1  0  0  0  0
  5  4  2  0  0  0  0
  5  6  1  0  0  0  0
  6  7  2  0  0  0  0
  7  8  1  0  0  0  0
  8 12  1  0  0  0  0
  9  8  2  0  0  0  0
 10  4  1  0  0  0  0
 11  5  1  0  0  0  0
 13 14  1  0  0  0  0
 14 15  1  0  0  0  0
 15  1  1  0  0  0  0
 15 16  2  0  0  0  0
 16 17  1  0  0  0  0
 18 16  1  0  0  0  0
 18 19  1  0  0  0  0
 20 18  2  0  0  0  0
 21 14  2  0  0  0  0
 21 20  1  0  0  0  0
M  END
>  <minimizedAffinity>
-4.39980602

$$$$
