
 OpenBabel03252509283D

 21 22  0  0  0  0  0  0  0  0999 V2000
   46.8330   35.0150   41.9770 C   0  0  0  0  0  0  0  0  0  0  0  0
   47.9180   34.8070   42.2060 H   0  0  0  0  0  0  0  0  0  0  0  0
   46.6850   35.9930   41.5120 H   0  0  0  0  0  0  0  0  0  0  0  0
   44.5230   35.9260   44.7480 C   0  0  0  0  0  0  0  0  0  0  0  0
   45.2150   35.9700   43.5220 C   0  0  0  0  0  0  0  0  0  0  0  0
   46.1320   34.9380   43.2580 C   0  0  0  0  0  0  0  0  0  0  0  0
   46.2990   33.9630   44.1870 N   0  0  0  0  0  0  0  0  0  0  0  0
   45.6160   33.9570   45.3500 C   0  0  0  0  0  0  0  0  0  0  0  0
   44.7360   34.9400   45.6140 N   0  0  0  0  0  0  0  0  0  0  0  0
   43.8230   36.7340   44.9250 H   0  0  0  0  0  0  0  0  0  0  0  0
   45.0440   36.7740   42.8130 H   0  0  0  0  0  0  0  0  0  0  0  0
   45.7710   33.1630   46.0750 H   0  0  0  0  0  0  0  0  0  0  0  0
   48.5240   32.9750   41.0830 F   0  0  0  0  0  0  0  0  0  0  0  0
   47.2630   32.9530   40.5430 C   0  0  0  0  0  0  0  0  0  0  0  0
   46.4360   33.9800   41.0030 C   0  0  0  0  0  0  0  0  0  0  0  0
   45.1590   33.9980   40.4880 C   0  0  0  0  0  0  0  0  0  0  0  0
   44.4170   34.7350   40.7570 H   0  0  0  0  0  0  0  0  0  0  0  0
   44.7200   33.0510   39.5670 C   0  0  0  0  0  0  0  0  0  0  0  0
   43.7190   33.0510   39.1510 H   0  0  0  0  0  0  0  0  0  0  0  0
   45.5430   32.0510   39.1260 C   0  0  0  0  0  3  0  0  0  0  0  0
   46.8300   32.0150   39.6320 C   0  0  0  0  0  3  0  0  0  0  0  0
  1  2  1  0  0  0  0
  1  6  1  0  0  0  0
  3  1  1  0  0  0  0
  4 10  1  0  0  0  0
  4  9  1  0  0  0  0
  5  4  2  0  0  0  0
  6  5  1  0  0  0  0
  6  7  2  0  0  0  0
  7  8  1  0  0  0  0
  8  9  2  0  0  0  0
  8 12  1  0  0  0  0
 11  5  1  0  0  0  0
 14 15  1  0  0  0  0
 14 13  1  0  0  0  0
 15  1  1  0  0  0  0
 16 17  1  0  0  0  0
 16 15  2  0  0  0  0
 18 16  1  0  0  0  0
 19 18  1  0  0  0  0
 20 18  2  0  0  0  0
 20 21  1  0  0  0  0
 21 14  2  0  0  0  0
M  END
>  <minimizedAffinity>
-3.88839507

>  <minimizedRMSD>
0.58288151

$$$$
