
 OpenBabel03242519303D

 43 46  0  0  0  0  0  0  0  0999 V2000
   36.7490   28.2320   41.6600 C   0  0  0  0  0  0  0  0  0  0  0  0
   37.1470   29.5180   42.0700 C   0  0  0  0  0  0  0  0  0  0  0  0
   36.7590   30.6390   41.3080 C   0  0  0  0  0  0  0  0  0  0  0  0
   36.0020   30.3800   40.1940 N   0  0  0  0  0  0  0  0  0  0  0  0
   35.6390   29.0970   39.8360 C   0  0  0  0  0  0  0  0  0  0  0  0
   36.0170   28.0660   40.5700 N   0  0  0  0  0  0  0  0  0  0  0  0
   37.7370   29.8130   42.9250 H   0  0  0  0  0  0  0  0  0  0  0  0
   37.0200   31.6460   41.5520 H   0  0  0  0  0  0  0  0  0  0  0  0
   37.2240   27.1400   42.5370 C   0  0  0  0  0  0  0  0  0  0  0  0
   38.0750   27.5660   43.6320 C   0  0  0  0  0  0  0  0  0  0  0  0
   39.4840   27.1360   43.5470 C   0  0  0  0  0  0  0  0  0  0  0  0
   39.6250   25.6310   43.3350 C   0  0  0  0  0  0  0  0  0  0  0  0
   38.5720   25.0320   42.4460 C   0  0  0  0  0  0  0  0  0  0  0  0
   37.9060   26.1100   41.6010 C   0  0  0  0  0  0  0  0  0  0  0  0
   36.3030   26.6040   42.9030 H   0  0  0  0  0  0  0  0  0  0  0  0
   37.6700   27.1720   44.6110 H   0  0  0  0  0  0  0  0  0  0  0  0
   38.0520   28.6590   43.7320 H   0  0  0  0  0  0  0  0  0  0  0  0
   39.9260   27.3020   44.5750 H   0  0  0  0  0  0  0  0  0  0  0  0
   40.1450   27.7110   42.8820 H   0  0  0  0  0  0  0  0  0  0  0  0
   39.7460   25.0790   44.2790 H   0  0  0  0  0  0  0  0  0  0  0  0
   40.6000   25.5070   42.7990 H   0  0  0  0  0  0  0  0  0  0  0  0
   38.9370   24.2690   41.7440 H   0  0  0  0  0  0  0  0  0  0  0  0
   37.7650   24.6390   43.1000 H   0  0  0  0  0  0  0  0  0  0  0  0
   38.6210   26.6600   40.9580 H   0  0  0  0  0  0  0  0  0  0  0  0
   37.0840   25.6240   41.0420 H   0  0  0  0  0  0  0  0  0  0  0  0
   34.8410   29.0300   38.6190 C   0  0  0  0  0  0  0  0  0  0  0  0
   35.4690   29.1580   37.4280 N   0  0  0  0  0  0  0  0  0  0  0  0
   34.5400   29.0610   36.4480 C   0  0  0  0  0  0  0  0  0  0  0  0
   33.3410   28.8740   37.0460 N   0  0  0  0  0  0  0  0  0  0  0  0
   33.5110   28.8530   38.3790 N   0  0  0  0  0  0  0  0  0  0  0  0
   34.7830   29.1300   35.4010 H   0  0  0  0  0  0  0  0  0  0  0  0
   32.0650   28.7140   36.3690 C   0  0  0  0  0  0  0  0  0  0  0  0
   32.2350   28.2960   35.3780 H   0  0  0  0  0  0  0  0  0  0  0  0
   31.4490   28.0380   37.0150 H   0  0  0  0  0  0  0  0  0  0  0  0
   30.5210   29.9620   38.4350 F   0  0  0  0  0  0  0  0  0  0  0  0
   30.6610   30.6140   37.2800 C   0  0  0  0  0  0  0  0  0  0  0  0
   31.3890   30.0440   36.2840 C   0  0  0  0  0  0  0  0  0  0  0  0
   31.5230   30.7440   35.0830 C   0  0  0  0  0  0  0  0  0  0  0  0
   32.1100   30.2910   34.2710 H   0  0  0  0  0  0  0  0  0  0  0  0
   30.9400   31.9920   34.8820 C   0  0  0  0  0  0  0  0  0  0  0  0
   31.0970   32.4680   33.9090 H   0  0  0  0  0  0  0  0  0  0  0  0
   30.2120   32.5240   35.9270 C   0  0  0  0  0  3  0  0  0  0  0  0
   30.0680   31.8550   37.1110 C   0  0  0  0  0  3  0  0  0  0  0  0
  1  2  1  0  0  0  0
  1  9  1  0  0  0  0
  2  7  1  0  0  0  0
  3  8  1  0  0  0  0
  3  2  2  0  0  0  0
  4  3  1  0  0  0  0
  5  4  2  0  0  0  0
  5  6  1  0  0  0  0
  6  1  2  0  0  0  0
  9 15  1  0  0  0  0
  9 10  1  0  0  0  0
 10 17  1  0  0  0  0
 10 16  1  0  0  0  0
 11 10  1  0  0  0  0
 11 18  1  0  0  0  0
 12 11  1  0  0  0  0
 12 20  1  0  0  0  0
 13 23  1  0  0  0  0
 13 12  1  0  0  0  0
 14 13  1  0  0  0  0
 14  9  1  0  0  0  0
 19 11  1  0  0  0  0
 21 12  1  0  0  0  0
 22 13  1  0  0  0  0
 24 14  1  0  0  0  0
 25 14  1  0  0  0  0
 26  5  1  0  0  0  0
 27 26  1  0  0  0  0
 28 29  1  0  0  0  0
 28 27  2  0  0  0  0
 29 30  1  0  0  0  0
 30 26  2  0  0  0  0
 31 28  1  0  0  0  0
 32 34  1  0  0  0  0
 32 29  1  0  0  0  0
 33 32  1  0  0  0  0
 36 35  1  0  0  0  0
 37 32  1  0  0  0  0
 37 36  2  0  0  0  0
 38 37  1  0  0  0  0
 39 38  1  0  0  0  0
 40 38  2  0  0  0  0
 40 42  1  0  0  0  0
 41 40  1  0  0  0  0
 42 43  2  0  0  0  0
 43 36  1  0  0  0  0
M  END
>  <minimizedAffinity>
-6.66121006

$$$$

 OpenBabel03242519303D

 43 46  0  0  0  0  0  0  0  0999 V2000
   39.5570   33.1180   40.3740 C   0  0  0  0  0  0  0  0  0  0  0  0
   38.6670   33.9930   39.7230 C   0  0  0  0  0  0  0  0  0  0  0  0
   37.3150   33.6210   39.5750 C   0  0  0  0  0  0  0  0  0  0  0  0
   36.9630   32.4000   40.0930 N   0  0  0  0  0  0  0  0  0  0  0  0
   37.8790   31.5800   40.7220 C   0  0  0  0  0  0  0  0  0  0  0  0
   39.1390   31.9550   40.8460 N   0  0  0  0  0  0  0  0  0  0  0  0
   38.8540   34.9640   39.2890 H   0  0  0  0  0  0  0  0  0  0  0  0
   36.5780   34.2270   39.0950 H   0  0  0  0  0  0  0  0  0  0  0  0
   40.9470   33.6180   40.4580 C   0  0  0  0  0  0  0  0  0  0  0  0
   41.2500   34.7230   39.5690 C   0  0  0  0  0  0  0  0  0  0  0  0
   42.1930   34.4190   38.4760 C   0  0  0  0  0  0  0  0  0  0  0  0
   43.4880   33.7850   38.9770 C   0  0  0  0  0  0  0  0  0  0  0  0
   43.3060   32.8430   40.1330 C   0  0  0  0  0  0  0  0  0  0  0  0
   41.8560   32.3840   40.2290 C   0  0  0  0  0  0  0  0  0  0  0  0
   41.1210   33.8850   41.5390 H   0  0  0  0  0  0  0  0  0  0  0  0
   41.6960   35.5790   40.1580 H   0  0  0  0  0  0  0  0  0  0  0  0
   40.3290   35.1270   39.1310 H   0  0  0  0  0  0  0  0  0  0  0  0
   42.5290   35.4180   38.0630 H   0  0  0  0  0  0  0  0  0  0  0  0
   41.7890   33.8960   37.5960 H   0  0  0  0  0  0  0  0  0  0  0  0
   44.2820   34.5260   39.1560 H   0  0  0  0  0  0  0  0  0  0  0  0
   43.8550   33.1660   38.1190 H   0  0  0  0  0  0  0  0  0  0  0  0
   43.9170   31.9310   40.0890 H   0  0  0  0  0  0  0  0  0  0  0  0
   43.4870   33.4180   41.0660 H   0  0  0  0  0  0  0  0  0  0  0  0
   41.5040   31.8710   39.3120 H   0  0  0  0  0  0  0  0  0  0  0  0
   41.7680   31.7720   41.1470 H   0  0  0  0  0  0  0  0  0  0  0  0
   37.3120   30.3250   41.1980 C   0  0  0  0  0  0  0  0  0  0  0  0
   36.3830   29.7060   40.4350 N   0  0  0  0  0  0  0  0  0  0  0  0
   36.0060   28.5690   41.0660 C   0  0  0  0  0  0  0  0  0  0  0  0
   36.7100   28.4960   42.2180 N   0  0  0  0  0  0  0  0  0  0  0  0
   37.5160   29.5670   42.3130 N   0  0  0  0  0  0  0  0  0  0  0  0
   35.2720   27.8920   40.6640 H   0  0  0  0  0  0  0  0  0  0  0  0
   36.6240   27.4320   43.2060 C   0  0  0  0  0  0  0  0  0  0  0  0
   36.8630   27.8350   44.1880 H   0  0  0  0  0  0  0  0  0  0  0  0
   35.5770   27.0380   43.1510 H   0  0  0  0  0  0  0  0  0  0  0  0
   39.4410   27.3730   43.7240 F   0  0  0  0  0  0  0  0  0  0  0  0
   38.9020   26.3350   43.0840 C   0  0  0  0  0  0  0  0  0  0  0  0
   37.5690   26.3380   42.8260 C   0  0  0  0  0  0  0  0  0  0  0  0
   37.0250   25.2410   42.1540 C   0  0  0  0  0  0  0  0  0  0  0  0
   35.9460   25.2340   41.9410 H   0  0  0  0  0  0  0  0  0  0  0  0
   37.8020   24.1590   41.7490 C   0  0  0  0  0  0  0  0  0  0  0  0
   37.2910   23.3420   41.2280 H   0  0  0  0  0  0  0  0  0  0  0  0
   39.1500   24.2080   42.0370 C   0  0  0  0  0  3  0  0  0  0  0  0
   39.7030   25.2730   42.6930 C   0  0  0  0  0  3  0  0  0  0  0  0
  1  9  1  0  0  0  0
  1  6  1  0  0  0  0
  2  1  2  0  0  0  0
  3  2  1  0  0  0  0
  3  4  2  0  0  0  0
  4  5  1  0  0  0  0
  5  6  2  0  0  0  0
  5 26  1  0  0  0  0
  7  2  1  0  0  0  0
  8  3  1  0  0  0  0
  9 15  1  0  0  0  0
 10 16  1  0  0  0  0
 10  9  1  0  0  0  0
 11 12  1  0  0  0  0
 11 10  1  0  0  0  0
 12 20  1  0  0  0  0
 12 13  1  0  0  0  0
 13 14  1  0  0  0  0
 13 23  1  0  0  0  0
 14  9  1  0  0  0  0
 14 25  1  0  0  0  0
 17 10  1  0  0  0  0
 18 11  1  0  0  0  0
 19 11  1  0  0  0  0
 21 12  1  0  0  0  0
 22 13  1  0  0  0  0
 24 14  1  0  0  0  0
 26 30  2  0  0  0  0
 27 28  2  0  0  0  0
 27 26  1  0  0  0  0
 28 29  1  0  0  0  0
 29 30  1  0  0  0  0
 29 32  1  0  0  0  0
 31 28  1  0  0  0  0
 32 33  1  0  0  0  0
 34 32  1  0  0  0  0
 36 35  1  0  0  0  0
 37 36  1  0  0  0  0
 37 32  1  0  0  0  0
 38 37  2  0  0  0  0
 39 38  1  0  0  0  0
 40 42  2  0  0  0  0
 40 38  1  0  0  0  0
 41 40  1  0  0  0  0
 42 43  1  0  0  0  0
 43 36  2  0  0  0  0
M  END
>  <minimizedAffinity>
-6.31645966

$$$$

 OpenBabel03242519303D

 43 46  0  0  0  0  0  0  0  0999 V2000
   32.8560   29.2370   37.0230 C   0  0  0  0  0  0  0  0  0  0  0  0
   33.4540   29.1120   35.7540 C   0  0  0  0  0  0  0  0  0  0  0  0
   34.8340   28.8380   35.6630 C   0  0  0  0  0  0  0  0  0  0  0  0
   35.5050   28.7100   36.8530 N   0  0  0  0  0  0  0  0  0  0  0  0
   34.8680   28.8420   38.0710 C   0  0  0  0  0  0  0  0  0  0  0  0
   33.5740   29.0990   38.1260 N   0  0  0  0  0  0  0  0  0  0  0  0
   33.0080   29.1970   34.7740 H   0  0  0  0  0  0  0  0  0  0  0  0
   35.3610   28.7290   34.7410 H   0  0  0  0  0  0  0  0  0  0  0  0
   31.4070   29.5320   36.9840 C   0  0  0  0  0  0  0  0  0  0  0  0
   31.0080   30.4910   35.9720 C   0  0  0  0  0  0  0  0  0  0  0  0
   30.5240   31.7880   36.4810 C   0  0  0  0  0  0  0  0  0  0  0  0
   29.4130   31.6340   37.5160 C   0  0  0  0  0  0  0  0  0  0  0  0
   29.5810   30.4520   38.4290 C   0  0  0  0  0  0  0  0  0  0  0  0
   31.0250   29.9690   38.4210 C   0  0  0  0  0  0  0  0  0  0  0  0
   30.8860   28.5410   36.8560 H   0  0  0  0  0  0  0  0  0  0  0  0
   30.1800   30.0580   35.3360 H   0  0  0  0  0  0  0  0  0  0  0  0
   31.8350   30.6790   35.2750 H   0  0  0  0  0  0  0  0  0  0  0  0
   30.0070   32.2950   35.6110 H   0  0  0  0  0  0  0  0  0  0  0  0
   31.2840   32.5200   36.7950 H   0  0  0  0  0  0  0  0  0  0  0  0
   28.4080   31.6860   37.0710 H   0  0  0  0  0  0  0  0  0  0  0  0
   29.4930   32.5470   38.1610 H   0  0  0  0  0  0  0  0  0  0  0  0
   29.3220   30.6380   39.4810 H   0  0  0  0  0  0  0  0  0  0  0  0
   28.9940   29.6130   38.0010 H   0  0  0  0  0  0  0  0  0  0  0  0
   31.7440   30.7490   38.7390 H   0  0  0  0  0  0  0  0  0  0  0  0
   31.0630   29.0480   39.0350 H   0  0  0  0  0  0  0  0  0  0  0  0
   35.7530   28.6780   39.2170 C   0  0  0  0  0  0  0  0  0  0  0  0
   37.0790   28.8730   39.0410 N   0  0  0  0  0  0  0  0  0  0  0  0
   37.6970   28.6710   40.2290 C   0  0  0  0  0  0  0  0  0  0  0  0
   36.7420   28.3520   41.1310 N   0  0  0  0  0  0  0  0  0  0  0  0
   35.5430   28.3520   40.5250 N   0  0  0  0  0  0  0  0  0  0  0  0
   38.7620   28.7650   40.3580 H   0  0  0  0  0  0  0  0  0  0  0  0
   36.9600   28.0580   42.5380 C   0  0  0  0  0  0  0  0  0  0  0  0
   37.4600   28.9030   43.0080 H   0  0  0  0  0  0  0  0  0  0  0  0
   35.9490   27.8630   42.9790 H   0  0  0  0  0  0  0  0  0  0  0  0
   39.5990   27.8680   43.6400 F   0  0  0  0  0  0  0  0  0  0  0  0
   39.0320   26.7510   43.1810 C   0  0  0  0  0  0  0  0  0  0  0  0
   37.7810   26.8140   42.6540 C   0  0  0  0  0  0  0  0  0  0  0  0
   37.2070   25.6330   42.1790 C   0  0  0  0  0  0  0  0  0  0  0  0
   36.1950   25.6730   41.7510 H   0  0  0  0  0  0  0  0  0  0  0  0
   37.8710   24.4110   42.2320 C   0  0  0  0  0  0  0  0  0  0  0  0
   37.3440   23.5360   41.8370 H   0  0  0  0  0  0  0  0  0  0  0  0
   39.1380   24.4050   42.7770 C   0  0  0  0  0  3  0  0  0  0  0  0
   39.7200   25.5500   43.2480 C   0  0  0  0  0  3  0  0  0  0  0  0
  1  6  1  0  0  0  0
  2  1  2  0  0  0  0
  3  2  1  0  0  0  0
  3  4  2  0  0  0  0
  4  5  1  0  0  0  0
  5  6  2  0  0  0  0
  5 26  1  0  0  0  0
  7  2  1  0  0  0  0
  8  3  1  0  0  0  0
  9  1  1  0  0  0  0
  9 14  1  0  0  0  0
 10 11  1  0  0  0  0
 10  9  1  0  0  0  0
 11 19  1  0  0  0  0
 11 12  1  0  0  0  0
 12 21  1  0  0  0  0
 12 13  1  0  0  0  0
 13 22  1  0  0  0  0
 14 13  1  0  0  0  0
 14 24  1  0  0  0  0
 14 25  1  0  0  0  0
 15  9  1  0  0  0  0
 16 10  1  0  0  0  0
 17 10  1  0  0  0  0
 18 11  1  0  0  0  0
 20 12  1  0  0  0  0
 23 13  1  0  0  0  0
 26 30  2  0  0  0  0
 27 26  1  0  0  0  0
 27 28  2  0  0  0  0
 28 31  1  0  0  0  0
 28 29  1  0  0  0  0
 29 32  1  0  0  0  0
 30 29  1  0  0  0  0
 32 37  1  0  0  0  0
 32 34  1  0  0  0  0
 32 33  1  0  0  0  0
 36 43  1  0  0  0  0
 36 35  1  0  0  0  0
 37 36  2  0  0  0  0
 38 40  2  0  0  0  0
 38 37  1  0  0  0  0
 39 38  1  0  0  0  0
 40 42  1  0  0  0  0
 41 40  1  0  0  0  0
 42 43  2  0  0  0  0
M  END
>  <minimizedAffinity>
-6.19445753

$$$$

 OpenBabel03242519303D

 43 46  0  0  0  0  0  0  0  0999 V2000
   40.6900   33.0400   39.1200 C   0  0  0  0  0  0  0  0  0  0  0  0
   40.3920   34.3520   39.5370 C   0  0  0  0  0  0  0  0  0  0  0  0
   39.4340   34.5560   40.5500 C   0  0  0  0  0  0  0  0  0  0  0  0
   38.8490   33.4260   41.0650 N   0  0  0  0  0  0  0  0  0  0  0  0
   39.1780   32.1620   40.6190 C   0  0  0  0  0  0  0  0  0  0  0  0
   40.0810   32.0020   39.6680 N   0  0  0  0  0  0  0  0  0  0  0  0
   40.8000   35.2910   39.1910 H   0  0  0  0  0  0  0  0  0  0  0  0
   39.1520   35.5160   40.9210 H   0  0  0  0  0  0  0  0  0  0  0  0
   41.7060   32.9600   38.0480 C   0  0  0  0  0  0  0  0  0  0  0  0
   41.4130   31.9980   37.0040 C   0  0  0  0  0  0  0  0  0  0  0  0
   42.3110   30.8280   36.9480 C   0  0  0  0  0  0  0  0  0  0  0  0
   43.7850   31.2220   36.8920 C   0  0  0  0  0  0  0  0  0  0  0  0
   44.1310   32.4310   37.7150 C   0  0  0  0  0  0  0  0  0  0  0  0
   43.0560   32.6940   38.7610 C   0  0  0  0  0  0  0  0  0  0  0  0
   41.8180   34.0050   37.6400 H   0  0  0  0  0  0  0  0  0  0  0  0
   41.4650   32.5000   35.9920 H   0  0  0  0  0  0  0  0  0  0  0  0
   40.3800   31.6380   37.0920 H   0  0  0  0  0  0  0  0  0  0  0  0
   42.1290   30.3400   35.9430 H   0  0  0  0  0  0  0  0  0  0  0  0
   42.1260   30.0180   37.6690 H   0  0  0  0  0  0  0  0  0  0  0  0
   44.1690   31.2860   35.8630 H   0  0  0  0  0  0  0  0  0  0  0  0
   44.3300   30.3590   37.3530 H   0  0  0  0  0  0  0  0  0  0  0  0
   45.0840   32.3650   38.2590 H   0  0  0  0  0  0  0  0  0  0  0  0
   44.0990   33.3140   37.0420 H   0  0  0  0  0  0  0  0  0  0  0  0
   42.9090   31.8420   39.4540 H   0  0  0  0  0  0  0  0  0  0  0  0
   43.3200   33.6420   39.2680 H   0  0  0  0  0  0  0  0  0  0  0  0
   38.4440   31.0940   41.2850 C   0  0  0  0  0  0  0  0  0  0  0  0
   37.2650   30.6950   40.7570 N   0  0  0  0  0  0  0  0  0  0  0  0
   36.7690   29.7010   41.5320 C   0  0  0  0  0  0  0  0  0  0  0  0
   37.6510   29.4960   42.5360 N   0  0  0  0  0  0  0  0  0  0  0  0
   38.6840   30.3430   42.3980 N   0  0  0  0  0  0  0  0  0  0  0  0
   35.8330   29.2100   41.3260 H   0  0  0  0  0  0  0  0  0  0  0  0
   37.5200   28.5140   43.6000 C   0  0  0  0  0  0  0  0  0  0  0  0
   38.1000   28.8390   44.4610 H   0  0  0  0  0  0  0  0  0  0  0  0
   36.4250   28.4420   43.8270 H   0  0  0  0  0  0  0  0  0  0  0  0
   40.2230   27.5650   43.6240 F   0  0  0  0  0  0  0  0  0  0  0  0
   39.2840   26.7620   43.1230 C   0  0  0  0  0  0  0  0  0  0  0  0
   37.9940   27.1870   43.1000 C   0  0  0  0  0  0  0  0  0  0  0  0
   37.0270   26.3310   42.5710 C   0  0  0  0  0  0  0  0  0  0  0  0
   35.9800   26.6660   42.5480 H   0  0  0  0  0  0  0  0  0  0  0  0
   37.3450   25.0690   42.0740 C   0  0  0  0  0  0  0  0  0  0  0  0
   36.5210   24.4650   41.6790 H   0  0  0  0  0  0  0  0  0  0  0  0
   38.6690   24.6880   42.1220 C   0  0  0  0  0  3  0  0  0  0  0  0
   39.6330   25.5110   42.6360 C   0  0  0  0  0  3  0  0  0  0  0  0
  1  2  2  0  0  0  0
  1  6  1  0  0  0  0
  2  3  1  0  0  0  0
  3  8  1  0  0  0  0
  3  4  2  0  0  0  0
  5  4  1  0  0  0  0
  5 26  1  0  0  0  0
  6  5  2  0  0  0  0
  7  2  1  0  0  0  0
  9 14  1  0  0  0  0
  9  1  1  0  0  0  0
 10 17  1  0  0  0  0
 10  9  1  0  0  0  0
 11 10  1  0  0  0  0
 11 19  1  0  0  0  0
 12 11  1  0  0  0  0
 12 21  1  0  0  0  0
 12 13  1  0  0  0  0
 13 22  1  0  0  0  0
 13 14  1  0  0  0  0
 14 25  1  0  0  0  0
 14 24  1  0  0  0  0
 15  9  1  0  0  0  0
 16 10  1  0  0  0  0
 18 11  1  0  0  0  0
 20 12  1  0  0  0  0
 23 13  1  0  0  0  0
 26 30  2  0  0  0  0
 27 26  1  0  0  0  0
 27 28  2  0  0  0  0
 28 29  1  0  0  0  0
 29 32  1  0  0  0  0
 30 29  1  0  0  0  0
 31 28  1  0  0  0  0
 32 34  1  0  0  0  0
 32 33  1  0  0  0  0
 36 35  1  0  0  0  0
 37 36  1  0  0  0  0
 37 32  1  0  0  0  0
 38 37  2  0  0  0  0
 39 38  1  0  0  0  0
 40 42  2  0  0  0  0
 40 38  1  0  0  0  0
 41 40  1  0  0  0  0
 42 43  1  0  0  0  0
 43 36  2  0  0  0  0
M  END
>  <minimizedAffinity>
-6.12064981

$$$$

 OpenBabel03242519303D

 43 46  0  0  0  0  0  0  0  0999 V2000
   32.8690   29.1730   37.1660 C   0  0  0  0  0  0  0  0  0  0  0  0
   33.5640   29.1840   35.9410 C   0  0  0  0  0  0  0  0  0  0  0  0
   34.9410   28.8830   35.9240 C   0  0  0  0  0  0  0  0  0  0  0  0
   35.5120   28.5950   37.1380 N   0  0  0  0  0  0  0  0  0  0  0  0
   34.7830   28.5990   38.3100 C   0  0  0  0  0  0  0  0  0  0  0  0
   33.4940   28.8850   38.2960 N   0  0  0  0  0  0  0  0  0  0  0  0
   33.1980   29.3980   34.9470 H   0  0  0  0  0  0  0  0  0  0  0  0
   35.5380   28.8700   35.0390 H   0  0  0  0  0  0  0  0  0  0  0  0
   31.4340   29.5120   37.0520 C   0  0  0  0  0  0  0  0  0  0  0  0
   31.1150   30.4680   36.0090 C   0  0  0  0  0  0  0  0  0  0  0  0
   30.6470   31.7870   36.4770 C   0  0  0  0  0  0  0  0  0  0  0  0
   29.4830   31.6820   37.4570 C   0  0  0  0  0  0  0  0  0  0  0  0
   29.5690   30.5100   38.3930 C   0  0  0  0  0  0  0  0  0  0  0  0
   30.9960   29.9820   38.4630 C   0  0  0  0  0  0  0  0  0  0  0  0
   30.8880   28.5360   36.9110 H   0  0  0  0  0  0  0  0  0  0  0  0
   30.3050   30.0510   35.3390 H   0  0  0  0  0  0  0  0  0  0  0  0
   31.9800   30.6200   35.3510 H   0  0  0  0  0  0  0  0  0  0  0  0
   30.1900   32.2960   35.5750 H   0  0  0  0  0  0  0  0  0  0  0  0
   31.4130   32.5000   36.8170 H   0  0  0  0  0  0  0  0  0  0  0  0
   28.5030   31.7590   36.9630 H   0  0  0  0  0  0  0  0  0  0  0  0
   29.5600   32.6010   38.0940 H   0  0  0  0  0  0  0  0  0  0  0  0
   29.2650   30.7190   39.4290 H   0  0  0  0  0  0  0  0  0  0  0  0
   28.9770   29.6820   37.9480 H   0  0  0  0  0  0  0  0  0  0  0  0
   31.7230   30.7450   38.8050 H   0  0  0  0  0  0  0  0  0  0  0  0
   30.9750   29.0700   39.0900 H   0  0  0  0  0  0  0  0  0  0  0  0
   35.5700   28.2740   39.4920 C   0  0  0  0  0  0  0  0  0  0  0  0
   36.3960   27.2040   39.4430 N   0  0  0  0  0  0  0  0  0  0  0  0
   37.0210   27.0980   40.6400 C   0  0  0  0  0  0  0  0  0  0  0  0
   36.5740   28.1070   41.4200 N   0  0  0  0  0  0  0  0  0  0  0  0
   35.6820   28.8380   40.7290 N   0  0  0  0  0  0  0  0  0  0  0  0
   37.7350   26.3220   40.8600 H   0  0  0  0  0  0  0  0  0  0  0  0
   36.9850   28.3760   42.7880 C   0  0  0  0  0  0  0  0  0  0  0  0
   36.4720   29.2660   43.1480 H   0  0  0  0  0  0  0  0  0  0  0  0
   36.7210   27.4640   43.3800 H   0  0  0  0  0  0  0  0  0  0  0  0
   38.9090   26.4370   43.6520 F   0  0  0  0  0  0  0  0  0  0  0  0
   39.3590   27.6210   43.2390 C   0  0  0  0  0  0  0  0  0  0  0  0
   38.4680   28.5590   42.8230 C   0  0  0  0  0  0  0  0  0  0  0  0
   38.9610   29.7930   42.3950 C   0  0  0  0  0  0  0  0  0  0  0  0
   38.2480   30.5580   42.0570 H   0  0  0  0  0  0  0  0  0  0  0  0
   40.3230   30.0830   42.3810 C   0  0  0  0  0  0  0  0  0  0  0  0
   40.6200   31.0770   42.0280 H   0  0  0  0  0  0  0  0  0  0  0  0
   41.1830   29.0960   42.8120 C   0  0  0  0  0  3  0  0  0  0  0  0
   40.7210   27.8800   43.2370 C   0  0  0  0  0  3  0  0  0  0  0  0
  1  6  1  0  0  0  0
  2  1  2  0  0  0  0
  3  2  1  0  0  0  0
  3  4  2  0  0  0  0
  4  5  1  0  0  0  0
  5 26  1  0  0  0  0
  6  5  2  0  0  0  0
  7  2  1  0  0  0  0
  8  3  1  0  0  0  0
  9  1  1  0  0  0  0
  9 14  1  0  0  0  0
 10 11  1  0  0  0  0
 10  9  1  0  0  0  0
 11 19  1  0  0  0  0
 11 12  1  0  0  0  0
 12 21  1  0  0  0  0
 12 13  1  0  0  0  0
 13 14  1  0  0  0  0
 13 22  1  0  0  0  0
 14 24  1  0  0  0  0
 14 25  1  0  0  0  0
 15  9  1  0  0  0  0
 16 10  1  0  0  0  0
 17 10  1  0  0  0  0
 18 11  1  0  0  0  0
 20 12  1  0  0  0  0
 23 13  1  0  0  0  0
 26 30  2  0  0  0  0
 27 26  1  0  0  0  0
 27 28  2  0  0  0  0
 28 31  1  0  0  0  0
 28 29  1  0  0  0  0
 29 32  1  0  0  0  0
 30 29  1  0  0  0  0
 32 37  1  0  0  0  0
 32 33  1  0  0  0  0
 32 34  1  0  0  0  0
 36 35  1  0  0  0  0
 37 36  2  0  0  0  0
 38 37  1  0  0  0  0
 39 38  1  0  0  0  0
 40 38  2  0  0  0  0
 40 42  1  0  0  0  0
 41 40  1  0  0  0  0
 42 43  2  0  0  0  0
 43 36  1  0  0  0  0
M  END
>  <minimizedAffinity>
-6.03123808

$$$$

 OpenBabel03242519303D

 43 46  0  0  0  0  0  0  0  0999 V2000
   37.2490   27.0130   41.8180 C   0  0  0  0  0  0  0  0  0  0  0  0
   36.9040   26.9140   43.1790 C   0  0  0  0  0  0  0  0  0  0  0  0
   37.1610   28.0000   44.0390 C   0  0  0  0  0  0  0  0  0  0  0  0
   37.7430   29.1020   43.4650 N   0  0  0  0  0  0  0  0  0  0  0  0
   38.0610   29.1460   42.1220 C   0  0  0  0  0  0  0  0  0  0  0  0
   37.8090   28.1120   41.3400 N   0  0  0  0  0  0  0  0  0  0  0  0
   36.4470   26.0930   43.7130 H   0  0  0  0  0  0  0  0  0  0  0  0
   36.9300   28.0040   45.0820 H   0  0  0  0  0  0  0  0  0  0  0  0
   36.9360   25.8050   41.0230 C   0  0  0  0  0  0  0  0  0  0  0  0
   36.9170   24.5680   41.7790 C   0  0  0  0  0  0  0  0  0  0  0  0
   37.9970   23.6130   41.4630 C   0  0  0  0  0  0  0  0  0  0  0  0
   38.0930   23.3090   39.9710 C   0  0  0  0  0  0  0  0  0  0  0  0
   37.8090   24.4870   39.0810 C   0  0  0  0  0  0  0  0  0  0  0  0
   37.9550   25.7900   39.8550 C   0  0  0  0  0  0  0  0  0  0  0  0
   35.9490   26.0060   40.5170 H   0  0  0  0  0  0  0  0  0  0  0  0
   35.9400   24.0260   41.6060 H   0  0  0  0  0  0  0  0  0  0  0  0
   36.9420   24.7760   42.8560 H   0  0  0  0  0  0  0  0  0  0  0  0
   37.6860   22.6240   41.9170 H   0  0  0  0  0  0  0  0  0  0  0  0
   38.9840   23.8060   41.9100 H   0  0  0  0  0  0  0  0  0  0  0  0
   37.5220   22.4130   39.6830 H   0  0  0  0  0  0  0  0  0  0  0  0
   39.1660   23.0360   39.8010 H   0  0  0  0  0  0  0  0  0  0  0  0
   38.4640   24.5730   38.2030 H   0  0  0  0  0  0  0  0  0  0  0  0
   36.7370   24.4390   38.7960 H   0  0  0  0  0  0  0  0  0  0  0  0
   38.9660   25.9260   40.2880 H   0  0  0  0  0  0  0  0  0  0  0  0
   37.6450   26.6080   39.1760 H   0  0  0  0  0  0  0  0  0  0  0  0
   38.6770   30.3990   41.7050 C   0  0  0  0  0  0  0  0  0  0  0  0
   39.8820   30.7290   42.2230 N   0  0  0  0  0  0  0  0  0  0  0  0
   40.2580   31.9190   41.6960 C   0  0  0  0  0  0  0  0  0  0  0  0
   39.2760   32.3140   40.8540 N   0  0  0  0  0  0  0  0  0  0  0  0
   38.2990   31.3910   40.8490 N   0  0  0  0  0  0  0  0  0  0  0  0
   41.1850   32.4040   41.9490 H   0  0  0  0  0  0  0  0  0  0  0  0
   39.2670   33.5370   40.0680 C   0  0  0  0  0  0  0  0  0  0  0  0
   38.3020   33.6380   39.5750 H   0  0  0  0  0  0  0  0  0  0  0  0
   39.4680   34.3730   40.7860 H   0  0  0  0  0  0  0  0  0  0  0  0
   39.5570   31.6200   37.9580 F   0  0  0  0  0  0  0  0  0  0  0  0
   40.4930   32.5620   38.0790 C   0  0  0  0  0  0  0  0  0  0  0  0
   40.3790   33.4830   39.0710 C   0  0  0  0  0  0  0  0  0  0  0  0
   41.3700   34.4600   39.1790 C   0  0  0  0  0  0  0  0  0  0  0  0
   41.2870   35.2110   39.9790 H   0  0  0  0  0  0  0  0  0  0  0  0
   42.4560   34.5160   38.3100 C   0  0  0  0  0  0  0  0  0  0  0  0
   43.1850   35.3170   38.4690 H   0  0  0  0  0  0  0  0  0  0  0  0
   42.5220   33.5570   37.3210 C   0  0  0  0  0  3  0  0  0  0  0  0
   41.5620   32.5900   37.1970 C   0  0  0  0  0  3  0  0  0  0  0  0
  1  2  1  0  0  0  0
  2  7  1  0  0  0  0
  2  3  2  0  0  0  0
  3  8  1  0  0  0  0
  4  3  1  0  0  0  0
  5  4  2  0  0  0  0
  6  1  2  0  0  0  0
  6  5  1  0  0  0  0
  9 10  1  0  0  0  0
  9  1  1  0  0  0  0
 10 17  1  0  0  0  0
 11 10  1  0  0  0  0
 11 19  1  0  0  0  0
 11 18  1  0  0  0  0
 12 11  1  0  0  0  0
 13 14  1  0  0  0  0
 13 12  1  0  0  0  0
 14 24  1  0  0  0  0
 14  9  1  0  0  0  0
 15  9  1  0  0  0  0
 16 10  1  0  0  0  0
 20 12  1  0  0  0  0
 21 12  1  0  0  0  0
 22 13  1  0  0  0  0
 23 13  1  0  0  0  0
 25 14  1  0  0  0  0
 26  5  1  0  0  0  0
 26 27  1  0  0  0  0
 28 31  1  0  0  0  0
 28 27  2  0  0  0  0
 29 28  1  0  0  0  0
 30 29  1  0  0  0  0
 30 26  2  0  0  0  0
 32 34  1  0  0  0  0
 32 29  1  0  0  0  0
 33 32  1  0  0  0  0
 35 36  1  0  0  0  0
 36 37  1  0  0  0  0
 37 38  2  0  0  0  0
 37 32  1  0  0  0  0
 38 39  1  0  0  0  0
 40 41  1  0  0  0  0
 40 38  1  0  0  0  0
 42 40  2  0  0  0  0
 43 42  1  0  0  0  0
 43 36  2  0  0  0  0
M  END
>  <minimizedAffinity>
-5.97202969

$$$$

 OpenBabel03242519303D

 43 46  0  0  0  0  0  0  0  0999 V2000
   39.2810   32.4070   40.8770 C   0  0  0  0  0  0  0  0  0  0  0  0
   38.0560   32.7850   40.2960 C   0  0  0  0  0  0  0  0  0  0  0  0
   36.9560   31.9050   40.3640 C   0  0  0  0  0  0  0  0  0  0  0  0
   37.1740   30.7150   41.0110 N   0  0  0  0  0  0  0  0  0  0  0  0
   38.3980   30.3940   41.5630 C   0  0  0  0  0  0  0  0  0  0  0  0
   39.4100   31.2380   41.4830 N   0  0  0  0  0  0  0  0  0  0  0  0
   37.7960   33.6930   39.7720 H   0  0  0  0  0  0  0  0  0  0  0  0
   35.9960   32.1170   39.9500 H   0  0  0  0  0  0  0  0  0  0  0  0
   40.3570   33.4120   40.7310 C   0  0  0  0  0  0  0  0  0  0  0  0
   40.3370   34.1480   39.4820 C   0  0  0  0  0  0  0  0  0  0  0  0
   41.4600   33.8740   38.5650 C   0  0  0  0  0  0  0  0  0  0  0  0
   42.8200   34.0320   39.2380 C   0  0  0  0  0  0  0  0  0  0  0  0
   42.8550   33.5760   40.6700 C   0  0  0  0  0  0  0  0  0  0  0  0
   41.6850   32.6480   40.9670 C   0  0  0  0  0  0  0  0  0  0  0  0
   40.2760   34.0930   41.6250 H   0  0  0  0  0  0  0  0  0  0  0  0
   40.3470   35.2590   39.6900 H   0  0  0  0  0  0  0  0  0  0  0  0
   39.3970   33.9660   38.9450 H   0  0  0  0  0  0  0  0  0  0  0  0
   41.4460   34.7040   37.7950 H   0  0  0  0  0  0  0  0  0  0  0  0
   41.4010   32.9570   37.9600 H   0  0  0  0  0  0  0  0  0  0  0  0
   43.2470   35.0370   39.1030 H   0  0  0  0  0  0  0  0  0  0  0  0
   43.5020   33.3470   38.6710 H   0  0  0  0  0  0  0  0  0  0  0  0
   43.7650   33.0320   40.9610 H   0  0  0  0  0  0  0  0  0  0  0  0
   42.6840   34.4680   41.3090 H   0  0  0  0  0  0  0  0  0  0  0  0
   41.6740   31.7460   40.3230 H   0  0  0  0  0  0  0  0  0  0  0  0
   41.7140   32.4240   42.0500 H   0  0  0  0  0  0  0  0  0  0  0  0
   38.4300   29.0840   42.2000 C   0  0  0  0  0  0  0  0  0  0  0  0
   37.7730   28.9190   43.3710 N   0  0  0  0  0  0  0  0  0  0  0  0
   37.9360   27.6350   43.7700 C   0  0  0  0  0  0  0  0  0  0  0  0
   38.6950   27.0170   42.8380 N   0  0  0  0  0  0  0  0  0  0  0  0
   39.0060   27.8930   41.8680 N   0  0  0  0  0  0  0  0  0  0  0  0
   37.5090   27.2470   44.6790 H   0  0  0  0  0  0  0  0  0  0  0  0
   39.1120   25.6250   42.8630 C   0  0  0  0  0  0  0  0  0  0  0  0
   40.1940   25.5730   42.7590 H   0  0  0  0  0  0  0  0  0  0  0  0
   38.7590   25.2090   43.8410 H   0  0  0  0  0  0  0  0  0  0  0  0
   36.3430   24.8920   42.7730 F   0  0  0  0  0  0  0  0  0  0  0  0
   37.1120   24.5550   41.7370 C   0  0  0  0  0  0  0  0  0  0  0  0
   38.4280   24.8910   41.7550 C   0  0  0  0  0  0  0  0  0  0  0  0
   39.2150   24.5280   40.6600 C   0  0  0  0  0  0  0  0  0  0  0  0
   40.2820   24.7950   40.6640 H   0  0  0  0  0  0  0  0  0  0  0  0
   38.6940   23.8420   39.5660 C   0  0  0  0  0  0  0  0  0  0  0  0
   39.3840   23.5990   38.7510 H   0  0  0  0  0  0  0  0  0  0  0  0
   37.3520   23.5270   39.6000 C   0  0  0  0  0  3  0  0  0  0  0  0
   36.5630   23.8720   40.6630 C   0  0  0  0  0  3  0  0  0  0  0  0
  1  6  1  0  0  0  0
  2  3  1  0  0  0  0
  2  1  2  0  0  0  0
  3  4  2  0  0  0  0
  4  5  1  0  0  0  0
  5 26  1  0  0  0  0
  6  5  2  0  0  0  0
  7  2  1  0  0  0  0
  8  3  1  0  0  0  0
  9  1  1  0  0  0  0
  9 14  1  0  0  0  0
  9 15  1  0  0  0  0
 10 16  1  0  0  0  0
 10  9  1  0  0  0  0
 11 12  1  0  0  0  0
 11 10  1  0  0  0  0
 12 13  1  0  0  0  0
 13 22  1  0  0  0  0
 13 14  1  0  0  0  0
 13 23  1  0  0  0  0
 14 25  1  0  0  0  0
 17 10  1  0  0  0  0
 18 11  1  0  0  0  0
 19 11  1  0  0  0  0
 20 12  1  0  0  0  0
 21 12  1  0  0  0  0
 24 14  1  0  0  0  0
 26 27  1  0  0  0  0
 27 28  2  0  0  0  0
 28 31  1  0  0  0  0
 29 32  1  0  0  0  0
 29 28  1  0  0  0  0
 30 26  2  0  0  0  0
 30 29  1  0  0  0  0
 32 34  1  0  0  0  0
 33 32  1  0  0  0  0
 36 37  1  0  0  0  0
 36 35  1  0  0  0  0
 37 32  1  0  0  0  0
 38 39  1  0  0  0  0
 38 37  2  0  0  0  0
 40 42  2  0  0  0  0
 40 38  1  0  0  0  0
 41 40  1  0  0  0  0
 42 43  1  0  0  0  0
 43 36  2  0  0  0  0
M  END
>  <minimizedAffinity>
-5.9301672

$$$$

 OpenBabel03242519303D

 43 46  0  0  0  0  0  0  0  0999 V2000
   41.3790   32.9880   40.0730 C   0  0  0  0  0  0  0  0  0  0  0  0
   40.6980   34.2060   39.8870 C   0  0  0  0  0  0  0  0  0  0  0  0
   39.3460   34.3100   40.2720 C   0  0  0  0  0  0  0  0  0  0  0  0
   38.7840   33.1820   40.8150 N   0  0  0  0  0  0  0  0  0  0  0  0
   39.4990   32.0120   40.9750 C   0  0  0  0  0  0  0  0  0  0  0  0
   40.7640   31.9440   40.6050 N   0  0  0  0  0  0  0  0  0  0  0  0
   41.0570   35.1360   39.4710 H   0  0  0  0  0  0  0  0  0  0  0  0
   38.7610   35.1960   40.1640 H   0  0  0  0  0  0  0  0  0  0  0  0
   42.7870   33.0050   39.6220 C   0  0  0  0  0  0  0  0  0  0  0  0
   43.4680   31.7270   39.7030 C   0  0  0  0  0  0  0  0  0  0  0  0
   44.5470   31.6440   40.7070 C   0  0  0  0  0  0  0  0  0  0  0  0
   45.5690   32.7680   40.5630 C   0  0  0  0  0  0  0  0  0  0  0  0
   44.9790   34.0910   40.1620 C   0  0  0  0  0  0  0  0  0  0  0  0
   43.4830   34.1190   40.4460 C   0  0  0  0  0  0  0  0  0  0  0  0
   42.7780   33.4130   38.5720 H   0  0  0  0  0  0  0  0  0  0  0  0
   43.9290   31.4730   38.7040 H   0  0  0  0  0  0  0  0  0  0  0  0
   42.7490   30.9220   39.9000 H   0  0  0  0  0  0  0  0  0  0  0  0
   45.1390   30.7130   40.4560 H   0  0  0  0  0  0  0  0  0  0  0  0
   44.2470   31.4880   41.7540 H   0  0  0  0  0  0  0  0  0  0  0  0
   46.4300   32.4820   39.9410 H   0  0  0  0  0  0  0  0  0  0  0  0
   45.9880   32.9080   41.5930 H   0  0  0  0  0  0  0  0  0  0  0  0
   45.4080   34.9640   40.6720 H   0  0  0  0  0  0  0  0  0  0  0  0
   45.0640   34.1730   39.0580 H   0  0  0  0  0  0  0  0  0  0  0  0
   43.2420   33.9500   41.5140 H   0  0  0  0  0  0  0  0  0  0  0  0
   43.0940   35.0750   40.0460 H   0  0  0  0  0  0  0  0  0  0  0  0
   38.7240   30.9270   41.5630 C   0  0  0  0  0  0  0  0  0  0  0  0
   37.5680   30.5610   40.9650 N   0  0  0  0  0  0  0  0  0  0  0  0
   37.0270   29.5430   41.6760 C   0  0  0  0  0  0  0  0  0  0  0  0
   37.8580   29.2890   42.7110 N   0  0  0  0  0  0  0  0  0  0  0  0
   38.9040   30.1300   42.6550 N   0  0  0  0  0  0  0  0  0  0  0  0
   36.0980   29.0700   41.4060 H   0  0  0  0  0  0  0  0  0  0  0  0
   37.6680   28.2680   43.7280 C   0  0  0  0  0  0  0  0  0  0  0  0
   38.0090   28.6490   44.6880 H   0  0  0  0  0  0  0  0  0  0  0  0
   36.5740   28.0280   43.7310 H   0  0  0  0  0  0  0  0  0  0  0  0
   36.7670   26.2210   41.9360 F   0  0  0  0  0  0  0  0  0  0  0  0
   37.9760   26.0850   42.4820 C   0  0  0  0  0  0  0  0  0  0  0  0
   38.4270   27.0410   43.3350 C   0  0  0  0  0  0  0  0  0  0  0  0
   39.6950   26.8790   43.8950 C   0  0  0  0  0  0  0  0  0  0  0  0
   40.0700   27.6470   44.5870 H   0  0  0  0  0  0  0  0  0  0  0  0
   40.4990   25.7790   43.6070 C   0  0  0  0  0  0  0  0  0  0  0  0
   41.4800   25.7340   44.0920 H   0  0  0  0  0  0  0  0  0  0  0  0
   39.9920   24.8390   42.7340 C   0  0  0  0  0  3  0  0  0  0  0  0
   38.7510   24.9780   42.1740 C   0  0  0  0  0  3  0  0  0  0  0  0
  1  6  1  0  0  0  0
  2  1  2  0  0  0  0
  2  3  1  0  0  0  0
  3  4  2  0  0  0  0
  4  5  1  0  0  0  0
  5 26  1  0  0  0  0
  6  5  2  0  0  0  0
  7  2  1  0  0  0  0
  8  3  1  0  0  0  0
  9 10  1  0  0  0  0
  9  1  1  0  0  0  0
  9 14  1  0  0  0  0
 10 17  1  0  0  0  0
 10 11  1  0  0  0  0
 11 19  1  0  0  0  0
 12 11  1  0  0  0  0
 12 21  1  0  0  0  0
 13 14  1  0  0  0  0
 13 12  1  0  0  0  0
 13 22  1  0  0  0  0
 14 24  1  0  0  0  0
 15  9  1  0  0  0  0
 16 10  1  0  0  0  0
 18 11  1  0  0  0  0
 20 12  1  0  0  0  0
 23 13  1  0  0  0  0
 25 14  1  0  0  0  0
 26 30  2  0  0  0  0
 27 26  1  0  0  0  0
 27 28  2  0  0  0  0
 28 29  1  0  0  0  0
 29 32  1  0  0  0  0
 30 29  1  0  0  0  0
 31 28  1  0  0  0  0
 32 34  1  0  0  0  0
 32 33  1  0  0  0  0
 35 36  1  0  0  0  0
 36 37  1  0  0  0  0
 37 32  1  0  0  0  0
 37 38  2  0  0  0  0
 38 39  1  0  0  0  0
 40 38  1  0  0  0  0
 40 41  1  0  0  0  0
 42 40  2  0  0  0  0
 43 36  2  0  0  0  0
 43 42  1  0  0  0  0
M  END
>  <minimizedAffinity>
-5.92768478

$$$$

 OpenBabel03242519303D

 43 46  0  0  0  0  0  0  0  0999 V2000
   37.2450   26.7970   42.0070 C   0  0  0  0  0  0  0  0  0  0  0  0
   37.2190   27.2110   43.3520 C   0  0  0  0  0  0  0  0  0  0  0  0
   37.4560   28.5650   43.6650 C   0  0  0  0  0  0  0  0  0  0  0  0
   37.6990   29.3980   42.6020 N   0  0  0  0  0  0  0  0  0  0  0  0
   37.7130   28.9380   41.3000 C   0  0  0  0  0  0  0  0  0  0  0  0
   37.4880   27.6640   41.0370 N   0  0  0  0  0  0  0  0  0  0  0  0
   37.0380   26.6310   44.2450 H   0  0  0  0  0  0  0  0  0  0  0  0
   37.4540   28.9580   44.6580 H   0  0  0  0  0  0  0  0  0  0  0  0
   36.9900   25.3530   41.8110 C   0  0  0  0  0  0  0  0  0  0  0  0
   38.0390   24.4790   42.2980 C   0  0  0  0  0  0  0  0  0  0  0  0
   38.7910   23.7490   41.2590 C   0  0  0  0  0  0  0  0  0  0  0  0
   37.8790   22.9840   40.3040 C   0  0  0  0  0  0  0  0  0  0  0  0
   36.5920   23.6890   39.9830 C   0  0  0  0  0  0  0  0  0  0  0  0
   36.7010   25.1750   40.2990 C   0  0  0  0  0  0  0  0  0  0  0  0
   35.9990   25.1380   42.3020 H   0  0  0  0  0  0  0  0  0  0  0  0
   37.6020   23.7020   42.9930 H   0  0  0  0  0  0  0  0  0  0  0  0
   38.7540   25.0420   42.9120 H   0  0  0  0  0  0  0  0  0  0  0  0
   39.3580   22.9300   41.7980 H   0  0  0  0  0  0  0  0  0  0  0  0
   39.5780   24.3040   40.7260 H   0  0  0  0  0  0  0  0  0  0  0  0
   37.7240   21.9390   40.6100 H   0  0  0  0  0  0  0  0  0  0  0  0
   38.4550   22.9230   39.3440 H   0  0  0  0  0  0  0  0  0  0  0  0
   36.2730   23.6180   38.9330 H   0  0  0  0  0  0  0  0  0  0  0  0
   35.8170   23.3030   40.6770 H   0  0  0  0  0  0  0  0  0  0  0  0
   37.5130   25.6790   39.7380 H   0  0  0  0  0  0  0  0  0  0  0  0
   35.7000   25.6180   40.1300 H   0  0  0  0  0  0  0  0  0  0  0  0
   37.9960   29.9740   40.3150 C   0  0  0  0  0  0  0  0  0  0  0  0
   36.9630   30.6920   39.8180 N   0  0  0  0  0  0  0  0  0  0  0  0
   37.4590   31.5890   38.9320 C   0  0  0  0  0  0  0  0  0  0  0  0
   38.7990   31.4150   38.8900 N   0  0  0  0  0  0  0  0  0  0  0  0
   39.1430   30.4270   39.7330 N   0  0  0  0  0  0  0  0  0  0  0  0
   36.8370   32.2850   38.3950 H   0  0  0  0  0  0  0  0  0  0  0  0
   39.7330   32.1710   38.0720 C   0  0  0  0  0  0  0  0  0  0  0  0
   40.2850   31.4860   37.4320 H   0  0  0  0  0  0  0  0  0  0  0  0
   39.1170   32.8980   37.4840 H   0  0  0  0  0  0  0  0  0  0  0  0
   39.0390   34.4430   39.6740 F   0  0  0  0  0  0  0  0  0  0  0  0
   40.3000   34.0110   39.7160 C   0  0  0  0  0  0  0  0  0  0  0  0
   40.6550   32.9360   38.9660 C   0  0  0  0  0  0  0  0  0  0  0  0
   41.9800   32.5000   39.0240 C   0  0  0  0  0  0  0  0  0  0  0  0
   42.2780   31.6310   38.4200 H   0  0  0  0  0  0  0  0  0  0  0  0
   42.9340   33.1300   39.8200 C   0  0  0  0  0  0  0  0  0  0  0  0
   43.9490   32.7200   39.8040 H   0  0  0  0  0  0  0  0  0  0  0  0
   42.5190   34.2160   40.5610 C   0  0  0  0  0  3  0  0  0  0  0  0
   41.2260   34.6600   40.5180 C   0  0  0  0  0  3  0  0  0  0  0  0
  1  2  1  0  0  0  0
  2  3  2  0  0  0  0
  2  7  1  0  0  0  0
  3  8  1  0  0  0  0
  4  3  1  0  0  0  0
  5  4  2  0  0  0  0
  6  5  1  0  0  0  0
  6  1  2  0  0  0  0
  9  1  1  0  0  0  0
  9 10  1  0  0  0  0
  9 15  1  0  0  0  0
 10 17  1  0  0  0  0
 10 16  1  0  0  0  0
 11 18  1  0  0  0  0
 11 10  1  0  0  0  0
 12 20  1  0  0  0  0
 12 11  1  0  0  0  0
 13 14  1  0  0  0  0
 13 12  1  0  0  0  0
 13 23  1  0  0  0  0
 14  9  1  0  0  0  0
 19 11  1  0  0  0  0
 21 12  1  0  0  0  0
 22 13  1  0  0  0  0
 24 14  1  0  0  0  0
 25 14  1  0  0  0  0
 26  5  1  0  0  0  0
 27 26  1  0  0  0  0
 28 27  2  0  0  0  0
 29 28  1  0  0  0  0
 29 30  1  0  0  0  0
 30 26  2  0  0  0  0
 31 28  1  0  0  0  0
 32 29  1  0  0  0  0
 32 37  1  0  0  0  0
 33 32  1  0  0  0  0
 34 32  1  0  0  0  0
 35 36  1  0  0  0  0
 36 43  1  0  0  0  0
 37 38  1  0  0  0  0
 37 36  2  0  0  0  0
 38 40  2  0  0  0  0
 39 38  1  0  0  0  0
 40 42  1  0  0  0  0
 41 40  1  0  0  0  0
 43 42  2  0  0  0  0
M  END
>  <minimizedAffinity>
-5.89759302

$$$$
