
 OpenBabel03252509283D

 21 22  0  0  0  0  0  0  0  0999 V2000
   47.1750   35.3060   41.8450 C   0  0  0  0  0  0  0  0  0  0  0  0
   48.2220   35.5440   42.1910 H   0  0  0  0  0  0  0  0  0  0  0  0
   46.7360   36.1130   41.2540 H   0  0  0  0  0  0  0  0  0  0  0  0
   44.5810   35.7790   44.4710 C   0  0  0  0  0  0  0  0  0  0  0  0
   45.3510   35.9770   43.3070 C   0  0  0  0  0  0  0  0  0  0  0  0
   46.3960   35.0710   43.0610 C   0  0  0  0  0  0  0  0  0  0  0  0
   46.6070   34.0630   43.9460 N   0  0  0  0  0  0  0  0  0  0  0  0
   45.8460   33.9090   45.0490 C   0  0  0  0  0  0  0  0  0  0  0  0
   44.8430   34.7700   45.2960 N   0  0  0  0  0  0  0  0  0  0  0  0
   43.7820   36.4920   44.6360 H   0  0  0  0  0  0  0  0  0  0  0  0
   45.1390   36.7990   42.6320 H   0  0  0  0  0  0  0  0  0  0  0  0
   46.0390   33.0930   45.7400 H   0  0  0  0  0  0  0  0  0  0  0  0
   45.0920   34.2370   40.3160 F   0  0  0  0  0  0  0  0  0  0  0  0
   46.2860   33.5710   40.2030 C   0  0  0  0  0  0  0  0  0  0  0  0
   47.3130   34.1220   40.9740 C   0  0  0  0  0  0  0  0  0  0  0  0
   48.5300   33.4880   40.8920 C   0  0  0  0  0  0  0  0  0  0  0  0
   49.4080   33.8070   41.4340 H   0  0  0  0  0  0  0  0  0  0  0  0
   48.7290   32.3680   40.0900 C   0  0  0  0  0  0  0  0  0  0  0  0
   49.6820   31.8550   40.0130 H   0  0  0  0  0  0  0  0  0  0  0  0
   47.7120   31.8410   39.3400 C   0  0  0  0  0  3  0  0  0  0  0  0
   46.4790   32.4620   39.4080 C   0  0  0  0  0  3  0  0  0  0  0  0
  1  2  1  0  0  0  0
  1  6  1  0  0  0  0
  3  1  1  0  0  0  0
  4 10  1  0  0  0  0
  4  9  1  0  0  0  0
  5  4  2  0  0  0  0
  6  5  1  0  0  0  0
  6  7  2  0  0  0  0
  7  8  1  0  0  0  0
  8  9  2  0  0  0  0
  8 12  1  0  0  0  0
 11  5  1  0  0  0  0
 14 13  1  0  0  0  0
 14 15  1  0  0  0  0
 15  1  1  0  0  0  0
 16 15  2  0  0  0  0
 16 17  1  0  0  0  0
 18 16  1  0  0  0  0
 19 18  1  0  0  0  0
 20 21  1  0  0  0  0
 20 18  2  0  0  0  0
 21 14  2  0  0  0  0
M  END
>  <minimizedAffinity>
-3.91165328

>  <minimizedRMSD>
1.54333818

$$$$
