
 OpenBabel03242516283D

 46 50  0  0  0  0  0  0  0  0999 V2000
   49.7930   30.2120   49.5650 C   0  0  0  0  0  0  0  0  0  0  0  0
   50.0190   31.4480   50.1140 N   0  0  0  0  0  0  0  0  0  0  0  0
   50.7330   31.6440   51.2180 C   0  0  0  0  0  0  0  0  0  0  0  0
   51.2540   30.5630   51.8150 N   0  0  0  0  0  0  0  0  0  0  0  0
   51.0800   29.3320   51.3480 C   0  0  0  0  0  0  0  0  0  0  0  0
   51.6290   28.2140   51.9620 C   0  0  0  0  0  0  0  0  0  0  0  0
   51.4440   26.9610   51.4540 C   0  0  0  0  0  0  0  0  0  0  0  0
   50.7070   26.7770   50.3250 C   0  0  0  0  0  0  0  0  0  0  0  0
   50.1310   27.8700   49.6670 C   0  0  0  0  0  0  0  0  0  0  0  0
   50.3270   29.1240   50.1850 C   0  0  0  0  0  0  0  0  0  0  0  0
   50.8760   32.6430   51.6000 H   0  0  0  0  0  0  0  0  0  0  0  0
   52.1990   28.4390   52.8520 H   0  0  0  0  0  0  0  0  0  0  0  0
   51.9210   26.1970   52.0240 H   0  0  0  0  0  0  0  0  0  0  0  0
   50.6480   25.7400   50.0540 H   0  0  0  0  0  0  0  0  0  0  0  0
   49.3220   27.5580   48.4790 C   0  0  0  0  0  0  0  0  0  0  0  0
   49.8790   27.6840   47.5270 H   0  0  0  0  0  0  0  0  0  0  0  0
   48.2790   27.8700   48.5030 H   0  0  0  0  0  0  0  0  0  0  0  0
   51.0400   25.7690   47.0900 F   0  0  0  0  0  0  0  0  0  0  0  0
   49.9320   25.2400   47.7100 C   0  0  0  0  0  0  0  0  0  0  0  0
   49.0630   26.0600   48.3980 C   0  0  0  0  0  0  0  0  0  0  0  0
   47.9850   25.3880   48.9750 C   0  0  0  0  0  0  0  0  0  0  0  0
   47.2890   26.0330   49.5230 H   0  0  0  0  0  0  0  0  0  0  0  0
   47.7930   24.0310   48.8780 C   0  0  0  0  0  0  0  0  0  0  0  0
   46.9040   23.6380   49.3800 H   0  0  0  0  0  0  0  0  0  0  0  0
   48.7110   23.2800   48.1700 C   0  0  0  0  0  0  0  0  0  0  0  0
   49.7990   23.8770   47.5740 C   0  0  0  0  0  0  0  0  0  0  0  0
   48.9010   30.0240   48.1030 S   0  0  0  0  0  0  0  0  0  0  0  0
   46.1170   32.6510   46.9310 C   0  0  0  0  0  0  0  0  0  0  0  0
   47.2450   31.8450   46.9950 C   0  0  0  0  0  0  0  0  0  0  0  0
   47.4470   31.0030   48.0570 C   0  0  0  0  0  0  0  0  0  0  0  0
   46.5330   30.9410   49.0830 C   0  0  0  0  0  0  0  0  0  0  0  0
   45.4090   31.7120   49.0680 C   0  0  0  0  0  0  0  0  0  0  0  0
   45.2240   32.5540   47.9890 C   0  0  0  0  0  0  0  0  0  0  0  0
   47.9410   31.9200   46.1700 H   0  0  0  0  0  0  0  0  0  0  0  0
   46.7340   30.2610   49.9040 H   0  0  0  0  0  0  0  0  0  0  0  0
   44.6730   31.6850   49.8600 H   0  0  0  0  0  0  0  0  0  0  0  0
   44.3410   33.1950   47.9220 H   0  0  0  0  0  0  0  0  0  0  0  0
   44.7100   35.3470   44.9130 C   0  0  0  0  0  0  0  0  0  0  0  0
   45.4480   35.2790   43.7110 C   0  0  0  0  0  0  0  0  0  0  0  0
   46.4350   34.3010   43.5950 C   0  0  0  0  0  0  0  0  0  0  0  0
   46.6650   33.4360   44.6350 N   0  0  0  0  0  0  0  0  0  0  0  0
   45.9170   33.5450   45.7860 C   0  0  0  0  0  0  0  0  0  0  0  0
   44.9510   34.4890   45.9230 N   0  0  0  0  0  0  0  0  0  0  0  0
   43.9540   36.1170   44.9700 H   0  0  0  0  0  0  0  0  0  0  0  0
   45.2760   35.9550   42.8800 H   0  0  0  0  0  0  0  0  0  0  0  0
   47.0460   34.1690   42.7250 H   0  0  0  0  0  0  0  0  0  0  0  0
  1  2  2  0  0  0  0
  1 10  1  0  0  0  0
  2  3  1  0  0  0  0
  3 11  1  0  0  0  0
  3  4  2  0  0  0  0
  5  4  1  0  0  0  0
  5  6  1  0  0  0  0
  6 12  1  0  0  0  0
  7  6  2  0  0  0  0
  7 13  1  0  0  0  0
  8  7  1  0  0  0  0
  9 10  1  0  0  0  0
  9  8  2  0  0  0  0
 10  5  2  0  0  0  0
 14  8  1  0  0  0  0
 15 17  1  0  0  0  0
 15  9  1  0  0  0  0
 16 15  1  0  0  0  0
 18 19  1  0  0  0  0
 19 20  1  0  0  0  0
 20 15  1  0  0  0  0
 20 21  2  0  0  0  0
 21 22  1  0  0  0  0
 23 21  1  0  0  0  0
 23 24  1  0  0  0  0
 25 23  2  0  0  0  0
 26 19  2  0  0  0  0
 26 25  1  0  0  0  0
 27  1  1  0  0  0  0
 28 29  2  0  0  0  0
 28 33  1  0  0  0  0
 29 30  1  0  0  0  0
 30 27  1  0  0  0  0
 30 31  2  0  0  0  0
 31 35  1  0  0  0  0
 32 31  1  0  0  0  0
 32 36  1  0  0  0  0
 33 32  2  0  0  0  0
 34 29  1  0  0  0  0
 37 33  1  0  0  0  0
 38 44  1  0  0  0  0
 38 43  1  0  0  0  0
 39 38  2  0  0  0  0
 40 39  1  0  0  0  0
 40 41  2  0  0  0  0
 41 42  1  0  0  0  0
 42 43  2  0  0  0  0
 42 28  1  0  0  0  0
 45 39  1  0  0  0  0
 46 40  1  0  0  0  0
M  END
>  <minimizedAffinity>
-6.63756943

>  <minimizedRMSD>
0.643707216

$$$$
