
 OpenBabel03252500513D

 35 37  0  0  0  0  0  0  0  0999 V2000
   44.2760   34.9750   42.0060 C   0  0  0  0  0  0  0  0  0  0  0  0
   45.0210   34.9100   41.0080 O   0  0  0  0  0  0  0  0  0  0  0  0
   44.7640   35.0960   44.3950 C   0  0  0  0  0  0  0  0  0  0  0  0
   44.7440   34.3540   43.2400 C   0  0  0  0  0  0  0  0  0  0  0  0
   45.1640   33.0220   43.2420 C   0  0  0  0  0  0  0  0  0  0  0  0
   45.5910   32.4970   44.4360 N   0  0  0  0  0  0  0  0  0  0  0  0
   45.6000   33.2360   45.5440 C   0  0  0  0  0  0  0  0  0  0  0  0
   45.1910   34.5250   45.5300 N   0  0  0  0  0  0  0  0  0  0  0  0
   44.4530   36.1230   44.4480 H   0  0  0  0  0  0  0  0  0  0  0  0
   45.1560   32.4210   42.3350 H   0  0  0  0  0  0  0  0  0  0  0  0
   46.0520   32.6680   46.8050 C   0  0  0  0  0  0  0  0  0  0  0  0
   47.2990   32.1920   46.9910 C   0  0  0  0  0  0  0  0  0  0  0  0
   47.7520   31.6520   48.1700 C   0  0  0  0  0  0  0  0  0  0  0  0
   46.8520   31.6110   49.1930 N   0  0  0  0  0  0  0  0  0  0  0  0
   45.6230   32.0770   49.0150 C   0  0  0  0  0  0  0  0  0  0  0  0
   45.1690   32.6080   47.8680 N   0  0  0  0  0  0  0  0  0  0  0  0
   47.9800   32.2470   46.1490 H   0  0  0  0  0  0  0  0  0  0  0  0
   48.7400   31.2690   48.3360 H   0  0  0  0  0  0  0  0  0  0  0  0
   44.8340   32.0860   49.7760 H   0  0  0  0  0  0  0  0  0  0  0  0
   43.1430   35.6530   41.6640 O   0  0  0  0  0  0  0  0  0  0  0  0
   41.9020   35.0670   41.5610 C   0  0  0  0  0  0  0  0  0  0  0  0
   41.5110   34.5090   42.4160 H   0  0  0  0  0  0  0  0  0  0  0  0
   42.0180   34.2670   40.7640 H   0  0  0  0  0  0  0  0  0  0  0  0
   40.8540   35.9810   40.9720 C   0  0  0  0  0  0  0  0  0  0  0  0
   41.3180   36.8780   40.4890 H   0  0  0  0  0  0  0  0  0  0  0  0
   40.1380   36.3090   41.7530 H   0  0  0  0  0  0  0  0  0  0  0  0
   41.6320   36.1460   38.2990 F   0  0  0  0  0  0  0  0  0  0  0  0
   40.5720   35.3650   38.6460 C   0  0  0  0  0  0  0  0  0  0  0  0
   40.1080   35.2160   39.9410 C   0  0  0  0  0  0  0  0  0  0  0  0
   39.0230   34.4070   40.2350 C   0  0  0  0  0  0  0  0  0  0  0  0
   38.6910   34.3150   41.2570 H   0  0  0  0  0  0  0  0  0  0  0  0
   38.4300   33.7560   39.1620 C   0  0  0  0  0  0  0  0  0  0  0  0
   37.5850   33.1300   39.4180 H   0  0  0  0  0  0  0  0  0  0  0  0
   38.8760   33.8900   37.8600 C   0  0  0  0  0  0  0  0  0  0  0  0
   39.9670   34.7080   37.5870 C   0  0  0  0  0  0  0  0  0  0  0  0
  1  4  1  0  0  0  0
  2  1  2  0  0  0  0
  3  9  1  0  0  0  0
  3  8  1  0  0  0  0
  4  5  1  0  0  0  0
  4  3  2  0  0  0  0
  5  6  2  0  0  0  0
  6  7  1  0  0  0  0
  7 11  1  0  0  0  0
  8  7  2  0  0  0  0
 10  5  1  0  0  0  0
 11 12  2  0  0  0  0
 11 16  1  0  0  0  0
 12 13  1  0  0  0  0
 13 18  1  0  0  0  0
 13 14  2  0  0  0  0
 15 14  1  0  0  0  0
 15 19  1  0  0  0  0
 16 15  2  0  0  0  0
 17 12  1  0  0  0  0
 20  1  1  0  0  0  0
 21 20  1  0  0  0  0
 21 22  1  0  0  0  0
 23 21  1  0  0  0  0
 24 21  1  0  0  0  0
 24 26  1  0  0  0  0
 25 24  1  0  0  0  0
 27 28  1  0  0  0  0
 28 29  1  0  0  0  0
 29 30  2  0  0  0  0
 29 24  1  0  0  0  0
 30 31  1  0  0  0  0
 32 33  1  0  0  0  0
 32 30  1  0  0  0  0
 34 32  2  0  0  0  0
 35 34  1  0  0  0  0
 35 28  2  0  0  0  0
M  END
>  <minimizedAffinity>
-6.60484552

>  <minimizedRMSD>
0.645648062

$$$$
