
 OpenBabel03252506483D

 42 45  0  0  1  0  0  0  0  0999 V2000
   40.0580   32.4700   39.4650 N   0  0  1  0  0  0  0  0  0  0  0  0
   39.6460   33.8320   39.6790 C   0  0  0  0  0  0  0  0  0  0  0  0
   38.3140   33.9850   40.3540 C   0  0  0  0  0  0  0  0  0  0  0  0
   37.2290   33.4100   39.4790 C   0  0  0  0  0  0  0  0  0  0  0  0
   37.7420   32.2520   38.6800 C   0  0  0  0  0  0  0  0  0  0  0  0
   38.8930   31.6130   39.4270 C   0  0  2  0  0  0  0  0  0  0  0  0
   40.4150   34.3360   40.3040 H   0  0  0  0  0  0  0  0  0  0  0  0
   39.5550   34.3820   38.6970 H   0  0  0  0  0  0  0  0  0  0  0  0
   38.2730   33.6330   41.3900 H   0  0  0  0  0  0  0  0  0  0  0  0
   38.1250   35.0970   40.3630 H   0  0  0  0  0  0  0  0  0  0  0  0
   36.8330   34.1830   38.7880 H   0  0  0  0  0  0  0  0  0  0  0  0
   36.3520   33.1150   40.1230 H   0  0  0  0  0  0  0  0  0  0  0  0
   38.2140   32.6900   37.7420 H   0  0  0  0  0  0  0  0  0  0  0  0
   37.0280   31.5250   38.3430 H   0  0  0  0  0  0  0  0  0  0  0  0
   39.1820   30.7120   38.8320 H   0  0  0  0  0  0  0  0  0  0  0  0
   42.3750   32.3290   38.3570 C   0  0  1  0  0  0  0  0  0  0  0  0
   41.7000   33.6010   38.0040 C   0  0  0  0  0  0  0  0  0  0  0  0
   40.8890   32.4120   38.3280 C   0  0  2  0  0  0  0  0  0  0  0  0
   42.8820   32.3130   39.3500 H   0  0  0  0  0  0  0  0  0  0  0  0
   41.7550   34.4310   38.7300 H   0  0  0  0  0  0  0  0  0  0  0  0
   41.7860   33.9190   36.9410 H   0  0  0  0  0  0  0  0  0  0  0  0
   40.4280   31.8700   37.4480 H   0  0  0  0  0  0  0  0  0  0  0  0
   42.4700   30.5880   36.5450 C   0  0  0  0  0  0  0  0  0  0  0  0
   43.0840   31.5920   37.3060 C   0  0  0  0  0  0  0  0  0  0  0  0
   44.4370   31.8820   37.0080 C   0  0  0  0  0  0  0  0  0  0  0  0
   45.0540   31.1850   36.0190 N   0  0  0  0  0  0  0  0  0  0  0  0
   44.4290   30.2270   35.3090 C   0  0  0  0  0  0  0  0  0  0  0  0
   43.1200   29.9170   35.5680 N   0  0  0  0  0  0  0  0  0  0  0  0
   41.4330   30.3490   36.7560 H   0  0  0  0  0  0  0  0  0  0  0  0
   44.9830   32.6510   37.5590 H   0  0  0  0  0  0  0  0  0  0  0  0
   45.0140   29.7330   34.5430 H   0  0  0  0  0  0  0  0  0  0  0  0
   38.4850   31.1280   40.7070 N   0  0  0  0  0  0  0  0  0  0  0  0
   38.7430   31.8600   41.4370 H   0  0  0  0  0  0  0  0  0  0  0  0
   39.1950   30.3120   43.3370 F   0  0  0  0  0  0  0  0  0  0  0  0
   38.2420   29.6110   42.6770 C   0  0  0  0  0  0  0  0  0  0  0  0
   37.8920   30.0290   41.3840 C   0  0  0  0  0  0  0  0  0  0  0  0
   36.9250   29.3390   40.6830 C   0  0  0  0  0  0  0  0  0  0  0  0
   36.5320   29.4870   39.7050 H   0  0  0  0  0  0  0  0  0  0  0  0
   36.2830   28.2420   41.2120 C   0  0  0  0  0  0  0  0  0  0  0  0
   35.5150   27.6110   40.7850 H   0  0  0  0  0  0  0  0  0  0  0  0
   36.6280   27.8310   42.4840 C   0  0  0  0  0  3  0  0  0  0  0  0
   37.5910   28.5170   43.1850 C   0  0  0  0  0  3  0  0  0  0  0  0
  1  2  1  6  0  0  0
  2  7  1  0  0  0  0
  2  3  1  0  0  0  0
  3 10  1  0  0  0  0
  3  9  1  0  0  0  0
  4 12  1  0  0  0  0
  4  3  1  0  0  0  0
  5  6  1  0  0  0  0
  5  4  1  0  0  0  0
  6 15  1  6  0  0  0
  6  1  1  0  0  0  0
  6 32  1  0  0  0  0
  8  2  1  0  0  0  0
 11  4  1  0  0  0  0
 13  5  1  0  0  0  0
 14  5  1  0  0  0  0
 16 19  1  1  0  0  0
 17 18  1  0  0  0  0
 17 16  1  0  0  0  0
 17 20  1  0  0  0  0
 18 22  1  6  0  0  0
 18 16  1  0  0  0  0
 18  1  1  0  0  0  0
 21 17  1  0  0  0  0
 23 29  1  0  0  0  0
 23 24  1  0  0  0  0
 24 16  1  0  0  0  0
 25 24  2  0  0  0  0
 25 30  1  0  0  0  0
 26 25  1  0  0  0  0
 27 28  1  0  0  0  0
 27 26  2  0  0  0  0
 28 23  2  0  0  0  0
 31 27  1  0  0  0  0
 32 36  1  0  0  0  0
 32 33  1  0  0  0  0
 35 42  1  0  0  0  0
 35 34  1  0  0  0  0
 36 35  2  0  0  0  0
 37 39  2  0  0  0  0
 37 36  1  0  0  0  0
 38 37  1  0  0  0  0
 39 41  1  0  0  0  0
 40 39  1  0  0  0  0
 41 42  2  0  0  0  0
M  END
>  <minimizedAffinity>
-5.84340143

$$$$

 OpenBabel03252506483D

 42 45  0  0  1  0  0  0  0  0999 V2000
   34.8460   29.3080   37.5530 N   0  0  1  0  0  0  0  0  0  0  0  0
   35.4330   29.1370   36.2500 C   0  0  0  0  0  0  0  0  0  0  0  0
   34.5520   28.4430   35.2530 C   0  0  0  0  0  0  0  0  0  0  0  0
   34.2700   27.0350   35.7130 C   0  0  0  0  0  0  0  0  0  0  0  0
   34.2260   26.9580   37.2080 C   0  0  0  0  0  0  0  0  0  0  0  0
   33.8190   28.3090   37.7560 C   0  0  2  0  0  0  0  0  0  0  0  0
   35.6930   30.1400   35.8490 H   0  0  0  0  0  0  0  0  0  0  0  0
   36.3720   28.5130   36.3130 H   0  0  0  0  0  0  0  0  0  0  0  0
   33.6540   28.9950   34.9590 H   0  0  0  0  0  0  0  0  0  0  0  0
   35.1970   28.3270   34.3340 H   0  0  0  0  0  0  0  0  0  0  0  0
   35.0440   26.3360   35.3340 H   0  0  0  0  0  0  0  0  0  0  0  0
   33.3040   26.6810   35.2500 H   0  0  0  0  0  0  0  0  0  0  0  0
   35.2990   26.8160   37.5560 H   0  0  0  0  0  0  0  0  0  0  0  0
   33.6610   26.1590   37.6480 H   0  0  0  0  0  0  0  0  0  0  0  0
   33.7230   28.1740   38.8620 H   0  0  0  0  0  0  0  0  0  0  0  0
   35.8060   30.0560   39.8190 C   0  0  1  0  0  0  0  0  0  0  0  0
   36.6250   30.5840   38.7010 C   0  0  0  0  0  0  0  0  0  0  0  0
   35.8700   29.3300   38.5210 C   0  0  2  0  0  0  0  0  0  0  0  0
   34.8820   30.6350   40.0540 H   0  0  0  0  0  0  0  0  0  0  0  0
   36.2750   31.5010   38.1960 H   0  0  0  0  0  0  0  0  0  0  0  0
   37.7270   30.5320   38.8390 H   0  0  0  0  0  0  0  0  0  0  0  0
   36.4740   28.3740   38.5740 H   0  0  0  0  0  0  0  0  0  0  0  0
   36.0820   28.3180   41.6150 C   0  0  0  0  0  0  0  0  0  0  0  0
   36.4890   29.5080   40.9950 C   0  0  0  0  0  0  0  0  0  0  0  0
   37.6120   30.1660   41.5510 C   0  0  0  0  0  0  0  0  0  0  0  0
   38.2230   29.6180   42.6330 N   0  0  0  0  0  0  0  0  0  0  0  0
   37.8030   28.4730   43.2000 C   0  0  0  0  0  0  0  0  0  0  0  0
   36.7190   27.8060   42.6920 N   0  0  0  0  0  0  0  0  0  0  0  0
   35.2240   27.7960   41.2060 H   0  0  0  0  0  0  0  0  0  0  0  0
   37.9860   31.0990   41.1230 H   0  0  0  0  0  0  0  0  0  0  0  0
   38.3630   28.1240   44.0590 H   0  0  0  0  0  0  0  0  0  0  0  0
   32.5280   28.6990   37.2900 N   0  0  0  0  0  0  0  0  0  0  0  0
   32.0590   27.8470   36.8550 H   0  0  0  0  0  0  0  0  0  0  0  0
   30.9200   29.7070   39.4100 F   0  0  0  0  0  0  0  0  0  0  0  0
   30.8320   30.2970   38.1930 C   0  0  0  0  0  0  0  0  0  0  0  0
   31.6370   29.7980   37.1570 C   0  0  0  0  0  0  0  0  0  0  0  0
   31.5720   30.3750   35.9060 C   0  0  0  0  0  0  0  0  0  0  0  0
   32.0830   30.1420   35.0020 H   0  0  0  0  0  0  0  0  0  0  0  0
   30.7360   31.4340   35.6330 C   0  0  0  0  0  0  0  0  0  0  0  0
   30.5820   31.9810   34.7120 H   0  0  0  0  0  0  0  0  0  0  0  0
   29.9450   31.9250   36.6520 C   0  0  0  0  0  3  0  0  0  0  0  0
   30.0070   31.3520   37.9000 C   0  0  0  0  0  3  0  0  0  0  0  0
  1  2  1  6  0  0  0
  1  6  1  0  0  0  0
  1 18  1  0  0  0  0
  2  8  1  0  0  0  0
  3  4  1  0  0  0  0
  3  2  1  0  0  0  0
  4  5  1  0  0  0  0
  5 13  1  0  0  0  0
  5 14  1  0  0  0  0
  5  6  1  0  0  0  0
  6 15  1  1  0  0  0
  7  2  1  0  0  0  0
  9  3  1  0  0  0  0
 10  3  1  0  0  0  0
 11  4  1  0  0  0  0
 12  4  1  0  0  0  0
 16 19  1  1  0  0  0
 16 24  1  0  0  0  0
 17 21  1  0  0  0  0
 17 16  1  0  0  0  0
 18 22  1  1  0  0  0
 18 17  1  0  0  0  0
 18 16  1  0  0  0  0
 20 17  1  0  0  0  0
 23 28  1  0  0  0  0
 24 25  1  0  0  0  0
 24 23  2  0  0  0  0
 25 26  2  0  0  0  0
 26 27  1  0  0  0  0
 27 31  1  0  0  0  0
 28 27  2  0  0  0  0
 29 23  1  0  0  0  0
 30 25  1  0  0  0  0
 32  6  1  0  0  0  0
 33 32  1  0  0  0  0
 35 34  1  0  0  0  0
 36 32  1  0  0  0  0
 36 35  2  0  0  0  0
 37 36  1  0  0  0  0
 38 37  1  0  0  0  0
 39 37  2  0  0  0  0
 39 41  1  0  0  0  0
 40 39  1  0  0  0  0
 41 42  2  0  0  0  0
 42 35  1  0  0  0  0
M  END
>  <minimizedAffinity>
-5.75525236

$$$$

 OpenBabel03252506483D

 42 45  0  0  1  0  0  0  0  0999 V2000
   37.6650   30.2550   40.9490 N   0  0  1  0  0  0  0  0  0  0  0  0
   36.2600   30.4520   40.7080 C   0  0  0  0  0  0  0  0  0  0  0  0
   35.4470   29.1910   40.6790 C   0  0  0  0  0  0  0  0  0  0  0  0
   35.8930   28.3220   39.5300 C   0  0  0  0  0  0  0  0  0  0  0  0
   37.3580   28.4930   39.2660 C   0  0  0  0  0  0  0  0  0  0  0  0
   38.0410   28.9150   40.5500 C   0  0  2  0  0  0  0  0  0  0  0  0
   35.8570   31.1090   41.5090 H   0  0  0  0  0  0  0  0  0  0  0  0
   36.0900   30.9470   39.7080 H   0  0  0  0  0  0  0  0  0  0  0  0
   35.3790   28.6560   41.6320 H   0  0  0  0  0  0  0  0  0  0  0  0
   34.4060   29.5280   40.4020 H   0  0  0  0  0  0  0  0  0  0  0  0
   35.3250   28.5670   38.6090 H   0  0  0  0  0  0  0  0  0  0  0  0
   35.6350   27.2480   39.7570 H   0  0  0  0  0  0  0  0  0  0  0  0
   37.4590   29.3920   38.5760 H   0  0  0  0  0  0  0  0  0  0  0  0
   37.8740   27.6850   38.7830 H   0  0  0  0  0  0  0  0  0  0  0  0
   39.1340   28.9490   40.3180 H   0  0  0  0  0  0  0  0  0  0  0  0
   39.1020   32.3860   41.0530 C   0  0  1  0  0  0  0  0  0  0  0  0
   37.8140   32.6530   40.3690 C   0  0  0  0  0  0  0  0  0  0  0  0
   38.3890   31.2960   40.3320 C   0  0  2  0  0  0  0  0  0  0  0  0
   39.0650   32.3920   42.1680 H   0  0  0  0  0  0  0  0  0  0  0  0
   36.9280   32.8470   40.9990 H   0  0  0  0  0  0  0  0  0  0  0  0
   37.8700   33.2850   39.4550 H   0  0  0  0  0  0  0  0  0  0  0  0
   38.8930   30.9950   39.3650 H   0  0  0  0  0  0  0  0  0  0  0  0
   40.3230   33.8150   39.3840 C   0  0  0  0  0  0  0  0  0  0  0  0
   40.3310   32.9510   40.4880 C   0  0  0  0  0  0  0  0  0  0  0  0
   41.5920   32.6490   41.0540 C   0  0  0  0  0  0  0  0  0  0  0  0
   42.7060   33.2040   40.5080 N   0  0  0  0  0  0  0  0  0  0  0  0
   42.6580   34.0300   39.4480 C   0  0  0  0  0  0  0  0  0  0  0  0
   41.4560   34.3470   38.8700 N   0  0  0  0  0  0  0  0  0  0  0  0
   39.3680   34.0610   38.9340 H   0  0  0  0  0  0  0  0  0  0  0  0
   41.6780   31.9820   41.9150 H   0  0  0  0  0  0  0  0  0  0  0  0
   43.6050   34.4170   39.0920 H   0  0  0  0  0  0  0  0  0  0  0  0
   37.8830   27.9370   41.5770 N   0  0  0  0  0  0  0  0  0  0  0  0
   37.0730   28.2380   42.2010 H   0  0  0  0  0  0  0  0  0  0  0  0
   37.0260   25.3450   40.7750 F   0  0  0  0  0  0  0  0  0  0  0  0
   37.9890   25.4450   41.7230 C   0  0  0  0  0  0  0  0  0  0  0  0
   38.4110   26.7280   42.1040 C   0  0  0  0  0  0  0  0  0  0  0  0
   39.3890   26.8650   43.0670 C   0  0  0  0  0  0  0  0  0  0  0  0
   39.8320   27.7350   43.4930 H   0  0  0  0  0  0  0  0  0  0  0  0
   39.9730   25.7780   43.6750 C   0  0  0  0  0  0  0  0  0  0  0  0
   40.7410   25.7330   44.4360 H   0  0  0  0  0  0  0  0  0  0  0  0
   39.5570   24.5150   43.3000 C   0  0  0  0  0  3  0  0  0  0  0  0
   38.5820   24.3750   42.3410 C   0  0  0  0  0  3  0  0  0  0  0  0
  1  2  1  6  0  0  0
  2  7  1  0  0  0  0
  3  2  1  0  0  0  0
  3  9  1  0  0  0  0
  4 12  1  0  0  0  0
  4  3  1  0  0  0  0
  5  4  1  0  0  0  0
  5  6  1  0  0  0  0
  6 15  1  6  0  0  0
  6  1  1  0  0  0  0
  6 32  1  0  0  0  0
  8  2  1  0  0  0  0
 10  3  1  0  0  0  0
 11  4  1  0  0  0  0
 13  5  1  0  0  0  0
 14  5  1  0  0  0  0
 16 19  1  1  0  0  0
 17 20  1  0  0  0  0
 17 16  1  0  0  0  0
 18 22  1  6  0  0  0
 18 17  1  0  0  0  0
 18  1  1  0  0  0  0
 18 16  1  0  0  0  0
 21 17  1  0  0  0  0
 23 24  1  0  0  0  0
 24 16  1  0  0  0  0
 24 25  2  0  0  0  0
 25 30  1  0  0  0  0
 26 25  1  0  0  0  0
 27 26  2  0  0  0  0
 28 23  2  0  0  0  0
 28 27  1  0  0  0  0
 29 23  1  0  0  0  0
 31 27  1  0  0  0  0
 32 36  1  0  0  0  0
 32 33  1  0  0  0  0
 34 35  1  0  0  0  0
 35 36  2  0  0  0  0
 35 42  1  0  0  0  0
 36 37  1  0  0  0  0
 37 38  1  0  0  0  0
 37 39  2  0  0  0  0
 39 40  1  0  0  0  0
 41 39  1  0  0  0  0
 42 41  2  0  0  0  0
M  END
>  <minimizedAffinity>
-5.56432009

$$$$

 OpenBabel03252506483D

 42 45  0  0  1  0  0  0  0  0999 V2000
   37.4420   30.2480   38.9620 N   0  0  1  0  0  0  0  0  0  0  0  0
   38.6970   30.7980   38.5200 C   0  0  0  0  0  0  0  0  0  0  0  0
   39.4760   31.5120   39.5850 C   0  0  0  0  0  0  0  0  0  0  0  0
   38.7020   32.7140   40.0660 C   0  0  0  0  0  0  0  0  0  0  0  0
   37.2270   32.4630   40.0000 C   0  0  0  0  0  0  0  0  0  0  0  0
   36.9780   30.9750   40.1240 C   0  0  2  0  0  0  0  0  0  0  0  0
   39.3230   29.9680   38.1260 H   0  0  0  0  0  0  0  0  0  0  0  0
   38.5360   31.5570   37.7000 H   0  0  0  0  0  0  0  0  0  0  0  0
   39.8480   30.8780   40.3970 H   0  0  0  0  0  0  0  0  0  0  0  0
   40.3720   31.9380   39.0470 H   0  0  0  0  0  0  0  0  0  0  0  0
   38.9480   33.6080   39.4560 H   0  0  0  0  0  0  0  0  0  0  0  0
   39.0340   32.9730   41.1120 H   0  0  0  0  0  0  0  0  0  0  0  0
   36.9020   32.7230   38.9420 H   0  0  0  0  0  0  0  0  0  0  0  0
   36.5960   33.0320   40.6560 H   0  0  0  0  0  0  0  0  0  0  0  0
   35.8680   30.8510   40.1520 H   0  0  0  0  0  0  0  0  0  0  0  0
   35.9260   28.9790   37.3170 C   0  0  1  0  0  0  0  0  0  0  0  0
   37.0320   29.6540   36.5970 C   0  0  0  0  0  0  0  0  0  0  0  0
   36.5470   30.2120   37.8730 C   0  0  2  0  0  0  0  0  0  0  0  0
   36.1840   28.0010   37.7870 H   0  0  0  0  0  0  0  0  0  0  0  0
   38.0120   29.1470   36.5690 H   0  0  0  0  0  0  0  0  0  0  0  0
   36.7560   30.1650   35.6480 H   0  0  0  0  0  0  0  0  0  0  0  0
   35.8790   31.1220   37.7960 H   0  0  0  0  0  0  0  0  0  0  0  0
   33.4220   29.0070   37.5420 C   0  0  0  0  0  0  0  0  0  0  0  0
   34.5760   29.0360   36.7470 C   0  0  0  0  0  0  0  0  0  0  0  0
   34.3860   29.1360   35.3490 C   0  0  0  0  0  0  0  0  0  0  0  0
   33.1180   29.1990   34.8620 N   0  0  0  0  0  0  0  0  0  0  0  0
   32.0350   29.1690   35.6590 C   0  0  0  0  0  0  0  0  0  0  0  0
   32.1770   29.0720   37.0190 N   0  0  0  0  0  0  0  0  0  0  0  0
   33.5430   28.9310   38.6170 H   0  0  0  0  0  0  0  0  0  0  0  0
   35.2370   29.1630   34.6650 H   0  0  0  0  0  0  0  0  0  0  0  0
   31.0710   29.2260   35.1680 H   0  0  0  0  0  0  0  0  0  0  0  0
   37.4660   30.4600   41.3630 N   0  0  0  0  0  0  0  0  0  0  0  0
   37.6660   31.2830   42.0100 H   0  0  0  0  0  0  0  0  0  0  0  0
   35.6740   28.2940   41.8020 F   0  0  0  0  0  0  0  0  0  0  0  0
   36.9360   28.2000   42.2880 C   0  0  0  0  0  0  0  0  0  0  0  0
   37.8140   29.2700   42.0560 C   0  0  0  0  0  0  0  0  0  0  0  0
   39.1050   29.2070   42.5370 C   0  0  0  0  0  0  0  0  0  0  0  0
   39.9070   29.9050   42.4770 H   0  0  0  0  0  0  0  0  0  0  0  0
   39.5700   28.1210   43.2440 C   0  0  0  0  0  0  0  0  0  0  0  0
   40.5440   27.9350   43.6750 H   0  0  0  0  0  0  0  0  0  0  0  0
   38.7050   27.0680   43.4700 C   0  0  0  0  0  3  0  0  0  0  0  0
   37.4170   27.1280   42.9930 C   0  0  0  0  0  3  0  0  0  0  0  0
  1  2  1  6  0  0  0
  1  6  1  0  0  0  0
  2  3  1  0  0  0  0
  3  4  1  0  0  0  0
  3  9  1  0  0  0  0
  4 12  1  0  0  0  0
  5  4  1  0  0  0  0
  5  6  1  0  0  0  0
  5 14  1  0  0  0  0
  6 15  1  1  0  0  0
  6 32  1  0  0  0  0
  7  2  1  0  0  0  0
  8  2  1  0  0  0  0
 10  3  1  0  0  0  0
 11  4  1  0  0  0  0
 13  5  1  0  0  0  0
 16 19  1  1  0  0  0
 16 18  1  0  0  0  0
 17 16  1  0  0  0  0
 17 18  1  0  0  0  0
 18 22  1  6  0  0  0
 18  1  1  0  0  0  0
 20 17  1  0  0  0  0
 21 17  1  0  0  0  0
 23 29  1  0  0  0  0
 24 16  1  0  0  0  0
 24 23  2  0  0  0  0
 25 24  1  0  0  0  0
 26 25  2  0  0  0  0
 26 27  1  0  0  0  0
 27 28  2  0  0  0  0
 28 23  1  0  0  0  0
 30 25  1  0  0  0  0
 31 27  1  0  0  0  0
 32 33  1  0  0  0  0
 32 36  1  0  0  0  0
 34 35  1  0  0  0  0
 35 42  1  0  0  0  0
 36 35  2  0  0  0  0
 36 37  1  0  0  0  0
 37 39  2  0  0  0  0
 38 37  1  0  0  0  0
 39 41  1  0  0  0  0
 39 40  1  0  0  0  0
 42 41  2  0  0  0  0
M  END
>  <minimizedAffinity>
-5.41392422

$$$$

 OpenBabel03252506483D

 42 45  0  0  1  0  0  0  0  0999 V2000
   37.0720   30.0960   39.0200 N   0  0  1  0  0  0  0  0  0  0  0  0
   38.3880   30.5190   38.6190 C   0  0  0  0  0  0  0  0  0  0  0  0
   39.1730   31.2200   39.6880 C   0  0  0  0  0  0  0  0  0  0  0  0
   38.4810   32.5030   40.0740 C   0  0  0  0  0  0  0  0  0  0  0  0
   36.9950   32.3690   39.9450 C   0  0  0  0  0  0  0  0  0  0  0  0
   36.6160   30.9140   40.1230 C   0  0  2  0  0  0  0  0  0  0  0  0
   38.9600   29.6230   38.2950 H   0  0  0  0  0  0  0  0  0  0  0  0
   38.3290   31.2470   37.7570 H   0  0  0  0  0  0  0  0  0  0  0  0
   39.4520   30.5990   40.5460 H   0  0  0  0  0  0  0  0  0  0  0  0
   40.1260   31.5440   39.1770 H   0  0  0  0  0  0  0  0  0  0  0  0
   38.8280   33.3420   39.4370 H   0  0  0  0  0  0  0  0  0  0  0  0
   38.7830   32.7860   41.1230 H   0  0  0  0  0  0  0  0  0  0  0  0
   36.7420   32.6020   38.8610 H   0  0  0  0  0  0  0  0  0  0  0  0
   36.3830   33.0190   40.5420 H   0  0  0  0  0  0  0  0  0  0  0  0
   35.4990   30.8830   40.1000 H   0  0  0  0  0  0  0  0  0  0  0  0
   35.5300   28.8750   37.3620 C   0  0  1  0  0  0  0  0  0  0  0  0
   36.7230   29.4170   36.6690 C   0  0  0  0  0  0  0  0  0  0  0  0
   36.2280   30.0790   37.8910 C   0  0  2  0  0  0  0  0  0  0  0  0
   35.6810   27.9040   37.8910 H   0  0  0  0  0  0  0  0  0  0  0  0
   37.6560   28.8290   36.7140 H   0  0  0  0  0  0  0  0  0  0  0  0
   36.5360   29.9000   35.6840 H   0  0  0  0  0  0  0  0  0  0  0  0
   35.6460   31.0360   37.7370 H   0  0  0  0  0  0  0  0  0  0  0  0
   33.0250   29.0680   37.4560 C   0  0  0  0  0  0  0  0  0  0  0  0
   34.2180   29.0150   36.7230 C   0  0  0  0  0  0  0  0  0  0  0  0
   34.1080   29.1180   35.3150 C   0  0  0  0  0  0  0  0  0  0  0  0
   32.8750   29.2590   34.7630 N   0  0  0  0  0  0  0  0  0  0  0  0
   31.7510   29.3060   35.5020 C   0  0  0  0  0  0  0  0  0  0  0  0
   31.8160   29.2100   36.8680 N   0  0  0  0  0  0  0  0  0  0  0  0
   33.0850   28.9920   38.5360 H   0  0  0  0  0  0  0  0  0  0  0  0
   34.9940   29.0840   34.6770 H   0  0  0  0  0  0  0  0  0  0  0  0
   30.8200   29.4210   34.9610 H   0  0  0  0  0  0  0  0  0  0  0  0
   37.0000   30.4240   41.4080 N   0  0  0  0  0  0  0  0  0  0  0  0
   36.9620   31.2350   42.0980 H   0  0  0  0  0  0  0  0  0  0  0  0
   39.4130   30.3100   42.9110 F   0  0  0  0  0  0  0  0  0  0  0  0
   38.6350   29.2020   42.8490 C   0  0  0  0  0  0  0  0  0  0  0  0
   37.4420   29.2730   42.1140 C   0  0  0  0  0  0  0  0  0  0  0  0
   36.6270   28.1630   42.0300 C   0  0  0  0  0  0  0  0  0  0  0  0
   35.7030   28.0120   41.5230 H   0  0  0  0  0  0  0  0  0  0  0  0
   36.9440   26.9750   42.6480 C   0  0  0  0  0  0  0  0  0  0  0  0
   36.4080   26.0360   42.6700 H   0  0  0  0  0  0  0  0  0  0  0  0
   38.1180   26.9060   43.3720 C   0  0  0  0  0  3  0  0  0  0  0  0
   38.9330   28.0100   43.4570 C   0  0  0  0  0  3  0  0  0  0  0  0
  1  2  1  6  0  0  0
  1  6  1  0  0  0  0
  2  3  1  0  0  0  0
  3  4  1  0  0  0  0
  3  9  1  0  0  0  0
  4 12  1  0  0  0  0
  5  4  1  0  0  0  0
  5  6  1  0  0  0  0
  5 14  1  0  0  0  0
  6 15  1  6  0  0  0
  6 32  1  0  0  0  0
  7  2  1  0  0  0  0
  8  2  1  0  0  0  0
 10  3  1  0  0  0  0
 11  4  1  0  0  0  0
 13  5  1  0  0  0  0
 16 18  1  0  0  0  0
 16 19  1  1  0  0  0
 17 20  1  0  0  0  0
 17 16  1  0  0  0  0
 17 18  1  0  0  0  0
 18 22  1  6  0  0  0
 18  1  1  0  0  0  0
 21 17  1  0  0  0  0
 23 29  1  0  0  0  0
 24 16  1  0  0  0  0
 24 23  2  0  0  0  0
 25 24  1  0  0  0  0
 26 25  2  0  0  0  0
 26 27  1  0  0  0  0
 27 28  2  0  0  0  0
 28 23  1  0  0  0  0
 30 25  1  0  0  0  0
 31 27  1  0  0  0  0
 32 33  1  0  0  0  0
 32 36  1  0  0  0  0
 35 34  1  0  0  0  0
 35 42  1  0  0  0  0
 36 35  2  0  0  0  0
 37 36  1  0  0  0  0
 37 39  2  0  0  0  0
 38 37  1  0  0  0  0
 39 40  1  0  0  0  0
 39 41  1  0  0  0  0
 41 42  2  0  0  0  0
M  END
>  <minimizedAffinity>
-5.41031837

$$$$

 OpenBabel03252506483D

 42 45  0  0  1  0  0  0  0  0999 V2000
   38.9790   28.5710   41.6580 N   0  0  1  0  0  0  0  0  0  0  0  0
   39.0440   28.3490   43.0790 C   0  0  0  0  0  0  0  0  0  0  0  0
   38.1700   27.2370   43.5790 C   0  0  0  0  0  0  0  0  0  0  0  0
   36.7210   27.5740   43.3300 C   0  0  0  0  0  0  0  0  0  0  0  0
   36.5680   28.3930   42.0860 C   0  0  0  0  0  0  0  0  0  0  0  0
   37.7160   28.0810   41.1500 C   0  0  2  0  0  0  0  0  0  0  0  0
   40.0970   28.1150   43.3480 H   0  0  0  0  0  0  0  0  0  0  0  0
   38.7180   29.2710   43.6440 H   0  0  0  0  0  0  0  0  0  0  0  0
   38.4500   26.2340   43.2410 H   0  0  0  0  0  0  0  0  0  0  0  0
   38.2880   27.2640   44.7010 H   0  0  0  0  0  0  0  0  0  0  0  0
   36.2960   28.1330   44.1900 H   0  0  0  0  0  0  0  0  0  0  0  0
   36.1230   26.6200   43.2770 H   0  0  0  0  0  0  0  0  0  0  0  0
   36.7290   29.4770   42.3890 H   0  0  0  0  0  0  0  0  0  0  0  0
   35.6200   28.3600   41.5830 H   0  0  0  0  0  0  0  0  0  0  0  0
   37.5100   28.6520   40.2110 H   0  0  0  0  0  0  0  0  0  0  0  0
   40.6140   30.5130   41.2450 C   0  0  1  0  0  0  0  0  0  0  0  0
   39.8240   30.7450   42.4780 C   0  0  0  0  0  0  0  0  0  0  0  0
   39.2530   29.9280   41.3910 C   0  0  2  0  0  0  0  0  0  0  0  0
   41.4940   29.8370   41.3580 H   0  0  0  0  0  0  0  0  0  0  0  0
   40.1610   30.2500   43.4050 H   0  0  0  0  0  0  0  0  0  0  0  0
   39.4460   31.7810   42.6260 H   0  0  0  0  0  0  0  0  0  0  0  0
   38.4770   30.4350   40.7420 H   0  0  0  0  0  0  0  0  0  0  0  0
   40.4570   32.9480   40.6390 C   0  0  0  0  0  0  0  0  0  0  0  0
   40.8310   31.6340   40.3250 C   0  0  0  0  0  0  0  0  0  0  0  0
   41.4490   31.4290   39.0690 C   0  0  0  0  0  0  0  0  0  0  0  0
   41.6430   32.4970   38.2510 N   0  0  0  0  0  0  0  0  0  0  0  0
   41.2700   33.7440   38.5890 C   0  0  0  0  0  0  0  0  0  0  0  0
   40.6680   33.9850   39.7960 N   0  0  0  0  0  0  0  0  0  0  0  0
   39.9820   33.1300   41.5970 H   0  0  0  0  0  0  0  0  0  0  0  0
   41.7670   30.4330   38.7540 H   0  0  0  0  0  0  0  0  0  0  0  0
   41.4720   34.5230   37.8630 H   0  0  0  0  0  0  0  0  0  0  0  0
   37.7340   26.7020   40.7800 N   0  0  0  0  0  0  0  0  0  0  0  0
   38.7060   26.3150   40.9860 H   0  0  0  0  0  0  0  0  0  0  0  0
   36.9860   24.3440   42.1830 F   0  0  0  0  0  0  0  0  0  0  0  0
   36.5950   24.4820   40.8930 C   0  0  0  0  0  0  0  0  0  0  0  0
   36.9600   25.6540   40.2140 C   0  0  0  0  0  0  0  0  0  0  0  0
   36.5800   25.8260   38.8990 C   0  0  0  0  0  0  0  0  0  0  0  0
   36.7620   26.6240   38.2190 H   0  0  0  0  0  0  0  0  0  0  0  0
   35.8450   24.8800   38.2220 C   0  0  0  0  0  0  0  0  0  0  0  0
   35.4790   24.8790   37.2040 H   0  0  0  0  0  0  0  0  0  0  0  0
   35.4840   23.7270   38.8910 C   0  0  0  0  0  3  0  0  0  0  0  0
   35.8630   23.5520   40.2010 C   0  0  0  0  0  3  0  0  0  0  0  0
  1  2  1  1  0  0  0
  2  7  1  0  0  0  0
  2  3  1  0  0  0  0
  2  8  1  0  0  0  0
  3 10  1  0  0  0  0
  4  3  1  0  0  0  0
  4 11  1  0  0  0  0
  5 13  1  0  0  0  0
  5  4  1  0  0  0  0
  6 15  1  6  0  0  0
  6  1  1  0  0  0  0
  6  5  1  0  0  0  0
  9  3  1  0  0  0  0
 12  4  1  0  0  0  0
 14  5  1  0  0  0  0
 16 19  1  1  0  0  0
 16 18  1  0  0  0  0
 16 17  1  0  0  0  0
 17 21  1  0  0  0  0
 17 20  1  0  0  0  0
 18 22  1  6  0  0  0
 18  1  1  0  0  0  0
 18 17  1  0  0  0  0
 23 29  1  0  0  0  0
 24 23  1  0  0  0  0
 24 16  1  0  0  0  0
 25 24  2  0  0  0  0
 26 27  2  0  0  0  0
 26 25  1  0  0  0  0
 27 28  1  0  0  0  0
 28 23  2  0  0  0  0
 30 25  1  0  0  0  0
 31 27  1  0  0  0  0
 32 33  1  0  0  0  0
 32  6  1  0  0  0  0
 35 34  1  0  0  0  0
 36 32  1  0  0  0  0
 36 35  1  0  0  0  0
 37 36  2  0  0  0  0
 38 37  1  0  0  0  0
 39 41  2  0  0  0  0
 39 37  1  0  0  0  0
 40 39  1  0  0  0  0
 41 42  1  0  0  0  0
 42 35  2  0  0  0  0
M  END
>  <minimizedAffinity>
-5.2881031

$$$$

 OpenBabel03252506483D

 42 45  0  0  1  0  0  0  0  0999 V2000
   36.0020   29.0530   39.3020 N   0  0  1  0  0  0  0  0  0  0  0  0
   37.3360   29.4350   38.9220 C   0  0  0  0  0  0  0  0  0  0  0  0
   38.2540   29.7290   40.0720 C   0  0  0  0  0  0  0  0  0  0  0  0
   37.7410   30.9190   40.8440 C   0  0  0  0  0  0  0  0  0  0  0  0
   36.2450   30.9770   40.8070 C   0  0  0  0  0  0  0  0  0  0  0  0
   35.7050   29.5760   40.6180 C   0  0  2  0  0  0  0  0  0  0  0  0
   37.7790   28.6110   38.3230 H   0  0  0  0  0  0  0  0  0  0  0  0
   37.3210   30.3750   38.2960 H   0  0  0  0  0  0  0  0  0  0  0  0
   38.5000   28.8700   40.7040 H   0  0  0  0  0  0  0  0  0  0  0  0
   39.2110   30.0840   39.5900 H   0  0  0  0  0  0  0  0  0  0  0  0
   38.1540   31.8620   40.4300 H   0  0  0  0  0  0  0  0  0  0  0  0
   38.1290   30.8680   41.9020 H   0  0  0  0  0  0  0  0  0  0  0  0
   35.9670   31.5260   39.8500 H   0  0  0  0  0  0  0  0  0  0  0  0
   35.7480   31.4950   41.6050 H   0  0  0  0  0  0  0  0  0  0  0  0
   34.5920   29.6660   40.6790 H   0  0  0  0  0  0  0  0  0  0  0  0
   34.0680   28.5520   37.6800 C   0  0  1  0  0  0  0  0  0  0  0  0
   35.3100   28.8690   36.9350 C   0  0  0  0  0  0  0  0  0  0  0  0
   35.1050   29.4340   38.2820 C   0  0  2  0  0  0  0  0  0  0  0  0
   33.9860   27.5040   38.0540 H   0  0  0  0  0  0  0  0  0  0  0  0
   36.0480   28.0600   36.7960 H   0  0  0  0  0  0  0  0  0  0  0  0
   35.1910   29.5340   36.0510 H   0  0  0  0  0  0  0  0  0  0  0  0
   34.7970   30.5220   38.3240 H   0  0  0  0  0  0  0  0  0  0  0  0
   31.8240   29.6040   38.1020 C   0  0  0  0  0  0  0  0  0  0  0  0
   32.8020   29.1270   37.2180 C   0  0  0  0  0  0  0  0  0  0  0  0
   32.5200   29.2360   35.8350 C   0  0  0  0  0  0  0  0  0  0  0  0
   31.3400   29.7870   35.4470 N   0  0  0  0  0  0  0  0  0  0  0  0
   30.4260   30.2330   36.3270 C   0  0  0  0  0  0  0  0  0  0  0  0
   30.6610   30.1460   37.6750 N   0  0  0  0  0  0  0  0  0  0  0  0
   32.0180   29.5310   39.1660 H   0  0  0  0  0  0  0  0  0  0  0  0
   33.2330   28.8850   35.0850 H   0  0  0  0  0  0  0  0  0  0  0  0
   29.5190   30.6550   35.9120 H   0  0  0  0  0  0  0  0  0  0  0  0
   36.0930   28.7130   41.6870 N   0  0  0  0  0  0  0  0  0  0  0  0
   35.4430   28.8930   42.5120 H   0  0  0  0  0  0  0  0  0  0  0  0
   36.4090   26.2060   40.3810 F   0  0  0  0  0  0  0  0  0  0  0  0
   37.1910   26.4810   41.4530 C   0  0  0  0  0  0  0  0  0  0  0  0
   37.0340   27.7250   42.0830 C   0  0  0  0  0  0  0  0  0  0  0  0
   37.8130   28.0380   43.1770 C   0  0  0  0  0  0  0  0  0  0  0  0
   37.8400   28.9080   43.7900 H   0  0  0  0  0  0  0  0  0  0  0  0
   38.7510   27.1650   43.6800 C   0  0  0  0  0  0  0  0  0  0  0  0
   39.4250   27.2730   44.5190 H   0  0  0  0  0  0  0  0  0  0  0  0
   38.9060   25.9410   43.0590 C   0  0  0  0  0  3  0  0  0  0  0  0
   38.1300   25.6260   41.9690 C   0  0  0  0  0  3  0  0  0  0  0  0
  1  2  1  6  0  0  0
  1  6  1  0  0  0  0
  2  3  1  0  0  0  0
  3  9  1  0  0  0  0
  3  4  1  0  0  0  0
  4 12  1  0  0  0  0
  5  4  1  0  0  0  0
  5 14  1  0  0  0  0
  6 15  1  1  0  0  0
  6  5  1  0  0  0  0
  6 32  1  0  0  0  0
  7  2  1  0  0  0  0
  8  2  1  0  0  0  0
 10  3  1  0  0  0  0
 11  4  1  0  0  0  0
 13  5  1  0  0  0  0
 16 19  1  1  0  0  0
 16 18  1  0  0  0  0
 17 16  1  0  0  0  0
 17 18  1  0  0  0  0
 18 22  1  1  0  0  0
 18  1  1  0  0  0  0
 20 17  1  0  0  0  0
 21 17  1  0  0  0  0
 23 29  1  0  0  0  0
 24 16  1  0  0  0  0
 24 23  2  0  0  0  0
 25 24  1  0  0  0  0
 26 25  2  0  0  0  0
 26 27  1  0  0  0  0
 27 28  2  0  0  0  0
 28 23  1  0  0  0  0
 30 25  1  0  0  0  0
 31 27  1  0  0  0  0
 32 36  1  0  0  0  0
 32 33  1  0  0  0  0
 34 35  1  0  0  0  0
 35 42  2  0  0  0  0
 35 36  1  0  0  0  0
 36 37  2  0  0  0  0
 37 39  1  0  0  0  0
 37 38  1  0  0  0  0
 39 40  1  0  0  0  0
 41 39  2  0  0  0  0
 42 41  1  0  0  0  0
M  END
>  <minimizedAffinity>
-5.25919151

$$$$

 OpenBabel03252506483D

 42 45  0  0  1  0  0  0  0  0999 V2000
   37.6670   30.6230   40.7550 N   0  0  1  0  0  0  0  0  0  0  0  0
   36.2570   30.8480   40.5780 C   0  0  0  0  0  0  0  0  0  0  0  0
   35.4200   29.6020   40.5800 C   0  0  0  0  0  0  0  0  0  0  0  0
   35.7980   28.7300   39.4100 C   0  0  0  0  0  0  0  0  0  0  0  0
   37.2520   28.8760   39.0810 C   0  0  0  0  0  0  0  0  0  0  0  0
   37.9990   29.2790   40.3340 C   0  0  2  0  0  0  0  0  0  0  0  0
   35.9020   31.5090   41.3990 H   0  0  0  0  0  0  0  0  0  0  0  0
   36.0520   31.3510   39.5880 H   0  0  0  0  0  0  0  0  0  0  0  0
   35.3850   29.0640   41.5330 H   0  0  0  0  0  0  0  0  0  0  0  0
   34.3740   29.9600   40.3520 H   0  0  0  0  0  0  0  0  0  0  0  0
   35.1940   28.9900   38.5160 H   0  0  0  0  0  0  0  0  0  0  0  0
   35.5300   27.6600   39.6440 H   0  0  0  0  0  0  0  0  0  0  0  0
   37.3390   29.7750   38.3910 H   0  0  0  0  0  0  0  0  0  0  0  0
   37.7310   28.0600   38.5730 H   0  0  0  0  0  0  0  0  0  0  0  0
   39.0810   29.2940   40.0540 H   0  0  0  0  0  0  0  0  0  0  0  0
   39.7930   32.0270   40.4020 C   0  0  1  0  0  0  0  0  0  0  0  0
   38.6770   32.8760   40.8810 C   0  0  0  0  0  0  0  0  0  0  0  0
   38.3820   31.6530   40.1110 C   0  0  2  0  0  0  0  0  0  0  0  0
   40.3370   31.4570   41.1910 H   0  0  0  0  0  0  0  0  0  0  0  0
   38.4720   32.8930   41.9660 H   0  0  0  0  0  0  0  0  0  0  0  0
   38.5670   33.8650   40.3810 H   0  0  0  0  0  0  0  0  0  0  0  0
   38.0940   31.8050   39.0270 H   0  0  0  0  0  0  0  0  0  0  0  0
   40.9980   33.8850   39.2100 C   0  0  0  0  0  0  0  0  0  0  0  0
   40.6510   32.5320   39.3240 C   0  0  0  0  0  0  0  0  0  0  0  0
   41.1800   31.6520   38.3500 C   0  0  0  0  0  0  0  0  0  0  0  0
   41.9800   32.1580   37.3760 N   0  0  0  0  0  0  0  0  0  0  0  0
   42.2910   33.4640   37.3000 C   0  0  0  0  0  0  0  0  0  0  0  0
   41.7990   34.3490   38.2240 N   0  0  0  0  0  0  0  0  0  0  0  0
   40.6040   34.5770   39.9460 H   0  0  0  0  0  0  0  0  0  0  0  0
   40.9530   30.5840   38.3730 H   0  0  0  0  0  0  0  0  0  0  0  0
   42.9380   33.7620   36.4830 H   0  0  0  0  0  0  0  0  0  0  0  0
   37.8690   28.2990   41.3640 N   0  0  0  0  0  0  0  0  0  0  0  0
   37.4790   28.7780   42.2320 H   0  0  0  0  0  0  0  0  0  0  0  0
   40.4360   27.1680   41.8390 F   0  0  0  0  0  0  0  0  0  0  0  0
   39.3490   26.3610   41.9100 C   0  0  0  0  0  0  0  0  0  0  0  0
   38.0880   26.9320   41.6840 C   0  0  0  0  0  0  0  0  0  0  0  0
   36.9610   26.1390   41.7470 C   0  0  0  0  0  0  0  0  0  0  0  0
   35.9330   26.3740   41.6000 H   0  0  0  0  0  0  0  0  0  0  0  0
   37.0290   24.7930   42.0270 C   0  0  0  0  0  0  0  0  0  0  0  0
   36.2410   24.0570   42.1090 H   0  0  0  0  0  0  0  0  0  0  0  0
   38.2710   24.2330   42.2500 C   0  0  0  0  0  3  0  0  0  0  0  0
   39.3960   25.0200   42.1870 C   0  0  0  0  0  3  0  0  0  0  0  0
  1  2  1  6  0  0  0
  2  3  1  0  0  0  0
  2  7  1  0  0  0  0
  3  9  1  0  0  0  0
  4 12  1  0  0  0  0
  4  3  1  0  0  0  0
  5  4  1  0  0  0  0
  5  6  1  0  0  0  0
  6 15  1  6  0  0  0
  6  1  1  0  0  0  0
  6 32  1  0  0  0  0
  8  2  1  0  0  0  0
 10  3  1  0  0  0  0
 11  4  1  0  0  0  0
 13  5  1  0  0  0  0
 14  5  1  0  0  0  0
 16 17  1  0  0  0  0
 16 19  1  1  0  0  0
 17 20  1  0  0  0  0
 18 22  1  6  0  0  0
 18 16  1  0  0  0  0
 18  1  1  0  0  0  0
 18 17  1  0  0  0  0
 21 17  1  0  0  0  0
 23 24  1  0  0  0  0
 23 29  1  0  0  0  0
 24 16  1  0  0  0  0
 25 30  1  0  0  0  0
 25 24  2  0  0  0  0
 26 25  1  0  0  0  0
 27 26  2  0  0  0  0
 27 28  1  0  0  0  0
 28 23  2  0  0  0  0
 31 27  1  0  0  0  0
 32 36  1  0  0  0  0
 32 33  1  0  0  0  0
 34 35  1  0  0  0  0
 35 42  1  0  0  0  0
 36 37  1  0  0  0  0
 36 35  2  0  0  0  0
 37 39  2  0  0  0  0
 38 37  1  0  0  0  0
 39 40  1  0  0  0  0
 39 41  1  0  0  0  0
 42 41  2  0  0  0  0
M  END
>  <minimizedAffinity>
-5.23492908

$$$$

 OpenBabel03252506483D

 42 45  0  0  1  0  0  0  0  0999 V2000
   38.6060   31.0050   40.5240 N   0  0  1  0  0  0  0  0  0  0  0  0
   37.3080   31.5940   40.7240 C   0  0  0  0  0  0  0  0  0  0  0  0
   36.2020   30.6060   40.9550 C   0  0  0  0  0  0  0  0  0  0  0  0
   36.0250   29.7410   39.7330 C   0  0  0  0  0  0  0  0  0  0  0  0
   37.3310   29.5300   39.0320 C   0  0  0  0  0  0  0  0  0  0  0  0
   38.4540   29.6500   40.0410 C   0  0  2  0  0  0  0  0  0  0  0  0
   37.3620   32.2700   41.6040 H   0  0  0  0  0  0  0  0  0  0  0  0
   36.9960   32.1930   39.8190 H   0  0  0  0  0  0  0  0  0  0  0  0
   36.2720   30.0360   41.8880 H   0  0  0  0  0  0  0  0  0  0  0  0
   35.2650   31.2330   41.0080 H   0  0  0  0  0  0  0  0  0  0  0  0
   35.3030   30.2020   39.0280 H   0  0  0  0  0  0  0  0  0  0  0  0
   35.5540   28.7630   40.0370 H   0  0  0  0  0  0  0  0  0  0  0  0
   37.4720   30.4190   38.3360 H   0  0  0  0  0  0  0  0  0  0  0  0
   37.4320   28.6530   38.4210 H   0  0  0  0  0  0  0  0  0  0  0  0
   39.3920   29.4050   39.4850 H   0  0  0  0  0  0  0  0  0  0  0  0
   40.4870   32.7260   40.1840 C   0  0  1  0  0  0  0  0  0  0  0  0
   39.1710   33.3110   39.8350 C   0  0  0  0  0  0  0  0  0  0  0  0
   39.3770   31.8570   39.7070 C   0  0  2  0  0  0  0  0  0  0  0  0
   40.7360   32.7140   41.2710 H   0  0  0  0  0  0  0  0  0  0  0  0
   38.5450   33.6970   40.6590 H   0  0  0  0  0  0  0  0  0  0  0  0
   39.1430   33.9330   38.9130 H   0  0  0  0  0  0  0  0  0  0  0  0
   39.5350   31.4670   38.6560 H   0  0  0  0  0  0  0  0  0  0  0  0
   42.7360   32.1330   39.2280 C   0  0  0  0  0  0  0  0  0  0  0  0
   41.6320   32.9930   39.3070 C   0  0  0  0  0  0  0  0  0  0  0  0
   41.6580   34.1440   38.4840 C   0  0  0  0  0  0  0  0  0  0  0  0
   42.7320   34.3490   37.6770 N   0  0  0  0  0  0  0  0  0  0  0  0
   43.7740   33.4980   37.6280 C   0  0  0  0  0  0  0  0  0  0  0  0
   43.7860   32.3730   38.4100 N   0  0  0  0  0  0  0  0  0  0  0  0
   42.7370   31.2450   39.8490 H   0  0  0  0  0  0  0  0  0  0  0  0
   40.8350   34.8620   38.4920 H   0  0  0  0  0  0  0  0  0  0  0  0
   44.5780   33.7560   36.9500 H   0  0  0  0  0  0  0  0  0  0  0  0
   38.3380   28.6730   41.0750 N   0  0  0  0  0  0  0  0  0  0  0  0
   38.5180   29.1540   42.0090 H   0  0  0  0  0  0  0  0  0  0  0  0
   36.1960   27.7000   42.6740 F   0  0  0  0  0  0  0  0  0  0  0  0
   37.0570   26.8060   42.1300 C   0  0  0  0  0  0  0  0  0  0  0  0
   38.1030   27.2960   41.3350 C   0  0  0  0  0  0  0  0  0  0  0  0
   38.9980   26.4140   40.7660 C   0  0  0  0  0  0  0  0  0  0  0  0
   39.8500   26.5820   40.1510 H   0  0  0  0  0  0  0  0  0  0  0  0
   38.9000   25.0530   40.9520 C   0  0  0  0  0  0  0  0  0  0  0  0
   39.5200   24.2510   40.5740 H   0  0  0  0  0  0  0  0  0  0  0  0
   37.8690   24.5710   41.7350 C   0  0  0  0  0  3  0  0  0  0  0  0
   36.9770   25.4490   42.3030 C   0  0  0  0  0  3  0  0  0  0  0  0
  1  2  1  6  0  0  0
  2  3  1  0  0  0  0
  2  7  1  0  0  0  0
  3 10  1  0  0  0  0
  3  9  1  0  0  0  0
  4 12  1  0  0  0  0
  4  3  1  0  0  0  0
  5  4  1  0  0  0  0
  5  6  1  0  0  0  0
  6 15  1  6  0  0  0
  6  1  1  0  0  0  0
  6 32  1  0  0  0  0
  8  2  1  0  0  0  0
 11  4  1  0  0  0  0
 13  5  1  0  0  0  0
 14  5  1  0  0  0  0
 16 19  1  1  0  0  0
 17 16  1  0  0  0  0
 17 20  1  0  0  0  0
 18 22  1  6  0  0  0
 18 17  1  0  0  0  0
 18 16  1  0  0  0  0
 18  1  1  0  0  0  0
 21 17  1  0  0  0  0
 23 24  1  0  0  0  0
 23 29  1  0  0  0  0
 24 16  1  0  0  0  0
 25 30  1  0  0  0  0
 25 24  2  0  0  0  0
 26 25  1  0  0  0  0
 27 26  2  0  0  0  0
 27 28  1  0  0  0  0
 28 23  2  0  0  0  0
 31 27  1  0  0  0  0
 32 36  1  0  0  0  0
 32 33  1  0  0  0  0
 35 42  1  0  0  0  0
 35 34  1  0  0  0  0
 36 35  2  0  0  0  0
 37 39  2  0  0  0  0
 37 36  1  0  0  0  0
 38 37  1  0  0  0  0
 39 41  1  0  0  0  0
 40 39  1  0  0  0  0
 41 42  2  0  0  0  0
M  END
>  <minimizedAffinity>
-5.2226553

$$$$
