
 OpenBabel03252509043D

 48 50  0  0  1  0  0  0  0  0999 V2000
   46.7270   34.3870   43.3830 N   0  0  0  0  0  0  0  0  0  0  0  0
   46.4730   34.8660   42.0810 C   0  0  0  0  0  0  0  0  0  0  0  0
   45.0190   34.8150   41.6590 C   0  0  0  0  0  0  0  0  0  0  0  0
   44.0320   35.0090   42.7900 C   0  0  0  0  0  0  0  0  0  0  0  0
   44.7490   35.3590   44.0850 C   0  0  0  0  0  0  0  0  0  0  0  0
   45.7250   34.1360   44.2850 C   0  0  2  0  0  0  0  0  0  0  0  0
   46.7590   35.9580   42.0610 H   0  0  0  0  0  0  0  0  0  0  0  0
   47.0460   34.4130   41.2680 H   0  0  0  0  0  0  0  0  0  0  0  0
   44.7980   33.8910   41.0580 H   0  0  0  0  0  0  0  0  0  0  0  0
   44.8250   35.6470   40.9400 H   0  0  0  0  0  0  0  0  0  0  0  0
   43.2110   35.6870   42.5420 H   0  0  0  0  0  0  0  0  0  0  0  0
   43.5660   34.0110   42.9650 H   0  0  0  0  0  0  0  0  0  0  0  0
   44.0030   35.3420   44.9010 H   0  0  0  0  0  0  0  0  0  0  0  0
   45.3480   36.2770   44.0170 H   0  0  0  0  0  0  0  0  0  0  0  0
   45.1080   33.2200   44.1560 H   0  0  0  0  0  0  0  0  0  0  0  0
   47.9580   33.6290   43.4970 C   0  0  0  0  0  0  0  0  0  0  0  0
   48.1590   33.4220   44.5710 H   0  0  0  0  0  0  0  0  0  0  0  0
   48.7990   34.2000   43.0950 H   0  0  0  0  0  0  0  0  0  0  0  0
   47.7710   32.3190   42.8060 C   0  0  0  0  0  0  0  0  0  0  0  0
   47.6580   31.4590   43.4880 H   0  0  0  0  0  0  0  0  0  0  0  0
   46.8570   32.3330   42.1590 H   0  0  0  0  0  0  0  0  0  0  0  0
   51.2560   32.1430   41.4080 C   0  0  0  0  0  0  0  0  0  0  0  0
   50.1800   32.3500   42.2880 C   0  0  0  0  0  0  0  0  0  0  0  0
   48.9030   32.0960   41.8660 C   0  0  0  0  0  0  0  0  0  0  0  0
   48.7490   31.6550   40.6110 N   0  0  0  0  0  0  0  0  0  0  0  0
   49.7740   31.4580   39.7740 C   0  0  0  0  0  0  0  0  0  0  0  0
   51.0370   31.6960   40.1550 N   0  0  0  0  0  0  0  0  0  0  0  0
   52.2090   32.3810   41.8590 H   0  0  0  0  0  0  0  0  0  0  0  0
   50.3210   32.7120   43.3110 H   0  0  0  0  0  0  0  0  0  0  0  0
   49.6770   31.1040   38.7600 H   0  0  0  0  0  0  0  0  0  0  0  0
   46.1210   34.3180   45.6000 O   0  0  0  0  0  0  0  0  0  0  0  0
   45.7410   31.6850   45.6310 O   0  0  0  0  0  0  0  0  0  0  0  0
   46.0230   32.9030   46.5160 P   0  0  2  0  0  0  0  0  0  0  0  0
   44.6560   33.0850   47.5070 O   0  0  0  0  0  0  0  0  0  0  0  0
   44.8230   33.7990   48.1600 H   0  0  0  0  0  0  0  0  0  0  0  0
   47.3630   32.6910   47.4950 O   0  0  0  0  0  0  0  0  0  0  0  0
   47.0970   31.6150   48.3540 C   0  0  0  0  0  0  0  0  0  0  0  0
   47.1320   31.9490   49.4150 H   0  0  0  0  0  0  0  0  0  0  0  0
   46.1240   31.1460   48.1720 H   0  0  0  0  0  0  0  0  0  0  0  0
   49.3590   31.7640   49.8920 F   0  0  0  0  0  0  0  0  0  0  0  0
   49.2710   30.7760   48.9570 C   0  0  0  0  0  0  0  0  0  0  0  0
   48.1590   30.6060   48.1200 C   0  0  0  0  0  0  0  0  0  0  0  0
   48.1850   29.5710   47.2130 C   0  0  0  0  0  0  0  0  0  0  0  0
   47.2980   29.5130   46.6150 H   0  0  0  0  0  0  0  0  0  0  0  0
   49.2680   28.7230   47.1270 C   0  0  0  0  0  0  0  0  0  0  0  0
   49.2460   27.9360   46.4110 H   0  0  0  0  0  0  0  0  0  0  0  0
   50.3840   28.8690   47.9450 C   0  0  0  0  0  3  0  0  0  0  0  0
   50.3420   29.9080   48.8430 C   0  0  0  0  0  3  0  0  0  0  0  0
  1 16  1  0  0  0  0
  1  6  1  0  0  0  0
  2  1  1  0  0  0  0
  3  2  1  0  0  0  0
  3  4  1  0  0  0  0
  4 12  1  0  0  0  0
  4  5  1  0  0  0  0
  5  6  1  0  0  0  0
  5 13  1  0  0  0  0
  6 15  1  6  0  0  0
  6 31  1  0  0  0  0
  7  2  1  0  0  0  0
  8  2  1  0  0  0  0
  9  3  1  0  0  0  0
 10  3  1  0  0  0  0
 11  4  1  0  0  0  0
 14  5  1  0  0  0  0
 16 17  1  0  0  0  0
 18 16  1  0  0  0  0
 19 20  1  0  0  0  0
 19 16  1  0  0  0  0
 21 19  1  0  0  0  0
 22 28  1  0  0  0  0
 22 23  1  0  0  0  0
 23 29  1  0  0  0  0
 24 23  2  0  0  0  0
 24 19  1  0  0  0  0
 25 24  1  0  0  0  0
 26 27  1  0  0  0  0
 26 25  2  0  0  0  0
 27 22  2  0  0  0  0
 30 26  1  0  0  0  0
 31 33  1  0  0  0  0
 33 32  2  6  0  0  0
 33 36  1  0  0  0  0
 33 34  1  0  0  0  0
 34 35  1  0  0  0  0
 36 37  1  0  0  0  0
 37 38  1  0  0  0  0
 39 37  1  0  0  0  0
 41 40  1  0  0  0  0
 42 37  1  0  0  0  0
 42 41  2  0  0  0  0
 43 42  1  0  0  0  0
 44 43  1  0  0  0  0
 45 43  2  0  0  0  0
 45 47  1  0  0  0  0
 46 45  1  0  0  0  0
 47 48  2  0  0  0  0
 48 41  1  0  0  0  0
M  END
>  <minimizedAffinity>
-5.09885645

>  <minimizedRMSD>
2.69298697

$$$$
