
 OpenBabel03252503223D

 40 44  0  0  1  0  0  0  0  0999 V2000
   47.2040   33.9040   40.5710 C   0  0  1  0  0  0  0  0  0  0  0  0
   48.2620   34.8450   40.2650 C   0  0  0  0  0  0  0  0  0  0  0  0
   48.4450   33.3960   39.8950 C   0  0  2  0  0  0  0  0  0  0  0  0
   46.2360   33.8610   39.9880 H   0  0  0  0  0  0  0  0  0  0  0  0
   48.8440   35.2330   41.1440 H   0  0  0  0  0  0  0  0  0  0  0  0
   48.2210   35.5610   39.4280 H   0  0  0  0  0  0  0  0  0  0  0  0
   49.1690   32.8500   40.4980 H   0  0  0  0  0  0  0  0  0  0  0  0
   48.2860   33.0720   38.4550 C   0  0  0  0  0  0  0  0  0  0  0  0
   49.3570   32.8620   37.5870 C   0  0  0  0  0  0  0  0  0  0  0  0
   49.1560   32.5520   36.2580 C   0  0  0  0  0  0  0  0  0  0  0  0
   47.8740   32.4420   35.7620 C   0  0  0  0  0  0  0  0  0  0  0  0
   47.6190   32.1330   34.4590 N   0  0  0  0  0  0  0  0  0  0  0  0
   46.3530   32.0260   33.9970 C   0  0  0  0  0  0  0  0  0  0  0  0
   45.2220   32.2210   34.8090 C   0  0  0  0  0  0  0  0  0  0  0  0
   45.4460   32.5350   36.1340 C   0  0  0  0  0  0  0  0  0  0  0  0
   46.7660   32.6410   36.5890 C   0  0  0  0  0  0  0  0  0  0  0  0
   47.0280   32.9520   37.9130 C   0  0  0  0  0  0  0  0  0  0  0  0
   50.3530   32.9540   38.0050 H   0  0  0  0  0  0  0  0  0  0  0  0
   49.9860   32.3870   35.5780 H   0  0  0  0  0  0  0  0  0  0  0  0
   46.1310   31.7830   32.9640 H   0  0  0  0  0  0  0  0  0  0  0  0
   44.2280   32.1280   34.4130 H   0  0  0  0  0  0  0  0  0  0  0  0
   44.6080   32.6900   36.7810 H   0  0  0  0  0  0  0  0  0  0  0  0
   46.1120   33.1070   38.4790 H   0  0  0  0  0  0  0  0  0  0  0  0
   45.6260   33.1060   42.3710 C   0  0  0  0  0  0  0  0  0  0  0  0
   46.9380   33.4720   41.9680 C   0  0  0  0  0  0  0  0  0  0  0  0
   47.9460   33.4110   42.9100 C   0  0  0  0  0  0  0  0  0  0  0  0
   47.6120   33.0030   44.1690 N   0  0  0  0  0  0  0  0  0  0  0  0
   46.3660   32.6620   44.5320 C   0  0  0  0  0  0  0  0  0  0  0  0
   45.3640   32.7150   43.6260 N   0  0  0  0  0  0  0  0  0  0  0  0
   44.8690   33.1660   41.6150 H   0  0  0  0  0  0  0  0  0  0  0  0
   48.9630   33.6760   42.6630 H   0  0  0  0  0  0  0  0  0  0  0  0
   45.1020   34.3520   46.4440 F   0  0  0  0  0  0  0  0  0  0  0  0
   45.4300   33.0740   46.7870 C   0  0  0  0  0  0  0  0  0  0  0  0
   46.0420   32.2310   45.8870 C   0  0  0  0  0  0  0  0  0  0  0  0
   46.3310   30.9550   46.3330 C   0  0  0  0  0  0  0  0  0  0  0  0
   46.8190   30.3020   45.5970 H   0  0  0  0  0  0  0  0  0  0  0  0
   46.0150   30.5670   47.6210 C   0  0  0  0  0  0  0  0  0  0  0  0
   46.3060   29.5380   47.8180 H   0  0  0  0  0  0  0  0  0  0  0  0
   45.4040   31.4260   48.5040 C   0  0  0  0  0  0  0  0  0  0  0  0
   45.1030   32.7100   48.0810 C   0  0  0  0  0  0  0  0  0  0  0  0
  1  4  1  6  0  0  0
  1 25  1  0  0  0  0
  2  1  1  0  0  0  0
  2  5  1  0  0  0  0
  3  2  1  0  0  0  0
  3  7  1  1  0  0  0
  3  1  1  0  0  0  0
  6  2  1  0  0  0  0
  8  3  1  0  0  0  0
  9 18  1  0  0  0  0
  9  8  2  0  0  0  0
 10  9  1  0  0  0  0
 11 10  2  0  0  0  0
 11 16  1  0  0  0  0
 12 11  1  0  0  0  0
 13 12  2  0  0  0  0
 13 14  1  0  0  0  0
 14 15  2  0  0  0  0
 15 16  1  0  0  0  0
 15 22  1  0  0  0  0
 16 17  2  0  0  0  0
 17  8  1  0  0  0  0
 17 23  1  0  0  0  0
 19 10  1  0  0  0  0
 20 13  1  0  0  0  0
 21 14  1  0  0  0  0
 24 29  1  0  0  0  0
 25 24  2  0  0  0  0
 25 26  1  0  0  0  0
 26 27  2  0  0  0  0
 27 28  1  0  0  0  0
 28 34  1  0  0  0  0
 29 28  2  0  0  0  0
 30 24  1  0  0  0  0
 31 26  1  0  0  0  0
 32 33  1  0  0  0  0
 33 40  1  0  0  0  0
 34 35  1  0  0  0  0
 34 33  2  0  0  0  0
 35 37  2  0  0  0  0
 36 35  1  0  0  0  0
 37 38  1  0  0  0  0
 37 39  1  0  0  0  0
 40 39  2  0  0  0  0
M  END
>  <minimizedAffinity>
-5.66977787

>  <minimizedRMSD>
4.47208309

$$$$
