
 OpenBabel03242521553D

 48 52  0  0  0  0  0  0  0  0999 V2000
   46.5270   32.0160   46.2570 C   0  0  0  0  0  0  0  0  0  0  0  0
   46.6480   32.6900   47.4720 C   0  0  0  0  0  0  0  0  0  0  0  0
   47.1110   32.0740   48.6410 C   0  0  0  0  0  0  0  0  0  0  0  0
   47.4720   30.7540   48.6380 C   0  0  0  0  0  0  0  0  0  0  0  0
   47.3530   30.0450   47.4230 C   0  0  0  0  0  0  0  0  0  0  0  0
   47.6690   28.7280   47.4730 C   0  0  0  0  0  0  0  0  0  0  0  0
   47.4900   27.9810   46.3090 C   0  0  0  0  0  0  0  0  0  0  0  0
   46.9790   28.6450   45.1350 C   0  0  0  0  0  0  0  0  0  0  0  0
   46.7070   29.9880   45.2510 C   0  0  0  0  0  0  0  0  0  0  0  0
   46.8730   30.7530   46.3180 C   0  0  0  0  0  0  0  0  0  0  0  0
   46.3600   33.7540   47.4860 H   0  0  0  0  0  0  0  0  0  0  0  0
   47.1720   32.6700   49.5400 H   0  0  0  0  0  0  0  0  0  0  0  0
   47.8290   30.2920   49.5260 H   0  0  0  0  0  0  0  0  0  0  0  0
   48.0450   28.2770   48.3810 H   0  0  0  0  0  0  0  0  0  0  0  0
   47.7660   26.9430   46.4170 H   0  0  0  0  0  0  0  0  0  0  0  0
   46.9470   27.8410   44.4170 H   0  0  0  0  0  0  0  0  0  0  0  0
   44.5560   29.6620   44.4060 C   0  0  0  0  0  0  0  0  0  0  0  0
   45.9180   29.9950   44.0350 C   0  0  0  0  0  0  0  0  0  0  0  0
   46.0380   30.0600   42.7110 C   0  0  0  0  0  0  0  0  0  0  0  0
   45.0320   29.8410   41.7950 C   0  0  0  0  0  0  0  0  0  0  0  0
   43.7570   29.5240   42.1650 C   0  0  0  0  0  0  0  0  0  0  0  0
   43.5240   29.4350   43.5170 C   0  0  0  0  0  0  0  0  0  0  0  0
   47.0940   30.3200   42.5280 H   0  0  0  0  0  0  0  0  0  0  0  0
   45.3490   29.9440   40.7760 H   0  0  0  0  0  0  0  0  0  0  0  0
   43.0080   29.3620   41.4010 H   0  0  0  0  0  0  0  0  0  0  0  0
   44.0530   29.5150   45.7280 O   0  0  0  0  0  0  0  0  0  0  0  0
   43.8930   30.3780   46.2490 H   0  0  0  0  0  0  0  0  0  0  0  0
   42.2210   29.1080   43.8300 O   0  0  0  0  0  0  0  0  0  0  0  0
   40.4280   28.8650   45.8370 F   0  0  0  0  0  0  0  0  0  0  0  0
   41.0760   27.7360   45.4480 C   0  0  0  0  0  0  0  0  0  0  0  0
   41.9900   27.8730   44.4210 C   0  0  0  0  0  0  0  0  0  0  0  0
   42.6640   26.7250   44.0070 C   0  0  0  0  0  0  0  0  0  0  0  0
   43.3840   26.7690   43.2180 H   0  0  0  0  0  0  0  0  0  0  0  0
   42.3510   25.5650   44.6660 C   0  0  0  0  0  0  0  0  0  0  0  0
   42.8650   24.6400   44.3650 H   0  0  0  0  0  0  0  0  0  0  0  0
   41.4440   25.4060   45.6920 C   0  0  0  0  0  0  0  0  0  0  0  0
   40.7710   26.5530   46.1020 C   0  0  0  0  0  0  0  0  0  0  0  0
   45.2450   33.8310   43.2590 C   0  0  0  0  0  0  0  0  0  0  0  0
   46.4650   34.3210   42.7330 C   0  0  0  0  0  0  0  0  0  0  0  0
   47.6080   33.9730   43.4210 C   0  0  0  0  0  0  0  0  0  0  0  0
   47.4130   33.2190   44.4990 N   0  0  0  0  0  0  0  0  0  0  0  0
   46.2900   32.7440   45.0210 C   0  0  0  0  0  0  0  0  0  0  0  0
   45.2190   33.0760   44.3620 N   0  0  0  0  0  0  0  0  0  0  0  0
   44.3200   34.0850   42.7400 H   0  0  0  0  0  0  0  0  0  0  0  0
   46.5150   34.9340   41.8440 H   0  0  0  0  0  0  0  0  0  0  0  0
   48.9020   34.3410   42.9740 N   0  0  0  0  0  0  0  0  0  0  0  0
   48.9590   33.4870   42.3540 H   0  0  0  0  0  0  0  0  0  0  0  0
   49.4370   35.1930   43.2720 H   0  0  0  0  0  0  0  0  0  0  0  0
  1 10  2  0  0  0  0
  1  2  1  0  0  0  0
  2 11  1  0  0  0  0
  2  3  2  0  0  0  0
  3 12  1  0  0  0  0
  4  3  1  0  0  0  0
  4 13  1  0  0  0  0
  5  6  1  0  0  0  0
  5  4  2  0  0  0  0
  6 14  1  0  0  0  0
  7 15  1  0  0  0  0
  7  6  2  0  0  0  0
  8  9  2  0  0  0  0
  8  7  1  0  0  0  0
  9 10  1  0  0  0  0
 10  5  1  0  0  0  0
 16  8  1  0  0  0  0
 17 26  1  0  0  0  0
 18 17  1  0  0  0  0
 18  9  1  0  0  0  0
 19 18  2  0  0  0  0
 20 21  2  0  0  0  0
 20 19  1  0  0  0  0
 21 22  1  0  0  0  0
 22 28  1  0  0  0  0
 22 17  2  0  0  0  0
 23 19  1  0  0  0  0
 24 20  1  0  0  0  0
 25 21  1  0  0  0  0
 26 27  1  0  0  0  0
 28 31  1  0  0  0  0
 30 29  1  0  0  0  0
 30 37  1  0  0  0  0
 31 30  2  0  0  0  0
 32 31  1  0  0  0  0
 32 34  2  0  0  0  0
 33 32  1  0  0  0  0
 34 36  1  0  0  0  0
 35 34  1  0  0  0  0
 36 37  2  0  0  0  0
 38 43  1  0  0  0  0
 39 38  2  0  0  0  0
 39 40  1  0  0  0  0
 40 41  2  0  0  0  0
 41 42  1  0  0  0  0
 42  1  1  0  0  0  0
 43 42  2  0  0  0  0
 44 38  1  0  0  0  0
 45 39  1  0  0  0  0
 46 48  1  0  0  0  0
 46 40  1  0  0  0  0
 47 46  1  0  0  0  0
M  END
>  <minimizedAffinity>
-5.63692331

>  <minimizedRMSD>
0.891764581

$$$$
