
 OpenBabel03252509043D

 48 50  0  0  1  0  0  0  0  0999 V2000
   46.7240   34.3640   43.4910 N   0  0  0  0  0  0  0  0  0  0  0  0
   46.4650   34.9430   42.2310 C   0  0  0  0  0  0  0  0  0  0  0  0
   45.0000   35.0000   41.8490 C   0  0  0  0  0  0  0  0  0  0  0  0
   44.0550   35.1710   43.0180 C   0  0  0  0  0  0  0  0  0  0  0  0
   44.8230   35.3930   44.3120 C   0  0  0  0  0  0  0  0  0  0  0  0
   45.7320   34.1080   44.4030 C   0  0  2  0  0  0  0  0  0  0  0  0
   46.8120   36.0170   42.2760 H   0  0  0  0  0  0  0  0  0  0  0  0
   46.9910   34.5160   41.3740 H   0  0  0  0  0  0  0  0  0  0  0  0
   44.7120   34.1320   41.1950 H   0  0  0  0  0  0  0  0  0  0  0  0
   44.8360   35.8880   41.1920 H   0  0  0  0  0  0  0  0  0  0  0  0
   43.2670   35.9090   42.8390 H   0  0  0  0  0  0  0  0  0  0  0  0
   43.5380   34.1900   43.1400 H   0  0  0  0  0  0  0  0  0  0  0  0
   44.0970   35.3620   45.1460 H   0  0  0  0  0  0  0  0  0  0  0  0
   45.4700   36.2800   44.2870 H   0  0  0  0  0  0  0  0  0  0  0  0
   45.0620   33.2380   44.2310 H   0  0  0  0  0  0  0  0  0  0  0  0
   47.9130   33.5340   43.5200 C   0  0  0  0  0  0  0  0  0  0  0  0
   48.0910   33.1890   44.5610 H   0  0  0  0  0  0  0  0  0  0  0  0
   48.7880   34.1050   43.1940 H   0  0  0  0  0  0  0  0  0  0  0  0
   47.6670   32.3290   42.6740 C   0  0  0  0  0  0  0  0  0  0  0  0
   47.4250   31.4160   43.2450 H   0  0  0  0  0  0  0  0  0  0  0  0
   46.8110   32.4980   41.9720 H   0  0  0  0  0  0  0  0  0  0  0  0
   51.2150   32.1900   41.4390 C   0  0  0  0  0  0  0  0  0  0  0  0
   50.0950   32.4030   42.2620 C   0  0  0  0  0  0  0  0  0  0  0  0
   48.8450   32.0990   41.7950 C   0  0  0  0  0  0  0  0  0  0  0  0
   48.7590   31.6050   40.5530 N   0  0  0  0  0  0  0  0  0  0  0  0
   49.8250   31.4030   39.7700 C   0  0  0  0  0  0  0  0  0  0  0  0
   51.0630   31.6900   40.1970 N   0  0  0  0  0  0  0  0  0  0  0  0
   52.1400   32.4700   41.9220 H   0  0  0  0  0  0  0  0  0  0  0  0
   50.1810   32.8080   43.2750 H   0  0  0  0  0  0  0  0  0  0  0  0
   49.7830   31.0070   38.7680 H   0  0  0  0  0  0  0  0  0  0  0  0
   46.1710   34.1790   45.7150 O   0  0  0  0  0  0  0  0  0  0  0  0
   45.6350   31.5760   45.5800 O   0  0  0  0  0  0  0  0  0  0  0  0
   46.0330   32.7080   46.5330 P   0  0  2  0  0  0  0  0  0  0  0  0
   44.7300   32.8930   47.6060 O   0  0  0  0  0  0  0  0  0  0  0  0
   44.9730   33.5460   48.2980 H   0  0  0  0  0  0  0  0  0  0  0  0
   47.4050   32.3500   47.4200 O   0  0  0  0  0  0  0  0  0  0  0  0
   47.6190   30.9660   47.3350 C   0  0  0  0  0  0  0  0  0  0  0  0
   46.6670   30.4160   47.5080 H   0  0  0  0  0  0  0  0  0  0  0  0
   48.0300   30.6510   46.3700 H   0  0  0  0  0  0  0  0  0  0  0  0
   48.5710   28.3990   47.3970 F   0  0  0  0  0  0  0  0  0  0  0  0
   49.0090   29.2790   48.3410 C   0  0  0  0  0  0  0  0  0  0  0  0
   48.5900   30.6150   48.3990 C   0  0  0  0  0  0  0  0  0  0  0  0
   49.1030   31.4100   49.4010 C   0  0  0  0  0  0  0  0  0  0  0  0
   48.7310   32.4140   49.3720 H   0  0  0  0  0  0  0  0  0  0  0  0
   50.0020   30.9130   50.3180 C   0  0  0  0  0  0  0  0  0  0  0  0
   50.3730   31.5620   51.0760 H   0  0  0  0  0  0  0  0  0  0  0  0
   50.4360   29.5910   50.2830 C   0  0  0  0  0  3  0  0  0  0  0  0
   49.9130   28.8120   49.2780 C   0  0  0  0  0  3  0  0  0  0  0  0
  1 16  1  0  0  0  0
  1  6  1  0  0  0  0
  2  7  1  0  0  0  0
  2  1  1  0  0  0  0
  3  2  1  0  0  0  0
  3  4  1  0  0  0  0
  4 12  1  0  0  0  0
  4  5  1  0  0  0  0
  5  6  1  0  0  0  0
  5 13  1  0  0  0  0
  6 15  1  6  0  0  0
  6 31  1  0  0  0  0
  8  2  1  0  0  0  0
  9  3  1  0  0  0  0
 10  3  1  0  0  0  0
 11  4  1  0  0  0  0
 14  5  1  0  0  0  0
 16 17  1  0  0  0  0
 18 16  1  0  0  0  0
 19 20  1  0  0  0  0
 19 16  1  0  0  0  0
 21 19  1  0  0  0  0
 22 28  1  0  0  0  0
 22 23  1  0  0  0  0
 23 29  1  0  0  0  0
 24 23  2  0  0  0  0
 24 19  1  0  0  0  0
 25 24  1  0  0  0  0
 26 27  1  0  0  0  0
 26 25  2  0  0  0  0
 27 22  2  0  0  0  0
 30 26  1  0  0  0  0
 31 33  1  0  0  0  0
 33 32  2  6  0  0  0
 33 36  1  0  0  0  0
 33 34  1  0  0  0  0
 34 35  1  0  0  0  0
 37 36  1  0  0  0  0
 37 38  1  0  0  0  0
 37 42  1  0  0  0  0
 39 37  1  0  0  0  0
 40 41  1  0  0  0  0
 41 42  2  0  0  0  0
 41 48  1  0  0  0  0
 42 43  1  0  0  0  0
 43 45  2  0  0  0  0
 44 43  1  0  0  0  0
 45 46  1  0  0  0  0
 47 45  1  0  0  0  0
 48 47  2  0  0  0  0
M  END
>  <minimizedAffinity>
-5.20172787

>  <minimizedRMSD>
2.93068624

$$$$
