
 OpenBabel03252505413D

 28 30  0  0  1  0  0  0  0  0999 V2000
   37.4710   28.4930   43.0870 C   0  0  1  0  0  0  0  0  0  0  0  0
   36.4880   27.3760   43.5130 C   0  0  0  0  0  0  0  0  0  0  0  0
   37.8660   27.0930   43.0400 C   0  0  1  0  0  0  0  0  0  0  0  0
   37.8040   29.1570   43.9200 H   0  0  0  0  0  0  0  0  0  0  0  0
   36.2710   27.3790   44.5990 H   0  0  0  0  0  0  0  0  0  0  0  0
   35.6040   27.2390   42.8570 H   0  0  0  0  0  0  0  0  0  0  0  0
   38.5660   26.7680   43.8990 H   0  0  0  0  0  0  0  0  0  0  0  0
   36.4120   24.7210   42.7000 F   0  0  0  0  0  0  0  0  0  0  0  0
   37.2820   25.0550   41.6990 C   0  0  0  0  0  0  0  0  0  0  0  0
   38.0130   26.2430   41.8650 C   0  0  0  0  0  0  0  0  0  0  0  0
   38.8530   26.4590   40.7770 C   0  0  0  0  0  0  0  0  0  0  0  0
   39.4670   27.3480   40.7920 H   0  0  0  0  0  0  0  0  0  0  0  0
   38.9750   25.6530   39.6870 C   0  0  0  0  0  0  0  0  0  0  0  0
   39.6530   25.8970   38.8870 H   0  0  0  0  0  0  0  0  0  0  0  0
   38.2280   24.5210   39.6070 C   0  0  0  0  0  3  0  0  0  0  0  0
   37.3560   24.1970   40.6270 C   0  0  0  0  0  3  0  0  0  0  0  0
   37.0260   29.2770   41.9170 C   0  0  0  0  0  0  0  0  0  0  0  0
   35.9110   28.8110   41.2160 C   0  0  0  0  0  0  0  0  0  0  0  0
   35.4600   29.5410   40.1200 C   0  0  0  0  0  0  0  0  0  0  0  0
   36.1370   30.6740   39.7930 N   0  0  0  0  0  0  0  0  0  0  0  0
   37.2130   31.0940   40.4960 C   0  0  0  0  0  0  0  0  0  0  0  0
   37.6500   30.3830   41.5610 N   0  0  0  0  0  0  0  0  0  0  0  0
   35.3100   27.9400   41.3700 H   0  0  0  0  0  0  0  0  0  0  0  0
   34.6090   29.2770   39.5050 H   0  0  0  0  0  0  0  0  0  0  0  0
   37.8160   32.3670   39.9760 C   0  0  0  0  0  0  0  0  0  0  0  0
   38.2420   33.1870   40.9880 F   0  0  0  0  0  0  0  0  0  0  0  0
   36.8740   33.0540   39.2110 F   0  0  0  0  0  0  0  0  0  0  0  0
   38.8390   32.0540   39.0870 F   0  0  0  0  0  0  0  0  0  0  0  0
  1  2  1  0  0  0  0
  1  4  1  1  0  0  0
  2  5  1  0  0  0  0
  3  1  1  0  0  0  0
  3  2  1  0  0  0  0
  3  7  1  1  0  0  0
  6  2  1  0  0  0  0
  9 10  1  0  0  0  0
  9  8  1  0  0  0  0
 10  3  1  0  0  0  0
 11 12  1  0  0  0  0
 11 10  2  0  0  0  0
 13 11  1  0  0  0  0
 14 13  1  0  0  0  0
 15 13  2  0  0  0  0
 15 16  1  0  0  0  0
 16  9  2  0  0  0  0
 17  1  1  0  0  0  0
 18 23  1  0  0  0  0
 18 17  2  0  0  0  0
 19 18  1  0  0  0  0
 20 19  2  0  0  0  0
 20 21  1  0  0  0  0
 21 22  2  0  0  0  0
 22 17  1  0  0  0  0
 24 19  1  0  0  0  0
 25 21  1  0  0  0  0
 25 26  1  0  0  0  0
 27 25  1  0  0  0  0
 28 25  1  0  0  0  0
M  END
>  <minimizedAffinity>
-5.76351452

$$$$

 OpenBabel03252505413D

 28 30  0  0  1  0  0  0  0  0999 V2000
   37.5170   28.7110   42.8950 C   0  0  1  0  0  0  0  0  0  0  0  0
   36.5790   27.7620   43.6800 C   0  0  0  0  0  0  0  0  0  0  0  0
   37.8930   27.3280   43.1440 C   0  0  1  0  0  0  0  0  0  0  0  0
   37.9460   29.5430   43.5020 H   0  0  0  0  0  0  0  0  0  0  0  0
   36.4860   28.0320   44.7500 H   0  0  0  0  0  0  0  0  0  0  0  0
   35.6270   27.5030   43.1760 H   0  0  0  0  0  0  0  0  0  0  0  0
   38.6820   27.1930   43.9760 H   0  0  0  0  0  0  0  0  0  0  0  0
   39.8100   27.0850   41.1140 F   0  0  0  0  0  0  0  0  0  0  0  0
   38.8640   26.1000   41.1840 C   0  0  0  0  0  0  0  0  0  0  0  0
   37.9000   26.2170   42.1990 C   0  0  0  0  0  0  0  0  0  0  0  0
   37.0060   25.1520   42.1550 C   0  0  0  0  0  0  0  0  0  0  0  0
   36.2180   25.1340   42.8930 H   0  0  0  0  0  0  0  0  0  0  0  0
   37.0310   24.1230   41.2650 C   0  0  0  0  0  0  0  0  0  0  0  0
   36.2980   23.3360   41.3010 H   0  0  0  0  0  0  0  0  0  0  0  0
   38.0000   24.0870   40.3130 C   0  0  0  0  0  3  0  0  0  0  0  0
   38.9470   25.0900   40.2550 C   0  0  0  0  0  3  0  0  0  0  0  0
   36.9490   29.2080   41.6250 C   0  0  0  0  0  0  0  0  0  0  0  0
   35.8120   28.5640   41.1320 C   0  0  0  0  0  0  0  0  0  0  0  0
   35.2460   29.0240   39.9470 C   0  0  0  0  0  0  0  0  0  0  0  0
   35.8390   30.0820   39.3320 N   0  0  0  0  0  0  0  0  0  0  0  0
   36.9400   30.6800   39.8390 C   0  0  0  0  0  0  0  0  0  0  0  0
   37.4880   30.2320   40.9920 N   0  0  0  0  0  0  0  0  0  0  0  0
   35.2680   27.7270   41.5170 H   0  0  0  0  0  0  0  0  0  0  0  0
   34.3670   28.6050   39.4730 H   0  0  0  0  0  0  0  0  0  0  0  0
   37.4390   31.8300   39.0120 C   0  0  0  0  0  0  0  0  0  0  0  0
   36.8370   33.0120   39.3570 F   0  0  0  0  0  0  0  0  0  0  0  0
   37.1900   31.5800   37.6630 F   0  0  0  0  0  0  0  0  0  0  0  0
   38.8230   31.8960   39.1140 F   0  0  0  0  0  0  0  0  0  0  0  0
  1  3  1  0  0  0  0
  1  4  1  1  0  0  0
  1  2  1  0  0  0  0
  2  5  1  0  0  0  0
  3  2  1  0  0  0  0
  3  7  1  1  0  0  0
  6  2  1  0  0  0  0
  8  9  1  0  0  0  0
  9 10  1  0  0  0  0
 10  3  1  0  0  0  0
 11 10  2  0  0  0  0
 11 12  1  0  0  0  0
 13 14  1  0  0  0  0
 13 11  1  0  0  0  0
 15 13  2  0  0  0  0
 16 15  1  0  0  0  0
 16  9  2  0  0  0  0
 17  1  1  0  0  0  0
 18 23  1  0  0  0  0
 18 17  1  0  0  0  0
 19 18  2  0  0  0  0
 20 21  2  0  0  0  0
 20 19  1  0  0  0  0
 21 22  1  0  0  0  0
 22 17  2  0  0  0  0
 24 19  1  0  0  0  0
 25 28  1  0  0  0  0
 25 26  1  0  0  0  0
 25 21  1  0  0  0  0
 27 25  1  0  0  0  0
M  END
>  <minimizedAffinity>
-5.5643239

$$$$

 OpenBabel03252505413D

 28 30  0  0  1  0  0  0  0  0999 V2000
   35.6160   29.9850   40.2630 C   0  0  1  0  0  0  0  0  0  0  0  0
   35.5170   28.5460   39.7020 C   0  0  0  0  0  0  0  0  0  0  0  0
   35.8380   28.8310   41.1220 C   0  0  1  0  0  0  0  0  0  0  0  0
   34.6490   30.5400   40.2850 H   0  0  0  0  0  0  0  0  0  0  0  0
   34.4840   28.2600   39.4210 H   0  0  0  0  0  0  0  0  0  0  0  0
   36.2990   28.2610   38.9700 H   0  0  0  0  0  0  0  0  0  0  0  0
   34.9580   28.5880   41.8280 H   0  0  0  0  0  0  0  0  0  0  0  0
   36.0910   27.7130   43.6800 F   0  0  0  0  0  0  0  0  0  0  0  0
   37.2280   27.7700   42.9210 C   0  0  0  0  0  0  0  0  0  0  0  0
   37.1060   28.3290   41.6390 C   0  0  0  0  0  0  0  0  0  0  0  0
   38.3330   28.3230   40.9810 C   0  0  0  0  0  0  0  0  0  0  0  0
   38.3620   28.7290   39.9810 H   0  0  0  0  0  0  0  0  0  0  0  0
   39.5060   27.8480   41.4810 C   0  0  0  0  0  0  0  0  0  0  0  0
   40.4120   27.8820   40.9020 H   0  0  0  0  0  0  0  0  0  0  0  0
   39.5340   27.3220   42.7330 C   0  0  0  0  0  3  0  0  0  0  0  0
   38.3790   27.2730   43.4860 C   0  0  0  0  0  3  0  0  0  0  0  0
   36.6910   30.7970   39.6590 C   0  0  0  0  0  0  0  0  0  0  0  0
   36.8800   30.6910   38.2790 C   0  0  0  0  0  0  0  0  0  0  0  0
   37.8740   31.4590   37.6810 C   0  0  0  0  0  0  0  0  0  0  0  0
   38.6110   32.2750   38.4820 N   0  0  0  0  0  0  0  0  0  0  0  0
   38.3990   32.3510   39.8150 C   0  0  0  0  0  0  0  0  0  0  0  0
   37.4310   31.6030   40.3950 N   0  0  0  0  0  0  0  0  0  0  0  0
   36.3760   30.0850   37.5550 H   0  0  0  0  0  0  0  0  0  0  0  0
   38.1090   31.4600   36.6240 H   0  0  0  0  0  0  0  0  0  0  0  0
   39.3150   33.3100   40.5190 C   0  0  0  0  0  0  0  0  0  0  0  0
   40.2440   32.6630   41.2920 F   0  0  0  0  0  0  0  0  0  0  0  0
   38.5670   34.1580   41.3370 F   0  0  0  0  0  0  0  0  0  0  0  0
   39.9040   34.1480   39.5800 F   0  0  0  0  0  0  0  0  0  0  0  0
  1  4  1  1  0  0  0
  1  3  1  0  0  0  0
  2  1  1  0  0  0  0
  2  3  1  0  0  0  0
  3 10  1  0  0  0  0
  3  7  1  1  0  0  0
  5  2  1  0  0  0  0
  6  2  1  0  0  0  0
  9 16  1  0  0  0  0
  9  8  1  0  0  0  0
 10  9  2  0  0  0  0
 11 13  2  0  0  0  0
 11 10  1  0  0  0  0
 12 11  1  0  0  0  0
 13 15  1  0  0  0  0
 14 13  1  0  0  0  0
 15 16  2  0  0  0  0
 17  1  1  0  0  0  0
 17 22  1  0  0  0  0
 18 17  2  0  0  0  0
 19 18  1  0  0  0  0
 19 20  2  0  0  0  0
 20 21  1  0  0  0  0
 21 22  2  0  0  0  0
 21 25  1  0  0  0  0
 23 18  1  0  0  0  0
 24 19  1  0  0  0  0
 25 26  1  0  0  0  0
 25 27  1  0  0  0  0
 28 25  1  0  0  0  0
M  END
>  <minimizedAffinity>
-5.51777315

$$$$

 OpenBabel03252505413D

 28 30  0  0  1  0  0  0  0  0999 V2000
   36.9470   25.3810   42.2500 C   0  0  1  0  0  0  0  0  0  0  0  0
   36.9240   24.7880   40.8200 C   0  0  0  0  0  0  0  0  0  0  0  0
   37.9980   24.4820   41.7970 C   0  0  1  0  0  0  0  0  0  0  0  0
   36.1260   25.0190   42.9130 H   0  0  0  0  0  0  0  0  0  0  0  0
   36.1020   24.0620   40.6650 H   0  0  0  0  0  0  0  0  0  0  0  0
   37.0720   25.5150   39.9970 H   0  0  0  0  0  0  0  0  0  0  0  0
   37.9170   23.4080   42.2160 H   0  0  0  0  0  0  0  0  0  0  0  0
   40.0560   24.7590   43.6800 F   0  0  0  0  0  0  0  0  0  0  0  0
   40.3940   24.9570   42.3690 C   0  0  0  0  0  0  0  0  0  0  0  0
   39.3660   24.8190   41.4220 C   0  0  0  0  0  0  0  0  0  0  0  0
   39.8480   25.0450   40.1360 C   0  0  0  0  0  0  0  0  0  0  0  0
   39.1440   24.9650   39.3210 H   0  0  0  0  0  0  0  0  0  0  0  0
   41.1300   25.3580   39.8060 C   0  0  0  0  0  0  0  0  0  0  0  0
   41.4190   25.5170   38.7820 H   0  0  0  0  0  0  0  0  0  0  0  0
   42.0630   25.4710   40.7870 C   0  0  0  0  0  3  0  0  0  0  0  0
   41.7060   25.2700   42.1050 C   0  0  0  0  0  3  0  0  0  0  0  0
   37.0660   26.8520   42.2920 C   0  0  0  0  0  0  0  0  0  0  0  0
   37.8700   27.4050   43.2910 C   0  0  0  0  0  0  0  0  0  0  0  0
   38.0140   28.7880   43.3420 C   0  0  0  0  0  0  0  0  0  0  0  0
   37.3560   29.5280   42.4090 N   0  0  0  0  0  0  0  0  0  0  0  0
   36.5840   28.9560   41.4580 C   0  0  0  0  0  0  0  0  0  0  0  0
   36.4460   27.6120   41.4090 N   0  0  0  0  0  0  0  0  0  0  0  0
   38.4240   26.9330   44.0760 H   0  0  0  0  0  0  0  0  0  0  0  0
   38.6110   29.3260   44.0680 H   0  0  0  0  0  0  0  0  0  0  0  0
   35.9460   29.9440   40.5240 C   0  0  0  0  0  0  0  0  0  0  0  0
   34.6490   29.6130   40.2320 F   0  0  0  0  0  0  0  0  0  0  0  0
   36.6710   30.0000   39.3330 F   0  0  0  0  0  0  0  0  0  0  0  0
   36.0540   31.2190   41.0680 F   0  0  0  0  0  0  0  0  0  0  0  0
  1 17  1  0  0  0  0
  1  4  1  1  0  0  0
  2  3  1  0  0  0  0
  2  1  1  0  0  0  0
  3  7  1  1  0  0  0
  3  1  1  0  0  0  0
  5  2  1  0  0  0  0
  6  2  1  0  0  0  0
  9  8  1  0  0  0  0
 10  3  1  0  0  0  0
 10  9  2  0  0  0  0
 11 10  1  0  0  0  0
 12 11  1  0  0  0  0
 13 11  2  0  0  0  0
 13 15  1  0  0  0  0
 14 13  1  0  0  0  0
 15 16  2  0  0  0  0
 16  9  1  0  0  0  0
 17 18  1  0  0  0  0
 18 19  2  0  0  0  0
 18 23  1  0  0  0  0
 19 24  1  0  0  0  0
 20 19  1  0  0  0  0
 21 20  2  0  0  0  0
 22 21  1  0  0  0  0
 22 17  2  0  0  0  0
 25 28  1  0  0  0  0
 25 21  1  0  0  0  0
 26 25  1  0  0  0  0
 27 25  1  0  0  0  0
M  END
>  <minimizedAffinity>
-5.49167871

$$$$

 OpenBabel03252505413D

 28 30  0  0  1  0  0  0  0  0999 V2000
   37.7190   28.4360   43.6800 C   0  0  1  0  0  0  0  0  0  0  0  0
   36.5000   27.5110   43.4470 C   0  0  0  0  0  0  0  0  0  0  0  0
   37.8770   26.9900   43.6270 C   0  0  1  0  0  0  0  0  0  0  0  0
   37.7090   28.9780   44.6540 H   0  0  0  0  0  0  0  0  0  0  0  0
   35.7940   27.5000   44.3020 H   0  0  0  0  0  0  0  0  0  0  0  0
   36.0270   27.5830   42.4480 H   0  0  0  0  0  0  0  0  0  0  0  0
   38.0260   26.4910   44.6570 H   0  0  0  0  0  0  0  0  0  0  0  0
   36.5450   24.7800   42.5330 F   0  0  0  0  0  0  0  0  0  0  0  0
   37.7680   25.0820   42.0010 C   0  0  0  0  0  0  0  0  0  0  0  0
   38.4400   26.1890   42.5460 C   0  0  0  0  0  0  0  0  0  0  0  0
   39.6650   26.3810   41.9140 C   0  0  0  0  0  0  0  0  0  0  0  0
   40.2730   27.2080   42.2500 H   0  0  0  0  0  0  0  0  0  0  0  0
   40.1720   25.6220   40.9050 C   0  0  0  0  0  0  0  0  0  0  0  0
   41.1320   25.8420   40.4710 H   0  0  0  0  0  0  0  0  0  0  0  0
   39.4540   24.5680   40.4360 C   0  0  0  0  0  3  0  0  0  0  0  0
   38.2220   24.2760   40.9840 C   0  0  0  0  0  3  0  0  0  0  0  0
   38.0070   29.3500   42.5560 C   0  0  0  0  0  0  0  0  0  0  0  0
   39.1920   30.0870   42.6130 C   0  0  0  0  0  0  0  0  0  0  0  0
   39.4960   30.9430   41.5590 C   0  0  0  0  0  0  0  0  0  0  0  0
   38.6140   31.0130   40.5270 N   0  0  0  0  0  0  0  0  0  0  0  0
   37.4750   30.2850   40.5070 C   0  0  0  0  0  0  0  0  0  0  0  0
   37.1810   29.4530   41.5330 N   0  0  0  0  0  0  0  0  0  0  0  0
   39.9510   30.1220   43.3670 H   0  0  0  0  0  0  0  0  0  0  0  0
   40.3840   31.5590   41.4940 H   0  0  0  0  0  0  0  0  0  0  0  0
   36.6380   30.5050   39.2800 C   0  0  0  0  0  0  0  0  0  0  0  0
   35.3670   30.0150   39.4290 F   0  0  0  0  0  0  0  0  0  0  0  0
   37.2340   29.8750   38.1870 F   0  0  0  0  0  0  0  0  0  0  0  0
   36.6460   31.8570   38.9610 F   0  0  0  0  0  0  0  0  0  0  0  0
  1  4  1  1  0  0  0
  2  3  1  0  0  0  0
  2  1  1  0  0  0  0
  2  5  1  0  0  0  0
  3  1  1  0  0  0  0
  3  7  1  1  0  0  0
  6  2  1  0  0  0  0
  9  8  1  0  0  0  0
  9 10  1  0  0  0  0
 10  3  1  0  0  0  0
 11 12  1  0  0  0  0
 11 10  2  0  0  0  0
 13 11  1  0  0  0  0
 14 13  1  0  0  0  0
 15 13  2  0  0  0  0
 15 16  1  0  0  0  0
 16  9  2  0  0  0  0
 17 18  1  0  0  0  0
 17  1  1  0  0  0  0
 18 23  1  0  0  0  0
 19 18  2  0  0  0  0
 20 19  1  0  0  0  0
 21 20  2  0  0  0  0
 21 22  1  0  0  0  0
 22 17  2  0  0  0  0
 24 19  1  0  0  0  0
 25 26  1  0  0  0  0
 25 21  1  0  0  0  0
 27 25  1  0  0  0  0
 28 25  1  0  0  0  0
M  END
>  <minimizedAffinity>
-5.4880352

$$$$

 OpenBabel03252505413D

 28 30  0  0  1  0  0  0  0  0999 V2000
   38.7680   28.8910   43.0200 C   0  0  1  0  0  0  0  0  0  0  0  0
   37.3480   28.5730   43.5480 C   0  0  0  0  0  0  0  0  0  0  0  0
   38.4550   27.5850   43.5820 C   0  0  1  0  0  0  0  0  0  0  0  0
   39.3210   29.6550   43.6140 H   0  0  0  0  0  0  0  0  0  0  0  0
   37.0900   29.1370   44.4660 H   0  0  0  0  0  0  0  0  0  0  0  0
   36.5490   28.5310   42.7820 H   0  0  0  0  0  0  0  0  0  0  0  0
   38.8610   27.4180   44.6490 H   0  0  0  0  0  0  0  0  0  0  0  0
   40.4970   25.6930   43.2620 F   0  0  0  0  0  0  0  0  0  0  0  0
   39.2840   25.3820   42.7130 C   0  0  0  0  0  0  0  0  0  0  0  0
   38.2570   26.3280   42.8700 C   0  0  0  0  0  0  0  0  0  0  0  0
   37.0830   25.8840   42.2680 C   0  0  0  0  0  0  0  0  0  0  0  0
   36.2200   26.5310   42.3260 H   0  0  0  0  0  0  0  0  0  0  0  0
   36.9180   24.7050   41.6090 C   0  0  0  0  0  0  0  0  0  0  0  0
   35.9720   24.4400   41.1700 H   0  0  0  0  0  0  0  0  0  0  0  0
   37.9660   23.8470   41.5040 C   0  0  0  0  0  3  0  0  0  0  0  0
   39.1850   24.1750   42.0620 C   0  0  0  0  0  3  0  0  0  0  0  0
   38.8220   29.1880   41.5740 C   0  0  0  0  0  0  0  0  0  0  0  0
   39.8660   28.6220   40.8390 C   0  0  0  0  0  0  0  0  0  0  0  0
   39.9300   28.8720   39.4710 C   0  0  0  0  0  0  0  0  0  0  0  0
   38.9650   29.6600   38.9260 N   0  0  0  0  0  0  0  0  0  0  0  0
   37.9700   30.1910   39.6710 C   0  0  0  0  0  0  0  0  0  0  0  0
   37.9080   29.9470   41.0000 N   0  0  0  0  0  0  0  0  0  0  0  0
   40.6790   28.0020   41.1540 H   0  0  0  0  0  0  0  0  0  0  0  0
   40.6910   28.4870   38.8040 H   0  0  0  0  0  0  0  0  0  0  0  0
   37.0050   31.0280   38.8810 C   0  0  0  0  0  0  0  0  0  0  0  0
   36.5950   32.1350   39.5770 F   0  0  0  0  0  0  0  0  0  0  0  0
   35.8840   30.2670   38.5510 F   0  0  0  0  0  0  0  0  0  0  0  0
   37.5840   31.3590   37.6610 F   0  0  0  0  0  0  0  0  0  0  0  0
  1  2  1  0  0  0  0
  1  3  1  0  0  0  0
  1  4  1  1  0  0  0
  2  3  1  0  0  0  0
  2  5  1  0  0  0  0
  3  7  1  1  0  0  0
  6  2  1  0  0  0  0
  9 10  1  0  0  0  0
  9  8  1  0  0  0  0
 10  3  1  0  0  0  0
 11 12  1  0  0  0  0
 11 10  2  0  0  0  0
 13 11  1  0  0  0  0
 14 13  1  0  0  0  0
 15 13  2  0  0  0  0
 15 16  1  0  0  0  0
 16  9  2  0  0  0  0
 17  1  1  0  0  0  0
 18 23  1  0  0  0  0
 18 17  2  0  0  0  0
 19 18  1  0  0  0  0
 20 19  2  0  0  0  0
 20 21  1  0  0  0  0
 21 22  2  0  0  0  0
 22 17  1  0  0  0  0
 24 19  1  0  0  0  0
 25 26  1  0  0  0  0
 25 21  1  0  0  0  0
 27 25  1  0  0  0  0
 28 25  1  0  0  0  0
M  END
>  <minimizedAffinity>
-5.45100594

$$$$

 OpenBabel03252505413D

 28 30  0  0  1  0  0  0  0  0999 V2000
   37.7660   28.5510   43.3570 C   0  0  1  0  0  0  0  0  0  0  0  0
   38.7600   29.6560   42.9270 C   0  0  0  0  0  0  0  0  0  0  0  0
   37.3980   29.5370   42.3520 C   0  0  1  0  0  0  0  0  0  0  0  0
   37.4040   28.6390   44.4090 H   0  0  0  0  0  0  0  0  0  0  0  0
   38.9550   30.4000   43.7250 H   0  0  0  0  0  0  0  0  0  0  0  0
   39.6600   29.3070   42.3810 H   0  0  0  0  0  0  0  0  0  0  0  0
   36.6870   30.3620   42.7340 H   0  0  0  0  0  0  0  0  0  0  0  0
   34.9960   28.8250   41.0960 F   0  0  0  0  0  0  0  0  0  0  0  0
   36.0840   28.9920   40.2850 C   0  0  0  0  0  0  0  0  0  0  0  0
   37.2910   29.3490   40.9100 C   0  0  0  0  0  0  0  0  0  0  0  0
   38.3090   29.4860   39.9710 C   0  0  0  0  0  0  0  0  0  0  0  0
   39.2880   29.7600   40.3370 H   0  0  0  0  0  0  0  0  0  0  0  0
   38.1880   29.3070   38.6270 C   0  0  0  0  0  0  0  0  0  0  0  0
   39.0310   29.4340   37.9700 H   0  0  0  0  0  0  0  0  0  0  0  0
   36.9820   28.9620   38.1060 C   0  0  0  0  0  3  0  0  0  0  0  0
   35.8930   28.7960   38.9380 C   0  0  0  0  0  3  0  0  0  0  0  0
   38.2200   27.1780   43.0570 C   0  0  0  0  0  0  0  0  0  0  0  0
   39.3890   26.7360   43.6790 C   0  0  0  0  0  0  0  0  0  0  0  0
   39.8300   25.4400   43.4270 C   0  0  0  0  0  0  0  0  0  0  0  0
   39.0900   24.6740   42.5810 N   0  0  0  0  0  0  0  0  0  0  0  0
   37.9630   25.1380   41.9960 C   0  0  0  0  0  0  0  0  0  0  0  0
   37.5360   26.3970   42.2430 N   0  0  0  0  0  0  0  0  0  0  0  0
   40.0530   27.2430   44.3480 H   0  0  0  0  0  0  0  0  0  0  0  0
   40.7180   24.9910   43.8530 H   0  0  0  0  0  0  0  0  0  0  0  0
   37.2920   24.1370   41.0990 C   0  0  0  0  0  0  0  0  0  0  0  0
   35.9770   23.9460   41.4340 F   0  0  0  0  0  0  0  0  0  0  0  0
   37.9560   22.9130   41.1830 F   0  0  0  0  0  0  0  0  0  0  0  0
   37.4460   24.5380   39.7770 F   0  0  0  0  0  0  0  0  0  0  0  0
  1  4  1  1  0  0  0
  2  1  1  0  0  0  0
  2  5  1  0  0  0  0
  3  7  1  1  0  0  0
  3  2  1  0  0  0  0
  3  1  1  0  0  0  0
  6  2  1  0  0  0  0
  9 10  1  0  0  0  0
  9  8  1  0  0  0  0
 10  3  1  0  0  0  0
 11 12  1  0  0  0  0
 11 10  2  0  0  0  0
 13 11  1  0  0  0  0
 14 13  1  0  0  0  0
 15 13  2  0  0  0  0
 15 16  1  0  0  0  0
 16  9  2  0  0  0  0
 17  1  1  0  0  0  0
 17 18  1  0  0  0  0
 18 23  1  0  0  0  0
 19 18  2  0  0  0  0
 19 24  1  0  0  0  0
 20 19  1  0  0  0  0
 21 22  1  0  0  0  0
 21 20  2  0  0  0  0
 22 17  2  0  0  0  0
 25 27  1  0  0  0  0
 25 26  1  0  0  0  0
 25 21  1  0  0  0  0
 28 25  1  0  0  0  0
M  END
>  <minimizedAffinity>
-5.38043499

$$$$

 OpenBabel03252505413D

 28 30  0  0  1  0  0  0  0  0999 V2000
   36.9710   29.9200   41.8050 C   0  0  1  0  0  0  0  0  0  0  0  0
   37.5780   31.0500   40.9390 C   0  0  0  0  0  0  0  0  0  0  0  0
   36.2000   30.5390   40.7370 C   0  0  1  0  0  0  0  0  0  0  0  0
   36.8010   30.1970   42.8720 H   0  0  0  0  0  0  0  0  0  0  0  0
   37.7360   31.9910   41.5020 H   0  0  0  0  0  0  0  0  0  0  0  0
   38.4160   30.7510   40.2780 H   0  0  0  0  0  0  0  0  0  0  0  0
   35.3980   31.2850   41.1010 H   0  0  0  0  0  0  0  0  0  0  0  0
   33.9590   28.9110   40.3050 F   0  0  0  0  0  0  0  0  0  0  0  0
   34.7490   29.1670   39.2180 C   0  0  0  0  0  0  0  0  0  0  0  0
   35.8740   29.9820   39.4290 C   0  0  0  0  0  0  0  0  0  0  0  0
   36.5820   30.1590   38.2450 C   0  0  0  0  0  0  0  0  0  0  0  0
   37.4710   30.7720   38.2850 H   0  0  0  0  0  0  0  0  0  0  0  0
   36.2600   29.6310   37.0330 C   0  0  0  0  0  0  0  0  0  0  0  0
   36.8660   29.8190   36.1640 H   0  0  0  0  0  0  0  0  0  0  0  0
   35.1520   28.8530   36.9170 C   0  0  0  0  0  3  0  0  0  0  0  0
   34.3670   28.6030   38.0240 C   0  0  0  0  0  3  0  0  0  0  0  0
   37.6730   28.6260   41.6890 C   0  0  0  0  0  0  0  0  0  0  0  0
   39.0500   28.6580   41.4560 C   0  0  0  0  0  0  0  0  0  0  0  0
   39.7380   27.4520   41.3600 C   0  0  0  0  0  0  0  0  0  0  0  0
   39.0240   26.3030   41.5000 N   0  0  0  0  0  0  0  0  0  0  0  0
   37.6910   26.3120   41.7240 C   0  0  0  0  0  0  0  0  0  0  0  0
   37.0230   27.4850   41.8170 N   0  0  0  0  0  0  0  0  0  0  0  0
   39.7100   29.4890   41.3210 H   0  0  0  0  0  0  0  0  0  0  0  0
   40.8020   27.3560   41.1840 H   0  0  0  0  0  0  0  0  0  0  0  0
   37.0910   24.9410   41.8500 C   0  0  0  0  0  0  0  0  0  0  0  0
   36.4210   24.5660   40.7150 F   0  0  0  0  0  0  0  0  0  0  0  0
   36.2000   24.9160   42.9230 F   0  0  0  0  0  0  0  0  0  0  0  0
   38.0890   24.0370   42.1940 F   0  0  0  0  0  0  0  0  0  0  0  0
  1  4  1  1  0  0  0
  2  5  1  0  0  0  0
  2  1  1  0  0  0  0
  3  2  1  0  0  0  0
  3  7  1  1  0  0  0
  3  1  1  0  0  0  0
  6  2  1  0  0  0  0
  9 10  1  0  0  0  0
  9  8  1  0  0  0  0
 10  3  1  0  0  0  0
 11 12  1  0  0  0  0
 11 10  2  0  0  0  0
 13 11  1  0  0  0  0
 14 13  1  0  0  0  0
 15 13  2  0  0  0  0
 15 16  1  0  0  0  0
 16  9  2  0  0  0  0
 17  1  1  0  0  0  0
 17 22  1  0  0  0  0
 18 17  2  0  0  0  0
 19 18  1  0  0  0  0
 19 20  2  0  0  0  0
 20 21  1  0  0  0  0
 21 22  2  0  0  0  0
 21 25  1  0  0  0  0
 23 18  1  0  0  0  0
 24 19  1  0  0  0  0
 25 28  1  0  0  0  0
 25 27  1  0  0  0  0
 26 25  1  0  0  0  0
M  END
>  <minimizedAffinity>
-5.33453989

$$$$

 OpenBabel03252505413D

 28 30  0  0  1  0  0  0  0  0999 V2000
   35.8000   29.9120   39.5960 C   0  0  1  0  0  0  0  0  0  0  0  0
   36.0790   28.4820   39.0720 C   0  0  0  0  0  0  0  0  0  0  0  0
   35.7080   28.7600   40.4810 C   0  0  1  0  0  0  0  0  0  0  0  0
   34.8840   30.3880   39.1740 H   0  0  0  0  0  0  0  0  0  0  0  0
   35.3080   28.1220   38.3630 H   0  0  0  0  0  0  0  0  0  0  0  0
   37.1260   28.2770   38.7720 H   0  0  0  0  0  0  0  0  0  0  0  0
   34.6270   28.4330   40.7230 H   0  0  0  0  0  0  0  0  0  0  0  0
   36.5630   26.1080   40.7800 F   0  0  0  0  0  0  0  0  0  0  0  0
   37.0720   27.0190   41.6640 C   0  0  0  0  0  0  0  0  0  0  0  0
   36.6470   28.3490   41.5190 C   0  0  0  0  0  0  0  0  0  0  0  0
   37.2410   29.1640   42.4770 C   0  0  0  0  0  0  0  0  0  0  0  0
   36.9890   30.2140   42.4630 H   0  0  0  0  0  0  0  0  0  0  0  0
   38.1180   28.7610   43.4370 C   0  0  0  0  0  0  0  0  0  0  0  0
   38.5320   29.4600   44.1430 H   0  0  0  0  0  0  0  0  0  0  0  0
   38.4770   27.4520   43.5070 C   0  0  0  0  0  3  0  0  0  0  0  0
   37.9520   26.5450   42.6080 C   0  0  0  0  0  3  0  0  0  0  0  0
   36.9630   30.8200   39.5240 C   0  0  0  0  0  0  0  0  0  0  0  0
   36.9290   31.9730   40.3100 C   0  0  0  0  0  0  0  0  0  0  0  0
   38.0200   32.8370   40.2740 C   0  0  0  0  0  0  0  0  0  0  0  0
   39.0630   32.5050   39.4680 N   0  0  0  0  0  0  0  0  0  0  0  0
   39.0590   31.3790   38.7190 C   0  0  0  0  0  0  0  0  0  0  0  0
   37.9980   30.5400   38.7560 N   0  0  0  0  0  0  0  0  0  0  0  0
   36.1700   32.3410   40.9690 H   0  0  0  0  0  0  0  0  0  0  0  0
   38.1040   33.7560   40.8400 H   0  0  0  0  0  0  0  0  0  0  0  0
   40.3040   31.1940   37.9000 C   0  0  0  0  0  0  0  0  0  0  0  0
   40.3560   29.9560   37.3150 F   0  0  0  0  0  0  0  0  0  0  0  0
   41.4270   31.3520   38.7110 F   0  0  0  0  0  0  0  0  0  0  0  0
   40.3900   32.2200   36.9660 F   0  0  0  0  0  0  0  0  0  0  0  0
  1  4  1  6  0  0  0
  1  3  1  0  0  0  0
  2  1  1  0  0  0  0
  2  3  1  0  0  0  0
  3  7  1  1  0  0  0
  3 10  1  0  0  0  0
  5  2  1  0  0  0  0
  6  2  1  0  0  0  0
  8  9  1  0  0  0  0
  9 16  1  0  0  0  0
 10  9  2  0  0  0  0
 10 11  1  0  0  0  0
 11 13  2  0  0  0  0
 12 11  1  0  0  0  0
 13 15  1  0  0  0  0
 13 14  1  0  0  0  0
 16 15  2  0  0  0  0
 17  1  1  0  0  0  0
 17 18  1  0  0  0  0
 18 23  1  0  0  0  0
 19 18  2  0  0  0  0
 19 24  1  0  0  0  0
 20 19  1  0  0  0  0
 21 22  1  0  0  0  0
 21 20  2  0  0  0  0
 22 17  2  0  0  0  0
 25 27  1  0  0  0  0
 25 21  1  0  0  0  0
 26 25  1  0  0  0  0
 28 25  1  0  0  0  0
M  END
>  <minimizedAffinity>
-5.32913685

$$$$
