
 OpenBabel03252505393D

 28 30  0  0  1  0  0  0  0  0999 V2000
   44.7010   34.1890   43.9410 C   0  0  1  0  0  0  0  0  0  0  0  0
   45.1190   35.6700   44.1010 C   0  0  0  0  0  0  0  0  0  0  0  0
   45.0620   34.9930   42.7830 C   0  0  1  0  0  0  0  0  0  0  0  0
   43.6330   33.9810   44.1870 H   0  0  0  0  0  0  0  0  0  0  0  0
   44.2840   36.3250   44.4170 H   0  0  0  0  0  0  0  0  0  0  0  0
   46.0780   35.8440   44.6300 H   0  0  0  0  0  0  0  0  0  0  0  0
   44.1630   35.3420   42.1490 H   0  0  0  0  0  0  0  0  0  0  0  0
   45.2330   33.6460   40.3310 F   0  0  0  0  0  0  0  0  0  0  0  0
   46.3720   34.2600   40.7720 C   0  0  0  0  0  0  0  0  0  0  0  0
   46.2920   34.9360   42.0010 C   0  0  0  0  0  0  0  0  0  0  0  0
   47.5160   35.5120   42.3260 C   0  0  0  0  0  0  0  0  0  0  0  0
   47.5750   36.0630   43.2540 H   0  0  0  0  0  0  0  0  0  0  0  0
   48.6530   35.4500   41.5810 C   0  0  0  0  0  0  0  0  0  0  0  0
   49.5610   35.9260   41.9090 H   0  0  0  0  0  0  0  0  0  0  0  0
   48.6430   34.7730   40.4030 C   0  0  0  0  0  0  0  0  0  0  0  0
   47.4850   34.1580   39.9720 C   0  0  0  0  0  0  0  0  0  0  0  0
   45.6040   33.2300   44.6080 C   0  0  0  0  0  0  0  0  0  0  0  0
   46.2970   32.3260   43.7990 C   0  0  0  0  0  0  0  0  0  0  0  0
   47.1680   31.4240   44.4010 C   0  0  0  0  0  0  0  0  0  0  0  0
   47.2950   31.4740   45.7540 N   0  0  0  0  0  0  0  0  0  0  0  0
   46.6080   32.3630   46.5050 C   0  0  0  0  0  0  0  0  0  0  0  0
   45.7610   33.2400   45.9180 N   0  0  0  0  0  0  0  0  0  0  0  0
   46.2720   32.1870   42.7380 H   0  0  0  0  0  0  0  0  0  0  0  0
   47.7560   30.6820   43.8750 H   0  0  0  0  0  0  0  0  0  0  0  0
   46.8900   32.2570   47.9760 C   0  0  0  0  0  0  0  0  0  0  0  0
   45.8780   32.7870   48.7340 F   0  0  0  0  0  0  0  0  0  0  0  0
   48.0730   32.9320   48.2770 F   0  0  0  0  0  0  0  0  0  0  0  0
   47.1450   30.9280   48.2960 F   0  0  0  0  0  0  0  0  0  0  0  0
  1  2  1  0  0  0  0
  1  4  1  1  0  0  0
  1 17  1  0  0  0  0
  2  5  1  0  0  0  0
  2  6  1  0  0  0  0
  3  7  1  6  0  0  0
  3  1  1  0  0  0  0
  3  2  1  0  0  0  0
  8  9  1  0  0  0  0
  9 10  1  0  0  0  0
 10 11  2  0  0  0  0
 10  3  1  0  0  0  0
 11 12  1  0  0  0  0
 13 14  1  0  0  0  0
 13 11  1  0  0  0  0
 15 13  2  0  0  0  0
 16 15  1  0  0  0  0
 16  9  2  0  0  0  0
 17 22  1  0  0  0  0
 18 19  1  0  0  0  0
 18 17  2  0  0  0  0
 19 20  2  0  0  0  0
 20 21  1  0  0  0  0
 21 25  1  0  0  0  0
 22 21  2  0  0  0  0
 23 18  1  0  0  0  0
 24 19  1  0  0  0  0
 25 27  1  0  0  0  0
 25 28  1  0  0  0  0
 25 26  1  0  0  0  0
M  END
>  <minimizedAffinity>
-5.46140814

>  <minimizedRMSD>
1.25884867

$$$$
