
 OpenBabel03252500523D

 35 37  0  0  0  0  0  0  0  0999 V2000
   37.1400   30.6130   41.2760 C   0  0  0  0  0  0  0  0  0  0  0  0
   36.0430   31.0420   40.8640 O   0  0  0  0  0  0  0  0  0  0  0  0
   38.3220   31.8040   39.5030 C   0  0  0  0  0  0  0  0  0  0  0  0
   38.3490   31.2420   40.7550 C   0  0  0  0  0  0  0  0  0  0  0  0
   39.5150   31.2710   41.5240 C   0  0  0  0  0  0  0  0  0  0  0  0
   40.6170   31.8790   40.9770 N   0  0  0  0  0  0  0  0  0  0  0  0
   40.5660   32.4180   39.7600 C   0  0  0  0  0  0  0  0  0  0  0  0
   39.4320   32.3850   39.0250 N   0  0  0  0  0  0  0  0  0  0  0  0
   37.4540   31.8090   38.8700 H   0  0  0  0  0  0  0  0  0  0  0  0
   39.5530   30.8280   42.5180 H   0  0  0  0  0  0  0  0  0  0  0  0
   41.7400   33.0630   39.1910 C   0  0  0  0  0  0  0  0  0  0  0  0
   42.9180   33.1480   39.8390 C   0  0  0  0  0  0  0  0  0  0  0  0
   44.0420   33.7500   39.3260 C   0  0  0  0  0  0  0  0  0  0  0  0
   43.9150   34.2850   38.0790 N   0  0  0  0  0  0  0  0  0  0  0  0
   42.7570   34.2050   37.4360 C   0  0  0  0  0  0  0  0  0  0  0  0
   41.6530   33.6180   37.9270 N   0  0  0  0  0  0  0  0  0  0  0  0
   42.9710   32.7070   40.8290 H   0  0  0  0  0  0  0  0  0  0  0  0
   44.9870   33.8260   39.8270 H   0  0  0  0  0  0  0  0  0  0  0  0
   42.5610   34.6040   36.4340 H   0  0  0  0  0  0  0  0  0  0  0  0
   36.9110   29.6030   42.1620 O   0  0  0  0  0  0  0  0  0  0  0  0
   36.7330   28.2880   41.7950 C   0  0  0  0  0  0  0  0  0  0  0  0
   37.3770   27.8670   41.0190 H   0  0  0  0  0  0  0  0  0  0  0  0
   35.7020   28.2500   41.3210 H   0  0  0  0  0  0  0  0  0  0  0  0
   36.5990   27.3500   42.9710 C   0  0  0  0  0  0  0  0  0  0  0  0
   35.7210   26.6650   42.8510 H   0  0  0  0  0  0  0  0  0  0  0  0
   36.4970   27.9210   43.9160 H   0  0  0  0  0  0  0  0  0  0  0  0
   36.6730   24.8440   41.7500 F   0  0  0  0  0  0  0  0  0  0  0  0
   37.7710   25.3060   42.4090 C   0  0  0  0  0  0  0  0  0  0  0  0
   37.8360   26.5330   43.0470 C   0  0  0  0  0  0  0  0  0  0  0  0
   38.9820   26.9500   43.7030 C   0  0  0  0  0  0  0  0  0  0  0  0
   38.9940   27.9140   44.1880 H   0  0  0  0  0  0  0  0  0  0  0  0
   40.0570   26.0730   43.6860 C   0  0  0  0  0  0  0  0  0  0  0  0
   40.9400   26.4230   44.2060 H   0  0  0  0  0  0  0  0  0  0  0  0
   40.0160   24.8430   43.0560 C   0  0  0  0  0  3  0  0  0  0  0  0
   38.8550   24.4430   42.4030 C   0  0  0  0  0  3  0  0  0  0  0  0
  1 20  1  0  0  0  0
  2  1  2  0  0  0  0
  3  4  1  0  0  0  0
  4  1  1  0  0  0  0
  4  5  2  0  0  0  0
  5 10  1  0  0  0  0
  6  5  1  0  0  0  0
  7  6  2  0  0  0  0
  8  3  2  0  0  0  0
  8  7  1  0  0  0  0
  9  3  1  0  0  0  0
 11  7  1  0  0  0  0
 11 12  1  0  0  0  0
 12 17  1  0  0  0  0
 13 18  1  0  0  0  0
 13 12  2  0  0  0  0
 14 13  1  0  0  0  0
 15 16  1  0  0  0  0
 15 14  2  0  0  0  0
 16 11  2  0  0  0  0
 19 15  1  0  0  0  0
 21 20  1  0  0  0  0
 21 24  1  0  0  0  0
 22 21  1  0  0  0  0
 23 21  1  0  0  0  0
 24 29  1  0  0  0  0
 24 26  1  0  0  0  0
 25 24  1  0  0  0  0
 27 28  1  0  0  0  0
 28 29  1  0  0  0  0
 29 30  2  0  0  0  0
 30 31  1  0  0  0  0
 32 30  1  0  0  0  0
 32 33  1  0  0  0  0
 34 32  2  0  0  0  0
 35 28  2  0  0  0  0
 35 34  1  0  0  0  0
M  END
>  <minimizedAffinity>
-5.62214994

$$$$

 OpenBabel03252500523D

 35 37  0  0  0  0  0  0  0  0999 V2000
   36.3120   26.1600   39.2600 C   0  0  0  0  0  0  0  0  0  0  0  0
   35.9350   25.8180   38.1210 O   0  0  0  0  0  0  0  0  0  0  0  0
   37.8290   28.0510   38.9740 C   0  0  0  0  0  0  0  0  0  0  0  0
   36.6430   27.5660   39.4670 C   0  0  0  0  0  0  0  0  0  0  0  0
   35.7620   28.4020   40.1560 C   0  0  0  0  0  0  0  0  0  0  0  0
   36.1330   29.7150   40.3150 N   0  0  0  0  0  0  0  0  0  0  0  0
   37.2880   30.1620   39.8270 C   0  0  0  0  0  0  0  0  0  0  0  0
   38.1330   29.3430   39.1610 N   0  0  0  0  0  0  0  0  0  0  0  0
   38.5410   27.4510   38.4380 H   0  0  0  0  0  0  0  0  0  0  0  0
   34.8190   28.0330   40.5550 H   0  0  0  0  0  0  0  0  0  0  0  0
   37.6700   31.5570   39.9990 C   0  0  0  0  0  0  0  0  0  0  0  0
   38.6730   31.9490   40.8070 C   0  0  0  0  0  0  0  0  0  0  0  0
   39.0550   33.2570   40.9870 C   0  0  0  0  0  0  0  0  0  0  0  0
   38.3460   34.1870   40.2870 N   0  0  0  0  0  0  0  0  0  0  0  0
   37.3560   33.8060   39.4900 C   0  0  0  0  0  0  0  0  0  0  0  0
   36.9750   32.5310   39.3050 N   0  0  0  0  0  0  0  0  0  0  0  0
   39.2090   31.1730   41.3430 H   0  0  0  0  0  0  0  0  0  0  0  0
   39.8510   33.5870   41.6260 H   0  0  0  0  0  0  0  0  0  0  0  0
   36.7330   34.4790   38.8900 H   0  0  0  0  0  0  0  0  0  0  0  0
   36.3160   25.0620   40.0690 O   0  0  0  0  0  0  0  0  0  0  0  0
   37.3500   24.7430   40.9190 C   0  0  0  0  0  0  0  0  0  0  0  0
   38.3750   24.9620   40.6070 H   0  0  0  0  0  0  0  0  0  0  0  0
   37.3400   23.6100   40.9850 H   0  0  0  0  0  0  0  0  0  0  0  0
   37.1050   25.1670   42.3470 C   0  0  0  0  0  0  0  0  0  0  0  0
   37.5070   24.4150   43.0730 H   0  0  0  0  0  0  0  0  0  0  0  0
   36.0210   25.3150   42.5300 H   0  0  0  0  0  0  0  0  0  0  0  0
   35.8280   27.1930   43.7750 F   0  0  0  0  0  0  0  0  0  0  0  0
   37.0810   27.4000   43.2860 C   0  0  0  0  0  0  0  0  0  0  0  0
   37.7990   26.4610   42.5660 C   0  0  0  0  0  0  0  0  0  0  0  0
   39.0730   26.7270   42.0930 C   0  0  0  0  0  0  0  0  0  0  0  0
   39.6010   25.9690   41.5360 H   0  0  0  0  0  0  0  0  0  0  0  0
   39.5870   27.9840   42.3790 C   0  0  0  0  0  0  0  0  0  0  0  0
   40.5830   28.1670   41.9980 H   0  0  0  0  0  0  0  0  0  0  0  0
   38.8880   28.9380   43.0950 C   0  0  0  0  0  3  0  0  0  0  0  0
   37.6110   28.6500   43.5620 C   0  0  0  0  0  3  0  0  0  0  0  0
  1  4  1  0  0  0  0
  1 20  1  0  0  0  0
  2  1  2  0  0  0  0
  3  8  2  0  0  0  0
  3  4  1  0  0  0  0
  4  5  2  0  0  0  0
  5  6  1  0  0  0  0
  5 10  1  0  0  0  0
  7 11  1  0  0  0  0
  7  6  2  0  0  0  0
  8  7  1  0  0  0  0
  9  3  1  0  0  0  0
 11 12  1  0  0  0  0
 12 13  2  0  0  0  0
 12 17  1  0  0  0  0
 13 18  1  0  0  0  0
 14 13  1  0  0  0  0
 15 14  2  0  0  0  0
 16 15  1  0  0  0  0
 16 11  2  0  0  0  0
 19 15  1  0  0  0  0
 20 21  1  0  0  0  0
 21 23  1  0  0  0  0
 21 24  1  0  0  0  0
 22 21  1  0  0  0  0
 24 26  1  0  0  0  0
 24 29  1  0  0  0  0
 24 25  1  0  0  0  0
 28 35  1  0  0  0  0
 28 27  1  0  0  0  0
 29 28  2  0  0  0  0
 30 32  2  0  0  0  0
 30 29  1  0  0  0  0
 31 30  1  0  0  0  0
 32 34  1  0  0  0  0
 33 32  1  0  0  0  0
 34 35  2  0  0  0  0
M  END
>  <minimizedAffinity>
-5.40434408

$$$$

 OpenBabel03252500523D

 35 37  0  0  0  0  0  0  0  0999 V2000
   35.2540   28.4700   37.8690 C   0  0  0  0  0  0  0  0  0  0  0  0
   35.7880   27.3500   37.7460 O   0  0  0  0  0  0  0  0  0  0  0  0
   36.0570   30.0990   39.5010 C   0  0  0  0  0  0  0  0  0  0  0  0
   36.1150   29.5930   38.2260 C   0  0  0  0  0  0  0  0  0  0  0  0
   36.9850   30.1400   37.2800 C   0  0  0  0  0  0  0  0  0  0  0  0
   37.7700   31.1930   37.6800 N   0  0  0  0  0  0  0  0  0  0  0  0
   37.6970   31.6670   38.9230 C   0  0  0  0  0  0  0  0  0  0  0  0
   36.8500   31.1280   39.8300 N   0  0  0  0  0  0  0  0  0  0  0  0
   35.4070   29.7160   40.2650 H   0  0  0  0  0  0  0  0  0  0  0  0
   37.0420   29.7510   36.2650 H   0  0  0  0  0  0  0  0  0  0  0  0
   38.5350   32.7820   39.3360 C   0  0  0  0  0  0  0  0  0  0  0  0
   38.0610   33.8450   40.0150 C   0  0  0  0  0  0  0  0  0  0  0  0
   38.8300   34.9100   40.4180 C   0  0  0  0  0  0  0  0  0  0  0  0
   40.1510   34.8510   40.0900 N   0  0  0  0  0  0  0  0  0  0  0  0
   40.6230   33.8070   39.4210 C   0  0  0  0  0  0  0  0  0  0  0  0
   39.8820   32.7600   39.0220 N   0  0  0  0  0  0  0  0  0  0  0  0
   37.0030   33.8470   40.2550 H   0  0  0  0  0  0  0  0  0  0  0  0
   38.4690   35.7640   40.9590 H   0  0  0  0  0  0  0  0  0  0  0  0
   41.6670   33.6720   39.1150 H   0  0  0  0  0  0  0  0  0  0  0  0
   33.9180   28.3480   37.6250 O   0  0  0  0  0  0  0  0  0  0  0  0
   33.2950   28.8560   36.5080 C   0  0  0  0  0  0  0  0  0  0  0  0
   33.6780   28.5820   35.5210 H   0  0  0  0  0  0  0  0  0  0  0  0
   33.4760   29.9760   36.5510 H   0  0  0  0  0  0  0  0  0  0  0  0
   31.7890   28.7550   36.5630 C   0  0  0  0  0  0  0  0  0  0  0  0
   31.4390   28.3930   37.5630 H   0  0  0  0  0  0  0  0  0  0  0  0
   31.4140   28.0760   35.7710 H   0  0  0  0  0  0  0  0  0  0  0  0
   30.3550   30.0330   38.5840 F   0  0  0  0  0  0  0  0  0  0  0  0
   30.5370   30.6580   37.3880 C   0  0  0  0  0  0  0  0  0  0  0  0
   31.2310   30.1100   36.3230 C   0  0  0  0  0  0  0  0  0  0  0  0
   31.3840   30.7920   35.1280 C   0  0  0  0  0  0  0  0  0  0  0  0
   31.9330   30.3330   34.3210 H   0  0  0  0  0  0  0  0  0  0  0  0
   30.8040   32.0510   35.0580 C   0  0  0  0  0  0  0  0  0  0  0  0
   30.9370   32.5640   34.1140 H   0  0  0  0  0  0  0  0  0  0  0  0
   30.1050   32.6180   36.1080 C   0  0  0  0  0  3  0  0  0  0  0  0
   29.9640   31.9160   37.3000 C   0  0  0  0  0  3  0  0  0  0  0  0
  1  4  1  0  0  0  0
  2  1  2  0  0  0  0
  3  8  1  0  0  0  0
  3  9  1  0  0  0  0
  4  3  2  0  0  0  0
  5  6  2  0  0  0  0
  5  4  1  0  0  0  0
  6  7  1  0  0  0  0
  7 11  1  0  0  0  0
  7  8  2  0  0  0  0
 10  5  1  0  0  0  0
 11 12  1  0  0  0  0
 12 17  1  0  0  0  0
 12 13  2  0  0  0  0
 13 18  1  0  0  0  0
 14 13  1  0  0  0  0
 15 14  2  0  0  0  0
 16 11  2  0  0  0  0
 16 15  1  0  0  0  0
 19 15  1  0  0  0  0
 20  1  1  0  0  0  0
 21 23  1  0  0  0  0
 21 24  1  0  0  0  0
 21 20  1  0  0  0  0
 22 21  1  0  0  0  0
 24 25  1  0  0  0  0
 26 24  1  0  0  0  0
 28 27  1  0  0  0  0
 29 24  1  0  0  0  0
 29 28  2  0  0  0  0
 30 29  1  0  0  0  0
 31 30  1  0  0  0  0
 32 30  2  0  0  0  0
 32 34  1  0  0  0  0
 33 32  1  0  0  0  0
 34 35  2  0  0  0  0
 35 28  1  0  0  0  0
M  END
>  <minimizedAffinity>
-5.39788818

$$$$

 OpenBabel03252500523D

 35 37  0  0  0  0  0  0  0  0999 V2000
   36.5860   29.9930   37.7610 C   0  0  0  0  0  0  0  0  0  0  0  0
   36.5500   29.9780   36.5140 O   0  0  0  0  0  0  0  0  0  0  0  0
   37.5340   32.0440   38.6840 C   0  0  0  0  0  0  0  0  0  0  0  0
   37.6860   30.7110   38.3950 C   0  0  0  0  0  0  0  0  0  0  0  0
   38.8740   30.0460   38.7050 C   0  0  0  0  0  0  0  0  0  0  0  0
   39.8690   30.7780   39.3040 N   0  0  0  0  0  0  0  0  0  0  0  0
   39.6980   32.0700   39.5750 C   0  0  0  0  0  0  0  0  0  0  0  0
   38.5430   32.7040   39.2700 N   0  0  0  0  0  0  0  0  0  0  0  0
   36.6420   32.6030   38.4670 H   0  0  0  0  0  0  0  0  0  0  0  0
   39.0110   28.9890   38.4820 H   0  0  0  0  0  0  0  0  0  0  0  0
   40.7590   32.8360   40.2120 C   0  0  0  0  0  0  0  0  0  0  0  0
   40.9170   34.1620   40.0340 C   0  0  0  0  0  0  0  0  0  0  0  0
   41.9080   34.9090   40.6230 C   0  0  0  0  0  0  0  0  0  0  0  0
   42.7680   34.2280   41.4320 N   0  0  0  0  0  0  0  0  0  0  0  0
   42.6180   32.9220   41.6110 C   0  0  0  0  0  0  0  0  0  0  0  0
   41.6530   32.1810   41.0410 N   0  0  0  0  0  0  0  0  0  0  0  0
   40.2080   34.6610   39.3820 H   0  0  0  0  0  0  0  0  0  0  0  0
   42.0480   35.9650   40.4920 H   0  0  0  0  0  0  0  0  0  0  0  0
   43.2570   32.2920   42.2400 H   0  0  0  0  0  0  0  0  0  0  0  0
   35.5210   29.2880   38.2380 O   0  0  0  0  0  0  0  0  0  0  0  0
   35.6090   28.3640   39.2540 C   0  0  0  0  0  0  0  0  0  0  0  0
   36.4730   27.6950   39.2840 H   0  0  0  0  0  0  0  0  0  0  0  0
   34.7400   27.6530   39.0830 H   0  0  0  0  0  0  0  0  0  0  0  0
   35.3090   28.9410   40.6170 C   0  0  0  0  0  0  0  0  0  0  0  0
   34.3640   28.5180   41.0430 H   0  0  0  0  0  0  0  0  0  0  0  0
   35.2300   30.0460   40.5650 H   0  0  0  0  0  0  0  0  0  0  0  0
   36.9450   30.9620   41.6240 F   0  0  0  0  0  0  0  0  0  0  0  0
   37.1870   29.6660   41.9650 C   0  0  0  0  0  0  0  0  0  0  0  0
   36.4360   28.5930   41.5190 C   0  0  0  0  0  0  0  0  0  0  0  0
   36.7300   27.2940   41.8990 C   0  0  0  0  0  0  0  0  0  0  0  0
   36.1200   26.4820   41.5310 H   0  0  0  0  0  0  0  0  0  0  0  0
   37.8150   27.1290   42.7480 C   0  0  0  0  0  0  0  0  0  0  0  0
   38.0240   26.1050   43.0290 H   0  0  0  0  0  0  0  0  0  0  0  0
   38.5800   28.1860   43.2050 C   0  0  0  0  0  3  0  0  0  0  0  0
   38.2680   29.4830   42.8110 C   0  0  0  0  0  3  0  0  0  0  0  0
  1 20  1  0  0  0  0
  1  4  1  0  0  0  0
  2  1  2  0  0  0  0
  3  8  1  0  0  0  0
  4  3  2  0  0  0  0
  4  5  1  0  0  0  0
  5  6  2  0  0  0  0
  6  7  1  0  0  0  0
  7 11  1  0  0  0  0
  8  7  2  0  0  0  0
  9  3  1  0  0  0  0
 10  5  1  0  0  0  0
 11 16  1  0  0  0  0
 12 11  2  0  0  0  0
 12 13  1  0  0  0  0
 13 14  2  0  0  0  0
 14 15  1  0  0  0  0
 15 19  1  0  0  0  0
 16 15  2  0  0  0  0
 17 12  1  0  0  0  0
 18 13  1  0  0  0  0
 20 21  1  0  0  0  0
 21 22  1  0  0  0  0
 21 24  1  0  0  0  0
 23 21  1  0  0  0  0
 24 25  1  0  0  0  0
 24 29  1  0  0  0  0
 26 24  1  0  0  0  0
 27 28  1  0  0  0  0
 28 35  1  0  0  0  0
 29 30  1  0  0  0  0
 29 28  2  0  0  0  0
 30 32  2  0  0  0  0
 31 30  1  0  0  0  0
 32 33  1  0  0  0  0
 32 34  1  0  0  0  0
 35 34  2  0  0  0  0
M  END
>  <minimizedAffinity>
-5.25876045

$$$$

 OpenBabel03252500523D

 35 37  0  0  0  0  0  0  0  0999 V2000
   40.3950   31.8920   40.8970 C   0  0  0  0  0  0  0  0  0  0  0  0
   41.5770   32.1750   41.1760 O   0  0  0  0  0  0  0  0  0  0  0  0
   39.8860   29.6240   40.1520 C   0  0  0  0  0  0  0  0  0  0  0  0
   39.9410   30.5350   41.1780 C   0  0  0  0  0  0  0  0  0  0  0  0
   39.5710   30.1710   42.4750 C   0  0  0  0  0  0  0  0  0  0  0  0
   39.1550   28.8780   42.6720 N   0  0  0  0  0  0  0  0  0  0  0  0
   39.1100   28.0120   41.6620 C   0  0  0  0  0  0  0  0  0  0  0  0
   39.4710   28.3760   40.4100 N   0  0  0  0  0  0  0  0  0  0  0  0
   40.1580   29.8510   39.1380 H   0  0  0  0  0  0  0  0  0  0  0  0
   39.6080   30.8820   43.2980 H   0  0  0  0  0  0  0  0  0  0  0  0
   38.6700   26.6420   41.8840 C   0  0  0  0  0  0  0  0  0  0  0  0
   37.4140   26.2240   41.6310 C   0  0  0  0  0  0  0  0  0  0  0  0
   36.9720   24.9390   41.8310 C   0  0  0  0  0  0  0  0  0  0  0  0
   37.8930   24.0600   42.3180 N   0  0  0  0  0  0  0  0  0  0  0  0
   39.1310   24.4670   42.5690 C   0  0  0  0  0  0  0  0  0  0  0  0
   39.5750   25.7200   42.3780 N   0  0  0  0  0  0  0  0  0  0  0  0
   36.7170   26.9590   41.2440 H   0  0  0  0  0  0  0  0  0  0  0  0
   35.9770   24.5890   41.6350 H   0  0  0  0  0  0  0  0  0  0  0  0
   39.9370   23.8350   42.9600 H   0  0  0  0  0  0  0  0  0  0  0  0
   39.7950   32.9960   40.3660 O   0  0  0  0  0  0  0  0  0  0  0  0
   38.5480   33.4430   40.7400 C   0  0  0  0  0  0  0  0  0  0  0  0
   38.4680   34.3960   41.2690 H   0  0  0  0  0  0  0  0  0  0  0  0
   38.1820   32.6920   41.5080 H   0  0  0  0  0  0  0  0  0  0  0  0
   37.5170   33.3320   39.6420 C   0  0  0  0  0  0  0  0  0  0  0  0
   37.9650   33.5390   38.6370 H   0  0  0  0  0  0  0  0  0  0  0  0
   36.6760   34.0320   39.8230 H   0  0  0  0  0  0  0  0  0  0  0  0
   37.5550   31.8230   37.2970 F   0  0  0  0  0  0  0  0  0  0  0  0
   37.0490   31.2820   38.4390 C   0  0  0  0  0  0  0  0  0  0  0  0
   36.9850   31.9460   39.6520 C   0  0  0  0  0  0  0  0  0  0  0  0
   36.4600   31.3430   40.7830 C   0  0  0  0  0  0  0  0  0  0  0  0
   36.4270   31.8930   41.7110 H   0  0  0  0  0  0  0  0  0  0  0  0
   36.0030   30.0420   40.6330 C   0  0  0  0  0  0  0  0  0  0  0  0
   35.5970   29.5940   41.5310 H   0  0  0  0  0  0  0  0  0  0  0  0
   36.0560   29.3590   39.4310 C   0  0  0  0  0  3  0  0  0  0  0  0
   36.5880   29.9820   38.3080 C   0  0  0  0  0  3  0  0  0  0  0  0
  1  2  2  0  0  0  0
  1  4  1  0  0  0  0
  3  8  2  0  0  0  0
  3  4  1  0  0  0  0
  4  5  2  0  0  0  0
  5  6  1  0  0  0  0
  5 10  1  0  0  0  0
  7 11  1  0  0  0  0
  7  6  2  0  0  0  0
  8  7  1  0  0  0  0
  9  3  1  0  0  0  0
 11 16  1  0  0  0  0
 12 13  1  0  0  0  0
 12 11  2  0  0  0  0
 13 14  2  0  0  0  0
 14 15  1  0  0  0  0
 15 19  1  0  0  0  0
 16 15  2  0  0  0  0
 17 12  1  0  0  0  0
 18 13  1  0  0  0  0
 20 21  1  0  0  0  0
 20  1  1  0  0  0  0
 21 22  1  0  0  0  0
 21 23  1  0  0  0  0
 24 29  1  0  0  0  0
 24 26  1  0  0  0  0
 24 21  1  0  0  0  0
 25 24  1  0  0  0  0
 27 28  1  0  0  0  0
 28 29  1  0  0  0  0
 29 30  2  0  0  0  0
 30 31  1  0  0  0  0
 32 30  1  0  0  0  0
 32 33  1  0  0  0  0
 34 32  2  0  0  0  0
 35 28  2  0  0  0  0
 35 34  1  0  0  0  0
M  END
>  <minimizedAffinity>
-5.25819874

$$$$

 OpenBabel03252500523D

 35 37  0  0  0  0  0  0  0  0999 V2000
   35.1380   28.8740   35.8520 C   0  0  0  0  0  0  0  0  0  0  0  0
   35.6480   29.6920   35.0600 O   0  0  0  0  0  0  0  0  0  0  0  0
   35.3480   27.7910   38.0300 C   0  0  0  0  0  0  0  0  0  0  0  0
   35.6290   28.8670   37.2250 C   0  0  0  0  0  0  0  0  0  0  0  0
   36.3780   29.9430   37.7100 C   0  0  0  0  0  0  0  0  0  0  0  0
   36.8130   29.8740   39.0100 N   0  0  0  0  0  0  0  0  0  0  0  0
   36.5270   28.8190   39.7710 C   0  0  0  0  0  0  0  0  0  0  0  0
   35.8020   27.7830   39.2910 N   0  0  0  0  0  0  0  0  0  0  0  0
   34.7770   26.9400   37.7080 H   0  0  0  0  0  0  0  0  0  0  0  0
   36.6080   30.8040   37.0850 H   0  0  0  0  0  0  0  0  0  0  0  0
   36.9960   28.7550   41.1480 C   0  0  0  0  0  0  0  0  0  0  0  0
   36.5160   27.8750   42.0470 C   0  0  0  0  0  0  0  0  0  0  0  0
   36.9400   27.7920   43.3510 C   0  0  0  0  0  0  0  0  0  0  0  0
   37.9100   28.6770   43.7200 N   0  0  0  0  0  0  0  0  0  0  0  0
   38.3860   29.5470   42.8380 C   0  0  0  0  0  0  0  0  0  0  0  0
   37.9790   29.6360   41.5610 N   0  0  0  0  0  0  0  0  0  0  0  0
   35.7460   27.1910   41.7070 H   0  0  0  0  0  0  0  0  0  0  0  0
   36.5700   27.0980   44.0800 H   0  0  0  0  0  0  0  0  0  0  0  0
   39.1620   30.2920   43.0430 H   0  0  0  0  0  0  0  0  0  0  0  0
   34.1930   28.1500   35.1860 O   0  0  0  0  0  0  0  0  0  0  0  0
   32.9060   28.5880   34.9690 C   0  0  0  0  0  0  0  0  0  0  0  0
   32.2790   28.0460   34.2560 H   0  0  0  0  0  0  0  0  0  0  0  0
   33.0190   29.6100   34.4870 H   0  0  0  0  0  0  0  0  0  0  0  0
   32.1550   28.8970   36.2420 C   0  0  0  0  0  0  0  0  0  0  0  0
   32.8490   28.9800   37.1170 H   0  0  0  0  0  0  0  0  0  0  0  0
   31.3940   28.1160   36.4460 H   0  0  0  0  0  0  0  0  0  0  0  0
   30.7300   30.0090   38.3650 F   0  0  0  0  0  0  0  0  0  0  0  0
   30.7810   30.6620   37.1720 C   0  0  0  0  0  0  0  0  0  0  0  0
   31.4590   30.1950   36.0590 C   0  0  0  0  0  0  0  0  0  0  0  0
   31.4760   30.9040   34.8690 C   0  0  0  0  0  0  0  0  0  0  0  0
   32.0160   30.5070   34.0230 H   0  0  0  0  0  0  0  0  0  0  0  0
   30.7780   32.1030   34.8550 C   0  0  0  0  0  0  0  0  0  0  0  0
   30.8060   32.6370   33.9130 H   0  0  0  0  0  0  0  0  0  0  0  0
   30.0920   32.5890   35.9530 C   0  0  0  0  0  3  0  0  0  0  0  0
   30.0890   31.8610   37.1390 C   0  0  0  0  0  3  0  0  0  0  0  0
  1  4  1  0  0  0  0
  2  1  2  0  0  0  0
  3  8  1  0  0  0  0
  4  5  1  0  0  0  0
  4  3  2  0  0  0  0
  5  6  2  0  0  0  0
  6  7  1  0  0  0  0
  7 11  1  0  0  0  0
  8  7  2  0  0  0  0
  9  3  1  0  0  0  0
 10  5  1  0  0  0  0
 11 16  2  0  0  0  0
 11 12  1  0  0  0  0
 12 13  2  0  0  0  0
 13 14  1  0  0  0  0
 13 18  1  0  0  0  0
 15 19  1  0  0  0  0
 15 14  2  0  0  0  0
 16 15  1  0  0  0  0
 17 12  1  0  0  0  0
 20  1  1  0  0  0  0
 21 20  1  0  0  0  0
 21 24  1  0  0  0  0
 22 21  1  0  0  0  0
 23 21  1  0  0  0  0
 24 26  1  0  0  0  0
 24 25  1  0  0  0  0
 28 27  1  0  0  0  0
 29 24  1  0  0  0  0
 29 28  2  0  0  0  0
 30 29  1  0  0  0  0
 31 30  1  0  0  0  0
 32 30  2  0  0  0  0
 32 34  1  0  0  0  0
 33 32  1  0  0  0  0
 34 35  2  0  0  0  0
 35 28  1  0  0  0  0
M  END
>  <minimizedAffinity>
-5.20719576

$$$$

 OpenBabel03252500523D

 35 37  0  0  0  0  0  0  0  0999 V2000
   36.5440   25.9390   39.1900 C   0  0  0  0  0  0  0  0  0  0  0  0
   35.7750   25.6460   38.2530 O   0  0  0  0  0  0  0  0  0  0  0  0
   38.0650   27.8430   39.0410 C   0  0  0  0  0  0  0  0  0  0  0  0
   36.8370   27.3520   39.4080 C   0  0  0  0  0  0  0  0  0  0  0  0
   35.8760   28.1890   39.9790 C   0  0  0  0  0  0  0  0  0  0  0  0
   36.2120   29.5080   40.1540 N   0  0  0  0  0  0  0  0  0  0  0  0
   37.4100   29.9620   39.7900 C   0  0  0  0  0  0  0  0  0  0  0  0
   38.3330   29.1420   39.2380 N   0  0  0  0  0  0  0  0  0  0  0  0
   38.8390   27.2430   38.5990 H   0  0  0  0  0  0  0  0  0  0  0  0
   34.8970   27.8150   40.2760 H   0  0  0  0  0  0  0  0  0  0  0  0
   37.7560   31.3630   39.9790 C   0  0  0  0  0  0  0  0  0  0  0  0
   37.0900   32.3700   39.3820 C   0  0  0  0  0  0  0  0  0  0  0  0
   37.3930   33.7010   39.5420 C   0  0  0  0  0  0  0  0  0  0  0  0
   38.4440   33.9780   40.3650 N   0  0  0  0  0  0  0  0  0  0  0  0
   39.1030   32.9900   40.9560 C   0  0  0  0  0  0  0  0  0  0  0  0
   38.8150   31.6860   40.8070 N   0  0  0  0  0  0  0  0  0  0  0  0
   36.2610   32.1010   38.7360 H   0  0  0  0  0  0  0  0  0  0  0  0
   36.8750   34.5150   39.0740 H   0  0  0  0  0  0  0  0  0  0  0  0
   39.9570   33.1150   41.6320 H   0  0  0  0  0  0  0  0  0  0  0  0
   36.9400   24.7900   39.8080 O   0  0  0  0  0  0  0  0  0  0  0  0
   36.6950   24.5100   41.1330 C   0  0  0  0  0  0  0  0  0  0  0  0
   36.1480   23.5970   41.3860 H   0  0  0  0  0  0  0  0  0  0  0  0
   35.9970   25.3330   41.4850 H   0  0  0  0  0  0  0  0  0  0  0  0
   37.9050   24.6910   42.0180 C   0  0  0  0  0  0  0  0  0  0  0  0
   38.8550   24.5010   41.4560 H   0  0  0  0  0  0  0  0  0  0  0  0
   37.8520   24.0160   42.8960 H   0  0  0  0  0  0  0  0  0  0  0  0
   40.1780   26.2660   41.6600 F   0  0  0  0  0  0  0  0  0  0  0  0
   39.0840   26.7910   42.2780 C   0  0  0  0  0  0  0  0  0  0  0  0
   37.9100   26.0940   42.5030 C   0  0  0  0  0  0  0  0  0  0  0  0
   36.8280   26.6810   43.1380 C   0  0  0  0  0  0  0  0  0  0  0  0
   35.9290   26.1050   43.2950 H   0  0  0  0  0  0  0  0  0  0  0  0
   36.9860   28.0020   43.5330 C   0  0  0  0  0  0  0  0  0  0  0  0
   36.1270   28.4370   44.0270 H   0  0  0  0  0  0  0  0  0  0  0  0
   38.1500   28.7180   43.3190 C   0  0  0  0  0  3  0  0  0  0  0  0
   39.2250   28.1090   42.6800 C   0  0  0  0  0  3  0  0  0  0  0  0
  1  4  1  0  0  0  0
  1 20  1  0  0  0  0
  2  1  2  0  0  0  0
  3  8  2  0  0  0  0
  3  4  1  0  0  0  0
  4  5  2  0  0  0  0
  5  6  1  0  0  0  0
  5 10  1  0  0  0  0
  7 11  1  0  0  0  0
  7  6  2  0  0  0  0
  8  7  1  0  0  0  0
  9  3  1  0  0  0  0
 11 16  1  0  0  0  0
 12 13  1  0  0  0  0
 12 11  2  0  0  0  0
 13 14  2  0  0  0  0
 14 15  1  0  0  0  0
 15 19  1  0  0  0  0
 16 15  2  0  0  0  0
 17 12  1  0  0  0  0
 18 13  1  0  0  0  0
 20 21  1  0  0  0  0
 21 22  1  0  0  0  0
 21 23  1  0  0  0  0
 21 24  1  0  0  0  0
 24 29  1  0  0  0  0
 24 26  1  0  0  0  0
 25 24  1  0  0  0  0
 27 28  1  0  0  0  0
 28 29  2  0  0  0  0
 28 35  1  0  0  0  0
 29 30  1  0  0  0  0
 30 31  1  0  0  0  0
 30 32  2  0  0  0  0
 32 33  1  0  0  0  0
 34 32  1  0  0  0  0
 35 34  2  0  0  0  0
M  END
>  <minimizedAffinity>
-5.19937038

$$$$

 OpenBabel03252500523D

 35 37  0  0  0  0  0  0  0  0999 V2000
   37.6540   33.1070   39.8810 C   0  0  0  0  0  0  0  0  0  0  0  0
   36.9230   33.9630   39.3430 O   0  0  0  0  0  0  0  0  0  0  0  0
   39.6530   34.3320   40.5620 C   0  0  0  0  0  0  0  0  0  0  0  0
   39.0970   33.3190   39.8220 C   0  0  0  0  0  0  0  0  0  0  0  0
   39.8960   32.4970   39.0230 C   0  0  0  0  0  0  0  0  0  0  0  0
   41.2460   32.7470   39.0140 N   0  0  0  0  0  0  0  0  0  0  0  0
   41.7630   33.7360   39.7410 C   0  0  0  0  0  0  0  0  0  0  0  0
   40.9790   34.5250   40.5110 N   0  0  0  0  0  0  0  0  0  0  0  0
   39.0850   34.9920   41.1910 H   0  0  0  0  0  0  0  0  0  0  0  0
   39.4700   31.6900   38.4300 H   0  0  0  0  0  0  0  0  0  0  0  0
   43.1960   33.9900   39.7250 C   0  0  0  0  0  0  0  0  0  0  0  0
   43.9070   34.2550   40.8380 C   0  0  0  0  0  0  0  0  0  0  0  0
   45.2590   34.4980   40.8530 C   0  0  0  0  0  0  0  0  0  0  0  0
   45.8850   34.4600   39.6420 N   0  0  0  0  0  0  0  0  0  0  0  0
   45.1890   34.2000   38.5430 C   0  0  0  0  0  0  0  0  0  0  0  0
   43.8680   33.9610   38.5170 N   0  0  0  0  0  0  0  0  0  0  0  0
   43.3660   34.2740   41.7780 H   0  0  0  0  0  0  0  0  0  0  0  0
   45.8410   34.7110   41.7280 H   0  0  0  0  0  0  0  0  0  0  0  0
   45.6040   34.1490   37.5300 H   0  0  0  0  0  0  0  0  0  0  0  0
   36.8660   32.1320   40.4170 O   0  0  0  0  0  0  0  0  0  0  0  0
   37.3440   30.9200   40.8610 C   0  0  0  0  0  0  0  0  0  0  0  0
   37.9480   30.8940   41.7710 H   0  0  0  0  0  0  0  0  0  0  0  0
   38.0720   30.5780   40.0600 H   0  0  0  0  0  0  0  0  0  0  0  0
   36.3010   29.8280   40.8580 C   0  0  0  0  0  0  0  0  0  0  0  0
   35.3720   30.1470   41.3970 H   0  0  0  0  0  0  0  0  0  0  0  0
   36.7010   28.9040   41.3230 H   0  0  0  0  0  0  0  0  0  0  0  0
   33.6890   29.1040   40.2010 F   0  0  0  0  0  0  0  0  0  0  0  0
   34.6340   29.1810   39.2230 C   0  0  0  0  0  0  0  0  0  0  0  0
   35.9540   29.5300   39.4450 C   0  0  0  0  0  0  0  0  0  0  0  0
   36.8720   29.5920   38.4100 C   0  0  0  0  0  0  0  0  0  0  0  0
   37.8940   29.8680   38.6220 H   0  0  0  0  0  0  0  0  0  0  0  0
   36.3960   29.2860   37.1430 C   0  0  0  0  0  0  0  0  0  0  0  0
   37.1330   29.3410   36.3520 H   0  0  0  0  0  0  0  0  0  0  0  0
   35.0810   28.9340   36.8980 C   0  0  0  0  0  3  0  0  0  0  0  0
   34.1760   28.8780   37.9520 C   0  0  0  0  0  3  0  0  0  0  0  0
  1 20  1  0  0  0  0
  2  1  2  0  0  0  0
  3  9  1  0  0  0  0
  4  1  1  0  0  0  0
  4  3  2  0  0  0  0
  5  4  1  0  0  0  0
  6  5  2  0  0  0  0
  6  7  1  0  0  0  0
  7  8  2  0  0  0  0
  8  3  1  0  0  0  0
 10  5  1  0  0  0  0
 11  7  1  0  0  0  0
 11 12  1  0  0  0  0
 12 13  2  0  0  0  0
 12 17  1  0  0  0  0
 13 18  1  0  0  0  0
 14 13  1  0  0  0  0
 15 14  2  0  0  0  0
 16 15  1  0  0  0  0
 16 11  2  0  0  0  0
 19 15  1  0  0  0  0
 20 21  1  0  0  0  0
 21 22  1  0  0  0  0
 23 21  1  0  0  0  0
 24 21  1  0  0  0  0
 24 26  1  0  0  0  0
 24 25  1  0  0  0  0
 28 29  1  0  0  0  0
 28 27  1  0  0  0  0
 29 24  1  0  0  0  0
 30 31  1  0  0  0  0
 30 29  2  0  0  0  0
 32 30  1  0  0  0  0
 33 32  1  0  0  0  0
 34 32  2  0  0  0  0
 34 35  1  0  0  0  0
 35 28  2  0  0  0  0
M  END
>  <minimizedAffinity>
-5.17056417

$$$$

 OpenBabel03252500523D

 35 37  0  0  0  0  0  0  0  0999 V2000
   35.7640   29.3210   35.8600 C   0  0  0  0  0  0  0  0  0  0  0  0
   36.6650   29.6190   35.0510 O   0  0  0  0  0  0  0  0  0  0  0  0
   36.2560   30.0140   38.1490 C   0  0  0  0  0  0  0  0  0  0  0  0
   36.1630   29.0010   37.2260 C   0  0  0  0  0  0  0  0  0  0  0  0
   36.4420   27.6810   37.5870 C   0  0  0  0  0  0  0  0  0  0  0  0
   36.8100   27.4470   38.8890 N   0  0  0  0  0  0  0  0  0  0  0  0
   36.8930   28.4450   39.7650 C   0  0  0  0  0  0  0  0  0  0  0  0
   36.6190   29.7200   39.4050 N   0  0  0  0  0  0  0  0  0  0  0  0
   36.0530   31.0440   37.9240 H   0  0  0  0  0  0  0  0  0  0  0  0
   36.3740   26.8670   36.8670 H   0  0  0  0  0  0  0  0  0  0  0  0
   37.2810   28.1850   41.1440 C   0  0  0  0  0  0  0  0  0  0  0  0
   38.5620   28.2020   41.5620 C   0  0  0  0  0  0  0  0  0  0  0  0
   38.9560   27.9610   42.8560 C   0  0  0  0  0  0  0  0  0  0  0  0
   37.9580   27.6890   43.7430 N   0  0  0  0  0  0  0  0  0  0  0  0
   36.6950   27.6710   43.3360 C   0  0  0  0  0  0  0  0  0  0  0  0
   36.2980   27.9050   42.0750 N   0  0  0  0  0  0  0  0  0  0  0  0
   39.3220   28.4230   40.8200 H   0  0  0  0  0  0  0  0  0  0  0  0
   39.9700   27.9700   43.2060 H   0  0  0  0  0  0  0  0  0  0  0  0
   35.8290   27.4630   43.9750 H   0  0  0  0  0  0  0  0  0  0  0  0
   34.5620   29.3740   35.2180 O   0  0  0  0  0  0  0  0  0  0  0  0
   33.3610   29.0650   35.8140 C   0  0  0  0  0  0  0  0  0  0  0  0
   33.2840   29.1250   36.9030 H   0  0  0  0  0  0  0  0  0  0  0  0
   33.2010   27.9610   35.6060 H   0  0  0  0  0  0  0  0  0  0  0  0
   32.1740   29.7110   35.1410 C   0  0  0  0  0  0  0  0  0  0  0  0
   31.5510   28.9570   34.5960 H   0  0  0  0  0  0  0  0  0  0  0  0
   32.5060   30.4980   34.4330 H   0  0  0  0  0  0  0  0  0  0  0  0
   31.0220   32.2070   34.6680 F   0  0  0  0  0  0  0  0  0  0  0  0
   30.8150   31.5840   35.8610 C   0  0  0  0  0  0  0  0  0  0  0  0
   31.3410   30.3470   36.1930 C   0  0  0  0  0  0  0  0  0  0  0  0
   31.0960   29.7610   37.4230 C   0  0  0  0  0  0  0  0  0  0  0  0
   31.5240   28.7950   37.6460 H   0  0  0  0  0  0  0  0  0  0  0  0
   30.2980   30.4800   38.3010 C   0  0  0  0  0  0  0  0  0  0  0  0
   30.1220   30.0010   39.2560 H   0  0  0  0  0  0  0  0  0  0  0  0
   29.7620   31.7170   37.9920 C   0  0  0  0  0  3  0  0  0  0  0  0
   30.0200   32.2870   36.7500 C   0  0  0  0  0  3  0  0  0  0  0  0
  1  4  1  0  0  0  0
  2  1  2  0  0  0  0
  3  8  1  0  0  0  0
  4  5  1  0  0  0  0
  4  3  2  0  0  0  0
  5  6  2  0  0  0  0
  6  7  1  0  0  0  0
  7 11  1  0  0  0  0
  8  7  2  0  0  0  0
  9  3  1  0  0  0  0
 10  5  1  0  0  0  0
 11 12  2  0  0  0  0
 11 16  1  0  0  0  0
 12 13  1  0  0  0  0
 13 18  1  0  0  0  0
 13 14  2  0  0  0  0
 15 14  1  0  0  0  0
 15 19  1  0  0  0  0
 16 15  2  0  0  0  0
 17 12  1  0  0  0  0
 20 21  1  0  0  0  0
 20  1  1  0  0  0  0
 21 22  1  0  0  0  0
 23 21  1  0  0  0  0
 24 21  1  0  0  0  0
 24 29  1  0  0  0  0
 25 24  1  0  0  0  0
 26 24  1  0  0  0  0
 27 28  1  0  0  0  0
 28 29  2  0  0  0  0
 28 35  1  0  0  0  0
 29 30  1  0  0  0  0
 30 31  1  0  0  0  0
 30 32  2  0  0  0  0
 32 33  1  0  0  0  0
 34 32  1  0  0  0  0
 35 34  2  0  0  0  0
M  END
>  <minimizedAffinity>
-5.16651154

$$$$
