
 OpenBabel03252509043D

 48 50  0  0  1  0  0  0  0  0999 V2000
   46.7680   34.4110   43.3200 N   0  0  0  0  0  0  0  0  0  0  0  0
   46.5020   34.8700   42.0120 C   0  0  0  0  0  0  0  0  0  0  0  0
   45.0470   34.7950   41.5980 C   0  0  0  0  0  0  0  0  0  0  0  0
   44.0630   34.9920   42.7310 C   0  0  0  0  0  0  0  0  0  0  0  0
   44.7820   35.3690   44.0180 C   0  0  0  0  0  0  0  0  0  0  0  0
   45.7730   34.1600   44.2300 C   0  0  2  0  0  0  0  0  0  0  0  0
   46.7750   35.9640   41.9770 H   0  0  0  0  0  0  0  0  0  0  0  0
   47.0770   34.4130   41.2030 H   0  0  0  0  0  0  0  0  0  0  0  0
   44.8350   33.8610   41.0110 H   0  0  0  0  0  0  0  0  0  0  0  0
   44.8400   35.6150   40.8690 H   0  0  0  0  0  0  0  0  0  0  0  0
   43.2330   35.6580   42.4770 H   0  0  0  0  0  0  0  0  0  0  0  0
   43.6100   33.9910   42.9210 H   0  0  0  0  0  0  0  0  0  0  0  0
   44.0390   35.3540   44.8370 H   0  0  0  0  0  0  0  0  0  0  0  0
   45.3690   36.2930   43.9340 H   0  0  0  0  0  0  0  0  0  0  0  0
   45.1670   33.2350   44.1160 H   0  0  0  0  0  0  0  0  0  0  0  0
   48.0090   33.6690   43.4390 C   0  0  0  0  0  0  0  0  0  0  0  0
   48.2330   33.5070   44.5150 H   0  0  0  0  0  0  0  0  0  0  0  0
   48.8360   34.2320   42.9970 H   0  0  0  0  0  0  0  0  0  0  0  0
   47.8210   32.3320   42.8030 C   0  0  0  0  0  0  0  0  0  0  0  0
   47.7410   31.4970   43.5200 H   0  0  0  0  0  0  0  0  0  0  0  0
   46.8880   32.3080   42.1850 H   0  0  0  0  0  0  0  0  0  0  0  0
   51.2710   32.0910   41.3290 C   0  0  0  0  0  0  0  0  0  0  0  0
   50.2190   32.3170   42.2330 C   0  0  0  0  0  0  0  0  0  0  0  0
   48.9270   32.0890   41.8380 C   0  0  0  0  0  0  0  0  0  0  0  0
   48.7380   31.6540   40.5860 N   0  0  0  0  0  0  0  0  0  0  0  0
   49.7400   31.4400   39.7260 C   0  0  0  0  0  0  0  0  0  0  0  0
   51.0160   31.6520   40.0800 N   0  0  0  0  0  0  0  0  0  0  0  0
   52.2380   32.3080   41.7600 H   0  0  0  0  0  0  0  0  0  0  0  0
   50.3890   32.6720   43.2530 H   0  0  0  0  0  0  0  0  0  0  0  0
   49.6140   31.0910   38.7140 H   0  0  0  0  0  0  0  0  0  0  0  0
   46.1720   34.3650   45.5400 O   0  0  0  0  0  0  0  0  0  0  0  0
   45.5620   31.7780   45.6660 O   0  0  0  0  0  0  0  0  0  0  0  0
   46.0060   32.9850   46.4990 P   0  0  2  0  0  0  0  0  0  0  0  0
   44.7240   33.3120   47.5650 O   0  0  0  0  0  0  0  0  0  0  0  0
   44.9940   34.0220   48.1870 H   0  0  0  0  0  0  0  0  0  0  0  0
   47.3790   32.6750   47.4020 O   0  0  0  0  0  0  0  0  0  0  0  0
   47.0020   31.8790   48.4930 C   0  0  0  0  0  0  0  0  0  0  0  0
   46.8040   32.5130   49.3860 H   0  0  0  0  0  0  0  0  0  0  0  0
   46.1120   31.2710   48.2970 H   0  0  0  0  0  0  0  0  0  0  0  0
   47.1440   29.5330   47.0890 F   0  0  0  0  0  0  0  0  0  0  0  0
   48.1140   29.8020   48.0070 C   0  0  0  0  0  0  0  0  0  0  0  0
   48.1400   30.9720   48.7780 C   0  0  0  0  0  0  0  0  0  0  0  0
   49.1740   31.1320   49.6730 C   0  0  0  0  0  0  0  0  0  0  0  0
   49.1180   32.0520   50.2190 H   0  0  0  0  0  0  0  0  0  0  0  0
   50.1550   30.1750   49.8120 C   0  0  0  0  0  0  0  0  0  0  0  0
   50.9350   30.3390   50.5180 H   0  0  0  0  0  0  0  0  0  0  0  0
   50.1520   29.0030   49.0600 C   0  0  0  0  0  3  0  0  0  0  0  0
   49.1150   28.8600   48.1710 C   0  0  0  0  0  3  0  0  0  0  0  0
  1 16  1  0  0  0  0
  1  6  1  0  0  0  0
  2  1  1  0  0  0  0
  3  2  1  0  0  0  0
  3  4  1  0  0  0  0
  4 12  1  0  0  0  0
  4  5  1  0  0  0  0
  5  6  1  0  0  0  0
  5 13  1  0  0  0  0
  6 15  1  6  0  0  0
  6 31  1  0  0  0  0
  7  2  1  0  0  0  0
  8  2  1  0  0  0  0
  9  3  1  0  0  0  0
 10  3  1  0  0  0  0
 11  4  1  0  0  0  0
 14  5  1  0  0  0  0
 16 17  1  0  0  0  0
 18 16  1  0  0  0  0
 19 16  1  0  0  0  0
 19 20  1  0  0  0  0
 21 19  1  0  0  0  0
 22 28  1  0  0  0  0
 22 23  1  0  0  0  0
 23 29  1  0  0  0  0
 24 23  2  0  0  0  0
 24 19  1  0  0  0  0
 25 24  1  0  0  0  0
 26 27  1  0  0  0  0
 26 25  2  0  0  0  0
 27 22  2  0  0  0  0
 30 26  1  0  0  0  0
 31 33  1  0  0  0  0
 33 32  2  6  0  0  0
 33 36  1  0  0  0  0
 33 34  1  0  0  0  0
 34 35  1  0  0  0  0
 36 37  1  0  0  0  0
 37 42  1  0  0  0  0
 37 38  1  0  0  0  0
 39 37  1  0  0  0  0
 40 41  1  0  0  0  0
 41 48  2  0  0  0  0
 41 42  1  0  0  0  0
 42 43  2  0  0  0  0
 43 45  1  0  0  0  0
 43 44  1  0  0  0  0
 45 46  1  0  0  0  0
 47 45  2  0  0  0  0
 48 47  1  0  0  0  0
M  END
>  <minimizedAffinity>
-5.19427633

>  <minimizedRMSD>
3.05900311

$$$$
