
 OpenBabel03252509043D

 48 50  0  0  1  0  0  0  0  0999 V2000
   47.0800   34.2230   43.5080 N   0  0  0  0  0  0  0  0  0  0  0  0
   46.7550   35.0970   42.4500 C   0  0  0  0  0  0  0  0  0  0  0  0
   45.2730   35.2160   42.1600 C   0  0  0  0  0  0  0  0  0  0  0  0
   44.3830   35.0630   43.3730 C   0  0  0  0  0  0  0  0  0  0  0  0
   45.2090   34.9660   44.6470 C   0  0  0  0  0  0  0  0  0  0  0  0
   46.1360   33.7210   44.3670 C   0  0  2  0  0  0  0  0  0  0  0  0
   47.0920   36.1320   42.7520 H   0  0  0  0  0  0  0  0  0  0  0  0
   47.2440   34.9140   41.4900 H   0  0  0  0  0  0  0  0  0  0  0  0
   44.9630   34.5370   41.3190 H   0  0  0  0  0  0  0  0  0  0  0  0
   45.0680   36.2390   41.7590 H   0  0  0  0  0  0  0  0  0  0  0  0
   43.5790   35.8040   43.4230 H   0  0  0  0  0  0  0  0  0  0  0  0
   43.8830   34.0720   43.2640 H   0  0  0  0  0  0  0  0  0  0  0  0
   44.5250   34.7080   45.4760 H   0  0  0  0  0  0  0  0  0  0  0  0
   45.8460   35.8440   44.8210 H   0  0  0  0  0  0  0  0  0  0  0  0
   45.4670   32.9080   44.0090 H   0  0  0  0  0  0  0  0  0  0  0  0
   48.2780   33.4400   43.2720 C   0  0  0  0  0  0  0  0  0  0  0  0
   48.7290   33.1620   44.2490 H   0  0  0  0  0  0  0  0  0  0  0  0
   49.0120   34.0220   42.7090 H   0  0  0  0  0  0  0  0  0  0  0  0
   47.8870   32.1790   42.5740 C   0  0  0  0  0  0  0  0  0  0  0  0
   48.0710   31.2620   43.1580 H   0  0  0  0  0  0  0  0  0  0  0  0
   46.7960   32.1810   42.3220 H   0  0  0  0  0  0  0  0  0  0  0  0
   50.4970   31.4810   39.9590 C   0  0  0  0  0  0  0  0  0  0  0  0
   49.8300   31.5490   41.1950 C   0  0  0  0  0  0  0  0  0  0  0  0
   48.5840   32.1120   41.2610 C   0  0  0  0  0  0  0  0  0  0  0  0
   48.0600   32.5750   40.1180 N   0  0  0  0  0  0  0  0  0  0  0  0
   48.6950   32.5090   38.9430 C   0  0  0  0  0  0  0  0  0  0  0  0
   49.9160   31.9640   38.8430 N   0  0  0  0  0  0  0  0  0  0  0  0
   51.4700   31.0170   40.0410 H   0  0  0  0  0  0  0  0  0  0  0  0
   50.2710   31.1670   42.1200 H   0  0  0  0  0  0  0  0  0  0  0  0
   48.2960   32.8740   38.0100 H   0  0  0  0  0  0  0  0  0  0  0  0
   46.6360   33.4660   45.6340 O   0  0  0  0  0  0  0  0  0  0  0  0
   45.5650   31.0870   45.1100 O   0  0  0  0  0  0  0  0  0  0  0  0
   46.2150   31.9350   46.2080 P   0  0  2  0  0  0  0  0  0  0  0  0
   45.0080   32.1920   47.3750 O   0  0  0  0  0  0  0  0  0  0  0  0
   45.3990   32.6540   48.1480 H   0  0  0  0  0  0  0  0  0  0  0  0
   47.5040   31.1600   46.9410 O   0  0  0  0  0  0  0  0  0  0  0  0
   48.0060   30.2160   46.0330 C   0  0  0  0  0  0  0  0  0  0  0  0
   47.3190   30.1110   45.1640 H   0  0  0  0  0  0  0  0  0  0  0  0
   49.0030   30.4660   45.6560 H   0  0  0  0  0  0  0  0  0  0  0  0
   50.3040   29.6690   47.4190 F   0  0  0  0  0  0  0  0  0  0  0  0
   49.3010   28.7450   47.4280 C   0  0  0  0  0  0  0  0  0  0  0  0
   48.0850   28.9240   46.7560 C   0  0  0  0  0  0  0  0  0  0  0  0
   47.1480   27.9190   46.8390 C   0  0  0  0  0  0  0  0  0  0  0  0
   46.2490   28.1360   46.2990 H   0  0  0  0  0  0  0  0  0  0  0  0
   47.3930   26.7690   47.5590 C   0  0  0  0  0  0  0  0  0  0  0  0
   46.6400   26.0180   47.5950 H   0  0  0  0  0  0  0  0  0  0  0  0
   48.5920   26.5660   48.2350 C   0  0  0  0  0  3  0  0  0  0  0  0
   49.5160   27.5790   48.1410 C   0  0  0  0  0  3  0  0  0  0  0  0
  1  6  1  0  0  0  0
  2  7  1  0  0  0  0
  2  1  1  0  0  0  0
  3  2  1  0  0  0  0
  3  4  1  0  0  0  0
  4 11  1  0  0  0  0
  4  5  1  0  0  0  0
  5 14  1  0  0  0  0
  5 13  1  0  0  0  0
  6 15  1  6  0  0  0
  6  5  1  0  0  0  0
  6 31  1  0  0  0  0
  8  2  1  0  0  0  0
  9  3  1  0  0  0  0
 10  3  1  0  0  0  0
 12  4  1  0  0  0  0
 16  1  1  0  0  0  0
 16 17  1  0  0  0  0
 18 16  1  0  0  0  0
 19 20  1  0  0  0  0
 19 16  1  0  0  0  0
 21 19  1  0  0  0  0
 22 28  1  0  0  0  0
 22 23  1  0  0  0  0
 23 24  2  0  0  0  0
 23 29  1  0  0  0  0
 24 19  1  0  0  0  0
 25 24  1  0  0  0  0
 26 25  2  0  0  0  0
 27 26  1  0  0  0  0
 27 22  2  0  0  0  0
 30 26  1  0  0  0  0
 31 33  1  0  0  0  0
 33 32  2  6  0  0  0
 33 36  1  0  0  0  0
 33 34  1  0  0  0  0
 34 35  1  0  0  0  0
 37 42  1  0  0  0  0
 37 36  1  0  0  0  0
 38 37  1  0  0  0  0
 39 37  1  0  0  0  0
 40 41  1  0  0  0  0
 41 48  1  0  0  0  0
 42 43  1  0  0  0  0
 42 41  2  0  0  0  0
 43 45  2  0  0  0  0
 44 43  1  0  0  0  0
 45 46  1  0  0  0  0
 45 47  1  0  0  0  0
 48 47  2  0  0  0  0
M  END
>  <minimizedAffinity>
-4.25913286

>  <minimizedRMSD>
1.67330039

$$$$
