
 OpenBabel03252509033D

 48 50  0  0  1  0  0  0  0  0999 V2000
   46.6710   34.3880   43.4810 N   0  0  0  0  0  0  0  0  0  0  0  0
   46.4190   34.9070   42.1930 C   0  0  0  0  0  0  0  0  0  0  0  0
   44.9580   34.9280   41.7930 C   0  0  0  0  0  0  0  0  0  0  0  0
   43.9980   35.1380   42.9430 C   0  0  0  0  0  0  0  0  0  0  0  0
   44.7470   35.4280   44.2340 C   0  0  0  0  0  0  0  0  0  0  0  0
   45.6720   34.1600   44.3920 C   0  0  2  0  0  0  0  0  0  0  0  0
   46.7520   35.9860   42.1940 H   0  0  0  0  0  0  0  0  0  0  0  0
   46.9610   34.4490   41.3620 H   0  0  0  0  0  0  0  0  0  0  0  0
   44.6890   34.0290   41.1750 H   0  0  0  0  0  0  0  0  0  0  0  0
   44.7910   35.7840   41.0960 H   0  0  0  0  0  0  0  0  0  0  0  0
   43.2030   35.8570   42.7220 H   0  0  0  0  0  0  0  0  0  0  0  0
   43.4910   34.1570   43.1030 H   0  0  0  0  0  0  0  0  0  0  0  0
   44.0120   35.4240   45.0610 H   0  0  0  0  0  0  0  0  0  0  0  0
   45.3840   36.3210   44.1770 H   0  0  0  0  0  0  0  0  0  0  0  0
   45.0140   33.2740   44.2520 H   0  0  0  0  0  0  0  0  0  0  0  0
   47.8700   33.5750   43.5590 C   0  0  0  0  0  0  0  0  0  0  0  0
   48.0200   33.2500   44.6120 H   0  0  0  0  0  0  0  0  0  0  0  0
   48.7460   34.1530   43.2500 H   0  0  0  0  0  0  0  0  0  0  0  0
   47.6660   32.3530   42.7270 C   0  0  0  0  0  0  0  0  0  0  0  0
   47.4170   31.4470   43.3060 H   0  0  0  0  0  0  0  0  0  0  0  0
   46.8310   32.5000   41.9950 H   0  0  0  0  0  0  0  0  0  0  0  0
   51.2440   32.3180   41.5750 C   0  0  0  0  0  0  0  0  0  0  0  0
   50.0960   32.5310   42.3580 C   0  0  0  0  0  0  0  0  0  0  0  0
   48.8750   32.1230   41.8910 C   0  0  0  0  0  0  0  0  0  0  0  0
   48.8450   31.5320   40.6900 N   0  0  0  0  0  0  0  0  0  0  0  0
   49.9380   31.3300   39.9460 C   0  0  0  0  0  0  0  0  0  0  0  0
   51.1490   31.7170   40.3730 N   0  0  0  0  0  0  0  0  0  0  0  0
   52.1420   32.6850   42.0530 H   0  0  0  0  0  0  0  0  0  0  0  0
   50.1360   33.0160   43.3380 H   0  0  0  0  0  0  0  0  0  0  0  0
   49.9410   30.8580   38.9770 H   0  0  0  0  0  0  0  0  0  0  0  0
   46.0940   34.2950   45.7050 O   0  0  0  0  0  0  0  0  0  0  0  0
   45.7230   31.6600   45.6440 O   0  0  0  0  0  0  0  0  0  0  0  0
   46.0220   32.8460   46.5680 P   0  0  2  0  0  0  0  0  0  0  0  0
   44.6790   32.9840   47.5980 O   0  0  0  0  0  0  0  0  0  0  0  0
   44.8600   33.6730   48.2740 H   0  0  0  0  0  0  0  0  0  0  0  0
   47.3860   32.6020   47.5060 O   0  0  0  0  0  0  0  0  0  0  0  0
   47.1120   31.5510   48.3930 C   0  0  0  0  0  0  0  0  0  0  0  0
   46.7060   31.9470   49.3500 H   0  0  0  0  0  0  0  0  0  0  0  0
   46.4000   30.8210   47.9920 H   0  0  0  0  0  0  0  0  0  0  0  0
   47.9450   29.6800   46.5750 F   0  0  0  0  0  0  0  0  0  0  0  0
   48.7280   29.9230   47.6640 C   0  0  0  0  0  0  0  0  0  0  0  0
   48.3990   30.8610   48.6530 C   0  0  0  0  0  0  0  0  0  0  0  0
   49.2710   31.0200   49.7070 C   0  0  0  0  0  0  0  0  0  0  0  0
   48.9430   31.7550   50.4150 H   0  0  0  0  0  0  0  0  0  0  0  0
   50.4320   30.2830   49.7930 C   0  0  0  0  0  0  0  0  0  0  0  0
   51.0750   30.4390   50.6270 H   0  0  0  0  0  0  0  0  0  0  0  0
   50.7820   29.3470   48.8260 C   0  0  0  0  0  3  0  0  0  0  0  0
   49.9010   29.2010   47.7810 C   0  0  0  0  0  3  0  0  0  0  0  0
  1 16  1  0  0  0  0
  1  6  1  0  0  0  0
  2  7  1  0  0  0  0
  2  1  1  0  0  0  0
  3  2  1  0  0  0  0
  3  4  1  0  0  0  0
  4 12  1  0  0  0  0
  4  5  1  0  0  0  0
  5  6  1  0  0  0  0
  5 13  1  0  0  0  0
  6 15  1  6  0  0  0
  6 31  1  0  0  0  0
  8  2  1  0  0  0  0
  9  3  1  0  0  0  0
 10  3  1  0  0  0  0
 11  4  1  0  0  0  0
 14  5  1  0  0  0  0
 16 17  1  0  0  0  0
 18 16  1  0  0  0  0
 19 20  1  0  0  0  0
 19 16  1  0  0  0  0
 21 19  1  0  0  0  0
 22 28  1  0  0  0  0
 22 23  1  0  0  0  0
 23 29  1  0  0  0  0
 24 23  2  0  0  0  0
 24 19  1  0  0  0  0
 25 24  1  0  0  0  0
 26 27  1  0  0  0  0
 26 25  2  0  0  0  0
 27 22  2  0  0  0  0
 30 26  1  0  0  0  0
 31 33  1  0  0  0  0
 33 32  2  6  0  0  0
 33 36  1  0  0  0  0
 33 34  1  0  0  0  0
 34 35  1  0  0  0  0
 36 37  1  0  0  0  0
 37 42  1  0  0  0  0
 37 38  1  0  0  0  0
 39 37  1  0  0  0  0
 40 41  1  0  0  0  0
 41 48  2  0  0  0  0
 41 42  1  0  0  0  0
 42 43  2  0  0  0  0
 43 45  1  0  0  0  0
 43 44  1  0  0  0  0
 45 46  1  0  0  0  0
 47 45  2  0  0  0  0
 48 47  1  0  0  0  0
M  END
>  <minimizedAffinity>
-5.14881468

>  <minimizedRMSD>
2.95553827

$$$$
