
 OpenBabel03252506323D

 32 34  0  0  1  0  0  0  0  0999 V2000
   37.6290   33.0040   39.5780 C   0  0  0  0  0  0  0  0  0  0  0  0
   38.4300   32.9220   40.7250 C   0  0  0  0  0  0  0  0  0  0  0  0
   38.7540   31.6670   41.2420 C   0  0  0  0  0  0  0  0  0  0  0  0
   38.2630   30.5730   40.5840 N   0  0  0  0  0  0  0  0  0  0  0  0
   37.5040   30.6860   39.4960 C   0  0  0  0  0  0  0  0  0  0  0  0
   37.1760   31.8830   38.9770 N   0  0  0  0  0  0  0  0  0  0  0  0
   37.0400   29.4870   38.8860 N   0  0  0  0  0  0  0  0  0  0  0  0
   36.4710   29.4150   37.5320 C   0  0  0  0  0  0  0  0  0  0  0  0
   35.4090   28.3680   37.7100 C   0  0  0  0  0  0  0  0  0  0  0  0
   35.6320   27.7220   39.0490 C   0  0  0  0  0  0  0  0  0  0  0  0
   37.0150   28.1550   39.4000 C   0  0  2  0  0  0  0  0  0  0  0  0
   37.3830   33.9810   39.1850 H   0  0  0  0  0  0  0  0  0  0  0  0
   39.3740   31.6250   42.1290 H   0  0  0  0  0  0  0  0  0  0  0  0
   35.9560   30.3750   37.3600 H   0  0  0  0  0  0  0  0  0  0  0  0
   37.2210   29.1530   36.7720 H   0  0  0  0  0  0  0  0  0  0  0  0
   34.3820   28.7740   37.6090 H   0  0  0  0  0  0  0  0  0  0  0  0
   35.5420   27.6240   36.9000 H   0  0  0  0  0  0  0  0  0  0  0  0
   35.6020   26.6140   38.9340 H   0  0  0  0  0  0  0  0  0  0  0  0
   34.8520   28.0840   39.7570 H   0  0  0  0  0  0  0  0  0  0  0  0
   37.7000   27.5270   38.7480 H   0  0  0  0  0  0  0  0  0  0  0  0
   39.5940   27.4140   40.1760 F   0  0  0  0  0  0  0  0  0  0  0  0
   38.6560   27.5690   41.1580 C   0  0  0  0  0  0  0  0  0  0  0  0
   37.3580   27.9550   40.7990 C   0  0  0  0  0  0  0  0  0  0  0  0
   36.5330   28.0700   41.8820 C   0  0  0  0  0  0  0  0  0  0  0  0
   35.5000   28.3520   41.7100 H   0  0  0  0  0  0  0  0  0  0  0  0
   36.8850   27.8450   43.1960 C   0  0  0  0  0  0  0  0  0  0  0  0
   36.1660   27.9600   43.9930 H   0  0  0  0  0  0  0  0  0  0  0  0
   38.1710   27.4710   43.4710 C   0  0  0  0  0  3  0  0  0  0  0  0
   39.0770   27.3280   42.4490 C   0  0  0  0  0  3  0  0  0  0  0  0
   38.8720   34.1610   41.3050 N   0  0  0  0  0  0  0  0  0  0  0  0
   39.8720   34.0880   41.6060 H   0  0  0  0  0  0  0  0  0  0  0  0
   38.1580   34.9220   41.3380 H   0  0  0  0  0  0  0  0  0  0  0  0
  1  2  1  0  0  0  0
  2  3  2  0  0  0  0
  2 30  1  0  0  0  0
  3 13  1  0  0  0  0
  4  3  1  0  0  0  0
  5  4  2  0  0  0  0
  6  5  1  0  0  0  0
  6  1  2  0  0  0  0
  7 11  1  0  0  0  0
  7  5  1  0  0  0  0
  8  9  1  0  0  0  0
  8  7  1  0  0  0  0
  9 10  1  0  0  0  0
 10 11  1  0  0  0  0
 10 19  1  0  0  0  0
 11 20  1  6  0  0  0
 11 23  1  0  0  0  0
 12  1  1  0  0  0  0
 14  8  1  0  0  0  0
 15  8  1  0  0  0  0
 16  9  1  0  0  0  0
 17  9  1  0  0  0  0
 18 10  1  0  0  0  0
 21 22  1  0  0  0  0
 22 29  1  0  0  0  0
 23 22  2  0  0  0  0
 23 24  1  0  0  0  0
 24 26  2  0  0  0  0
 25 24  1  0  0  0  0
 26 28  1  0  0  0  0
 26 27  1  0  0  0  0
 29 28  2  0  0  0  0
 30 32  1  0  0  0  0
 30 31  1  0  0  0  0
M  END
>  <minimizedAffinity>
-5.61749125

$$$$

 OpenBabel03252506323D

 32 34  0  0  1  0  0  0  0  0999 V2000
   37.7870   30.0530   42.1730 C   0  0  0  0  0  0  0  0  0  0  0  0
   36.6100   29.7820   41.4630 C   0  0  0  0  0  0  0  0  0  0  0  0
   36.2800   28.4590   41.1700 C   0  0  0  0  0  0  0  0  0  0  0  0
   37.1410   27.4880   41.6020 N   0  0  0  0  0  0  0  0  0  0  0  0
   38.2520   27.7790   42.2760 C   0  0  0  0  0  0  0  0  0  0  0  0
   38.5950   29.0460   42.5720 N   0  0  0  0  0  0  0  0  0  0  0  0
   39.0830   26.6970   42.6800 N   0  0  0  0  0  0  0  0  0  0  0  0
   40.1560   26.8080   43.6800 C   0  0  0  0  0  0  0  0  0  0  0  0
   41.1870   25.8740   43.1140 C   0  0  0  0  0  0  0  0  0  0  0  0
   40.5320   25.0930   42.0100 C   0  0  0  0  0  0  0  0  0  0  0  0
   39.0800   25.3360   42.2480 C   0  0  2  0  0  0  0  0  0  0  0  0
   38.0350   31.0810   42.3960 H   0  0  0  0  0  0  0  0  0  0  0  0
   35.3660   28.2710   40.6200 H   0  0  0  0  0  0  0  0  0  0  0  0
   40.5590   27.8300   43.5900 H   0  0  0  0  0  0  0  0  0  0  0  0
   39.8220   26.5320   44.6900 H   0  0  0  0  0  0  0  0  0  0  0  0
   42.1000   26.3980   42.7680 H   0  0  0  0  0  0  0  0  0  0  0  0
   41.4980   25.1940   43.9320 H   0  0  0  0  0  0  0  0  0  0  0  0
   40.7570   24.0090   42.1400 H   0  0  0  0  0  0  0  0  0  0  0  0
   40.9000   25.4760   41.0310 H   0  0  0  0  0  0  0  0  0  0  0  0
   38.8120   24.6960   43.1450 H   0  0  0  0  0  0  0  0  0  0  0  0
   36.4690   24.4210   42.6280 F   0  0  0  0  0  0  0  0  0  0  0  0
   36.9300   24.5070   41.3440 C   0  0  0  0  0  0  0  0  0  0  0  0
   38.2310   24.9780   41.1220 C   0  0  0  0  0  0  0  0  0  0  0  0
   38.5520   25.0100   39.7950 C   0  0  0  0  0  0  0  0  0  0  0  0
   39.5440   25.3470   39.5170 H   0  0  0  0  0  0  0  0  0  0  0  0
   37.7290   24.6350   38.7530 C   0  0  0  0  0  0  0  0  0  0  0  0
   38.0650   24.6930   37.7290 H   0  0  0  0  0  0  0  0  0  0  0  0
   36.4710   24.1860   39.0460 C   0  0  0  0  0  3  0  0  0  0  0  0
   36.0550   24.1160   40.3520 C   0  0  0  0  0  3  0  0  0  0  0  0
   35.8060   30.9090   41.0760 N   0  0  0  0  0  0  0  0  0  0  0  0
   34.7890   30.6990   41.2170 H   0  0  0  0  0  0  0  0  0  0  0  0
   36.3330   31.7390   40.7250 H   0  0  0  0  0  0  0  0  0  0  0  0
  1 12  1  0  0  0  0
  1  6  1  0  0  0  0
  2  1  2  0  0  0  0
  3  2  1  0  0  0  0
  3  4  2  0  0  0  0
  4  5  1  0  0  0  0
  5  6  2  0  0  0  0
  5  7  1  0  0  0  0
  7  8  1  0  0  0  0
  8 15  1  0  0  0  0
  9  8  1  0  0  0  0
  9 17  1  0  0  0  0
 10 18  1  0  0  0  0
 10 11  1  0  0  0  0
 10  9  1  0  0  0  0
 11  7  1  0  0  0  0
 11 20  1  1  0  0  0
 13  3  1  0  0  0  0
 14  8  1  0  0  0  0
 16  9  1  0  0  0  0
 19 10  1  0  0  0  0
 22 21  1  0  0  0  0
 23 22  1  0  0  0  0
 23 11  1  0  0  0  0
 24 23  2  0  0  0  0
 25 24  1  0  0  0  0
 26 28  2  0  0  0  0
 26 24  1  0  0  0  0
 27 26  1  0  0  0  0
 28 29  1  0  0  0  0
 29 22  2  0  0  0  0
 30 31  1  0  0  0  0
 30  2  1  0  0  0  0
 32 30  1  0  0  0  0
M  END
>  <minimizedAffinity>
-5.57729673

$$$$

 OpenBabel03252506323D

 32 34  0  0  1  0  0  0  0  0999 V2000
   40.1550   31.4930   39.2100 C   0  0  0  0  0  0  0  0  0  0  0  0
   39.3980   31.5680   38.0330 C   0  0  0  0  0  0  0  0  0  0  0  0
   38.1460   30.9560   37.9870 C   0  0  0  0  0  0  0  0  0  0  0  0
   37.7240   30.3080   39.1160 N   0  0  0  0  0  0  0  0  0  0  0  0
   38.4680   30.2550   40.2190 C   0  0  0  0  0  0  0  0  0  0  0  0
   39.6790   30.8360   40.2910 N   0  0  0  0  0  0  0  0  0  0  0  0
   37.9400   29.5540   41.3390 N   0  0  0  0  0  0  0  0  0  0  0  0
   38.4710   29.6610   42.7060 C   0  0  0  0  0  0  0  0  0  0  0  0
   38.2920   28.2560   43.2060 C   0  0  0  0  0  0  0  0  0  0  0  0
   37.4270   27.5300   42.2140 C   0  0  0  0  0  0  0  0  0  0  0  0
   36.8440   28.6410   41.4080 C   0  0  2  0  0  0  0  0  0  0  0  0
   41.1250   31.9710   39.2370 H   0  0  0  0  0  0  0  0  0  0  0  0
   37.5770   31.0260   37.0690 H   0  0  0  0  0  0  0  0  0  0  0  0
   39.5550   29.8350   42.6050 H   0  0  0  0  0  0  0  0  0  0  0  0
   37.9390   30.4110   43.3080 H   0  0  0  0  0  0  0  0  0  0  0  0
   39.2550   27.7340   43.3790 H   0  0  0  0  0  0  0  0  0  0  0  0
   37.7800   28.3190   44.1870 H   0  0  0  0  0  0  0  0  0  0  0  0
   36.6140   26.9930   42.7560 H   0  0  0  0  0  0  0  0  0  0  0  0
   38.0630   26.8310   41.6260 H   0  0  0  0  0  0  0  0  0  0  0  0
   36.0520   29.1110   42.0720 H   0  0  0  0  0  0  0  0  0  0  0  0
   34.6970   30.0230   40.2750 F   0  0  0  0  0  0  0  0  0  0  0  0
   35.1500   28.9110   39.6220 C   0  0  0  0  0  0  0  0  0  0  0  0
   36.2360   28.2070   40.1590 C   0  0  0  0  0  0  0  0  0  0  0  0
   36.5770   27.1230   39.4020 C   0  0  0  0  0  0  0  0  0  0  0  0
   37.3980   26.5000   39.7400 H   0  0  0  0  0  0  0  0  0  0  0  0
   35.9590   26.7220   38.2350 C   0  0  0  0  0  0  0  0  0  0  0  0
   36.2950   25.8490   37.6980 H   0  0  0  0  0  0  0  0  0  0  0  0
   34.9050   27.4600   37.7710 C   0  0  0  0  0  3  0  0  0  0  0  0
   34.4870   28.5690   38.4630 C   0  0  0  0  0  3  0  0  0  0  0  0
   39.9760   32.2860   36.9300 N   0  0  0  0  0  0  0  0  0  0  0  0
   39.2500   32.8730   36.4540 H   0  0  0  0  0  0  0  0  0  0  0  0
   40.9950   32.1240   36.7710 H   0  0  0  0  0  0  0  0  0  0  0  0
  1 12  1  0  0  0  0
  1  6  1  0  0  0  0
  2  1  2  0  0  0  0
  3  2  1  0  0  0  0
  3  4  2  0  0  0  0
  4  5  1  0  0  0  0
  5  6  2  0  0  0  0
  5  7  1  0  0  0  0
  7 11  1  0  0  0  0
  7  8  1  0  0  0  0
  8  9  1  0  0  0  0
  8 15  1  0  0  0  0
  9 16  1  0  0  0  0
  9 17  1  0  0  0  0
 10 18  1  0  0  0  0
 10  9  1  0  0  0  0
 11 20  1  1  0  0  0
 11 10  1  0  0  0  0
 13  3  1  0  0  0  0
 14  8  1  0  0  0  0
 19 10  1  0  0  0  0
 22 23  1  0  0  0  0
 22 21  1  0  0  0  0
 23 11  1  0  0  0  0
 24 25  1  0  0  0  0
 24 23  2  0  0  0  0
 26 24  1  0  0  0  0
 27 26  1  0  0  0  0
 28 26  2  0  0  0  0
 28 29  1  0  0  0  0
 29 22  2  0  0  0  0
 30  2  1  0  0  0  0
 31 30  1  0  0  0  0
 32 30  1  0  0  0  0
M  END
>  <minimizedAffinity>
-5.53387737

$$$$

 OpenBabel03252506323D

 32 34  0  0  1  0  0  0  0  0999 V2000
   39.8300   31.1540   42.3900 C   0  0  0  0  0  0  0  0  0  0  0  0
   39.4030   32.0010   41.3590 C   0  0  0  0  0  0  0  0  0  0  0  0
   38.3330   31.6120   40.5540 C   0  0  0  0  0  0  0  0  0  0  0  0
   37.7520   30.4030   40.8270 N   0  0  0  0  0  0  0  0  0  0  0  0
   38.1820   29.6210   41.8150 C   0  0  0  0  0  0  0  0  0  0  0  0
   39.2120   29.9720   42.6060 N   0  0  0  0  0  0  0  0  0  0  0  0
   37.5120   28.3820   42.0160 N   0  0  0  0  0  0  0  0  0  0  0  0
   37.6430   27.5580   43.2270 C   0  0  0  0  0  0  0  0  0  0  0  0
   37.5890   26.1720   42.6520 C   0  0  0  0  0  0  0  0  0  0  0  0
   37.1510   26.2930   41.2200 C   0  0  0  0  0  0  0  0  0  0  0  0
   36.6120   27.6830   41.1550 C   0  0  2  0  0  0  0  0  0  0  0  0
   40.6610   31.4640   43.0080 H   0  0  0  0  0  0  0  0  0  0  0  0
   38.0190   32.2800   39.7630 H   0  0  0  0  0  0  0  0  0  0  0  0
   38.6690   27.7150   43.6000 H   0  0  0  0  0  0  0  0  0  0  0  0
   36.8500   27.7590   43.9620 H   0  0  0  0  0  0  0  0  0  0  0  0
   38.5490   25.6270   42.7490 H   0  0  0  0  0  0  0  0  0  0  0  0
   36.8370   25.6040   43.2350 H   0  0  0  0  0  0  0  0  0  0  0  0
   36.3320   25.5640   41.0200 H   0  0  0  0  0  0  0  0  0  0  0  0
   38.0300   26.1180   40.5590 H   0  0  0  0  0  0  0  0  0  0  0  0
   35.6060   27.6390   41.6780 H   0  0  0  0  0  0  0  0  0  0  0  0
   34.3070   29.0700   40.4050 F   0  0  0  0  0  0  0  0  0  0  0  0
   35.2610   28.8630   39.4480 C   0  0  0  0  0  0  0  0  0  0  0  0
   36.4350   28.1830   39.8000 C   0  0  0  0  0  0  0  0  0  0  0  0
   37.2930   28.0510   38.7460 C   0  0  0  0  0  0  0  0  0  0  0  0
   38.2280   27.5260   38.9100 H   0  0  0  0  0  0  0  0  0  0  0  0
   37.0800   28.5140   37.4640 C   0  0  0  0  0  0  0  0  0  0  0  0
   37.8160   28.3650   36.6880 H   0  0  0  0  0  0  0  0  0  0  0  0
   35.9100   29.1690   37.1950 C   0  0  0  0  0  3  0  0  0  0  0  0
   34.9820   29.3520   38.1900 C   0  0  0  0  0  3  0  0  0  0  0  0
   40.1130   33.2410   41.1960 N   0  0  0  0  0  0  0  0  0  0  0  0
   39.4450   34.0220   40.9960 H   0  0  0  0  0  0  0  0  0  0  0  0
   41.1510   33.1820   41.2970 H   0  0  0  0  0  0  0  0  0  0  0  0
  1  6  1  0  0  0  0
  1 12  1  0  0  0  0
  2  1  2  0  0  0  0
  3  4  2  0  0  0  0
  3  2  1  0  0  0  0
  4  5  1  0  0  0  0
  5  7  1  0  0  0  0
  5  6  2  0  0  0  0
  7  8  1  0  0  0  0
  8 14  1  0  0  0  0
  8 15  1  0  0  0  0
  9 16  1  0  0  0  0
  9  8  1  0  0  0  0
  9 17  1  0  0  0  0
 10  9  1  0  0  0  0
 11 10  1  0  0  0  0
 11 20  1  1  0  0  0
 11  7  1  0  0  0  0
 13  3  1  0  0  0  0
 18 10  1  0  0  0  0
 19 10  1  0  0  0  0
 22 23  1  0  0  0  0
 22 21  1  0  0  0  0
 23 11  1  0  0  0  0
 24 25  1  0  0  0  0
 24 23  2  0  0  0  0
 26 24  1  0  0  0  0
 27 26  1  0  0  0  0
 28 26  2  0  0  0  0
 28 29  1  0  0  0  0
 29 22  2  0  0  0  0
 30 32  1  0  0  0  0
 30  2  1  0  0  0  0
 31 30  1  0  0  0  0
M  END
>  <minimizedAffinity>
-5.34056664

$$$$

 OpenBabel03252506323D

 32 34  0  0  1  0  0  0  0  0999 V2000
   39.9040   28.5000   42.8550 C   0  0  0  0  0  0  0  0  0  0  0  0
   39.2380   27.3670   42.3700 C   0  0  0  0  0  0  0  0  0  0  0  0
   38.4200   27.4860   41.2460 C   0  0  0  0  0  0  0  0  0  0  0  0
   38.3170   28.7250   40.6750 N   0  0  0  0  0  0  0  0  0  0  0  0
   38.9640   29.7820   41.1620 C   0  0  0  0  0  0  0  0  0  0  0  0
   39.7580   29.6960   42.2440 N   0  0  0  0  0  0  0  0  0  0  0  0
   38.7890   31.0280   40.4970 N   0  0  0  0  0  0  0  0  0  0  0  0
   39.6510   32.2020   40.7000 C   0  0  0  0  0  0  0  0  0  0  0  0
   38.6570   33.3230   40.5980 C   0  0  0  0  0  0  0  0  0  0  0  0
   37.3750   32.7440   40.0690 C   0  0  0  0  0  0  0  0  0  0  0  0
   37.8050   31.4180   39.5380 C   0  0  2  0  0  0  0  0  0  0  0  0
   40.5360   28.3980   43.7270 H   0  0  0  0  0  0  0  0  0  0  0  0
   37.9150   26.5990   40.8870 H   0  0  0  0  0  0  0  0  0  0  0  0
   39.9890   32.1610   41.7490 H   0  0  0  0  0  0  0  0  0  0  0  0
   40.4600   32.2650   39.9580 H   0  0  0  0  0  0  0  0  0  0  0  0
   38.5080   33.8560   41.5580 H   0  0  0  0  0  0  0  0  0  0  0  0
   39.0680   34.0610   39.8810 H   0  0  0  0  0  0  0  0  0  0  0  0
   37.0000   33.3790   39.2330 H   0  0  0  0  0  0  0  0  0  0  0  0
   36.6390   32.6800   40.9020 H   0  0  0  0  0  0  0  0  0  0  0  0
   38.3480   31.6450   38.5680 H   0  0  0  0  0  0  0  0  0  0  0  0
   37.4690   30.2200   37.0370 F   0  0  0  0  0  0  0  0  0  0  0  0
   36.5520   29.9280   38.0080 C   0  0  0  0  0  0  0  0  0  0  0  0
   36.7040   30.5030   39.2770 C   0  0  0  0  0  0  0  0  0  0  0  0
   35.7170   30.1230   40.1410 C   0  0  0  0  0  0  0  0  0  0  0  0
   35.7350   30.5240   41.1480 H   0  0  0  0  0  0  0  0  0  0  0  0
   34.6690   29.2730   39.8510 C   0  0  0  0  0  0  0  0  0  0  0  0
   33.9300   29.0250   40.5970 H   0  0  0  0  0  0  0  0  0  0  0  0
   34.5860   28.7500   38.5900 C   0  0  0  0  0  3  0  0  0  0  0  0
   35.5320   29.0730   37.6490 C   0  0  0  0  0  3  0  0  0  0  0  0
   39.4460   26.1330   43.0770 N   0  0  0  0  0  0  0  0  0  0  0  0
   39.5580   25.3380   42.4020 H   0  0  0  0  0  0  0  0  0  0  0  0
   39.4560   26.2070   44.1180 H   0  0  0  0  0  0  0  0  0  0  0  0
  1 12  1  0  0  0  0
  2  1  1  0  0  0  0
  2 30  1  0  0  0  0
  3  2  2  0  0  0  0
  4  5  2  0  0  0  0
  4  3  1  0  0  0  0
  5  6  1  0  0  0  0
  6  1  2  0  0  0  0
  7  8  1  0  0  0  0
  7  5  1  0  0  0  0
  8 14  1  0  0  0  0
  9  8  1  0  0  0  0
  9 16  1  0  0  0  0
 10  9  1  0  0  0  0
 10 19  1  0  0  0  0
 11 20  1  6  0  0  0
 11 10  1  0  0  0  0
 11  7  1  0  0  0  0
 13  3  1  0  0  0  0
 15  8  1  0  0  0  0
 17  9  1  0  0  0  0
 18 10  1  0  0  0  0
 21 22  1  0  0  0  0
 22 23  1  0  0  0  0
 23 11  1  0  0  0  0
 23 24  2  0  0  0  0
 24 25  1  0  0  0  0
 26 24  1  0  0  0  0
 26 27  1  0  0  0  0
 28 26  2  0  0  0  0
 29 22  2  0  0  0  0
 29 28  1  0  0  0  0
 30 32  1  0  0  0  0
 31 30  1  0  0  0  0
M  END
>  <minimizedAffinity>
-5.20374918

$$$$

 OpenBabel03252506323D

 32 34  0  0  1  0  0  0  0  0999 V2000
   40.1240   28.4920   37.1560 C   0  0  0  0  0  0  0  0  0  0  0  0
   40.1120   27.3030   37.8970 C   0  0  0  0  0  0  0  0  0  0  0  0
   39.2640   27.1930   38.9980 C   0  0  0  0  0  0  0  0  0  0  0  0
   38.4790   28.2750   39.2940 N   0  0  0  0  0  0  0  0  0  0  0  0
   38.5150   29.3910   38.5700 C   0  0  0  0  0  0  0  0  0  0  0  0
   39.3240   29.5240   37.5030 N   0  0  0  0  0  0  0  0  0  0  0  0
   37.6610   30.4600   38.9610 N   0  0  0  0  0  0  0  0  0  0  0  0
   37.3450   31.6190   38.1120 C   0  0  0  0  0  0  0  0  0  0  0  0
   37.2730   32.7220   39.1280 C   0  0  0  0  0  0  0  0  0  0  0  0
   37.2670   32.0830   40.4880 C   0  0  0  0  0  0  0  0  0  0  0  0
   36.9510   30.6580   40.1840 C   0  0  2  0  0  0  0  0  0  0  0  0
   40.7850   28.5680   36.3040 H   0  0  0  0  0  0  0  0  0  0  0  0
   39.2690   26.2660   39.5570 H   0  0  0  0  0  0  0  0  0  0  0  0
   38.2400   31.8040   37.4940 H   0  0  0  0  0  0  0  0  0  0  0  0
   36.4140   31.4850   37.5440 H   0  0  0  0  0  0  0  0  0  0  0  0
   38.0900   33.4630   39.0200 H   0  0  0  0  0  0  0  0  0  0  0  0
   36.3220   33.2650   38.9560 H   0  0  0  0  0  0  0  0  0  0  0  0
   36.4470   32.5270   41.1010 H   0  0  0  0  0  0  0  0  0  0  0  0
   38.2640   32.2350   40.9620 H   0  0  0  0  0  0  0  0  0  0  0  0
   35.8430   30.6420   39.9400 H   0  0  0  0  0  0  0  0  0  0  0  0
   35.2950   28.4700   40.7020 F   0  0  0  0  0  0  0  0  0  0  0  0
   36.3640   28.6650   41.5310 C   0  0  0  0  0  0  0  0  0  0  0  0
   37.2200   29.7470   41.2850 C   0  0  0  0  0  0  0  0  0  0  0  0
   38.2400   29.8160   42.1920 C   0  0  0  0  0  0  0  0  0  0  0  0
   38.9530   30.6280   42.0980 H   0  0  0  0  0  0  0  0  0  0  0  0
   38.4500   28.9490   43.2440 C   0  0  0  0  0  0  0  0  0  0  0  0
   39.2850   29.0790   43.9150 H   0  0  0  0  0  0  0  0  0  0  0  0
   37.5710   27.9160   43.4210 C   0  0  0  0  0  3  0  0  0  0  0  0
   36.5120   27.7620   42.5610 C   0  0  0  0  0  3  0  0  0  0  0  0
   40.9940   26.2530   37.4620 N   0  0  0  0  0  0  0  0  0  0  0  0
   40.5130   25.3240   37.5190 H   0  0  0  0  0  0  0  0  0  0  0  0
   41.9460   26.5600   37.1650 H   0  0  0  0  0  0  0  0  0  0  0  0
  1  6  2  0  0  0  0
  1  2  1  0  0  0  0
  2  3  2  0  0  0  0
  3  4  1  0  0  0  0
  3 13  1  0  0  0  0
  5  7  1  0  0  0  0
  5  4  2  0  0  0  0
  6  5  1  0  0  0  0
  7 11  1  0  0  0  0
  8  7  1  0  0  0  0
  8  9  1  0  0  0  0
  9 10  1  0  0  0  0
 10 19  1  0  0  0  0
 10 18  1  0  0  0  0
 11 20  1  6  0  0  0
 11 10  1  0  0  0  0
 11 23  1  0  0  0  0
 12  1  1  0  0  0  0
 14  8  1  0  0  0  0
 15  8  1  0  0  0  0
 16  9  1  0  0  0  0
 17  9  1  0  0  0  0
 21 22  1  0  0  0  0
 22 29  1  0  0  0  0
 23 22  2  0  0  0  0
 23 24  1  0  0  0  0
 24 26  2  0  0  0  0
 25 24  1  0  0  0  0
 26 28  1  0  0  0  0
 26 27  1  0  0  0  0
 29 28  2  0  0  0  0
 30 31  1  0  0  0  0
 30  2  1  0  0  0  0
 32 30  1  0  0  0  0
M  END
>  <minimizedAffinity>
-5.11627245

$$$$

 OpenBabel03252506323D

 32 34  0  0  1  0  0  0  0  0999 V2000
   35.1680   26.9500   37.6350 C   0  0  0  0  0  0  0  0  0  0  0  0
   35.2590   28.2710   38.0920 C   0  0  0  0  0  0  0  0  0  0  0  0
   36.1040   28.5660   39.1620 C   0  0  0  0  0  0  0  0  0  0  0  0
   36.8070   27.5270   39.7090 N   0  0  0  0  0  0  0  0  0  0  0  0
   36.6980   26.2820   39.2510 C   0  0  0  0  0  0  0  0  0  0  0  0
   35.8900   25.9700   38.2210 N   0  0  0  0  0  0  0  0  0  0  0  0
   37.4700   25.2720   39.8900 N   0  0  0  0  0  0  0  0  0  0  0  0
   37.7090   23.9340   39.3280 C   0  0  0  0  0  0  0  0  0  0  0  0
   37.6940   23.0840   40.5650 C   0  0  0  0  0  0  0  0  0  0  0  0
   37.7350   24.0080   41.7490 C   0  0  0  0  0  0  0  0  0  0  0  0
   38.1540   25.3050   41.1430 C   0  0  2  0  0  0  0  0  0  0  0  0
   34.5110   26.7300   36.8050 H   0  0  0  0  0  0  0  0  0  0  0  0
   36.1600   29.5920   39.5000 H   0  0  0  0  0  0  0  0  0  0  0  0
   36.8080   23.6770   38.7450 H   0  0  0  0  0  0  0  0  0  0  0  0
   38.6520   23.8750   38.7660 H   0  0  0  0  0  0  0  0  0  0  0  0
   36.8270   22.3950   40.6050 H   0  0  0  0  0  0  0  0  0  0  0  0
   38.6050   22.4530   40.5410 H   0  0  0  0  0  0  0  0  0  0  0  0
   38.5150   23.6590   42.4640 H   0  0  0  0  0  0  0  0  0  0  0  0
   36.7260   24.0350   42.2200 H   0  0  0  0  0  0  0  0  0  0  0  0
   39.2620   25.1910   40.9280 H   0  0  0  0  0  0  0  0  0  0  0  0
   40.0070   27.3910   41.2730 F   0  0  0  0  0  0  0  0  0  0  0  0
   38.8950   27.4800   42.0640 C   0  0  0  0  0  0  0  0  0  0  0  0
   37.9410   26.4560   42.0080 C   0  0  0  0  0  0  0  0  0  0  0  0
   36.8890   26.6800   42.8490 C   0  0  0  0  0  0  0  0  0  0  0  0
   36.1000   25.9370   42.8920 H   0  0  0  0  0  0  0  0  0  0  0  0
   36.7330   27.7710   43.6790 C   0  0  0  0  0  0  0  0  0  0  0  0
   35.8660   27.8690   44.3140 H   0  0  0  0  0  0  0  0  0  0  0  0
   37.7060   28.7320   43.6800 C   0  0  0  0  0  3  0  0  0  0  0  0
   38.8040   28.5970   42.8670 C   0  0  0  0  0  3  0  0  0  0  0  0
   34.4590   29.2540   37.4140 N   0  0  0  0  0  0  0  0  0  0  0  0
   35.0040   30.1380   37.2740 H   0  0  0  0  0  0  0  0  0  0  0  0
   33.4890   28.9540   37.1700 H   0  0  0  0  0  0  0  0  0  0  0  0
  1  2  2  0  0  0  0
  1  6  1  0  0  0  0
  2  3  1  0  0  0  0
  3 13  1  0  0  0  0
  3  4  2  0  0  0  0
  5  4  1  0  0  0  0
  5  7  1  0  0  0  0
  6  5  2  0  0  0  0
  7 11  1  0  0  0  0
  8  7  1  0  0  0  0
  8  9  1  0  0  0  0
  9 16  1  0  0  0  0
  9 10  1  0  0  0  0
 10 19  1  0  0  0  0
 10 18  1  0  0  0  0
 11 20  1  6  0  0  0
 11 10  1  0  0  0  0
 11 23  1  0  0  0  0
 12  1  1  0  0  0  0
 14  8  1  0  0  0  0
 15  8  1  0  0  0  0
 17  9  1  0  0  0  0
 21 22  1  0  0  0  0
 22 29  1  0  0  0  0
 23 22  2  0  0  0  0
 23 24  1  0  0  0  0
 24 25  1  0  0  0  0
 24 26  2  0  0  0  0
 26 28  1  0  0  0  0
 26 27  1  0  0  0  0
 29 28  2  0  0  0  0
 30  2  1  0  0  0  0
 31 30  1  0  0  0  0
 32 30  1  0  0  0  0
M  END
>  <minimizedAffinity>
-5.08741713

$$$$

 OpenBabel03252506323D

 32 34  0  0  1  0  0  0  0  0999 V2000
   37.6360   30.7480   37.7840 C   0  0  0  0  0  0  0  0  0  0  0  0
   36.5730   29.8450   37.9190 C   0  0  0  0  0  0  0  0  0  0  0  0
   36.3230   29.2660   39.1630 C   0  0  0  0  0  0  0  0  0  0  0  0
   37.1460   29.6230   40.1960 N   0  0  0  0  0  0  0  0  0  0  0  0
   38.1480   30.4850   40.0340 C   0  0  0  0  0  0  0  0  0  0  0  0
   38.4120   31.0570   38.8460 N   0  0  0  0  0  0  0  0  0  0  0  0
   38.9490   30.7890   41.1710 N   0  0  0  0  0  0  0  0  0  0  0  0
   39.8750   31.9290   41.2490 C   0  0  0  0  0  0  0  0  0  0  0  0
   40.9990   31.3450   42.0550 C   0  0  0  0  0  0  0  0  0  0  0  0
   40.5210   30.0350   42.6150 C   0  0  0  0  0  0  0  0  0  0  0  0
   39.0430   30.1130   42.4250 C   0  0  2  0  0  0  0  0  0  0  0  0
   37.8220   31.1910   36.8150 H   0  0  0  0  0  0  0  0  0  0  0  0
   35.4980   28.5710   39.2460 H   0  0  0  0  0  0  0  0  0  0  0  0
   40.2570   32.0890   40.2260 H   0  0  0  0  0  0  0  0  0  0  0  0
   39.4170   32.8140   41.7120 H   0  0  0  0  0  0  0  0  0  0  0  0
   41.9350   31.2320   41.4720 H   0  0  0  0  0  0  0  0  0  0  0  0
   41.2170   32.0560   42.8770 H   0  0  0  0  0  0  0  0  0  0  0  0
   40.7580   29.9890   43.7030 H   0  0  0  0  0  0  0  0  0  0  0  0
   41.0050   29.2050   42.0520 H   0  0  0  0  0  0  0  0  0  0  0  0
   38.6760   30.8290   43.2250 H   0  0  0  0  0  0  0  0  0  0  0  0
   39.9700   27.8190   41.1290 F   0  0  0  0  0  0  0  0  0  0  0  0
   38.8420   27.7040   41.8920 C   0  0  0  0  0  0  0  0  0  0  0  0
   38.3630   28.8350   42.5660 C   0  0  0  0  0  0  0  0  0  0  0  0
   37.2330   28.5700   43.2860 C   0  0  0  0  0  0  0  0  0  0  0  0
   36.7730   29.3840   43.8350 H   0  0  0  0  0  0  0  0  0  0  0  0
   36.5960   27.3490   43.3740 C   0  0  0  0  0  0  0  0  0  0  0  0
   35.7040   27.2280   43.9690 H   0  0  0  0  0  0  0  0  0  0  0  0
   37.1220   26.2890   42.6880 C   0  0  0  0  0  3  0  0  0  0  0  0
   38.2580   26.4560   41.9350 C   0  0  0  0  0  3  0  0  0  0  0  0
   35.7950   29.5700   36.7410 N   0  0  0  0  0  0  0  0  0  0  0  0
   34.7750   29.5290   36.9770 H   0  0  0  0  0  0  0  0  0  0  0  0
   36.3400   29.4560   35.8580 H   0  0  0  0  0  0  0  0  0  0  0  0
  1  2  2  0  0  0  0
  1  6  1  0  0  0  0
  2  3  1  0  0  0  0
  3 13  1  0  0  0  0
  3  4  2  0  0  0  0
  5  4  1  0  0  0  0
  5  7  1  0  0  0  0
  6  5  2  0  0  0  0
  7  8  1  0  0  0  0
  7 11  1  0  0  0  0
  8 15  1  0  0  0  0
  8  9  1  0  0  0  0
  9 10  1  0  0  0  0
  9 17  1  0  0  0  0
 10 18  1  0  0  0  0
 11 23  1  0  0  0  0
 11 10  1  0  0  0  0
 11 20  1  1  0  0  0
 12  1  1  0  0  0  0
 14  8  1  0  0  0  0
 16  9  1  0  0  0  0
 19 10  1  0  0  0  0
 21 22  1  0  0  0  0
 22 29  2  0  0  0  0
 22 23  1  0  0  0  0
 23 24  2  0  0  0  0
 24 26  1  0  0  0  0
 24 25  1  0  0  0  0
 26 27  1  0  0  0  0
 28 26  2  0  0  0  0
 29 28  1  0  0  0  0
 30 31  1  0  0  0  0
 30  2  1  0  0  0  0
 32 30  1  0  0  0  0
M  END
>  <minimizedAffinity>
-5.07268524

$$$$

 OpenBabel03252506323D

 32 34  0  0  1  0  0  0  0  0999 V2000
   36.5610   30.0520   38.3070 C   0  0  0  0  0  0  0  0  0  0  0  0
   35.8110   28.8980   38.0460 C   0  0  0  0  0  0  0  0  0  0  0  0
   35.8500   27.8400   38.9540 C   0  0  0  0  0  0  0  0  0  0  0  0
   36.6320   27.9960   40.0660 N   0  0  0  0  0  0  0  0  0  0  0  0
   37.3330   29.1070   40.2840 C   0  0  0  0  0  0  0  0  0  0  0  0
   37.3150   30.1430   39.4250 N   0  0  0  0  0  0  0  0  0  0  0  0
   38.1180   29.1710   41.4690 N   0  0  0  0  0  0  0  0  0  0  0  0
   38.6910   30.4110   42.0150 C   0  0  0  0  0  0  0  0  0  0  0  0
   40.0030   29.9200   42.5550 C   0  0  0  0  0  0  0  0  0  0  0  0
   39.9650   28.4180   42.5390 C   0  0  0  0  0  0  0  0  0  0  0  0
   38.5140   28.1250   42.3570 C   0  0  2  0  0  0  0  0  0  0  0  0
   36.5250   30.8680   37.5980 H   0  0  0  0  0  0  0  0  0  0  0  0
   35.2630   26.9570   38.7340 H   0  0  0  0  0  0  0  0  0  0  0  0
   38.9160   31.0560   41.1490 H   0  0  0  0  0  0  0  0  0  0  0  0
   38.0480   30.8730   42.7780 H   0  0  0  0  0  0  0  0  0  0  0  0
   40.8750   30.3200   42.0000 H   0  0  0  0  0  0  0  0  0  0  0  0
   40.0890   30.2890   43.5970 H   0  0  0  0  0  0  0  0  0  0  0  0
   40.3050   28.0290   43.5270 H   0  0  0  0  0  0  0  0  0  0  0  0
   40.6080   28.0500   41.7070 H   0  0  0  0  0  0  0  0  0  0  0  0
   38.0360   28.3360   43.3640 H   0  0  0  0  0  0  0  0  0  0  0  0
   36.2650   26.7680   43.3050 F   0  0  0  0  0  0  0  0  0  0  0  0
   37.1060   26.0910   42.4660 C   0  0  0  0  0  0  0  0  0  0  0  0
   38.2350   26.7530   41.9630 C   0  0  0  0  0  0  0  0  0  0  0  0
   38.9800   25.9550   41.1420 C   0  0  0  0  0  0  0  0  0  0  0  0
   39.8850   26.3680   40.7100 H   0  0  0  0  0  0  0  0  0  0  0  0
   38.7000   24.6450   40.8120 C   0  0  0  0  0  0  0  0  0  0  0  0
   39.3460   24.0860   40.1530 H   0  0  0  0  0  0  0  0  0  0  0  0
   37.5800   24.0660   41.3420 C   0  0  0  0  0  3  0  0  0  0  0  0
   36.7660   24.7860   42.1800 C   0  0  0  0  0  3  0  0  0  0  0  0
   35.0360   28.8820   36.8360 N   0  0  0  0  0  0  0  0  0  0  0  0
   34.0940   28.4560   37.0090 H   0  0  0  0  0  0  0  0  0  0  0  0
   35.5070   29.2820   35.9940 H   0  0  0  0  0  0  0  0  0  0  0  0
  1  6  1  0  0  0  0
  2  1  2  0  0  0  0
  2  3  1  0  0  0  0
  3  4  2  0  0  0  0
  4  5  1  0  0  0  0
  5  7  1  0  0  0  0
  6  5  2  0  0  0  0
  7  8  1  0  0  0  0
  7 11  1  0  0  0  0
  8  9  1  0  0  0  0
  8 15  1  0  0  0  0
  9 17  1  0  0  0  0
 10  9  1  0  0  0  0
 10 18  1  0  0  0  0
 11 10  1  0  0  0  0
 11 20  1  1  0  0  0
 12  1  1  0  0  0  0
 13  3  1  0  0  0  0
 14  8  1  0  0  0  0
 16  9  1  0  0  0  0
 19 10  1  0  0  0  0
 22 21  1  0  0  0  0
 23 11  1  0  0  0  0
 23 22  2  0  0  0  0
 24 23  1  0  0  0  0
 25 24  1  0  0  0  0
 26 24  2  0  0  0  0
 26 28  1  0  0  0  0
 27 26  1  0  0  0  0
 28 29  2  0  0  0  0
 29 22  1  0  0  0  0
 30 31  1  0  0  0  0
 30  2  1  0  0  0  0
 32 30  1  0  0  0  0
M  END
>  <minimizedAffinity>
-5.03153419

$$$$
