
 OpenBabel03252506593D

 24 25  0  0  0  0  0  0  0  0999 V2000
   47.6830   34.2880   43.1470 C   0  0  0  0  0  0  0  0  0  0  0  0
   47.9470   34.8070   44.0820 H   0  0  0  0  0  0  0  0  0  0  0  0
   47.8740   33.1770   43.2380 H   0  0  0  0  0  0  0  0  0  0  0  0
   46.2790   34.4340   42.7850 C   0  0  0  0  0  0  0  0  0  0  0  0
   45.5070   33.3720   42.3350 C   0  0  0  0  0  0  0  0  0  0  0  0
   44.1490   33.6160   42.0250 C   0  0  0  0  0  0  0  0  0  0  0  0
   43.6780   34.8860   42.1880 N   0  0  0  0  0  0  0  0  0  0  0  0
   44.4680   35.8760   42.6260 C   0  0  0  0  0  0  0  0  0  0  0  0
   45.7460   35.6700   42.9230 N   0  0  0  0  0  0  0  0  0  0  0  0
   45.9360   32.3880   42.2260 H   0  0  0  0  0  0  0  0  0  0  0  0
   43.5620   32.7830   41.6770 H   0  0  0  0  0  0  0  0  0  0  0  0
   44.0100   36.8580   42.7270 H   0  0  0  0  0  0  0  0  0  0  0  0
   48.5240   34.8190   42.0140 C   0  0  0  0  0  0  0  0  0  0  0  0
   47.9360   35.3950   41.2870 H   0  0  0  0  0  0  0  0  0  0  0  0
   49.3150   35.5020   42.3830 H   0  0  0  0  0  0  0  0  0  0  0  0
   50.9560   33.9690   42.9530 F   0  0  0  0  0  0  0  0  0  0  0  0
   50.3870   33.2920   41.9310 C   0  0  0  0  0  0  0  0  0  0  0  0
   49.1700   33.6200   41.3740 C   0  0  0  0  0  0  0  0  0  0  0  0
   48.6090   32.9100   40.3290 C   0  0  0  0  0  0  0  0  0  0  0  0
   47.6490   33.2340   39.9470 H   0  0  0  0  0  0  0  0  0  0  0  0
   49.3250   31.8330   39.8480 C   0  0  0  0  0  0  0  0  0  0  0  0
   48.9000   31.2520   39.0180 H   0  0  0  0  0  0  0  0  0  0  0  0
   50.5430   31.4790   40.3830 C   0  0  0  0  0  3  0  0  0  0  0  0
   51.0980   32.1990   41.4340 C   0  0  0  0  0  3  0  0  0  0  0  0
  1  3  1  0  0  0  0
  1  2  1  0  0  0  0
  4  9  1  0  0  0  0
  4  1  1  0  0  0  0
  5  4  2  0  0  0  0
  6  7  2  0  0  0  0
  6  5  1  0  0  0  0
  7  8  1  0  0  0  0
  8 12  1  0  0  0  0
  8  9  2  0  0  0  0
 10  5  1  0  0  0  0
 11  6  1  0  0  0  0
 13 15  1  0  0  0  0
 13  1  1  0  0  0  0
 14 13  1  0  0  0  0
 17 16  1  0  0  0  0
 18 17  2  0  0  0  0
 18 13  1  0  0  0  0
 19 18  1  0  0  0  0
 20 19  1  0  0  0  0
 21 19  2  0  0  0  0
 21 23  1  0  0  0  0
 22 21  1  0  0  0  0
 23 24  2  0  0  0  0
 24 17  1  0  0  0  0
M  END
>  <minimizedAffinity>
-3.67302346

>  <minimizedRMSD>
2.3874104

$$$$
