
 OpenBabel03252507413D

 25 26  0  0  0  0  0  0  0  0999 V2000
   47.9530   33.2450   39.3670 C   0  0  0  0  0  0  0  0  0  0  0  0
   46.9460   32.9010   39.6950 H   0  0  0  0  0  0  0  0  0  0  0  0
   48.5970   32.3440   39.1370 H   0  0  0  0  0  0  0  0  0  0  0  0
   48.6080   33.9460   40.4900 C   0  0  0  0  0  0  0  0  0  0  0  0
   49.3490   33.1530   41.3620 C   0  0  0  0  0  0  0  0  0  0  0  0
   49.9870   33.7830   42.4420 C   0  0  0  0  0  0  0  0  0  0  0  0
   49.8550   35.1350   42.5900 N   0  0  0  0  0  0  0  0  0  0  0  0
   49.1310   35.8520   41.7260 C   0  0  0  0  0  0  0  0  0  0  0  0
   48.5110   35.2910   40.6900 N   0  0  0  0  0  0  0  0  0  0  0  0
   50.5740   33.1790   43.1380 H   0  0  0  0  0  0  0  0  0  0  0  0
   49.0280   36.9320   41.8490 H   0  0  0  0  0  0  0  0  0  0  0  0
   49.4860   31.4010   41.1170 S   0  0  0  0  0  0  0  0  0  0  0  0
   49.0130   30.6500   42.1820 H   0  0  0  0  0  0  0  0  0  0  0  0
   47.9430   34.0440   38.1000 C   0  0  0  0  0  0  0  0  0  0  0  0
   47.4170   35.0370   38.2440 H   0  0  0  0  0  0  0  0  0  0  0  0
   48.9970   34.3520   37.9180 H   0  0  0  0  0  0  0  0  0  0  0  0
   45.2160   33.3890   37.5390 F   0  0  0  0  0  0  0  0  0  0  0  0
   46.1370   33.0070   36.6500 C   0  0  0  0  0  0  0  0  0  0  0  0
   47.4580   33.3250   36.9230 C   0  0  0  0  0  0  0  0  0  0  0  0
   48.3720   32.8930   35.9530 C   0  0  0  0  0  0  0  0  0  0  0  0
   49.4110   33.1220   36.1310 H   0  0  0  0  0  0  0  0  0  0  0  0
   48.0020   32.2070   34.8170 C   0  0  0  0  0  0  0  0  0  0  0  0
   48.7720   31.9030   34.1100 H   0  0  0  0  0  0  0  0  0  0  0  0
   46.6650   31.9320   34.6260 C   0  0  0  0  0  3  0  0  0  0  0  0
   45.6970   32.3240   35.5360 C   0  0  0  0  0  3  0  0  0  0  0  0
  1  2  1  0  0  0  0
  1  4  1  0  0  0  0
  3  1  1  0  0  0  0
  4  9  2  0  0  0  0
  4  5  1  0  0  0  0
  5  6  2  0  0  0  0
  6  7  1  0  0  0  0
  6 10  1  0  0  0  0
  8 11  1  0  0  0  0
  8  7  2  0  0  0  0
  9  8  1  0  0  0  0
 12  5  1  0  0  0  0
 12 13  1  0  0  0  0
 14 15  1  0  0  0  0
 14  1  1  0  0  0  0
 16 14  1  0  0  0  0
 18 19  1  0  0  0  0
 18 17  1  0  0  0  0
 19 14  1  0  0  0  0
 20 21  1  0  0  0  0
 20 19  2  0  0  0  0
 22 20  1  0  0  0  0
 23 22  1  0  0  0  0
 24 22  2  0  0  0  0
 24 25  1  0  0  0  0
 25 18  2  0  0  0  0
M  END
>  <minimizedAffinity>
-3.91101289

>  <minimizedRMSD>
3.6118753

$$$$
