
 OpenBabel03252507413D

 25 26  0  0  0  0  0  0  0  0999 V2000
   44.9440   33.9760   40.7270 C   0  0  0  0  0  0  0  0  0  0  0  0
   45.5970   34.6230   40.0980 H   0  0  0  0  0  0  0  0  0  0  0  0
   43.9360   34.4750   40.8510 H   0  0  0  0  0  0  0  0  0  0  0  0
   45.5260   33.8800   42.0800 C   0  0  0  0  0  0  0  0  0  0  0  0
   46.9010   34.0820   42.1750 C   0  0  0  0  0  0  0  0  0  0  0  0
   47.4910   33.9980   43.4450 C   0  0  0  0  0  0  0  0  0  0  0  0
   46.7000   33.7240   44.5250 N   0  0  0  0  0  0  0  0  0  0  0  0
   45.3850   33.5370   44.3820 C   0  0  0  0  0  0  0  0  0  0  0  0
   44.7880   33.6080   43.1940 N   0  0  0  0  0  0  0  0  0  0  0  0
   48.5680   34.1550   43.5420 H   0  0  0  0  0  0  0  0  0  0  0  0
   44.7570   33.3170   45.2480 H   0  0  0  0  0  0  0  0  0  0  0  0
   47.8770   34.4370   40.7370 S   0  0  0  0  0  0  0  0  0  0  0  0
   48.8830   33.5120   40.5030 H   0  0  0  0  0  0  0  0  0  0  0  0
   44.6410   32.6410   40.1200 C   0  0  0  0  0  0  0  0  0  0  0  0
   45.4720   32.3050   39.4290 H   0  0  0  0  0  0  0  0  0  0  0  0
   44.7010   31.9010   40.9490 H   0  0  0  0  0  0  0  0  0  0  0  0
   44.0940   31.5790   37.5220 F   0  0  0  0  0  0  0  0  0  0  0  0
   43.0570   32.0200   38.2370 C   0  0  0  0  0  0  0  0  0  0  0  0
   43.3230   32.5340   39.4950 C   0  0  0  0  0  0  0  0  0  0  0  0
   42.1920   32.9820   40.1920 C   0  0  0  0  0  0  0  0  0  0  0  0
   42.3590   33.3880   41.1770 H   0  0  0  0  0  0  0  0  0  0  0  0
   40.9150   32.9220   39.6780 C   0  0  0  0  0  0  0  0  0  0  0  0
   40.0880   33.2910   40.2820 H   0  0  0  0  0  0  0  0  0  0  0  0
   40.7410   32.3950   38.4170 C   0  0  0  0  0  3  0  0  0  0  0  0
   41.8060   31.9310   37.6630 C   0  0  0  0  0  3  0  0  0  0  0  0
  1  3  1  0  0  0  0
  1  4  1  0  0  0  0
  2  1  1  0  0  0  0
  4  5  2  0  0  0  0
  4  9  1  0  0  0  0
  5  6  1  0  0  0  0
  6 10  1  0  0  0  0
  6  7  2  0  0  0  0
  8  7  1  0  0  0  0
  8 11  1  0  0  0  0
  9  8  2  0  0  0  0
 12  5  1  0  0  0  0
 13 12  1  0  0  0  0
 14  1  1  0  0  0  0
 14 16  1  0  0  0  0
 15 14  1  0  0  0  0
 17 18  1  0  0  0  0
 18 19  1  0  0  0  0
 19 14  1  0  0  0  0
 19 20  2  0  0  0  0
 20 21  1  0  0  0  0
 22 20  1  0  0  0  0
 22 23  1  0  0  0  0
 24 22  2  0  0  0  0
 25 18  2  0  0  0  0
 25 24  1  0  0  0  0
M  END
>  <minimizedAffinity>
-3.10611296

>  <minimizedRMSD>
6.033988

$$$$
