
 OpenBabel03242515393D

 36 39  0  0  0  0  0  0  0  0999 V2000
   43.9310   34.7780   40.9920 C   0  0  0  0  0  0  0  0  0  0  0  0
   43.8800   33.9040   39.9360 C   0  0  0  0  0  0  0  0  0  0  0  0
   45.0680   33.3060   39.5310 C   0  0  0  0  0  0  0  0  0  0  0  0
   46.2010   33.6210   40.2020 N   0  0  0  0  0  0  0  0  0  0  0  0
   46.2180   34.4870   41.2390 C   0  0  0  0  0  0  0  0  0  0  0  0
   45.0790   35.0420   41.6050 N   0  0  0  0  0  0  0  0  0  0  0  0
   42.9730   33.6860   39.4400 H   0  0  0  0  0  0  0  0  0  0  0  0
   46.3350   33.7650   36.9630 F   0  0  0  0  0  0  0  0  0  0  0  0
   45.8090   32.5600   37.2280 C   0  0  0  0  0  0  0  0  0  0  0  0
   45.2160   32.3630   38.4450 C   0  0  0  0  0  0  0  0  0  0  0  0
   44.7180   31.0910   38.5980 C   0  0  0  0  0  0  0  0  0  0  0  0
   44.2080   30.7520   39.5080 H   0  0  0  0  0  0  0  0  0  0  0  0
   44.8060   30.1160   37.6260 C   0  0  0  0  0  0  0  0  0  0  0  0
   44.4070   29.1220   37.7700 H   0  0  0  0  0  0  0  0  0  0  0  0
   45.4120   30.3680   36.4240 C   0  0  0  0  0  0  0  0  0  0  0  0
   45.9270   31.6290   36.2250 C   0  0  0  0  0  0  0  0  0  0  0  0
   42.3520   35.5260   41.4710 S   0  0  0  0  0  0  0  0  0  0  0  0
   39.9980   34.9510   40.3020 C   0  0  0  0  0  0  0  0  0  0  0  0
   40.9990   34.4280   41.1250 C   0  0  0  0  0  0  0  0  0  0  0  0
   40.9120   33.1560   41.6110 C   0  0  0  0  0  0  0  0  0  0  0  0
   39.8410   32.3260   41.3200 C   0  0  0  0  0  0  0  0  0  0  0  0
   38.8310   32.8530   40.4900 C   0  0  0  0  0  0  0  0  0  0  0  0
   38.8970   34.1460   39.9820 C   0  0  0  0  0  0  0  0  0  0  0  0
   37.8620   31.8350   40.3400 O   0  0  0  0  0  0  0  0  0  0  0  0
   38.1290   30.8780   41.3230 C   0  0  0  0  0  0  0  0  0  0  0  0
   39.4950   31.0210   41.6660 O   0  0  0  0  0  0  0  0  0  0  0  0
   39.9970   35.9480   39.8790 H   0  0  0  0  0  0  0  0  0  0  0  0
   41.7220   32.8000   42.2480 H   0  0  0  0  0  0  0  0  0  0  0  0
   38.0950   34.5170   39.3440 H   0  0  0  0  0  0  0  0  0  0  0  0
   37.4450   30.8850   42.1860 H   0  0  0  0  0  0  0  0  0  0  0  0
   38.0340   29.8700   40.8400 H   0  0  0  0  0  0  0  0  0  0  0  0
   47.3440   34.8260   41.9370 O   0  0  0  0  0  0  0  0  0  0  0  0
   48.5400   35.0970   41.2510 C   0  0  0  0  0  0  0  0  0  0  0  0
   49.4930   34.1440   41.4820 F   0  0  0  0  0  0  0  0  0  0  0  0
   48.1790   35.2240   39.9160 F   0  0  0  0  0  0  0  0  0  0  0  0
   49.0250   36.3120   41.7430 F   0  0  0  0  0  0  0  0  0  0  0  0
  1 17  1  0  0  0  0
  1  6  1  0  0  0  0
  2  1  2  0  0  0  0
  3  2  1  0  0  0  0
  3  4  2  0  0  0  0
  4  5  1  0  0  0  0
  5  6  2  0  0  0  0
  5 32  1  0  0  0  0
  7  2  1  0  0  0  0
  8  9  1  0  0  0  0
  9 10  1  0  0  0  0
 10 11  2  0  0  0  0
 10  3  1  0  0  0  0
 11 12  1  0  0  0  0
 13 14  1  0  0  0  0
 13 11  1  0  0  0  0
 15 13  2  0  0  0  0
 16 15  1  0  0  0  0
 16  9  2  0  0  0  0
 18 19  1  0  0  0  0
 19 17  1  0  0  0  0
 19 20  2  0  0  0  0
 20 28  1  0  0  0  0
 21 20  1  0  0  0  0
 21 26  1  0  0  0  0
 22 21  2  0  0  0  0
 23 18  2  0  0  0  0
 23 22  1  0  0  0  0
 24 22  1  0  0  0  0
 24 25  1  0  0  0  0
 25 26  1  0  0  0  0
 25 30  1  0  0  0  0
 27 18  1  0  0  0  0
 29 23  1  0  0  0  0
 31 25  1  0  0  0  0
 33 34  1  0  0  0  0
 33 36  1  0  0  0  0
 33 32  1  0  0  0  0
 35 33  1  0  0  0  0
M  END
>  <minimizedAffinity>
-6.15588903

>  <minimizedRMSD>
0.200623751

$$$$
