
 OpenBabel03252502423D

 24 25  0  0  0  0  0  0  0  0999 V2000
   46.3040   34.9780   41.7090 C   0  0  0  0  0  0  0  0  0  0  0  0
   46.0470   33.9830   41.2800 H   0  0  0  0  0  0  0  0  0  0  0  0
   45.9000   35.8230   41.1490 H   0  0  0  0  0  0  0  0  0  0  0  0
   44.4960   36.0140   44.8380 C   0  0  0  0  0  0  0  0  0  0  0  0
   44.9870   36.0260   43.5150 C   0  0  0  0  0  0  0  0  0  0  0  0
   45.7860   34.9740   43.0930 C   0  0  0  0  0  0  0  0  0  0  0  0
   46.0470   33.9880   43.9870 N   0  0  0  0  0  0  0  0  0  0  0  0
   45.5650   33.9960   45.2520 C   0  0  0  0  0  0  0  0  0  0  0  0
   44.7970   34.9950   45.6770 N   0  0  0  0  0  0  0  0  0  0  0  0
   43.8880   36.8900   45.0420 H   0  0  0  0  0  0  0  0  0  0  0  0
   44.7680   36.8190   42.8130 H   0  0  0  0  0  0  0  0  0  0  0  0
   45.7770   33.2040   45.9620 H   0  0  0  0  0  0  0  0  0  0  0  0
   47.8290   35.0090   41.7670 C   0  0  0  0  0  0  0  0  0  0  0  0
   48.1810   36.0290   41.5800 H   0  0  0  0  0  0  0  0  0  0  0  0
   48.1920   34.5890   42.7160 H   0  0  0  0  0  0  0  0  0  0  0  0
   49.3790   32.8210   42.3830 F   0  0  0  0  0  0  0  0  0  0  0  0
   49.0510   33.0380   41.0830 C   0  0  0  0  0  0  0  0  0  0  0  0
   48.2720   34.1150   40.6650 C   0  0  0  0  0  0  0  0  0  0  0  0
   48.0160   34.2150   39.3100 C   0  0  0  0  0  0  0  0  0  0  0  0
   47.4090   35.0670   39.0520 H   0  0  0  0  0  0  0  0  0  0  0  0
   48.5260   33.2700   38.4490 C   0  0  0  0  0  0  0  0  0  0  0  0
   48.2970   33.3920   37.3950 H   0  0  0  0  0  0  0  0  0  0  0  0
   49.2980   32.2040   38.8610 C   0  0  0  0  0  3  0  0  0  0  0  0
   49.5580   32.1010   40.2310 C   0  0  0  0  0  3  0  0  0  0  0  0
  1 13  1  0  0  0  0
  1  6  1  0  0  0  0
  2  1  1  0  0  0  0
  3  1  1  0  0  0  0
  4 10  1  0  0  0  0
  4  9  1  0  0  0  0
  5  4  2  0  0  0  0
  6  5  1  0  0  0  0
  6  7  2  0  0  0  0
  7  8  1  0  0  0  0
  8  9  2  0  0  0  0
  8 12  1  0  0  0  0
 11  5  1  0  0  0  0
 13 15  1  0  0  0  0
 14 13  1  0  0  0  0
 17 16  1  0  0  0  0
 18 17  1  0  0  0  0
 18 13  1  0  0  0  0
 19 18  2  0  0  0  0
 20 19  1  0  0  0  0
 21 23  2  0  0  0  0
 21 19  1  0  0  0  0
 22 21  1  0  0  0  0
 23 24  1  0  0  0  0
 24 17  2  0  0  0  0
M  END
>  <minimizedAffinity>
-4.50609112

>  <minimizedRMSD>
1.69097829

$$$$
