
 OpenBabel03252502423D

 24 25  0  0  0  0  0  0  0  0999 V2000
   45.7050   34.6070   41.5450 C   0  0  0  0  0  0  0  0  0  0  0  0
   45.0930   33.7510   41.1790 H   0  0  0  0  0  0  0  0  0  0  0  0
   45.5110   35.5480   41.0280 H   0  0  0  0  0  0  0  0  0  0  0  0
   44.4690   35.9790   44.8200 C   0  0  0  0  0  0  0  0  0  0  0  0
   44.7480   35.8650   43.4420 C   0  0  0  0  0  0  0  0  0  0  0  0
   45.4090   34.7340   42.9880 C   0  0  0  0  0  0  0  0  0  0  0  0
   45.7500   33.7970   43.9070 N   0  0  0  0  0  0  0  0  0  0  0  0
   45.4720   33.9250   45.2260 C   0  0  0  0  0  0  0  0  0  0  0  0
   44.8390   35.0020   45.6820 N   0  0  0  0  0  0  0  0  0  0  0  0
   43.9520   36.9060   45.0440 H   0  0  0  0  0  0  0  0  0  0  0  0
   44.4680   36.6210   42.7200 H   0  0  0  0  0  0  0  0  0  0  0  0
   45.7470   33.1720   45.9560 H   0  0  0  0  0  0  0  0  0  0  0  0
   47.1550   34.1590   41.3900 C   0  0  0  0  0  0  0  0  0  0  0  0
   47.8240   34.9860   41.6540 H   0  0  0  0  0  0  0  0  0  0  0  0
   47.3460   33.2440   41.9690 H   0  0  0  0  0  0  0  0  0  0  0  0
   48.8470   35.6960   39.8590 F   0  0  0  0  0  0  0  0  0  0  0  0
   48.1830   34.6720   39.2630 C   0  0  0  0  0  0  0  0  0  0  0  0
   47.3040   33.8340   39.9470 C   0  0  0  0  0  0  0  0  0  0  0  0
   46.6960   32.8300   39.2150 C   0  0  0  0  0  0  0  0  0  0  0  0
   46.0310   32.2200   39.8010 H   0  0  0  0  0  0  0  0  0  0  0  0
   46.9760   32.7020   37.8730 C   0  0  0  0  0  0  0  0  0  0  0  0
   46.4730   31.9000   37.3420 H   0  0  0  0  0  0  0  0  0  0  0  0
   47.8460   33.5300   37.1950 C   0  0  0  0  0  3  0  0  0  0  0  0
   48.4610   34.5450   37.9330 C   0  0  0  0  0  3  0  0  0  0  0  0
  1  6  1  0  0  0  0
  2  1  1  0  0  0  0
  3  1  1  0  0  0  0
  4 10  1  0  0  0  0
  4  9  1  0  0  0  0
  5  4  2  0  0  0  0
  6  5  1  0  0  0  0
  6  7  2  0  0  0  0
  7  8  1  0  0  0  0
  8  9  2  0  0  0  0
  8 12  1  0  0  0  0
 11  5  1  0  0  0  0
 13  1  1  0  0  0  0
 13 14  1  0  0  0  0
 13 15  1  0  0  0  0
 17 16  1  0  0  0  0
 17 18  1  0  0  0  0
 18 13  1  0  0  0  0
 19 20  1  0  0  0  0
 19 18  2  0  0  0  0
 21 19  1  0  0  0  0
 22 21  1  0  0  0  0
 23 21  2  0  0  0  0
 23 24  1  0  0  0  0
 24 17  2  0  0  0  0
M  END
>  <minimizedAffinity>
-4.58648062

>  <minimizedRMSD>
1.83080983

$$$$
