
 OpenBabel03242518173D

 23 24  0  0  0  0  0  0  0  0999 V2000
   45.5340   32.8550   47.4070 C   0  0  0  0  0  0  0  0  0  0  0  0
   45.6130   33.6520   48.1970 H   0  0  0  0  0  0  0  0  0  0  0  0
   44.5240   32.3930   47.4850 H   0  0  0  0  0  0  0  0  0  0  0  0
   45.3420   30.0840   46.7200 F   0  0  0  0  0  0  0  0  0  0  0  0
   46.4540   30.4550   47.3980 C   0  0  0  0  0  0  0  0  0  0  0  0
   46.5140   31.8060   47.7150 C   0  0  0  0  0  0  0  0  0  0  0  0
   47.6320   32.2480   48.4110 C   0  0  0  0  0  0  0  0  0  0  0  0
   47.7890   33.2680   48.7100 H   0  0  0  0  0  0  0  0  0  0  0  0
   48.6470   31.3760   48.7760 C   0  0  0  0  0  0  0  0  0  0  0  0
   49.5350   31.6790   49.3180 H   0  0  0  0  0  0  0  0  0  0  0  0
   48.5890   30.0340   48.4610 C   0  0  0  0  0  0  0  0  0  0  0  0
   47.4710   29.6060   47.7690 C   0  0  0  0  0  0  0  0  0  0  0  0
   45.0710   35.1050   44.5610 C   0  0  0  0  0  0  0  0  0  0  0  0
   46.0530   34.6760   43.6290 C   0  0  0  0  0  0  0  0  0  0  0  0
   46.8480   33.6210   44.0100 C   0  0  0  0  0  0  0  0  0  0  0  0
   46.6780   33.0480   45.2090 N   0  0  0  0  0  0  0  0  0  0  0  0
   45.7330   33.4810   46.0750 C   0  0  0  0  0  0  0  0  0  0  0  0
   44.9190   34.5170   45.7570 N   0  0  0  0  0  0  0  0  0  0  0  0
   44.4080   35.9260   44.3400 H   0  0  0  0  0  0  0  0  0  0  0  0
   47.5700   33.3390   43.2720 H   0  0  0  0  0  0  0  0  0  0  0  0
   46.0660   35.4160   42.4190 N   0  0  0  0  0  0  0  0  0  0  0  0
   46.4300   36.4110   42.4170 H   0  0  0  0  0  0  0  0  0  0  0  0
   45.7150   34.9750   41.5410 H   0  0  0  0  0  0  0  0  0  0  0  0
  1  3  1  0  0  0  0
  1  6  1  0  0  0  0
  1  2  1  0  0  0  0
  4  5  1  0  0  0  0
  5  6  2  0  0  0  0
  5 12  1  0  0  0  0
  6  7  1  0  0  0  0
  7  8  1  0  0  0  0
  7  9  2  0  0  0  0
  9 10  1  0  0  0  0
 11  9  1  0  0  0  0
 12 11  2  0  0  0  0
 13 18  1  0  0  0  0
 14 15  1  0  0  0  0
 14 13  2  0  0  0  0
 15 16  2  0  0  0  0
 16 17  1  0  0  0  0
 17  1  1  0  0  0  0
 18 17  2  0  0  0  0
 19 13  1  0  0  0  0
 20 15  1  0  0  0  0
 21 14  1  0  0  0  0
 22 21  1  0  0  0  0
 23 21  1  0  0  0  0
M  END
>  <minimizedAffinity>
-4.39586639

>  <minimizedRMSD>
2.53467512

$$$$
