
 OpenBabel03242523333D

 37 40  0  0  0  0  0  0  0  0999 V2000
   45.5810   33.1380   46.5730 C   0  0  0  0  0  0  0  0  0  0  0  0
   45.9070   33.5990   47.5270 H   0  0  0  0  0  0  0  0  0  0  0  0
   44.5780   32.6640   46.7670 H   0  0  0  0  0  0  0  0  0  0  0  0
   44.4240   36.1630   44.7530 C   0  0  0  0  0  0  0  0  0  0  0  0
   45.1320   36.0360   43.5410 C   0  0  0  0  0  0  0  0  0  0  0  0
   45.9740   34.9310   43.3900 C   0  0  0  0  0  0  0  0  0  0  0  0
   46.1030   34.0140   44.3790 N   0  0  0  0  0  0  0  0  0  0  0  0
   45.3890   34.1810   45.5470 C   0  0  0  0  0  0  0  0  0  0  0  0
   44.5710   35.2380   45.7180 N   0  0  0  0  0  0  0  0  0  0  0  0
   43.7520   36.9980   44.9380 H   0  0  0  0  0  0  0  0  0  0  0  0
   44.9820   36.7900   42.8140 H   0  0  0  0  0  0  0  0  0  0  0  0
   45.0190   33.3910   41.1870 F   0  0  0  0  0  0  0  0  0  0  0  0
   46.2200   34.0120   41.1160 C   0  0  0  0  0  0  0  0  0  0  0  0
   46.7220   34.7660   42.1550 C   0  0  0  0  0  0  0  0  0  0  0  0
   47.9510   35.3160   41.9000 C   0  0  0  0  0  0  0  0  0  0  0  0
   48.4310   35.9240   42.6480 H   0  0  0  0  0  0  0  0  0  0  0  0
   48.6520   35.1520   40.7240 C   0  0  0  0  0  0  0  0  0  0  0  0
   49.6380   35.6200   40.5780 H   0  0  0  0  0  0  0  0  0  0  0  0
   48.1090   34.3890   39.7150 C   0  0  0  0  0  0  0  0  0  0  0  0
   46.8730   33.8090   39.9130 C   0  0  0  0  0  0  0  0  0  0  0  0
   46.7650   31.9460   45.9260 S   0  0  0  0  0  0  0  0  0  0  0  0
   47.7240   31.2150   47.2310 C   0  0  0  0  0  0  0  0  0  0  0  0
   48.0020   32.0030   48.3220 C   0  0  0  0  0  0  0  0  0  0  0  0
   48.7450   31.4580   49.3500 C   0  0  0  0  0  0  0  0  0  0  0  0
   49.2110   30.1450   49.3020 C   0  0  0  0  0  0  0  0  0  0  0  0
   49.9330   29.6420   50.3170 N   0  0  0  0  0  0  0  0  0  0  0  0
   50.3900   28.3800   50.2830 C   0  0  0  0  0  0  0  0  0  0  0  0
   50.1140   27.5860   49.1920 C   0  0  0  0  0  0  0  0  0  0  0  0
   49.3770   28.0980   48.1560 C   0  0  0  0  0  0  0  0  0  0  0  0
   48.8940   29.4170   48.1800 C   0  0  0  0  0  0  0  0  0  0  0  0
   48.1520   29.9200   47.1230 C   0  0  0  0  0  0  0  0  0  0  0  0
   47.7230   33.0270   48.5170 H   0  0  0  0  0  0  0  0  0  0  0  0
   49.0160   32.0090   50.2590 H   0  0  0  0  0  0  0  0  0  0  0  0
   50.9790   27.9490   51.0970 H   0  0  0  0  0  0  0  0  0  0  0  0
   50.4300   26.5720   49.0700 H   0  0  0  0  0  0  0  0  0  0  0  0
   49.1260   27.5220   47.2660 H   0  0  0  0  0  0  0  0  0  0  0  0
   47.9300   29.3170   46.2710 H   0  0  0  0  0  0  0  0  0  0  0  0
  1  3  1  0  0  0  0
  1  2  1  0  0  0  0
  4 10  1  0  0  0  0
  4  9  1  0  0  0  0
  5  4  2  0  0  0  0
  6  5  1  0  0  0  0
  6  7  2  0  0  0  0
  7  8  1  0  0  0  0
  8  9  2  0  0  0  0
  8  1  1  0  0  0  0
 11  5  1  0  0  0  0
 13 12  1  0  0  0  0
 13 14  1  0  0  0  0
 14  6  1  0  0  0  0
 15 14  2  0  0  0  0
 15 16  1  0  0  0  0
 17 15  1  0  0  0  0
 18 17  1  0  0  0  0
 19 20  1  0  0  0  0
 19 17  2  0  0  0  0
 20 13  2  0  0  0  0
 21  1  1  0  0  0  0
 21 22  1  0  0  0  0
 22 23  1  0  0  0  0
 23 32  1  0  0  0  0
 23 24  2  0  0  0  0
 24 33  1  0  0  0  0
 25 24  1  0  0  0  0
 25 26  1  0  0  0  0
 27 26  2  0  0  0  0
 27 34  1  0  0  0  0
 28 27  1  0  0  0  0
 29 30  1  0  0  0  0
 29 28  2  0  0  0  0
 30 25  2  0  0  0  0
 31 22  2  0  0  0  0
 31 30  1  0  0  0  0
 35 28  1  0  0  0  0
 36 29  1  0  0  0  0
 37 31  1  0  0  0  0
M  END
>  <minimizedAffinity>
-6.77521133

>  <minimizedRMSD>
0.822451055

$$$$
