
 OpenBabel03252507223D

 47 50  0  0  1  0  0  0  0  0999 V2000
   46.6400   33.1840   43.1800 C   0  0  0  0  0  0  0  0  0  0  0  0
   47.9050   33.1430   43.3260 O   0  0  0  0  0  0  0  0  0  0  0  0
   45.9560   32.4670   42.1630 N   0  0  0  0  0  0  0  0  0  0  0  0
   44.7220   31.6670   42.2330 C   0  0  0  0  0  0  0  0  0  0  0  0
   43.7630   32.1470   41.1460 C   0  0  0  0  0  0  0  0  0  0  0  0
   44.3380   31.8450   39.7990 C   0  0  0  0  0  0  0  0  0  0  0  0
   45.8230   31.5400   39.9220 C   0  0  0  0  0  0  0  0  0  0  0  0
   46.5140   32.4850   40.8390 C   0  0  2  0  0  0  0  0  0  0  0  0
   45.0070   30.6190   42.1390 H   0  0  0  0  0  0  0  0  0  0  0  0
   44.2340   31.8830   43.2240 H   0  0  0  0  0  0  0  0  0  0  0  0
   42.7610   31.7360   41.3080 H   0  0  0  0  0  0  0  0  0  0  0  0
   43.7620   33.2710   41.2580 H   0  0  0  0  0  0  0  0  0  0  0  0
   43.8300   30.9390   39.3670 H   0  0  0  0  0  0  0  0  0  0  0  0
   44.1830   32.6650   39.0690 H   0  0  0  0  0  0  0  0  0  0  0  0
   46.2330   31.7530   38.8900 H   0  0  0  0  0  0  0  0  0  0  0  0
   46.0230   30.4810   40.1280 H   0  0  0  0  0  0  0  0  0  0  0  0
   46.3590   33.5220   40.4130 H   0  0  0  0  0  0  0  0  0  0  0  0
   45.3610   35.2140   43.6170 C   0  0  0  0  0  0  0  0  0  0  0  0
   45.8750   33.9970   44.0960 C   0  0  0  0  0  0  0  0  0  0  0  0
   45.6510   33.6000   45.4080 C   0  0  0  0  0  0  0  0  0  0  0  0
   44.9190   34.4400   46.1840 N   0  0  0  0  0  0  0  0  0  0  0  0
   44.4160   35.6130   45.7450 C   0  0  0  0  0  0  0  0  0  0  0  0
   44.6450   35.9870   44.4580 N   0  0  0  0  0  0  0  0  0  0  0  0
   45.5330   35.5280   42.5960 H   0  0  0  0  0  0  0  0  0  0  0  0
   43.8360   36.2660   46.3820 H   0  0  0  0  0  0  0  0  0  0  0  0
   46.1960   32.3510   45.8640 C   0  0  0  0  0  0  0  0  0  0  0  0
   45.6800   31.1740   45.4380 C   0  0  0  0  0  0  0  0  0  0  0  0
   46.2260   29.9930   45.8950 C   0  0  0  0  0  0  0  0  0  0  0  0
   47.2960   29.9520   46.7850 C   0  0  0  0  0  0  0  0  0  0  0  0
   47.7840   31.1810   47.1870 C   0  0  0  0  0  0  0  0  0  0  0  0
   47.2370   32.3270   46.7290 N   0  0  0  0  0  0  0  0  0  0  0  0
   44.8600   31.0540   44.7590 H   0  0  0  0  0  0  0  0  0  0  0  0
   45.8470   29.0290   45.5830 H   0  0  0  0  0  0  0  0  0  0  0  0
   47.7300   29.0510   47.1490 H   0  0  0  0  0  0  0  0  0  0  0  0
   48.6020   31.3050   47.8680 H   0  0  0  0  0  0  0  0  0  0  0  0
   47.9980   32.2660   40.7920 C   0  0  0  0  0  0  0  0  0  0  0  0
   48.3080   31.2320   40.9390 H   0  0  0  0  0  0  0  0  0  0  0  0
   48.5770   32.9830   41.4500 H   0  0  0  0  0  0  0  0  0  0  0  0
   49.5090   30.6980   38.9750 F   0  0  0  0  0  0  0  0  0  0  0  0
   49.1400   31.9540   38.5560 C   0  0  0  0  0  0  0  0  0  0  0  0
   48.4050   32.7420   39.4140 C   0  0  0  0  0  0  0  0  0  0  0  0
   48.0490   33.9780   38.9850 C   0  0  0  0  0  0  0  0  0  0  0  0
   47.4730   34.5810   39.6730 H   0  0  0  0  0  0  0  0  0  0  0  0
   48.3610   34.5290   37.7450 C   0  0  0  0  0  0  0  0  0  0  0  0
   48.0740   35.5150   37.4110 H   0  0  0  0  0  0  0  0  0  0  0  0
   49.1040   33.6590   36.9490 C   0  0  0  0  0  3  0  0  0  0  0  0
   49.5090   32.3900   37.3010 C   0  0  0  0  0  3  0  0  0  0  0  0
  1  2  2  0  0  0  0
  1 19  1  0  0  0  0
  3  4  1  0  0  0  0
  3  1  1  0  0  0  0
  4 10  1  0  0  0  0
  5 12  1  0  0  0  0
  5 11  1  0  0  0  0
  5  4  1  0  0  0  0
  6  7  1  0  0  0  0
  6  5  1  0  0  0  0
  7 16  1  0  0  0  0
  7  8  1  0  0  0  0
  8 17  1  6  0  0  0
  8  3  1  0  0  0  0
  9  4  1  0  0  0  0
 13  6  1  0  0  0  0
 14  6  1  0  0  0  0
 15  7  1  0  0  0  0
 18 19  2  0  0  0  0
 18 23  1  0  0  0  0
 19 20  1  0  0  0  0
 20 26  1  0  0  0  0
 20 21  2  0  0  0  0
 22 21  1  0  0  0  0
 22 25  1  0  0  0  0
 23 22  2  0  0  0  0
 24 18  1  0  0  0  0
 26 31  1  0  0  0  0
 27 26  2  0  0  0  0
 27 28  1  0  0  0  0
 28 29  2  0  0  0  0
 29 34  1  0  0  0  0
 29 30  1  0  0  0  0
 30 35  1  0  0  0  0
 31 30  2  0  0  0  0
 32 27  1  0  0  0  0
 33 28  1  0  0  0  0
 36  8  1  0  0  0  0
 36 37  1  0  0  0  0
 36 38  1  0  0  0  0
 40 39  1  0  0  0  0
 40 41  1  0  0  0  0
 41 36  1  0  0  0  0
 42 41  2  0  0  0  0
 42 43  1  0  0  0  0
 44 42  1  0  0  0  0
 45 44  1  0  0  0  0
 46 47  1  0  0  0  0
 46 44  2  0  0  0  0
 47 40  2  0  0  0  0
M  END
>  <minimizedAffinity>
-5.17525673

>  <minimizedRMSD>
1.68294501

$$$$
