
 OpenBabel03252502423D

 24 25  0  0  0  0  0  0  0  0999 V2000
   39.2250   29.3050   42.6860 C   0  0  0  0  0  0  0  0  0  0  0  0
   39.6980   28.6010   41.9640 H   0  0  0  0  0  0  0  0  0  0  0  0
   39.9300   29.8010   43.3540 H   0  0  0  0  0  0  0  0  0  0  0  0
   36.4610   31.0360   40.8140 C   0  0  0  0  0  0  0  0  0  0  0  0
   37.1520   30.0830   41.5920 C   0  0  0  0  0  0  0  0  0  0  0  0
   38.4930   30.2980   41.8700 C   0  0  0  0  0  0  0  0  0  0  0  0
   39.0640   31.4230   41.3720 N   0  0  0  0  0  0  0  0  0  0  0  0
   38.3820   32.3250   40.6270 C   0  0  0  0  0  0  0  0  0  0  0  0
   37.0950   32.1380   40.3490 N   0  0  0  0  0  0  0  0  0  0  0  0
   35.4240   30.7500   40.6690 H   0  0  0  0  0  0  0  0  0  0  0  0
   36.6830   29.1900   41.9840 H   0  0  0  0  0  0  0  0  0  0  0  0
   38.8440   33.2230   40.2320 H   0  0  0  0  0  0  0  0  0  0  0  0
   38.2040   28.4690   43.4520 C   0  0  0  0  0  0  0  0  0  0  0  0
   38.2620   28.7100   44.5200 H   0  0  0  0  0  0  0  0  0  0  0  0
   37.1970   28.5980   43.0310 H   0  0  0  0  0  0  0  0  0  0  0  0
   36.5720   26.8220   41.9720 F   0  0  0  0  0  0  0  0  0  0  0  0
   37.7260   26.3110   42.4720 C   0  0  0  0  0  0  0  0  0  0  0  0
   38.6220   27.0590   43.2330 C   0  0  0  0  0  0  0  0  0  0  0  0
   39.7600   26.4110   43.6800 C   0  0  0  0  0  0  0  0  0  0  0  0
   40.4090   27.0440   44.2600 H   0  0  0  0  0  0  0  0  0  0  0  0
   39.9570   25.0860   43.3610 C   0  0  0  0  0  0  0  0  0  0  0  0
   40.8660   24.6240   43.7340 H   0  0  0  0  0  0  0  0  0  0  0  0
   39.0720   24.3450   42.6070 C   0  0  0  0  0  3  0  0  0  0  0  0
   37.9220   24.9990   42.1560 C   0  0  0  0  0  3  0  0  0  0  0  0
  1  3  1  0  0  0  0
  1 13  1  0  0  0  0
  2  1  1  0  0  0  0
  4  5  1  0  0  0  0
  5  6  2  0  0  0  0
  5 11  1  0  0  0  0
  6  1  1  0  0  0  0
  7  6  1  0  0  0  0
  8  7  2  0  0  0  0
  9  8  1  0  0  0  0
  9  4  2  0  0  0  0
 10  4  1  0  0  0  0
 12  8  1  0  0  0  0
 13 14  1  0  0  0  0
 15 13  1  0  0  0  0
 16 17  1  0  0  0  0
 17 18  1  0  0  0  0
 18 13  1  0  0  0  0
 18 19  2  0  0  0  0
 19 20  1  0  0  0  0
 21 19  1  0  0  0  0
 21 22  1  0  0  0  0
 23 21  2  0  0  0  0
 24 17  2  0  0  0  0
 24 23  1  0  0  0  0
M  END
>  <minimizedAffinity>
-4.77274132

$$$$

 OpenBabel03252502423D

 24 25  0  0  0  0  0  0  0  0999 V2000
   36.3370   28.2820   41.6970 C   0  0  0  0  0  0  0  0  0  0  0  0
   35.2580   28.5120   41.8490 H   0  0  0  0  0  0  0  0  0  0  0  0
   36.5310   27.5530   40.9080 H   0  0  0  0  0  0  0  0  0  0  0  0
   36.8880   31.7960   40.4790 C   0  0  0  0  0  0  0  0  0  0  0  0
   36.2550   30.5690   40.7690 C   0  0  0  0  0  0  0  0  0  0  0  0
   36.9930   29.5700   41.3880 C   0  0  0  0  0  0  0  0  0  0  0  0
   38.2900   29.8380   41.6790 N   0  0  0  0  0  0  0  0  0  0  0  0
   38.8780   31.0240   41.3920 C   0  0  0  0  0  0  0  0  0  0  0  0
   38.1890   31.9950   40.7990 N   0  0  0  0  0  0  0  0  0  0  0  0
   36.2060   32.4880   39.9960 H   0  0  0  0  0  0  0  0  0  0  0  0
   35.2180   30.3700   40.5320 H   0  0  0  0  0  0  0  0  0  0  0  0
   39.9150   31.2320   41.6280 H   0  0  0  0  0  0  0  0  0  0  0  0
   36.8400   27.8000   43.0550 C   0  0  0  0  0  0  0  0  0  0  0  0
   37.5520   28.5280   43.4600 H   0  0  0  0  0  0  0  0  0  0  0  0
   35.9990   27.5910   43.7310 H   0  0  0  0  0  0  0  0  0  0  0  0
   39.5120   27.5870   43.6740 F   0  0  0  0  0  0  0  0  0  0  0  0
   38.8870   26.5160   43.1230 C   0  0  0  0  0  0  0  0  0  0  0  0
   37.5390   26.5180   42.7720 C   0  0  0  0  0  0  0  0  0  0  0  0
   37.0310   25.3580   42.2170 C   0  0  0  0  0  0  0  0  0  0  0  0
   35.9850   25.4260   41.9700 H   0  0  0  0  0  0  0  0  0  0  0  0
   37.8580   24.2710   42.0390 C   0  0  0  0  0  0  0  0  0  0  0  0
   37.4120   23.3840   41.6010 H   0  0  0  0  0  0  0  0  0  0  0  0
   39.1930   24.2660   42.3860 C   0  0  0  0  0  3  0  0  0  0  0  0
   39.7070   25.4390   42.9460 C   0  0  0  0  0  3  0  0  0  0  0  0
  1  2  1  0  0  0  0
  1 13  1  0  0  0  0
  3  1  1  0  0  0  0
  4  5  2  0  0  0  0
  4  9  1  0  0  0  0
  5  6  1  0  0  0  0
  6  7  2  0  0  0  0
  6  1  1  0  0  0  0
  8 12  1  0  0  0  0
  8  7  1  0  0  0  0
  9  8  2  0  0  0  0
 10  4  1  0  0  0  0
 11  5  1  0  0  0  0
 13 14  1  0  0  0  0
 13 15  1  0  0  0  0
 17 16  1  0  0  0  0
 18 13  1  0  0  0  0
 18 17  2  0  0  0  0
 19 18  1  0  0  0  0
 20 19  1  0  0  0  0
 21 19  2  0  0  0  0
 21 23  1  0  0  0  0
 22 21  1  0  0  0  0
 23 24  2  0  0  0  0
 24 17  1  0  0  0  0
M  END
>  <minimizedAffinity>
-4.76298237

$$$$

 OpenBabel03252502423D

 24 25  0  0  0  0  0  0  0  0999 V2000
   36.2650   27.6830   39.9710 C   0  0  0  0  0  0  0  0  0  0  0  0
   37.0180   27.8960   39.1780 H   0  0  0  0  0  0  0  0  0  0  0  0
   35.7140   26.7520   39.8260 H   0  0  0  0  0  0  0  0  0  0  0  0
   39.0820   27.3950   42.4440 C   0  0  0  0  0  0  0  0  0  0  0  0
   38.3780   27.4210   41.2220 C   0  0  0  0  0  0  0  0  0  0  0  0
   37.0110   27.6530   41.2470 C   0  0  0  0  0  0  0  0  0  0  0  0
   36.4300   27.8420   42.4580 N   0  0  0  0  0  0  0  0  0  0  0  0
   37.1250   27.8130   43.6200 C   0  0  0  0  0  0  0  0  0  0  0  0
   38.4360   27.5930   43.6180 N   0  0  0  0  0  0  0  0  0  0  0  0
   40.1390   27.2050   42.2870 H   0  0  0  0  0  0  0  0  0  0  0  0
   38.8560   27.2700   40.2630 H   0  0  0  0  0  0  0  0  0  0  0  0
   36.6550   27.9660   44.5850 H   0  0  0  0  0  0  0  0  0  0  0  0
   35.3410   28.8970   39.9840 C   0  0  0  0  0  0  0  0  0  0  0  0
   34.4640   28.6960   39.3580 H   0  0  0  0  0  0  0  0  0  0  0  0
   35.0840   29.1820   41.0140 H   0  0  0  0  0  0  0  0  0  0  0  0
   35.9890   31.0640   41.5490 F   0  0  0  0  0  0  0  0  0  0  0  0
   36.4170   31.0450   40.2610 C   0  0  0  0  0  0  0  0  0  0  0  0
   36.1440   29.9960   39.3850 C   0  0  0  0  0  0  0  0  0  0  0  0
   36.6410   30.1060   38.0990 C   0  0  0  0  0  0  0  0  0  0  0  0
   36.3960   29.2640   37.4740 H   0  0  0  0  0  0  0  0  0  0  0  0
   37.3680   31.2200   37.7450 C   0  0  0  0  0  0  0  0  0  0  0  0
   37.7370   31.2590   36.7240 H   0  0  0  0  0  0  0  0  0  0  0  0
   37.6400   32.2590   38.6110 C   0  0  0  0  0  3  0  0  0  0  0  0
   37.1380   32.1480   39.9110 C   0  0  0  0  0  3  0  0  0  0  0  0
  1 13  1  0  0  0  0
  1  6  1  0  0  0  0
  2  1  1  0  0  0  0
  3  1  1  0  0  0  0
  4  9  1  0  0  0  0
  5  6  1  0  0  0  0
  5  4  2  0  0  0  0
  6  7  2  0  0  0  0
  7  8  1  0  0  0  0
  8 12  1  0  0  0  0
  9  8  2  0  0  0  0
 10  4  1  0  0  0  0
 11  5  1  0  0  0  0
 13 15  1  0  0  0  0
 14 13  1  0  0  0  0
 17 16  1  0  0  0  0
 18 13  1  0  0  0  0
 18 17  2  0  0  0  0
 19 18  1  0  0  0  0
 20 19  1  0  0  0  0
 21 19  2  0  0  0  0
 21 23  1  0  0  0  0
 22 21  1  0  0  0  0
 23 24  2  0  0  0  0
 24 17  1  0  0  0  0
M  END
>  <minimizedAffinity>
-4.56009817

$$$$

 OpenBabel03252502423D

 24 25  0  0  0  0  0  0  0  0999 V2000
   36.6820   27.2680   43.1180 C   0  0  0  0  0  0  0  0  0  0  0  0
   35.9270   27.4330   42.3160 H   0  0  0  0  0  0  0  0  0  0  0  0
   36.2530   27.0630   44.1000 H   0  0  0  0  0  0  0  0  0  0  0  0
   37.7130   23.9660   41.6460 C   0  0  0  0  0  0  0  0  0  0  0  0
   36.9070   25.0420   42.0730 C   0  0  0  0  0  0  0  0  0  0  0  0
   37.5190   26.1360   42.6680 C   0  0  0  0  0  0  0  0  0  0  0  0
   38.8680   26.1030   42.8020 N   0  0  0  0  0  0  0  0  0  0  0  0
   39.6230   25.0590   42.3840 C   0  0  0  0  0  0  0  0  0  0  0  0
   39.0570   24.0010   41.8120 N   0  0  0  0  0  0  0  0  0  0  0  0
   37.1160   23.1770   41.2010 H   0  0  0  0  0  0  0  0  0  0  0  0
   35.8310   25.0550   41.9580 H   0  0  0  0  0  0  0  0  0  0  0  0
   40.7020   25.0390   42.4940 H   0  0  0  0  0  0  0  0  0  0  0  0
   37.5420   28.5280   43.1240 C   0  0  0  0  0  0  0  0  0  0  0  0
   37.3430   29.1030   44.0360 H   0  0  0  0  0  0  0  0  0  0  0  0
   38.6040   28.2770   42.9910 H   0  0  0  0  0  0  0  0  0  0  0  0
   39.0080   30.7240   42.3510 F   0  0  0  0  0  0  0  0  0  0  0  0
   37.9070   30.3940   41.6300 C   0  0  0  0  0  0  0  0  0  0  0  0
   37.0960   29.3030   41.9360 C   0  0  0  0  0  0  0  0  0  0  0  0
   36.0030   29.0820   41.1170 C   0  0  0  0  0  0  0  0  0  0  0  0
   35.4200   28.2250   41.4070 H   0  0  0  0  0  0  0  0  0  0  0  0
   35.7660   29.9290   40.0570 C   0  0  0  0  0  0  0  0  0  0  0  0
   34.8970   29.7130   39.4430 H   0  0  0  0  0  0  0  0  0  0  0  0
   36.5680   31.0090   39.7520 C   0  0  0  0  0  3  0  0  0  0  0  0
   37.6720   31.2320   40.5800 C   0  0  0  0  0  3  0  0  0  0  0  0
  1 13  1  0  0  0  0
  1  3  1  0  0  0  0
  2  1  1  0  0  0  0
  4  9  2  0  0  0  0
  4  5  1  0  0  0  0
  5  6  2  0  0  0  0
  6  7  1  0  0  0  0
  6  1  1  0  0  0  0
  8 12  1  0  0  0  0
  8  7  2  0  0  0  0
  9  8  1  0  0  0  0
 10  4  1  0  0  0  0
 11  5  1  0  0  0  0
 13 14  1  0  0  0  0
 15 13  1  0  0  0  0
 17 18  1  0  0  0  0
 17 16  1  0  0  0  0
 18 13  1  0  0  0  0
 19 20  1  0  0  0  0
 19 18  2  0  0  0  0
 21 19  1  0  0  0  0
 22 21  1  0  0  0  0
 23 21  2  0  0  0  0
 23 24  1  0  0  0  0
 24 17  2  0  0  0  0
M  END
>  <minimizedAffinity>
-4.46262932

$$$$

 OpenBabel03252502423D

 24 25  0  0  0  0  0  0  0  0999 V2000
   37.2820   30.6050   39.9150 C   0  0  0  0  0  0  0  0  0  0  0  0
   36.4440   30.8490   39.2220 H   0  0  0  0  0  0  0  0  0  0  0  0
   37.7960   29.6720   39.6830 H   0  0  0  0  0  0  0  0  0  0  0  0
   40.1940   32.7690   38.9290 C   0  0  0  0  0  0  0  0  0  0  0  0
   39.3070   31.6740   38.9900 C   0  0  0  0  0  0  0  0  0  0  0  0
   38.2170   31.7480   39.8450 C   0  0  0  0  0  0  0  0  0  0  0  0
   38.0710   32.8800   40.5760 N   0  0  0  0  0  0  0  0  0  0  0  0
   38.9350   33.9200   40.5020 C   0  0  0  0  0  0  0  0  0  0  0  0
   39.9860   33.8700   39.6890 N   0  0  0  0  0  0  0  0  0  0  0  0
   41.0010   32.5840   38.2270 H   0  0  0  0  0  0  0  0  0  0  0  0
   39.4360   30.7760   38.3990 H   0  0  0  0  0  0  0  0  0  0  0  0
   38.8120   34.8240   41.0890 H   0  0  0  0  0  0  0  0  0  0  0  0
   36.6560   30.5820   41.3070 C   0  0  0  0  0  0  0  0  0  0  0  0
   37.0630   31.4050   41.9050 H   0  0  0  0  0  0  0  0  0  0  0  0
   35.5590   30.5920   41.2420 H   0  0  0  0  0  0  0  0  0  0  0  0
   38.9390   30.4970   42.8400 F   0  0  0  0  0  0  0  0  0  0  0  0
   38.2430   29.3480   42.6510 C   0  0  0  0  0  0  0  0  0  0  0  0
   37.0750   29.2810   41.8930 C   0  0  0  0  0  0  0  0  0  0  0  0
   36.4680   28.0430   41.7820 C   0  0  0  0  0  0  0  0  0  0  0  0
   35.5720   28.0610   41.1850 H   0  0  0  0  0  0  0  0  0  0  0  0
   37.0270   26.9530   42.4110 C   0  0  0  0  0  0  0  0  0  0  0  0
   36.5120   26.0040   42.2940 H   0  0  0  0  0  0  0  0  0  0  0  0
   38.1810   27.0170   43.1620 C   0  0  0  0  0  3  0  0  0  0  0  0
   38.7960   28.2680   43.2740 C   0  0  0  0  0  3  0  0  0  0  0  0
  1 13  1  0  0  0  0
  2  1  1  0  0  0  0
  3  1  1  0  0  0  0
  4  5  2  0  0  0  0
  4  9  1  0  0  0  0
  5  6  1  0  0  0  0
  6  1  1  0  0  0  0
  6  7  2  0  0  0  0
  8  7  1  0  0  0  0
  8 12  1  0  0  0  0
  9  8  2  0  0  0  0
 10  4  1  0  0  0  0
 11  5  1  0  0  0  0
 13 18  1  0  0  0  0
 13 14  1  0  0  0  0
 15 13  1  0  0  0  0
 17 16  1  0  0  0  0
 17 24  1  0  0  0  0
 18 17  2  0  0  0  0
 19 18  1  0  0  0  0
 19 21  2  0  0  0  0
 20 19  1  0  0  0  0
 21 23  1  0  0  0  0
 22 21  1  0  0  0  0
 23 24  2  0  0  0  0
M  END
>  <minimizedAffinity>
-4.4246726

$$$$

 OpenBabel03252502423D

 24 25  0  0  0  0  0  0  0  0999 V2000
   37.2710   30.3500   39.4630 C   0  0  0  0  0  0  0  0  0  0  0  0
   36.7060   30.5360   38.5210 H   0  0  0  0  0  0  0  0  0  0  0  0
   37.9710   29.5150   39.4060 H   0  0  0  0  0  0  0  0  0  0  0  0
   37.9890   34.0060   39.9640 C   0  0  0  0  0  0  0  0  0  0  0  0
   37.3010   32.8100   39.6700 C   0  0  0  0  0  0  0  0  0  0  0  0
   37.9850   31.6080   39.7690 C   0  0  0  0  0  0  0  0  0  0  0  0
   39.2870   31.6570   40.1460 N   0  0  0  0  0  0  0  0  0  0  0  0
   39.9280   32.8160   40.4250 C   0  0  0  0  0  0  0  0  0  0  0  0
   39.2910   33.9800   40.3360 N   0  0  0  0  0  0  0  0  0  0  0  0
   37.3450   34.8720   39.8480 H   0  0  0  0  0  0  0  0  0  0  0  0
   36.2610   32.7870   39.3710 H   0  0  0  0  0  0  0  0  0  0  0  0
   40.9690   32.8480   40.7270 H   0  0  0  0  0  0  0  0  0  0  0  0
   36.2060   30.1300   40.5330 C   0  0  0  0  0  0  0  0  0  0  0  0
   36.0010   31.0770   41.0460 H   0  0  0  0  0  0  0  0  0  0  0  0
   35.3080   29.6660   40.1010 H   0  0  0  0  0  0  0  0  0  0  0  0
   35.9100   27.4370   40.0560 F   0  0  0  0  0  0  0  0  0  0  0  0
   36.6060   27.8280   41.1540 C   0  0  0  0  0  0  0  0  0  0  0  0
   36.8140   29.1650   41.4870 C   0  0  0  0  0  0  0  0  0  0  0  0
   37.5410   29.4210   42.6350 C   0  0  0  0  0  0  0  0  0  0  0  0
   37.6660   30.4710   42.8350 H   0  0  0  0  0  0  0  0  0  0  0  0
   38.0200   28.3700   43.3850 C   0  0  0  0  0  0  0  0  0  0  0  0
   38.5860   28.6220   44.2760 H   0  0  0  0  0  0  0  0  0  0  0  0
   37.8160   27.0460   43.0560 C   0  0  0  0  0  3  0  0  0  0  0  0
   37.0810   26.7860   41.8960 C   0  0  0  0  0  3  0  0  0  0  0  0
  1  6  1  0  0  0  0
  1 13  1  0  0  0  0
  2  1  1  0  0  0  0
  3  1  1  0  0  0  0
  4  9  1  0  0  0  0
  5  6  1  0  0  0  0
  5  4  2  0  0  0  0
  6  7  2  0  0  0  0
  7  8  1  0  0  0  0
  8 12  1  0  0  0  0
  9  8  2  0  0  0  0
 10  4  1  0  0  0  0
 11  5  1  0  0  0  0
 13 14  1  0  0  0  0
 13 18  1  0  0  0  0
 15 13  1  0  0  0  0
 16 17  1  0  0  0  0
 17 18  2  0  0  0  0
 17 24  1  0  0  0  0
 18 19  1  0  0  0  0
 19 20  1  0  0  0  0
 19 21  2  0  0  0  0
 21 22  1  0  0  0  0
 23 21  1  0  0  0  0
 24 23  2  0  0  0  0
M  END
>  <minimizedAffinity>
-4.42277384

$$$$

 OpenBabel03252502423D

 24 25  0  0  0  0  0  0  0  0999 V2000
   36.9770   27.6250   40.4590 C   0  0  0  0  0  0  0  0  0  0  0  0
   36.0980   27.1570   39.9610 H   0  0  0  0  0  0  0  0  0  0  0  0
   37.9370   27.1980   40.1650 H   0  0  0  0  0  0  0  0  0  0  0  0
   36.7420   31.3590   40.8210 C   0  0  0  0  0  0  0  0  0  0  0  0
   36.7930   29.9880   41.1490 C   0  0  0  0  0  0  0  0  0  0  0  0
   36.9210   29.0630   40.1240 C   0  0  0  0  0  0  0  0  0  0  0  0
   36.9900   29.5390   38.8560 N   0  0  0  0  0  0  0  0  0  0  0  0
   36.9400   30.8600   38.5630 C   0  0  0  0  0  0  0  0  0  0  0  0
   36.8170   31.7640   39.5300 N   0  0  0  0  0  0  0  0  0  0  0  0
   36.6390   31.9750   41.7090 H   0  0  0  0  0  0  0  0  0  0  0  0
   36.7380   29.6230   42.1670 H   0  0  0  0  0  0  0  0  0  0  0  0
   36.9960   31.2340   37.5460 H   0  0  0  0  0  0  0  0  0  0  0  0
   36.7190   27.4700   41.9560 C   0  0  0  0  0  0  0  0  0  0  0  0
   36.7490   28.4550   42.4360 H   0  0  0  0  0  0  0  0  0  0  0  0
   35.7800   26.9260   42.1360 H   0  0  0  0  0  0  0  0  0  0  0  0
   36.6330   24.7530   41.5340 F   0  0  0  0  0  0  0  0  0  0  0  0
   37.7010   25.2730   42.1890 C   0  0  0  0  0  0  0  0  0  0  0  0
   37.8430   26.6340   42.4540 C   0  0  0  0  0  0  0  0  0  0  0  0
   38.9820   27.0270   43.1320 C   0  0  0  0  0  0  0  0  0  0  0  0
   39.0300   28.0890   43.3040 H   0  0  0  0  0  0  0  0  0  0  0  0
   39.9090   26.0810   43.5090 C   0  0  0  0  0  0  0  0  0  0  0  0
   40.7870   26.4400   44.0370 H   0  0  0  0  0  0  0  0  0  0  0  0
   39.7720   24.7340   43.2470 C   0  0  0  0  0  3  0  0  0  0  0  0
   38.6200   24.3360   42.5620 C   0  0  0  0  0  3  0  0  0  0  0  0
  1 13  1  0  0  0  0
  2  1  1  0  0  0  0
  3  1  1  0  0  0  0
  4  5  1  0  0  0  0
  4 10  1  0  0  0  0
  5 11  1  0  0  0  0
  6  1  1  0  0  0  0
  6  5  2  0  0  0  0
  7  6  1  0  0  0  0
  8  7  2  0  0  0  0
  8  9  1  0  0  0  0
  9  4  2  0  0  0  0
 12  8  1  0  0  0  0
 13 15  1  0  0  0  0
 13 14  1  0  0  0  0
 13 18  1  0  0  0  0
 16 17  1  0  0  0  0
 17 18  2  0  0  0  0
 17 24  1  0  0  0  0
 18 19  1  0  0  0  0
 19 20  1  0  0  0  0
 19 21  2  0  0  0  0
 21 22  1  0  0  0  0
 23 21  1  0  0  0  0
 24 23  2  0  0  0  0
M  END
>  <minimizedAffinity>
-4.3903861

$$$$

 OpenBabel03252502423D

 24 25  0  0  0  0  0  0  0  0999 V2000
   36.2160   30.7840   41.0550 C   0  0  0  0  0  0  0  0  0  0  0  0
   36.7560   30.5910   42.0100 H   0  0  0  0  0  0  0  0  0  0  0  0
   35.4420   31.5490   41.1260 H   0  0  0  0  0  0  0  0  0  0  0  0
   37.9380   31.5000   37.7910 C   0  0  0  0  0  0  0  0  0  0  0  0
   36.9470   31.1210   38.7210 C   0  0  0  0  0  0  0  0  0  0  0  0
   37.2490   31.1780   40.0730 C   0  0  0  0  0  0  0  0  0  0  0  0
   38.4900   31.5980   40.4220 N   0  0  0  0  0  0  0  0  0  0  0  0
   39.4270   31.9580   39.5120 C   0  0  0  0  0  0  0  0  0  0  0  0
   39.1580   31.9110   38.2100 N   0  0  0  0  0  0  0  0  0  0  0  0
   37.5780   31.4090   36.7710 H   0  0  0  0  0  0  0  0  0  0  0  0
   35.9600   30.7890   38.4280 H   0  0  0  0  0  0  0  0  0  0  0  0
   40.4170   32.2940   39.7970 H   0  0  0  0  0  0  0  0  0  0  0  0
   35.6460   29.4320   40.6360 C   0  0  0  0  0  0  0  0  0  0  0  0
   34.5890   29.3770   40.9190 H   0  0  0  0  0  0  0  0  0  0  0  0
   35.8190   29.2490   39.5650 H   0  0  0  0  0  0  0  0  0  0  0  0
   36.1880   26.9970   39.4760 F   0  0  0  0  0  0  0  0  0  0  0  0
   36.6450   27.2320   40.7320 C   0  0  0  0  0  0  0  0  0  0  0  0
   36.4260   28.4300   41.4100 C   0  0  0  0  0  0  0  0  0  0  0  0
   36.9480   28.5350   42.6860 C   0  0  0  0  0  0  0  0  0  0  0  0
   36.7440   29.4830   43.1530 H   0  0  0  0  0  0  0  0  0  0  0  0
   37.6460   27.4770   43.2240 C   0  0  0  0  0  0  0  0  0  0  0  0
   38.0360   27.6080   44.2280 H   0  0  0  0  0  0  0  0  0  0  0  0
   37.8650   26.2910   42.5550 C   0  0  0  0  0  3  0  0  0  0  0  0
   37.3370   26.1840   41.2650 C   0  0  0  0  0  3  0  0  0  0  0  0
  1  3  1  0  0  0  0
  1  2  1  0  0  0  0
  4  9  2  0  0  0  0
  4  5  1  0  0  0  0
  5  6  2  0  0  0  0
  6  7  1  0  0  0  0
  6  1  1  0  0  0  0
  8 12  1  0  0  0  0
  8  7  2  0  0  0  0
  9  8  1  0  0  0  0
 10  4  1  0  0  0  0
 11  5  1  0  0  0  0
 13 14  1  0  0  0  0
 13  1  1  0  0  0  0
 13 18  1  0  0  0  0
 15 13  1  0  0  0  0
 16 17  1  0  0  0  0
 17 24  2  0  0  0  0
 17 18  1  0  0  0  0
 18 19  2  0  0  0  0
 19 20  1  0  0  0  0
 19 21  1  0  0  0  0
 21 22  1  0  0  0  0
 23 21  2  0  0  0  0
 24 23  1  0  0  0  0
M  END
>  <minimizedAffinity>
-4.32972527

$$$$

 OpenBabel03252502423D

 24 25  0  0  0  0  0  0  0  0999 V2000
   37.2360   27.3750   41.6660 C   0  0  0  0  0  0  0  0  0  0  0  0
   37.7670   27.8620   40.8170 H   0  0  0  0  0  0  0  0  0  0  0  0
   36.2910   26.9050   41.3910 H   0  0  0  0  0  0  0  0  0  0  0  0
   38.9990   24.1170   42.3050 C   0  0  0  0  0  0  0  0  0  0  0  0
   38.0990   25.0650   41.7730 C   0  0  0  0  0  0  0  0  0  0  0  0
   38.1740   26.3760   42.2190 C   0  0  0  0  0  0  0  0  0  0  0  0
   39.1180   26.6690   43.1470 N   0  0  0  0  0  0  0  0  0  0  0  0
   39.9720   25.7440   43.6440 C   0  0  0  0  0  0  0  0  0  0  0  0
   39.9180   24.4810   43.2310 N   0  0  0  0  0  0  0  0  0  0  0  0
   38.8360   23.1330   41.8770 H   0  0  0  0  0  0  0  0  0  0  0  0
   37.3520   24.8160   41.0310 H   0  0  0  0  0  0  0  0  0  0  0  0
   40.7260   25.9850   44.3860 H   0  0  0  0  0  0  0  0  0  0  0  0
   37.0430   28.4780   42.7030 C   0  0  0  0  0  0  0  0  0  0  0  0
   35.9740   28.6070   42.9060 H   0  0  0  0  0  0  0  0  0  0  0  0
   37.6360   28.2730   43.6060 H   0  0  0  0  0  0  0  0  0  0  0  0
   35.4140   29.9120   41.0130 F   0  0  0  0  0  0  0  0  0  0  0  0
   36.6790   30.3570   41.2260 C   0  0  0  0  0  0  0  0  0  0  0  0
   37.5830   29.7060   42.0620 C   0  0  0  0  0  0  0  0  0  0  0  0
   38.8410   30.2680   42.1870 C   0  0  0  0  0  0  0  0  0  0  0  0
   39.4900   29.7180   42.8470 H   0  0  0  0  0  0  0  0  0  0  0  0
   39.1410   31.4220   41.4980 C   0  0  0  0  0  0  0  0  0  0  0  0
   40.1400   31.8250   41.6300 H   0  0  0  0  0  0  0  0  0  0  0  0
   38.2470   32.0680   40.6700 C   0  0  0  0  0  3  0  0  0  0  0  0
   36.9760   31.5000   40.5430 C   0  0  0  0  0  3  0  0  0  0  0  0
  1  6  1  0  0  0  0
  1 13  1  0  0  0  0
  2  1  1  0  0  0  0
  3  1  1  0  0  0  0
  4  9  1  0  0  0  0
  5  6  1  0  0  0  0
  5  4  2  0  0  0  0
  6  7  2  0  0  0  0
  7  8  1  0  0  0  0
  8 12  1  0  0  0  0
  9  8  2  0  0  0  0
 10  4  1  0  0  0  0
 11  5  1  0  0  0  0
 13 14  1  0  0  0  0
 13 15  1  0  0  0  0
 16 17  1  0  0  0  0
 17 18  1  0  0  0  0
 18 19  2  0  0  0  0
 18 13  1  0  0  0  0
 19 20  1  0  0  0  0
 21 22  1  0  0  0  0
 21 19  1  0  0  0  0
 23 21  2  0  0  0  0
 24 23  1  0  0  0  0
 24 17  2  0  0  0  0
M  END
>  <minimizedAffinity>
-4.28312159

$$$$
