
 OpenBabel03252508363D

 31 33  0  0  0  0  0  0  0  0999 V2000
   44.9830   32.9730   39.5180 C   0  0  0  0  0  0  0  0  0  0  0  0
   44.3870   33.0590   38.2820 C   0  0  0  0  0  0  0  0  0  0  0  0
   45.1930   33.2550   37.2050 C   0  0  0  0  0  0  0  0  0  0  0  0
   46.5640   33.3720   37.2840 C   0  0  0  0  0  0  0  0  0  0  0  0
   47.1370   33.2810   38.5450 C   0  0  0  0  0  0  0  0  0  0  0  0
   46.3570   33.0850   39.6590 C   0  0  0  0  0  0  0  0  0  0  0  0
   44.6920   33.3190   36.2270 H   0  0  0  0  0  0  0  0  0  0  0  0
   47.1560   33.5270   36.3910 H   0  0  0  0  0  0  0  0  0  0  0  0
   48.2190   33.3700   38.6420 H   0  0  0  0  0  0  0  0  0  0  0  0
   40.7040   33.8730   38.4560 C   0  0  0  0  0  0  0  0  0  0  0  0
   42.1000   34.0340   38.5070 C   0  0  0  0  0  0  0  0  0  0  0  0
   42.9380   32.9310   38.2390 C   0  0  0  0  0  0  0  0  0  0  0  0
   42.3060   31.7800   37.9480 N   0  0  0  0  0  0  0  0  0  0  0  0
   40.9830   31.6360   37.9020 C   0  0  0  0  0  0  0  0  0  0  0  0
   40.1860   32.6930   38.1580 N   0  0  0  0  0  0  0  0  0  0  0  0
   39.9010   35.0050   38.7310 N   0  0  0  0  0  0  0  0  0  0  0  0
   42.5550   34.9830   38.7460 H   0  0  0  0  0  0  0  0  0  0  0  0
   40.4770   30.7110   37.6670 H   0  0  0  0  0  0  0  0  0  0  0  0
   39.9050   35.7070   39.5030 H   0  0  0  0  0  0  0  0  0  0  0  0
   39.0920   35.3760   38.1660 H   0  0  0  0  0  0  0  0  0  0  0  0
   46.5370   35.2700   41.4130 F   0  0  0  0  0  0  0  0  0  0  0  0
   47.0930   34.0790   41.8090 C   0  0  0  0  0  0  0  0  0  0  0  0
   47.0110   32.9980   40.9570 C   0  0  0  0  0  0  0  0  0  0  0  0
   47.5920   31.8030   41.4020 C   0  0  0  0  0  0  0  0  0  0  0  0
   47.5420   30.9380   40.7540 H   0  0  0  0  0  0  0  0  0  0  0  0
   48.2000   31.7880   42.6510 C   0  0  0  0  0  0  0  0  0  0  0  0
   48.6490   30.8430   42.9830 H   0  0  0  0  0  0  0  0  0  0  0  0
   48.2600   32.8930   43.4730 C   0  0  0  0  0  3  0  0  0  0  0  0
   47.6880   34.0980   43.0520 C   0  0  0  0  0  3  0  0  0  0  0  0
   43.5740   32.5830   41.6800 N   0  0  0  0  0  0  0  0  0  0  0  0
   44.2040   32.7670   40.7140 C   0  0  0  0  0  0  0  0  0  0  0  0
  1  6  1  0  0  0  0
  1 31  1  0  0  0  0
  2  1  2  0  0  0  0
  3  4  2  0  0  0  0
  3  2  1  0  0  0  0
  4  5  1  0  0  0  0
  5  9  1  0  0  0  0
  5  6  2  0  0  0  0
  6 23  1  0  0  0  0
  7  3  1  0  0  0  0
  8  4  1  0  0  0  0
 10 11  1  0  0  0  0
 10 16  1  0  0  0  0
 11 17  1  0  0  0  0
 12  2  1  0  0  0  0
 12 11  2  0  0  0  0
 13 12  1  0  0  0  0
 14 13  2  0  0  0  0
 14 15  1  0  0  0  0
 15 10  2  0  0  0  0
 16 19  1  0  0  0  0
 18 14  1  0  0  0  0
 20 16  1  0  0  0  0
 21 22  1  0  0  0  0
 22 29  1  0  0  0  0
 23 24  1  0  0  0  0
 23 22  2  0  0  0  0
 24 26  2  0  0  0  0
 25 24  1  0  0  0  0
 26 27  1  0  0  0  0
 26 28  1  0  0  0  0
 29 28  2  0  0  0  0
 31 30  3  0  0  0  0
M  END
>  <minimizedAffinity>
-4.1174221

>  <minimizedRMSD>
5.62115717

$$$$
