
 OpenBabel03252506593D

 24 25  0  0  0  0  0  0  0  0999 V2000
   46.6000   32.9400   46.5170 C   0  0  0  0  0  0  0  0  0  0  0  0
   47.3470   33.5620   47.0380 H   0  0  0  0  0  0  0  0  0  0  0  0
   47.0680   32.4050   45.6370 H   0  0  0  0  0  0  0  0  0  0  0  0
   46.0220   31.9050   47.3660 C   0  0  0  0  0  0  0  0  0  0  0  0
   45.6930   30.6440   46.8890 C   0  0  0  0  0  0  0  0  0  0  0  0
   45.1520   29.7050   47.7990 C   0  0  0  0  0  0  0  0  0  0  0  0
   44.9870   30.0980   49.0950 N   0  0  0  0  0  0  0  0  0  0  0  0
   45.3230   31.3300   49.5020 C   0  0  0  0  0  0  0  0  0  0  0  0
   45.8320   32.2280   48.6650 N   0  0  0  0  0  0  0  0  0  0  0  0
   45.8470   30.3910   45.8520 H   0  0  0  0  0  0  0  0  0  0  0  0
   44.9010   28.7310   47.4150 H   0  0  0  0  0  0  0  0  0  0  0  0
   45.1570   31.5590   50.5530 H   0  0  0  0  0  0  0  0  0  0  0  0
   45.4830   33.8100   46.0010 C   0  0  0  0  0  0  0  0  0  0  0  0
   44.5140   33.2920   45.9940 H   0  0  0  0  0  0  0  0  0  0  0  0
   45.3470   34.7110   46.6330 H   0  0  0  0  0  0  0  0  0  0  0  0
   44.0380   35.7730   44.7450 F   0  0  0  0  0  0  0  0  0  0  0  0
   45.0890   35.2290   44.0940 C   0  0  0  0  0  0  0  0  0  0  0  0
   45.8890   34.2380   44.6170 C   0  0  0  0  0  0  0  0  0  0  0  0
   46.9590   33.6980   43.9290 C   0  0  0  0  0  0  0  0  0  0  0  0
   47.5380   32.9210   44.4110 H   0  0  0  0  0  0  0  0  0  0  0  0
   47.2070   34.1950   42.6650 C   0  0  0  0  0  0  0  0  0  0  0  0
   48.0520   33.7810   42.0980 H   0  0  0  0  0  0  0  0  0  0  0  0
   46.4250   35.1840   42.1140 C   0  0  0  0  0  0  0  0  0  0  0  0
   45.3530   35.7210   42.8140 C   0  0  0  0  0  0  0  0  0  0  0  0
  1  2  1  0  0  0  0
  1  4  1  0  0  0  0
  3  1  1  0  0  0  0
  4  9  1  0  0  0  0
  5  4  2  0  0  0  0
  5  6  1  0  0  0  0
  6  7  2  0  0  0  0
  7  8  1  0  0  0  0
  8 12  1  0  0  0  0
  9  8  2  0  0  0  0
 10  5  1  0  0  0  0
 11  6  1  0  0  0  0
 13  1  1  0  0  0  0
 13 15  1  0  0  0  0
 14 13  1  0  0  0  0
 17 18  1  0  0  0  0
 17 16  1  0  0  0  0
 18 13  1  0  0  0  0
 19 20  1  0  0  0  0
 19 18  2  0  0  0  0
 21 19  1  0  0  0  0
 22 21  1  0  0  0  0
 23 21  2  0  0  0  0
 23 24  1  0  0  0  0
 24 17  2  0  0  0  0
M  END
>  <minimizedAffinity>
-4.88972759

>  <minimizedRMSD>
6.1991415

$$$$
