
 OpenBabel03252505303D

 27 28  0  0  0  0  0  0  0  0999 V2000
   44.7930   34.8420   45.5640 O   0  0  0  0  0  0  0  0  0  0  0  0
   45.4940   34.0640   44.4370 P   0  0  1  0  0  0  0  0  0  0  0  0
   44.4640   33.0060   43.6590 O   0  0  0  0  0  0  0  0  0  0  0  0
   43.7540   33.5040   43.1950 H   0  0  0  0  0  0  0  0  0  0  0  0
   46.1180   35.2200   43.3670 O   0  0  0  0  0  0  0  0  0  0  0  0
   46.7510   33.8610   40.1590 C   0  0  0  0  0  0  0  0  0  0  0  0
   48.0370   34.3660   39.7990 C   0  0  0  0  0  0  0  0  0  0  0  0
   48.6660   35.2130   40.7530 C   0  0  0  0  0  0  0  0  0  0  0  0
   47.9960   35.4720   41.9260 N   0  0  0  0  0  0  0  0  0  0  0  0
   46.7930   34.9610   42.1900 C   0  0  0  0  0  0  0  0  0  0  0  0
   46.1800   34.1670   41.3180 N   0  0  0  0  0  0  0  0  0  0  0  0
   46.2780   33.2150   39.4240 H   0  0  0  0  0  0  0  0  0  0  0  0
   48.5320   34.1400   38.8680 H   0  0  0  0  0  0  0  0  0  0  0  0
   49.6500   35.6390   40.5530 H   0  0  0  0  0  0  0  0  0  0  0  0
   46.7140   33.1810   45.1720 O   0  0  0  0  0  0  0  0  0  0  0  0
   46.4760   33.1020   46.5140 C   0  0  0  0  0  0  0  0  0  0  0  0
   45.7820   33.9280   46.8470 H   0  0  0  0  0  0  0  0  0  0  0  0
   47.4470   33.3540   47.0330 H   0  0  0  0  0  0  0  0  0  0  0  0
   45.7930   32.8870   49.1720 F   0  0  0  0  0  0  0  0  0  0  0  0
   45.6810   31.8280   48.3620 C   0  0  0  0  0  0  0  0  0  0  0  0
   45.9940   31.8140   47.0160 C   0  0  0  0  0  0  0  0  0  0  0  0
   45.8190   30.6310   46.3300 C   0  0  0  0  0  0  0  0  0  0  0  0
   46.0680   30.6600   45.2980 H   0  0  0  0  0  0  0  0  0  0  0  0
   45.3540   29.4750   46.9020 C   0  0  0  0  0  0  0  0  0  0  0  0
   45.2510   28.6040   46.2840 H   0  0  0  0  0  0  0  0  0  0  0  0
   45.0470   29.5130   48.2500 C   0  0  0  0  0  0  0  0  0  0  0  0
   45.2070   30.6720   48.9800 C   0  0  0  0  0  0  0  0  0  0  0  0
  2 15  1  0  0  0  0
  2  1  2  1  0  0  0
  3  2  1  0  0  0  0
  4  3  1  0  0  0  0
  5  2  1  0  0  0  0
  6 11  1  0  0  0  0
  7  6  2  0  0  0  0
  7  8  1  0  0  0  0
  8  9  2  0  0  0  0
  9 10  1  0  0  0  0
 10  5  1  0  0  0  0
 11 10  2  0  0  0  0
 12  6  1  0  0  0  0
 13  7  1  0  0  0  0
 14  8  1  0  0  0  0
 15 16  1  0  0  0  0
 16 17  1  0  0  0  0
 16 21  1  0  0  0  0
 16 18  1  0  0  0  0
 20 27  1  0  0  0  0
 20 19  1  0  0  0  0
 21 20  2  0  0  0  0
 22 24  2  0  0  0  0
 22 21  1  0  0  0  0
 23 22  1  0  0  0  0
 24 26  1  0  0  0  0
 25 24  1  0  0  0  0
 26 27  2  0  0  0  0
M  END
>  <minimizedAffinity>
-5.45800018

>  <minimizedRMSD>
3.84160542

$$$$
