
 OpenBabel03252501173D

 35 38  0  0  1  0  0  0  0  0999 V2000
   38.2700   31.2620   40.0040 C   0  0  1  0  0  0  0  0  0  0  0  0
   37.4440   32.0950   39.1020 C   0  0  0  0  0  0  0  0  0  0  0  0
   37.8900   32.5680   40.5380 C   0  0  2  0  0  0  0  0  0  0  0  0
   39.3290   31.0680   39.7220 H   0  0  0  0  0  0  0  0  0  0  0  0
   36.3610   31.9660   39.0110 H   0  0  0  0  0  0  0  0  0  0  0  0
   37.8990   32.6370   38.2520 H   0  0  0  0  0  0  0  0  0  0  0  0
   37.0790   32.6460   41.2580 H   0  0  0  0  0  0  0  0  0  0  0  0
   37.1340   28.4510   42.2120 C   0  0  0  0  0  0  0  0  0  0  0  0
   37.7860   29.6100   41.8350 C   0  0  0  0  0  0  0  0  0  0  0  0
   37.6020   30.0290   40.5220 C   0  0  0  0  0  0  0  0  0  0  0  0
   36.8160   29.3100   39.6900 N   0  0  0  0  0  0  0  0  0  0  0  0
   36.1960   28.1770   40.1040 C   0  0  0  0  0  0  0  0  0  0  0  0
   36.3640   27.7530   41.3790 N   0  0  0  0  0  0  0  0  0  0  0  0
   38.4160   30.1990   42.4830 H   0  0  0  0  0  0  0  0  0  0  0  0
   35.5650   27.5870   39.4540 H   0  0  0  0  0  0  0  0  0  0  0  0
   37.3020   27.9790   43.6260 C   0  0  0  0  0  0  0  0  0  0  0  0
   36.2000   27.2230   43.9460 F   0  0  0  0  0  0  0  0  0  0  0  0
   37.3240   29.0980   44.4320 F   0  0  0  0  0  0  0  0  0  0  0  0
   38.4380   27.2190   43.7640 F   0  0  0  0  0  0  0  0  0  0  0  0
   38.9420   33.6310   40.4780 C   0  0  0  0  0  0  0  0  0  0  0  0
   38.7520   34.9890   40.2470 C   0  0  0  0  0  0  0  0  0  0  0  0
   40.0450   35.4740   40.3050 C   0  0  0  0  0  0  0  0  0  0  0  0
   40.9430   34.4450   40.5590 C   0  0  0  0  0  0  0  0  0  0  0  0
   40.1990   33.3770   40.6470 O   0  0  0  0  0  0  0  0  0  0  0  0
   37.8140   35.4850   40.0720 H   0  0  0  0  0  0  0  0  0  0  0  0
   40.2920   36.5170   40.1670 H   0  0  0  0  0  0  0  0  0  0  0  0
   42.8070   33.3530   38.6810 F   0  0  0  0  0  0  0  0  0  0  0  0
   43.2690   33.9580   39.7920 C   0  0  0  0  0  0  0  0  0  0  0  0
   42.3900   34.4870   40.7030 C   0  0  0  0  0  0  0  0  0  0  0  0
   42.9550   35.0850   41.8070 C   0  0  0  0  0  0  0  0  0  0  0  0
   42.2850   35.5130   42.5440 H   0  0  0  0  0  0  0  0  0  0  0  0
   44.3290   35.1370   41.9650 C   0  0  0  0  0  0  0  0  0  0  0  0
   44.6620   35.6330   42.8750 H   0  0  0  0  0  0  0  0  0  0  0  0
   45.1970   34.5980   41.0370 C   0  0  0  0  0  3  0  0  0  0  0  0
   44.6450   33.9960   39.9250 C   0  0  0  0  0  3  0  0  0  0  0  0
  1  4  1  6  0  0  0
  1 10  1  0  0  0  0
  1  3  1  0  0  0  0
  2  1  1  0  0  0  0
  2  3  1  0  0  0  0
  3  7  1  1  0  0  0
  5  2  1  0  0  0  0
  6  2  1  0  0  0  0
  8 16  1  0  0  0  0
  9  8  1  0  0  0  0
  9 14  1  0  0  0  0
 10  9  2  0  0  0  0
 11 12  2  0  0  0  0
 11 10  1  0  0  0  0
 12 13  1  0  0  0  0
 13  8  2  0  0  0  0
 15 12  1  0  0  0  0
 16 19  1  0  0  0  0
 16 17  1  0  0  0  0
 16 18  1  0  0  0  0
 20  3  1  0  0  0  0
 20 24  1  0  0  0  0
 21 22  1  0  0  0  0
 21 20  2  0  0  0  0
 22 23  2  0  0  0  0
 23 24  1  0  0  0  0
 23 29  1  0  0  0  0
 25 21  1  0  0  0  0
 26 22  1  0  0  0  0
 27 28  1  0  0  0  0
 28 35  2  0  0  0  0
 28 29  1  0  0  0  0
 29 30  2  0  0  0  0
 30 32  1  0  0  0  0
 30 31  1  0  0  0  0
 32 33  1  0  0  0  0
 34 32  2  0  0  0  0
 35 34  1  0  0  0  0
M  END
>  <minimizedAffinity>
-6.7133379

$$$$

 OpenBabel03252501173D

 35 38  0  0  1  0  0  0  0  0999 V2000
   36.0760   29.4460   39.2190 C   0  0  1  0  0  0  0  0  0  0  0  0
   36.7850   28.9350   38.0250 C   0  0  0  0  0  0  0  0  0  0  0  0
   35.5750   28.1780   38.6940 C   0  0  2  0  0  0  0  0  0  0  0  0
   35.4620   30.3680   39.1150 H   0  0  0  0  0  0  0  0  0  0  0  0
   37.7270   28.3820   38.0920 H   0  0  0  0  0  0  0  0  0  0  0  0
   36.5920   29.3620   37.0220 H   0  0  0  0  0  0  0  0  0  0  0  0
   35.8440   27.2440   39.1810 H   0  0  0  0  0  0  0  0  0  0  0  0
   37.4150   28.6570   42.6320 C   0  0  0  0  0  0  0  0  0  0  0  0
   36.6230   28.5550   41.5040 C   0  0  0  0  0  0  0  0  0  0  0  0
   36.8800   29.4580   40.4790 C   0  0  0  0  0  0  0  0  0  0  0  0
   37.8650   30.3750   40.6210 N   0  0  0  0  0  0  0  0  0  0  0  0
   38.6160   30.4380   41.7480 C   0  0  0  0  0  0  0  0  0  0  0  0
   38.3800   29.5660   42.7570 N   0  0  0  0  0  0  0  0  0  0  0  0
   35.8340   27.8310   41.3710 H   0  0  0  0  0  0  0  0  0  0  0  0
   39.4060   31.1630   41.8810 H   0  0  0  0  0  0  0  0  0  0  0  0
   37.1710   27.6870   43.7510 C   0  0  0  0  0  0  0  0  0  0  0  0
   36.6420   28.3930   44.8050 F   0  0  0  0  0  0  0  0  0  0  0  0
   38.3960   27.1760   44.1270 F   0  0  0  0  0  0  0  0  0  0  0  0
   36.2940   26.7010   43.3710 F   0  0  0  0  0  0  0  0  0  0  0  0
   34.3330   28.2590   37.8640 C   0  0  0  0  0  0  0  0  0  0  0  0
   33.8660   27.3150   36.9550 C   0  0  0  0  0  0  0  0  0  0  0  0
   32.7030   27.9070   36.4980 C   0  0  0  0  0  0  0  0  0  0  0  0
   32.5030   29.1350   37.1140 C   0  0  0  0  0  0  0  0  0  0  0  0
   33.5260   29.2680   37.9140 O   0  0  0  0  0  0  0  0  0  0  0  0
   34.3330   26.3780   36.7070 H   0  0  0  0  0  0  0  0  0  0  0  0
   32.0580   27.4490   35.7610 H   0  0  0  0  0  0  0  0  0  0  0  0
   30.5910   29.8190   39.1310 F   0  0  0  0  0  0  0  0  0  0  0  0
   30.5170   30.4120   37.9240 C   0  0  0  0  0  0  0  0  0  0  0  0
   31.4250   30.0960   36.9460 C   0  0  0  0  0  0  0  0  0  0  0  0
   31.2690   30.7530   35.7460 C   0  0  0  0  0  0  0  0  0  0  0  0
   31.9720   30.5250   34.9530 H   0  0  0  0  0  0  0  0  0  0  0  0
   30.2500   31.6720   35.5640 C   0  0  0  0  0  0  0  0  0  0  0  0
   30.2240   32.1290   34.5750 H   0  0  0  0  0  0  0  0  0  0  0  0
   29.3450   31.9750   36.5610 C   0  0  0  0  0  3  0  0  0  0  0  0
   29.4900   31.3250   37.7700 C   0  0  0  0  0  3  0  0  0  0  0  0
  1  4  1  6  0  0  0
  1 10  1  0  0  0  0
  2  5  1  0  0  0  0
  2  3  1  0  0  0  0
  2  1  1  0  0  0  0
  3  7  1  1  0  0  0
  3  1  1  0  0  0  0
  6  2  1  0  0  0  0
  8 13  1  0  0  0  0
  8 16  1  0  0  0  0
  9  8  2  0  0  0  0
 10 11  2  0  0  0  0
 10  9  1  0  0  0  0
 11 12  1  0  0  0  0
 12 15  1  0  0  0  0
 12 13  2  0  0  0  0
 14  9  1  0  0  0  0
 16 18  1  0  0  0  0
 16 17  1  0  0  0  0
 19 16  1  0  0  0  0
 20 24  1  0  0  0  0
 20  3  1  0  0  0  0
 21 20  2  0  0  0  0
 22 21  1  0  0  0  0
 22 23  2  0  0  0  0
 23 24  1  0  0  0  0
 25 21  1  0  0  0  0
 26 22  1  0  0  0  0
 28 27  1  0  0  0  0
 29 23  1  0  0  0  0
 29 28  2  0  0  0  0
 30 29  1  0  0  0  0
 31 30  1  0  0  0  0
 32 30  2  0  0  0  0
 32 34  1  0  0  0  0
 33 32  1  0  0  0  0
 34 35  2  0  0  0  0
 35 28  1  0  0  0  0
M  END
>  <minimizedAffinity>
-6.64339876

$$$$

 OpenBabel03252501173D

 35 38  0  0  1  0  0  0  0  0999 V2000
   35.5630   28.5150   39.1490 C   0  0  1  0  0  0  0  0  0  0  0  0
   36.3780   29.0170   38.0210 C   0  0  0  0  0  0  0  0  0  0  0  0
   35.2670   27.9110   37.8520 C   0  0  2  0  0  0  0  0  0  0  0  0
   34.8250   29.2050   39.6170 H   0  0  0  0  0  0  0  0  0  0  0  0
   37.3870   28.6470   37.8140 H   0  0  0  0  0  0  0  0  0  0  0  0
   36.1600   29.9950   37.5520 H   0  0  0  0  0  0  0  0  0  0  0  0
   35.6520   26.9220   37.6130 H   0  0  0  0  0  0  0  0  0  0  0  0
   37.1800   27.4060   42.3460 C   0  0  0  0  0  0  0  0  0  0  0  0
   36.4590   28.2020   41.4770 C   0  0  0  0  0  0  0  0  0  0  0  0
   36.3130   27.7300   40.1770 C   0  0  0  0  0  0  0  0  0  0  0  0
   36.8660   26.5470   39.8240 N   0  0  0  0  0  0  0  0  0  0  0  0
   37.5670   25.8000   40.7130 C   0  0  0  0  0  0  0  0  0  0  0  0
   37.7190   26.2440   41.9830 N   0  0  0  0  0  0  0  0  0  0  0  0
   36.0090   29.1470   41.7370 H   0  0  0  0  0  0  0  0  0  0  0  0
   38.0170   24.8530   40.4500 H   0  0  0  0  0  0  0  0  0  0  0  0
   37.3440   27.8820   43.7600 C   0  0  0  0  0  0  0  0  0  0  0  0
   36.1570   27.6540   44.4150 F   0  0  0  0  0  0  0  0  0  0  0  0
   37.5740   29.2410   43.7120 F   0  0  0  0  0  0  0  0  0  0  0  0
   38.3580   27.2080   44.3960 F   0  0  0  0  0  0  0  0  0  0  0  0
   34.0560   28.4340   37.1470 C   0  0  0  0  0  0  0  0  0  0  0  0
   33.7330   28.2800   35.8030 C   0  0  0  0  0  0  0  0  0  0  0  0
   32.5290   28.9520   35.7180 C   0  0  0  0  0  0  0  0  0  0  0  0
   32.1680   29.4700   36.9550 C   0  0  0  0  0  0  0  0  0  0  0  0
   33.1380   29.1150   37.7520 O   0  0  0  0  0  0  0  0  0  0  0  0
   34.3120   27.7610   35.0600 H   0  0  0  0  0  0  0  0  0  0  0  0
   31.9670   29.0440   34.7990 H   0  0  0  0  0  0  0  0  0  0  0  0
   31.2420   31.8180   35.6050 F   0  0  0  0  0  0  0  0  0  0  0  0
   30.5640   31.3640   36.6760 C   0  0  0  0  0  0  0  0  0  0  0  0
   30.9940   30.2400   37.3350 C   0  0  0  0  0  0  0  0  0  0  0  0
   30.2380   29.8520   38.4190 C   0  0  0  0  0  0  0  0  0  0  0  0
   30.5520   28.9670   38.9600 H   0  0  0  0  0  0  0  0  0  0  0  0
   29.1170   30.5690   38.7990 C   0  0  0  0  0  0  0  0  0  0  0  0
   28.5970   30.1700   39.6690 H   0  0  0  0  0  0  0  0  0  0  0  0
   28.7010   31.6990   38.1230 C   0  0  0  0  0  3  0  0  0  0  0  0
   29.4490   32.0990   37.0340 C   0  0  0  0  0  3  0  0  0  0  0  0
  1  4  1  1  0  0  0
  1 10  1  0  0  0  0
  2  1  1  0  0  0  0
  3  7  1  6  0  0  0
  3  2  1  0  0  0  0
  3  1  1  0  0  0  0
  5  2  1  0  0  0  0
  6  2  1  0  0  0  0
  8 16  1  0  0  0  0
  9 14  1  0  0  0  0
  9  8  2  0  0  0  0
 10  9  1  0  0  0  0
 11 10  2  0  0  0  0
 11 12  1  0  0  0  0
 12 13  2  0  0  0  0
 13  8  1  0  0  0  0
 15 12  1  0  0  0  0
 16 19  1  0  0  0  0
 16 17  1  0  0  0  0
 18 16  1  0  0  0  0
 20 24  1  0  0  0  0
 20  3  1  0  0  0  0
 21 20  2  0  0  0  0
 22 21  1  0  0  0  0
 22 23  2  0  0  0  0
 23 29  1  0  0  0  0
 23 24  1  0  0  0  0
 25 21  1  0  0  0  0
 26 22  1  0  0  0  0
 27 28  1  0  0  0  0
 28 35  2  0  0  0  0
 28 29  1  0  0  0  0
 29 30  2  0  0  0  0
 30 32  1  0  0  0  0
 30 31  1  0  0  0  0
 32 33  1  0  0  0  0
 34 32  2  0  0  0  0
 35 34  1  0  0  0  0
M  END
>  <minimizedAffinity>
-6.52376032

$$$$

 OpenBabel03252501173D

 35 38  0  0  1  0  0  0  0  0999 V2000
   39.2950   30.4820   41.3850 C   0  0  1  0  0  0  0  0  0  0  0  0
   40.2310   30.1120   42.4700 C   0  0  0  0  0  0  0  0  0  0  0  0
   38.6720   30.2190   42.6810 C   0  0  2  0  0  0  0  0  0  0  0  0
   39.1470   29.7660   40.5460 H   0  0  0  0  0  0  0  0  0  0  0  0
   40.7930   30.8570   43.0410 H   0  0  0  0  0  0  0  0  0  0  0  0
   40.6570   29.0930   42.5300 H   0  0  0  0  0  0  0  0  0  0  0  0
   38.3600   31.0470   43.3120 H   0  0  0  0  0  0  0  0  0  0  0  0
   40.6580   33.7800   40.2300 C   0  0  0  0  0  0  0  0  0  0  0  0
   40.6570   32.4700   40.6710 C   0  0  0  0  0  0  0  0  0  0  0  0
   39.4140   31.8900   40.8950 C   0  0  0  0  0  0  0  0  0  0  0  0
   38.2870   32.6070   40.6800 N   0  0  0  0  0  0  0  0  0  0  0  0
   38.3380   33.8910   40.2470 C   0  0  0  0  0  0  0  0  0  0  0  0
   39.5400   34.4730   40.0230 N   0  0  0  0  0  0  0  0  0  0  0  0
   41.5430   31.8810   40.8480 H   0  0  0  0  0  0  0  0  0  0  0  0
   37.4500   34.4810   40.0700 H   0  0  0  0  0  0  0  0  0  0  0  0
   41.9850   34.4310   39.9660 C   0  0  0  0  0  0  0  0  0  0  0  0
   42.2990   35.1920   41.0660 F   0  0  0  0  0  0  0  0  0  0  0  0
   41.8250   35.2630   38.8780 F   0  0  0  0  0  0  0  0  0  0  0  0
   42.9650   33.4920   39.7600 F   0  0  0  0  0  0  0  0  0  0  0  0
   38.0330   28.8750   42.8380 C   0  0  0  0  0  0  0  0  0  0  0  0
   37.3240   28.4050   43.9390 C   0  0  0  0  0  0  0  0  0  0  0  0
   36.9730   27.1320   43.5310 C   0  0  0  0  0  0  0  0  0  0  0  0
   37.4530   26.8750   42.2540 C   0  0  0  0  0  0  0  0  0  0  0  0
   38.0770   27.9700   41.9150 O   0  0  0  0  0  0  0  0  0  0  0  0
   37.1300   28.9390   44.8520 H   0  0  0  0  0  0  0  0  0  0  0  0
   36.4000   26.4520   44.1470 H   0  0  0  0  0  0  0  0  0  0  0  0
   38.5100   24.3030   42.9300 F   0  0  0  0  0  0  0  0  0  0  0  0
   37.8380   24.4560   41.7730 C   0  0  0  0  0  0  0  0  0  0  0  0
   37.3250   25.6820   41.4340 C   0  0  0  0  0  0  0  0  0  0  0  0
   36.6540   25.7410   40.2320 C   0  0  0  0  0  0  0  0  0  0  0  0
   36.2370   26.6970   39.9370 H   0  0  0  0  0  0  0  0  0  0  0  0
   36.5190   24.6180   39.4350 C   0  0  0  0  0  0  0  0  0  0  0  0
   35.9700   24.7830   38.5090 H   0  0  0  0  0  0  0  0  0  0  0  0
   37.0440   23.3930   39.7940 C   0  0  0  0  0  3  0  0  0  0  0  0
   37.7180   23.3180   40.9960 C   0  0  0  0  0  3  0  0  0  0  0  0
  1  4  1  6  0  0  0
  1  2  1  0  0  0  0
  1  3  1  0  0  0  0
  2  6  1  0  0  0  0
  2  3  1  0  0  0  0
  2  5  1  0  0  0  0
  3 20  1  0  0  0  0
  3  7  1  1  0  0  0
  8  9  1  0  0  0  0
  9 14  1  0  0  0  0
  9 10  2  0  0  0  0
 10  1  1  0  0  0  0
 11 10  1  0  0  0  0
 12 11  2  0  0  0  0
 13  8  2  0  0  0  0
 13 12  1  0  0  0  0
 15 12  1  0  0  0  0
 16  8  1  0  0  0  0
 16 17  1  0  0  0  0
 18 16  1  0  0  0  0
 19 16  1  0  0  0  0
 20 21  2  0  0  0  0
 21 25  1  0  0  0  0
 22 21  1  0  0  0  0
 22 26  1  0  0  0  0
 23 22  2  0  0  0  0
 24 23  1  0  0  0  0
 24 20  1  0  0  0  0
 28 27  1  0  0  0  0
 29 28  1  0  0  0  0
 29 23  1  0  0  0  0
 30 29  2  0  0  0  0
 31 30  1  0  0  0  0
 32 34  2  0  0  0  0
 32 30  1  0  0  0  0
 33 32  1  0  0  0  0
 34 35  1  0  0  0  0
 35 28  2  0  0  0  0
M  END
>  <minimizedAffinity>
-6.29872847

$$$$

 OpenBabel03252501173D

 35 38  0  0  1  0  0  0  0  0999 V2000
   36.9190   27.8040   40.2430 C   0  0  1  0  0  0  0  0  0  0  0  0
   35.7560   28.4680   40.8710 C   0  0  0  0  0  0  0  0  0  0  0  0
   37.2270   29.0220   40.9890 C   0  0  2  0  0  0  0  0  0  0  0  0
   36.9920   27.8030   39.1320 H   0  0  0  0  0  0  0  0  0  0  0  0
   35.3410   28.1440   41.8310 H   0  0  0  0  0  0  0  0  0  0  0  0
   35.0560   29.0780   40.2700 H   0  0  0  0  0  0  0  0  0  0  0  0
   37.6530   28.9550   41.9870 H   0  0  0  0  0  0  0  0  0  0  0  0
   38.5860   25.0680   42.1940 C   0  0  0  0  0  0  0  0  0  0  0  0
   38.3250   26.3430   41.7290 C   0  0  0  0  0  0  0  0  0  0  0  0
   37.2810   26.4720   40.8200 C   0  0  0  0  0  0  0  0  0  0  0  0
   36.5820   25.3800   40.4380 N   0  0  0  0  0  0  0  0  0  0  0  0
   36.8760   24.1470   40.9210 C   0  0  0  0  0  0  0  0  0  0  0  0
   37.8900   24.0020   41.8070 N   0  0  0  0  0  0  0  0  0  0  0  0
   38.8690   27.2280   42.0220 H   0  0  0  0  0  0  0  0  0  0  0  0
   36.3300   23.2620   40.6270 H   0  0  0  0  0  0  0  0  0  0  0  0
   39.7000   24.8980   43.1860 C   0  0  0  0  0  0  0  0  0  0  0  0
   40.8840   24.9130   42.4880 F   0  0  0  0  0  0  0  0  0  0  0  0
   39.5420   23.6580   43.7710 F   0  0  0  0  0  0  0  0  0  0  0  0
   39.6980   25.9110   44.1130 F   0  0  0  0  0  0  0  0  0  0  0  0
   37.4290   30.2570   40.1700 C   0  0  0  0  0  0  0  0  0  0  0  0
   36.6830   30.6690   39.0700 C   0  0  0  0  0  0  0  0  0  0  0  0
   37.3060   31.8530   38.7270 C   0  0  0  0  0  0  0  0  0  0  0  0
   38.3640   32.1180   39.5870 C   0  0  0  0  0  0  0  0  0  0  0  0
   38.3680   31.1120   40.4180 O   0  0  0  0  0  0  0  0  0  0  0  0
   35.8420   30.1550   38.6380 H   0  0  0  0  0  0  0  0  0  0  0  0
   36.9900   32.4680   37.8960 H   0  0  0  0  0  0  0  0  0  0  0  0
   40.9120   32.1590   38.2820 F   0  0  0  0  0  0  0  0  0  0  0  0
   40.5080   33.2420   38.9740 C   0  0  0  0  0  0  0  0  0  0  0  0
   39.2900   33.2390   39.6060 C   0  0  0  0  0  0  0  0  0  0  0  0
   38.9640   34.3900   40.2890 C   0  0  0  0  0  0  0  0  0  0  0  0
   38.0080   34.4180   40.7970 H   0  0  0  0  0  0  0  0  0  0  0  0
   39.8300   35.4690   40.3200 C   0  0  0  0  0  0  0  0  0  0  0  0
   39.4680   36.3240   40.8900 H   0  0  0  0  0  0  0  0  0  0  0  0
   41.0520   35.4510   39.6790 C   0  0  0  0  0  3  0  0  0  0  0  0
   41.3920   34.3050   38.9890 C   0  0  0  0  0  3  0  0  0  0  0  0
  1  4  1  6  0  0  0
  1 10  1  0  0  0  0
  1  2  1  0  0  0  0
  1  3  1  0  0  0  0
  2  3  1  0  0  0  0
  2  5  1  0  0  0  0
  3  7  1  1  0  0  0
  6  2  1  0  0  0  0
  8 16  1  0  0  0  0
  9 14  1  0  0  0  0
  9  8  2  0  0  0  0
 10  9  1  0  0  0  0
 11 10  2  0  0  0  0
 11 12  1  0  0  0  0
 12 13  2  0  0  0  0
 13  8  1  0  0  0  0
 15 12  1  0  0  0  0
 16 18  1  0  0  0  0
 16 19  1  0  0  0  0
 17 16  1  0  0  0  0
 20 24  1  0  0  0  0
 20  3  1  0  0  0  0
 21 20  2  0  0  0  0
 22 21  1  0  0  0  0
 22 23  2  0  0  0  0
 23 29  1  0  0  0  0
 23 24  1  0  0  0  0
 25 21  1  0  0  0  0
 26 22  1  0  0  0  0
 27 28  1  0  0  0  0
 28 35  2  0  0  0  0
 28 29  1  0  0  0  0
 29 30  2  0  0  0  0
 30 32  1  0  0  0  0
 30 31  1  0  0  0  0
 32 33  1  0  0  0  0
 34 32  2  0  0  0  0
 35 34  1  0  0  0  0
M  END
>  <minimizedAffinity>
-6.19945574

$$$$

 OpenBabel03252501173D

 35 38  0  0  1  0  0  0  0  0999 V2000
   39.5100   29.6830   41.3110 C   0  0  1  0  0  0  0  0  0  0  0  0
   39.6720   29.7930   42.7770 C   0  0  0  0  0  0  0  0  0  0  0  0
   38.2690   29.6230   42.0800 C   0  0  2  0  0  0  0  0  0  0  0  0
   39.8900   28.7680   40.8040 H   0  0  0  0  0  0  0  0  0  0  0  0
   39.7840   30.7560   43.2850 H   0  0  0  0  0  0  0  0  0  0  0  0
   40.0210   28.9320   43.3770 H   0  0  0  0  0  0  0  0  0  0  0  0
   37.6260   30.4980   42.1440 H   0  0  0  0  0  0  0  0  0  0  0  0
   39.5490   33.1980   40.0020 C   0  0  0  0  0  0  0  0  0  0  0  0
   39.1750   32.1170   40.7780 C   0  0  0  0  0  0  0  0  0  0  0  0
   39.8420   30.9200   40.5390 C   0  0  0  0  0  0  0  0  0  0  0  0
   40.7990   30.8610   39.5860 N   0  0  0  0  0  0  0  0  0  0  0  0
   41.1310   31.9500   38.8480 C   0  0  0  0  0  0  0  0  0  0  0  0
   40.4930   33.1240   39.0670 N   0  0  0  0  0  0  0  0  0  0  0  0
   38.4150   32.1420   41.5430 H   0  0  0  0  0  0  0  0  0  0  0  0
   41.8930   31.9230   38.0820 H   0  0  0  0  0  0  0  0  0  0  0  0
   38.8570   34.5080   40.2450 C   0  0  0  0  0  0  0  0  0  0  0  0
   37.5860   34.4070   39.7310 F   0  0  0  0  0  0  0  0  0  0  0  0
   39.5470   35.4730   39.5430 F   0  0  0  0  0  0  0  0  0  0  0  0
   38.7900   34.7920   41.5870 F   0  0  0  0  0  0  0  0  0  0  0  0
   37.6970   28.2570   42.2930 C   0  0  0  0  0  0  0  0  0  0  0  0
   36.9440   27.8210   43.3790 C   0  0  0  0  0  0  0  0  0  0  0  0
   36.6930   26.5040   43.0430 C   0  0  0  0  0  0  0  0  0  0  0  0
   37.2710   26.1900   41.8210 C   0  0  0  0  0  0  0  0  0  0  0  0
   37.8530   27.2950   41.4430 O   0  0  0  0  0  0  0  0  0  0  0  0
   36.6590   28.4040   44.2370 H   0  0  0  0  0  0  0  0  0  0  0  0
   36.1200   25.8340   43.6690 H   0  0  0  0  0  0  0  0  0  0  0  0
   38.9660   23.9520   42.3800 F   0  0  0  0  0  0  0  0  0  0  0  0
   38.0850   23.8740   41.3630 C   0  0  0  0  0  0  0  0  0  0  0  0
   37.2650   24.9380   41.0820 C   0  0  0  0  0  0  0  0  0  0  0  0
   36.3980   24.7650   40.0260 C   0  0  0  0  0  0  0  0  0  0  0  0
   35.7380   25.5880   39.7790 H   0  0  0  0  0  0  0  0  0  0  0  0
   36.3750   23.5810   39.3090 C   0  0  0  0  0  0  0  0  0  0  0  0
   35.6500   23.5580   38.4960 H   0  0  0  0  0  0  0  0  0  0  0  0
   37.2090   22.5230   39.6080 C   0  0  0  0  0  3  0  0  0  0  0  0
   38.0830   22.6820   40.6650 C   0  0  0  0  0  3  0  0  0  0  0  0
  1  4  1  6  0  0  0
  1  3  1  0  0  0  0
  1  2  1  0  0  0  0
  2  5  1  0  0  0  0
  2  6  1  0  0  0  0
  3  7  1  6  0  0  0
  3 20  1  0  0  0  0
  3  2  1  0  0  0  0
  8 16  1  0  0  0  0
  8  9  1  0  0  0  0
  9 14  1  0  0  0  0
 10  9  2  0  0  0  0
 10  1  1  0  0  0  0
 11 10  1  0  0  0  0
 12 13  1  0  0  0  0
 12 11  2  0  0  0  0
 13  8  2  0  0  0  0
 15 12  1  0  0  0  0
 16 19  1  0  0  0  0
 17 16  1  0  0  0  0
 18 16  1  0  0  0  0
 20 21  2  0  0  0  0
 21 25  1  0  0  0  0
 22 21  1  0  0  0  0
 22 26  1  0  0  0  0
 23 22  2  0  0  0  0
 24 23  1  0  0  0  0
 24 20  1  0  0  0  0
 28 27  1  0  0  0  0
 29 28  1  0  0  0  0
 29 23  1  0  0  0  0
 30 29  2  0  0  0  0
 31 30  1  0  0  0  0
 32 34  2  0  0  0  0
 32 30  1  0  0  0  0
 33 32  1  0  0  0  0
 34 35  1  0  0  0  0
 35 28  2  0  0  0  0
M  END
>  <minimizedAffinity>
-6.13303614

$$$$

 OpenBabel03252501173D

 35 38  0  0  1  0  0  0  0  0999 V2000
   38.0050   32.0250   39.8680 C   0  0  1  0  0  0  0  0  0  0  0  0
   37.7650   31.3640   38.5670 C   0  0  0  0  0  0  0  0  0  0  0  0
   38.5510   30.6750   39.7470 C   0  0  2  0  0  0  0  0  0  0  0  0
   37.1340   32.2100   40.5360 H   0  0  0  0  0  0  0  0  0  0  0  0
   38.3900   31.5520   37.6880 H   0  0  0  0  0  0  0  0  0  0  0  0
   36.7790   30.9260   38.3240 H   0  0  0  0  0  0  0  0  0  0  0  0
   39.6120   30.5330   39.5570 H   0  0  0  0  0  0  0  0  0  0  0  0
   40.9730   34.2430   39.2850 C   0  0  0  0  0  0  0  0  0  0  0  0
   40.1950   33.1000   39.2650 C   0  0  0  0  0  0  0  0  0  0  0  0
   38.9260   33.2020   39.8240 C   0  0  0  0  0  0  0  0  0  0  0  0
   38.5140   34.3770   40.3500 N   0  0  0  0  0  0  0  0  0  0  0  0
   39.3140   35.4730   40.3470 C   0  0  0  0  0  0  0  0  0  0  0  0
   40.5530   35.3930   39.8070 N   0  0  0  0  0  0  0  0  0  0  0  0
   40.5040   32.1530   38.8510 H   0  0  0  0  0  0  0  0  0  0  0  0
   39.0030   36.4210   40.7630 H   0  0  0  0  0  0  0  0  0  0  0  0
   42.3430   34.1690   38.6770 C   0  0  0  0  0  0  0  0  0  0  0  0
   43.2550   34.3950   39.6800 F   0  0  0  0  0  0  0  0  0  0  0  0
   42.4370   35.1870   37.7510 F   0  0  0  0  0  0  0  0  0  0  0  0
   42.5720   32.9360   38.1160 F   0  0  0  0  0  0  0  0  0  0  0  0
   37.7540   29.5860   40.3930 C   0  0  0  0  0  0  0  0  0  0  0  0
   36.7910   29.7250   41.3870 C   0  0  0  0  0  0  0  0  0  0  0  0
   36.3960   28.4160   41.5890 C   0  0  0  0  0  0  0  0  0  0  0  0
   37.0960   27.5580   40.7520 C   0  0  0  0  0  0  0  0  0  0  0  0
   37.8890   28.3400   40.0720 O   0  0  0  0  0  0  0  0  0  0  0  0
   36.4730   30.6440   41.8470 H   0  0  0  0  0  0  0  0  0  0  0  0
   35.6420   28.1310   42.3090 H   0  0  0  0  0  0  0  0  0  0  0  0
   36.1670   26.1800   38.4220 F   0  0  0  0  0  0  0  0  0  0  0  0
   36.5630   25.4670   39.4950 C   0  0  0  0  0  0  0  0  0  0  0  0
   37.0110   26.1120   40.6190 C   0  0  0  0  0  0  0  0  0  0  0  0
   37.3940   25.3010   41.6650 C   0  0  0  0  0  0  0  0  0  0  0  0
   37.7540   25.7810   42.5670 H   0  0  0  0  0  0  0  0  0  0  0  0
   37.3220   23.9230   41.5600 C   0  0  0  0  0  0  0  0  0  0  0  0
   37.6510   23.3840   42.4480 H   0  0  0  0  0  0  0  0  0  0  0  0
   36.8670   23.2930   40.4190 C   0  0  0  0  0  3  0  0  0  0  0  0
   36.4810   24.0940   39.3630 C   0  0  0  0  0  3  0  0  0  0  0  0
  1  4  1  1  0  0  0
  2  3  1  0  0  0  0
  2  1  1  0  0  0  0
  3  7  1  6  0  0  0
  3  1  1  0  0  0  0
  3 20  1  0  0  0  0
  5  2  1  0  0  0  0
  6  2  1  0  0  0  0
  8 13  1  0  0  0  0
  9  8  2  0  0  0  0
  9 10  1  0  0  0  0
 10  1  1  0  0  0  0
 10 11  2  0  0  0  0
 12 11  1  0  0  0  0
 12 15  1  0  0  0  0
 13 12  2  0  0  0  0
 14  9  1  0  0  0  0
 16  8  1  0  0  0  0
 16 17  1  0  0  0  0
 18 16  1  0  0  0  0
 19 16  1  0  0  0  0
 20 21  2  0  0  0  0
 21 22  1  0  0  0  0
 21 25  1  0  0  0  0
 22 26  1  0  0  0  0
 23 22  2  0  0  0  0
 24 20  1  0  0  0  0
 24 23  1  0  0  0  0
 27 28  1  0  0  0  0
 28 29  1  0  0  0  0
 29 23  1  0  0  0  0
 29 30  2  0  0  0  0
 30 31  1  0  0  0  0
 32 30  1  0  0  0  0
 32 33  1  0  0  0  0
 34 32  2  0  0  0  0
 35 28  2  0  0  0  0
 35 34  1  0  0  0  0
M  END
>  <minimizedAffinity>
-6.04140425

$$$$

 OpenBabel03252501173D

 35 38  0  0  1  0  0  0  0  0999 V2000
   32.4510   29.1740   37.0510 C   0  0  1  0  0  0  0  0  0  0  0  0
   32.4830   27.9890   36.1650 C   0  0  0  0  0  0  0  0  0  0  0  0
   33.6620   29.0330   36.2450 C   0  0  2  0  0  0  0  0  0  0  0  0
   32.4990   29.0120   38.1510 H   0  0  0  0  0  0  0  0  0  0  0  0
   31.9910   27.9730   35.1870 H   0  0  0  0  0  0  0  0  0  0  0  0
   32.7010   26.9830   36.5680 H   0  0  0  0  0  0  0  0  0  0  0  0
   33.7920   29.6340   35.3490 H   0  0  0  0  0  0  0  0  0  0  0  0
   30.4360   31.7280   35.1840 C   0  0  0  0  0  0  0  0  0  0  0  0
   31.4020   30.7660   35.4130 C   0  0  0  0  0  0  0  0  0  0  0  0
   31.4400   30.2130   36.6890 C   0  0  0  0  0  0  0  0  0  0  0  0
   30.5580   30.6250   37.6270 N   0  0  0  0  0  0  0  0  0  0  0  0
   29.6270   31.5740   37.3560 C   0  0  0  0  0  0  0  0  0  0  0  0
   29.5760   32.1230   36.1190 N   0  0  0  0  0  0  0  0  0  0  0  0
   32.1140   30.4230   34.6800 H   0  0  0  0  0  0  0  0  0  0  0  0
   28.9140   31.9170   38.0920 H   0  0  0  0  0  0  0  0  0  0  0  0
   30.3620   32.3340   33.8130 C   0  0  0  0  0  0  0  0  0  0  0  0
   30.3960   31.3060   32.9020 F   0  0  0  0  0  0  0  0  0  0  0  0
   31.4880   33.1140   33.6480 F   0  0  0  0  0  0  0  0  0  0  0  0
   29.2040   33.0540   33.6510 F   0  0  0  0  0  0  0  0  0  0  0  0
   34.8570   28.4760   36.9520 C   0  0  0  0  0  0  0  0  0  0  0  0
   36.0730   28.1050   36.3860 C   0  0  0  0  0  0  0  0  0  0  0  0
   36.7840   27.6740   37.4890 C   0  0  0  0  0  0  0  0  0  0  0  0
   36.0190   27.7890   38.6420 C   0  0  0  0  0  0  0  0  0  0  0  0
   34.8800   28.2750   38.2300 O   0  0  0  0  0  0  0  0  0  0  0  0
   36.3380   28.1610   35.3450 H   0  0  0  0  0  0  0  0  0  0  0  0
   37.7980   27.3020   37.4310 H   0  0  0  0  0  0  0  0  0  0  0  0
   35.6890   29.5500   40.8740 F   0  0  0  0  0  0  0  0  0  0  0  0
   36.1890   28.3150   41.0770 C   0  0  0  0  0  0  0  0  0  0  0  0
   36.3530   27.4590   40.0180 C   0  0  0  0  0  0  0  0  0  0  0  0
   36.8710   26.2190   40.3230 C   0  0  0  0  0  0  0  0  0  0  0  0
   37.0120   25.5200   39.5080 H   0  0  0  0  0  0  0  0  0  0  0  0
   37.1960   25.8830   41.6260 C   0  0  0  0  0  0  0  0  0  0  0  0
   37.5960   24.8780   41.7480 H   0  0  0  0  0  0  0  0  0  0  0  0
   37.0230   26.7610   42.6770 C   0  0  0  0  0  3  0  0  0  0  0  0
   36.5050   28.0060   42.3870 C   0  0  0  0  0  3  0  0  0  0  0  0
  1  4  1  1  0  0  0
  2  3  1  0  0  0  0
  2  6  1  0  0  0  0
  2  1  1  0  0  0  0
  3  7  1  6  0  0  0
  3 20  1  0  0  0  0
  3  1  1  0  0  0  0
  5  2  1  0  0  0  0
  8  9  2  0  0  0  0
  8 13  1  0  0  0  0
  9 10  1  0  0  0  0
 10  1  1  0  0  0  0
 10 11  2  0  0  0  0
 12 11  1  0  0  0  0
 12 15  1  0  0  0  0
 13 12  2  0  0  0  0
 14  9  1  0  0  0  0
 16  8  1  0  0  0  0
 17 16  1  0  0  0  0
 18 16  1  0  0  0  0
 19 16  1  0  0  0  0
 20 24  1  0  0  0  0
 21 20  2  0  0  0  0
 21 22  1  0  0  0  0
 22 23  2  0  0  0  0
 23 29  1  0  0  0  0
 24 23  1  0  0  0  0
 25 21  1  0  0  0  0
 26 22  1  0  0  0  0
 27 28  1  0  0  0  0
 28 35  1  0  0  0  0
 29 30  1  0  0  0  0
 29 28  2  0  0  0  0
 30 32  2  0  0  0  0
 31 30  1  0  0  0  0
 32 33  1  0  0  0  0
 32 34  1  0  0  0  0
 35 34  2  0  0  0  0
M  END
>  <minimizedAffinity>
-5.98098278

$$$$

 OpenBabel03252501173D

 35 38  0  0  1  0  0  0  0  0999 V2000
   35.1890   28.4440   38.4730 C   0  0  1  0  0  0  0  0  0  0  0  0
   36.0900   29.5750   38.1590 C   0  0  0  0  0  0  0  0  0  0  0  0
   35.3060   29.4550   39.5210 C   0  0  2  0  0  0  0  0  0  0  0  0
   35.6370   27.4370   38.6240 H   0  0  0  0  0  0  0  0  0  0  0  0
   35.7710   30.4310   37.5550 H   0  0  0  0  0  0  0  0  0  0  0  0
   37.1880   29.4620   38.2220 H   0  0  0  0  0  0  0  0  0  0  0  0
   34.5200   30.1940   39.6540 H   0  0  0  0  0  0  0  0  0  0  0  0
   31.8530   29.2040   36.9360 C   0  0  0  0  0  0  0  0  0  0  0  0
   32.9720   29.3680   37.7300 C   0  0  0  0  0  0  0  0  0  0  0  0
   33.9430   28.3760   37.6490 C   0  0  0  0  0  0  0  0  0  0  0  0
   33.7600   27.3210   36.8220 N   0  0  0  0  0  0  0  0  0  0  0  0
   32.6430   27.2030   36.0620 C   0  0  0  0  0  0  0  0  0  0  0  0
   31.6870   28.1600   36.1280 N   0  0  0  0  0  0  0  0  0  0  0  0
   33.1380   30.2010   38.3950 H   0  0  0  0  0  0  0  0  0  0  0  0
   32.4780   26.3680   35.3960 H   0  0  0  0  0  0  0  0  0  0  0  0
   30.7920   30.2650   36.9920 C   0  0  0  0  0  0  0  0  0  0  0  0
   29.6470   29.7370   36.4450 F   0  0  0  0  0  0  0  0  0  0  0  0
   31.2200   31.3140   36.2050 F   0  0  0  0  0  0  0  0  0  0  0  0
   30.5470   30.6550   38.2860 F   0  0  0  0  0  0  0  0  0  0  0  0
   36.2120   29.1120   40.6620 C   0  0  0  0  0  0  0  0  0  0  0  0
   36.6290   29.9540   41.6870 C   0  0  0  0  0  0  0  0  0  0  0  0
   37.4320   29.1170   42.4380 C   0  0  0  0  0  0  0  0  0  0  0  0
   37.4790   27.8480   41.8760 C   0  0  0  0  0  0  0  0  0  0  0  0
   36.7220   27.9330   40.8160 O   0  0  0  0  0  0  0  0  0  0  0  0
   36.3630   30.9890   41.8150 H   0  0  0  0  0  0  0  0  0  0  0  0
   37.9420   29.4360   43.3370 H   0  0  0  0  0  0  0  0  0  0  0  0
   36.7370   25.1610   41.2270 F   0  0  0  0  0  0  0  0  0  0  0  0
   37.8190   25.3770   41.9990 C   0  0  0  0  0  0  0  0  0  0  0  0
   38.1890   26.6590   42.3190 C   0  0  0  0  0  0  0  0  0  0  0  0
   39.3080   26.7810   43.1130 C   0  0  0  0  0  0  0  0  0  0  0  0
   39.6250   27.7810   43.3830 H   0  0  0  0  0  0  0  0  0  0  0  0
   40.0000   25.6630   43.5460 C   0  0  0  0  0  0  0  0  0  0  0  0
   40.8670   25.8810   44.1670 H   0  0  0  0  0  0  0  0  0  0  0  0
   39.6110   24.3820   43.2130 C   0  0  0  0  0  3  0  0  0  0  0  0
   38.4910   24.2440   42.4170 C   0  0  0  0  0  3  0  0  0  0  0  0
  1  4  1  1  0  0  0
  1  3  1  0  0  0  0
  2  6  1  0  0  0  0
  2  1  1  0  0  0  0
  2  3  1  0  0  0  0
  3  7  1  1  0  0  0
  3 20  1  0  0  0  0
  5  2  1  0  0  0  0
  8 16  1  0  0  0  0
  8  9  1  0  0  0  0
  9 14  1  0  0  0  0
 10  9  2  0  0  0  0
 10  1  1  0  0  0  0
 11 10  1  0  0  0  0
 12 13  1  0  0  0  0
 12 11  2  0  0  0  0
 13  8  2  0  0  0  0
 15 12  1  0  0  0  0
 16 19  1  0  0  0  0
 17 16  1  0  0  0  0
 18 16  1  0  0  0  0
 20 24  1  0  0  0  0
 20 21  2  0  0  0  0
 21 25  1  0  0  0  0
 21 22  1  0  0  0  0
 22 26  1  0  0  0  0
 23 29  1  0  0  0  0
 23 22  2  0  0  0  0
 24 23  1  0  0  0  0
 27 28  1  0  0  0  0
 28 29  2  0  0  0  0
 28 35  1  0  0  0  0
 29 30  1  0  0  0  0
 30 31  1  0  0  0  0
 30 32  2  0  0  0  0
 32 33  1  0  0  0  0
 34 32  1  0  0  0  0
 35 34  2  0  0  0  0
M  END
>  <minimizedAffinity>
-5.97039843

$$$$
