
 OpenBabel03252507223D

 47 50  0  0  1  0  0  0  0  0999 V2000
   45.5400   32.1560   42.2230 C   0  0  0  0  0  0  0  0  0  0  0  0
   44.7300   31.2110   41.9450 O   0  0  0  0  0  0  0  0  0  0  0  0
   45.1120   33.4600   42.5850 N   0  0  0  0  0  0  0  0  0  0  0  0
   45.5830   34.3480   43.6600 C   0  0  0  0  0  0  0  0  0  0  0  0
   45.9190   35.7110   43.0600 C   0  0  0  0  0  0  0  0  0  0  0  0
   44.6710   36.3570   42.5510 C   0  0  0  0  0  0  0  0  0  0  0  0
   43.5630   35.3240   42.4210 C   0  0  0  0  0  0  0  0  0  0  0  0
   44.0510   34.0540   41.8190 C   0  0  2  0  0  0  0  0  0  0  0  0
   44.8030   34.3810   44.4210 H   0  0  0  0  0  0  0  0  0  0  0  0
   46.5430   33.9170   44.0600 H   0  0  0  0  0  0  0  0  0  0  0  0
   46.4790   36.3200   43.7780 H   0  0  0  0  0  0  0  0  0  0  0  0
   46.5540   35.4650   42.1580 H   0  0  0  0  0  0  0  0  0  0  0  0
   44.3300   37.1450   43.2780 H   0  0  0  0  0  0  0  0  0  0  0  0
   44.8170   36.8740   41.5800 H   0  0  0  0  0  0  0  0  0  0  0  0
   42.8550   35.7740   41.6630 H   0  0  0  0  0  0  0  0  0  0  0  0
   42.9910   35.1950   43.3490 H   0  0  0  0  0  0  0  0  0  0  0  0
   44.4670   34.3170   40.7990 H   0  0  0  0  0  0  0  0  0  0  0  0
   47.6420   32.2160   40.9890 C   0  0  0  0  0  0  0  0  0  0  0  0
   46.9560   31.8750   42.1660 C   0  0  0  0  0  0  0  0  0  0  0  0
   47.6240   31.2880   43.2320 C   0  0  0  0  0  0  0  0  0  0  0  0
   48.9550   31.0680   43.0730 N   0  0  0  0  0  0  0  0  0  0  0  0
   49.6350   31.3880   41.9510 C   0  0  0  0  0  0  0  0  0  0  0  0
   48.9650   31.9620   40.9170 N   0  0  0  0  0  0  0  0  0  0  0  0
   47.1260   32.6740   40.1550 H   0  0  0  0  0  0  0  0  0  0  0  0
   50.6950   31.2030   41.8480 H   0  0  0  0  0  0  0  0  0  0  0  0
   46.8870   30.9490   44.4190 C   0  0  0  0  0  0  0  0  0  0  0  0
   46.8810   31.7780   45.4890 C   0  0  0  0  0  0  0  0  0  0  0  0
   46.1640   31.4230   46.6130 C   0  0  0  0  0  0  0  0  0  0  0  0
   45.4390   30.2380   46.7010 C   0  0  0  0  0  0  0  0  0  0  0  0
   45.4790   29.4300   45.5800 C   0  0  0  0  0  0  0  0  0  0  0  0
   46.1860   29.7940   44.4890 N   0  0  0  0  0  0  0  0  0  0  0  0
   47.3930   32.7160   45.5640 H   0  0  0  0  0  0  0  0  0  0  0  0
   46.1300   32.0520   47.4920 H   0  0  0  0  0  0  0  0  0  0  0  0
   44.8800   29.9470   47.5580 H   0  0  0  0  0  0  0  0  0  0  0  0
   44.9700   28.4900   45.5020 H   0  0  0  0  0  0  0  0  0  0  0  0
   42.8990   33.1320   41.5420 C   0  0  0  0  0  0  0  0  0  0  0  0
   42.3140   32.8620   42.4200 H   0  0  0  0  0  0  0  0  0  0  0  0
   43.1900   32.2260   40.9270 H   0  0  0  0  0  0  0  0  0  0  0  0
   40.1680   33.7480   41.9920 F   0  0  0  0  0  0  0  0  0  0  0  0
   40.7140   34.1720   40.8040 C   0  0  0  0  0  0  0  0  0  0  0  0
   42.0400   33.8900   40.5540 C   0  0  0  0  0  0  0  0  0  0  0  0
   42.5630   34.3180   39.3770 C   0  0  0  0  0  0  0  0  0  0  0  0
   43.6040   34.0860   39.2010 H   0  0  0  0  0  0  0  0  0  0  0  0
   41.8780   35.0230   38.3920 C   0  0  0  0  0  0  0  0  0  0  0  0
   42.3030   35.3580   37.4570 H   0  0  0  0  0  0  0  0  0  0  0  0
   40.5480   35.2600   38.7340 C   0  0  0  0  0  0  0  0  0  0  0  0
   39.9340   34.8640   39.9020 C   0  0  0  0  0  0  0  0  0  0  0  0
  1  3  1  0  0  0  0
  2  1  2  0  0  0  0
  3  4  1  0  0  0  0
  4 10  1  0  0  0  0
  4  9  1  0  0  0  0
  5  4  1  0  0  0  0
  5 11  1  0  0  0  0
  6  5  1  0  0  0  0
  6 13  1  0  0  0  0
  7  6  1  0  0  0  0
  7 16  1  0  0  0  0
  8 17  1  6  0  0  0
  8  7  1  0  0  0  0
  8  3  1  0  0  0  0
 12  5  1  0  0  0  0
 14  6  1  0  0  0  0
 15  7  1  0  0  0  0
 18 19  1  0  0  0  0
 19  1  1  0  0  0  0
 19 20  2  0  0  0  0
 20 26  1  0  0  0  0
 21 20  1  0  0  0  0
 22 21  2  0  0  0  0
 23 18  2  0  0  0  0
 23 22  1  0  0  0  0
 24 18  1  0  0  0  0
 25 22  1  0  0  0  0
 26 31  2  0  0  0  0
 26 27  1  0  0  0  0
 27 32  1  0  0  0  0
 27 28  2  0  0  0  0
 28 29  1  0  0  0  0
 28 33  1  0  0  0  0
 29 34  1  0  0  0  0
 30 29  2  0  0  0  0
 31 30  1  0  0  0  0
 35 30  1  0  0  0  0
 36  8  1  0  0  0  0
 36 37  1  0  0  0  0
 38 36  1  0  0  0  0
 40 39  1  0  0  0  0
 41 40  1  0  0  0  0
 41 36  1  0  0  0  0
 42 41  2  0  0  0  0
 43 42  1  0  0  0  0
 44 46  2  0  0  0  0
 44 42  1  0  0  0  0
 45 44  1  0  0  0  0
 46 47  1  0  0  0  0
 47 40  2  0  0  0  0
M  END
>  <minimizedAffinity>
-5.30291367

>  <minimizedRMSD>
6.43384361

$$$$
