
 OpenBabel03242519483D

 38 40  0  0  1  0  0  0  0  0999 V2000
   39.0750   30.9500   39.3910 C   0  0  2  0  0  0  0  0  0  0  0  0
   39.1620   32.4240   39.3140 C   0  0  1  0  0  0  0  0  0  0  0  0
   38.4930   32.8760   40.5410 O   0  0  0  0  0  0  0  0  0  0  0  0
   37.2940   32.1630   40.3090 C   0  0  0  0  0  0  0  0  0  0  0  0
   37.8590   30.7190   40.2710 C   0  0  2  0  0  0  0  0  0  0  0  0
   38.9850   30.4500   38.4080 H   0  0  0  0  0  0  0  0  0  0  0  0
   38.5130   32.8540   38.5370 H   0  0  0  0  0  0  0  0  0  0  0  0
   36.5070   32.3140   41.0070 H   0  0  0  0  0  0  0  0  0  0  0  0
   37.0220   32.3940   39.2470 H   0  0  0  0  0  0  0  0  0  0  0  0
   37.0590   30.0900   39.8130 H   0  0  0  0  0  0  0  0  0  0  0  0
   42.1880   33.8350   37.8450 C   0  0  0  0  0  0  0  0  0  0  0  0
   43.0230   34.0550   38.9510 C   0  0  0  0  0  0  0  0  0  0  0  0
   42.5410   33.7060   40.2310 C   0  0  0  0  0  0  0  0  0  0  0  0
   41.3020   33.1760   40.3430 N   0  0  0  0  0  0  0  0  0  0  0  0
   40.5160   32.9750   39.2470 C   0  0  0  0  0  0  0  0  0  0  0  0
   40.9470   33.2990   38.0100 N   0  0  0  0  0  0  0  0  0  0  0  0
   43.9900   34.4820   38.7330 H   0  0  0  0  0  0  0  0  0  0  0  0
   43.2010   33.8870   41.0550 H   0  0  0  0  0  0  0  0  0  0  0  0
   42.6080   34.1590   36.5590 O   0  0  0  0  0  0  0  0  0  0  0  0
   42.4350   35.0910   36.1690 H   0  0  0  0  0  0  0  0  0  0  0  0
   40.2250   30.4450   40.0930 O   0  0  0  0  0  0  0  0  0  0  0  0
   40.0640   30.6180   41.0690 H   0  0  0  0  0  0  0  0  0  0  0  0
   38.2140   30.3810   41.5450 O   0  0  0  0  0  0  0  0  0  0  0  0
   37.4080   29.4550   42.1640 C   0  0  0  0  0  0  0  0  0  0  0  0
   36.3700   29.7290   42.1470 H   0  0  0  0  0  0  0  0  0  0  0  0
   37.3570   28.5350   41.3940 H   0  0  0  0  0  0  0  0  0  0  0  0
   37.9180   28.8110   43.3750 C   0  0  0  0  0  0  0  0  0  0  0  0
   38.7230   29.3900   43.9000 H   0  0  0  0  0  0  0  0  0  0  0  0
   37.0990   28.7820   44.1240 H   0  0  0  0  0  0  0  0  0  0  0  0
   36.5910   26.5060   42.0040 F   0  0  0  0  0  0  0  0  0  0  0  0
   37.8000   26.3010   42.5560 C   0  0  0  0  0  0  0  0  0  0  0  0
   38.3520   27.4040   43.1450 C   0  0  0  0  0  0  0  0  0  0  0  0
   39.6130   27.0670   43.6800 C   0  0  0  0  0  0  0  0  0  0  0  0
   40.2060   27.8440   44.1970 H   0  0  0  0  0  0  0  0  0  0  0  0
   40.2490   25.8480   43.6530 C   0  0  0  0  0  0  0  0  0  0  0  0
   41.2200   25.7010   44.0980 H   0  0  0  0  0  0  0  0  0  0  0  0
   39.5730   24.8260   43.0250 C   0  0  0  0  0  3  0  0  0  0  0  0
   38.3340   25.0440   42.4670 C   0  0  0  0  0  3  0  0  0  0  0  0
  1  6  1  6  0  0  0
  1 21  1  0  0  0  0
  1  5  1  0  0  0  0
  2  7  1  6  0  0  0
  2  1  1  0  0  0  0
  2  3  1  0  0  0  0
  4  3  1  0  0  0  0
  4  8  1  0  0  0  0
  5 10  1  6  0  0  0
  5  4  1  0  0  0  0
  5 23  1  0  0  0  0
  9  4  1  0  0  0  0
 11 16  2  0  0  0  0
 11 12  1  0  0  0  0
 12 13  2  0  0  0  0
 13 14  1  0  0  0  0
 13 18  1  0  0  0  0
 15  2  1  0  0  0  0
 15 14  2  0  0  0  0
 16 15  1  0  0  0  0
 17 12  1  0  0  0  0
 19 11  1  0  0  0  0
 20 19  1  0  0  0  0
 21 22  1  0  0  0  0
 23 24  1  0  0  0  0
 24 27  1  0  0  0  0
 25 24  1  0  0  0  0
 26 24  1  0  0  0  0
 27 28  1  0  0  0  0
 27 29  1  0  0  0  0
 30 31  1  0  0  0  0
 31 32  1  0  0  0  0
 32 27  1  0  0  0  0
 32 33  2  0  0  0  0
 33 34  1  0  0  0  0
 35 33  1  0  0  0  0
 35 36  1  0  0  0  0
 37 35  2  0  0  0  0
 38 31  2  0  0  0  0
 38 37  1  0  0  0  0
M  END
>  <minimizedAffinity>
-6.12484455

$$$$

 OpenBabel03242519483D

 38 40  0  0  1  0  0  0  0  0999 V2000
   38.1540   31.1670   37.7100 C   0  0  2  0  0  0  0  0  0  0  0  0
   39.0410   32.0100   38.5400 C   0  0  1  0  0  0  0  0  0  0  0  0
   38.8030   31.5230   39.9060 O   0  0  0  0  0  0  0  0  0  0  0  0
   37.4000   31.6900   39.8650 C   0  0  0  0  0  0  0  0  0  0  0  0
   37.0650   30.7450   38.6810 C   0  0  2  0  0  0  0  0  0  0  0  0
   37.7480   31.6790   36.8170 H   0  0  0  0  0  0  0  0  0  0  0  0
   38.6980   33.0520   38.6140 H   0  0  0  0  0  0  0  0  0  0  0  0
   36.8680   31.4850   40.7620 H   0  0  0  0  0  0  0  0  0  0  0  0
   37.2450   32.7240   39.4610 H   0  0  0  0  0  0  0  0  0  0  0  0
   36.0270   31.0070   38.3660 H   0  0  0  0  0  0  0  0  0  0  0  0
   42.2930   33.0420   37.2520 C   0  0  0  0  0  0  0  0  0  0  0  0
   43.1370   31.9690   37.5790 C   0  0  0  0  0  0  0  0  0  0  0  0
   42.5770   30.8610   38.2510 C   0  0  0  0  0  0  0  0  0  0  0  0
   41.2590   30.8750   38.5530 N   0  0  0  0  0  0  0  0  0  0  0  0
   40.4670   31.9350   38.2210 C   0  0  0  0  0  0  0  0  0  0  0  0
   40.9710   33.0090   37.5790 N   0  0  0  0  0  0  0  0  0  0  0  0
   44.1690   32.0760   37.2840 H   0  0  0  0  0  0  0  0  0  0  0  0
   43.2460   30.0580   38.4880 H   0  0  0  0  0  0  0  0  0  0  0  0
   42.7870   34.1610   36.5900 O   0  0  0  0  0  0  0  0  0  0  0  0
   43.1610   34.9590   37.1140 H   0  0  0  0  0  0  0  0  0  0  0  0
   38.8670   29.9820   37.3120 O   0  0  0  0  0  0  0  0  0  0  0  0
   38.8820   29.3740   38.1110 H   0  0  0  0  0  0  0  0  0  0  0  0
   37.2410   29.4640   39.1140 O   0  0  0  0  0  0  0  0  0  0  0  0
   36.0970   28.7920   39.4740 C   0  0  0  0  0  0  0  0  0  0  0  0
   35.2930   28.9360   38.7780 H   0  0  0  0  0  0  0  0  0  0  0  0
   36.3320   27.6400   39.2310 H   0  0  0  0  0  0  0  0  0  0  0  0
   35.7580   28.7400   40.8970 C   0  0  0  0  0  0  0  0  0  0  0  0
   35.4240   29.7220   41.3270 H   0  0  0  0  0  0  0  0  0  0  0  0
   34.8620   28.0960   41.0170 H   0  0  0  0  0  0  0  0  0  0  0  0
   37.7930   29.9710   42.7120 F   0  0  0  0  0  0  0  0  0  0  0  0
   37.8130   28.6350   42.5560 C   0  0  0  0  0  0  0  0  0  0  0  0
   36.8410   28.1450   41.7290 C   0  0  0  0  0  0  0  0  0  0  0  0
   36.9600   26.7420   41.6490 C   0  0  0  0  0  0  0  0  0  0  0  0
   36.2500   26.1740   41.0190 H   0  0  0  0  0  0  0  0  0  0  0  0
   37.8810   25.9300   42.2700 C   0  0  0  0  0  0  0  0  0  0  0  0
   37.8810   24.8600   42.1360 H   0  0  0  0  0  0  0  0  0  0  0  0
   38.8010   26.5640   43.0740 C   0  0  0  0  0  3  0  0  0  0  0  0
   38.7760   27.9320   43.2260 C   0  0  0  0  0  3  0  0  0  0  0  0
  1  6  1  6  0  0  0
  1  2  1  0  0  0  0
  1  5  1  0  0  0  0
  2  7  1  6  0  0  0
  2  3  1  0  0  0  0
  4  3  1  0  0  0  0
  4  8  1  0  0  0  0
  5 10  1  6  0  0  0
  5 23  1  0  0  0  0
  5  4  1  0  0  0  0
  9  4  1  0  0  0  0
 11 12  2  0  0  0  0
 11 16  1  0  0  0  0
 12 13  1  0  0  0  0
 13 18  1  0  0  0  0
 13 14  2  0  0  0  0
 15  2  1  0  0  0  0
 15 14  1  0  0  0  0
 16 15  2  0  0  0  0
 17 12  1  0  0  0  0
 19 20  1  0  0  0  0
 19 11  1  0  0  0  0
 21  1  1  0  0  0  0
 21 22  1  0  0  0  0
 23 24  1  0  0  0  0
 24 27  1  0  0  0  0
 25 24  1  0  0  0  0
 26 24  1  0  0  0  0
 27 29  1  0  0  0  0
 27 28  1  0  0  0  0
 27 32  1  0  0  0  0
 31 30  1  0  0  0  0
 31 38  1  0  0  0  0
 32 31  2  0  0  0  0
 33 32  1  0  0  0  0
 33 35  2  0  0  0  0
 34 33  1  0  0  0  0
 35 37  1  0  0  0  0
 36 35  1  0  0  0  0
 37 38  2  0  0  0  0
M  END
>  <minimizedAffinity>
-5.69038439

$$$$

 OpenBabel03242519483D

 38 40  0  0  1  0  0  0  0  0999 V2000
   37.7000   29.1940   42.0830 C   0  0  2  0  0  0  0  0  0  0  0  0
   37.1160   27.8610   42.3470 C   0  0  1  0  0  0  0  0  0  0  0  0
   36.4110   27.5380   41.1000 O   0  0  0  0  0  0  0  0  0  0  0  0
   35.6400   28.7230   41.0710 C   0  0  0  0  0  0  0  0  0  0  0  0
   36.7840   29.7700   41.0170 C   0  0  2  0  0  0  0  0  0  0  0  0
   37.7680   29.8440   42.9760 H   0  0  0  0  0  0  0  0  0  0  0  0
   36.2870   27.8900   43.0690 H   0  0  0  0  0  0  0  0  0  0  0  0
   34.9230   28.8070   40.2920 H   0  0  0  0  0  0  0  0  0  0  0  0
   35.2150   28.8150   42.1040 H   0  0  0  0  0  0  0  0  0  0  0  0
   36.3150   30.7480   41.2770 H   0  0  0  0  0  0  0  0  0  0  0  0
   38.6270   24.5420   42.3890 C   0  0  0  0  0  0  0  0  0  0  0  0
   39.7890   24.7140   43.1570 C   0  0  0  0  0  0  0  0  0  0  0  0
   40.0590   25.9980   43.6790 C   0  0  0  0  0  0  0  0  0  0  0  0
   39.1940   27.0050   43.4220 N   0  0  0  0  0  0  0  0  0  0  0  0
   38.0740   26.8040   42.6710 C   0  0  0  0  0  0  0  0  0  0  0  0
   37.7870   25.5890   42.1580 N   0  0  0  0  0  0  0  0  0  0  0  0
   40.3980   23.8340   43.2920 H   0  0  0  0  0  0  0  0  0  0  0  0
   40.9540   26.0980   44.2600 H   0  0  0  0  0  0  0  0  0  0  0  0
   38.3080   23.3010   41.8480 O   0  0  0  0  0  0  0  0  0  0  0  0
   38.6440   23.0310   40.9180 H   0  0  0  0  0  0  0  0  0  0  0  0
   39.0040   29.0300   41.4970 O   0  0  0  0  0  0  0  0  0  0  0  0
   38.8570   28.7800   40.5360 H   0  0  0  0  0  0  0  0  0  0  0  0
   37.3470   29.7010   39.7760 O   0  0  0  0  0  0  0  0  0  0  0  0
   36.6380   30.3050   38.7640 C   0  0  0  0  0  0  0  0  0  0  0  0
   35.8760   29.6700   38.3540 H   0  0  0  0  0  0  0  0  0  0  0  0
   35.9250   31.0930   39.3220 H   0  0  0  0  0  0  0  0  0  0  0  0
   37.3750   31.1640   37.8360 C   0  0  0  0  0  0  0  0  0  0  0  0
   37.9140   30.6080   37.0240 H   0  0  0  0  0  0  0  0  0  0  0  0
   36.6400   31.7790   37.2750 H   0  0  0  0  0  0  0  0  0  0  0  0
   40.3570   31.4050   37.8380 F   0  0  0  0  0  0  0  0  0  0  0  0
   39.6550   32.2640   38.5970 C   0  0  0  0  0  0  0  0  0  0  0  0
   38.2990   32.1060   38.5280 C   0  0  0  0  0  0  0  0  0  0  0  0
   37.6750   33.0610   39.3570 C   0  0  0  0  0  0  0  0  0  0  0  0
   36.5710   33.0810   39.4250 H   0  0  0  0  0  0  0  0  0  0  0  0
   38.2680   34.0250   40.1400 C   0  0  0  0  0  0  0  0  0  0  0  0
   37.6890   34.7090   40.7400 H   0  0  0  0  0  0  0  0  0  0  0  0
   39.6430   34.0660   40.1100 C   0  0  0  0  0  3  0  0  0  0  0  0
   40.3550   33.1800   39.3330 C   0  0  0  0  0  3  0  0  0  0  0  0
  1  2  1  0  0  0  0
  1  6  1  1  0  0  0
  2 15  1  0  0  0  0
  2  7  1  1  0  0  0
  3  2  1  0  0  0  0
  4  3  1  0  0  0  0
  4  9  1  0  0  0  0
  5  4  1  0  0  0  0
  5 10  1  1  0  0  0
  5  1  1  0  0  0  0
  8  4  1  0  0  0  0
 11 12  1  0  0  0  0
 12 17  1  0  0  0  0
 12 13  2  0  0  0  0
 13 18  1  0  0  0  0
 14 13  1  0  0  0  0
 15 14  2  0  0  0  0
 16 11  2  0  0  0  0
 16 15  1  0  0  0  0
 19 11  1  0  0  0  0
 20 19  1  0  0  0  0
 21  1  1  0  0  0  0
 22 21  1  0  0  0  0
 23  5  1  0  0  0  0
 24 26  1  0  0  0  0
 24 23  1  0  0  0  0
 25 24  1  0  0  0  0
 27 32  1  0  0  0  0
 27 24  1  0  0  0  0
 28 27  1  0  0  0  0
 29 27  1  0  0  0  0
 30 31  1  0  0  0  0
 31 38  1  0  0  0  0
 32 31  2  0  0  0  0
 32 33  1  0  0  0  0
 33 34  1  0  0  0  0
 33 35  2  0  0  0  0
 35 36  1  0  0  0  0
 37 35  1  0  0  0  0
 38 37  2  0  0  0  0
M  END
>  <minimizedAffinity>
-5.63895464

$$$$

 OpenBabel03242519483D

 38 40  0  0  1  0  0  0  0  0999 V2000
   37.8000   27.3380   37.7110 C   0  0  2  0  0  0  0  0  0  0  0  0
   36.5480   28.1110   37.8620 C   0  0  1  0  0  0  0  0  0  0  0  0
   35.7510   27.3010   38.7930 O   0  0  0  0  0  0  0  0  0  0  0  0
   35.8320   26.1090   38.0370 C   0  0  0  0  0  0  0  0  0  0  0  0
   37.3720   25.9160   38.0300 C   0  0  2  0  0  0  0  0  0  0  0  0
   38.2660   27.4240   36.7110 H   0  0  0  0  0  0  0  0  0  0  0  0
   35.9190   28.0940   36.9600 H   0  0  0  0  0  0  0  0  0  0  0  0
   35.2810   25.2760   38.3990 H   0  0  0  0  0  0  0  0  0  0  0  0
   35.5750   26.4150   36.9900 H   0  0  0  0  0  0  0  0  0  0  0  0
   37.5810   25.1700   37.2270 H   0  0  0  0  0  0  0  0  0  0  0  0
   36.2900   30.9060   40.1910 C   0  0  0  0  0  0  0  0  0  0  0  0
   36.9360   31.9580   39.5230 C   0  0  0  0  0  0  0  0  0  0  0  0
   37.4670   31.7050   38.2390 C   0  0  0  0  0  0  0  0  0  0  0  0
   37.3350   30.4700   37.7070 N   0  0  0  0  0  0  0  0  0  0  0  0
   36.7020   29.4700   38.3840 C   0  0  0  0  0  0  0  0  0  0  0  0
   36.1830   29.6780   39.6120 N   0  0  0  0  0  0  0  0  0  0  0  0
   36.9760   32.8970   40.0520 H   0  0  0  0  0  0  0  0  0  0  0  0
   37.9550   32.5270   37.7550 H   0  0  0  0  0  0  0  0  0  0  0  0
   35.7470   31.0940   41.4580 O   0  0  0  0  0  0  0  0  0  0  0  0
   36.3090   30.9330   42.3000 H   0  0  0  0  0  0  0  0  0  0  0  0
   38.7350   27.7510   38.7240 O   0  0  0  0  0  0  0  0  0  0  0  0
   38.4390   27.3180   39.5800 H   0  0  0  0  0  0  0  0  0  0  0  0
   37.7460   25.5450   39.2880 O   0  0  0  0  0  0  0  0  0  0  0  0
   37.1970   24.3740   39.7540 C   0  0  0  0  0  0  0  0  0  0  0  0
   36.5540   23.9020   39.0370 H   0  0  0  0  0  0  0  0  0  0  0  0
   38.1000   23.5840   39.7260 H   0  0  0  0  0  0  0  0  0  0  0  0
   36.7930   24.3250   41.1610 C   0  0  0  0  0  0  0  0  0  0  0  0
   35.7090   24.5570   41.3360 H   0  0  0  0  0  0  0  0  0  0  0  0
   36.8860   23.2760   41.5110 H   0  0  0  0  0  0  0  0  0  0  0  0
   36.5210   27.1360   42.1480 F   0  0  0  0  0  0  0  0  0  0  0  0
   37.6140   26.4420   42.5130 C   0  0  0  0  0  0  0  0  0  0  0  0
   37.6570   25.1600   42.0410 C   0  0  0  0  0  0  0  0  0  0  0  0
   38.8400   24.5360   42.4910 C   0  0  0  0  0  0  0  0  0  0  0  0
   39.0420   23.4880   42.2030 H   0  0  0  0  0  0  0  0  0  0  0  0
   39.8350   25.0680   43.2780 C   0  0  0  0  0  0  0  0  0  0  0  0
   40.7040   24.4970   43.5640 H   0  0  0  0  0  0  0  0  0  0  0  0
   39.6560   26.3730   43.6800 C   0  0  0  0  0  3  0  0  0  0  0  0
   38.5370   27.0770   43.2990 C   0  0  0  0  0  3  0  0  0  0  0  0
  1  6  1  6  0  0  0
  1  2  1  0  0  0  0
  1  5  1  0  0  0  0
  1 21  1  0  0  0  0
  2  7  1  6  0  0  0
  2 15  1  0  0  0  0
  2  3  1  0  0  0  0
  4  8  1  0  0  0  0
  4  3  1  0  0  0  0
  5 10  1  6  0  0  0
  5  4  1  0  0  0  0
  5 23  1  0  0  0  0
  9  4  1  0  0  0  0
 11 19  1  0  0  0  0
 12 17  1  0  0  0  0
 12 11  2  0  0  0  0
 13 12  1  0  0  0  0
 14 13  2  0  0  0  0
 14 15  1  0  0  0  0
 15 16  2  0  0  0  0
 16 11  1  0  0  0  0
 18 13  1  0  0  0  0
 19 20  1  0  0  0  0
 21 22  1  0  0  0  0
 23 24  1  0  0  0  0
 24 27  1  0  0  0  0
 25 24  1  0  0  0  0
 26 24  1  0  0  0  0
 27 28  1  0  0  0  0
 27 29  1  0  0  0  0
 27 32  1  0  0  0  0
 30 31  1  0  0  0  0
 31 38  1  0  0  0  0
 32 33  1  0  0  0  0
 32 31  2  0  0  0  0
 33 35  2  0  0  0  0
 34 33  1  0  0  0  0
 35 36  1  0  0  0  0
 35 37  1  0  0  0  0
 38 37  2  0  0  0  0
M  END
>  <minimizedAffinity>
-5.5793004

$$$$

 OpenBabel03242519483D

 38 40  0  0  1  0  0  0  0  0999 V2000
   35.6970   29.6130   40.4320 C   0  0  2  0  0  0  0  0  0  0  0  0
   35.9440   30.3670   39.1840 C   0  0  1  0  0  0  0  0  0  0  0  0
   37.3380   30.8100   39.3170 O   0  0  0  0  0  0  0  0  0  0  0  0
   37.1600   31.4380   40.5720 C   0  0  0  0  0  0  0  0  0  0  0  0
   36.6960   30.2130   41.4050 C   0  0  2  0  0  0  0  0  0  0  0  0
   34.6560   29.6800   40.8010 H   0  0  0  0  0  0  0  0  0  0  0  0
   35.4090   31.3270   39.1470 H   0  0  0  0  0  0  0  0  0  0  0  0
   37.9980   31.9550   40.9700 H   0  0  0  0  0  0  0  0  0  0  0  0
   36.2410   32.0670   40.4500 H   0  0  0  0  0  0  0  0  0  0  0  0
   36.2510   30.6310   42.3390 H   0  0  0  0  0  0  0  0  0  0  0  0
   36.8570   28.6720   36.0860 C   0  0  0  0  0  0  0  0  0  0  0  0
   35.6360   28.1740   35.6060 C   0  0  0  0  0  0  0  0  0  0  0  0
   34.4690   28.4310   36.3580 C   0  0  0  0  0  0  0  0  0  0  0  0
   34.5720   29.1410   37.5040 N   0  0  0  0  0  0  0  0  0  0  0  0
   35.7750   29.6100   37.9430 C   0  0  0  0  0  0  0  0  0  0  0  0
   36.9080   29.3820   37.2470 N   0  0  0  0  0  0  0  0  0  0  0  0
   35.6840   27.6240   34.6800 H   0  0  0  0  0  0  0  0  0  0  0  0
   33.5530   28.0380   35.9670 H   0  0  0  0  0  0  0  0  0  0  0  0
   38.0400   28.4510   35.3880 O   0  0  0  0  0  0  0  0  0  0  0  0
   38.6110   27.6190   35.5710 H   0  0  0  0  0  0  0  0  0  0  0  0
   36.0570   28.2350   40.2300 O   0  0  0  0  0  0  0  0  0  0  0  0
   37.0590   28.1910   40.2700 H   0  0  0  0  0  0  0  0  0  0  0  0
   37.7790   29.4030   41.5820 O   0  0  0  0  0  0  0  0  0  0  0  0
   38.2200   29.2700   42.8780 C   0  0  0  0  0  0  0  0  0  0  0  0
   39.2680   29.4760   42.9830 H   0  0  0  0  0  0  0  0  0  0  0  0
   37.7950   30.2400   43.4440 H   0  0  0  0  0  0  0  0  0  0  0  0
   37.6610   28.1800   43.6790 C   0  0  0  0  0  0  0  0  0  0  0  0
   37.8560   28.2720   44.7810 H   0  0  0  0  0  0  0  0  0  0  0  0
   36.5540   28.2350   43.6140 H   0  0  0  0  0  0  0  0  0  0  0  0
   40.2980   26.7670   43.6490 F   0  0  0  0  0  0  0  0  0  0  0  0
   39.2370   26.1340   43.1170 C   0  0  0  0  0  0  0  0  0  0  0  0
   38.0640   26.8330   43.1870 C   0  0  0  0  0  0  0  0  0  0  0  0
   37.0300   26.0700   42.6060 C   0  0  0  0  0  0  0  0  0  0  0  0
   36.0050   26.4830   42.5750 H   0  0  0  0  0  0  0  0  0  0  0  0
   37.1130   24.8190   42.0400 C   0  0  0  0  0  0  0  0  0  0  0  0
   36.2510   24.3240   41.6200 H   0  0  0  0  0  0  0  0  0  0  0  0
   38.3590   24.2350   42.0400 C   0  0  0  0  0  3  0  0  0  0  0  0
   39.4410   24.8910   42.5830 C   0  0  0  0  0  3  0  0  0  0  0  0
  1  6  1  1  0  0  0
  1  5  1  0  0  0  0
  2  7  1  6  0  0  0
  2  3  1  0  0  0  0
  2  1  1  0  0  0  0
  3  4  1  0  0  0  0
  4  8  1  0  0  0  0
  4  5  1  0  0  0  0
  5 23  1  0  0  0  0
  5 10  1  1  0  0  0
  9  4  1  0  0  0  0
 11 16  1  0  0  0  0
 12 11  2  0  0  0  0
 12 13  1  0  0  0  0
 13 14  2  0  0  0  0
 14 15  1  0  0  0  0
 15  2  1  0  0  0  0
 16 15  2  0  0  0  0
 17 12  1  0  0  0  0
 18 13  1  0  0  0  0
 19 20  1  0  0  0  0
 19 11  1  0  0  0  0
 21 22  1  0  0  0  0
 21  1  1  0  0  0  0
 23 24  1  0  0  0  0
 24 25  1  0  0  0  0
 24 26  1  0  0  0  0
 24 27  1  0  0  0  0
 27 28  1  0  0  0  0
 29 27  1  0  0  0  0
 31 32  1  0  0  0  0
 31 30  1  0  0  0  0
 32 27  1  0  0  0  0
 33 32  2  0  0  0  0
 34 33  1  0  0  0  0
 35 33  1  0  0  0  0
 36 35  1  0  0  0  0
 37 35  2  0  0  0  0
 37 38  1  0  0  0  0
 38 31  2  0  0  0  0
M  END
>  <minimizedAffinity>
-5.56042099

$$$$

 OpenBabel03242519483D

 38 40  0  0  1  0  0  0  0  0999 V2000
   38.9610   31.3310   38.8970 C   0  0  2  0  0  0  0  0  0  0  0  0
   39.1740   32.7330   39.3180 C   0  0  1  0  0  0  0  0  0  0  0  0
   38.6860   32.7570   40.7030 O   0  0  0  0  0  0  0  0  0  0  0  0
   37.4090   32.2280   40.4050 C   0  0  0  0  0  0  0  0  0  0  0  0
   37.8330   30.8640   39.7990 C   0  0  2  0  0  0  0  0  0  0  0  0
   38.7200   31.2130   37.8230 H   0  0  0  0  0  0  0  0  0  0  0  0
   38.4860   33.4380   38.8290 H   0  0  0  0  0  0  0  0  0  0  0  0
   36.7190   32.1620   41.2100 H   0  0  0  0  0  0  0  0  0  0  0  0
   37.0460   32.8300   39.5320 H   0  0  0  0  0  0  0  0  0  0  0  0
   36.9330   30.4750   39.2650 H   0  0  0  0  0  0  0  0  0  0  0  0
   42.3060   33.9150   37.8720 C   0  0  0  0  0  0  0  0  0  0  0  0
   43.1270   34.1370   38.9890 C   0  0  0  0  0  0  0  0  0  0  0  0
   42.5960   33.8690   40.2690 C   0  0  0  0  0  0  0  0  0  0  0  0
   41.3270   33.4120   40.3700 N   0  0  0  0  0  0  0  0  0  0  0  0
   40.5570   33.2070   39.2640 C   0  0  0  0  0  0  0  0  0  0  0  0
   41.0340   33.4540   38.0260 N   0  0  0  0  0  0  0  0  0  0  0  0
   44.1190   34.5010   38.7780 H   0  0  0  0  0  0  0  0  0  0  0  0
   43.2450   34.0490   41.1020 H   0  0  0  0  0  0  0  0  0  0  0  0
   42.7730   34.1610   36.5850 O   0  0  0  0  0  0  0  0  0  0  0  0
   42.6610   35.0840   36.1520 H   0  0  0  0  0  0  0  0  0  0  0  0
   40.1300   30.5580   39.2230 O   0  0  0  0  0  0  0  0  0  0  0  0
   40.0930   30.3850   40.2120 H   0  0  0  0  0  0  0  0  0  0  0  0
   38.2910   30.0850   40.8210 O   0  0  0  0  0  0  0  0  0  0  0  0
   37.4970   29.0140   41.1580 C   0  0  0  0  0  0  0  0  0  0  0  0
   37.8880   28.4510   41.9840 H   0  0  0  0  0  0  0  0  0  0  0  0
   36.5510   29.5010   41.7120 H   0  0  0  0  0  0  0  0  0  0  0  0
   36.8620   28.2680   40.0700 C   0  0  0  0  0  0  0  0  0  0  0  0
   35.8520   28.6580   39.7740 H   0  0  0  0  0  0  0  0  0  0  0  0
   37.4680   28.4130   39.1510 H   0  0  0  0  0  0  0  0  0  0  0  0
   36.1230   25.9540   38.3240 F   0  0  0  0  0  0  0  0  0  0  0  0
   36.4570   25.6990   39.6010 C   0  0  0  0  0  0  0  0  0  0  0  0
   36.8020   26.8030   40.3300 C   0  0  0  0  0  0  0  0  0  0  0  0
   37.1350   26.4100   41.6430 C   0  0  0  0  0  0  0  0  0  0  0  0
   37.4410   27.1790   42.3770 H   0  0  0  0  0  0  0  0  0  0  0  0
   37.1330   25.1420   42.1780 C   0  0  0  0  0  0  0  0  0  0  0  0
   37.4060   24.9550   43.2040 H   0  0  0  0  0  0  0  0  0  0  0  0
   36.7630   24.1270   41.3250 C   0  0  0  0  0  3  0  0  0  0  0  0
   36.4190   24.3970   40.0200 C   0  0  0  0  0  3  0  0  0  0  0  0
  1  6  1  6  0  0  0
  1 21  1  0  0  0  0
  1  2  1  0  0  0  0
  1  5  1  0  0  0  0
  2  7  1  6  0  0  0
  2  3  1  0  0  0  0
  4  3  1  0  0  0  0
  4  8  1  0  0  0  0
  5 10  1  6  0  0  0
  5  4  1  0  0  0  0
  5 23  1  0  0  0  0
  9  4  1  0  0  0  0
 11 16  2  0  0  0  0
 11 12  1  0  0  0  0
 12 13  2  0  0  0  0
 13 14  1  0  0  0  0
 13 18  1  0  0  0  0
 15  2  1  0  0  0  0
 15 14  2  0  0  0  0
 16 15  1  0  0  0  0
 17 12  1  0  0  0  0
 19 11  1  0  0  0  0
 20 19  1  0  0  0  0
 21 22  1  0  0  0  0
 23 24  1  0  0  0  0
 24 26  1  0  0  0  0
 24 25  1  0  0  0  0
 27 32  1  0  0  0  0
 27 24  1  0  0  0  0
 28 27  1  0  0  0  0
 29 27  1  0  0  0  0
 30 31  1  0  0  0  0
 31 38  2  0  0  0  0
 31 32  1  0  0  0  0
 32 33  2  0  0  0  0
 33 35  1  0  0  0  0
 33 34  1  0  0  0  0
 35 36  1  0  0  0  0
 37 35  2  0  0  0  0
 38 37  1  0  0  0  0
M  END
>  <minimizedAffinity>
-5.55449915

$$$$

 OpenBabel03242519483D

 38 40  0  0  1  0  0  0  0  0999 V2000
   40.3460   28.6950   41.5570 C   0  0  2  0  0  0  0  0  0  0  0  0
   39.3730   28.2790   42.5900 C   0  0  1  0  0  0  0  0  0  0  0  0
   38.3300   29.3110   42.5200 O   0  0  0  0  0  0  0  0  0  0  0  0
   39.2120   30.4030   42.6900 C   0  0  0  0  0  0  0  0  0  0  0  0
   40.1200   30.1920   41.4500 C   0  0  2  0  0  0  0  0  0  0  0  0
   41.3960   28.4420   41.7980 H   0  0  0  0  0  0  0  0  0  0  0  0
   39.7490   28.4130   43.6150 H   0  0  0  0  0  0  0  0  0  0  0  0
   38.7700   31.3670   42.7590 H   0  0  0  0  0  0  0  0  0  0  0  0
   39.8520   30.1230   43.5660 H   0  0  0  0  0  0  0  0  0  0  0  0
   41.0270   30.8190   41.6260 H   0  0  0  0  0  0  0  0  0  0  0  0
   39.0640   24.6470   42.7210 C   0  0  0  0  0  0  0  0  0  0  0  0
   37.8010   24.3990   42.1620 C   0  0  0  0  0  0  0  0  0  0  0  0
   37.0380   25.5030   41.7220 C   0  0  0  0  0  0  0  0  0  0  0  0
   37.5500   26.7480   41.8560 N   0  0  0  0  0  0  0  0  0  0  0  0
   38.7810   26.9530   42.4050 C   0  0  0  0  0  0  0  0  0  0  0  0
   39.5340   25.9200   42.8340 N   0  0  0  0  0  0  0  0  0  0  0  0
   37.5050   23.3630   42.1090 H   0  0  0  0  0  0  0  0  0  0  0  0
   36.0780   25.2830   41.3010 H   0  0  0  0  0  0  0  0  0  0  0  0
   39.8610   23.6000   43.1720 O   0  0  0  0  0  0  0  0  0  0  0  0
   39.7920   23.2650   44.1390 H   0  0  0  0  0  0  0  0  0  0  0  0
   39.9780   28.1050   40.2970 O   0  0  0  0  0  0  0  0  0  0  0  0
   39.2050   28.6410   39.9450 H   0  0  0  0  0  0  0  0  0  0  0  0
   39.3890   30.5160   40.3440 O   0  0  0  0  0  0  0  0  0  0  0  0
   38.9710   31.8230   40.2660 C   0  0  0  0  0  0  0  0  0  0  0  0
   39.0340   32.3370   41.2050 H   0  0  0  0  0  0  0  0  0  0  0  0
   39.8610   32.3930   39.6960 H   0  0  0  0  0  0  0  0  0  0  0  0
   37.8220   32.1190   39.4080 C   0  0  0  0  0  0  0  0  0  0  0  0
   37.3360   33.1100   39.6150 H   0  0  0  0  0  0  0  0  0  0  0  0
   38.1870   32.2320   38.3660 H   0  0  0  0  0  0  0  0  0  0  0  0
   36.0080   31.0620   41.5400 F   0  0  0  0  0  0  0  0  0  0  0  0
   35.9660   30.4790   40.3290 C   0  0  0  0  0  0  0  0  0  0  0  0
   36.8060   31.0290   39.4030 C   0  0  0  0  0  0  0  0  0  0  0  0
   36.6690   30.3400   38.1800 C   0  0  0  0  0  0  0  0  0  0  0  0
   37.2780   30.6530   37.3110 H   0  0  0  0  0  0  0  0  0  0  0  0
   35.8460   29.2760   37.8920 C   0  0  0  0  0  0  0  0  0  0  0  0
   35.8220   28.8210   36.9140 H   0  0  0  0  0  0  0  0  0  0  0  0
   35.0530   28.8270   38.9240 C   0  0  0  0  0  3  0  0  0  0  0  0
   35.1060   29.4280   40.1610 C   0  0  0  0  0  3  0  0  0  0  0  0
  1  6  1  1  0  0  0
  1  2  1  0  0  0  0
  2  7  1  1  0  0  0
  3  2  1  0  0  0  0
  3  4  1  0  0  0  0
  4  8  1  0  0  0  0
  4  9  1  0  0  0  0
  5  1  1  0  0  0  0
  5 10  1  1  0  0  0
  5  4  1  0  0  0  0
 11 16  1  0  0  0  0
 11 19  1  0  0  0  0
 12 11  2  0  0  0  0
 13 14  2  0  0  0  0
 13 12  1  0  0  0  0
 14 15  1  0  0  0  0
 15  2  1  0  0  0  0
 15 16  2  0  0  0  0
 17 12  1  0  0  0  0
 18 13  1  0  0  0  0
 19 20  1  0  0  0  0
 21  1  1  0  0  0  0
 22 21  1  0  0  0  0
 23  5  1  0  0  0  0
 24 23  1  0  0  0  0
 24 25  1  0  0  0  0
 26 24  1  0  0  0  0
 27 28  1  0  0  0  0
 27 24  1  0  0  0  0
 29 27  1  0  0  0  0
 31 30  1  0  0  0  0
 32 27  1  0  0  0  0
 32 31  2  0  0  0  0
 33 32  1  0  0  0  0
 34 33  1  0  0  0  0
 35 33  2  0  0  0  0
 35 37  1  0  0  0  0
 36 35  1  0  0  0  0
 37 38  2  0  0  0  0
 38 31  1  0  0  0  0
M  END
>  <minimizedAffinity>
-5.53928852

$$$$

 OpenBabel03242519483D

 38 40  0  0  1  0  0  0  0  0999 V2000
   36.6000   29.8580   38.8880 C   0  0  2  0  0  0  0  0  0  0  0  0
   36.3530   30.7150   40.0670 C   0  0  1  0  0  0  0  0  0  0  0  0
   36.3770   29.7720   41.1930 O   0  0  0  0  0  0  0  0  0  0  0  0
   35.4010   28.9000   40.6580 C   0  0  0  0  0  0  0  0  0  0  0  0
   36.1170   28.4920   39.3430 C   0  0  2  0  0  0  0  0  0  0  0  0
   36.0920   30.1990   37.9660 H   0  0  0  0  0  0  0  0  0  0  0  0
   35.3210   31.0920   40.1170 H   0  0  0  0  0  0  0  0  0  0  0  0
   35.1000   28.0870   41.2710 H   0  0  0  0  0  0  0  0  0  0  0  0
   34.5640   29.5710   40.3330 H   0  0  0  0  0  0  0  0  0  0  0  0
   35.3310   28.0310   38.6990 H   0  0  0  0  0  0  0  0  0  0  0  0
   39.3510   32.3770   41.3130 C   0  0  0  0  0  0  0  0  0  0  0  0
   39.2660   33.6690   40.7720 C   0  0  0  0  0  0  0  0  0  0  0  0
   38.1490   33.9820   39.9650 C   0  0  0  0  0  0  0  0  0  0  0  0
   37.2130   33.0310   39.7460 N   0  0  0  0  0  0  0  0  0  0  0  0
   37.3270   31.7850   40.2870 C   0  0  0  0  0  0  0  0  0  0  0  0
   38.3810   31.4550   41.0620 N   0  0  0  0  0  0  0  0  0  0  0  0
   40.0750   34.3370   41.0200 H   0  0  0  0  0  0  0  0  0  0  0  0
   38.1130   34.9750   39.5660 H   0  0  0  0  0  0  0  0  0  0  0  0
   40.4270   32.0100   42.1150 O   0  0  0  0  0  0  0  0  0  0  0  0
   41.2760   31.6080   41.7040 H   0  0  0  0  0  0  0  0  0  0  0  0
   38.0180   29.7660   38.6590 O   0  0  0  0  0  0  0  0  0  0  0  0
   38.3770   29.1230   39.3420 H   0  0  0  0  0  0  0  0  0  0  0  0
   37.1560   27.6730   39.6770 O   0  0  0  0  0  0  0  0  0  0  0  0
   36.9470   26.3290   39.4740 C   0  0  0  0  0  0  0  0  0  0  0  0
   36.1980   26.1330   38.7310 H   0  0  0  0  0  0  0  0  0  0  0  0
   37.9070   25.9640   38.8530 H   0  0  0  0  0  0  0  0  0  0  0  0
   36.9880   25.4500   40.6440 C   0  0  0  0  0  0  0  0  0  0  0  0
   35.9810   25.2270   41.0870 H   0  0  0  0  0  0  0  0  0  0  0  0
   37.3440   24.4520   40.3140 H   0  0  0  0  0  0  0  0  0  0  0  0
   36.5750   27.1170   43.0930 F   0  0  0  0  0  0  0  0  0  0  0  0
   37.8230   26.7010   42.8160 C   0  0  0  0  0  0  0  0  0  0  0  0
   37.9290   25.9270   41.6950 C   0  0  0  0  0  0  0  0  0  0  0  0
   39.2770   25.5510   41.5130 C   0  0  0  0  0  0  0  0  0  0  0  0
   39.5490   24.9180   40.6480 H   0  0  0  0  0  0  0  0  0  0  0  0
   40.3620   25.8730   42.2940 C   0  0  0  0  0  0  0  0  0  0  0  0
   41.3570   25.5280   42.0590 H   0  0  0  0  0  0  0  0  0  0  0  0
   40.1040   26.6600   43.3940 C   0  0  0  0  0  3  0  0  0  0  0  0
   38.8240   27.0850   43.6670 C   0  0  0  0  0  3  0  0  0  0  0  0
  1  6  1  6  0  0  0
  1  5  1  0  0  0  0
  1  2  1  0  0  0  0
  2  7  1  6  0  0  0
  2 15  1  0  0  0  0
  2  3  1  0  0  0  0
  4  3  1  0  0  0  0
  4  8  1  0  0  0  0
  5 10  1  6  0  0  0
  5 23  1  0  0  0  0
  5  4  1  0  0  0  0
  9  4  1  0  0  0  0
 11 19  1  0  0  0  0
 12 17  1  0  0  0  0
 12 11  2  0  0  0  0
 13 12  1  0  0  0  0
 14 13  2  0  0  0  0
 14 15  1  0  0  0  0
 15 16  2  0  0  0  0
 16 11  1  0  0  0  0
 18 13  1  0  0  0  0
 20 19  1  0  0  0  0
 21  1  1  0  0  0  0
 21 22  1  0  0  0  0
 24 23  1  0  0  0  0
 24 27  1  0  0  0  0
 25 24  1  0  0  0  0
 26 24  1  0  0  0  0
 27 28  1  0  0  0  0
 27 32  1  0  0  0  0
 29 27  1  0  0  0  0
 31 30  1  0  0  0  0
 31 38  1  0  0  0  0
 32 31  2  0  0  0  0
 33 32  1  0  0  0  0
 33 35  2  0  0  0  0
 34 33  1  0  0  0  0
 35 37  1  0  0  0  0
 36 35  1  0  0  0  0
 37 38  2  0  0  0  0
M  END
>  <minimizedAffinity>
-5.43080616

$$$$

 OpenBabel03242519483D

 38 40  0  0  1  0  0  0  0  0999 V2000
   37.0830   29.1050   41.6310 C   0  0  2  0  0  0  0  0  0  0  0  0
   37.7080   30.2930   41.0080 C   0  0  1  0  0  0  0  0  0  0  0  0
   39.1350   30.1350   41.3140 O   0  0  0  0  0  0  0  0  0  0  0  0
   38.9590   30.0010   42.7110 C   0  0  0  0  0  0  0  0  0  0  0  0
   38.0590   28.7380   42.7350 C   0  0  2  0  0  0  0  0  0  0  0  0
   36.0600   29.2800   42.0130 H   0  0  0  0  0  0  0  0  0  0  0  0
   37.4710   31.2290   41.5350 H   0  0  0  0  0  0  0  0  0  0  0  0
   39.8410   29.9300   43.2980 H   0  0  0  0  0  0  0  0  0  0  0  0
   38.2790   30.8450   42.9960 H   0  0  0  0  0  0  0  0  0  0  0  0
   37.6180   28.6970   43.7590 H   0  0  0  0  0  0  0  0  0  0  0  0
   38.3620   31.3360   37.5750 C   0  0  0  0  0  0  0  0  0  0  0  0
   37.3190   30.7460   36.8430 C   0  0  0  0  0  0  0  0  0  0  0  0
   36.3640   29.9780   37.5440 C   0  0  0  0  0  0  0  0  0  0  0  0
   36.4890   29.8400   38.8830 N   0  0  0  0  0  0  0  0  0  0  0  0
   37.5150   30.4250   39.5640 C   0  0  0  0  0  0  0  0  0  0  0  0
   38.4440   31.1660   38.9240 N   0  0  0  0  0  0  0  0  0  0  0  0
   37.3280   30.9310   35.7810 H   0  0  0  0  0  0  0  0  0  0  0  0
   35.5820   29.5400   36.9580 H   0  0  0  0  0  0  0  0  0  0  0  0
   39.3320   32.1040   36.9400 O   0  0  0  0  0  0  0  0  0  0  0  0
   40.1880   31.6730   36.5750 H   0  0  0  0  0  0  0  0  0  0  0  0
   37.0720   28.0250   40.6800 O   0  0  0  0  0  0  0  0  0  0  0  0
   38.0060   27.6580   40.6510 H   0  0  0  0  0  0  0  0  0  0  0  0
   38.8370   27.6720   42.3880 O   0  0  0  0  0  0  0  0  0  0  0  0
   39.1760   26.8210   43.4140 C   0  0  0  0  0  0  0  0  0  0  0  0
   39.7930   27.2890   44.1560 H   0  0  0  0  0  0  0  0  0  0  0  0
   38.1720   26.7150   44.0640 H   0  0  0  0  0  0  0  0  0  0  0  0
   39.4670   25.4270   43.0730 C   0  0  0  0  0  0  0  0  0  0  0  0
   40.5410   25.2310   42.8170 H   0  0  0  0  0  0  0  0  0  0  0  0
   39.3080   24.8080   43.9810 H   0  0  0  0  0  0  0  0  0  0  0  0
   36.4900   25.1720   42.9110 F   0  0  0  0  0  0  0  0  0  0  0  0
   37.2190   24.7200   41.8750 C   0  0  0  0  0  0  0  0  0  0  0  0
   38.5680   24.8900   42.0130 C   0  0  0  0  0  0  0  0  0  0  0  0
   39.2220   24.3850   40.8690 C   0  0  0  0  0  0  0  0  0  0  0  0
   40.3250   24.4400   40.8080 H   0  0  0  0  0  0  0  0  0  0  0  0
   38.6600   23.8010   39.7580 C   0  0  0  0  0  0  0  0  0  0  0  0
   39.2590   23.4460   38.9340 H   0  0  0  0  0  0  0  0  0  0  0  0
   37.2870   23.6960   39.7580 C   0  0  0  0  0  3  0  0  0  0  0  0
   36.5480   24.1580   40.8240 C   0  0  0  0  0  3  0  0  0  0  0  0
  1  6  1  1  0  0  0
  1  5  1  0  0  0  0
  2  3  1  0  0  0  0
  2  7  1  1  0  0  0
  2  1  1  0  0  0  0
  3  4  1  0  0  0  0
  4  5  1  0  0  0  0
  4  9  1  0  0  0  0
  4  8  1  0  0  0  0
  5 10  1  1  0  0  0
 11 16  1  0  0  0  0
 12 13  1  0  0  0  0
 12 11  2  0  0  0  0
 13 14  2  0  0  0  0
 14 15  1  0  0  0  0
 15  2  1  0  0  0  0
 16 15  2  0  0  0  0
 17 12  1  0  0  0  0
 18 13  1  0  0  0  0
 19 11  1  0  0  0  0
 20 19  1  0  0  0  0
 21  1  1  0  0  0  0
 22 21  1  0  0  0  0
 23  5  1  0  0  0  0
 23 24  1  0  0  0  0
 24 26  1  0  0  0  0
 24 25  1  0  0  0  0
 27 24  1  0  0  0  0
 27 29  1  0  0  0  0
 28 27  1  0  0  0  0
 31 32  1  0  0  0  0
 31 30  1  0  0  0  0
 32 27  1  0  0  0  0
 33 32  2  0  0  0  0
 34 33  1  0  0  0  0
 35 37  2  0  0  0  0
 35 33  1  0  0  0  0
 36 35  1  0  0  0  0
 37 38  1  0  0  0  0
 38 31  2  0  0  0  0
M  END
>  <minimizedAffinity>
-5.3859086

$$$$
