
 OpenBabel03242511123D

 44 48  0  0  1  0  0  0  0  0999 V2000
   50.0550   32.4530   41.3690 C   0  0  1  0  0  0  0  0  0  0  0  0
   49.1730   32.2340   40.1710 C   0  0  0  0  0  0  0  0  0  0  0  0
   48.6540   32.1140   41.6320 C   0  0  2  0  0  0  0  0  0  0  0  0
   50.3420   33.4900   41.5480 H   0  0  0  0  0  0  0  0  0  0  0  0
   48.8000   33.1210   39.6030 H   0  0  0  0  0  0  0  0  0  0  0  0
   49.2220   31.2720   39.6350 H   0  0  0  0  0  0  0  0  0  0  0  0
   48.3640   31.0940   41.9650 H   0  0  0  0  0  0  0  0  0  0  0  0
   52.9070   30.1400   40.9170 C   0  0  0  0  0  0  0  0  0  0  0  0
   53.0530   29.6110   42.2450 C   0  0  0  0  0  0  0  0  0  0  0  0
   52.1790   30.0660   43.2450 C   0  0  0  0  0  0  0  0  0  0  0  0
   51.2660   30.9560   42.9130 N   0  0  0  0  0  0  0  0  0  0  0  0
   51.1330   31.4500   41.6620 C   0  0  0  0  0  0  0  0  0  0  0  0
   51.9520   31.0480   40.6490 N   0  0  0  0  0  0  0  0  0  0  0  0
   53.6160   29.7500   40.1840 H   0  0  0  0  0  0  0  0  0  0  0  0
   53.8010   28.9040   42.4430 H   0  0  0  0  0  0  0  0  0  0  0  0
   54.3410   30.3710   45.1650 F   0  0  0  0  0  0  0  0  0  0  0  0
   53.2020   29.7520   45.5380 C   0  0  0  0  0  0  0  0  0  0  0  0
   52.2090   29.6250   44.6140 C   0  0  0  0  0  0  0  0  0  0  0  0
   51.1000   28.9760   45.1190 C   0  0  0  0  0  0  0  0  0  0  0  0
   50.2030   28.7860   44.5120 H   0  0  0  0  0  0  0  0  0  0  0  0
   51.0090   28.5060   46.4140 C   0  0  0  0  0  0  0  0  0  0  0  0
   50.1210   28.0020   46.7670 H   0  0  0  0  0  0  0  0  0  0  0  0
   52.0540   28.6710   47.2910 C   0  0  0  0  0  0  0  0  0  0  0  0
   53.1860   29.3120   46.8420 C   0  0  0  0  0  0  0  0  0  0  0  0
   47.7710   33.1480   42.0820 N   0  0  0  0  0  0  0  0  0  0  0  0
   47.7680   33.8450   41.3100 H   0  0  0  0  0  0  0  0  0  0  0  0
   47.1460   33.0960   43.3360 C   0  0  0  0  0  0  0  0  0  0  0  0
   47.4680   32.0850   44.2080 C   0  0  0  0  0  0  0  0  0  0  0  0
   46.9480   32.0080   45.4950 C   0  0  0  0  0  0  0  0  0  0  0  0
   46.0730   32.9610   45.9560 C   0  0  0  0  0  0  0  0  0  0  0  0
   45.7350   33.9820   45.1000 C   0  0  0  0  0  0  0  0  0  0  0  0
   44.8560   34.9490   45.5430 C   0  0  0  0  0  0  0  0  0  0  0  0
   44.4640   35.9940   44.7560 C   0  0  0  0  0  0  0  0  0  0  0  0
   44.9970   36.0370   43.4740 C   0  0  0  0  0  0  0  0  0  0  0  0
   45.8700   35.0700   43.0460 C   0  0  0  0  0  0  0  0  0  0  0  0
   46.2640   34.0310   43.8310 C   0  0  0  0  0  0  0  0  0  0  0  0
   48.1570   31.3150   43.8780 H   0  0  0  0  0  0  0  0  0  0  0  0
   47.2650   31.1730   46.1010 H   0  0  0  0  0  0  0  0  0  0  0  0
   45.6920   32.8660   46.9650 H   0  0  0  0  0  0  0  0  0  0  0  0
   44.4630   34.8710   46.5610 H   0  0  0  0  0  0  0  0  0  0  0  0
   43.7660   36.7450   45.1370 H   0  0  0  0  0  0  0  0  0  0  0  0
   44.7050   36.8490   42.8270 H   0  0  0  0  0  0  0  0  0  0  0  0
   46.3630   35.1520   41.7650 O   0  0  0  0  0  0  0  0  0  0  0  0
   45.8280   35.1200   40.9120 H   0  0  0  0  0  0  0  0  0  0  0  0
  1  4  1  1  0  0  0
  1  3  1  0  0  0  0
  1 12  1  0  0  0  0
  2  1  1  0  0  0  0
  2  3  1  0  0  0  0
  3  7  1  1  0  0  0
  3 25  1  0  0  0  0
  5  2  1  0  0  0  0
  6  2  1  0  0  0  0
  8  9  1  0  0  0  0
  9 15  1  0  0  0  0
  9 10  2  0  0  0  0
 10 18  1  0  0  0  0
 11 10  1  0  0  0  0
 12 11  2  0  0  0  0
 13  8  2  0  0  0  0
 13 12  1  0  0  0  0
 14  8  1  0  0  0  0
 16 17  1  0  0  0  0
 17 24  1  0  0  0  0
 18 19  1  0  0  0  0
 18 17  2  0  0  0  0
 19 21  2  0  0  0  0
 20 19  1  0  0  0  0
 21 22  1  0  0  0  0
 21 23  1  0  0  0  0
 24 23  2  0  0  0  0
 25 27  1  0  0  0  0
 26 25  1  0  0  0  0
 27 36  2  0  0  0  0
 27 28  1  0  0  0  0
 28 29  2  0  0  0  0
 29 30  1  0  0  0  0
 29 38  1  0  0  0  0
 30 39  1  0  0  0  0
 31 32  1  0  0  0  0
 31 30  2  0  0  0  0
 32 40  1  0  0  0  0
 33 41  1  0  0  0  0
 33 32  2  0  0  0  0
 34 33  1  0  0  0  0
 35 34  2  0  0  0  0
 35 36  1  0  0  0  0
 36 31  1  0  0  0  0
 37 28  1  0  0  0  0
 42 34  1  0  0  0  0
 43 35  1  0  0  0  0
 44 43  1  0  0  0  0
M  END
>  <minimizedAffinity>
-5.45345736

>  <minimizedRMSD>
1.68835223

$$$$
