
 OpenBabel03252506493D

 29 31  0  0  0  0  0  0  0  0999 V2000
   44.0410   34.2260   42.1550 C   0  0  0  0  0  0  0  0  0  0  0  0
   44.1940   35.4780   42.7610 C   0  0  0  0  0  0  0  0  0  0  0  0
   45.4850   36.0120   42.8810 C   0  0  0  0  0  0  0  0  0  0  0  0
   46.5280   35.2800   42.3970 N   0  0  0  0  0  0  0  0  0  0  0  0
   46.3380   34.0790   41.8210 C   0  0  0  0  0  0  0  0  0  0  0  0
   45.1070   33.5250   41.6840 N   0  0  0  0  0  0  0  0  0  0  0  0
   43.3570   36.0360   43.1340 H   0  0  0  0  0  0  0  0  0  0  0  0
   45.6490   36.9650   43.3360 H   0  0  0  0  0  0  0  0  0  0  0  0
   47.0710   34.0470   39.1200 F   0  0  0  0  0  0  0  0  0  0  0  0
   47.8260   33.3570   39.9830 C   0  0  0  0  0  0  0  0  0  0  0  0
   47.5000   33.3470   41.3240 C   0  0  0  0  0  0  0  0  0  0  0  0
   48.2810   32.6350   42.2130 C   0  0  0  0  0  0  0  0  0  0  0  0
   48.0370   32.6140   43.2840 H   0  0  0  0  0  0  0  0  0  0  0  0
   49.3950   31.9130   41.8450 C   0  0  0  0  0  0  0  0  0  0  0  0
   49.9730   31.3730   42.5790 H   0  0  0  0  0  0  0  0  0  0  0  0
   49.7340   31.9180   40.4890 C   0  0  0  0  0  0  0  0  0  0  0  0
   48.9420   32.6350   39.6160 C   0  0  0  0  0  0  0  0  0  0  0  0
   42.3550   33.6230   42.0470 S   0  0  0  0  0  0  0  0  0  0  0  0
   40.2830   35.4190   40.3930 Cl  0  0  0  0  0  0  0  0  0  0  0  0
   40.9720   33.9980   39.6190 C   0  0  0  0  0  0  0  0  0  0  0  0
   41.8440   33.2920   40.3950 C   0  0  0  0  0  0  0  0  0  0  0  0
   42.4260   32.1520   39.8390 C   0  0  0  0  0  0  0  0  0  0  0  0
   42.0950   31.7880   38.5300 C   0  0  0  0  0  0  0  0  0  0  0  0
   41.2090   32.5070   37.7430 C   0  0  0  0  0  0  0  0  0  0  0  0
   40.6490   33.6360   38.3310 C   0  0  0  0  0  0  0  0  0  0  0  0
   39.5140   34.6340   37.4460 Cl  0  0  0  0  0  0  0  0  0  0  0  0
   43.1150   31.5190   40.3330 H   0  0  0  0  0  0  0  0  0  0  0  0
   42.5380   30.9060   38.0850 H   0  0  0  0  0  0  0  0  0  0  0  0
   40.9540   32.2320   36.7430 H   0  0  0  0  0  0  0  0  0  0  0  0
  1  2  1  0  0  0  0
  2  3  2  0  0  0  0
  2  7  1  0  0  0  0
  3  8  1  0  0  0  0
  4  3  1  0  0  0  0
  5  4  2  0  0  0  0
  6  5  1  0  0  0  0
  6  1  2  0  0  0  0
  9 10  1  0  0  0  0
 10 11  1  0  0  0  0
 11  5  1  0  0  0  0
 11 12  2  0  0  0  0
 12 13  1  0  0  0  0
 14 12  1  0  0  0  0
 14 15  1  0  0  0  0
 16 14  2  0  0  0  0
 17 10  2  0  0  0  0
 17 16  1  0  0  0  0
 18  1  1  0  0  0  0
 20 19  1  0  0  0  0
 20 21  1  0  0  0  0
 21 18  1  0  0  0  0
 22 27  1  0  0  0  0
 22 21  2  0  0  0  0
 23 22  1  0  0  0  0
 24 25  1  0  0  0  0
 24 23  2  0  0  0  0
 25 20  2  0  0  0  0
 26 25  1  0  0  0  0
 28 23  1  0  0  0  0
 29 24  1  0  0  0  0
M  END
>  <minimizedAffinity>
-4.30834436

>  <minimizedRMSD>
5.83186388

$$$$
