
 OpenBabel03242521493D

 20 21  0  0  0  0  0  0  0  0999 V2000
   44.5480   35.9170   44.3980 C   0  0  0  0  0  0  0  0  0  0  0  0
   45.2840   35.8610   43.2110 C   0  0  0  0  0  0  0  0  0  0  0  0
   46.2490   34.8680   43.0860 C   0  0  0  0  0  0  0  0  0  0  0  0
   46.4250   34.0080   44.1220 N   0  0  0  0  0  0  0  0  0  0  0  0
   45.7020   34.0880   45.2520 C   0  0  0  0  0  0  0  0  0  0  0  0
   44.7740   35.0330   45.3850 N   0  0  0  0  0  0  0  0  0  0  0  0
   43.8230   36.7180   44.4070 H   0  0  0  0  0  0  0  0  0  0  0  0
   45.1630   36.5360   42.3670 H   0  0  0  0  0  0  0  0  0  0  0  0
   44.2850   34.0450   47.6020 F   0  0  0  0  0  0  0  0  0  0  0  0
   45.2450   33.1080   47.4850 C   0  0  0  0  0  0  0  0  0  0  0  0
   45.9640   33.1160   46.3110 C   0  0  0  0  0  0  0  0  0  0  0  0
   46.9590   32.1750   46.1440 C   0  0  0  0  0  0  0  0  0  0  0  0
   47.5340   32.1800   45.2090 H   0  0  0  0  0  0  0  0  0  0  0  0
   47.3020   31.2150   47.0580 C   0  0  0  0  0  0  0  0  0  0  0  0
   48.0910   30.4990   46.8780 H   0  0  0  0  0  0  0  0  0  0  0  0
   46.5550   31.2360   48.2320 C   0  0  0  0  0  0  0  0  0  0  0  0
   45.5520   32.1600   48.4380 C   0  0  0  0  0  0  0  0  0  0  0  0
   47.0180   34.7680   41.9080 N   0  0  0  0  0  0  0  0  0  0  0  0
   46.3500   34.5400   41.1290 H   0  0  0  0  0  0  0  0  0  0  0  0
   48.0560   34.8840   41.7500 H   0  0  0  0  0  0  0  0  0  0  0  0
  1  7  1  0  0  0  0
  1  6  1  0  0  0  0
  2  1  2  0  0  0  0
  3  2  1  0  0  0  0
  3  4  2  0  0  0  0
  4  5  1  0  0  0  0
  5  6  2  0  0  0  0
  5 11  1  0  0  0  0
  8  2  1  0  0  0  0
 10  9  1  0  0  0  0
 10 17  1  0  0  0  0
 11 10  2  0  0  0  0
 12 11  1  0  0  0  0
 12 14  2  0  0  0  0
 13 12  1  0  0  0  0
 14 16  1  0  0  0  0
 15 14  1  0  0  0  0
 16 17  2  0  0  0  0
 18  3  1  0  0  0  0
 19 18  1  0  0  0  0
 20 18  1  0  0  0  0
M  END
>  <minimizedAffinity>
-5.12363052

>  <minimizedRMSD>
0.773741722

$$$$
