
 OpenBabel03252509233D

 27 29  0  0  1  0  0  0  0  0999 V2000
   47.5020   34.4410   40.9910 C   0  0  1  0  0  0  0  0  0  0  0  0
   48.6200   35.4230   41.4220 C   0  0  0  0  0  0  0  0  0  0  0  0
   48.5320   33.9150   41.8120 C   0  0  2  0  0  0  0  0  0  0  0  0
   47.4270   34.3120   39.9030 H   0  0  0  0  0  0  0  0  0  0  0  0
   48.4380   36.1200   42.2350 H   0  0  0  0  0  0  0  0  0  0  0  0
   49.3170   35.6690   40.6180 H   0  0  0  0  0  0  0  0  0  0  0  0
   48.3600   33.7280   42.9020 H   0  0  0  0  0  0  0  0  0  0  0  0
   51.1850   33.3160   42.8060 F   0  0  0  0  0  0  0  0  0  0  0  0
   50.8140   32.6970   41.6730 C   0  0  0  0  0  0  0  0  0  0  0  0
   49.5440   33.0200   41.2430 C   0  0  0  0  0  0  0  0  0  0  0  0
   49.1490   32.3830   40.0610 C   0  0  0  0  0  0  0  0  0  0  0  0
   48.1830   32.5390   39.6040 H   0  0  0  0  0  0  0  0  0  0  0  0
   49.9430   31.4980   39.3620 C   0  0  0  0  0  0  0  0  0  0  0  0
   49.6450   31.0140   38.4640 H   0  0  0  0  0  0  0  0  0  0  0  0
   51.2030   31.2070   39.8330 C   0  0  0  0  0  3  0  0  0  0  0  0
   51.6130   31.8240   40.9960 C   0  0  0  0  0  3  0  0  0  0  0  0
   43.8290   34.8400   41.6800 C   0  0  0  0  0  0  0  0  0  0  0  0
   45.0350   34.5010   40.9740 C   0  0  0  0  0  0  0  0  0  0  0  0
   46.1830   34.8380   41.6410 C   0  0  0  0  0  0  0  0  0  0  0  0
   46.1790   35.4530   42.8880 N   0  0  0  0  0  0  0  0  0  0  0  0
   45.0200   35.7410   43.4890 C   0  0  0  0  0  0  0  0  0  0  0  0
   43.8410   35.4340   42.8820 N   0  0  0  0  0  0  0  0  0  0  0  0
   42.9010   34.6000   41.2070 H   0  0  0  0  0  0  0  0  0  0  0  0
   45.2000   36.2120   44.4410 H   0  0  0  0  0  0  0  0  0  0  0  0
   45.0250   33.8930   39.6890 N   0  0  0  0  0  0  0  0  0  0  0  0
   45.4240   32.9290   39.5940 H   0  0  0  0  0  0  0  0  0  0  0  0
   44.6130   34.4600   38.9120 H   0  0  0  0  0  0  0  0  0  0  0  0
  1  4  1  6  0  0  0
  1  2  1  0  0  0  0
  1 19  1  0  0  0  0
  1  3  1  0  0  0  0
  2  3  1  0  0  0  0
  2  5  1  0  0  0  0
  3  7  1  1  0  0  0
  6  2  1  0  0  0  0
  9  8  1  0  0  0  0
 10  9  1  0  0  0  0
 10  3  1  0  0  0  0
 11 10  2  0  0  0  0
 12 11  1  0  0  0  0
 13 15  2  0  0  0  0
 13 11  1  0  0  0  0
 14 13  1  0  0  0  0
 15 16  1  0  0  0  0
 16  9  2  0  0  0  0
 17 22  1  0  0  0  0
 18 19  1  0  0  0  0
 18 17  2  0  0  0  0
 19 20  2  0  0  0  0
 20 21  1  0  0  0  0
 21 24  1  0  0  0  0
 22 21  2  0  0  0  0
 23 17  1  0  0  0  0
 25 18  1  0  0  0  0
 26 25  1  0  0  0  0
 27 25  1  0  0  0  0
M  END
>  <minimizedAffinity>
-4.97401381

>  <minimizedRMSD>
3.40220118

$$$$
