
 OpenBabel03252509243D

 27 29  0  0  1  0  0  0  0  0999 V2000
   46.4610   35.0080   41.9160 C   0  0  1  0  0  0  0  0  0  0  0  0
   47.9890   35.2580   41.8550 C   0  0  0  0  0  0  0  0  0  0  0  0
   47.2480   34.0090   41.2880 C   0  0  2  0  0  0  0  0  0  0  0  0
   45.8700   35.7740   41.3960 H   0  0  0  0  0  0  0  0  0  0  0  0
   48.5980   35.0730   42.7340 H   0  0  0  0  0  0  0  0  0  0  0  0
   48.2760   36.0160   41.1240 H   0  0  0  0  0  0  0  0  0  0  0  0
   47.4870   33.0500   41.8140 H   0  0  0  0  0  0  0  0  0  0  0  0
   45.3060   32.6200   39.6480 F   0  0  0  0  0  0  0  0  0  0  0  0
   46.3240   33.2140   39.0020 C   0  0  0  0  0  0  0  0  0  0  0  0
   47.2200   33.8570   39.8300 C   0  0  0  0  0  0  0  0  0  0  0  0
   48.2860   34.4760   39.1660 C   0  0  0  0  0  0  0  0  0  0  0  0
   49.0650   35.0160   39.6830 H   0  0  0  0  0  0  0  0  0  0  0  0
   48.4540   34.4600   37.7970 C   0  0  0  0  0  0  0  0  0  0  0  0
   49.2620   34.9290   37.2920 H   0  0  0  0  0  0  0  0  0  0  0  0
   47.5310   33.8040   37.0150 C   0  0  0  0  0  3  0  0  0  0  0  0
   46.4720   33.1870   37.6470 C   0  0  0  0  0  3  0  0  0  0  0  0
   44.6910   35.3650   45.2120 C   0  0  0  0  0  0  0  0  0  0  0  0
   45.1080   35.6720   43.8710 C   0  0  0  0  0  0  0  0  0  0  0  0
   46.0270   34.7930   43.3600 C   0  0  0  0  0  0  0  0  0  0  0  0
   46.5090   33.7030   44.0760 N   0  0  0  0  0  0  0  0  0  0  0  0
   46.0780   33.4770   45.3210 C   0  0  0  0  0  0  0  0  0  0  0  0
   45.1650   34.3100   45.8910 N   0  0  0  0  0  0  0  0  0  0  0  0
   43.9740   36.0170   45.6620 H   0  0  0  0  0  0  0  0  0  0  0  0
   46.5520   32.5980   45.7260 H   0  0  0  0  0  0  0  0  0  0  0  0
   44.6250   36.8020   43.1570 N   0  0  0  0  0  0  0  0  0  0  0  0
   44.0590   36.6360   42.2910 H   0  0  0  0  0  0  0  0  0  0  0  0
   44.8700   37.7400   43.5530 H   0  0  0  0  0  0  0  0  0  0  0  0
  1  4  1  6  0  0  0
  1 19  1  0  0  0  0
  2  1  1  0  0  0  0
  2  5  1  0  0  0  0
  3  7  1  1  0  0  0
  3  2  1  0  0  0  0
  3  1  1  0  0  0  0
  6  2  1  0  0  0  0
  9  8  1  0  0  0  0
  9 10  1  0  0  0  0
 10  3  1  0  0  0  0
 11 12  1  0  0  0  0
 11 10  2  0  0  0  0
 13 11  1  0  0  0  0
 14 13  1  0  0  0  0
 15 16  1  0  0  0  0
 15 13  2  0  0  0  0
 16  9  2  0  0  0  0
 17 23  1  0  0  0  0
 17 22  1  0  0  0  0
 18 17  2  0  0  0  0
 19 18  1  0  0  0  0
 19 20  2  0  0  0  0
 20 21  1  0  0  0  0
 21 24  1  0  0  0  0
 21 22  2  0  0  0  0
 25 27  1  0  0  0  0
 25 18  1  0  0  0  0
 26 25  1  0  0  0  0
M  END
>  <minimizedAffinity>
-5.5726037

>  <minimizedRMSD>
0.332521349

$$$$
