
 OpenBabel03252509233D

 27 29  0  0  1  0  0  0  0  0999 V2000
   46.3600   34.7750   41.9950 C   0  0  1  0  0  0  0  0  0  0  0  0
   47.8650   35.1390   41.9380 C   0  0  0  0  0  0  0  0  0  0  0  0
   47.2450   33.7670   41.5310 C   0  0  2  0  0  0  0  0  0  0  0  0
   45.7300   35.4100   41.3590 H   0  0  0  0  0  0  0  0  0  0  0  0
   48.4550   35.1260   42.8500 H   0  0  0  0  0  0  0  0  0  0  0  0
   48.1180   35.8120   41.1160 H   0  0  0  0  0  0  0  0  0  0  0  0
   47.5400   32.9120   42.1910 H   0  0  0  0  0  0  0  0  0  0  0  0
   45.0650   33.6890   39.6270 F   0  0  0  0  0  0  0  0  0  0  0  0
   46.2810   33.3670   39.1610 C   0  0  0  0  0  0  0  0  0  0  0  0
   47.2820   33.4160   40.1090 C   0  0  0  0  0  0  0  0  0  0  0  0
   48.5550   33.0780   39.6330 C   0  0  0  0  0  0  0  0  0  0  0  0
   49.4340   33.0730   40.2600 H   0  0  0  0  0  0  0  0  0  0  0  0
   48.8180   32.7210   38.3270 C   0  0  0  0  0  0  0  0  0  0  0  0
   49.7830   32.4640   37.9650 H   0  0  0  0  0  0  0  0  0  0  0  0
   47.7850   32.6860   37.4180 C   0  0  0  0  0  3  0  0  0  0  0  0
   46.5220   33.0140   37.8650 C   0  0  0  0  0  3  0  0  0  0  0  0
   44.5760   35.5540   45.2100 C   0  0  0  0  0  0  0  0  0  0  0  0
   45.0320   35.7070   43.8550 C   0  0  0  0  0  0  0  0  0  0  0  0
   45.8920   34.7220   43.4440 C   0  0  0  0  0  0  0  0  0  0  0  0
   46.2860   33.6720   44.2640 N   0  0  0  0  0  0  0  0  0  0  0  0
   45.8230   33.5910   45.5160 C   0  0  0  0  0  0  0  0  0  0  0  0
   44.9640   34.5350   45.9900 N   0  0  0  0  0  0  0  0  0  0  0  0
   43.9020   36.2930   45.5850 H   0  0  0  0  0  0  0  0  0  0  0  0
   46.2270   32.7210   46.0080 H   0  0  0  0  0  0  0  0  0  0  0  0
   44.6410   36.7980   43.0330 N   0  0  0  0  0  0  0  0  0  0  0  0
   44.0760   36.5940   42.1740 H   0  0  0  0  0  0  0  0  0  0  0  0
   44.9470   37.7480   43.3480 H   0  0  0  0  0  0  0  0  0  0  0  0
  1  4  1  6  0  0  0
  1 19  1  0  0  0  0
  2  1  1  0  0  0  0
  2  5  1  0  0  0  0
  3  2  1  0  0  0  0
  3  1  1  0  0  0  0
  3  7  1  1  0  0  0
  6  2  1  0  0  0  0
  9  8  1  0  0  0  0
  9 10  1  0  0  0  0
 10  3  1  0  0  0  0
 11 10  2  0  0  0  0
 11 12  1  0  0  0  0
 13 11  1  0  0  0  0
 14 13  1  0  0  0  0
 15 16  1  0  0  0  0
 15 13  2  0  0  0  0
 16  9  2  0  0  0  0
 17 23  1  0  0  0  0
 17 22  1  0  0  0  0
 18 17  2  0  0  0  0
 19 18  1  0  0  0  0
 19 20  2  0  0  0  0
 20 21  1  0  0  0  0
 21 22  2  0  0  0  0
 21 24  1  0  0  0  0
 25 27  1  0  0  0  0
 25 18  1  0  0  0  0
 26 25  1  0  0  0  0
M  END
>  <minimizedAffinity>
-4.90146399

>  <minimizedRMSD>
0.758757949

$$$$
