
 OpenBabel03242518353D

 35 38  0  0  1  0  0  0  0  0999 V2000
   47.4060   33.7240   39.7920 C   0  0  0  0  0  0  0  0  0  0  0  0
   48.2990   34.4360   38.9930 C   0  0  0  0  0  0  0  0  0  0  0  0
   47.9600   34.2420   37.6650 C   0  0  0  0  0  0  0  0  0  0  0  0
   46.8680   33.4140   37.7170 C   0  0  0  0  0  0  0  0  0  0  0  0
   46.5520   33.1180   38.9620 O   0  0  0  0  0  0  0  0  0  0  0  0
   49.0960   35.0160   39.4530 H   0  0  0  0  0  0  0  0  0  0  0  0
   48.4980   34.6870   36.8450 H   0  0  0  0  0  0  0  0  0  0  0  0
   46.1340   32.9210   36.5420 C   0  0  2  0  0  0  0  0  0  0  0  0
   45.4320   31.6240   36.6170 C   0  0  0  0  0  0  0  0  0  0  0  0
   46.7490   31.6510   35.9190 C   0  0  2  0  0  0  0  0  0  0  0  0
   45.8280   33.7010   35.8070 H   0  0  0  0  0  0  0  0  0  0  0  0
   44.4950   31.5570   35.9970 H   0  0  0  0  0  0  0  0  0  0  0  0
   45.3880   31.0770   37.5800 H   0  0  0  0  0  0  0  0  0  0  0  0
   46.6790   31.6330   34.8150 H   0  0  0  0  0  0  0  0  0  0  0  0
   49.1290   32.2940   34.7210 F   0  0  0  0  0  0  0  0  0  0  0  0
   49.1070   31.4750   35.8230 C   0  0  0  0  0  0  0  0  0  0  0  0
   47.9560   31.0800   36.5160 C   0  0  0  0  0  0  0  0  0  0  0  0
   48.1200   30.2590   37.5920 C   0  0  0  0  0  0  0  0  0  0  0  0
   47.1760   30.0020   38.0710 H   0  0  0  0  0  0  0  0  0  0  0  0
   49.3690   29.8300   37.9920 C   0  0  0  0  0  0  0  0  0  0  0  0
   49.4200   29.1740   38.8620 H   0  0  0  0  0  0  0  0  0  0  0  0
   50.5120   30.2110   37.3170 C   0  0  0  0  0  0  0  0  0  0  0  0
   50.3760   31.0430   36.2230 C   0  0  0  0  0  0  0  0  0  0  0  0
   47.3080   33.5890   41.1930 O   0  0  0  0  0  0  0  0  0  0  0  0
   47.3840   34.7330   42.0110 C   0  0  0  0  0  0  0  0  0  0  0  0
   48.2500   35.5850   41.6700 O   0  0  0  0  0  0  0  0  0  0  0  0
   46.4900   34.7930   43.1110 C   0  0  0  0  0  0  0  0  0  0  0  0
   45.6030   35.8350   43.0700 C   0  0  0  0  0  0  0  0  0  0  0  0
   44.6920   35.9600   44.1180 C   0  0  0  0  0  0  0  0  0  0  0  0
   44.7320   35.0540   45.1100 N   0  0  0  0  0  0  0  0  0  0  0  0
   45.6140   34.0470   45.1160 C   0  0  0  0  0  0  0  0  0  0  0  0
   46.4930   33.9270   44.1040 N   0  0  0  0  0  0  0  0  0  0  0  0
   45.5000   36.6140   42.3060 H   0  0  0  0  0  0  0  0  0  0  0  0
   43.9640   36.7640   44.1440 H   0  0  0  0  0  0  0  0  0  0  0  0
   45.5620   33.3720   45.9640 H   0  0  0  0  0  0  0  0  0  0  0  0
  1 24  1  0  0  0  0
  2  6  1  0  0  0  0
  2  1  2  0  0  0  0
  3  4  2  0  0  0  0
  3  2  1  0  0  0  0
  4  5  1  0  0  0  0
  5  1  1  0  0  0  0
  7  3  1  0  0  0  0
  8 11  1  6  0  0  0
  8  9  1  0  0  0  0
  8  4  1  0  0  0  0
  9 13  1  0  0  0  0
 10 14  1  6  0  0  0
 10 17  1  0  0  0  0
 10  8  1  0  0  0  0
 10  9  1  0  0  0  0
 12  9  1  0  0  0  0
 15 16  1  0  0  0  0
 16 23  2  0  0  0  0
 16 17  1  0  0  0  0
 17 18  2  0  0  0  0
 18 20  1  0  0  0  0
 18 19  1  0  0  0  0
 20 21  1  0  0  0  0
 22 20  2  0  0  0  0
 23 22  1  0  0  0  0
 24 25  1  0  0  0  0
 25 27  1  0  0  0  0
 26 25  2  0  0  0  0
 27 32  1  0  0  0  0
 28 27  2  0  0  0  0
 28 29  1  0  0  0  0
 29 34  1  0  0  0  0
 29 30  2  0  0  0  0
 30 31  1  0  0  0  0
 31 35  1  0  0  0  0
 32 31  2  0  0  0  0
 33 28  1  0  0  0  0
M  END
>  <minimizedAffinity>
-4.81990099

>  <minimizedRMSD>
0.787243187

$$$$
