
 OpenBabel03252509233D

 27 29  0  0  1  0  0  0  0  0999 V2000
   47.1240   33.1020   42.5120 C   0  0  1  0  0  0  0  0  0  0  0  0
   48.5120   33.4660   43.0950 C   0  0  0  0  0  0  0  0  0  0  0  0
   47.6870   32.1890   43.4400 C   0  0  2  0  0  0  0  0  0  0  0  0
   47.1230   32.9810   41.4200 H   0  0  0  0  0  0  0  0  0  0  0  0
   48.5840   34.1990   43.8930 H   0  0  0  0  0  0  0  0  0  0  0  0
   49.3310   33.3290   42.3860 H   0  0  0  0  0  0  0  0  0  0  0  0
   47.3220   32.1460   44.4980 H   0  0  0  0  0  0  0  0  0  0  0  0
   48.9700   30.1010   44.9830 F   0  0  0  0  0  0  0  0  0  0  0  0
   48.8360   29.8790   43.6660 C   0  0  0  0  0  0  0  0  0  0  0  0
   48.2220   30.9050   42.9790 C   0  0  0  0  0  0  0  0  0  0  0  0
   48.0810   30.6840   41.6030 C   0  0  0  0  0  0  0  0  0  0  0  0
   47.6210   31.3990   40.9380 H   0  0  0  0  0  0  0  0  0  0  0  0
   48.5100   29.5430   40.9590 C   0  0  0  0  0  0  0  0  0  0  0  0
   48.4040   29.3730   39.9160 H   0  0  0  0  0  0  0  0  0  0  0  0
   49.1170   28.5460   41.6900 C   0  0  0  0  0  3  0  0  0  0  0  0
   49.2670   28.7420   43.0470 C   0  0  0  0  0  3  0  0  0  0  0  0
   44.2760   35.5540   42.6020 C   0  0  0  0  0  0  0  0  0  0  0  0
   45.2890   34.6890   42.0590 C   0  0  0  0  0  0  0  0  0  0  0  0
   46.0760   34.0910   43.0070 C   0  0  0  0  0  0  0  0  0  0  0  0
   45.9100   34.3040   44.3710 N   0  0  0  0  0  0  0  0  0  0  0  0
   44.9470   35.1220   44.8080 C   0  0  0  0  0  0  0  0  0  0  0  0
   44.1270   35.7490   43.9200 N   0  0  0  0  0  0  0  0  0  0  0  0
   43.6310   36.0470   41.9080 H   0  0  0  0  0  0  0  0  0  0  0  0
   44.9590   35.1710   45.8840 H   0  0  0  0  0  0  0  0  0  0  0  0
   45.4640   34.4980   40.6610 N   0  0  0  0  0  0  0  0  0  0  0  0
   45.3000   33.5410   40.2680 H   0  0  0  0  0  0  0  0  0  0  0  0
   45.7500   35.3420   40.1110 H   0  0  0  0  0  0  0  0  0  0  0  0
  1  4  1  6  0  0  0
  1 19  1  0  0  0  0
  1  2  1  0  0  0  0
  1  3  1  0  0  0  0
  2  3  1  0  0  0  0
  2  5  1  0  0  0  0
  3  7  1  1  0  0  0
  6  2  1  0  0  0  0
  9  8  1  0  0  0  0
 10  3  1  0  0  0  0
 10  9  2  0  0  0  0
 11 10  1  0  0  0  0
 12 11  1  0  0  0  0
 13 11  2  0  0  0  0
 13 15  1  0  0  0  0
 14 13  1  0  0  0  0
 15 16  2  0  0  0  0
 16  9  1  0  0  0  0
 17 22  1  0  0  0  0
 18 17  2  0  0  0  0
 18 19  1  0  0  0  0
 19 20  2  0  0  0  0
 20 21  1  0  0  0  0
 21 24  1  0  0  0  0
 22 21  2  0  0  0  0
 23 17  1  0  0  0  0
 25 18  1  0  0  0  0
 26 25  1  0  0  0  0
 27 25  1  0  0  0  0
M  END
>  <minimizedAffinity>
-3.3723917

>  <minimizedRMSD>
4.28628635

$$$$
