
 OpenBabel03252508153D

 37 40  0  0  1  0  0  0  0  0999 V2000
   45.7420   33.0910   46.1830 C   0  0  0  0  0  3  0  0  0  0  0  0
   46.0610   31.9380   45.7420 C   0  0  0  0  0  3  0  0  0  0  0  0
   44.5110   36.1690   44.5830 C   0  0  0  0  0  0  0  0  0  0  0  0
   45.1210   36.1390   43.3210 C   0  0  0  0  0  0  0  0  0  0  0  0
   45.9380   35.0780   43.0710 C   0  0  0  0  0  0  0  0  0  0  0  0
   46.0910   34.1560   44.0470 N   0  0  0  0  0  0  0  0  0  0  0  0
   45.5140   34.1810   45.2390 C   0  0  0  0  0  0  0  0  0  0  0  0
   44.7240   35.2050   45.4860 N   0  0  0  0  0  0  0  0  0  0  0  0
   43.8470   37.0140   44.8100 H   0  0  0  0  0  0  0  0  0  0  0  0
   44.9680   36.8940   42.5810 H   0  0  0  0  0  0  0  0  0  0  0  0
   45.0940   33.4940   40.8140 F   0  0  0  0  0  0  0  0  0  0  0  0
   46.3060   34.0830   40.7690 C   0  0  0  0  0  0  0  0  0  0  0  0
   46.6800   34.8250   41.8480 C   0  0  0  0  0  0  0  0  0  0  0  0
   47.9430   35.3820   41.6850 C   0  0  0  0  0  0  0  0  0  0  0  0
   48.3920   36.0030   42.4520 H   0  0  0  0  0  0  0  0  0  0  0  0
   48.7210   35.2050   40.5730 C   0  0  0  0  0  0  0  0  0  0  0  0
   49.6990   35.6530   40.4820 H   0  0  0  0  0  0  0  0  0  0  0  0
   48.2740   34.4390   39.5230 C   0  0  0  0  0  3  0  0  0  0  0  0
   47.0430   33.8700   39.6290 C   0  0  0  0  0  3  0  0  0  0  0  0
   46.2670   30.8700   46.8100 C   0  0  0  0  0  0  0  0  0  0  0  0
   45.6690   29.9760   46.6010 H   0  0  0  0  0  0  0  0  0  0  0  0
   47.3410   30.6020   46.7240 H   0  0  0  0  0  0  0  0  0  0  0  0
   46.0050   31.4590   48.1670 C   0  0  1  0  0  0  0  0  0  0  0  0
   45.7470   30.4900   49.2770 C   0  0  0  0  0  0  0  0  0  0  0  0
   46.9860   31.2410   49.2620 C   0  0  1  0  0  0  0  0  0  0  0  0
   45.4270   32.4050   48.2010 H   0  0  0  0  0  0  0  0  0  0  0  0
   45.7100   29.4170   49.0000 H   0  0  0  0  0  0  0  0  0  0  0  0
   44.9640   30.7400   50.0220 H   0  0  0  0  0  0  0  0  0  0  0  0
   47.0590   32.0900   50.0090 H   0  0  0  0  0  0  0  0  0  0  0  0
   48.3090   30.6860   48.9080 C   0  0  0  0  0  0  0  0  0  0  0  0
   49.2390   30.4450   50.1300 C   0  0  0  0  0  0  0  0  0  0  0  0
   49.5280   31.5890   49.2200 C   0  0  0  0  0  0  0  0  0  0  0  0
   48.4250   29.9540   48.0940 H   0  0  0  0  0  0  0  0  0  0  0  0
   49.8890   29.5720   50.0790 H   0  0  0  0  0  0  0  0  0  0  0  0
   48.8360   30.6780   51.1320 H   0  0  0  0  0  0  0  0  0  0  0  0
   49.3350   32.6230   49.5090 H   0  0  0  0  0  0  0  0  0  0  0  0
   50.3590   31.4830   48.4740 H   0  0  0  0  0  0  0  0  0  0  0  0
  2  1  2  0  0  0  0
  2 20  1  0  0  0  0
  3  9  1  0  0  0  0
  3  8  1  0  0  0  0
  4  3  2  0  0  0  0
  5  4  1  0  0  0  0
  5  6  2  0  0  0  0
  6  7  1  0  0  0  0
  7  8  2  0  0  0  0
  7  1  1  0  0  0  0
 10  4  1  0  0  0  0
 12 11  1  0  0  0  0
 12 13  1  0  0  0  0
 13  5  1  0  0  0  0
 14 13  2  0  0  0  0
 14 15  1  0  0  0  0
 16 14  1  0  0  0  0
 17 16  1  0  0  0  0
 18 19  1  0  0  0  0
 18 16  2  0  0  0  0
 19 12  2  0  0  0  0
 20 23  1  0  0  0  0
 21 20  1  0  0  0  0
 22 20  1  0  0  0  0
 23 26  1  1  0  0  0
 23 25  1  0  0  0  0
 23 24  1  0  0  0  0
 24 28  1  0  0  0  0
 25 24  1  0  0  0  0
 25 29  1  1  0  0  0
 27 24  1  0  0  0  0
 30 32  1  0  0  0  0
 30 25  1  0  0  0  0
 30 31  1  0  0  0  0
 31 35  1  0  0  0  0
 32 36  1  0  0  0  0
 32 31  1  0  0  0  0
 33 30  1  0  0  0  0
 34 31  1  0  0  0  0
 37 32  1  0  0  0  0
M  END
>  <minimizedAffinity>
-6.33959293

>  <minimizedRMSD>
0.888320506

$$$$
