
 OpenBabel03252508143D

 37 40  0  0  1  0  0  0  0  0999 V2000
   45.9410   33.0830   46.0570 C   0  0  0  0  0  3  0  0  0  0  0  0
   46.6750   32.1000   45.7090 C   0  0  0  0  0  3  0  0  0  0  0  0
   44.5750   36.0790   44.4100 C   0  0  0  0  0  0  0  0  0  0  0  0
   45.1430   36.0260   43.1300 C   0  0  0  0  0  0  0  0  0  0  0  0
   45.9790   34.9800   42.8830 C   0  0  0  0  0  0  0  0  0  0  0  0
   46.1890   34.0920   43.8790 N   0  0  0  0  0  0  0  0  0  0  0  0
   45.6530   34.1380   45.0890 C   0  0  0  0  0  0  0  0  0  0  0  0
   44.8440   35.1480   45.3330 N   0  0  0  0  0  0  0  0  0  0  0  0
   43.8980   36.9130   44.6350 H   0  0  0  0  0  0  0  0  0  0  0  0
   44.9460   36.7550   42.3730 H   0  0  0  0  0  0  0  0  0  0  0  0
   48.5480   36.0150   42.0740 F   0  0  0  0  0  0  0  0  0  0  0  0
   47.8960   35.1830   41.2360 C   0  0  0  0  0  0  0  0  0  0  0  0
   46.6860   34.7090   41.6420 C   0  0  0  0  0  0  0  0  0  0  0  0
   46.1140   33.8640   40.6990 C   0  0  0  0  0  0  0  0  0  0  0  0
   45.1480   33.3990   40.8650 H   0  0  0  0  0  0  0  0  0  0  0  0
   46.6960   33.5440   39.5030 C   0  0  0  0  0  0  0  0  0  0  0  0
   46.2210   32.8840   38.7930 H   0  0  0  0  0  0  0  0  0  0  0  0
   47.9220   34.0630   39.1630 C   0  0  0  0  0  3  0  0  0  0  0  0
   48.5290   34.8980   40.0490 C   0  0  0  0  0  3  0  0  0  0  0  0
   46.9070   31.0510   46.7900 C   0  0  0  0  0  0  0  0  0  0  0  0
   46.3450   30.1330   46.5820 H   0  0  0  0  0  0  0  0  0  0  0  0
   47.9910   30.8220   46.7210 H   0  0  0  0  0  0  0  0  0  0  0  0
   46.6040   31.6420   48.1380 C   0  0  1  0  0  0  0  0  0  0  0  0
   46.0880   30.7000   49.1800 C   0  0  0  0  0  0  0  0  0  0  0  0
   47.4240   31.2470   49.3120 C   0  0  1  0  0  0  0  0  0  0  0  0
   46.1780   32.6660   48.1530 H   0  0  0  0  0  0  0  0  0  0  0  0
   45.9140   29.6530   48.8590 H   0  0  0  0  0  0  0  0  0  0  0  0
   45.2830   31.0540   49.8550 H   0  0  0  0  0  0  0  0  0  0  0  0
   47.5520   32.0560   50.0950 H   0  0  0  0  0  0  0  0  0  0  0  0
   48.6740   30.4980   49.0650 C   0  0  0  0  0  0  0  0  0  0  0  0
   49.5510   30.2980   50.3330 C   0  0  0  0  0  0  0  0  0  0  0  0
   49.9900   31.2800   49.3020 C   0  0  0  0  0  0  0  0  0  0  0  0
   48.7110   29.6640   48.3470 H   0  0  0  0  0  0  0  0  0  0  0  0
   50.0890   29.3540   50.4050 H   0  0  0  0  0  0  0  0  0  0  0  0
   49.1660   30.6970   51.2880 H   0  0  0  0  0  0  0  0  0  0  0  0
   49.9210   32.3570   49.4600 H   0  0  0  0  0  0  0  0  0  0  0  0
   50.8120   30.9850   48.5980 H   0  0  0  0  0  0  0  0  0  0  0  0
  2  1  2  0  0  0  0
  2 20  1  0  0  0  0
  3  9  1  0  0  0  0
  3  8  1  0  0  0  0
  4  3  2  0  0  0  0
  5  4  1  0  0  0  0
  5  6  2  0  0  0  0
  6  7  1  0  0  0  0
  7  8  2  0  0  0  0
  7  1  1  0  0  0  0
 10  4  1  0  0  0  0
 12 13  1  0  0  0  0
 12 11  1  0  0  0  0
 13  5  1  0  0  0  0
 14 15  1  0  0  0  0
 14 13  2  0  0  0  0
 16 14  1  0  0  0  0
 17 16  1  0  0  0  0
 18 16  2  0  0  0  0
 18 19  1  0  0  0  0
 19 12  2  0  0  0  0
 20 23  1  0  0  0  0
 21 20  1  0  0  0  0
 22 20  1  0  0  0  0
 23 26  1  1  0  0  0
 23 24  1  0  0  0  0
 23 25  1  0  0  0  0
 24 25  1  0  0  0  0
 24 28  1  0  0  0  0
 25 29  1  1  0  0  0
 27 24  1  0  0  0  0
 30 32  1  0  0  0  0
 30 25  1  0  0  0  0
 30 31  1  0  0  0  0
 31 34  1  0  0  0  0
 31 35  1  0  0  0  0
 32 36  1  0  0  0  0
 32 31  1  0  0  0  0
 33 30  1  0  0  0  0
 37 32  1  0  0  0  0
M  END
>  <minimizedAffinity>
-6.31381273

>  <minimizedRMSD>
0.896530688

$$$$
