
 OpenBabel03252501393D

 35 37  0  0  0  0  0  0  0  0999 V2000
   39.1680   29.7050   42.1970 Cl  0  0  0  0  0  0  0  0  0  0  0  0
   38.0450   29.8590   40.8540 C   0  0  0  0  0  0  0  0  0  0  0  0
   37.7290   31.0910   40.2750 C   0  0  0  0  0  0  0  0  0  0  0  0
   36.8490   31.1470   39.2320 C   0  0  0  0  0  0  0  0  0  0  0  0
   36.2320   30.0320   38.6980 C   0  0  0  0  0  0  0  0  0  0  0  0
   36.5350   28.7820   39.2660 C   0  0  0  0  0  0  0  0  0  0  0  0
   35.7980   27.3130   38.6520 Cl  0  0  0  0  0  0  0  0  0  0  0  0
   37.4230   28.7560   40.3120 C   0  0  0  0  0  0  0  0  0  0  0  0
   36.6240   32.1210   38.8020 H   0  0  0  0  0  0  0  0  0  0  0  0
   35.5390   30.1080   37.8710 H   0  0  0  0  0  0  0  0  0  0  0  0
   35.9350   27.7940   42.3850 F   0  0  0  0  0  0  0  0  0  0  0  0
   36.9750   27.0020   41.9610 C   0  0  0  0  0  0  0  0  0  0  0  0
   37.7470   27.4630   40.9120 C   0  0  0  0  0  0  0  0  0  0  0  0
   38.7920   26.6220   40.5170 C   0  0  0  0  0  0  0  0  0  0  0  0
   39.3960   26.9810   39.6980 H   0  0  0  0  0  0  0  0  0  0  0  0
   38.9920   25.4220   41.1680 C   0  0  0  0  0  0  0  0  0  0  0  0
   39.8050   24.7790   40.8540 H   0  0  0  0  0  0  0  0  0  0  0  0
   38.1690   25.0190   42.2260 C   0  0  0  0  0  3  0  0  0  0  0  0
   37.1190   25.8220   42.6500 C   0  0  0  0  0  3  0  0  0  0  0  0
   38.3640   32.2040   40.8280 O   0  0  0  0  0  0  0  0  0  0  0  0
   39.4760   32.7260   40.1610 C   0  0  0  0  0  0  0  0  0  0  0  0
   39.6810   33.9530   39.8680 O   0  0  0  0  0  0  0  0  0  0  0  0
   40.5440   31.8790   39.7220 N   0  0  0  0  0  0  0  0  0  0  0  0
   40.5380   30.8730   39.9000 H   0  0  0  0  0  0  0  0  0  0  0  0
   41.5360   32.6820   39.0400 C   0  0  0  0  0  0  0  0  0  0  0  0
   41.4990   33.0210   37.7140 C   0  0  0  0  0  0  0  0  0  0  0  0
   42.5330   33.7960   37.2310 C   0  0  0  0  0  0  0  0  0  0  0  0
   43.5030   34.1610   38.1070 N   0  0  0  0  0  0  0  0  0  0  0  0
   43.5040   33.8080   39.4060 C   0  0  0  0  0  0  0  0  0  0  0  0
   42.4950   33.0450   39.8960 N   0  0  0  0  0  0  0  0  0  0  0  0
   42.5200   34.0710   36.1940 H   0  0  0  0  0  0  0  0  0  0  0  0
   44.3370   34.1570   40.0320 H   0  0  0  0  0  0  0  0  0  0  0  0
   40.4080   32.5510   36.9440 N   0  0  0  0  0  0  0  0  0  0  0  0
   39.8120   33.3570   36.6420 H   0  0  0  0  0  0  0  0  0  0  0  0
   40.2760   31.5460   36.7440 H   0  0  0  0  0  0  0  0  0  0  0  0
  2  1  1  0  0  0  0
  3 20  1  0  0  0  0
  3  2  2  0  0  0  0
  4  3  1  0  0  0  0
  5  4  2  0  0  0  0
  5  6  1  0  0  0  0
  6  8  2  0  0  0  0
  7  6  1  0  0  0  0
  8  2  1  0  0  0  0
  8 13  1  0  0  0  0
  9  4  1  0  0  0  0
 10  5  1  0  0  0  0
 12 11  1  0  0  0  0
 12 19  1  0  0  0  0
 13 12  2  0  0  0  0
 14 13  1  0  0  0  0
 14 16  2  0  0  0  0
 15 14  1  0  0  0  0
 16 18  1  0  0  0  0
 17 16  1  0  0  0  0
 18 19  2  0  0  0  0
 21 20  1  0  0  0  0
 22 21  2  0  0  0  0
 23 24  1  0  0  0  0
 23 21  1  0  0  0  0
 25 23  1  0  0  0  0
 25 30  1  0  0  0  0
 26 25  2  0  0  0  0
 27 26  1  0  0  0  0
 27 28  2  0  0  0  0
 28 29  1  0  0  0  0
 29 30  2  0  0  0  0
 29 32  1  0  0  0  0
 31 27  1  0  0  0  0
 33 26  1  0  0  0  0
 34 33  1  0  0  0  0
 35 33  1  0  0  0  0
M  END
>  <minimizedAffinity>
-6.25711393

$$$$

 OpenBabel03252501393D

 35 37  0  0  0  0  0  0  0  0999 V2000
   37.0310   27.6320   39.6990 Cl  0  0  0  0  0  0  0  0  0  0  0  0
   37.8730   27.4570   41.2310 C   0  0  0  0  0  0  0  0  0  0  0  0
   38.0750   28.5300   42.1050 C   0  0  0  0  0  0  0  0  0  0  0  0
   38.7370   28.3310   43.2830 C   0  0  0  0  0  0  0  0  0  0  0  0
   39.2340   27.1040   43.6780 C   0  0  0  0  0  0  0  0  0  0  0  0
   39.0410   26.0130   42.8140 C   0  0  0  0  0  0  0  0  0  0  0  0
   39.6400   24.4180   43.2350 Cl  0  0  0  0  0  0  0  0  0  0  0  0
   38.3740   26.2410   41.6380 C   0  0  0  0  0  0  0  0  0  0  0  0
   38.8770   29.1860   43.9420 H   0  0  0  0  0  0  0  0  0  0  0  0
   39.7540   26.9790   44.6180 H   0  0  0  0  0  0  0  0  0  0  0  0
   36.2290   24.5890   41.9670 F   0  0  0  0  0  0  0  0  0  0  0  0
   37.0710   24.2950   40.9220 C   0  0  0  0  0  0  0  0  0  0  0  0
   38.1670   25.1140   40.7300 C   0  0  0  0  0  0  0  0  0  0  0  0
   38.9940   24.7730   39.6550 C   0  0  0  0  0  0  0  0  0  0  0  0
   39.8500   25.4130   39.5040 H   0  0  0  0  0  0  0  0  0  0  0  0
   38.6860   23.6800   38.8700 C   0  0  0  0  0  0  0  0  0  0  0  0
   39.3340   23.4260   38.0400 H   0  0  0  0  0  0  0  0  0  0  0  0
   37.5570   22.8940   39.1250 C   0  0  0  0  0  3  0  0  0  0  0  0
   36.7090   23.1950   40.1810 C   0  0  0  0  0  3  0  0  0  0  0  0
   37.5640   29.7600   41.6870 O   0  0  0  0  0  0  0  0  0  0  0  0
   38.4310   30.6450   41.0390 C   0  0  0  0  0  0  0  0  0  0  0  0
   39.6850   30.7740   41.2520 O   0  0  0  0  0  0  0  0  0  0  0  0
   37.9600   31.5350   40.0210 N   0  0  0  0  0  0  0  0  0  0  0  0
   36.9840   31.5380   39.7220 H   0  0  0  0  0  0  0  0  0  0  0  0
   39.0630   32.3480   39.5550 C   0  0  0  0  0  0  0  0  0  0  0  0
   39.4860   33.5110   40.1400 C   0  0  0  0  0  0  0  0  0  0  0  0
   40.5580   34.1570   39.5590 C   0  0  0  0  0  0  0  0  0  0  0  0
   41.1070   33.5890   38.4560 N   0  0  0  0  0  0  0  0  0  0  0  0
   40.6620   32.4410   37.9100 C   0  0  0  0  0  0  0  0  0  0  0  0
   39.6090   31.7950   38.4690 N   0  0  0  0  0  0  0  0  0  0  0  0
   40.9020   35.0710   40.0040 H   0  0  0  0  0  0  0  0  0  0  0  0
   41.1780   32.0660   37.0160 H   0  0  0  0  0  0  0  0  0  0  0  0
   38.7940   33.9610   41.2900 N   0  0  0  0  0  0  0  0  0  0  0  0
   39.4220   33.9110   42.1260 H   0  0  0  0  0  0  0  0  0  0  0  0
   37.8120   34.2800   41.2440 H   0  0  0  0  0  0  0  0  0  0  0  0
  1  2  1  0  0  0  0
  2  8  2  0  0  0  0
  2  3  1  0  0  0  0
  3  4  2  0  0  0  0
  4  5  1  0  0  0  0
  4  9  1  0  0  0  0
  5 10  1  0  0  0  0
  6  7  1  0  0  0  0
  6  5  2  0  0  0  0
  8  6  1  0  0  0  0
 12 11  1  0  0  0  0
 13 12  1  0  0  0  0
 13  8  1  0  0  0  0
 14 13  2  0  0  0  0
 15 14  1  0  0  0  0
 16 18  2  0  0  0  0
 16 14  1  0  0  0  0
 17 16  1  0  0  0  0
 18 19  1  0  0  0  0
 19 12  2  0  0  0  0
 20  3  1  0  0  0  0
 21 22  2  0  0  0  0
 21 20  1  0  0  0  0
 23 21  1  0  0  0  0
 24 23  1  0  0  0  0
 25 23  1  0  0  0  0
 25 26  1  0  0  0  0
 26 33  1  0  0  0  0
 27 31  1  0  0  0  0
 27 26  2  0  0  0  0
 28 27  1  0  0  0  0
 29 28  2  0  0  0  0
 29 30  1  0  0  0  0
 30 25  2  0  0  0  0
 32 29  1  0  0  0  0
 33 34  1  0  0  0  0
 35 33  1  0  0  0  0
M  END
>  <minimizedAffinity>
-6.23724413

$$$$

 OpenBabel03252501393D

 35 37  0  0  0  0  0  0  0  0999 V2000
   38.9540   29.9290   42.4850 Cl  0  0  0  0  0  0  0  0  0  0  0  0
   37.9160   30.1320   41.0810 C   0  0  0  0  0  0  0  0  0  0  0  0
   37.7540   31.3620   40.4360 C   0  0  0  0  0  0  0  0  0  0  0  0
   36.9340   31.4570   39.3490 C   0  0  0  0  0  0  0  0  0  0  0  0
   36.2320   30.3850   38.8300 C   0  0  0  0  0  0  0  0  0  0  0  0
   36.3810   29.1390   39.4640 C   0  0  0  0  0  0  0  0  0  0  0  0
   35.5280   27.7240   38.8730 Cl  0  0  0  0  0  0  0  0  0  0  0  0
   37.2110   29.0740   40.5530 C   0  0  0  0  0  0  0  0  0  0  0  0
   36.8300   32.4280   38.8690 H   0  0  0  0  0  0  0  0  0  0  0  0
   35.5900   30.4920   37.9660 H   0  0  0  0  0  0  0  0  0  0  0  0
   39.1040   27.3100   39.6900 F   0  0  0  0  0  0  0  0  0  0  0  0
   38.3410   26.9110   40.7610 C   0  0  0  0  0  0  0  0  0  0  0  0
   37.3740   27.7830   41.2220 C   0  0  0  0  0  0  0  0  0  0  0  0
   36.6250   27.3320   42.3130 C   0  0  0  0  0  0  0  0  0  0  0  0
   35.8690   28.0130   42.6730 H   0  0  0  0  0  0  0  0  0  0  0  0
   36.8790   26.0880   42.8540 C   0  0  0  0  0  0  0  0  0  0  0  0
   36.2910   25.7500   43.6990 H   0  0  0  0  0  0  0  0  0  0  0  0
   37.8760   25.2560   42.3350 C   0  0  0  0  0  3  0  0  0  0  0  0
   38.6440   25.6640   41.2530 C   0  0  0  0  0  3  0  0  0  0  0  0
   38.4720   32.4310   40.9760 O   0  0  0  0  0  0  0  0  0  0  0  0
   39.5820   32.9010   40.2670 C   0  0  0  0  0  0  0  0  0  0  0  0
   39.8310   34.1170   39.9630 O   0  0  0  0  0  0  0  0  0  0  0  0
   40.5960   32.0060   39.7950 N   0  0  0  0  0  0  0  0  0  0  0  0
   40.5510   31.0020   39.9770 H   0  0  0  0  0  0  0  0  0  0  0  0
   41.5970   32.7630   39.0750 C   0  0  0  0  0  0  0  0  0  0  0  0
   41.5450   33.0690   37.7420 C   0  0  0  0  0  0  0  0  0  0  0  0
   42.5920   33.8020   37.2210 C   0  0  0  0  0  0  0  0  0  0  0  0
   43.5880   34.1600   38.0700 N   0  0  0  0  0  0  0  0  0  0  0  0
   43.6030   33.8400   39.3770 C   0  0  0  0  0  0  0  0  0  0  0  0
   42.5820   33.1200   39.9040 N   0  0  0  0  0  0  0  0  0  0  0  0
   42.5670   34.0500   36.1780 H   0  0  0  0  0  0  0  0  0  0  0  0
   44.4570   34.1800   39.9780 H   0  0  0  0  0  0  0  0  0  0  0  0
   40.4270   32.6120   37.0030 N   0  0  0  0  0  0  0  0  0  0  0  0
   39.8490   33.4270   36.6910 H   0  0  0  0  0  0  0  0  0  0  0  0
   40.2630   31.6070   36.8320 H   0  0  0  0  0  0  0  0  0  0  0  0
  2  1  1  0  0  0  0
  3 20  1  0  0  0  0
  3  2  2  0  0  0  0
  4  3  1  0  0  0  0
  5  4  2  0  0  0  0
  5  6  1  0  0  0  0
  6  8  2  0  0  0  0
  7  6  1  0  0  0  0
  8  2  1  0  0  0  0
  8 13  1  0  0  0  0
  9  4  1  0  0  0  0
 10  5  1  0  0  0  0
 11 12  1  0  0  0  0
 12 13  2  0  0  0  0
 12 19  1  0  0  0  0
 13 14  1  0  0  0  0
 14 15  1  0  0  0  0
 14 16  2  0  0  0  0
 16 17  1  0  0  0  0
 18 16  1  0  0  0  0
 19 18  2  0  0  0  0
 21 20  1  0  0  0  0
 22 21  2  0  0  0  0
 23 24  1  0  0  0  0
 23 21  1  0  0  0  0
 25 23  1  0  0  0  0
 25 30  1  0  0  0  0
 26 25  2  0  0  0  0
 27 26  1  0  0  0  0
 27 28  2  0  0  0  0
 28 29  1  0  0  0  0
 29 30  2  0  0  0  0
 29 32  1  0  0  0  0
 31 27  1  0  0  0  0
 33 26  1  0  0  0  0
 34 33  1  0  0  0  0
 35 33  1  0  0  0  0
M  END
>  <minimizedAffinity>
-6.18068266

$$$$

 OpenBabel03252501393D

 35 37  0  0  0  0  0  0  0  0999 V2000
   36.4370   27.8330   40.0460 Cl  0  0  0  0  0  0  0  0  0  0  0  0
   37.5140   27.6060   41.4160 C   0  0  0  0  0  0  0  0  0  0  0  0
   37.8960   28.6580   42.2540 C   0  0  0  0  0  0  0  0  0  0  0  0
   38.7360   28.4190   43.3050 C   0  0  0  0  0  0  0  0  0  0  0  0
   39.2470   27.1700   43.6000 C   0  0  0  0  0  0  0  0  0  0  0  0
   38.8760   26.0990   42.7690 C   0  0  0  0  0  0  0  0  0  0  0  0
   39.4790   24.4780   43.0690 Cl  0  0  0  0  0  0  0  0  0  0  0  0
   38.0320   26.3680   41.7220 C   0  0  0  0  0  0  0  0  0  0  0  0
   39.0130   29.2580   43.9400 H   0  0  0  0  0  0  0  0  0  0  0  0
   39.9110   27.0130   44.4400 H   0  0  0  0  0  0  0  0  0  0  0  0
   39.4660   25.8200   39.4680 F   0  0  0  0  0  0  0  0  0  0  0  0
   38.3850   25.0100   39.7150 C   0  0  0  0  0  0  0  0  0  0  0  0
   37.6380   25.2620   40.8500 C   0  0  0  0  0  0  0  0  0  0  0  0
   36.5490   24.4100   41.0570 C   0  0  0  0  0  0  0  0  0  0  0  0
   35.9650   24.6060   41.9440 H   0  0  0  0  0  0  0  0  0  0  0  0
   36.2840   23.4000   40.1550 C   0  0  0  0  0  0  0  0  0  0  0  0
   35.4370   22.7460   40.3260 H   0  0  0  0  0  0  0  0  0  0  0  0
   37.0850   23.2030   39.0240 C   0  0  0  0  0  3  0  0  0  0  0  0
   38.1770   24.0250   38.7790 C   0  0  0  0  0  3  0  0  0  0  0  0
   37.3670   29.9100   41.9390 O   0  0  0  0  0  0  0  0  0  0  0  0
   38.1580   30.7870   41.1900 C   0  0  0  0  0  0  0  0  0  0  0  0
   37.9220   31.1970   40.0020 O   0  0  0  0  0  0  0  0  0  0  0  0
   39.3690   31.3340   41.7210 N   0  0  0  0  0  0  0  0  0  0  0  0
   39.6850   31.1170   42.6690 H   0  0  0  0  0  0  0  0  0  0  0  0
   39.9880   32.1760   40.7210 C   0  0  0  0  0  0  0  0  0  0  0  0
   39.7420   33.5130   40.5540 C   0  0  0  0  0  0  0  0  0  0  0  0
   40.4250   34.1600   39.5450 C   0  0  0  0  0  0  0  0  0  0  0  0
   41.2850   33.4220   38.7990 N   0  0  0  0  0  0  0  0  0  0  0  0
   41.5010   32.1070   38.9940 C   0  0  0  0  0  0  0  0  0  0  0  0
   40.8370   31.4570   39.9820 N   0  0  0  0  0  0  0  0  0  0  0  0
   40.2440   35.2070   39.4010 H   0  0  0  0  0  0  0  0  0  0  0  0
   42.2190   31.6020   38.3340 H   0  0  0  0  0  0  0  0  0  0  0  0
   38.8090   34.1240   41.4260 N   0  0  0  0  0  0  0  0  0  0  0  0
   39.2990   34.8130   42.0450 H   0  0  0  0  0  0  0  0  0  0  0  0
   37.8050   33.8840   41.4030 H   0  0  0  0  0  0  0  0  0  0  0  0
  1  2  1  0  0  0  0
  2  8  2  0  0  0  0
  2  3  1  0  0  0  0
  3  4  2  0  0  0  0
  4  5  1  0  0  0  0
  4  9  1  0  0  0  0
  5 10  1  0  0  0  0
  6  7  1  0  0  0  0
  6  5  2  0  0  0  0
  8  6  1  0  0  0  0
 11 12  1  0  0  0  0
 12 13  1  0  0  0  0
 13 14  2  0  0  0  0
 13  8  1  0  0  0  0
 14 15  1  0  0  0  0
 16 17  1  0  0  0  0
 16 14  1  0  0  0  0
 18 16  2  0  0  0  0
 19 18  1  0  0  0  0
 19 12  2  0  0  0  0
 20  3  1  0  0  0  0
 21 23  1  0  0  0  0
 21 20  1  0  0  0  0
 22 21  2  0  0  0  0
 23 24  1  0  0  0  0
 25 23  1  0  0  0  0
 26 25  1  0  0  0  0
 26 33  1  0  0  0  0
 27 26  2  0  0  0  0
 28 29  2  0  0  0  0
 28 27  1  0  0  0  0
 29 30  1  0  0  0  0
 30 25  2  0  0  0  0
 31 27  1  0  0  0  0
 32 29  1  0  0  0  0
 33 34  1  0  0  0  0
 35 33  1  0  0  0  0
M  END
>  <minimizedAffinity>
-6.16504288

$$$$

 OpenBabel03252501393D

 35 37  0  0  0  0  0  0  0  0999 V2000
   38.2400   28.6560   37.4420 Cl  0  0  0  0  0  0  0  0  0  0  0  0
   37.7030   29.3300   38.9730 C   0  0  0  0  0  0  0  0  0  0  0  0
   37.7010   30.7040   39.2310 C   0  0  0  0  0  0  0  0  0  0  0  0
   37.2710   31.1670   40.4420 C   0  0  0  0  0  0  0  0  0  0  0  0
   36.8270   30.3420   41.4580 C   0  0  0  0  0  0  0  0  0  0  0  0
   36.8210   28.9570   41.2190 C   0  0  0  0  0  0  0  0  0  0  0  0
   36.2740   27.8350   42.4530 Cl  0  0  0  0  0  0  0  0  0  0  0  0
   37.2580   28.5200   39.9940 C   0  0  0  0  0  0  0  0  0  0  0  0
   37.2800   32.2420   40.6120 H   0  0  0  0  0  0  0  0  0  0  0  0
   36.4920   30.7400   42.4060 H   0  0  0  0  0  0  0  0  0  0  0  0
   39.3920   26.9910   40.7330 F   0  0  0  0  0  0  0  0  0  0  0  0
   38.3530   26.3330   40.1190 C   0  0  0  0  0  0  0  0  0  0  0  0
   37.2580   27.0810   39.7340 C   0  0  0  0  0  0  0  0  0  0  0  0
   36.2280   26.3670   39.1140 C   0  0  0  0  0  0  0  0  0  0  0  0
   35.3710   26.9510   38.8120 H   0  0  0  0  0  0  0  0  0  0  0  0
   36.3510   25.0050   38.9260 C   0  0  0  0  0  0  0  0  0  0  0  0
   35.5460   24.4630   38.4450 H   0  0  0  0  0  0  0  0  0  0  0  0
   37.4930   24.3120   39.3430 C   0  0  0  0  0  3  0  0  0  0  0  0
   38.5390   24.9810   39.9630 C   0  0  0  0  0  3  0  0  0  0  0  0
   38.1520   31.5190   38.1920 O   0  0  0  0  0  0  0  0  0  0  0  0
   39.5260   31.7680   38.1030 C   0  0  0  0  0  0  0  0  0  0  0  0
   40.3980   31.5520   39.0110 O   0  0  0  0  0  0  0  0  0  0  0  0
   40.1040   32.3200   36.9150 N   0  0  0  0  0  0  0  0  0  0  0  0
   39.5390   32.5290   36.0910 H   0  0  0  0  0  0  0  0  0  0  0  0
   41.5260   32.4970   37.1190 C   0  0  0  0  0  0  0  0  0  0  0  0
   42.4790   31.5390   36.8990 C   0  0  0  0  0  0  0  0  0  0  0  0
   43.7910   31.8850   37.1480 C   0  0  0  0  0  0  0  0  0  0  0  0
   44.0330   33.1450   37.5900 N   0  0  0  0  0  0  0  0  0  0  0  0
   43.0670   34.0600   37.7950 C   0  0  0  0  0  0  0  0  0  0  0  0
   41.7720   33.7350   37.5550 N   0  0  0  0  0  0  0  0  0  0  0  0
   44.5510   31.1470   36.9810 H   0  0  0  0  0  0  0  0  0  0  0  0
   43.3690   35.0530   38.1550 H   0  0  0  0  0  0  0  0  0  0  0  0
   42.0470   30.2740   36.4350 N   0  0  0  0  0  0  0  0  0  0  0  0
   42.3920   30.1150   35.4600 H   0  0  0  0  0  0  0  0  0  0  0  0
   41.4770   29.6450   37.0240 H   0  0  0  0  0  0  0  0  0  0  0  0
  1  2  1  0  0  0  0
  2  3  2  0  0  0  0
  2  8  1  0  0  0  0
  3  4  1  0  0  0  0
  4  9  1  0  0  0  0
  4  5  2  0  0  0  0
  5 10  1  0  0  0  0
  6  5  1  0  0  0  0
  6  7  1  0  0  0  0
  8  6  2  0  0  0  0
 12 11  1  0  0  0  0
 13  8  1  0  0  0  0
 13 12  2  0  0  0  0
 14 13  1  0  0  0  0
 15 14  1  0  0  0  0
 16 14  2  0  0  0  0
 16 18  1  0  0  0  0
 17 16  1  0  0  0  0
 18 19  2  0  0  0  0
 19 12  1  0  0  0  0
 20  3  1  0  0  0  0
 21 20  1  0  0  0  0
 21 22  2  0  0  0  0
 23 25  1  0  0  0  0
 23 21  1  0  0  0  0
 24 23  1  0  0  0  0
 25 30  1  0  0  0  0
 26 25  2  0  0  0  0
 26 27  1  0  0  0  0
 27 28  2  0  0  0  0
 28 29  1  0  0  0  0
 29 32  1  0  0  0  0
 30 29  2  0  0  0  0
 31 27  1  0  0  0  0
 33 26  1  0  0  0  0
 33 35  1  0  0  0  0
 34 33  1  0  0  0  0
M  END
>  <minimizedAffinity>
-5.94715405

$$$$

 OpenBabel03252501393D

 35 37  0  0  0  0  0  0  0  0999 V2000
   38.6120   27.3040   38.5620 Cl  0  0  0  0  0  0  0  0  0  0  0  0
   37.9990   28.2570   39.9060 C   0  0  0  0  0  0  0  0  0  0  0  0
   37.9380   29.6530   39.8720 C   0  0  0  0  0  0  0  0  0  0  0  0
   37.4510   30.3390   40.9480 C   0  0  0  0  0  0  0  0  0  0  0  0
   37.0020   29.7240   42.1010 C   0  0  0  0  0  0  0  0  0  0  0  0
   37.0550   28.3200   42.1560 C   0  0  0  0  0  0  0  0  0  0  0  0
   36.5060   27.4560   43.5810 Cl  0  0  0  0  0  0  0  0  0  0  0  0
   37.5480   27.6580   41.0610 C   0  0  0  0  0  0  0  0  0  0  0  0
   37.4160   31.4250   40.8910 H   0  0  0  0  0  0  0  0  0  0  0  0
   36.6210   30.2950   42.9370 H   0  0  0  0  0  0  0  0  0  0  0  0
   39.7110   26.4060   42.1550 F   0  0  0  0  0  0  0  0  0  0  0  0
   38.7170   25.5930   41.6660 C   0  0  0  0  0  0  0  0  0  0  0  0
   37.6090   26.1980   41.1050 C   0  0  0  0  0  0  0  0  0  0  0  0
   36.6270   25.3280   40.6220 C   0  0  0  0  0  0  0  0  0  0  0  0
   35.7600   25.8000   40.1850 H   0  0  0  0  0  0  0  0  0  0  0  0
   36.8050   23.9630   40.7250 C   0  0  0  0  0  0  0  0  0  0  0  0
   36.0370   23.2990   40.3470 H   0  0  0  0  0  0  0  0  0  0  0  0
   37.9570   23.4200   41.3060 C   0  0  0  0  0  3  0  0  0  0  0  0
   38.9570   24.2460   41.7990 C   0  0  0  0  0  3  0  0  0  0  0  0
   38.3960   30.2540   38.6980 O   0  0  0  0  0  0  0  0  0  0  0  0
   39.5150   31.0890   38.7810 C   0  0  0  0  0  0  0  0  0  0  0  0
   40.6850   30.7560   39.1720 O   0  0  0  0  0  0  0  0  0  0  0  0
   39.4400   32.4700   38.4100 N   0  0  0  0  0  0  0  0  0  0  0  0
   38.5750   32.8840   38.0570 H   0  0  0  0  0  0  0  0  0  0  0  0
   40.7300   33.0890   38.6260 C   0  0  0  0  0  0  0  0  0  0  0  0
   41.1670   33.6040   39.8170 C   0  0  0  0  0  0  0  0  0  0  0  0
   42.4310   34.1580   39.8400 C   0  0  0  0  0  0  0  0  0  0  0  0
   43.1380   34.1480   38.6820 N   0  0  0  0  0  0  0  0  0  0  0  0
   42.6730   33.6310   37.5300 C   0  0  0  0  0  0  0  0  0  0  0  0
   41.4330   33.0830   37.4910 N   0  0  0  0  0  0  0  0  0  0  0  0
   42.7890   34.5660   40.7650 H   0  0  0  0  0  0  0  0  0  0  0  0
   43.3270   33.6730   36.6480 H   0  0  0  0  0  0  0  0  0  0  0  0
   40.2930   33.5290   40.9280 N   0  0  0  0  0  0  0  0  0  0  0  0
   40.6880   32.8800   41.6490 H   0  0  0  0  0  0  0  0  0  0  0  0
   39.4100   34.0640   40.9620 H   0  0  0  0  0  0  0  0  0  0  0  0
  1  2  1  0  0  0  0
  2  8  1  0  0  0  0
  3  2  2  0  0  0  0
  3  4  1  0  0  0  0
  4  5  2  0  0  0  0
  5  6  1  0  0  0  0
  5 10  1  0  0  0  0
  6  7  1  0  0  0  0
  8 13  1  0  0  0  0
  8  6  2  0  0  0  0
  9  4  1  0  0  0  0
 12 19  1  0  0  0  0
 12 11  1  0  0  0  0
 13 12  2  0  0  0  0
 14 16  2  0  0  0  0
 14 13  1  0  0  0  0
 15 14  1  0  0  0  0
 16 18  1  0  0  0  0
 17 16  1  0  0  0  0
 18 19  2  0  0  0  0
 20 21  1  0  0  0  0
 20  3  1  0  0  0  0
 21 22  2  0  0  0  0
 23 25  1  0  0  0  0
 23 21  1  0  0  0  0
 24 23  1  0  0  0  0
 25 26  1  0  0  0  0
 26 27  2  0  0  0  0
 26 33  1  0  0  0  0
 27 31  1  0  0  0  0
 28 27  1  0  0  0  0
 29 28  2  0  0  0  0
 30 29  1  0  0  0  0
 30 25  2  0  0  0  0
 32 29  1  0  0  0  0
 33 35  1  0  0  0  0
 33 34  1  0  0  0  0
M  END
>  <minimizedAffinity>
-5.9094615

$$$$

 OpenBabel03252501393D

 35 37  0  0  0  0  0  0  0  0999 V2000
   38.7170   27.2960   38.4700 Cl  0  0  0  0  0  0  0  0  0  0  0  0
   38.0880   28.3350   39.7390 C   0  0  0  0  0  0  0  0  0  0  0  0
   37.9270   29.7140   39.5720 C   0  0  0  0  0  0  0  0  0  0  0  0
   37.4320   30.4700   40.5960 C   0  0  0  0  0  0  0  0  0  0  0  0
   37.0710   29.9450   41.8220 C   0  0  0  0  0  0  0  0  0  0  0  0
   37.2250   28.5610   42.0120 C   0  0  0  0  0  0  0  0  0  0  0  0
   36.7920   27.8090   43.5370 Cl  0  0  0  0  0  0  0  0  0  0  0  0
   37.7240   27.8270   40.9660 C   0  0  0  0  0  0  0  0  0  0  0  0
   37.3170   31.5390   40.4340 H   0  0  0  0  0  0  0  0  0  0  0  0
   36.6810   30.5700   42.6140 H   0  0  0  0  0  0  0  0  0  0  0  0
   40.0580   26.8310   41.9660 F   0  0  0  0  0  0  0  0  0  0  0  0
   39.0840   25.9110   41.6590 C   0  0  0  0  0  0  0  0  0  0  0  0
   37.8900   26.3860   41.1500 C   0  0  0  0  0  0  0  0  0  0  0  0
   36.9320   25.4120   40.8540 C   0  0  0  0  0  0  0  0  0  0  0  0
   35.9980   25.7820   40.4570 H   0  0  0  0  0  0  0  0  0  0  0  0
   37.2140   24.0790   41.0750 C   0  0  0  0  0  0  0  0  0  0  0  0
   36.4630   23.3340   40.8410 H   0  0  0  0  0  0  0  0  0  0  0  0
   38.4480   23.6710   41.5940 C   0  0  0  0  0  3  0  0  0  0  0  0
   39.4280   24.6040   41.9030 C   0  0  0  0  0  3  0  0  0  0  0  0
   38.2970   30.2230   38.3260 O   0  0  0  0  0  0  0  0  0  0  0  0
   39.5690   30.7900   38.2000 C   0  0  0  0  0  0  0  0  0  0  0  0
   40.5440   30.6600   39.0160 O   0  0  0  0  0  0  0  0  0  0  0  0
   39.9070   31.6130   37.0780 N   0  0  0  0  0  0  0  0  0  0  0  0
   39.2390   31.7960   36.3270 H   0  0  0  0  0  0  0  0  0  0  0  0
   41.2670   32.0830   37.2290 C   0  0  0  0  0  0  0  0  0  0  0  0
   42.3860   31.3880   36.8550 C   0  0  0  0  0  0  0  0  0  0  0  0
   43.6070   31.9930   37.0740 C   0  0  0  0  0  0  0  0  0  0  0  0
   43.6020   33.2250   37.6410 N   0  0  0  0  0  0  0  0  0  0  0  0
   42.4790   33.8770   37.9950 C   0  0  0  0  0  0  0  0  0  0  0  0
   41.2710   33.2970   37.7870 N   0  0  0  0  0  0  0  0  0  0  0  0
   44.4940   31.4620   36.7870 H   0  0  0  0  0  0  0  0  0  0  0  0
   42.5850   34.8730   38.4470 H   0  0  0  0  0  0  0  0  0  0  0  0
   42.2060   30.1090   36.2760 N   0  0  0  0  0  0  0  0  0  0  0  0
   42.5040   30.1270   35.2720 H   0  0  0  0  0  0  0  0  0  0  0  0
   41.8310   29.3150   36.8190 H   0  0  0  0  0  0  0  0  0  0  0  0
  1  2  1  0  0  0  0
  2  8  1  0  0  0  0
  3  2  2  0  0  0  0
  3  4  1  0  0  0  0
  4  5  2  0  0  0  0
  5  6  1  0  0  0  0
  5 10  1  0  0  0  0
  6  7  1  0  0  0  0
  8 13  1  0  0  0  0
  8  6  2  0  0  0  0
  9  4  1  0  0  0  0
 12 19  1  0  0  0  0
 12 11  1  0  0  0  0
 13 12  2  0  0  0  0
 14 16  2  0  0  0  0
 14 13  1  0  0  0  0
 15 14  1  0  0  0  0
 16 18  1  0  0  0  0
 17 16  1  0  0  0  0
 18 19  2  0  0  0  0
 20  3  1  0  0  0  0
 21 20  1  0  0  0  0
 21 22  2  0  0  0  0
 23 25  1  0  0  0  0
 23 21  1  0  0  0  0
 24 23  1  0  0  0  0
 25 30  1  0  0  0  0
 26 27  1  0  0  0  0
 26 25  2  0  0  0  0
 27 28  2  0  0  0  0
 28 29  1  0  0  0  0
 29 32  1  0  0  0  0
 30 29  2  0  0  0  0
 31 27  1  0  0  0  0
 33 35  1  0  0  0  0
 33 26  1  0  0  0  0
 34 33  1  0  0  0  0
M  END
>  <minimizedAffinity>
-5.87876892

$$$$

 OpenBabel03252501393D

 35 37  0  0  0  0  0  0  0  0999 V2000
   36.7250   31.5460   38.6200 Cl  0  0  0  0  0  0  0  0  0  0  0  0
   37.2660   30.4990   39.9230 C   0  0  0  0  0  0  0  0  0  0  0  0
   38.0100   30.9710   41.0080 C   0  0  0  0  0  0  0  0  0  0  0  0
   38.4020   30.1080   41.9910 C   0  0  0  0  0  0  0  0  0  0  0  0
   38.1020   28.7590   41.9820 C   0  0  0  0  0  0  0  0  0  0  0  0
   37.3540   28.2640   40.9000 C   0  0  0  0  0  0  0  0  0  0  0  0
   36.9280   26.5640   40.8060 Cl  0  0  0  0  0  0  0  0  0  0  0  0
   36.9750   29.1530   39.9270 C   0  0  0  0  0  0  0  0  0  0  0  0
   38.9790   30.5070   42.8230 H   0  0  0  0  0  0  0  0  0  0  0  0
   38.4270   28.1010   42.7760 H   0  0  0  0  0  0  0  0  0  0  0  0
   34.2550   29.3540   39.9340 F   0  0  0  0  0  0  0  0  0  0  0  0
   34.8210   28.7660   38.8280 C   0  0  0  0  0  0  0  0  0  0  0  0
   36.1970   28.6500   38.7960 C   0  0  0  0  0  0  0  0  0  0  0  0
   36.7250   28.0450   37.6510 C   0  0  0  0  0  0  0  0  0  0  0  0
   37.8000   27.9550   37.6240 H   0  0  0  0  0  0  0  0  0  0  0  0
   35.8790   27.6120   36.6500 C   0  0  0  0  0  0  0  0  0  0  0  0
   36.3000   27.1450   35.7670 H   0  0  0  0  0  0  0  0  0  0  0  0
   34.4920   27.7630   36.7510 C   0  0  0  0  0  3  0  0  0  0  0  0
   33.9250   28.3580   37.8700 C   0  0  0  0  0  3  0  0  0  0  0  0
   38.3010   32.3360   40.9980 O   0  0  0  0  0  0  0  0  0  0  0  0
   39.4180   32.7650   40.2740 C   0  0  0  0  0  0  0  0  0  0  0  0
   39.7140   33.9720   39.9760 O   0  0  0  0  0  0  0  0  0  0  0  0
   40.3830   31.8310   39.7750 N   0  0  0  0  0  0  0  0  0  0  0  0
   40.2980   30.8280   39.9480 H   0  0  0  0  0  0  0  0  0  0  0  0
   41.4040   32.5510   39.0440 C   0  0  0  0  0  0  0  0  0  0  0  0
   41.3460   32.8640   37.7130 C   0  0  0  0  0  0  0  0  0  0  0  0
   42.4140   33.5570   37.1800 C   0  0  0  0  0  0  0  0  0  0  0  0
   43.4340   33.8720   38.0160 N   0  0  0  0  0  0  0  0  0  0  0  0
   43.4540   33.5460   39.3220 C   0  0  0  0  0  0  0  0  0  0  0  0
   42.4130   32.8650   39.8610 N   0  0  0  0  0  0  0  0  0  0  0  0
   42.3850   33.8110   36.1380 H   0  0  0  0  0  0  0  0  0  0  0  0
   44.3300   33.8490   39.9130 H   0  0  0  0  0  0  0  0  0  0  0  0
   40.2010   32.4550   36.9880 N   0  0  0  0  0  0  0  0  0  0  0  0
   39.6510   33.2940   36.6870 H   0  0  0  0  0  0  0  0  0  0  0  0
   39.9940   31.4570   36.8150 H   0  0  0  0  0  0  0  0  0  0  0  0
  1  2  1  0  0  0  0
  2  8  2  0  0  0  0
  2  3  1  0  0  0  0
  3  4  2  0  0  0  0
  4  9  1  0  0  0  0
  5  4  1  0  0  0  0
  5 10  1  0  0  0  0
  6  5  2  0  0  0  0
  7  6  1  0  0  0  0
  8  6  1  0  0  0  0
 12 11  1  0  0  0  0
 13 12  1  0  0  0  0
 13  8  1  0  0  0  0
 14 13  2  0  0  0  0
 15 14  1  0  0  0  0
 16 18  2  0  0  0  0
 16 14  1  0  0  0  0
 17 16  1  0  0  0  0
 18 19  1  0  0  0  0
 19 12  2  0  0  0  0
 20  3  1  0  0  0  0
 21 20  1  0  0  0  0
 22 21  2  0  0  0  0
 23 24  1  0  0  0  0
 23 21  1  0  0  0  0
 25 23  1  0  0  0  0
 25 30  1  0  0  0  0
 26 25  2  0  0  0  0
 27 26  1  0  0  0  0
 27 28  2  0  0  0  0
 28 29  1  0  0  0  0
 29 30  2  0  0  0  0
 29 32  1  0  0  0  0
 31 27  1  0  0  0  0
 33 26  1  0  0  0  0
 34 33  1  0  0  0  0
 35 33  1  0  0  0  0
M  END
>  <minimizedAffinity>
-5.87026358

$$$$

 OpenBabel03252501393D

 35 37  0  0  0  0  0  0  0  0999 V2000
   36.7060   31.6740   39.5770 Cl  0  0  0  0  0  0  0  0  0  0  0  0
   37.3020   30.1990   40.3240 C   0  0  0  0  0  0  0  0  0  0  0  0
   38.2600   30.2050   41.3420 C   0  0  0  0  0  0  0  0  0  0  0  0
   38.6840   29.0250   41.8840 C   0  0  0  0  0  0  0  0  0  0  0  0
   38.2150   27.7910   41.4790 C   0  0  0  0  0  0  0  0  0  0  0  0
   37.2510   27.7620   40.4550 C   0  0  0  0  0  0  0  0  0  0  0  0
   36.6000   26.2380   39.8780 Cl  0  0  0  0  0  0  0  0  0  0  0  0
   36.8440   28.9610   39.9300 C   0  0  0  0  0  0  0  0  0  0  0  0
   39.4300   29.0640   42.6750 H   0  0  0  0  0  0  0  0  0  0  0  0
   38.5700   26.8730   41.9280 H   0  0  0  0  0  0  0  0  0  0  0  0
   37.6200   28.9640   37.3160 F   0  0  0  0  0  0  0  0  0  0  0  0
   36.2660   28.9470   37.5500 C   0  0  0  0  0  0  0  0  0  0  0  0
   35.8420   28.9450   38.8650 C   0  0  0  0  0  0  0  0  0  0  0  0
   34.4560   28.9280   39.0520 C   0  0  0  0  0  0  0  0  0  0  0  0
   34.1240   28.9250   40.0790 H   0  0  0  0  0  0  0  0  0  0  0  0
   33.6150   28.9130   37.9580 C   0  0  0  0  0  0  0  0  0  0  0  0
   32.5430   28.8990   38.1150 H   0  0  0  0  0  0  0  0  0  0  0  0
   34.1170   28.9160   36.6510 C   0  0  0  0  0  3  0  0  0  0  0  0
   35.4850   28.9330   36.4200 C   0  0  0  0  0  3  0  0  0  0  0  0
   38.7200   31.4620   41.7370 O   0  0  0  0  0  0  0  0  0  0  0  0
   39.8310   31.9930   41.0740 C   0  0  0  0  0  0  0  0  0  0  0  0
   40.7270   31.3350   40.4450 O   0  0  0  0  0  0  0  0  0  0  0  0
   40.0720   33.4040   41.0410 N   0  0  0  0  0  0  0  0  0  0  0  0
   39.4320   34.0680   41.4820 H   0  0  0  0  0  0  0  0  0  0  0  0
   41.2990   33.6580   40.3170 C   0  0  0  0  0  0  0  0  0  0  0  0
   42.5530   33.6480   40.8660 C   0  0  0  0  0  0  0  0  0  0  0  0
   43.6140   33.9130   40.0230 C   0  0  0  0  0  0  0  0  0  0  0  0
   43.3290   34.1610   38.7200 N   0  0  0  0  0  0  0  0  0  0  0  0
   42.0810   34.1610   38.2170 C   0  0  0  0  0  0  0  0  0  0  0  0
   41.0280   33.9030   39.0330 N   0  0  0  0  0  0  0  0  0  0  0  0
   44.6030   33.9100   40.4370 H   0  0  0  0  0  0  0  0  0  0  0  0
   41.9590   34.3740   37.1460 H   0  0  0  0  0  0  0  0  0  0  0  0
   42.6660   33.3700   42.2490 N   0  0  0  0  0  0  0  0  0  0  0  0
   43.1520   32.4540   42.3900 H   0  0  0  0  0  0  0  0  0  0  0  0
   42.3010   34.0190   42.9660 H   0  0  0  0  0  0  0  0  0  0  0  0
  1  2  1  0  0  0  0
  2  3  1  0  0  0  0
  3 20  1  0  0  0  0
  3  4  2  0  0  0  0
  4  9  1  0  0  0  0
  5  4  1  0  0  0  0
  5 10  1  0  0  0  0
  6  5  2  0  0  0  0
  7  6  1  0  0  0  0
  8  2  2  0  0  0  0
  8  6  1  0  0  0  0
 11 12  1  0  0  0  0
 12 13  1  0  0  0  0
 13 14  2  0  0  0  0
 13  8  1  0  0  0  0
 14 15  1  0  0  0  0
 16 17  1  0  0  0  0
 16 14  1  0  0  0  0
 18 16  2  0  0  0  0
 19 18  1  0  0  0  0
 19 12  2  0  0  0  0
 21 20  1  0  0  0  0
 22 21  2  0  0  0  0
 23 21  1  0  0  0  0
 23 24  1  0  0  0  0
 25 26  1  0  0  0  0
 25 23  1  0  0  0  0
 26 33  1  0  0  0  0
 27 31  1  0  0  0  0
 27 26  2  0  0  0  0
 28 27  1  0  0  0  0
 29 28  2  0  0  0  0
 29 30  1  0  0  0  0
 30 25  2  0  0  0  0
 32 29  1  0  0  0  0
 33 34  1  0  0  0  0
 33 35  1  0  0  0  0
M  END
>  <minimizedAffinity>
-5.85046721

$$$$
