
 OpenBabel03252508173D

 47 51  0  0  1  0  0  0  0  0999 V2000
   46.2710   30.9320   46.9160 C   0  0  0  0  0  0  0  0  0  0  0  0
   46.8320   30.1430   46.4520 H   0  0  0  0  0  0  0  0  0  0  0  0
   45.2360   30.5440   47.1490 H   0  0  0  0  0  0  0  0  0  0  0  0
   46.7800   31.5660   48.1560 C   0  0  1  0  0  0  0  0  0  0  0  0
   46.3640   30.9040   49.4250 C   0  0  0  0  0  0  0  0  0  0  0  0
   47.7580   30.8650   49.0090 C   0  0  1  0  0  0  0  0  0  0  0  0
   46.5710   32.6730   48.2360 H   0  0  0  0  0  0  0  0  0  0  0  0
   46.0820   31.4750   50.3310 H   0  0  0  0  0  0  0  0  0  0  0  0
   45.8060   29.9260   49.3760 H   0  0  0  0  0  0  0  0  0  0  0  0
   48.4500   31.5250   49.5740 H   0  0  0  0  0  0  0  0  0  0  0  0
   48.4020   29.6280   48.4630 C   0  0  2  0  0  0  0  0  0  0  0  0
   49.7160   29.2360   49.1850 C   0  0  0  0  0  0  0  0  0  0  0  0
   49.7860   29.7920   47.8290 C   0  0  1  0  0  0  0  0  0  0  0  0
   47.8290   28.7360   48.2080 H   0  0  0  0  0  0  0  0  0  0  0  0
   50.0150   29.8630   50.0600 H   0  0  0  0  0  0  0  0  0  0  0  0
   49.9560   28.1850   49.3410 H   0  0  0  0  0  0  0  0  0  0  0  0
   50.1550   30.8610   47.8000 H   0  0  0  0  0  0  0  0  0  0  0  0
   48.7690   30.1740   45.1530 F   0  0  0  0  0  0  0  0  0  0  0  0
   49.6590   29.1680   45.3200 C   0  0  0  0  0  0  0  0  0  0  0  0
   50.1010   29.0400   46.6190 C   0  0  0  0  0  0  0  0  0  0  0  0
   51.0240   28.0060   46.8320 C   0  0  0  0  0  0  0  0  0  0  0  0
   51.4690   27.7790   47.8140 H   0  0  0  0  0  0  0  0  0  0  0  0
   51.4670   27.1760   45.8440 C   0  0  0  0  0  0  0  0  0  0  0  0
   52.1770   26.3780   46.0000 H   0  0  0  0  0  0  0  0  0  0  0  0
   51.0090   27.3250   44.5550 C   0  0  0  0  0  3  0  0  0  0  0  0
   50.1040   28.3310   44.3200 C   0  0  0  0  0  3  0  0  0  0  0  0
   45.8160   33.1400   46.2210 C   0  0  0  0  0  3  0  0  0  0  0  0
   46.0730   31.9650   45.8280 C   0  0  0  0  0  3  0  0  0  0  0  0
   44.5180   36.1000   44.4520 C   0  0  0  0  0  0  0  0  0  0  0  0
   45.1850   36.0490   43.2280 C   0  0  0  0  0  0  0  0  0  0  0  0
   46.0460   35.0090   43.0550 C   0  0  0  0  0  0  0  0  0  0  0  0
   46.2190   34.0910   44.0420 N   0  0  0  0  0  0  0  0  0  0  0  0
   45.5600   34.1680   45.2130 C   0  0  0  0  0  0  0  0  0  0  0  0
   44.7210   35.1780   45.3840 N   0  0  0  0  0  0  0  0  0  0  0  0
   43.8270   36.8890   44.6570 H   0  0  0  0  0  0  0  0  0  0  0  0
   45.0270   36.7950   42.4610 H   0  0  0  0  0  0  0  0  0  0  0  0
   46.8080   34.8260   41.8270 C   0  0  0  0  0  0  0  0  0  0  0  0
   48.0260   35.3820   41.5750 C   0  0  0  0  0  0  0  0  0  0  0  0
   48.7300   35.1930   40.4020 C   0  0  0  0  0  0  0  0  0  0  0  0
   48.2030   34.4020   39.4030 C   0  0  0  0  0  0  0  0  0  0  0  0
   46.9820   33.8150   39.5970 C   0  0  0  0  0  0  0  0  0  0  0  0
   46.3230   34.0380   40.7880 C   0  0  0  0  0  0  0  0  0  0  0  0
   48.4790   36.0150   42.3370 H   0  0  0  0  0  0  0  0  0  0  0  0
   49.7000   35.6670   40.2620 H   0  0  0  0  0  0  0  0  0  0  0  0
   48.7510   34.2510   38.4810 H   0  0  0  0  0  0  0  0  0  0  0  0
   46.5410   33.1860   38.8290 H   0  0  0  0  0  0  0  0  0  0  0  0
   45.3450   33.5440   40.8970 H   0  0  0  0  0  0  0  0  0  0  0  0
  1  3  1  0  0  0  0
  1  4  1  0  0  0  0
  2  1  1  0  0  0  0
  4  7  1  1  0  0  0
  4  6  1  0  0  0  0
  4  5  1  0  0  0  0
  5  8  1  0  0  0  0
  6  5  1  0  0  0  0
  6 10  1  1  0  0  0
  9  5  1  0  0  0  0
 11 14  1  6  0  0  0
 11  6  1  0  0  0  0
 11 12  1  0  0  0  0
 12 16  1  0  0  0  0
 12 15  1  0  0  0  0
 13 17  1  6  0  0  0
 13 11  1  0  0  0  0
 13 12  1  0  0  0  0
 18 19  1  0  0  0  0
 19 20  1  0  0  0  0
 20 21  2  0  0  0  0
 20 13  1  0  0  0  0
 21 22  1  0  0  0  0
 23 24  1  0  0  0  0
 23 21  1  0  0  0  0
 25 23  2  0  0  0  0
 26 25  1  0  0  0  0
 26 19  2  0  0  0  0
 28 27  2  0  0  0  0
 28  1  1  0  0  0  0
 29 35  1  0  0  0  0
 29 34  1  0  0  0  0
 30 29  2  0  0  0  0
 31 30  1  0  0  0  0
 31 32  2  0  0  0  0
 32 33  1  0  0  0  0
 33 34  2  0  0  0  0
 33 27  1  0  0  0  0
 36 30  1  0  0  0  0
 37 31  1  0  0  0  0
 38 37  1  0  0  0  0
 38 43  1  0  0  0  0
 39 38  2  0  0  0  0
 40 41  2  0  0  0  0
 40 39  1  0  0  0  0
 41 42  1  0  0  0  0
 42 47  1  0  0  0  0
 42 37  2  0  0  0  0
 44 39  1  0  0  0  0
 45 40  1  0  0  0  0
 46 41  1  0  0  0  0
M  END
>  <minimizedAffinity>
-6.04302311

>  <minimizedRMSD>
2.22673678

$$$$
