
 OpenBabel03242520113D

 29 31  0  0  0  0  0  0  0  0999 V2000
   39.1830   31.6550   39.1530 C   0  0  0  0  0  0  0  0  0  0  0  0
   38.2790   32.6620   39.1720 C   0  0  0  0  0  0  0  0  0  0  0  0
   37.1580   32.5330   39.9470 C   0  0  0  0  0  0  0  0  0  0  0  0
   36.9600   31.3750   40.7020 C   0  0  0  0  0  0  0  0  0  0  0  0
   37.9010   30.3710   40.6570 C   0  0  0  0  0  0  0  0  0  0  0  0
   38.9540   30.5530   39.8940 N   0  0  0  0  0  0  0  0  0  0  0  0
   38.5100   33.5150   38.5640 H   0  0  0  0  0  0  0  0  0  0  0  0
   36.4300   33.3380   39.9670 H   0  0  0  0  0  0  0  0  0  0  0  0
   36.0710   31.3050   41.2990 H   0  0  0  0  0  0  0  0  0  0  0  0
   42.0500   32.9230   37.2510 C   0  0  0  0  0  0  0  0  0  0  0  0
   42.7140   31.7300   36.8880 C   0  0  0  0  0  0  0  0  0  0  0  0
   42.1760   30.5110   37.2940 C   0  0  0  0  0  0  0  0  0  0  0  0
   41.0310   30.5510   38.0260 N   0  0  0  0  0  0  0  0  0  0  0  0
   40.4210   31.6830   38.3580 C   0  0  0  0  0  0  0  0  0  0  0  0
   40.9360   32.8660   37.9680 N   0  0  0  0  0  0  0  0  0  0  0  0
   42.6070   34.1610   36.8320 N   0  0  0  0  0  0  0  0  0  0  0  0
   43.6270   31.7690   36.3010 H   0  0  0  0  0  0  0  0  0  0  0  0
   42.6300   29.5820   37.0520 H   0  0  0  0  0  0  0  0  0  0  0  0
   42.0860   34.7990   36.1940 H   0  0  0  0  0  0  0  0  0  0  0  0
   43.5530   34.4370   37.1670 H   0  0  0  0  0  0  0  0  0  0  0  0
   38.8670   30.1580   43.2200 F   0  0  0  0  0  0  0  0  0  0  0  0
   38.2390   29.0610   42.7070 C   0  0  0  0  0  0  0  0  0  0  0  0
   37.7460   29.1410   41.4230 C   0  0  0  0  0  0  0  0  0  0  0  0
   37.1220   28.0010   40.9620 C   0  0  0  0  0  0  0  0  0  0  0  0
   36.7170   27.9960   39.9750 H   0  0  0  0  0  0  0  0  0  0  0  0
   36.9960   26.8560   41.7230 C   0  0  0  0  0  0  0  0  0  0  0  0
   36.5060   25.9680   41.3500 H   0  0  0  0  0  0  0  0  0  0  0  0
   37.5180   26.8580   43.0000 C   0  0  0  0  0  3  0  0  0  0  0  0
   38.1590   27.9620   43.5370 C   0  0  0  0  0  3  0  0  0  0  0  0
  1  2  2  0  0  0  0
  1  6  1  0  0  0  0
  2  3  1  0  0  0  0
  3  8  1  0  0  0  0
  3  4  2  0  0  0  0
  4  9  1  0  0  0  0
  5  4  1  0  0  0  0
  5 23  1  0  0  0  0
  6  5  2  0  0  0  0
  7  2  1  0  0  0  0
 10 15  1  0  0  0  0
 11 10  2  0  0  0  0
 11 12  1  0  0  0  0
 12 13  2  0  0  0  0
 13 14  1  0  0  0  0
 14  1  1  0  0  0  0
 15 14  2  0  0  0  0
 16 20  1  0  0  0  0
 16 10  1  0  0  0  0
 17 11  1  0  0  0  0
 18 12  1  0  0  0  0
 19 16  1  0  0  0  0
 22 21  1  0  0  0  0
 22 29  1  0  0  0  0
 23 22  2  0  0  0  0
 24 23  1  0  0  0  0
 24 26  2  0  0  0  0
 25 24  1  0  0  0  0
 26 28  1  0  0  0  0
 27 26  1  0  0  0  0
 28 29  2  0  0  0  0
M  END
>  <minimizedAffinity>
-6.23018074

$$$$

 OpenBabel03242520113D

 29 31  0  0  0  0  0  0  0  0999 V2000
   39.0550   31.6570   39.0580 C   0  0  0  0  0  0  0  0  0  0  0  0
   38.1240   32.6350   38.9710 C   0  0  0  0  0  0  0  0  0  0  0  0
   36.9870   32.5400   39.7280 C   0  0  0  0  0  0  0  0  0  0  0  0
   36.8020   31.4440   40.5740 C   0  0  0  0  0  0  0  0  0  0  0  0
   37.7700   30.4680   40.6360 C   0  0  0  0  0  0  0  0  0  0  0  0
   38.8370   30.6150   39.8850 N   0  0  0  0  0  0  0  0  0  0  0  0
   38.3460   33.4400   38.2970 H   0  0  0  0  0  0  0  0  0  0  0  0
   36.2370   33.3210   39.6630 H   0  0  0  0  0  0  0  0  0  0  0  0
   35.9000   31.3980   41.1540 H   0  0  0  0  0  0  0  0  0  0  0  0
   41.9860   32.8520   37.2070 C   0  0  0  0  0  0  0  0  0  0  0  0
   42.6390   31.6440   36.8760 C   0  0  0  0  0  0  0  0  0  0  0  0
   42.0720   30.4390   37.2870 C   0  0  0  0  0  0  0  0  0  0  0  0
   40.9100   30.5080   37.9900 N   0  0  0  0  0  0  0  0  0  0  0  0
   40.3110   31.6540   38.2930 C   0  0  0  0  0  0  0  0  0  0  0  0
   40.8540   32.8230   37.8980 N   0  0  0  0  0  0  0  0  0  0  0  0
   42.5720   34.0750   36.7840 N   0  0  0  0  0  0  0  0  0  0  0  0
   43.5660   31.6600   36.3110 H   0  0  0  0  0  0  0  0  0  0  0  0
   42.5160   29.5000   37.0680 H   0  0  0  0  0  0  0  0  0  0  0  0
   42.0770   34.7120   36.1240 H   0  0  0  0  0  0  0  0  0  0  0  0
   43.5140   34.3410   37.1370 H   0  0  0  0  0  0  0  0  0  0  0  0
   36.8310   28.0780   39.6600 F   0  0  0  0  0  0  0  0  0  0  0  0
   37.1560   28.1150   40.9840 C   0  0  0  0  0  0  0  0  0  0  0  0
   37.6290   29.3030   41.5000 C   0  0  0  0  0  0  0  0  0  0  0  0
   37.9400   29.2760   42.8430 C   0  0  0  0  0  0  0  0  0  0  0  0
   38.3120   30.1630   43.3050 H   0  0  0  0  0  0  0  0  0  0  0  0
   37.7920   28.1480   43.6250 C   0  0  0  0  0  0  0  0  0  0  0  0
   38.0380   28.1400   44.6770 H   0  0  0  0  0  0  0  0  0  0  0  0
   37.3110   26.9990   43.0310 C   0  0  0  0  0  3  0  0  0  0  0  0
   36.9770   26.9430   41.6880 C   0  0  0  0  0  3  0  0  0  0  0  0
  1  6  1  0  0  0  0
  2  1  2  0  0  0  0
  2  3  1  0  0  0  0
  3  4  2  0  0  0  0
  4  5  1  0  0  0  0
  4  9  1  0  0  0  0
  5 23  1  0  0  0  0
  6  5  2  0  0  0  0
  7  2  1  0  0  0  0
  8  3  1  0  0  0  0
 10 15  1  0  0  0  0
 11 10  2  0  0  0  0
 11 12  1  0  0  0  0
 12 13  2  0  0  0  0
 13 14  1  0  0  0  0
 14  1  1  0  0  0  0
 15 14  2  0  0  0  0
 16 20  1  0  0  0  0
 16 10  1  0  0  0  0
 17 11  1  0  0  0  0
 18 12  1  0  0  0  0
 19 16  1  0  0  0  0
 21 22  1  0  0  0  0
 22 23  2  0  0  0  0
 22 29  1  0  0  0  0
 23 24  1  0  0  0  0
 24 25  1  0  0  0  0
 24 26  2  0  0  0  0
 26 27  1  0  0  0  0
 28 26  1  0  0  0  0
 29 28  2  0  0  0  0
M  END
>  <minimizedAffinity>
-6.12439299

$$$$

 OpenBabel03242520113D

 29 31  0  0  0  0  0  0  0  0999 V2000
   37.6860   30.1320   40.5140 C   0  0  0  0  0  0  0  0  0  0  0  0
   36.3370   30.2000   40.4370 C   0  0  0  0  0  0  0  0  0  0  0  0
   35.5920   29.1440   40.8870 C   0  0  0  0  0  0  0  0  0  0  0  0
   36.2260   28.0170   41.4150 C   0  0  0  0  0  0  0  0  0  0  0  0
   37.6010   27.9830   41.4780 C   0  0  0  0  0  0  0  0  0  0  0  0
   38.2600   29.0260   41.0290 N   0  0  0  0  0  0  0  0  0  0  0  0
   35.9320   31.1010   40.0180 H   0  0  0  0  0  0  0  0  0  0  0  0
   34.5090   29.1930   40.8290 H   0  0  0  0  0  0  0  0  0  0  0  0
   35.6140   27.2050   41.7600 H   0  0  0  0  0  0  0  0  0  0  0  0
   39.7240   32.2480   38.3200 C   0  0  0  0  0  0  0  0  0  0  0  0
   40.2500   33.1950   39.2270 C   0  0  0  0  0  0  0  0  0  0  0  0
   39.9040   33.0990   40.5740 C   0  0  0  0  0  0  0  0  0  0  0  0
   39.0700   32.0850   40.9290 N   0  0  0  0  0  0  0  0  0  0  0  0
   38.5850   31.2050   40.0610 C   0  0  0  0  0  0  0  0  0  0  0  0
   38.9160   31.2920   38.7570 N   0  0  0  0  0  0  0  0  0  0  0  0
   40.0830   32.3550   36.9500 N   0  0  0  0  0  0  0  0  0  0  0  0
   40.9120   33.9810   38.8760 H   0  0  0  0  0  0  0  0  0  0  0  0
   40.2670   33.7810   41.3030 H   0  0  0  0  0  0  0  0  0  0  0  0
   40.6130   31.5970   36.4690 H   0  0  0  0  0  0  0  0  0  0  0  0
   39.8130   33.2060   36.4130 H   0  0  0  0  0  0  0  0  0  0  0  0
   39.3440   28.2520   43.5840 F   0  0  0  0  0  0  0  0  0  0  0  0
   39.1840   26.9960   43.0750 C   0  0  0  0  0  0  0  0  0  0  0  0
   38.3150   26.8330   42.0180 C   0  0  0  0  0  0  0  0  0  0  0  0
   38.1960   25.5420   41.5500 C   0  0  0  0  0  0  0  0  0  0  0  0
   37.5390   25.3460   40.7320 H   0  0  0  0  0  0  0  0  0  0  0  0
   38.8920   24.4800   42.0930 C   0  0  0  0  0  0  0  0  0  0  0  0
   38.7920   23.4730   41.7160 H   0  0  0  0  0  0  0  0  0  0  0  0
   39.7430   24.7290   43.1510 C   0  0  0  0  0  3  0  0  0  0  0  0
   39.9180   25.9970   43.6790 C   0  0  0  0  0  3  0  0  0  0  0  0
  1  6  1  0  0  0  0
  2  1  2  0  0  0  0
  2  3  1  0  0  0  0
  3  4  2  0  0  0  0
  4  5  1  0  0  0  0
  4  9  1  0  0  0  0
  5 23  1  0  0  0  0
  6  5  2  0  0  0  0
  7  2  1  0  0  0  0
  8  3  1  0  0  0  0
 10 15  2  0  0  0  0
 10 11  1  0  0  0  0
 11 12  2  0  0  0  0
 12 13  1  0  0  0  0
 12 18  1  0  0  0  0
 14  1  1  0  0  0  0
 14 13  2  0  0  0  0
 15 14  1  0  0  0  0
 16 10  1  0  0  0  0
 17 11  1  0  0  0  0
 19 16  1  0  0  0  0
 20 16  1  0  0  0  0
 22 21  1  0  0  0  0
 22 29  1  0  0  0  0
 23 22  2  0  0  0  0
 24 23  1  0  0  0  0
 24 26  2  0  0  0  0
 25 24  1  0  0  0  0
 26 28  1  0  0  0  0
 27 26  1  0  0  0  0
 28 29  2  0  0  0  0
M  END
>  <minimizedAffinity>
-6.08392763

$$$$

 OpenBabel03242520113D

 29 31  0  0  0  0  0  0  0  0999 V2000
   38.6390   31.2670   38.5910 C   0  0  0  0  0  0  0  0  0  0  0  0
   37.8020   31.3620   37.5330 C   0  0  0  0  0  0  0  0  0  0  0  0
   36.7650   30.4750   37.4240 C   0  0  0  0  0  0  0  0  0  0  0  0
   36.5840   29.4900   38.3980 C   0  0  0  0  0  0  0  0  0  0  0  0
   37.4560   29.4240   39.4610 C   0  0  0  0  0  0  0  0  0  0  0  0
   38.4310   30.3010   39.5090 N   0  0  0  0  0  0  0  0  0  0  0  0
   38.0130   32.1470   36.8320 H   0  0  0  0  0  0  0  0  0  0  0  0
   36.0900   30.5470   36.5780 H   0  0  0  0  0  0  0  0  0  0  0  0
   35.7620   28.8100   38.2840 H   0  0  0  0  0  0  0  0  0  0  0  0
   41.5260   33.4250   37.9190 C   0  0  0  0  0  0  0  0  0  0  0  0
   41.9050   33.8250   39.2200 C   0  0  0  0  0  0  0  0  0  0  0  0
   41.1730   33.3540   40.3080 C   0  0  0  0  0  0  0  0  0  0  0  0
   40.1260   32.5290   40.0400 N   0  0  0  0  0  0  0  0  0  0  0  0
   39.7850   32.1640   38.8100 C   0  0  0  0  0  0  0  0  0  0  0  0
   40.4890   32.6160   37.7530 N   0  0  0  0  0  0  0  0  0  0  0  0
   42.2790   33.9120   36.8170 N   0  0  0  0  0  0  0  0  0  0  0  0
   42.7530   34.4890   39.3640 H   0  0  0  0  0  0  0  0  0  0  0  0
   41.4100   33.6200   41.3090 H   0  0  0  0  0  0  0  0  0  0  0  0
   42.8020   33.2620   36.1910 H   0  0  0  0  0  0  0  0  0  0  0  0
   42.3100   34.9350   36.6290 H   0  0  0  0  0  0  0  0  0  0  0  0
   36.7600   30.1190   42.0260 F   0  0  0  0  0  0  0  0  0  0  0  0
   36.9650   28.7930   41.7830 C   0  0  0  0  0  0  0  0  0  0  0  0
   37.3160   28.4160   40.5050 C   0  0  0  0  0  0  0  0  0  0  0  0
   37.5080   27.0630   40.3240 C   0  0  0  0  0  0  0  0  0  0  0  0
   37.7820   26.7040   39.3570 H   0  0  0  0  0  0  0  0  0  0  0  0
   37.3640   26.1420   41.3420 C   0  0  0  0  0  0  0  0  0  0  0  0
   37.5190   25.0840   41.1880 H   0  0  0  0  0  0  0  0  0  0  0  0
   37.0110   26.6020   42.5940 C   0  0  0  0  0  3  0  0  0  0  0  0
   36.7990   27.9450   42.8580 C   0  0  0  0  0  3  0  0  0  0  0  0
  1 14  1  0  0  0  0
  1  6  1  0  0  0  0
  2  1  2  0  0  0  0
  3  2  1  0  0  0  0
  3  4  2  0  0  0  0
  4  5  1  0  0  0  0
  5  6  2  0  0  0  0
  5 23  1  0  0  0  0
  7  2  1  0  0  0  0
  8  3  1  0  0  0  0
  9  4  1  0  0  0  0
 10 11  1  0  0  0  0
 11 17  1  0  0  0  0
 11 12  2  0  0  0  0
 12 18  1  0  0  0  0
 13 12  1  0  0  0  0
 14 13  2  0  0  0  0
 15 10  2  0  0  0  0
 15 14  1  0  0  0  0
 16 10  1  0  0  0  0
 19 16  1  0  0  0  0
 20 16  1  0  0  0  0
 22 21  1  0  0  0  0
 22 29  1  0  0  0  0
 23 22  2  0  0  0  0
 24 23  1  0  0  0  0
 24 26  2  0  0  0  0
 25 24  1  0  0  0  0
 26 28  1  0  0  0  0
 27 26  1  0  0  0  0
 28 29  2  0  0  0  0
M  END
>  <minimizedAffinity>
-5.84987211

$$$$

 OpenBabel03242520113D

 29 31  0  0  0  0  0  0  0  0999 V2000
   37.4950   29.0770   41.5080 C   0  0  0  0  0  0  0  0  0  0  0  0
   37.4740   29.2530   42.8500 C   0  0  0  0  0  0  0  0  0  0  0  0
   37.5710   28.1570   43.6650 C   0  0  0  0  0  0  0  0  0  0  0  0
   37.6880   26.8820   43.1090 C   0  0  0  0  0  0  0  0  0  0  0  0
   37.7060   26.7410   41.7390 C   0  0  0  0  0  0  0  0  0  0  0  0
   37.6090   27.8290   41.0110 N   0  0  0  0  0  0  0  0  0  0  0  0
   37.3810   30.2660   43.1920 H   0  0  0  0  0  0  0  0  0  0  0  0
   37.5550   28.2920   44.7410 H   0  0  0  0  0  0  0  0  0  0  0  0
   37.7620   26.0430   43.7740 H   0  0  0  0  0  0  0  0  0  0  0  0
   37.5910   32.4530   40.0800 C   0  0  0  0  0  0  0  0  0  0  0  0
   37.2160   32.2160   38.7380 C   0  0  0  0  0  0  0  0  0  0  0  0
   36.9360   30.9110   38.3380 C   0  0  0  0  0  0  0  0  0  0  0  0
   37.0440   29.9370   39.2810 N   0  0  0  0  0  0  0  0  0  0  0  0
   37.3970   30.1790   40.5380 C   0  0  0  0  0  0  0  0  0  0  0  0
   37.6690   31.4390   40.9310 N   0  0  0  0  0  0  0  0  0  0  0  0
   37.8740   33.7870   40.4760 N   0  0  0  0  0  0  0  0  0  0  0  0
   37.1500   33.0410   38.0340 H   0  0  0  0  0  0  0  0  0  0  0  0
   36.6510   30.6710   37.3440 H   0  0  0  0  0  0  0  0  0  0  0  0
   37.3020   34.2680   41.2030 H   0  0  0  0  0  0  0  0  0  0  0  0
   38.6670   34.2960   40.0340 H   0  0  0  0  0  0  0  0  0  0  0  0
   40.0800   25.9070   40.6370 F   0  0  0  0  0  0  0  0  0  0  0  0
   39.0290   25.0410   40.5600 C   0  0  0  0  0  0  0  0  0  0  0  0
   37.8260   25.4350   41.1050 C   0  0  0  0  0  0  0  0  0  0  0  0
   36.8040   24.5160   40.9950 C   0  0  0  0  0  0  0  0  0  0  0  0
   35.8450   24.7590   41.3970 H   0  0  0  0  0  0  0  0  0  0  0  0
   36.9620   23.2880   40.3860 C   0  0  0  0  0  0  0  0  0  0  0  0
   36.1520   22.5770   40.3050 H   0  0  0  0  0  0  0  0  0  0  0  0
   38.2000   22.9700   39.8650 C   0  0  0  0  0  3  0  0  0  0  0  0
   39.2780   23.8370   39.9350 C   0  0  0  0  0  3  0  0  0  0  0  0
  1  2  1  0  0  0  0
  2  7  1  0  0  0  0
  2  3  2  0  0  0  0
  3  8  1  0  0  0  0
  4  3  1  0  0  0  0
  4  9  1  0  0  0  0
  5  4  2  0  0  0  0
  6  1  2  0  0  0  0
  6  5  1  0  0  0  0
 10 16  1  0  0  0  0
 10 15  1  0  0  0  0
 11 10  2  0  0  0  0
 12 11  1  0  0  0  0
 12 13  2  0  0  0  0
 13 14  1  0  0  0  0
 14 15  2  0  0  0  0
 14  1  1  0  0  0  0
 16 19  1  0  0  0  0
 17 11  1  0  0  0  0
 18 12  1  0  0  0  0
 20 16  1  0  0  0  0
 22 21  1  0  0  0  0
 22 23  1  0  0  0  0
 23  5  1  0  0  0  0
 24 23  2  0  0  0  0
 24 25  1  0  0  0  0
 26 24  1  0  0  0  0
 27 26  1  0  0  0  0
 28 29  1  0  0  0  0
 28 26  2  0  0  0  0
 29 22  2  0  0  0  0
M  END
>  <minimizedAffinity>
-5.67563343

$$$$

 OpenBabel03242520113D

 29 31  0  0  0  0  0  0  0  0999 V2000
   37.9800   28.9910   41.7410 C   0  0  0  0  0  0  0  0  0  0  0  0
   37.6280   29.0920   43.0440 C   0  0  0  0  0  0  0  0  0  0  0  0
   37.1010   27.9980   43.6760 C   0  0  0  0  0  0  0  0  0  0  0  0
   36.9340   26.8010   42.9770 C   0  0  0  0  0  0  0  0  0  0  0  0
   37.3050   26.7350   41.6520 C   0  0  0  0  0  0  0  0  0  0  0  0
   37.8020   27.8180   41.1010 N   0  0  0  0  0  0  0  0  0  0  0  0
   37.7900   30.0480   43.5050 H   0  0  0  0  0  0  0  0  0  0  0  0
   36.8170   28.0720   44.7210 H   0  0  0  0  0  0  0  0  0  0  0  0
   36.5190   25.9610   43.5000 H   0  0  0  0  0  0  0  0  0  0  0  0
   38.9480   32.3820   40.7370 C   0  0  0  0  0  0  0  0  0  0  0  0
   39.6190   32.1480   39.5160 C   0  0  0  0  0  0  0  0  0  0  0  0
   39.7320   30.8390   39.0510 C   0  0  0  0  0  0  0  0  0  0  0  0
   39.1810   29.8600   39.8160 N   0  0  0  0  0  0  0  0  0  0  0  0
   38.5540   30.1000   40.9620 C   0  0  0  0  0  0  0  0  0  0  0  0
   38.4410   31.3630   41.4170 N   0  0  0  0  0  0  0  0  0  0  0  0
   38.8400   33.7200   41.2020 N   0  0  0  0  0  0  0  0  0  0  0  0
   40.0380   32.9780   38.9530 H   0  0  0  0  0  0  0  0  0  0  0  0
   40.2250   30.6020   38.1410 H   0  0  0  0  0  0  0  0  0  0  0  0
   37.9100   34.1770   41.3210 H   0  0  0  0  0  0  0  0  0  0  0  0
   39.7020   34.2560   41.4290 H   0  0  0  0  0  0  0  0  0  0  0  0
   35.9410   26.7280   39.2680 F   0  0  0  0  0  0  0  0  0  0  0  0
   36.4640   25.5370   39.6800 C   0  0  0  0  0  0  0  0  0  0  0  0
   37.1520   25.5130   40.8740 C   0  0  0  0  0  0  0  0  0  0  0  0
   37.6560   24.2810   41.2350 C   0  0  0  0  0  0  0  0  0  0  0  0
   38.2000   24.1930   42.1490 H   0  0  0  0  0  0  0  0  0  0  0  0
   37.4890   23.1480   40.4660 C   0  0  0  0  0  0  0  0  0  0  0  0
   37.8880   22.1880   40.7600 H   0  0  0  0  0  0  0  0  0  0  0  0
   36.7860   23.2580   39.2830 C   0  0  0  0  0  3  0  0  0  0  0  0
   36.2490   24.4580   38.8490 C   0  0  0  0  0  3  0  0  0  0  0  0
  1  2  1  0  0  0  0
  2  7  1  0  0  0  0
  2  3  2  0  0  0  0
  3  8  1  0  0  0  0
  4  9  1  0  0  0  0
  4  3  1  0  0  0  0
  5  4  2  0  0  0  0
  6  5  1  0  0  0  0
  6  1  2  0  0  0  0
 10 16  1  0  0  0  0
 10 15  1  0  0  0  0
 11 10  2  0  0  0  0
 12 11  1  0  0  0  0
 12 13  2  0  0  0  0
 13 14  1  0  0  0  0
 14 15  2  0  0  0  0
 14  1  1  0  0  0  0
 16 19  1  0  0  0  0
 16 20  1  0  0  0  0
 17 11  1  0  0  0  0
 18 12  1  0  0  0  0
 21 22  1  0  0  0  0
 22 23  1  0  0  0  0
 23 24  2  0  0  0  0
 23  5  1  0  0  0  0
 24 25  1  0  0  0  0
 26 27  1  0  0  0  0
 26 24  1  0  0  0  0
 28 26  2  0  0  0  0
 29 28  1  0  0  0  0
 29 22  2  0  0  0  0
M  END
>  <minimizedAffinity>
-5.65349388

$$$$

 OpenBabel03242520113D

 29 31  0  0  0  0  0  0  0  0999 V2000
   39.3950   25.6240   42.3700 C   0  0  0  0  0  0  0  0  0  0  0  0
   38.9380   24.3620   42.5460 C   0  0  0  0  0  0  0  0  0  0  0  0
   37.6920   24.0360   42.0810 C   0  0  0  0  0  0  0  0  0  0  0  0
   36.9140   24.9990   41.4360 C   0  0  0  0  0  0  0  0  0  0  0  0
   37.4120   26.2720   41.2750 C   0  0  0  0  0  0  0  0  0  0  0  0
   38.6120   26.5240   41.7440 N   0  0  0  0  0  0  0  0  0  0  0  0
   39.6000   23.6850   43.0510 H   0  0  0  0  0  0  0  0  0  0  0  0
   37.3210   23.0250   42.2180 H   0  0  0  0  0  0  0  0  0  0  0  0
   35.9420   24.7120   41.0820 H   0  0  0  0  0  0  0  0  0  0  0  0
   42.8980   25.5760   43.4530 C   0  0  0  0  0  0  0  0  0  0  0  0
   43.1560   26.9470   43.6770 C   0  0  0  0  0  0  0  0  0  0  0  0
   42.1340   27.8690   43.4570 C   0  0  0  0  0  0  0  0  0  0  0  0
   40.9380   27.3790   43.0340 N   0  0  0  0  0  0  0  0  0  0  0  0
   40.7140   26.0850   42.8290 C   0  0  0  0  0  0  0  0  0  0  0  0
   41.6980   25.1900   43.0400 N   0  0  0  0  0  0  0  0  0  0  0  0
   43.9460   24.6460   43.6800 N   0  0  0  0  0  0  0  0  0  0  0  0
   44.1360   27.2720   44.0150 H   0  0  0  0  0  0  0  0  0  0  0  0
   42.2680   28.9110   43.6080 H   0  0  0  0  0  0  0  0  0  0  0  0
   43.8630   23.9040   44.4070 H   0  0  0  0  0  0  0  0  0  0  0  0
   44.8160   24.7040   43.1100 H   0  0  0  0  0  0  0  0  0  0  0  0
   36.8820   26.1560   38.5820 F   0  0  0  0  0  0  0  0  0  0  0  0
   36.3910   27.2340   39.2580 C   0  0  0  0  0  0  0  0  0  0  0  0
   36.6430   27.3170   40.6110 C   0  0  0  0  0  0  0  0  0  0  0  0
   36.1200   28.4290   41.2370 C   0  0  0  0  0  0  0  0  0  0  0  0
   36.2780   28.5540   42.2850 H   0  0  0  0  0  0  0  0  0  0  0  0
   35.3960   29.3950   40.5690 C   0  0  0  0  0  0  0  0  0  0  0  0
   34.9920   30.2620   41.0710 H   0  0  0  0  0  0  0  0  0  0  0  0
   35.1880   29.2360   39.2140 C   0  0  0  0  0  3  0  0  0  0  0  0
   35.6790   28.1490   38.5110 C   0  0  0  0  0  3  0  0  0  0  0  0
  1  2  1  0  0  0  0
  1 14  1  0  0  0  0
  2  7  1  0  0  0  0
  3  8  1  0  0  0  0
  3  2  2  0  0  0  0
  4  3  1  0  0  0  0
  5  4  2  0  0  0  0
  5  6  1  0  0  0  0
  6  1  2  0  0  0  0
  9  4  1  0  0  0  0
 10 11  1  0  0  0  0
 10 16  1  0  0  0  0
 11 17  1  0  0  0  0
 12 18  1  0  0  0  0
 12 11  2  0  0  0  0
 13 12  1  0  0  0  0
 14 13  2  0  0  0  0
 14 15  1  0  0  0  0
 15 10  2  0  0  0  0
 16 19  1  0  0  0  0
 20 16  1  0  0  0  0
 21 22  1  0  0  0  0
 22 23  1  0  0  0  0
 23 24  2  0  0  0  0
 23  5  1  0  0  0  0
 24 25  1  0  0  0  0
 26 27  1  0  0  0  0
 26 24  1  0  0  0  0
 28 26  2  0  0  0  0
 29 28  1  0  0  0  0
 29 22  2  0  0  0  0
M  END
>  <minimizedAffinity>
-5.61998129

$$$$

 OpenBabel03242520113D

 29 31  0  0  0  0  0  0  0  0999 V2000
   37.3300   27.0240   41.6270 C   0  0  0  0  0  0  0  0  0  0  0  0
   37.2730   26.9940   42.9790 C   0  0  0  0  0  0  0  0  0  0  0  0
   37.4730   28.1530   43.6790 C   0  0  0  0  0  0  0  0  0  0  0  0
   37.7330   29.3440   42.9980 C   0  0  0  0  0  0  0  0  0  0  0  0
   37.7840   29.3370   41.6220 C   0  0  0  0  0  0  0  0  0  0  0  0
   37.5850   28.1940   41.0070 N   0  0  0  0  0  0  0  0  0  0  0  0
   37.0680   26.0380   43.4220 H   0  0  0  0  0  0  0  0  0  0  0  0
   37.4280   28.1350   44.7630 H   0  0  0  0  0  0  0  0  0  0  0  0
   37.8860   30.2360   43.5740 H   0  0  0  0  0  0  0  0  0  0  0  0
   37.4560   23.5650   40.4180 C   0  0  0  0  0  0  0  0  0  0  0  0
   36.7610   23.6560   39.1920 C   0  0  0  0  0  0  0  0  0  0  0  0
   36.2590   24.8930   38.7930 C   0  0  0  0  0  0  0  0  0  0  0  0
   36.4760   25.9470   39.6240 N   0  0  0  0  0  0  0  0  0  0  0  0
   37.1320   25.8420   40.7750 C   0  0  0  0  0  0  0  0  0  0  0  0
   37.6190   24.6480   41.1660 N   0  0  0  0  0  0  0  0  0  0  0  0
   37.9620   22.2990   40.8150 N   0  0  0  0  0  0  0  0  0  0  0  0
   36.6220   22.7730   38.5740 H   0  0  0  0  0  0  0  0  0  0  0  0
   35.7290   25.0230   37.8820 H   0  0  0  0  0  0  0  0  0  0  0  0
   38.9850   22.1400   40.9370 H   0  0  0  0  0  0  0  0  0  0  0  0
   37.3010   21.5130   40.9880 H   0  0  0  0  0  0  0  0  0  0  0  0
   35.7450   30.9920   40.8160 F   0  0  0  0  0  0  0  0  0  0  0  0
   37.0100   31.3620   40.4680 C   0  0  0  0  0  0  0  0  0  0  0  0
   38.0520   30.5490   40.8590 C   0  0  0  0  0  0  0  0  0  0  0  0
   39.3060   30.9780   40.4770 C   0  0  0  0  0  0  0  0  0  0  0  0
   40.1570   30.3940   40.7480 H   0  0  0  0  0  0  0  0  0  0  0  0
   39.5150   32.1350   39.7540 C   0  0  0  0  0  0  0  0  0  0  0  0
   40.5020   32.4600   39.4600 H   0  0  0  0  0  0  0  0  0  0  0  0
   38.4170   32.8930   39.4020 C   0  0  0  0  0  3  0  0  0  0  0  0
   37.1250   32.5320   39.7470 C   0  0  0  0  0  3  0  0  0  0  0  0
  1  2  1  0  0  0  0
  2  7  1  0  0  0  0
  2  3  2  0  0  0  0
  3  8  1  0  0  0  0
  4  9  1  0  0  0  0
  4  3  1  0  0  0  0
  5  4  2  0  0  0  0
  6  5  1  0  0  0  0
  6  1  2  0  0  0  0
 10 16  1  0  0  0  0
 10 15  1  0  0  0  0
 11 10  2  0  0  0  0
 12 11  1  0  0  0  0
 12 13  2  0  0  0  0
 13 14  1  0  0  0  0
 14 15  2  0  0  0  0
 14  1  1  0  0  0  0
 16 19  1  0  0  0  0
 16 20  1  0  0  0  0
 17 11  1  0  0  0  0
 18 12  1  0  0  0  0
 22 21  1  0  0  0  0
 22 23  1  0  0  0  0
 23  5  1  0  0  0  0
 24 25  1  0  0  0  0
 24 23  2  0  0  0  0
 26 24  1  0  0  0  0
 27 26  1  0  0  0  0
 28 29  1  0  0  0  0
 28 26  2  0  0  0  0
 29 22  2  0  0  0  0
M  END
>  <minimizedAffinity>
-5.5712471

$$$$

 OpenBabel03242520113D

 29 31  0  0  0  0  0  0  0  0999 V2000
   38.8760   29.7760   40.9490 C   0  0  0  0  0  0  0  0  0  0  0  0
   39.6270   30.2150   41.9860 C   0  0  0  0  0  0  0  0  0  0  0  0
   40.0540   29.3140   42.9240 C   0  0  0  0  0  0  0  0  0  0  0  0
   39.7130   27.9660   42.8040 C   0  0  0  0  0  0  0  0  0  0  0  0
   38.9470   27.5560   41.7350 C   0  0  0  0  0  0  0  0  0  0  0  0
   38.5680   28.4670   40.8690 N   0  0  0  0  0  0  0  0  0  0  0  0
   39.8430   31.2660   42.0020 H   0  0  0  0  0  0  0  0  0  0  0  0
   40.6560   29.6600   43.7580 H   0  0  0  0  0  0  0  0  0  0  0  0
   40.0620   27.2840   43.5550 H   0  0  0  0  0  0  0  0  0  0  0  0
   37.4800   32.7100   39.2490 C   0  0  0  0  0  0  0  0  0  0  0  0
   37.4150   32.2710   37.9080 C   0  0  0  0  0  0  0  0  0  0  0  0
   37.8460   30.9820   37.6010 C   0  0  0  0  0  0  0  0  0  0  0  0
   38.3090   30.2220   38.6290 N   0  0  0  0  0  0  0  0  0  0  0  0
   38.3630   30.6520   39.8840 C   0  0  0  0  0  0  0  0  0  0  0  0
   37.9470   31.8980   40.1870 N   0  0  0  0  0  0  0  0  0  0  0  0
   37.0390   34.0260   39.5510 N   0  0  0  0  0  0  0  0  0  0  0  0
   37.0340   32.9310   37.1340 H   0  0  0  0  0  0  0  0  0  0  0  0
   37.8210   30.5960   36.6120 H   0  0  0  0  0  0  0  0  0  0  0  0
   36.2310   34.1920   40.1890 H   0  0  0  0  0  0  0  0  0  0  0  0
   37.5290   34.8410   39.1280 H   0  0  0  0  0  0  0  0  0  0  0  0
   36.5920   26.5900   42.7690 F   0  0  0  0  0  0  0  0  0  0  0  0
   37.3730   25.7040   42.0870 C   0  0  0  0  0  0  0  0  0  0  0  0
   38.5610   26.1620   41.5590 C   0  0  0  0  0  0  0  0  0  0  0  0
   39.3040   25.2180   40.8820 C   0  0  0  0  0  0  0  0  0  0  0  0
   40.2350   25.5070   40.4480 H   0  0  0  0  0  0  0  0  0  0  0  0
   38.8990   23.9060   40.7380 C   0  0  0  0  0  0  0  0  0  0  0  0
   39.4910   23.1760   40.2060 H   0  0  0  0  0  0  0  0  0  0  0  0
   37.6960   23.5280   41.2980 C   0  0  0  0  0  3  0  0  0  0  0  0
   36.8900   24.4150   41.9930 C   0  0  0  0  0  3  0  0  0  0  0  0
  1  2  1  0  0  0  0
  2  7  1  0  0  0  0
  2  3  2  0  0  0  0
  3  8  1  0  0  0  0
  4  3  1  0  0  0  0
  4  9  1  0  0  0  0
  5  4  2  0  0  0  0
  6  1  2  0  0  0  0
  6  5  1  0  0  0  0
 10 16  1  0  0  0  0
 10 15  1  0  0  0  0
 11 10  2  0  0  0  0
 12 11  1  0  0  0  0
 12 13  2  0  0  0  0
 13 14  1  0  0  0  0
 14 15  2  0  0  0  0
 14  1  1  0  0  0  0
 16 19  1  0  0  0  0
 17 11  1  0  0  0  0
 18 12  1  0  0  0  0
 20 16  1  0  0  0  0
 22 21  1  0  0  0  0
 23  5  1  0  0  0  0
 23 22  2  0  0  0  0
 24 23  1  0  0  0  0
 25 24  1  0  0  0  0
 26 24  2  0  0  0  0
 26 28  1  0  0  0  0
 27 26  1  0  0  0  0
 28 29  2  0  0  0  0
 29 22  1  0  0  0  0
M  END
>  <minimizedAffinity>
-5.52065563

$$$$
