
 OpenBabel03252508143D

 37 40  0  0  1  0  0  0  0  0999 V2000
   45.8090   33.1540   46.0600 C   0  0  0  0  0  0  0  0  0  0  0  0
   46.0990   31.9820   45.6500 C   0  0  0  0  0  0  0  0  0  0  0  0
   44.5830   36.1940   44.3850 C   0  0  0  0  0  0  0  0  0  0  0  0
   45.1670   36.1150   43.1130 C   0  0  0  0  0  0  0  0  0  0  0  0
   45.9660   35.0370   42.8820 C   0  0  0  0  0  0  0  0  0  0  0  0
   46.1270   34.1440   43.8830 N   0  0  0  0  0  0  0  0  0  0  0  0
   45.5750   34.2150   45.0850 C   0  0  0  0  0  0  0  0  0  0  0  0
   44.8020   35.2570   45.3140 N   0  0  0  0  0  0  0  0  0  0  0  0
   43.9350   37.0540   44.5980 H   0  0  0  0  0  0  0  0  0  0  0  0
   45.0080   36.8480   42.3520 H   0  0  0  0  0  0  0  0  0  0  0  0
   48.5460   36.0370   42.0700 F   0  0  0  0  0  0  0  0  0  0  0  0
   47.8960   35.1920   41.2450 C   0  0  0  0  0  0  0  0  0  0  0  0
   46.6790   34.7350   41.6520 C   0  0  0  0  0  0  0  0  0  0  0  0
   46.1080   33.8740   40.7220 C   0  0  0  0  0  0  0  0  0  0  0  0
   45.1370   33.4200   40.8910 H   0  0  0  0  0  0  0  0  0  0  0  0
   46.6960   33.5250   39.5370 C   0  0  0  0  0  0  0  0  0  0  0  0
   46.2210   32.8530   38.8390 H   0  0  0  0  0  0  0  0  0  0  0  0
   47.9290   34.0290   39.1970 C   0  0  0  0  0  0  0  0  0  0  0  0
   48.5350   34.8770   40.0700 C   0  0  0  0  0  0  0  0  0  0  0  0
   46.3150   30.9470   46.7480 C   0  0  0  0  0  0  0  0  0  0  0  0
   45.7110   30.0490   46.5730 H   0  0  0  0  0  0  0  0  0  0  0  0
   47.3870   30.6720   46.6580 H   0  0  0  0  0  0  0  0  0  0  0  0
   46.0700   31.5780   48.0900 C   0  0  1  0  0  0  0  0  0  0  0  0
   45.8100   30.6440   49.2290 C   0  0  0  0  0  0  0  0  0  0  0  0
   47.0580   31.3810   49.1830 C   0  0  1  0  0  0  0  0  0  0  0  0
   45.5030   32.5310   48.1000 H   0  0  0  0  0  0  0  0  0  0  0  0
   45.7590   29.5640   48.9840 H   0  0  0  0  0  0  0  0  0  0  0  0
   45.0360   30.9250   49.9720 H   0  0  0  0  0  0  0  0  0  0  0  0
   47.1460   32.2500   49.9040 H   0  0  0  0  0  0  0  0  0  0  0  0
   48.3710   30.8000   48.8350 C   0  0  0  0  0  0  0  0  0  0  0  0
   49.2380   30.4180   50.0670 C   0  0  0  0  0  0  0  0  0  0  0  0
   49.6110   31.6210   49.2700 C   0  0  0  0  0  0  0  0  0  0  0  0
   48.4930   30.1350   47.9660 H   0  0  0  0  0  0  0  0  0  0  0  0
   49.8540   29.5250   49.9670 H   0  0  0  0  0  0  0  0  0  0  0  0
   48.8020   30.5830   51.0680 H   0  0  0  0  0  0  0  0  0  0  0  0
   49.4470   32.6340   49.6390 H   0  0  0  0  0  0  0  0  0  0  0  0
   50.4680   31.5410   48.5510 H   0  0  0  0  0  0  0  0  0  0  0  0
  2  1  2  0  0  0  0
  2 20  1  0  0  0  0
  3  9  1  0  0  0  0
  3  8  1  0  0  0  0
  4  3  2  0  0  0  0
  5  4  1  0  0  0  0
  5  6  2  0  0  0  0
  6  7  1  0  0  0  0
  7  8  2  0  0  0  0
  7  1  1  0  0  0  0
 10  4  1  0  0  0  0
 12 13  1  0  0  0  0
 12 11  1  0  0  0  0
 13  5  1  0  0  0  0
 14 15  1  0  0  0  0
 14 13  2  0  0  0  0
 16 14  1  0  0  0  0
 17 16  1  0  0  0  0
 18 16  2  0  0  0  0
 18 19  1  0  0  0  0
 19 12  2  0  0  0  0
 20 23  1  0  0  0  0
 21 20  1  0  0  0  0
 22 20  1  0  0  0  0
 23 26  1  1  0  0  0
 23 25  1  0  0  0  0
 23 24  1  0  0  0  0
 24 28  1  0  0  0  0
 25 24  1  0  0  0  0
 25 29  1  1  0  0  0
 27 24  1  0  0  0  0
 30 25  1  0  0  0  0
 30 32  1  0  0  0  0
 30 31  1  0  0  0  0
 31 35  1  0  0  0  0
 32 36  1  0  0  0  0
 32 31  1  0  0  0  0
 33 30  1  0  0  0  0
 34 31  1  0  0  0  0
 37 32  1  0  0  0  0
M  END
>  <minimizedAffinity>
-6.36250353

>  <minimizedRMSD>
1.09470117

$$$$
