
 OpenBabel03252503303D

 37 39  0  0  1  0  0  0  0  0999 V2000
   45.3270   33.5340   41.8270 C   0  0  0  0  0  0  0  0  0  0  0  0
   46.2960   34.5480   41.5520 C   0  0  0  0  0  0  0  0  0  0  0  0
   47.6290   34.1200   41.5370 C   0  0  0  0  0  0  0  0  0  0  0  0
   47.8940   32.8280   41.7730 N   0  0  0  0  0  0  0  0  0  0  0  0
   46.9400   31.9030   42.0300 C   0  0  0  0  0  0  0  0  0  0  0  0
   45.6450   32.2670   42.0550 N   0  0  0  0  0  0  0  0  0  0  0  0
   43.4130   34.0600   40.5640 C   0  0  0  0  0  0  0  0  0  0  0  0
   44.1830   33.9400   39.5910 O   0  0  0  0  0  0  0  0  0  0  0  0
   43.9370   33.8550   41.8660 N   0  0  0  0  0  0  0  0  0  0  0  0
   42.0530   34.3970   40.3050 N   0  0  0  0  0  0  0  0  0  0  0  0
   41.6790   34.9080   39.0130 C   0  0  0  0  0  0  0  0  0  0  0  0
   40.4930   35.7750   39.3300 C   0  0  0  0  0  0  0  0  0  0  0  0
   40.2100   35.6210   40.8070 C   0  0  0  0  0  0  0  0  0  0  0  0
   40.8990   34.3400   41.1530 C   0  0  1  0  0  0  0  0  0  0  0  0
   45.8940   35.5340   41.3870 H   0  0  0  0  0  0  0  0  0  0  0  0
   47.2340   30.8760   42.2120 H   0  0  0  0  0  0  0  0  0  0  0  0
   43.2940   33.9510   42.6710 H   0  0  0  0  0  0  0  0  0  0  0  0
   42.4710   35.6330   38.6510 H   0  0  0  0  0  0  0  0  0  0  0  0
   41.5640   34.1940   38.2140 H   0  0  0  0  0  0  0  0  0  0  0  0
   39.6480   35.4190   38.7110 H   0  0  0  0  0  0  0  0  0  0  0  0
   40.6300   36.8450   39.0810 H   0  0  0  0  0  0  0  0  0  0  0  0
   40.6470   36.4870   41.3370 H   0  0  0  0  0  0  0  0  0  0  0  0
   39.1220   35.5680   40.9890 H   0  0  0  0  0  0  0  0  0  0  0  0
   41.3150   34.5180   42.1940 H   0  0  0  0  0  0  0  0  0  0  0  0
   41.8980   32.1110   42.4000 F   0  0  0  0  0  0  0  0  0  0  0  0
   40.6510   32.0030   41.8340 C   0  0  0  0  0  0  0  0  0  0  0  0
   40.1240   33.1360   41.1920 C   0  0  0  0  0  0  0  0  0  0  0  0
   38.8710   32.8930   40.6680 C   0  0  0  0  0  0  0  0  0  0  0  0
   38.3920   33.7060   40.1570 H   0  0  0  0  0  0  0  0  0  0  0  0
   38.1610   31.7140   40.7280 C   0  0  0  0  0  0  0  0  0  0  0  0
   37.1780   31.6350   40.2790 H   0  0  0  0  0  0  0  0  0  0  0  0
   38.7480   30.6470   41.3770 C   0  0  0  0  0  0  0  0  0  0  0  0
   40.0010   30.7960   41.9330 C   0  0  0  0  0  0  0  0  0  0  0  0
   48.6000   35.1770   41.2530 C   0  0  0  0  0  0  0  0  0  0  0  0
   49.8550   34.7580   41.6880 F   0  0  0  0  0  0  0  0  0  0  0  0
   48.2720   36.2630   42.0550 F   0  0  0  0  0  0  0  0  0  0  0  0
   48.7070   35.4910   39.9180 F   0  0  0  0  0  0  0  0  0  0  0  0
  1  9  1  0  0  0  0
  1  6  1  0  0  0  0
  2  1  2  0  0  0  0
  3  2  1  0  0  0  0
  3  4  2  0  0  0  0
  4  5  1  0  0  0  0
  5  6  2  0  0  0  0
  5 16  1  0  0  0  0
  7  9  1  0  0  0  0
  8  7  2  0  0  0  0
  9 17  1  0  0  0  0
 10  7  1  0  0  0  0
 10 14  1  0  0  0  0
 11 12  1  0  0  0  0
 11 10  1  0  0  0  0
 12 13  1  0  0  0  0
 13 23  1  0  0  0  0
 13 14  1  0  0  0  0
 13 22  1  0  0  0  0
 14 27  1  0  0  0  0
 14 24  1  1  0  0  0
 15  2  1  0  0  0  0
 18 11  1  0  0  0  0
 19 11  1  0  0  0  0
 20 12  1  0  0  0  0
 21 12  1  0  0  0  0
 26 33  1  0  0  0  0
 26 25  1  0  0  0  0
 27 26  2  0  0  0  0
 28 30  2  0  0  0  0
 28 27  1  0  0  0  0
 29 28  1  0  0  0  0
 30 32  1  0  0  0  0
 31 30  1  0  0  0  0
 32 33  2  0  0  0  0
 34  3  1  0  0  0  0
 34 35  1  0  0  0  0
 34 36  1  0  0  0  0
 37 34  1  0  0  0  0
M  END
>  <minimizedAffinity>
-6.72482157

>  <minimizedRMSD>
2.32831001

$$$$
