
 OpenBabel03252500113D

 31 33  0  0  0  0  0  0  0  0999 V2000
   39.1640   27.4290   40.0340 Cl  0  0  0  0  0  0  0  0  0  0  0  0
   38.1580   27.4300   41.4470 C   0  0  0  0  0  0  0  0  0  0  0  0
   38.1470   28.5060   42.3130 C   0  0  0  0  0  0  0  0  0  0  0  0
   37.3520   28.5240   43.4450 C   0  0  0  0  0  0  0  0  0  0  0  0
   36.5640   27.4190   43.6800 C   0  0  0  0  0  0  0  0  0  0  0  0
   36.5750   26.3410   42.8120 C   0  0  0  0  0  0  0  0  0  0  0  0
   37.3560   26.3380   41.7110 C   0  0  0  0  0  0  0  0  0  0  0  0
   37.3980   29.4030   44.0760 H   0  0  0  0  0  0  0  0  0  0  0  0
   35.9510   27.4590   44.5700 H   0  0  0  0  0  0  0  0  0  0  0  0
   35.9100   25.5260   43.1030 H   0  0  0  0  0  0  0  0  0  0  0  0
   36.0200   26.1250   39.2060 F   0  0  0  0  0  0  0  0  0  0  0  0
   36.6980   25.0460   39.6090 C   0  0  0  0  0  0  0  0  0  0  0  0
   37.3350   25.1770   40.8250 C   0  0  0  0  0  0  0  0  0  0  0  0
   38.0680   24.0960   41.3230 C   0  0  0  0  0  0  0  0  0  0  0  0
   38.6020   24.1090   42.2720 H   0  0  0  0  0  0  0  0  0  0  0  0
   38.1450   22.9090   40.5880 C   0  0  0  0  0  0  0  0  0  0  0  0
   38.7210   22.0670   40.9840 H   0  0  0  0  0  0  0  0  0  0  0  0
   37.5150   22.7600   39.3710 C   0  0  0  0  0  3  0  0  0  0  0  0
   36.8120   23.8490   38.9310 C   0  0  0  0  0  3  0  0  0  0  0  0
   41.0890   30.7190   42.1130 C   0  0  0  0  0  0  0  0  0  0  0  0
   40.5710   31.8570   41.4550 C   0  0  0  0  0  0  0  0  0  0  0  0
   39.2230   31.8420   41.0940 C   0  0  0  0  0  0  0  0  0  0  0  0
   38.4710   30.7470   41.3850 N   0  0  0  0  0  0  0  0  0  0  0  0
   39.0030   29.6590   42.0240 C   0  0  0  0  0  0  0  0  0  0  0  0
   40.2940   29.6620   42.3760 N   0  0  0  0  0  0  0  0  0  0  0  0
   42.1380   30.7390   42.3910 H   0  0  0  0  0  0  0  0  0  0  0  0
   41.1550   32.7360   41.2160 H   0  0  0  0  0  0  0  0  0  0  0  0
   38.5540   32.9900   40.3900 C   0  0  0  0  0  0  0  0  0  0  0  0
   37.2060   32.8210   40.3370 F   0  0  0  0  0  0  0  0  0  0  0  0
   38.8290   34.1610   41.1010 F   0  0  0  0  0  0  0  0  0  0  0  0
   39.1270   33.0680   39.1370 F   0  0  0  0  0  0  0  0  0  0  0  0
  1  2  1  0  0  0  0
  2  7  2  0  0  0  0
  2  3  1  0  0  0  0
  3  4  2  0  0  0  0
  4  5  1  0  0  0  0
  4  8  1  0  0  0  0
  5  9  1  0  0  0  0
  6 10  1  0  0  0  0
  6  5  2  0  0  0  0
  7  6  1  0  0  0  0
 11 12  1  0  0  0  0
 12 13  1  0  0  0  0
 13 14  2  0  0  0  0
 13  7  1  0  0  0  0
 14 15  1  0  0  0  0
 16 17  1  0  0  0  0
 16 14  1  0  0  0  0
 18 16  2  0  0  0  0
 19 18  1  0  0  0  0
 19 12  2  0  0  0  0
 20 25  1  0  0  0  0
 20 26  1  0  0  0  0
 21 20  2  0  0  0  0
 22 23  2  0  0  0  0
 22 21  1  0  0  0  0
 23 24  1  0  0  0  0
 24  3  1  0  0  0  0
 24 25  2  0  0  0  0
 27 21  1  0  0  0  0
 28 22  1  0  0  0  0
 28 30  1  0  0  0  0
 29 28  1  0  0  0  0
 31 28  1  0  0  0  0
M  END
>  <minimizedAffinity>
-5.99566936

$$$$

 OpenBabel03252500113D

 31 33  0  0  0  0  0  0  0  0999 V2000
   39.4140   27.3090   40.2270 Cl  0  0  0  0  0  0  0  0  0  0  0  0
   38.3100   27.3820   41.5630 C   0  0  0  0  0  0  0  0  0  0  0  0
   38.2150   28.5140   42.3490 C   0  0  0  0  0  0  0  0  0  0  0  0
   37.3420   28.5910   43.4180 C   0  0  0  0  0  0  0  0  0  0  0  0
   36.5600   27.4860   43.6740 C   0  0  0  0  0  0  0  0  0  0  0  0
   36.6540   26.3520   42.8860 C   0  0  0  0  0  0  0  0  0  0  0  0
   37.5110   26.2910   41.8460 C   0  0  0  0  0  0  0  0  0  0  0  0
   37.3260   29.5120   43.9870 H   0  0  0  0  0  0  0  0  0  0  0  0
   35.8850   27.5710   44.5140 H   0  0  0  0  0  0  0  0  0  0  0  0
   35.9850   25.5420   43.1860 H   0  0  0  0  0  0  0  0  0  0  0  0
   39.2950   24.1010   42.2070 F   0  0  0  0  0  0  0  0  0  0  0  0
   38.4270   23.9980   41.1960 C   0  0  0  0  0  0  0  0  0  0  0  0
   37.5760   25.0730   41.0440 C   0  0  0  0  0  0  0  0  0  0  0  0
   36.6340   25.0470   40.0110 C   0  0  0  0  0  0  0  0  0  0  0  0
   35.9240   25.8490   39.8170 H   0  0  0  0  0  0  0  0  0  0  0  0
   36.5700   23.9450   39.1540 C   0  0  0  0  0  0  0  0  0  0  0  0
   35.8300   23.9310   38.3480 H   0  0  0  0  0  0  0  0  0  0  0  0
   37.4120   22.8620   39.2910 C   0  0  0  0  0  3  0  0  0  0  0  0
   38.3140   22.9390   40.3180 C   0  0  0  0  0  3  0  0  0  0  0  0
   41.1470   30.7390   42.1250 C   0  0  0  0  0  0  0  0  0  0  0  0
   40.6290   31.8580   41.4340 C   0  0  0  0  0  0  0  0  0  0  0  0
   39.2850   31.8260   41.0600 C   0  0  0  0  0  0  0  0  0  0  0  0
   38.5370   30.7340   41.3700 N   0  0  0  0  0  0  0  0  0  0  0  0
   39.0680   29.6650   42.0400 C   0  0  0  0  0  0  0  0  0  0  0  0
   40.3560   29.6840   42.4040 N   0  0  0  0  0  0  0  0  0  0  0  0
   42.1930   30.7720   42.4120 H   0  0  0  0  0  0  0  0  0  0  0  0
   41.2100   32.7340   41.1790 H   0  0  0  0  0  0  0  0  0  0  0  0
   38.6170   32.9530   40.3210 C   0  0  0  0  0  0  0  0  0  0  0  0
   39.1270   33.0950   39.0690 F   0  0  0  0  0  0  0  0  0  0  0  0
   37.2550   32.6620   40.2170 F   0  0  0  0  0  0  0  0  0  0  0  0
   38.7880   34.0830   41.0940 F   0  0  0  0  0  0  0  0  0  0  0  0
  1  2  1  0  0  0  0
  2  7  2  0  0  0  0
  2  3  1  0  0  0  0
  3  4  2  0  0  0  0
  4  5  1  0  0  0  0
  4  8  1  0  0  0  0
  5  9  1  0  0  0  0
  6 10  1  0  0  0  0
  6  5  2  0  0  0  0
  7  6  1  0  0  0  0
 12 11  1  0  0  0  0
 13 12  1  0  0  0  0
 13  7  1  0  0  0  0
 14 13  2  0  0  0  0
 15 14  1  0  0  0  0
 16 18  2  0  0  0  0
 16 14  1  0  0  0  0
 17 16  1  0  0  0  0
 18 19  1  0  0  0  0
 19 12  2  0  0  0  0
 20 25  1  0  0  0  0
 20 26  1  0  0  0  0
 21 20  2  0  0  0  0
 22 23  2  0  0  0  0
 22 21  1  0  0  0  0
 23 24  1  0  0  0  0
 24  3  1  0  0  0  0
 24 25  2  0  0  0  0
 27 21  1  0  0  0  0
 28 22  1  0  0  0  0
 28 31  1  0  0  0  0
 29 28  1  0  0  0  0
 30 28  1  0  0  0  0
M  END
>  <minimizedAffinity>
-5.99172544

$$$$

 OpenBabel03252500113D

 31 33  0  0  0  0  0  0  0  0999 V2000
   39.6180   28.1320   40.7720 Cl  0  0  0  0  0  0  0  0  0  0  0  0
   38.1180   29.0020   40.7580 C   0  0  0  0  0  0  0  0  0  0  0  0
   38.0900   30.3730   40.5950 C   0  0  0  0  0  0  0  0  0  0  0  0
   36.9050   31.0840   40.5830 C   0  0  0  0  0  0  0  0  0  0  0  0
   35.7380   30.3680   40.7380 C   0  0  0  0  0  0  0  0  0  0  0  0
   35.7650   28.9940   40.9000 C   0  0  0  0  0  0  0  0  0  0  0  0
   36.9310   28.3130   40.9110 C   0  0  0  0  0  0  0  0  0  0  0  0
   36.9650   32.1580   40.4510 H   0  0  0  0  0  0  0  0  0  0  0  0
   34.8250   30.9470   40.7230 H   0  0  0  0  0  0  0  0  0  0  0  0
   34.7800   28.5380   41.0150 H   0  0  0  0  0  0  0  0  0  0  0  0
   37.3210   26.8810   43.3410 F   0  0  0  0  0  0  0  0  0  0  0  0
   37.0940   26.1440   42.2480 C   0  0  0  0  0  0  0  0  0  0  0  0
   36.9090   26.8640   41.0870 C   0  0  0  0  0  0  0  0  0  0  0  0
   36.6650   26.1720   39.8960 C   0  0  0  0  0  0  0  0  0  0  0  0
   36.5080   26.6570   38.9340 H   0  0  0  0  0  0  0  0  0  0  0  0
   36.6130   24.7760   39.9000 C   0  0  0  0  0  0  0  0  0  0  0  0
   36.4220   24.2410   38.9650 H   0  0  0  0  0  0  0  0  0  0  0  0
   36.7960   24.0400   41.0510 C   0  0  0  0  0  3  0  0  0  0  0  0
   37.0310   24.7670   42.1880 C   0  0  0  0  0  3  0  0  0  0  0  0
   41.2850   32.0510   41.3550 C   0  0  0  0  0  0  0  0  0  0  0  0
   41.7300   32.4530   40.0750 C   0  0  0  0  0  0  0  0  0  0  0  0
   40.9250   32.1420   38.9790 C   0  0  0  0  0  0  0  0  0  0  0  0
   39.7600   31.4710   39.1820 N   0  0  0  0  0  0  0  0  0  0  0  0
   39.3560   31.0940   40.4350 C   0  0  0  0  0  0  0  0  0  0  0  0
   40.1190   31.3880   41.4930 N   0  0  0  0  0  0  0  0  0  0  0  0
   41.9180   32.2980   42.2010 H   0  0  0  0  0  0  0  0  0  0  0  0
   42.6540   32.9870   39.8960 H   0  0  0  0  0  0  0  0  0  0  0  0
   41.2880   32.5150   37.5680 C   0  0  0  0  0  0  0  0  0  0  0  0
   42.3030   31.7430   37.0970 F   0  0  0  0  0  0  0  0  0  0  0  0
   40.1650   32.3180   36.7600 F   0  0  0  0  0  0  0  0  0  0  0  0
   41.6090   33.8570   37.5880 F   0  0  0  0  0  0  0  0  0  0  0  0
  2  1  1  0  0  0  0
  2  7  1  0  0  0  0
  3  2  2  0  0  0  0
  4  3  1  0  0  0  0
  4  5  2  0  0  0  0
  5  6  1  0  0  0  0
  6  7  2  0  0  0  0
  6 10  1  0  0  0  0
  7 13  1  0  0  0  0
  8  4  1  0  0  0  0
  9  5  1  0  0  0  0
 12 11  1  0  0  0  0
 13 12  2  0  0  0  0
 14 16  2  0  0  0  0
 14 13  1  0  0  0  0
 15 14  1  0  0  0  0
 16 18  1  0  0  0  0
 17 16  1  0  0  0  0
 18 19  2  0  0  0  0
 19 12  1  0  0  0  0
 20 25  1  0  0  0  0
 20 26  1  0  0  0  0
 21 20  2  0  0  0  0
 22 23  2  0  0  0  0
 22 21  1  0  0  0  0
 23 24  1  0  0  0  0
 24  3  1  0  0  0  0
 24 25  2  0  0  0  0
 27 21  1  0  0  0  0
 28 31  1  0  0  0  0
 28 22  1  0  0  0  0
 29 28  1  0  0  0  0
 30 28  1  0  0  0  0
M  END
>  <minimizedAffinity>
-5.97199869

$$$$

 OpenBabel03252500113D

 31 33  0  0  0  0  0  0  0  0999 V2000
   40.2710   30.4200   40.8560 Cl  0  0  0  0  0  0  0  0  0  0  0  0
   38.8910   30.5170   39.8090 C   0  0  0  0  0  0  0  0  0  0  0  0
   37.7340   29.8160   40.0880 C   0  0  0  0  0  0  0  0  0  0  0  0
   36.6250   29.8800   39.2650 C   0  0  0  0  0  0  0  0  0  0  0  0
   36.7160   30.6770   38.1460 C   0  0  0  0  0  0  0  0  0  0  0  0
   37.8750   31.3800   37.8660 C   0  0  0  0  0  0  0  0  0  0  0  0
   38.9500   31.3070   38.6790 C   0  0  0  0  0  0  0  0  0  0  0  0
   35.7550   29.3020   39.5510 H   0  0  0  0  0  0  0  0  0  0  0  0
   35.8350   30.7110   37.5190 H   0  0  0  0  0  0  0  0  0  0  0  0
   37.8270   31.9760   36.9530 H   0  0  0  0  0  0  0  0  0  0  0  0
   39.6630   33.8920   39.6370 F   0  0  0  0  0  0  0  0  0  0  0  0
   40.5220   33.3170   38.7900 C   0  0  0  0  0  0  0  0  0  0  0  0
   40.1510   32.0660   38.3420 C   0  0  0  0  0  0  0  0  0  0  0  0
   40.9930   31.3910   37.4530 C   0  0  0  0  0  0  0  0  0  0  0  0
   40.7820   30.4020   37.0480 H   0  0  0  0  0  0  0  0  0  0  0  0
   42.1860   31.9870   37.0350 C   0  0  0  0  0  0  0  0  0  0  0  0
   42.8400   31.4530   36.3390 H   0  0  0  0  0  0  0  0  0  0  0  0
   42.5720   33.2360   37.4720 C   0  0  0  0  0  3  0  0  0  0  0  0
   41.7120   33.8520   38.3410 C   0  0  0  0  0  3  0  0  0  0  0  0
   37.5770   28.7660   43.6190 C   0  0  0  0  0  0  0  0  0  0  0  0
   37.5900   27.3570   43.5200 C   0  0  0  0  0  0  0  0  0  0  0  0
   37.6540   26.7950   42.2430 C   0  0  0  0  0  0  0  0  0  0  0  0
   37.6980   27.6160   41.1600 N   0  0  0  0  0  0  0  0  0  0  0  0
   37.6830   28.9790   41.2900 C   0  0  0  0  0  0  0  0  0  0  0  0
   37.6230   29.5290   42.5080 N   0  0  0  0  0  0  0  0  0  0  0  0
   37.5270   29.1940   44.6160 H   0  0  0  0  0  0  0  0  0  0  0  0
   37.5550   26.6890   44.3700 H   0  0  0  0  0  0  0  0  0  0  0  0
   37.6740   25.3100   42.0050 C   0  0  0  0  0  0  0  0  0  0  0  0
   37.8430   25.0230   40.6870 F   0  0  0  0  0  0  0  0  0  0  0  0
   38.7430   24.7660   42.7210 F   0  0  0  0  0  0  0  0  0  0  0  0
   36.4870   24.8170   42.5070 F   0  0  0  0  0  0  0  0  0  0  0  0
  2  3  1  0  0  0  0
  2  1  1  0  0  0  0
  3 24  1  0  0  0  0
  4  8  1  0  0  0  0
  4  3  2  0  0  0  0
  5  4  1  0  0  0  0
  6  5  2  0  0  0  0
  6  7  1  0  0  0  0
  7  2  2  0  0  0  0
  9  5  1  0  0  0  0
 10  6  1  0  0  0  0
 12 11  1  0  0  0  0
 13  7  1  0  0  0  0
 13 12  1  0  0  0  0
 14 13  2  0  0  0  0
 15 14  1  0  0  0  0
 16 14  1  0  0  0  0
 16 18  2  0  0  0  0
 17 16  1  0  0  0  0
 18 19  1  0  0  0  0
 19 12  2  0  0  0  0
 20 26  1  0  0  0  0
 21 20  1  0  0  0  0
 21 27  1  0  0  0  0
 22 21  2  0  0  0  0
 23 24  2  0  0  0  0
 23 22  1  0  0  0  0
 24 25  1  0  0  0  0
 25 20  2  0  0  0  0
 28 22  1  0  0  0  0
 28 31  1  0  0  0  0
 28 30  1  0  0  0  0
 29 28  1  0  0  0  0
M  END
>  <minimizedAffinity>
-5.90598679

$$$$

 OpenBabel03252500113D

 31 33  0  0  0  0  0  0  0  0999 V2000
   40.4230   29.9740   39.4870 Cl  0  0  0  0  0  0  0  0  0  0  0  0
   39.2340   31.2280   39.6410 C   0  0  0  0  0  0  0  0  0  0  0  0
   37.9140   30.9280   39.9150 C   0  0  0  0  0  0  0  0  0  0  0  0
   36.9520   31.9140   40.0410 C   0  0  0  0  0  0  0  0  0  0  0  0
   37.3620   33.2190   39.8840 C   0  0  0  0  0  0  0  0  0  0  0  0
   38.6850   33.5200   39.6100 C   0  0  0  0  0  0  0  0  0  0  0  0
   39.6130   32.5470   39.4890 C   0  0  0  0  0  0  0  0  0  0  0  0
   35.9380   31.6000   40.2560 H   0  0  0  0  0  0  0  0  0  0  0  0
   36.5920   33.9710   39.9880 H   0  0  0  0  0  0  0  0  0  0  0  0
   38.8890   34.5870   39.5050 H   0  0  0  0  0  0  0  0  0  0  0  0
   41.6940   32.9970   41.3790 F   0  0  0  0  0  0  0  0  0  0  0  0
   42.0240   33.1360   40.0910 C   0  0  0  0  0  0  0  0  0  0  0  0
   40.9960   32.9130   39.1980 C   0  0  0  0  0  0  0  0  0  0  0  0
   41.2540   33.0360   37.8300 C   0  0  0  0  0  0  0  0  0  0  0  0
   40.5050   32.8780   37.0540 H   0  0  0  0  0  0  0  0  0  0  0  0
   42.5340   33.3810   37.3900 C   0  0  0  0  0  0  0  0  0  0  0  0
   42.7290   33.4760   36.3170 H   0  0  0  0  0  0  0  0  0  0  0  0
   43.5730   33.6080   38.2680 C   0  0  0  0  0  3  0  0  0  0  0  0
   43.2660   33.4730   39.5950 C   0  0  0  0  0  3  0  0  0  0  0  0
   36.7800   27.5020   39.1580 C   0  0  0  0  0  0  0  0  0  0  0  0
   36.7960   26.8870   40.4300 C   0  0  0  0  0  0  0  0  0  0  0  0
   37.1950   27.6600   41.5210 C   0  0  0  0  0  0  0  0  0  0  0  0
   37.5480   28.9570   41.3200 N   0  0  0  0  0  0  0  0  0  0  0  0
   37.5230   29.5250   40.0740 C   0  0  0  0  0  0  0  0  0  0  0  0
   37.1420   28.7940   39.0200 N   0  0  0  0  0  0  0  0  0  0  0  0
   36.4690   26.8940   38.3150 H   0  0  0  0  0  0  0  0  0  0  0  0
   36.5180   25.8570   40.6070 H   0  0  0  0  0  0  0  0  0  0  0  0
   37.2540   27.1220   42.9240 C   0  0  0  0  0  0  0  0  0  0  0  0
   37.5310   25.7910   42.9320 F   0  0  0  0  0  0  0  0  0  0  0  0
   38.2700   27.7930   43.6090 F   0  0  0  0  0  0  0  0  0  0  0  0
   36.0370   27.4130   43.5070 F   0  0  0  0  0  0  0  0  0  0  0  0
  1  2  1  0  0  0  0
  2  3  1  0  0  0  0
  3  4  2  0  0  0  0
  3 24  1  0  0  0  0
  4  8  1  0  0  0  0
  5  9  1  0  0  0  0
  5  4  1  0  0  0  0
  6  5  2  0  0  0  0
  7  6  1  0  0  0  0
  7  2  2  0  0  0  0
 10  6  1  0  0  0  0
 12 11  1  0  0  0  0
 13  7  1  0  0  0  0
 13 12  2  0  0  0  0
 14 13  1  0  0  0  0
 15 14  1  0  0  0  0
 16 14  2  0  0  0  0
 16 18  1  0  0  0  0
 17 16  1  0  0  0  0
 18 19  2  0  0  0  0
 19 12  1  0  0  0  0
 20 21  1  0  0  0  0
 21 27  1  0  0  0  0
 21 22  2  0  0  0  0
 22 28  1  0  0  0  0
 23 22  1  0  0  0  0
 24 23  2  0  0  0  0
 25 20  2  0  0  0  0
 25 24  1  0  0  0  0
 26 20  1  0  0  0  0
 28 29  1  0  0  0  0
 28 31  1  0  0  0  0
 28 30  1  0  0  0  0
M  END
>  <minimizedAffinity>
-5.79490709

$$$$

 OpenBabel03252500113D

 31 33  0  0  0  0  0  0  0  0999 V2000
   37.4440   27.2000   39.5600 Cl  0  0  0  0  0  0  0  0  0  0  0  0
   38.1730   27.1400   41.1330 C   0  0  0  0  0  0  0  0  0  0  0  0
   38.3690   28.2900   41.8720 C   0  0  0  0  0  0  0  0  0  0  0  0
   38.9490   28.2620   43.1260 C   0  0  0  0  0  0  0  0  0  0  0  0
   39.3260   27.0330   43.6190 C   0  0  0  0  0  0  0  0  0  0  0  0
   39.1290   25.8800   42.8800 C   0  0  0  0  0  0  0  0  0  0  0  0
   38.5620   25.9230   41.6560 C   0  0  0  0  0  0  0  0  0  0  0  0
   39.0700   29.2060   43.6440 H   0  0  0  0  0  0  0  0  0  0  0  0
   39.7760   27.0380   44.6030 H   0  0  0  0  0  0  0  0  0  0  0  0
   39.4690   24.9680   43.3730 H   0  0  0  0  0  0  0  0  0  0  0  0
   36.3360   24.1550   41.8140 F   0  0  0  0  0  0  0  0  0  0  0  0
   37.3100   23.8060   40.9680 C   0  0  0  0  0  0  0  0  0  0  0  0
   38.3760   24.6800   40.9120 C   0  0  0  0  0  0  0  0  0  0  0  0
   39.4400   24.3930   40.0510 C   0  0  0  0  0  0  0  0  0  0  0  0
   40.3200   25.0250   39.9420 H   0  0  0  0  0  0  0  0  0  0  0  0
   39.4090   23.2350   39.2690 C   0  0  0  0  0  0  0  0  0  0  0  0
   40.2450   23.0170   38.5970 H   0  0  0  0  0  0  0  0  0  0  0  0
   38.3530   22.3510   39.3120 C   0  0  0  0  0  3  0  0  0  0  0  0
   37.3390   22.6800   40.1700 C   0  0  0  0  0  3  0  0  0  0  0  0
   36.3040   31.1960   40.9290 C   0  0  0  0  0  0  0  0  0  0  0  0
   37.2220   32.0060   40.2220 C   0  0  0  0  0  0  0  0  0  0  0  0
   38.5290   31.5380   40.0830 C   0  0  0  0  0  0  0  0  0  0  0  0
   38.8650   30.3390   40.6270 N   0  0  0  0  0  0  0  0  0  0  0  0
   37.9520   29.5770   41.3060 C   0  0  0  0  0  0  0  0  0  0  0  0
   36.6960   30.0140   41.4460 N   0  0  0  0  0  0  0  0  0  0  0  0
   35.2890   31.5680   41.0320 H   0  0  0  0  0  0  0  0  0  0  0  0
   36.9710   32.9630   39.7840 H   0  0  0  0  0  0  0  0  0  0  0  0
   39.5970   32.3070   39.3540 C   0  0  0  0  0  0  0  0  0  0  0  0
   39.5400   32.0840   38.0140 F   0  0  0  0  0  0  0  0  0  0  0  0
   39.3950   33.6690   39.5890 F   0  0  0  0  0  0  0  0  0  0  0  0
   40.8020   31.9200   39.9040 F   0  0  0  0  0  0  0  0  0  0  0  0
  1  2  1  0  0  0  0
  2  7  2  0  0  0  0
  2  3  1  0  0  0  0
  3  4  2  0  0  0  0
  4  5  1  0  0  0  0
  4  8  1  0  0  0  0
  5  9  1  0  0  0  0
  6 10  1  0  0  0  0
  6  5  2  0  0  0  0
  7  6  1  0  0  0  0
 12 11  1  0  0  0  0
 13 12  1  0  0  0  0
 13  7  1  0  0  0  0
 14 13  2  0  0  0  0
 15 14  1  0  0  0  0
 16 18  2  0  0  0  0
 16 14  1  0  0  0  0
 17 16  1  0  0  0  0
 18 19  1  0  0  0  0
 19 12  2  0  0  0  0
 20 26  1  0  0  0  0
 20 25  1  0  0  0  0
 21 20  2  0  0  0  0
 22 21  1  0  0  0  0
 22 23  2  0  0  0  0
 23 24  1  0  0  0  0
 24 25  2  0  0  0  0
 24  3  1  0  0  0  0
 27 21  1  0  0  0  0
 28 30  1  0  0  0  0
 28 31  1  0  0  0  0
 28 22  1  0  0  0  0
 29 28  1  0  0  0  0
M  END
>  <minimizedAffinity>
-5.78475475

$$$$

 OpenBabel03252500113D

 31 33  0  0  0  0  0  0  0  0999 V2000
   38.0780   28.3420   39.2620 Cl  0  0  0  0  0  0  0  0  0  0  0  0
   37.8400   28.1810   40.9730 C   0  0  0  0  0  0  0  0  0  0  0  0
   37.7120   26.9370   41.5600 C   0  0  0  0  0  0  0  0  0  0  0  0
   37.5220   26.7890   42.9220 C   0  0  0  0  0  0  0  0  0  0  0  0
   37.4650   27.9380   43.6790 C   0  0  0  0  0  0  0  0  0  0  0  0
   37.5950   29.1840   43.0910 C   0  0  0  0  0  0  0  0  0  0  0  0
   37.7800   29.3130   41.7600 C   0  0  0  0  0  0  0  0  0  0  0  0
   37.4290   25.7810   43.3080 H   0  0  0  0  0  0  0  0  0  0  0  0
   37.3170   27.7950   44.7410 H   0  0  0  0  0  0  0  0  0  0  0  0
   37.5330   30.0180   43.7920 H   0  0  0  0  0  0  0  0  0  0  0  0
   35.7460   30.8130   40.4480 F   0  0  0  0  0  0  0  0  0  0  0  0
   36.9450   31.3980   40.5450 C   0  0  0  0  0  0  0  0  0  0  0  0
   37.9100   30.6490   41.1850 C   0  0  0  0  0  0  0  0  0  0  0  0
   39.1930   31.1850   41.3310 C   0  0  0  0  0  0  0  0  0  0  0  0
   40.0160   30.6660   41.8210 H   0  0  0  0  0  0  0  0  0  0  0  0
   39.4770   32.4590   40.8310 C   0  0  0  0  0  0  0  0  0  0  0  0
   40.4830   32.8720   40.9490 H   0  0  0  0  0  0  0  0  0  0  0  0
   38.5240   33.2210   40.1890 C   0  0  0  0  0  3  0  0  0  0  0  0
   37.2860   32.6490   40.0740 C   0  0  0  0  0  3  0  0  0  0  0  0
   39.0220   24.0980   39.6060 C   0  0  0  0  0  0  0  0  0  0  0  0
   37.8420   23.4930   39.1190 C   0  0  0  0  0  0  0  0  0  0  0  0
   36.6210   24.0710   39.4700 C   0  0  0  0  0  0  0  0  0  0  0  0
   36.6150   25.1790   40.2580 N   0  0  0  0  0  0  0  0  0  0  0  0
   37.7770   25.7420   40.7140 C   0  0  0  0  0  0  0  0  0  0  0  0
   38.9530   25.1970   40.3840 N   0  0  0  0  0  0  0  0  0  0  0  0
   39.9670   23.6420   39.3270 H   0  0  0  0  0  0  0  0  0  0  0  0
   37.8280   22.6110   38.4910 H   0  0  0  0  0  0  0  0  0  0  0  0
   35.2970   23.5210   39.0160 C   0  0  0  0  0  0  0  0  0  0  0  0
   34.6450   24.4010   38.2100 F   0  0  0  0  0  0  0  0  0  0  0  0
   35.5340   22.3480   38.2950 F   0  0  0  0  0  0  0  0  0  0  0  0
   34.5840   23.2220   40.1590 F   0  0  0  0  0  0  0  0  0  0  0  0
  1  2  1  0  0  0  0
  2  3  2  0  0  0  0
  2  7  1  0  0  0  0
  3  4  1  0  0  0  0
  4  8  1  0  0  0  0
  4  5  2  0  0  0  0
  5  9  1  0  0  0  0
  6  5  1  0  0  0  0
  6 10  1  0  0  0  0
  7  6  2  0  0  0  0
 11 12  1  0  0  0  0
 12 13  1  0  0  0  0
 13 14  2  0  0  0  0
 13  7  1  0  0  0  0
 14 15  1  0  0  0  0
 16 17  1  0  0  0  0
 16 14  1  0  0  0  0
 18 16  2  0  0  0  0
 19 18  1  0  0  0  0
 19 12  2  0  0  0  0
 20 25  1  0  0  0  0
 21 22  1  0  0  0  0
 21 20  2  0  0  0  0
 22 23  2  0  0  0  0
 23 24  1  0  0  0  0
 24  3  1  0  0  0  0
 25 24  2  0  0  0  0
 26 20  1  0  0  0  0
 27 21  1  0  0  0  0
 28 22  1  0  0  0  0
 28 31  1  0  0  0  0
 29 28  1  0  0  0  0
 30 28  1  0  0  0  0
M  END
>  <minimizedAffinity>
-5.76355505

$$$$

 OpenBabel03252500113D

 31 33  0  0  0  0  0  0  0  0999 V2000
   39.2520   29.7220   40.9290 Cl  0  0  0  0  0  0  0  0  0  0  0  0
   37.9930   29.8030   39.7390 C   0  0  0  0  0  0  0  0  0  0  0  0
   36.9600   28.8860   39.7320 C   0  0  0  0  0  0  0  0  0  0  0  0
   35.9480   28.9340   38.7910 C   0  0  0  0  0  0  0  0  0  0  0  0
   36.0060   29.9400   37.8520 C   0  0  0  0  0  0  0  0  0  0  0  0
   37.0410   30.8600   37.8600 C   0  0  0  0  0  0  0  0  0  0  0  0
   38.0220   30.8000   38.7850 C   0  0  0  0  0  0  0  0  0  0  0  0
   35.1720   28.1800   38.8500 H   0  0  0  0  0  0  0  0  0  0  0  0
   35.2030   29.9570   37.1290 H   0  0  0  0  0  0  0  0  0  0  0  0
   36.9800   31.6080   37.0680 H   0  0  0  0  0  0  0  0  0  0  0  0
   38.4340   32.9310   40.6270 F   0  0  0  0  0  0  0  0  0  0  0  0
   39.3180   32.8320   39.6290 C   0  0  0  0  0  0  0  0  0  0  0  0
   39.0940   31.7910   38.7520 C   0  0  0  0  0  0  0  0  0  0  0  0
   39.9720   31.6130   37.6790 C   0  0  0  0  0  0  0  0  0  0  0  0
   39.8730   30.8200   36.9390 H   0  0  0  0  0  0  0  0  0  0  0  0
   41.0520   32.4830   37.5110 C   0  0  0  0  0  0  0  0  0  0  0  0
   41.7360   32.3380   36.6680 H   0  0  0  0  0  0  0  0  0  0  0  0
   41.2920   33.5290   38.3770 C   0  0  0  0  0  3  0  0  0  0  0  0
   40.4020   33.6570   39.4100 C   0  0  0  0  0  3  0  0  0  0  0  0
   36.7420   27.1630   42.9840 C   0  0  0  0  0  0  0  0  0  0  0  0
   36.9090   25.8070   42.6230 C   0  0  0  0  0  0  0  0  0  0  0  0
   37.0930   25.5120   41.2710 C   0  0  0  0  0  0  0  0  0  0  0  0
   37.1040   26.5270   40.3670 N   0  0  0  0  0  0  0  0  0  0  0  0
   36.9390   27.8320   40.7490 C   0  0  0  0  0  0  0  0  0  0  0  0
   36.7620   28.1270   42.0420 N   0  0  0  0  0  0  0  0  0  0  0  0
   36.5990   27.3830   44.0370 H   0  0  0  0  0  0  0  0  0  0  0  0
   36.9020   24.9870   43.3290 H   0  0  0  0  0  0  0  0  0  0  0  0
   37.2810   24.1100   40.7610 C   0  0  0  0  0  0  0  0  0  0  0  0
   36.0880   23.5060   40.5190 F   0  0  0  0  0  0  0  0  0  0  0  0
   38.0000   24.1720   39.5640 F   0  0  0  0  0  0  0  0  0  0  0  0
   38.0280   23.4440   41.7120 F   0  0  0  0  0  0  0  0  0  0  0  0
  2  1  1  0  0  0  0
  3  2  1  0  0  0  0
  3 24  1  0  0  0  0
  4  8  1  0  0  0  0
  4  3  2  0  0  0  0
  5  6  2  0  0  0  0
  5  4  1  0  0  0  0
  6  7  1  0  0  0  0
  7  2  2  0  0  0  0
  9  5  1  0  0  0  0
 10  6  1  0  0  0  0
 12 11  1  0  0  0  0
 13  7  1  0  0  0  0
 13 12  2  0  0  0  0
 14 13  1  0  0  0  0
 15 14  1  0  0  0  0
 16 14  2  0  0  0  0
 16 18  1  0  0  0  0
 17 16  1  0  0  0  0
 18 19  2  0  0  0  0
 19 12  1  0  0  0  0
 20 26  1  0  0  0  0
 21 20  1  0  0  0  0
 21 27  1  0  0  0  0
 22 21  2  0  0  0  0
 23 24  2  0  0  0  0
 23 22  1  0  0  0  0
 24 25  1  0  0  0  0
 25 20  2  0  0  0  0
 28 22  1  0  0  0  0
 28 31  1  0  0  0  0
 29 28  1  0  0  0  0
 30 28  1  0  0  0  0
M  END
>  <minimizedAffinity>
-5.62145805

$$$$

 OpenBabel03252500113D

 31 33  0  0  0  0  0  0  0  0999 V2000
   39.1400   29.4310   41.3120 Cl  0  0  0  0  0  0  0  0  0  0  0  0
   37.8930   29.5130   40.1100 C   0  0  0  0  0  0  0  0  0  0  0  0
   37.6820   30.6660   39.3790 C   0  0  0  0  0  0  0  0  0  0  0  0
   36.6930   30.7500   38.4170 C   0  0  0  0  0  0  0  0  0  0  0  0
   35.9180   29.6310   38.2100 C   0  0  0  0  0  0  0  0  0  0  0  0
   36.1290   28.4750   38.9400 C   0  0  0  0  0  0  0  0  0  0  0  0
   37.0990   28.4070   39.8770 C   0  0  0  0  0  0  0  0  0  0  0  0
   36.5880   31.6890   37.8870 H   0  0  0  0  0  0  0  0  0  0  0  0
   35.1520   29.7220   37.4510 H   0  0  0  0  0  0  0  0  0  0  0  0
   35.4540   27.6560   38.6880 H   0  0  0  0  0  0  0  0  0  0  0  0
   36.1530   27.8350   42.5010 F   0  0  0  0  0  0  0  0  0  0  0  0
   36.8380   26.8610   41.8930 C   0  0  0  0  0  0  0  0  0  0  0  0
   37.2840   27.1660   40.6240 C   0  0  0  0  0  0  0  0  0  0  0  0
   38.0100   26.2040   39.9150 C   0  0  0  0  0  0  0  0  0  0  0  0
   38.4010   26.3570   38.9100 H   0  0  0  0  0  0  0  0  0  0  0  0
   38.2700   24.9600   40.4960 C   0  0  0  0  0  0  0  0  0  0  0  0
   38.8390   24.2120   39.9350 H   0  0  0  0  0  0  0  0  0  0  0  0
   37.8320   24.6380   41.7630 C   0  0  0  0  0  3  0  0  0  0  0  0
   37.1270   25.6160   42.4120 C   0  0  0  0  0  3  0  0  0  0  0  0
   38.9170   33.8680   40.7270 C   0  0  0  0  0  0  0  0  0  0  0  0
   40.1660   34.0100   40.0800 C   0  0  0  0  0  0  0  0  0  0  0  0
   40.5580   33.0040   39.1950 C   0  0  0  0  0  0  0  0  0  0  0  0
   39.7350   31.9420   38.9930 N   0  0  0  0  0  0  0  0  0  0  0  0
   38.5300   31.8330   39.6350 C   0  0  0  0  0  0  0  0  0  0  0  0
   38.1430   32.7910   40.4860 N   0  0  0  0  0  0  0  0  0  0  0  0
   38.6200   34.6550   41.4130 H   0  0  0  0  0  0  0  0  0  0  0  0
   40.8330   34.8490   40.2300 H   0  0  0  0  0  0  0  0  0  0  0  0
   41.8620   33.0390   38.4470 C   0  0  0  0  0  0  0  0  0  0  0  0
   42.8680   33.5150   39.2270 F   0  0  0  0  0  0  0  0  0  0  0  0
   42.1790   31.7360   38.0580 F   0  0  0  0  0  0  0  0  0  0  0  0
   41.6500   33.8150   37.3260 F   0  0  0  0  0  0  0  0  0  0  0  0
  2  1  1  0  0  0  0
  3 24  1  0  0  0  0
  3  2  2  0  0  0  0
  4  3  1  0  0  0  0
  5  4  2  0  0  0  0
  5  6  1  0  0  0  0
  6  7  2  0  0  0  0
  7  2  1  0  0  0  0
  7 13  1  0  0  0  0
  8  4  1  0  0  0  0
  9  5  1  0  0  0  0
 10  6  1  0  0  0  0
 12 19  1  0  0  0  0
 12 11  1  0  0  0  0
 13 12  2  0  0  0  0
 14 16  2  0  0  0  0
 14 13  1  0  0  0  0
 15 14  1  0  0  0  0
 16 18  1  0  0  0  0
 17 16  1  0  0  0  0
 18 19  2  0  0  0  0
 20 26  1  0  0  0  0
 21 27  1  0  0  0  0
 21 20  2  0  0  0  0
 22 21  1  0  0  0  0
 23 22  2  0  0  0  0
 23 24  1  0  0  0  0
 24 25  2  0  0  0  0
 25 20  1  0  0  0  0
 28 22  1  0  0  0  0
 28 29  1  0  0  0  0
 30 28  1  0  0  0  0
 31 28  1  0  0  0  0
M  END
>  <minimizedAffinity>
-5.61229944

$$$$
