
 OpenBabel03242522113D

 20 21  0  0  0  0  0  0  0  0999 V2000
   44.4970   35.6840   45.0600 C   0  0  0  0  0  0  0  0  0  0  0  0
   45.0530   35.7260   43.7810 C   0  0  0  0  0  0  0  0  0  0  0  0
   45.9830   34.7400   43.4310 C   0  0  0  0  0  0  0  0  0  0  0  0
   46.2780   33.8140   44.3560 N   0  0  0  0  0  0  0  0  0  0  0  0
   45.7340   33.7670   45.6020 C   0  0  0  0  0  0  0  0  0  0  0  0
   44.8300   34.7240   45.9520 N   0  0  0  0  0  0  0  0  0  0  0  0
   43.7650   36.4440   45.3630 H   0  0  0  0  0  0  0  0  0  0  0  0
   46.0800   32.9530   46.2000 H   0  0  0  0  0  0  0  0  0  0  0  0
   45.0410   33.4030   41.0830 F   0  0  0  0  0  0  0  0  0  0  0  0
   46.2560   34.0040   40.9650 C   0  0  0  0  0  0  0  0  0  0  0  0
   46.6370   34.6790   42.1340 C   0  0  0  0  0  0  0  0  0  0  0  0
   47.8480   35.3530   42.1890 C   0  0  0  0  0  0  0  0  0  0  0  0
   48.2460   35.9070   43.0380 H   0  0  0  0  0  0  0  0  0  0  0  0
   48.6910   35.3610   41.0730 C   0  0  0  0  0  0  0  0  0  0  0  0
   49.6760   35.8580   40.9940 H   0  0  0  0  0  0  0  0  0  0  0  0
   48.3030   34.6860   39.9080 C   0  0  0  0  0  0  0  0  0  0  0  0
   47.0920   34.0200   39.8750 C   0  0  0  0  0  0  0  0  0  0  0  0
   44.6220   36.7650   42.9150 N   0  0  0  0  0  0  0  0  0  0  0  0
   44.0990   36.4960   42.0220 H   0  0  0  0  0  0  0  0  0  0  0  0
   44.6780   37.8000   42.8850 H   0  0  0  0  0  0  0  0  0  0  0  0
  1  7  1  0  0  0  0
  1  6  1  0  0  0  0
  2  1  2  0  0  0  0
  3  2  1  0  0  0  0
  3  4  2  0  0  0  0
  4  5  1  0  0  0  0
  5  6  2  0  0  0  0
  5  8  1  0  0  0  0
 10  9  1  0  0  0  0
 10 11  1  0  0  0  0
 11 12  2  0  0  0  0
 11  3  1  0  0  0  0
 12 13  1  0  0  0  0
 14 12  1  0  0  0  0
 15 14  1  0  0  0  0
 16 14  2  0  0  0  0
 17 16  1  0  0  0  0
 17 10  2  0  0  0  0
 18  2  1  0  0  0  0
 19 18  1  0  0  0  0
 20 18  1  0  0  0  0
M  END
>  <minimizedAffinity>
-5.41230774

>  <minimizedRMSD>
1.9757961

$$$$
