
 OpenBabel03252508173D

 47 51  0  0  1  0  0  0  0  0999 V2000
   47.2840   31.1520   46.9350 C   0  0  0  0  0  0  0  0  0  0  0  0
   48.2930   30.8400   46.7450 H   0  0  0  0  0  0  0  0  0  0  0  0
   46.5950   30.2840   46.7190 H   0  0  0  0  0  0  0  0  0  0  0  0
   46.9140   31.6680   48.2760 C   0  0  1  0  0  0  0  0  0  0  0  0
   46.3720   30.6510   49.2210 C   0  0  0  0  0  0  0  0  0  0  0  0
   47.6710   31.2560   49.4730 C   0  0  1  0  0  0  0  0  0  0  0  0
   46.2200   32.5590   48.2600 H   0  0  0  0  0  0  0  0  0  0  0  0
   45.5290   30.8640   49.9070 H   0  0  0  0  0  0  0  0  0  0  0  0
   46.3810   29.5650   48.9210 H   0  0  0  0  0  0  0  0  0  0  0  0
   47.7050   32.0060   50.2910 H   0  0  0  0  0  0  0  0  0  0  0  0
   48.9570   30.5180   49.2660 C   0  0  2  0  0  0  0  0  0  0  0  0
   49.6270   30.0450   50.5820 C   0  0  0  0  0  0  0  0  0  0  0  0
   50.2230   31.1610   49.8380 C   0  0  1  0  0  0  0  0  0  0  0  0
   49.0780   29.7630   48.4880 H   0  0  0  0  0  0  0  0  0  0  0  0
   49.0680   30.2440   51.5290 H   0  0  0  0  0  0  0  0  0  0  0  0
   50.1460   29.0890   50.6130 H   0  0  0  0  0  0  0  0  0  0  0  0
   50.0490   32.1680   50.3230 H   0  0  0  0  0  0  0  0  0  0  0  0
   52.4480   33.0020   49.8450 F   0  0  0  0  0  0  0  0  0  0  0  0
   52.5540   31.9350   49.0190 C   0  0  0  0  0  0  0  0  0  0  0  0
   51.4580   31.0990   49.0640 C   0  0  0  0  0  0  0  0  0  0  0  0
   51.5300   29.9820   48.2200 C   0  0  0  0  0  0  0  0  0  0  0  0
   50.7340   29.2240   48.1430 H   0  0  0  0  0  0  0  0  0  0  0  0
   52.5940   29.7190   47.4050 C   0  0  0  0  0  0  0  0  0  0  0  0
   52.6560   28.8620   46.7530 H   0  0  0  0  0  0  0  0  0  0  0  0
   53.6740   30.5710   47.3800 C   0  0  0  0  0  3  0  0  0  0  0  0
   53.6290   31.6730   48.1980 C   0  0  0  0  0  3  0  0  0  0  0  0
   46.1390   33.0690   46.1740 C   0  0  0  0  0  3  0  0  0  0  0  0
   46.9810   32.1780   45.8640 C   0  0  0  0  0  3  0  0  0  0  0  0
   44.5380   35.8750   44.4010 C   0  0  0  0  0  0  0  0  0  0  0  0
   45.1720   35.8600   43.1590 C   0  0  0  0  0  0  0  0  0  0  0  0
   46.1160   34.8960   42.9750 C   0  0  0  0  0  0  0  0  0  0  0  0
   46.3960   34.0140   43.9700 N   0  0  0  0  0  0  0  0  0  0  0  0
   45.7650   34.0540   45.1590 C   0  0  0  0  0  0  0  0  0  0  0  0
   44.8470   34.9900   45.3400 N   0  0  0  0  0  0  0  0  0  0  0  0
   43.7870   36.6040   44.6140 H   0  0  0  0  0  0  0  0  0  0  0  0
   44.9290   36.5770   42.3860 H   0  0  0  0  0  0  0  0  0  0  0  0
   46.8560   34.7590   41.7290 C   0  0  0  0  0  0  0  0  0  0  0  0
   48.0560   35.3480   41.4640 C   0  0  0  0  0  0  0  0  0  0  0  0
   48.7390   35.2020   40.2730 C   0  0  0  0  0  0  0  0  0  0  0  0
   48.2090   34.4230   39.2670 C   0  0  0  0  0  0  0  0  0  0  0  0
   47.0050   33.8030   39.4720 C   0  0  0  0  0  0  0  0  0  0  0  0
   46.3670   33.9840   40.6820 C   0  0  0  0  0  0  0  0  0  0  0  0
   48.5100   35.9740   42.2320 H   0  0  0  0  0  0  0  0  0  0  0  0
   49.6950   35.7010   40.1250 H   0  0  0  0  0  0  0  0  0  0  0  0
   48.7410   34.3050   38.3310 H   0  0  0  0  0  0  0  0  0  0  0  0
   46.5630   33.1820   38.6990 H   0  0  0  0  0  0  0  0  0  0  0  0
   45.4020   33.4650   40.7990 H   0  0  0  0  0  0  0  0  0  0  0  0
  1  4  1  0  0  0  0
  2  1  1  0  0  0  0
  3  1  1  0  0  0  0
  4  7  1  1  0  0  0
  4  5  1  0  0  0  0
  4  6  1  0  0  0  0
  5  6  1  0  0  0  0
  5  8  1  0  0  0  0
  6 10  1  1  0  0  0
  9  5  1  0  0  0  0
 11 14  1  6  0  0  0
 11  6  1  0  0  0  0
 11 13  1  0  0  0  0
 11 12  1  0  0  0  0
 12 16  1  0  0  0  0
 12 15  1  0  0  0  0
 13 17  1  1  0  0  0
 13 12  1  0  0  0  0
 19 20  1  0  0  0  0
 19 18  1  0  0  0  0
 20 13  1  0  0  0  0
 21 20  2  0  0  0  0
 22 21  1  0  0  0  0
 23 21  1  0  0  0  0
 24 23  1  0  0  0  0
 25 23  2  0  0  0  0
 25 26  1  0  0  0  0
 26 19  2  0  0  0  0
 28 27  2  0  0  0  0
 28  1  1  0  0  0  0
 29 35  1  0  0  0  0
 29 34  1  0  0  0  0
 30 29  2  0  0  0  0
 31 30  1  0  0  0  0
 31 32  2  0  0  0  0
 32 33  1  0  0  0  0
 33 34  2  0  0  0  0
 33 27  1  0  0  0  0
 36 30  1  0  0  0  0
 37 31  1  0  0  0  0
 38 37  1  0  0  0  0
 38 43  1  0  0  0  0
 39 38  2  0  0  0  0
 40 41  2  0  0  0  0
 40 39  1  0  0  0  0
 41 42  1  0  0  0  0
 42 47  1  0  0  0  0
 42 37  2  0  0  0  0
 44 39  1  0  0  0  0
 45 40  1  0  0  0  0
 46 41  1  0  0  0  0
M  END
>  <minimizedAffinity>
-6.75174236

>  <minimizedRMSD>
1.01228023

$$$$
