
 OpenBabel03252503143D

 34 37  0  0  0  0  0  0  0  0999 V2000
   38.4140   31.6510   40.6570 C   0  0  0  0  0  0  0  0  0  0  0  0
   37.3040   32.2790   40.6700 O   0  0  0  0  0  0  0  0  0  0  0  0
   40.3160   33.1750   40.4080 C   0  0  0  0  0  0  0  0  0  0  0  0
   39.4320   32.2320   39.8500 C   0  0  0  0  0  0  0  0  0  0  0  0
   39.6530   31.9490   38.5100 C   0  0  0  0  0  0  0  0  0  0  0  0
   40.6340   32.5330   37.8080 N   0  0  0  0  0  0  0  0  0  0  0  0
   41.4610   33.4370   38.3900 C   0  0  0  0  0  0  0  0  0  0  0  0
   41.3000   33.7540   39.6830 N   0  0  0  0  0  0  0  0  0  0  0  0
   40.2340   33.4690   41.4460 H   0  0  0  0  0  0  0  0  0  0  0  0
   42.2340   33.8730   37.7670 H   0  0  0  0  0  0  0  0  0  0  0  0
   38.8120   31.0220   37.8770 C   0  0  0  0  0  0  0  0  0  0  0  0
   37.5650   31.1120   37.3000 C   0  0  0  0  0  0  0  0  0  0  0  0
   36.9670   30.0600   36.7540 C   0  0  0  0  0  0  0  0  0  0  0  0
   37.6380   28.8770   36.7840 C   0  0  0  0  0  0  0  0  0  0  0  0
   39.2180   29.3110   37.6500 S   0  0  0  0  0  0  0  0  0  0  0  0
   37.1100   32.1240   37.3310 H   0  0  0  0  0  0  0  0  0  0  0  0
   35.9920   30.0600   36.2860 H   0  0  0  0  0  0  0  0  0  0  0  0
   37.3670   27.8760   36.4070 H   0  0  0  0  0  0  0  0  0  0  0  0
   38.6780   30.3950   41.4150 C   0  0  0  0  0  0  0  0  0  0  0  0
   39.4120   30.2760   42.5640 C   0  0  0  0  0  0  0  0  0  0  0  0
   39.3730   28.9650   42.8780 N   0  0  0  0  0  0  0  0  0  0  0  0
   38.6390   28.3140   41.9490 C   0  0  0  0  0  0  0  0  0  0  0  0
   38.2120   29.2030   41.0480 N   0  0  0  0  0  0  0  0  0  0  0  0
   39.8910   31.1130   43.0510 H   0  0  0  0  0  0  0  0  0  0  0  0
   39.8560   28.5870   43.7190 H   0  0  0  0  0  0  0  0  0  0  0  0
   36.2920   27.0750   43.0430 F   0  0  0  0  0  0  0  0  0  0  0  0
   37.2080   26.3030   42.4170 C   0  0  0  0  0  0  0  0  0  0  0  0
   38.3340   26.8920   41.8910 C   0  0  0  0  0  0  0  0  0  0  0  0
   39.1870   25.9980   41.2780 C   0  0  0  0  0  0  0  0  0  0  0  0
   40.1120   26.3980   40.8320 H   0  0  0  0  0  0  0  0  0  0  0  0
   38.9770   24.6390   41.1780 C   0  0  0  0  0  0  0  0  0  0  0  0
   39.7200   24.0340   40.6730 H   0  0  0  0  0  0  0  0  0  0  0  0
   37.8290   24.1090   41.7250 C   0  0  0  0  0  3  0  0  0  0  0  0
   36.9360   24.9530   42.3510 C   0  0  0  0  0  3  0  0  0  0  0  0
  1  2  2  0  0  0  0
  1 19  1  0  0  0  0
  3  9  1  0  0  0  0
  4  3  1  0  0  0  0
  4  1  1  0  0  0  0
  5  4  2  0  0  0  0
  6  7  2  0  0  0  0
  6  5  1  0  0  0  0
  7  8  1  0  0  0  0
  8  3  2  0  0  0  0
 10  7  1  0  0  0  0
 11  5  1  0  0  0  0
 12 16  1  0  0  0  0
 12 11  2  0  0  0  0
 13 14  2  0  0  0  0
 13 12  1  0  0  0  0
 14 15  1  0  0  0  0
 15 11  1  0  0  0  0
 17 13  1  0  0  0  0
 18 14  1  0  0  0  0
 19 20  2  0  0  0  0
 20 21  1  0  0  0  0
 20 24  1  0  0  0  0
 21 25  1  0  0  0  0
 22 21  1  0  0  0  0
 23 19  1  0  0  0  0
 23 22  2  0  0  0  0
 27 26  1  0  0  0  0
 28 22  1  0  0  0  0
 28 27  2  0  0  0  0
 29 28  1  0  0  0  0
 30 29  1  0  0  0  0
 31 29  2  0  0  0  0
 31 33  1  0  0  0  0
 32 31  1  0  0  0  0
 33 34  2  0  0  0  0
 34 27  1  0  0  0  0
M  END
>  <minimizedAffinity>
-5.80275917

$$$$

 OpenBabel03252503143D

 34 37  0  0  0  0  0  0  0  0999 V2000
   36.9790   27.7760   42.5560 C   0  0  0  0  0  0  0  0  0  0  0  0
   36.2630   27.3540   43.5230 O   0  0  0  0  0  0  0  0  0  0  0  0
   39.3060   28.1020   43.2520 C   0  0  0  0  0  0  0  0  0  0  0  0
   38.3360   27.3440   42.5690 C   0  0  0  0  0  0  0  0  0  0  0  0
   38.8190   26.2010   41.9510 C   0  0  0  0  0  0  0  0  0  0  0  0
   40.1120   25.8510   42.0040 N   0  0  0  0  0  0  0  0  0  0  0  0
   41.0110   26.6140   42.6750 C   0  0  0  0  0  0  0  0  0  0  0  0
   40.6070   27.7330   43.2940 N   0  0  0  0  0  0  0  0  0  0  0  0
   39.0380   29.0130   43.7690 H   0  0  0  0  0  0  0  0  0  0  0  0
   42.0410   26.2760   42.6800 H   0  0  0  0  0  0  0  0  0  0  0  0
   37.9160   25.3920   41.2440 C   0  0  0  0  0  0  0  0  0  0  0  0
   36.9650   24.4740   41.6270 C   0  0  0  0  0  0  0  0  0  0  0  0
   36.2200   23.8240   40.7410 C   0  0  0  0  0  0  0  0  0  0  0  0
   36.4330   24.1010   39.4260 C   0  0  0  0  0  0  0  0  0  0  0  0
   37.7830   25.3700   39.4760 S   0  0  0  0  0  0  0  0  0  0  0  0
   36.8760   24.3260   42.7230 H   0  0  0  0  0  0  0  0  0  0  0  0
   35.4580   23.0920   40.9720 H   0  0  0  0  0  0  0  0  0  0  0  0
   35.9570   23.7060   38.5120 H   0  0  0  0  0  0  0  0  0  0  0  0
   36.4810   28.6600   41.4640 C   0  0  0  0  0  0  0  0  0  0  0  0
   36.6140   30.0200   41.3940 C   0  0  0  0  0  0  0  0  0  0  0  0
   36.0150   30.3770   40.2390 N   0  0  0  0  0  0  0  0  0  0  0  0
   35.5380   29.2680   39.6320 C   0  0  0  0  0  0  0  0  0  0  0  0
   35.8300   28.2110   40.3940 N   0  0  0  0  0  0  0  0  0  0  0  0
   37.1090   30.6080   42.1520 H   0  0  0  0  0  0  0  0  0  0  0  0
   35.9670   31.3690   39.9290 H   0  0  0  0  0  0  0  0  0  0  0  0
   32.6840   29.3320   39.3320 F   0  0  0  0  0  0  0  0  0  0  0  0
   33.4550   29.2140   38.2290 C   0  0  0  0  0  0  0  0  0  0  0  0
   34.8230   29.1830   38.3670 C   0  0  0  0  0  0  0  0  0  0  0  0
   35.4950   29.0600   37.1690 C   0  0  0  0  0  0  0  0  0  0  0  0
   36.5960   29.0290   37.2010 H   0  0  0  0  0  0  0  0  0  0  0  0
   34.8980   28.9720   35.9280 C   0  0  0  0  0  0  0  0  0  0  0  0
   35.5300   28.8780   35.0540 H   0  0  0  0  0  0  0  0  0  0  0  0
   33.5220   29.0090   35.8560 C   0  0  0  0  0  3  0  0  0  0  0  0
   32.7960   29.1310   37.0210 C   0  0  0  0  0  3  0  0  0  0  0  0
  1  4  1  0  0  0  0
  1  2  2  0  0  0  0
  3  8  1  0  0  0  0
  3  9  1  0  0  0  0
  4  3  2  0  0  0  0
  5  6  2  0  0  0  0
  5  4  1  0  0  0  0
  6  7  1  0  0  0  0
  7 10  1  0  0  0  0
  7  8  2  0  0  0  0
 11 12  2  0  0  0  0
 11  5  1  0  0  0  0
 12 16  1  0  0  0  0
 13 17  1  0  0  0  0
 13 12  1  0  0  0  0
 14 15  1  0  0  0  0
 14 13  2  0  0  0  0
 15 11  1  0  0  0  0
 18 14  1  0  0  0  0
 19  1  1  0  0  0  0
 20 19  2  0  0  0  0
 20 24  1  0  0  0  0
 21 20  1  0  0  0  0
 22 21  1  0  0  0  0
 22 23  2  0  0  0  0
 23 19  1  0  0  0  0
 25 21  1  0  0  0  0
 27 28  1  0  0  0  0
 27 26  1  0  0  0  0
 28 22  1  0  0  0  0
 29 30  1  0  0  0  0
 29 28  2  0  0  0  0
 31 29  1  0  0  0  0
 32 31  1  0  0  0  0
 33 31  2  0  0  0  0
 33 34  1  0  0  0  0
 34 27  2  0  0  0  0
M  END
>  <minimizedAffinity>
-5.7874198

$$$$

 OpenBabel03252503143D

 34 37  0  0  0  0  0  0  0  0999 V2000
   38.6950   26.1620   42.7160 C   0  0  0  0  0  0  0  0  0  0  0  0
   39.5190   25.6790   43.5610 O   0  0  0  0  0  0  0  0  0  0  0  0
   37.0120   24.6190   41.8270 C   0  0  0  0  0  0  0  0  0  0  0  0
   38.2600   25.2580   41.7060 C   0  0  0  0  0  0  0  0  0  0  0  0
   38.9730   24.9290   40.5630 C   0  0  0  0  0  0  0  0  0  0  0  0
   38.5030   24.0680   39.6490 N   0  0  0  0  0  0  0  0  0  0  0  0
   37.2930   23.4770   39.8100 C   0  0  0  0  0  0  0  0  0  0  0  0
   36.5540   23.7540   40.8940 N   0  0  0  0  0  0  0  0  0  0  0  0
   36.3730   24.8040   42.6800 H   0  0  0  0  0  0  0  0  0  0  0  0
   36.9700   22.7920   39.0350 H   0  0  0  0  0  0  0  0  0  0  0  0
   40.2310   25.5190   40.3680 C   0  0  0  0  0  0  0  0  0  0  0  0
   41.4930   25.2430   40.8460 C   0  0  0  0  0  0  0  0  0  0  0  0
   42.5480   25.9720   40.5030 C   0  0  0  0  0  0  0  0  0  0  0  0
   42.3360   27.0120   39.6520 C   0  0  0  0  0  0  0  0  0  0  0  0
   40.5130   26.9310   39.3340 S   0  0  0  0  0  0  0  0  0  0  0  0
   41.5510   24.3730   41.5320 H   0  0  0  0  0  0  0  0  0  0  0  0
   43.5630   25.8110   40.8400 H   0  0  0  0  0  0  0  0  0  0  0  0
   43.0310   27.7550   39.2220 H   0  0  0  0  0  0  0  0  0  0  0  0
   38.1920   27.5650   42.7380 C   0  0  0  0  0  0  0  0  0  0  0  0
   37.3680   28.1190   43.6790 C   0  0  0  0  0  0  0  0  0  0  0  0
   37.1880   29.3970   43.2860 N   0  0  0  0  0  0  0  0  0  0  0  0
   37.8820   29.6070   42.1460 C   0  0  0  0  0  0  0  0  0  0  0  0
   38.5000   28.4710   41.8130 N   0  0  0  0  0  0  0  0  0  0  0  0
   36.9860   27.5740   44.5290 H   0  0  0  0  0  0  0  0  0  0  0  0
   36.5950   30.0600   43.8270 H   0  0  0  0  0  0  0  0  0  0  0  0
   35.7630   30.7450   40.5790 F   0  0  0  0  0  0  0  0  0  0  0  0
   36.9570   31.3780   40.6230 C   0  0  0  0  0  0  0  0  0  0  0  0
   37.9750   30.8360   41.3730 C   0  0  0  0  0  0  0  0  0  0  0  0
   39.1380   31.5760   41.3370 C   0  0  0  0  0  0  0  0  0  0  0  0
   39.9990   31.2040   41.9150 H   0  0  0  0  0  0  0  0  0  0  0  0
   39.3130   32.7500   40.6320 C   0  0  0  0  0  0  0  0  0  0  0  0
   40.2750   33.2450   40.6780 H   0  0  0  0  0  0  0  0  0  0  0  0
   38.2540   33.2410   39.9000 C   0  0  0  0  0  3  0  0  0  0  0  0
   37.0640   32.5450   39.8980 C   0  0  0  0  0  3  0  0  0  0  0  0
  1 19  1  0  0  0  0
  1  2  2  0  0  0  0
  3  9  1  0  0  0  0
  4  3  1  0  0  0  0
  4  1  1  0  0  0  0
  5  4  2  0  0  0  0
  6  7  2  0  0  0  0
  6  5  1  0  0  0  0
  7  8  1  0  0  0  0
  8  3  2  0  0  0  0
 10  7  1  0  0  0  0
 11  5  1  0  0  0  0
 11 12  2  0  0  0  0
 12 16  1  0  0  0  0
 13 17  1  0  0  0  0
 13 12  1  0  0  0  0
 14 13  2  0  0  0  0
 15 14  1  0  0  0  0
 15 11  1  0  0  0  0
 18 14  1  0  0  0  0
 19 20  2  0  0  0  0
 20 24  1  0  0  0  0
 21 20  1  0  0  0  0
 21 25  1  0  0  0  0
 22 21  1  0  0  0  0
 23 22  2  0  0  0  0
 23 19  1  0  0  0  0
 26 27  1  0  0  0  0
 27 28  1  0  0  0  0
 28 22  1  0  0  0  0
 29 28  2  0  0  0  0
 29 30  1  0  0  0  0
 31 32  1  0  0  0  0
 31 29  1  0  0  0  0
 33 31  2  0  0  0  0
 34 33  1  0  0  0  0
 34 27  2  0  0  0  0
M  END
>  <minimizedAffinity>
-5.68479919

$$$$

 OpenBabel03252503143D

 34 37  0  0  0  0  0  0  0  0999 V2000
   35.9800   27.5320   37.7270 C   0  0  0  0  0  0  0  0  0  0  0  0
   36.9770   28.0440   37.1190 O   0  0  0  0  0  0  0  0  0  0  0  0
   36.3000   25.2930   38.6700 C   0  0  0  0  0  0  0  0  0  0  0  0
   36.3050   26.6920   38.8290 C   0  0  0  0  0  0  0  0  0  0  0  0
   36.6420   27.1320   40.1000 C   0  0  0  0  0  0  0  0  0  0  0  0
   36.9380   26.2850   41.0960 N   0  0  0  0  0  0  0  0  0  0  0  0
   36.9210   24.9440   40.8940 C   0  0  0  0  0  0  0  0  0  0  0  0
   36.6030   24.4540   39.6860 N   0  0  0  0  0  0  0  0  0  0  0  0
   36.0520   24.8420   37.7190 H   0  0  0  0  0  0  0  0  0  0  0  0
   37.1710   24.3130   41.7390 H   0  0  0  0  0  0  0  0  0  0  0  0
   36.6640   28.5140   40.3440 C   0  0  0  0  0  0  0  0  0  0  0  0
   35.7000   29.4320   40.6910 C   0  0  0  0  0  0  0  0  0  0  0  0
   35.9840   30.7160   40.8670 C   0  0  0  0  0  0  0  0  0  0  0  0
   37.2780   31.0980   40.6900 C   0  0  0  0  0  0  0  0  0  0  0  0
   38.1260   29.5120   40.2450 S   0  0  0  0  0  0  0  0  0  0  0  0
   34.6790   29.0120   40.8100 H   0  0  0  0  0  0  0  0  0  0  0  0
   35.2770   31.4890   41.1390 H   0  0  0  0  0  0  0  0  0  0  0  0
   37.7640   32.0850   40.7740 H   0  0  0  0  0  0  0  0  0  0  0  0
   34.5560   27.7640   37.3510 C   0  0  0  0  0  0  0  0  0  0  0  0
   33.6680   26.8240   36.9040 C   0  0  0  0  0  0  0  0  0  0  0  0
   32.5150   27.4920   36.6960 N   0  0  0  0  0  0  0  0  0  0  0  0
   32.7020   28.7930   37.0070 C   0  0  0  0  0  0  0  0  0  0  0  0
   33.9640   28.9550   37.4120 N   0  0  0  0  0  0  0  0  0  0  0  0
   33.9230   25.7820   36.7740 H   0  0  0  0  0  0  0  0  0  0  0  0
   31.6580   27.0150   36.3490 H   0  0  0  0  0  0  0  0  0  0  0  0
   31.0950   29.7310   39.1940 F   0  0  0  0  0  0  0  0  0  0  0  0
   30.9630   30.3210   37.9850 C   0  0  0  0  0  0  0  0  0  0  0  0
   31.7310   29.8750   36.9340 C   0  0  0  0  0  0  0  0  0  0  0  0
   31.5030   30.5580   35.7580 C   0  0  0  0  0  0  0  0  0  0  0  0
   32.0830   30.2560   34.8710 H   0  0  0  0  0  0  0  0  0  0  0  0
   30.6040   31.5920   35.6000 C   0  0  0  0  0  0  0  0  0  0  0  0
   30.5100   32.0550   34.6250 H   0  0  0  0  0  0  0  0  0  0  0  0
   29.8640   31.9930   36.6910 C   0  0  0  0  0  3  0  0  0  0  0  0
   30.0480   31.3490   37.8950 C   0  0  0  0  0  3  0  0  0  0  0  0
  1  4  1  0  0  0  0
  2  1  2  0  0  0  0
  3  4  2  0  0  0  0
  3  8  1  0  0  0  0
  4  5  1  0  0  0  0
  5 11  1  0  0  0  0
  5  6  2  0  0  0  0
  7  6  1  0  0  0  0
  7 10  1  0  0  0  0
  8  7  2  0  0  0  0
  9  3  1  0  0  0  0
 11 12  2  0  0  0  0
 12 16  1  0  0  0  0
 12 13  1  0  0  0  0
 13 17  1  0  0  0  0
 14 18  1  0  0  0  0
 14 13  2  0  0  0  0
 15 11  1  0  0  0  0
 15 14  1  0  0  0  0
 19 23  1  0  0  0  0
 19  1  1  0  0  0  0
 20 19  2  0  0  0  0
 21 20  1  0  0  0  0
 21 22  1  0  0  0  0
 22 23  2  0  0  0  0
 24 20  1  0  0  0  0
 25 21  1  0  0  0  0
 27 26  1  0  0  0  0
 28 22  1  0  0  0  0
 28 27  2  0  0  0  0
 29 28  1  0  0  0  0
 30 29  1  0  0  0  0
 31 29  2  0  0  0  0
 31 33  1  0  0  0  0
 32 31  1  0  0  0  0
 33 34  2  0  0  0  0
 34 27  1  0  0  0  0
M  END
>  <minimizedAffinity>
-5.63990211

$$$$

 OpenBabel03252503143D

 34 37  0  0  0  0  0  0  0  0999 V2000
   36.6530   30.7990   40.0940 C   0  0  0  0  0  0  0  0  0  0  0  0
   35.8350   30.8480   41.0720 O   0  0  0  0  0  0  0  0  0  0  0  0
   36.1020   29.7360   37.9560 C   0  0  0  0  0  0  0  0  0  0  0  0
   36.5630   29.6340   39.2820 C   0  0  0  0  0  0  0  0  0  0  0  0
   36.9000   28.3490   39.6840 C   0  0  0  0  0  0  0  0  0  0  0  0
   36.7910   27.2930   38.8660 N   0  0  0  0  0  0  0  0  0  0  0  0
   36.3420   27.4420   37.5950 C   0  0  0  0  0  0  0  0  0  0  0  0
   36.0000   28.6580   37.1460 N   0  0  0  0  0  0  0  0  0  0  0  0
   35.8130   30.6910   37.5400 H   0  0  0  0  0  0  0  0  0  0  0  0
   36.2780   26.5480   36.9850 H   0  0  0  0  0  0  0  0  0  0  0  0
   37.3630   28.1600   40.9940 C   0  0  0  0  0  0  0  0  0  0  0  0
   36.7580   27.7750   42.1690 C   0  0  0  0  0  0  0  0  0  0  0  0
   37.4340   27.6690   43.3060 C   0  0  0  0  0  0  0  0  0  0  0  0
   38.7640   27.9580   43.2690 C   0  0  0  0  0  0  0  0  0  0  0  0
   39.0470   28.4070   41.4930 S   0  0  0  0  0  0  0  0  0  0  0  0
   35.6710   27.5630   42.0840 H   0  0  0  0  0  0  0  0  0  0  0  0
   37.0220   27.3730   44.2610 H   0  0  0  0  0  0  0  0  0  0  0  0
   39.5330   27.9480   44.0590 H   0  0  0  0  0  0  0  0  0  0  0  0
   37.6510   31.8610   39.7790 C   0  0  0  0  0  0  0  0  0  0  0  0
   37.4380   33.2120   39.8030 C   0  0  0  0  0  0  0  0  0  0  0  0
   38.6160   33.7660   39.4510 N   0  0  0  0  0  0  0  0  0  0  0  0
   39.5120   32.7800   39.2230 C   0  0  0  0  0  0  0  0  0  0  0  0
   38.9100   31.6060   39.4280 N   0  0  0  0  0  0  0  0  0  0  0  0
   36.4890   33.6580   40.0610 H   0  0  0  0  0  0  0  0  0  0  0  0
   38.7420   34.7970   39.3870 H   0  0  0  0  0  0  0  0  0  0  0  0
   41.5830   33.9860   40.8050 F   0  0  0  0  0  0  0  0  0  0  0  0
   41.8930   33.4960   39.5840 C   0  0  0  0  0  0  0  0  0  0  0  0
   40.9040   32.9170   38.8230 C   0  0  0  0  0  0  0  0  0  0  0  0
   41.3490   32.4570   37.6010 C   0  0  0  0  0  0  0  0  0  0  0  0
   40.6130   31.9800   36.9350 H   0  0  0  0  0  0  0  0  0  0  0  0
   42.6470   32.5450   37.1420 C   0  0  0  0  0  0  0  0  0  0  0  0
   42.8800   32.1470   36.1620 H   0  0  0  0  0  0  0  0  0  0  0  0
   43.5920   33.1360   37.9530 C   0  0  0  0  0  3  0  0  0  0  0  0
   43.2080   33.6150   39.1870 C   0  0  0  0  0  3  0  0  0  0  0  0
  1  2  2  0  0  0  0
  3  4  1  0  0  0  0
  4  5  2  0  0  0  0
  4  1  1  0  0  0  0
  5 11  1  0  0  0  0
  6  5  1  0  0  0  0
  7  6  2  0  0  0  0
  8  7  1  0  0  0  0
  8  3  2  0  0  0  0
  9  3  1  0  0  0  0
 10  7  1  0  0  0  0
 11 15  1  0  0  0  0
 11 12  2  0  0  0  0
 12 13  1  0  0  0  0
 13 17  1  0  0  0  0
 14 13  2  0  0  0  0
 14 18  1  0  0  0  0
 15 14  1  0  0  0  0
 16 12  1  0  0  0  0
 19 20  2  0  0  0  0
 19  1  1  0  0  0  0
 20 24  1  0  0  0  0
 21 20  1  0  0  0  0
 22 23  2  0  0  0  0
 22 21  1  0  0  0  0
 23 19  1  0  0  0  0
 25 21  1  0  0  0  0
 27 26  1  0  0  0  0
 28 22  1  0  0  0  0
 28 27  2  0  0  0  0
 29 28  1  0  0  0  0
 30 29  1  0  0  0  0
 31 29  2  0  0  0  0
 31 33  1  0  0  0  0
 32 31  1  0  0  0  0
 33 34  2  0  0  0  0
 34 27  1  0  0  0  0
M  END
>  <minimizedAffinity>
-5.54120922

$$$$

 OpenBabel03252503143D

 34 37  0  0  0  0  0  0  0  0999 V2000
   36.8360   27.5880   42.4460 C   0  0  0  0  0  0  0  0  0  0  0  0
   36.5560   27.7520   43.6800 O   0  0  0  0  0  0  0  0  0  0  0  0
   37.0050   25.1620   42.1390 C   0  0  0  0  0  0  0  0  0  0  0  0
   37.6120   26.4330   42.1470 C   0  0  0  0  0  0  0  0  0  0  0  0
   38.9660   26.4320   41.8480 C   0  0  0  0  0  0  0  0  0  0  0  0
   39.6380   25.3050   41.5740 N   0  0  0  0  0  0  0  0  0  0  0  0
   39.0090   24.1030   41.5770 C   0  0  0  0  0  0  0  0  0  0  0  0
   37.6990   24.0360   41.8590 N   0  0  0  0  0  0  0  0  0  0  0  0
   35.9520   25.0480   42.3580 H   0  0  0  0  0  0  0  0  0  0  0  0
   39.6080   23.2300   41.3470 H   0  0  0  0  0  0  0  0  0  0  0  0
   39.6480   27.6580   41.8400 C   0  0  0  0  0  0  0  0  0  0  0  0
   40.1910   28.4480   42.8280 C   0  0  0  0  0  0  0  0  0  0  0  0
   40.8000   29.5950   42.5530 C   0  0  0  0  0  0  0  0  0  0  0  0
   40.8710   29.9660   41.2460 C   0  0  0  0  0  0  0  0  0  0  0  0
   40.0090   28.5800   40.3690 S   0  0  0  0  0  0  0  0  0  0  0  0
   40.0760   28.0500   43.8570 H   0  0  0  0  0  0  0  0  0  0  0  0
   41.2460   30.2630   43.2790 H   0  0  0  0  0  0  0  0  0  0  0  0
   41.3150   30.8530   40.7640 H   0  0  0  0  0  0  0  0  0  0  0  0
   36.4050   28.5090   41.3560 C   0  0  0  0  0  0  0  0  0  0  0  0
   36.4460   29.8760   41.3820 C   0  0  0  0  0  0  0  0  0  0  0  0
   35.9610   30.2700   40.1870 N   0  0  0  0  0  0  0  0  0  0  0  0
   35.6390   29.1760   39.4630 C   0  0  0  0  0  0  0  0  0  0  0  0
   35.9160   28.0910   40.1910 N   0  0  0  0  0  0  0  0  0  0  0  0
   36.8070   30.4430   42.2280 H   0  0  0  0  0  0  0  0  0  0  0  0
   35.8780   31.2750   39.9320 H   0  0  0  0  0  0  0  0  0  0  0  0
   37.1370   29.5060   37.0360 F   0  0  0  0  0  0  0  0  0  0  0  0
   35.8060   29.2870   36.9580 C   0  0  0  0  0  0  0  0  0  0  0  0
   35.0840   29.1280   38.1180 C   0  0  0  0  0  0  0  0  0  0  0  0
   33.7390   28.9110   37.9040 C   0  0  0  0  0  0  0  0  0  0  0  0
   33.0950   28.7740   38.7870 H   0  0  0  0  0  0  0  0  0  0  0  0
   33.1300   28.8520   36.6670 C   0  0  0  0  0  0  0  0  0  0  0  0
   32.0630   28.6750   36.6220 H   0  0  0  0  0  0  0  0  0  0  0  0
   33.9090   29.0190   35.5420 C   0  0  0  0  0  3  0  0  0  0  0  0
   35.2610   29.2380   35.6930 C   0  0  0  0  0  3  0  0  0  0  0  0
  1  2  2  0  0  0  0
  3  4  1  0  0  0  0
  3  9  1  0  0  0  0
  4  1  1  0  0  0  0
  5  4  2  0  0  0  0
  6  7  2  0  0  0  0
  6  5  1  0  0  0  0
  7  8  1  0  0  0  0
  8  3  2  0  0  0  0
 10  7  1  0  0  0  0
 11  5  1  0  0  0  0
 11 12  2  0  0  0  0
 12 16  1  0  0  0  0
 13 12  1  0  0  0  0
 13 17  1  0  0  0  0
 14 13  2  0  0  0  0
 15 14  1  0  0  0  0
 15 11  1  0  0  0  0
 18 14  1  0  0  0  0
 19 20  2  0  0  0  0
 19  1  1  0  0  0  0
 20 24  1  0  0  0  0
 21 20  1  0  0  0  0
 22 21  1  0  0  0  0
 22 23  2  0  0  0  0
 23 19  1  0  0  0  0
 25 21  1  0  0  0  0
 27 26  1  0  0  0  0
 27 28  1  0  0  0  0
 28 22  1  0  0  0  0
 29 28  2  0  0  0  0
 29 30  1  0  0  0  0
 31 29  1  0  0  0  0
 32 31  1  0  0  0  0
 33 34  1  0  0  0  0
 33 31  2  0  0  0  0
 34 27  2  0  0  0  0
M  END
>  <minimizedAffinity>
-5.53529453

$$$$

 OpenBabel03252503143D

 34 37  0  0  0  0  0  0  0  0999 V2000
   38.0400   29.4670   42.6360 C   0  0  0  0  0  0  0  0  0  0  0  0
   37.5530   28.9170   43.6790 O   0  0  0  0  0  0  0  0  0  0  0  0
   40.0130   30.9090   42.8160 C   0  0  0  0  0  0  0  0  0  0  0  0
   39.4540   29.6290   42.6390 C   0  0  0  0  0  0  0  0  0  0  0  0
   40.3790   28.6080   42.4770 C   0  0  0  0  0  0  0  0  0  0  0  0
   41.7010   28.8310   42.4900 N   0  0  0  0  0  0  0  0  0  0  0  0
   42.1920   30.0830   42.6650 C   0  0  0  0  0  0  0  0  0  0  0  0
   41.3500   31.1140   42.8270 N   0  0  0  0  0  0  0  0  0  0  0  0
   39.3830   31.7770   42.9520 H   0  0  0  0  0  0  0  0  0  0  0  0
   43.2700   30.1950   42.6670 H   0  0  0  0  0  0  0  0  0  0  0  0
   39.9040   27.3010   42.2890 C   0  0  0  0  0  0  0  0  0  0  0  0
   39.4120   26.6180   41.2000 C   0  0  0  0  0  0  0  0  0  0  0  0
   39.0170   25.3540   41.2840 C   0  0  0  0  0  0  0  0  0  0  0  0
   39.1160   24.7500   42.5000 C   0  0  0  0  0  0  0  0  0  0  0  0
   39.8180   26.0850   43.5760 S   0  0  0  0  0  0  0  0  0  0  0  0
   39.3760   27.2060   40.2590 H   0  0  0  0  0  0  0  0  0  0  0  0
   38.6220   24.7600   40.4710 H   0  0  0  0  0  0  0  0  0  0  0  0
   38.8600   23.7280   42.8280 H   0  0  0  0  0  0  0  0  0  0  0  0
   37.2320   29.9250   41.4710 C   0  0  0  0  0  0  0  0  0  0  0  0
   36.8730   31.2140   41.1850 C   0  0  0  0  0  0  0  0  0  0  0  0
   36.1550   31.1390   40.0450 N   0  0  0  0  0  0  0  0  0  0  0  0
   36.0840   29.8480   39.6570 C   0  0  0  0  0  0  0  0  0  0  0  0
   36.7510   29.1020   40.5410 N   0  0  0  0  0  0  0  0  0  0  0  0
   37.1500   32.0570   41.8000 H   0  0  0  0  0  0  0  0  0  0  0  0
   35.7510   31.9860   39.5940 H   0  0  0  0  0  0  0  0  0  0  0  0
   33.2940   29.1870   39.5050 F   0  0  0  0  0  0  0  0  0  0  0  0
   34.0730   28.9910   38.4180 C   0  0  0  0  0  0  0  0  0  0  0  0
   35.4100   29.3050   38.4860 C   0  0  0  0  0  0  0  0  0  0  0  0
   36.0930   29.0600   37.3130 C   0  0  0  0  0  0  0  0  0  0  0  0
   37.1700   29.2890   37.2910 H   0  0  0  0  0  0  0  0  0  0  0  0
   35.5350   28.5490   36.1590 C   0  0  0  0  0  0  0  0  0  0  0  0
   36.1720   28.3970   35.2970 H   0  0  0  0  0  0  0  0  0  0  0  0
   34.1890   28.2530   36.1550 C   0  0  0  0  0  3  0  0  0  0  0  0
   33.4520   28.4780   37.2980 C   0  0  0  0  0  3  0  0  0  0  0  0
  1  4  1  0  0  0  0
  1  2  2  0  0  0  0
  3  8  1  0  0  0  0
  3  9  1  0  0  0  0
  4  3  2  0  0  0  0
  5  6  2  0  0  0  0
  5  4  1  0  0  0  0
  6  7  1  0  0  0  0
  7 10  1  0  0  0  0
  7  8  2  0  0  0  0
 11  5  1  0  0  0  0
 11 15  1  0  0  0  0
 12 13  1  0  0  0  0
 12 11  2  0  0  0  0
 13 14  2  0  0  0  0
 14 18  1  0  0  0  0
 14 15  1  0  0  0  0
 16 12  1  0  0  0  0
 17 13  1  0  0  0  0
 19  1  1  0  0  0  0
 20 19  2  0  0  0  0
 20 24  1  0  0  0  0
 21 20  1  0  0  0  0
 22 21  1  0  0  0  0
 22 23  2  0  0  0  0
 23 19  1  0  0  0  0
 25 21  1  0  0  0  0
 27 28  1  0  0  0  0
 27 26  1  0  0  0  0
 28 22  1  0  0  0  0
 29 28  2  0  0  0  0
 30 29  1  0  0  0  0
 31 29  1  0  0  0  0
 32 31  1  0  0  0  0
 33 31  2  0  0  0  0
 33 34  1  0  0  0  0
 34 27  2  0  0  0  0
M  END
>  <minimizedAffinity>
-5.48070049

$$$$

 OpenBabel03252503143D

 34 37  0  0  0  0  0  0  0  0999 V2000
   37.4070   29.8280   41.6330 C   0  0  0  0  0  0  0  0  0  0  0  0
   36.4520   30.6600   41.4890 O   0  0  0  0  0  0  0  0  0  0  0  0
   39.4860   30.6330   42.6510 C   0  0  0  0  0  0  0  0  0  0  0  0
   38.7150   30.3740   41.5020 C   0  0  0  0  0  0  0  0  0  0  0  0
   39.3350   30.6910   40.3020 C   0  0  0  0  0  0  0  0  0  0  0  0
   40.5730   31.2030   40.2500 N   0  0  0  0  0  0  0  0  0  0  0  0
   41.2770   31.4340   41.3860 C   0  0  0  0  0  0  0  0  0  0  0  0
   40.7330   31.1500   42.5790 N   0  0  0  0  0  0  0  0  0  0  0  0
   39.0990   30.4220   43.6390 H   0  0  0  0  0  0  0  0  0  0  0  0
   42.2720   31.8500   41.2750 H   0  0  0  0  0  0  0  0  0  0  0  0
   38.6320   30.4680   39.1090 C   0  0  0  0  0  0  0  0  0  0  0  0
   37.7820   31.2410   38.3500 C   0  0  0  0  0  0  0  0  0  0  0  0
   37.2310   30.7860   37.2310 C   0  0  0  0  0  0  0  0  0  0  0  0
   37.5400   29.5150   36.8560 C   0  0  0  0  0  0  0  0  0  0  0  0
   38.6890   28.9490   38.1960 S   0  0  0  0  0  0  0  0  0  0  0  0
   37.6000   32.2610   38.7480 H   0  0  0  0  0  0  0  0  0  0  0  0
   36.5560   31.3380   36.5900 H   0  0  0  0  0  0  0  0  0  0  0  0
   37.2210   28.9140   35.9880 H   0  0  0  0  0  0  0  0  0  0  0  0
   37.2230   28.3760   41.9190 C   0  0  0  0  0  0  0  0  0  0  0  0
   36.9220   27.8180   43.1310 C   0  0  0  0  0  0  0  0  0  0  0  0
   36.8540   26.4900   42.9050 N   0  0  0  0  0  0  0  0  0  0  0  0
   37.1050   26.2560   41.5980 C   0  0  0  0  0  0  0  0  0  0  0  0
   37.3320   27.4250   40.9940 N   0  0  0  0  0  0  0  0  0  0  0  0
   36.7850   28.3950   44.0340 H   0  0  0  0  0  0  0  0  0  0  0  0
   36.6370   25.8130   43.6650 H   0  0  0  0  0  0  0  0  0  0  0  0
   38.7660   24.0290   42.3200 F   0  0  0  0  0  0  0  0  0  0  0  0
   37.9340   23.9080   41.2630 C   0  0  0  0  0  0  0  0  0  0  0  0
   37.1350   24.9720   40.9130 C   0  0  0  0  0  0  0  0  0  0  0  0
   36.3330   24.7210   39.8200 C   0  0  0  0  0  0  0  0  0  0  0  0
   35.6640   25.5280   39.4810 H   0  0  0  0  0  0  0  0  0  0  0  0
   36.2980   23.5360   39.1130 C   0  0  0  0  0  0  0  0  0  0  0  0
   35.6250   23.4550   38.2690 H   0  0  0  0  0  0  0  0  0  0  0  0
   37.1220   22.5070   39.5140 C   0  0  0  0  0  3  0  0  0  0  0  0
   37.9480   22.6980   40.6010 C   0  0  0  0  0  3  0  0  0  0  0  0
  1 19  1  0  0  0  0
  2  1  2  0  0  0  0
  3  9  1  0  0  0  0
  4  1  1  0  0  0  0
  4  3  2  0  0  0  0
  5  4  1  0  0  0  0
  6  5  2  0  0  0  0
  6  7  1  0  0  0  0
  7  8  2  0  0  0  0
  8  3  1  0  0  0  0
 10  7  1  0  0  0  0
 11  5  1  0  0  0  0
 12 16  1  0  0  0  0
 12 11  2  0  0  0  0
 13 12  1  0  0  0  0
 14 13  2  0  0  0  0
 14 15  1  0  0  0  0
 15 11  1  0  0  0  0
 17 13  1  0  0  0  0
 18 14  1  0  0  0  0
 19 20  2  0  0  0  0
 20 24  1  0  0  0  0
 21 20  1  0  0  0  0
 21 25  1  0  0  0  0
 22 21  1  0  0  0  0
 23 22  2  0  0  0  0
 23 19  1  0  0  0  0
 27 26  1  0  0  0  0
 28 27  1  0  0  0  0
 28 22  1  0  0  0  0
 29 28  2  0  0  0  0
 30 29  1  0  0  0  0
 31 33  2  0  0  0  0
 31 29  1  0  0  0  0
 32 31  1  0  0  0  0
 33 34  1  0  0  0  0
 34 27  2  0  0  0  0
M  END
>  <minimizedAffinity>
-5.47165632

$$$$

 OpenBabel03252503143D

 34 37  0  0  0  0  0  0  0  0999 V2000
   39.6990   30.4640   42.0000 C   0  0  0  0  0  0  0  0  0  0  0  0
   39.9270   31.1700   43.0370 O   0  0  0  0  0  0  0  0  0  0  0  0
   41.8930   29.8660   41.0880 C   0  0  0  0  0  0  0  0  0  0  0  0
   40.6750   30.5620   40.9690 C   0  0  0  0  0  0  0  0  0  0  0  0
   40.5420   31.3070   39.8060 C   0  0  0  0  0  0  0  0  0  0  0  0
   41.5040   31.3560   38.8740 N   0  0  0  0  0  0  0  0  0  0  0  0
   42.6610   30.6670   39.0330 C   0  0  0  0  0  0  0  0  0  0  0  0
   42.8510   29.9270   40.1360 N   0  0  0  0  0  0  0  0  0  0  0  0
   42.1010   29.2540   41.9550 H   0  0  0  0  0  0  0  0  0  0  0  0
   43.3980   30.7480   38.2420 H   0  0  0  0  0  0  0  0  0  0  0  0
   39.3590   32.0360   39.6130 C   0  0  0  0  0  0  0  0  0  0  0  0
   38.2000   31.7940   38.9100 C   0  0  0  0  0  0  0  0  0  0  0  0
   37.2000   32.6660   38.8840 C   0  0  0  0  0  0  0  0  0  0  0  0
   37.3630   33.8220   39.5850 C   0  0  0  0  0  0  0  0  0  0  0  0
   39.0540   33.6330   40.3190 S   0  0  0  0  0  0  0  0  0  0  0  0
   38.1740   30.8220   38.3760 H   0  0  0  0  0  0  0  0  0  0  0  0
   36.2660   32.5410   38.3540 H   0  0  0  0  0  0  0  0  0  0  0  0
   36.6960   34.6900   39.7210 H   0  0  0  0  0  0  0  0  0  0  0  0
   38.5100   29.5810   41.8280 C   0  0  0  0  0  0  0  0  0  0  0  0
   37.2030   29.9240   42.0450 C   0  0  0  0  0  0  0  0  0  0  0  0
   36.4910   28.8140   41.7620 N   0  0  0  0  0  0  0  0  0  0  0  0
   37.3410   27.8330   41.3870 C   0  0  0  0  0  0  0  0  0  0  0  0
   38.5870   28.3130   41.4290 N   0  0  0  0  0  0  0  0  0  0  0  0
   36.8940   30.9050   42.3750 H   0  0  0  0  0  0  0  0  0  0  0  0
   35.4540   28.7910   41.8430 H   0  0  0  0  0  0  0  0  0  0  0  0
   36.3730   27.0400   38.8030 F   0  0  0  0  0  0  0  0  0  0  0  0
   36.5480   26.0960   39.7540 C   0  0  0  0  0  0  0  0  0  0  0  0
   37.0120   26.4710   40.9930 C   0  0  0  0  0  0  0  0  0  0  0  0
   37.1480   25.4170   41.8710 C   0  0  0  0  0  0  0  0  0  0  0  0
   37.5160   25.6400   42.8860 H   0  0  0  0  0  0  0  0  0  0  0  0
   36.8600   24.0990   41.5830 C   0  0  0  0  0  0  0  0  0  0  0  0
   37.0060   23.3540   42.3560 H   0  0  0  0  0  0  0  0  0  0  0  0
   36.3980   23.7870   40.3230 C   0  0  0  0  0  3  0  0  0  0  0  0
   36.2420   24.7990   39.4000 C   0  0  0  0  0  3  0  0  0  0  0  0
  1  2  2  0  0  0  0
  3  9  1  0  0  0  0
  4  3  1  0  0  0  0
  4  1  1  0  0  0  0
  5  4  2  0  0  0  0
  6  7  2  0  0  0  0
  6  5  1  0  0  0  0
  7  8  1  0  0  0  0
  8  3  2  0  0  0  0
 10  7  1  0  0  0  0
 11  5  1  0  0  0  0
 11 15  1  0  0  0  0
 12 11  2  0  0  0  0
 13 12  1  0  0  0  0
 13 14  2  0  0  0  0
 14 18  1  0  0  0  0
 14 15  1  0  0  0  0
 16 12  1  0  0  0  0
 17 13  1  0  0  0  0
 19  1  1  0  0  0  0
 19 20  2  0  0  0  0
 20 24  1  0  0  0  0
 21 25  1  0  0  0  0
 21 20  1  0  0  0  0
 22 23  2  0  0  0  0
 22 21  1  0  0  0  0
 23 19  1  0  0  0  0
 26 27  1  0  0  0  0
 27 28  1  0  0  0  0
 28 22  1  0  0  0  0
 28 29  2  0  0  0  0
 29 30  1  0  0  0  0
 31 29  1  0  0  0  0
 31 32  1  0  0  0  0
 33 31  2  0  0  0  0
 34 27  2  0  0  0  0
 34 33  1  0  0  0  0
M  END
>  <minimizedAffinity>
-5.45809364

$$$$
