
 OpenBabel03252502133D

 37 40  0  0  0  0  0  0  0  0999 V2000
   41.0300   35.5430   41.9950 Cl  0  0  0  0  0  0  0  0  0  0  0  0
   41.6410   34.7780   40.5420 C   0  0  0  0  0  0  0  0  0  0  0  0
   42.9150   34.3280   40.4570 C   0  0  0  0  0  0  0  0  0  0  0  0
   43.2850   33.7480   39.2750 C   0  0  0  0  0  0  0  0  0  0  0  0
   42.4380   33.6130   38.2160 C   0  0  0  0  0  0  0  0  0  0  0  0
   41.1420   34.0720   38.3080 C   0  0  0  0  0  0  0  0  0  0  0  0
   40.7600   34.6540   39.4840 C   0  0  0  0  0  0  0  0  0  0  0  0
   42.7830   33.1420   37.2950 H   0  0  0  0  0  0  0  0  0  0  0  0
   40.4930   33.9550   37.4620 H   0  0  0  0  0  0  0  0  0  0  0  0
   39.7400   35.0160   39.5550 H   0  0  0  0  0  0  0  0  0  0  0  0
   45.2970   35.7650   43.0300 C   0  0  0  0  0  0  0  0  0  0  0  0
   44.4610   35.6510   41.9200 C   0  0  0  0  0  0  0  0  0  0  0  0
   43.7940   34.4870   41.6020 C   0  0  0  0  0  0  0  0  0  0  0  0
   44.0130   33.4370   42.4620 N   0  0  0  0  0  0  0  0  0  0  0  0
   44.8150   33.5410   43.5290 C   0  0  0  0  0  0  0  0  0  0  0  0
   45.4530   34.6740   43.8240 N   0  0  0  0  0  0  0  0  0  0  0  0
   45.7440   36.7470   43.1360 H   0  0  0  0  0  0  0  0  0  0  0  0
   44.2730   36.4630   41.2280 H   0  0  0  0  0  0  0  0  0  0  0  0
   44.9760   32.7000   44.1970 H   0  0  0  0  0  0  0  0  0  0  0  0
   44.6690   33.2440   39.1440 C   0  0  0  0  0  0  0  0  0  0  0  0
   44.9180   32.3550   38.1050 C   0  0  0  0  0  0  0  0  0  0  0  0
   46.2410   31.9600   38.0890 C   0  0  0  0  0  0  0  0  0  0  0  0
   47.2360   32.3500   38.9530 C   0  0  0  0  0  0  0  0  0  0  0  0
   46.8750   33.2410   39.9530 C   0  0  0  0  0  0  0  0  0  0  0  0
   45.5940   33.6420   39.9920 N   0  0  0  0  0  0  0  0  0  0  0  0
   44.2040   32.0040   37.3950 H   0  0  0  0  0  0  0  0  0  0  0  0
   46.5340   31.2410   37.2830 H   0  0  0  0  0  0  0  0  0  0  0  0
   48.2380   31.9910   38.8650 H   0  0  0  0  0  0  0  0  0  0  0  0
   48.3200   35.5670   39.5150 F   0  0  0  0  0  0  0  0  0  0  0  0
   48.5270   34.8950   40.6790 C   0  0  0  0  0  0  0  0  0  0  0  0
   47.8290   33.7360   40.9340 C   0  0  0  0  0  0  0  0  0  0  0  0
   48.1090   33.1290   42.1360 C   0  0  0  0  0  0  0  0  0  0  0  0
   47.5930   32.2210   42.3900 H   0  0  0  0  0  0  0  0  0  0  0  0
   49.0190   33.6240   43.0470 C   0  0  0  0  0  0  0  0  0  0  0  0
   49.1910   33.1060   43.9620 H   0  0  0  0  0  0  0  0  0  0  0  0
   49.7070   34.7840   42.7730 C   0  0  0  0  0  0  0  0  0  0  0  0
   49.4430   35.4080   41.5730 C   0  0  0  0  0  0  0  0  0  0  0  0
  2  1  1  0  0  0  0
  3  2  1  0  0  0  0
  3 13  1  0  0  0  0
  4  3  2  0  0  0  0
  5  6  2  0  0  0  0
  5  4  1  0  0  0  0
  6  7  1  0  0  0  0
  7 10  1  0  0  0  0
  7  2  2  0  0  0  0
  8  5  1  0  0  0  0
  9  6  1  0  0  0  0
 11 17  1  0  0  0  0
 11 16  1  0  0  0  0
 12 11  2  0  0  0  0
 13 12  1  0  0  0  0
 13 14  2  0  0  0  0
 14 15  1  0  0  0  0
 15 16  2  0  0  0  0
 15 19  1  0  0  0  0
 18 12  1  0  0  0  0
 20  4  1  0  0  0  0
 20 25  1  0  0  0  0
 21 20  2  0  0  0  0
 22 21  1  0  0  0  0
 22 23  2  0  0  0  0
 23 24  1  0  0  0  0
 24 25  2  0  0  0  0
 24 31  1  0  0  0  0
 26 21  1  0  0  0  0
 27 22  1  0  0  0  0
 28 23  1  0  0  0  0
 29 30  1  0  0  0  0
 30 31  2  0  0  0  0
 30 37  1  0  0  0  0
 31 32  1  0  0  0  0
 32 33  1  0  0  0  0
 32 34  2  0  0  0  0
 34 35  1  0  0  0  0
 36 34  1  0  0  0  0
 37 36  2  0  0  0  0
M  END
>  <minimizedAffinity>
-5.88116312

>  <minimizedRMSD>
3.87209296

$$$$
