
 OpenBabel03252507143D

 42 44  0  0  1  0  0  0  0  0999 V2000
   37.3110   27.2580   41.1990 C   0  0  2  0  0  0  0  0  0  0  0  0
   36.7990   26.4180   40.0950 C   0  0  0  0  0  0  0  0  0  0  0  0
   37.4680   25.0760   40.1100 C   0  0  0  0  0  0  0  0  0  0  0  0
   37.1070   24.3090   41.2140 O   0  0  0  0  0  0  0  0  0  0  0  0
   36.7770   25.1110   42.2820 C   0  0  0  0  0  0  0  0  0  0  0  0
   37.6650   26.3370   42.3530 C   0  0  1  0  0  0  0  0  0  0  0  0
   38.2850   27.7140   40.8630 H   0  0  0  0  0  0  0  0  0  0  0  0
   36.9340   26.8570   39.0840 H   0  0  0  0  0  0  0  0  0  0  0  0
   35.6990   26.2080   40.1950 H   0  0  0  0  0  0  0  0  0  0  0  0
   38.5250   25.0560   39.8510 H   0  0  0  0  0  0  0  0  0  0  0  0
   36.9860   24.5310   39.2200 H   0  0  0  0  0  0  0  0  0  0  0  0
   36.7920   24.5220   43.2160 H   0  0  0  0  0  0  0  0  0  0  0  0
   35.7240   25.4950   42.1960 H   0  0  0  0  0  0  0  0  0  0  0  0
   37.2340   26.8850   43.2540 H   0  0  0  0  0  0  0  0  0  0  0  0
   39.0380   28.3460   43.6150 F   0  0  0  0  0  0  0  0  0  0  0  0
   39.7120   27.1840   43.3200 C   0  0  0  0  0  0  0  0  0  0  0  0
   39.0410   26.1240   42.6820 C   0  0  0  0  0  0  0  0  0  0  0  0
   39.8700   25.0470   42.4660 C   0  0  0  0  0  0  0  0  0  0  0  0
   39.4440   24.2100   41.9780 H   0  0  0  0  0  0  0  0  0  0  0  0
   41.1930   24.9360   42.7990 C   0  0  0  0  0  0  0  0  0  0  0  0
   41.7660   24.0520   42.5930 H   0  0  0  0  0  0  0  0  0  0  0  0
   41.7970   26.0070   43.4240 C   0  0  0  0  0  3  0  0  0  0  0  0
   41.0410   27.1290   43.6790 C   0  0  0  0  0  3  0  0  0  0  0  0
   36.5420   28.2870   41.5870 O   0  0  0  0  0  0  0  0  0  0  0  0
   38.1090   30.3810   41.7990 O   0  0  0  0  0  0  0  0  0  0  0  0
   36.9400   29.8110   41.0980 P   0  0  2  0  0  0  0  0  0  0  0  0
   35.6150   30.8330   41.4180 O   0  0  0  0  0  0  0  0  0  0  0  0
   35.4990   30.8850   42.4090 H   0  0  0  0  0  0  0  0  0  0  0  0
   37.1900   29.8470   39.3920 O   0  0  0  0  0  0  0  0  0  0  0  0
   38.4680   31.4950   38.2920 C   0  0  0  0  0  0  0  0  0  0  0  0
   38.3940   30.2390   38.8460 C   0  0  0  0  0  0  0  0  0  0  0  0
   39.5500   29.4160   38.8300 C   0  0  0  0  0  0  0  0  0  0  0  0
   40.6640   29.9190   38.2660 N   0  0  0  0  0  0  0  0  0  0  0  0
   40.6990   31.1460   37.7370 C   0  0  0  0  0  0  0  0  0  0  0  0
   39.5840   31.9240   37.7600 N   0  0  0  0  0  0  0  0  0  0  0  0
   37.2150   33.4410   39.2110 C   0  0  0  0  0  0  0  0  0  0  0  0
   37.5130   33.1690   40.4250 O   0  0  0  0  0  0  0  0  0  0  0  0
   37.6550   32.6350   38.0630 N   0  0  0  0  0  0  0  0  0  0  0  0
   39.4050   28.4600   39.2790 H   0  0  0  0  0  0  0  0  0  0  0  0
   41.6180   31.5190   37.2910 H   0  0  0  0  0  0  0  0  0  0  0  0
   36.6120   34.3250   39.1830 H   0  0  0  0  0  0  0  0  0  0  0  0
   37.3040   32.9990   37.1620 H   0  0  0  0  0  0  0  0  0  0  0  0
  1  7  1  6  0  0  0
  1 24  1  0  0  0  0
  1  6  1  0  0  0  0
  2  3  1  0  0  0  0
  2  9  1  0  0  0  0
  2  1  1  0  0  0  0
  3  4  1  0  0  0  0
  4  5  1  0  0  0  0
  5  6  1  0  0  0  0
  5 12  1  0  0  0  0
  6 17  1  0  0  0  0
  6 14  1  1  0  0  0
  8  2  1  0  0  0  0
 10  3  1  0  0  0  0
 11  3  1  0  0  0  0
 13  5  1  0  0  0  0
 16 15  1  0  0  0  0
 16 23  1  0  0  0  0
 17 16  2  0  0  0  0
 18 17  1  0  0  0  0
 18 20  2  0  0  0  0
 19 18  1  0  0  0  0
 20 22  1  0  0  0  0
 21 20  1  0  0  0  0
 22 23  2  0  0  0  0
 26 27  1  0  0  0  0
 26 24  1  0  0  0  0
 26 25  2  1  0  0  0
 27 28  1  0  0  0  0
 29 26  1  0  0  0  0
 30 31  1  0  0  0  0
 31 29  1  0  0  0  0
 32 31  2  0  0  0  0
 32 39  1  0  0  0  0
 33 32  1  0  0  0  0
 34 35  1  0  0  0  0
 34 33  2  0  0  0  0
 35 30  2  0  0  0  0
 36 37  2  0  0  0  0
 38 30  1  0  0  0  0
 38 36  1  0  0  0  0
 40 34  1  0  0  0  0
 41 36  1  0  0  0  0
 42 38  1  0  0  0  0
M  END
>  <minimizedAffinity>
-6.39940405

$$$$

 OpenBabel03252507143D

 42 44  0  0  1  0  0  0  0  0999 V2000
   37.2320   30.4290   40.2190 C   0  0  2  0  0  0  0  0  0  0  0  0
   36.7910   30.2070   38.8250 C   0  0  0  0  0  0  0  0  0  0  0  0
   36.4100   28.7710   38.6240 C   0  0  0  0  0  0  0  0  0  0  0  0
   35.2600   28.4170   39.3230 O   0  0  0  0  0  0  0  0  0  0  0  0
   35.1170   29.1880   40.4530 C   0  0  0  0  0  0  0  0  0  0  0  0
   36.4530   29.4730   41.1060 C   0  0  1  0  0  0  0  0  0  0  0  0
   38.3090   30.1090   40.2970 H   0  0  0  0  0  0  0  0  0  0  0  0
   37.5470   30.4730   38.0580 H   0  0  0  0  0  0  0  0  0  0  0  0
   35.8710   30.8020   38.5700 H   0  0  0  0  0  0  0  0  0  0  0  0
   37.2190   28.0440   38.6540 H   0  0  0  0  0  0  0  0  0  0  0  0
   36.0900   28.7350   37.5200 H   0  0  0  0  0  0  0  0  0  0  0  0
   34.3990   28.7140   41.1460 H   0  0  0  0  0  0  0  0  0  0  0  0
   34.6690   30.1900   40.2110 H   0  0  0  0  0  0  0  0  0  0  0  0
   36.1490   30.1340   41.9830 H   0  0  0  0  0  0  0  0  0  0  0  0
   38.3320   29.9760   43.0380 F   0  0  0  0  0  0  0  0  0  0  0  0
   38.0970   28.6670   42.6860 C   0  0  0  0  0  0  0  0  0  0  0  0
   37.1330   28.3650   41.7060 C   0  0  0  0  0  0  0  0  0  0  0  0
   37.0340   27.0110   41.4830 C   0  0  0  0  0  0  0  0  0  0  0  0
   36.3380   26.7010   40.7480 H   0  0  0  0  0  0  0  0  0  0  0  0
   37.7440   26.0140   42.0940 C   0  0  0  0  0  0  0  0  0  0  0  0
   37.6000   24.9770   41.8580 H   0  0  0  0  0  0  0  0  0  0  0  0
   38.6750   26.3700   43.0470 C   0  0  0  0  0  3  0  0  0  0  0  0
   38.8410   27.7060   43.3340 C   0  0  0  0  0  3  0  0  0  0  0  0
   37.1930   31.6910   40.6750 O   0  0  0  0  0  0  0  0  0  0  0  0
   38.7150   33.7780   41.1360 O   0  0  0  0  0  0  0  0  0  0  0  0
   38.3140   32.7720   40.1310 P   0  0  2  0  0  0  0  0  0  0  0  0
   37.6400   33.6170   38.8150 O   0  0  0  0  0  0  0  0  0  0  0  0
   36.8760   34.1640   39.1580 H   0  0  0  0  0  0  0  0  0  0  0  0
   39.7010   31.9430   39.5280 O   0  0  0  0  0  0  0  0  0  0  0  0
   41.6860   33.1350   39.9750 C   0  0  0  0  0  0  0  0  0  0  0  0
   40.8010   32.6260   39.0540 C   0  0  0  0  0  0  0  0  0  0  0  0
   41.0610   32.8260   37.6730 C   0  0  0  0  0  0  0  0  0  0  0  0
   42.1720   33.5110   37.3420 N   0  0  0  0  0  0  0  0  0  0  0  0
   43.0100   33.9910   38.2650 C   0  0  0  0  0  0  0  0  0  0  0  0
   42.7490   33.7920   39.5850 N   0  0  0  0  0  0  0  0  0  0  0  0
   42.1940   31.9830   42.1220 C   0  0  0  0  0  0  0  0  0  0  0  0
   42.3020   30.8300   41.5780 O   0  0  0  0  0  0  0  0  0  0  0  0
   41.8750   33.2090   41.3790 N   0  0  0  0  0  0  0  0  0  0  0  0
   40.3250   32.4000   37.0290 H   0  0  0  0  0  0  0  0  0  0  0  0
   43.8990   34.5390   37.9590 H   0  0  0  0  0  0  0  0  0  0  0  0
   42.3710   31.8970   43.1750 H   0  0  0  0  0  0  0  0  0  0  0  0
   41.8150   34.0420   41.9880 H   0  0  0  0  0  0  0  0  0  0  0  0
  1  7  1  1  0  0  0
  1 24  1  0  0  0  0
  1  6  1  0  0  0  0
  2  1  1  0  0  0  0
  3 10  1  0  0  0  0
  3  2  1  0  0  0  0
  3  4  1  0  0  0  0
  4  5  1  0  0  0  0
  5  6  1  0  0  0  0
  5 12  1  0  0  0  0
  6 17  1  0  0  0  0
  6 14  1  1  0  0  0
  8  2  1  0  0  0  0
  9  2  1  0  0  0  0
 11  3  1  0  0  0  0
 13  5  1  0  0  0  0
 16 15  1  0  0  0  0
 16 23  1  0  0  0  0
 17 16  2  0  0  0  0
 18 17  1  0  0  0  0
 18 20  2  0  0  0  0
 19 18  1  0  0  0  0
 20 22  1  0  0  0  0
 21 20  1  0  0  0  0
 22 23  2  0  0  0  0
 26 24  1  0  0  0  0
 26 25  2  1  0  0  0
 27 28  1  0  0  0  0
 27 26  1  0  0  0  0
 29 26  1  0  0  0  0
 30 38  1  0  0  0  0
 31 29  1  0  0  0  0
 31 30  2  0  0  0  0
 32 31  1  0  0  0  0
 33 32  2  0  0  0  0
 33 34  1  0  0  0  0
 34 35  2  0  0  0  0
 35 30  1  0  0  0  0
 36 41  1  0  0  0  0
 37 36  2  0  0  0  0
 38 42  1  0  0  0  0
 38 36  1  0  0  0  0
 39 32  1  0  0  0  0
 40 34  1  0  0  0  0
M  END
>  <minimizedAffinity>
-6.2670002

$$$$

 OpenBabel03252507143D

 42 44  0  0  1  0  0  0  0  0999 V2000
   37.1740   29.2920   38.6320 C   0  0  2  0  0  0  0  0  0  0  0  0
   37.5650   28.3860   37.5300 C   0  0  0  0  0  0  0  0  0  0  0  0
   37.6030   26.9670   38.0130 C   0  0  0  0  0  0  0  0  0  0  0  0
   36.3400   26.4720   38.3250 O   0  0  0  0  0  0  0  0  0  0  0  0
   35.5000   27.4870   38.7210 C   0  0  0  0  0  0  0  0  0  0  0  0
   36.2320   28.5270   39.5450 C   0  0  1  0  0  0  0  0  0  0  0  0
   38.0930   29.5020   39.2490 H   0  0  0  0  0  0  0  0  0  0  0  0
   38.5480   28.6200   37.0720 H   0  0  0  0  0  0  0  0  0  0  0  0
   36.8220   28.3980   36.6860 H   0  0  0  0  0  0  0  0  0  0  0  0
   38.3920   26.7130   38.7170 H   0  0  0  0  0  0  0  0  0  0  0  0
   37.9110   26.3770   37.0750 H   0  0  0  0  0  0  0  0  0  0  0  0
   34.6240   27.0690   39.2480 H   0  0  0  0  0  0  0  0  0  0  0  0
   35.0730   28.0350   37.8370 H   0  0  0  0  0  0  0  0  0  0  0  0
   35.4070   29.2860   39.7490 H   0  0  0  0  0  0  0  0  0  0  0  0
   36.7550   30.4670   41.4090 F   0  0  0  0  0  0  0  0  0  0  0  0
   36.9530   29.1540   41.7660 C   0  0  0  0  0  0  0  0  0  0  0  0
   36.6860   28.1270   40.8420 C   0  0  0  0  0  0  0  0  0  0  0  0
   36.9400   26.8820   41.3700 C   0  0  0  0  0  0  0  0  0  0  0  0
   36.7760   26.0530   40.7320 H   0  0  0  0  0  0  0  0  0  0  0  0
   37.3960   26.5890   42.6270 C   0  0  0  0  0  0  0  0  0  0  0  0
   37.5670   25.5830   42.9570 H   0  0  0  0  0  0  0  0  0  0  0  0
   37.6390   27.6380   43.4890 C   0  0  0  0  0  3  0  0  0  0  0  0
   37.4120   28.9200   43.0430 C   0  0  0  0  0  3  0  0  0  0  0  0
   36.6840   30.4920   38.2870 O   0  0  0  0  0  0  0  0  0  0  0  0
   37.2300   33.0000   38.8360 O   0  0  0  0  0  0  0  0  0  0  0  0
   37.7170   31.7740   38.1710 P   0  0  2  0  0  0  0  0  0  0  0  0
   37.9200   32.1440   36.5210 O   0  0  0  0  0  0  0  0  0  0  0  0
   37.0420   32.4670   36.1670 H   0  0  0  0  0  0  0  0  0  0  0  0
   39.2740   31.3440   38.7760 O   0  0  0  0  0  0  0  0  0  0  0  0
   40.4120   32.7120   40.3230 C   0  0  0  0  0  0  0  0  0  0  0  0
   40.2410   32.2950   39.0240 C   0  0  0  0  0  0  0  0  0  0  0  0
   41.0590   32.8590   38.0110 C   0  0  0  0  0  0  0  0  0  0  0  0
   41.9670   33.7800   38.3860 N   0  0  0  0  0  0  0  0  0  0  0  0
   42.1060   34.1610   39.6590 C   0  0  0  0  0  0  0  0  0  0  0  0
   41.3150   33.6120   40.6190 N   0  0  0  0  0  0  0  0  0  0  0  0
   40.1280   31.1850   42.2680 C   0  0  0  0  0  0  0  0  0  0  0  0
   40.7830   30.2300   41.7240 O   0  0  0  0  0  0  0  0  0  0  0  0
   39.8870   32.4810   41.6200 N   0  0  0  0  0  0  0  0  0  0  0  0
   40.8600   32.4810   37.0350 H   0  0  0  0  0  0  0  0  0  0  0  0
   42.8520   34.9070   39.9250 H   0  0  0  0  0  0  0  0  0  0  0  0
   39.8010   30.8820   43.2420 H   0  0  0  0  0  0  0  0  0  0  0  0
   39.3260   33.1230   42.2050 H   0  0  0  0  0  0  0  0  0  0  0  0
  1  7  1  1  0  0  0
  1  6  1  0  0  0  0
  2  3  1  0  0  0  0
  2  1  1  0  0  0  0
  3  4  1  0  0  0  0
  3 10  1  0  0  0  0
  4  5  1  0  0  0  0
  5 12  1  0  0  0  0
  5  6  1  0  0  0  0
  6 14  1  1  0  0  0
  6 17  1  0  0  0  0
  8  2  1  0  0  0  0
  9  2  1  0  0  0  0
 11  3  1  0  0  0  0
 13  5  1  0  0  0  0
 15 16  1  0  0  0  0
 16 23  1  0  0  0  0
 17 18  1  0  0  0  0
 17 16  2  0  0  0  0
 18 20  2  0  0  0  0
 19 18  1  0  0  0  0
 20 21  1  0  0  0  0
 20 22  1  0  0  0  0
 23 22  2  0  0  0  0
 24  1  1  0  0  0  0
 26 24  1  0  0  0  0
 26 29  1  0  0  0  0
 26 25  2  1  0  0  0
 27 26  1  0  0  0  0
 28 27  1  0  0  0  0
 29 31  1  0  0  0  0
 30 35  1  0  0  0  0
 30 38  1  0  0  0  0
 31 30  2  0  0  0  0
 32 33  2  0  0  0  0
 32 31  1  0  0  0  0
 33 34  1  0  0  0  0
 34 40  1  0  0  0  0
 34 35  2  0  0  0  0
 36 41  1  0  0  0  0
 37 36  2  0  0  0  0
 38 42  1  0  0  0  0
 38 36  1  0  0  0  0
 39 32  1  0  0  0  0
M  END
>  <minimizedAffinity>
-6.03049278

$$$$

 OpenBabel03252507143D

 42 44  0  0  1  0  0  0  0  0999 V2000
   37.2440   29.0450   37.9760 C   0  0  2  0  0  0  0  0  0  0  0  0
   37.5310   27.9680   37.0040 C   0  0  0  0  0  0  0  0  0  0  0  0
   37.4030   26.6270   37.6630 C   0  0  0  0  0  0  0  0  0  0  0  0
   36.0900   26.3230   38.0120 O   0  0  0  0  0  0  0  0  0  0  0  0
   35.3710   27.4700   38.2610 C   0  0  0  0  0  0  0  0  0  0  0  0
   36.2160   28.5160   38.9610 C   0  0  1  0  0  0  0  0  0  0  0  0
   38.1790   29.2260   38.5780 H   0  0  0  0  0  0  0  0  0  0  0  0
   38.5370   28.0270   36.5390 H   0  0  0  0  0  0  0  0  0  0  0  0
   36.7980   27.9570   36.1520 H   0  0  0  0  0  0  0  0  0  0  0  0
   38.1540   26.3760   38.4080 H   0  0  0  0  0  0  0  0  0  0  0  0
   37.6430   25.8910   36.8130 H   0  0  0  0  0  0  0  0  0  0  0  0
   34.4510   27.2260   38.8210 H   0  0  0  0  0  0  0  0  0  0  0  0
   35.0150   27.9460   37.3070 H   0  0  0  0  0  0  0  0  0  0  0  0
   35.4840   29.3840   39.0520 H   0  0  0  0  0  0  0  0  0  0  0  0
   36.4060   30.5960   40.7350 F   0  0  0  0  0  0  0  0  0  0  0  0
   36.7110   29.3320   41.1820 C   0  0  0  0  0  0  0  0  0  0  0  0
   36.6160   28.2350   40.3060 C   0  0  0  0  0  0  0  0  0  0  0  0
   36.9580   27.0530   40.9230 C   0  0  0  0  0  0  0  0  0  0  0  0
   36.9250   26.1790   40.3260 H   0  0  0  0  0  0  0  0  0  0  0  0
   37.3520   26.8770   42.2220 C   0  0  0  0  0  0  0  0  0  0  0  0
   37.6010   25.9130   42.6220 H   0  0  0  0  0  0  0  0  0  0  0  0
   37.4250   27.9890   43.0340 C   0  0  0  0  0  3  0  0  0  0  0  0
   37.1000   29.2150   42.4980 C   0  0  0  0  0  3  0  0  0  0  0  0
   36.8980   30.2400   37.4730 O   0  0  0  0  0  0  0  0  0  0  0  0
   37.2370   32.6100   38.5500 O   0  0  0  0  0  0  0  0  0  0  0  0
   37.8750   31.5390   37.7550 P   0  0  2  0  0  0  0  0  0  0  0  0
   38.3030   32.2170   36.2520 O   0  0  0  0  0  0  0  0  0  0  0  0
   37.4740   32.5840   35.8320 H   0  0  0  0  0  0  0  0  0  0  0  0
   39.3430   31.0320   38.5050 O   0  0  0  0  0  0  0  0  0  0  0  0
   41.2210   31.8610   37.3440 C   0  0  0  0  0  0  0  0  0  0  0  0
   40.4810   30.7820   37.7690 C   0  0  0  0  0  0  0  0  0  0  0  0
   40.9230   29.4770   37.4310 C   0  0  0  0  0  0  0  0  0  0  0  0
   42.0520   29.3690   36.7070 N   0  0  0  0  0  0  0  0  0  0  0  0
   42.7460   30.4410   36.3120 C   0  0  0  0  0  0  0  0  0  0  0  0
   42.3110   31.6870   36.6420 N   0  0  0  0  0  0  0  0  0  0  0  0
   41.4580   33.9380   38.6970 C   0  0  0  0  0  0  0  0  0  0  0  0
   41.6650   33.3050   39.7890 O   0  0  0  0  0  0  0  0  0  0  0  0
   41.2150   33.2790   37.4060 N   0  0  0  0  0  0  0  0  0  0  0  0
   40.2920   28.6990   37.7990 H   0  0  0  0  0  0  0  0  0  0  0  0
   43.6560   30.3150   35.7280 H   0  0  0  0  0  0  0  0  0  0  0  0
   41.4910   34.9910   38.8850 H   0  0  0  0  0  0  0  0  0  0  0  0
   41.0530   33.9510   36.6380 H   0  0  0  0  0  0  0  0  0  0  0  0
  1  7  1  1  0  0  0
  1  6  1  0  0  0  0
  2  3  1  0  0  0  0
  2  1  1  0  0  0  0
  3  4  1  0  0  0  0
  3 10  1  0  0  0  0
  4  5  1  0  0  0  0
  5 12  1  0  0  0  0
  5  6  1  0  0  0  0
  6 14  1  1  0  0  0
  6 17  1  0  0  0  0
  8  2  1  0  0  0  0
  9  2  1  0  0  0  0
 11  3  1  0  0  0  0
 13  5  1  0  0  0  0
 15 16  1  0  0  0  0
 16 23  1  0  0  0  0
 17 18  1  0  0  0  0
 17 16  2  0  0  0  0
 18 20  2  0  0  0  0
 19 18  1  0  0  0  0
 20 21  1  0  0  0  0
 20 22  1  0  0  0  0
 23 22  2  0  0  0  0
 24 26  1  0  0  0  0
 24  1  1  0  0  0  0
 26 29  1  0  0  0  0
 26 25  2  1  0  0  0
 27 26  1  0  0  0  0
 28 27  1  0  0  0  0
 30 38  1  0  0  0  0
 30 31  1  0  0  0  0
 31 29  1  0  0  0  0
 32 31  2  0  0  0  0
 32 39  1  0  0  0  0
 33 32  1  0  0  0  0
 34 35  1  0  0  0  0
 34 33  2  0  0  0  0
 35 30  2  0  0  0  0
 36 41  1  0  0  0  0
 36 37  2  0  0  0  0
 38 36  1  0  0  0  0
 40 34  1  0  0  0  0
 42 38  1  0  0  0  0
M  END
>  <minimizedAffinity>
-5.98901224

$$$$

 OpenBabel03252507143D

 42 44  0  0  1  0  0  0  0  0999 V2000
   36.9780   30.5260   40.1080 C   0  0  2  0  0  0  0  0  0  0  0  0
   36.5410   30.3440   38.7070 C   0  0  0  0  0  0  0  0  0  0  0  0
   36.2020   28.9050   38.4520 C   0  0  0  0  0  0  0  0  0  0  0  0
   35.0640   28.4920   39.1380 O   0  0  0  0  0  0  0  0  0  0  0  0
   34.9010   29.2150   40.2970 C   0  0  0  0  0  0  0  0  0  0  0  0
   36.2300   29.5140   40.9600 C   0  0  1  0  0  0  0  0  0  0  0  0
   38.0640   30.2350   40.1720 H   0  0  0  0  0  0  0  0  0  0  0  0
   37.2870   30.6600   37.9500 H   0  0  0  0  0  0  0  0  0  0  0  0
   35.6040   30.9200   38.4750 H   0  0  0  0  0  0  0  0  0  0  0  0
   37.0320   28.2020   38.4550 H   0  0  0  0  0  0  0  0  0  0  0  0
   35.8800   28.9020   37.3490 H   0  0  0  0  0  0  0  0  0  0  0  0
   34.1990   28.6940   40.9730 H   0  0  0  0  0  0  0  0  0  0  0  0
   34.4230   30.2130   40.0940 H   0  0  0  0  0  0  0  0  0  0  0  0
   35.9080   30.1330   41.8600 H   0  0  0  0  0  0  0  0  0  0  0  0
   38.1180   30.0020   42.8860 F   0  0  0  0  0  0  0  0  0  0  0  0
   37.9110   28.7000   42.4950 C   0  0  0  0  0  0  0  0  0  0  0  0
   36.9430   28.4050   41.5160 C   0  0  0  0  0  0  0  0  0  0  0  0
   36.8740   27.0570   41.2510 C   0  0  0  0  0  0  0  0  0  0  0  0
   36.1770   26.7530   40.5140 H   0  0  0  0  0  0  0  0  0  0  0  0
   37.6150   26.0580   41.8220 C   0  0  0  0  0  0  0  0  0  0  0  0
   37.4940   25.0260   41.5540 H   0  0  0  0  0  0  0  0  0  0  0  0
   38.5480   26.4070   42.7770 C   0  0  0  0  0  3  0  0  0  0  0  0
   38.6840   27.7370   43.1040 C   0  0  0  0  0  3  0  0  0  0  0  0
   36.9030   31.7670   40.6110 O   0  0  0  0  0  0  0  0  0  0  0  0
   38.6690   33.6610   41.0440 O   0  0  0  0  0  0  0  0  0  0  0  0
   37.9020   32.9350   40.0100 P   0  0  2  0  0  0  0  0  0  0  0  0
   36.9450   34.0840   39.1950 O   0  0  0  0  0  0  0  0  0  0  0  0
   36.3670   34.5400   39.8720 H   0  0  0  0  0  0  0  0  0  0  0  0
   38.9710   32.2610   38.8360 O   0  0  0  0  0  0  0  0  0  0  0  0
   40.9170   31.2160   39.6610 C   0  0  0  0  0  0  0  0  0  0  0  0
   40.3390   32.2800   39.0090 C   0  0  0  0  0  0  0  0  0  0  0  0
   41.1700   33.3340   38.5510 C   0  0  0  0  0  0  0  0  0  0  0  0
   42.4920   33.2310   38.7830 N   0  0  0  0  0  0  0  0  0  0  0  0
   43.0190   32.1820   39.4200 C   0  0  0  0  0  0  0  0  0  0  0  0
   42.2110   31.1780   39.8550 N   0  0  0  0  0  0  0  0  0  0  0  0
   40.0670   28.8870   39.4420 C   0  0  0  0  0  0  0  0  0  0  0  0
   39.9260   28.9660   38.1730 O   0  0  0  0  0  0  0  0  0  0  0  0
   40.5590   29.9900   40.2780 N   0  0  0  0  0  0  0  0  0  0  0  0
   40.6410   34.1180   38.0570 H   0  0  0  0  0  0  0  0  0  0  0  0
   44.0940   32.1320   39.5900 H   0  0  0  0  0  0  0  0  0  0  0  0
   39.7720   27.9120   39.7720 H   0  0  0  0  0  0  0  0  0  0  0  0
   40.5900   29.7470   41.2830 H   0  0  0  0  0  0  0  0  0  0  0  0
  1  7  1  1  0  0  0
  1 24  1  0  0  0  0
  1  6  1  0  0  0  0
  2  1  1  0  0  0  0
  3 10  1  0  0  0  0
  3  2  1  0  0  0  0
  3  4  1  0  0  0  0
  4  5  1  0  0  0  0
  5  6  1  0  0  0  0
  5 12  1  0  0  0  0
  6 17  1  0  0  0  0
  6 14  1  1  0  0  0
  8  2  1  0  0  0  0
  9  2  1  0  0  0  0
 11  3  1  0  0  0  0
 13  5  1  0  0  0  0
 16 15  1  0  0  0  0
 16 23  1  0  0  0  0
 17 16  2  0  0  0  0
 18 17  1  0  0  0  0
 18 20  2  0  0  0  0
 19 18  1  0  0  0  0
 20 22  1  0  0  0  0
 21 20  1  0  0  0  0
 22 23  2  0  0  0  0
 26 24  1  0  0  0  0
 26 25  2  1  0  0  0
 27 28  1  0  0  0  0
 27 26  1  0  0  0  0
 29 31  1  0  0  0  0
 29 26  1  0  0  0  0
 30 35  1  0  0  0  0
 30 38  1  0  0  0  0
 31 30  2  0  0  0  0
 32 33  2  0  0  0  0
 32 31  1  0  0  0  0
 33 34  1  0  0  0  0
 34 40  1  0  0  0  0
 34 35  2  0  0  0  0
 36 41  1  0  0  0  0
 36 38  1  0  0  0  0
 37 36  2  0  0  0  0
 38 42  1  0  0  0  0
 39 32  1  0  0  0  0
M  END
>  <minimizedAffinity>
-5.95707846

$$$$

 OpenBabel03252507143D

 42 44  0  0  1  0  0  0  0  0999 V2000
   38.1960   31.0400   39.3700 C   0  0  2  0  0  0  0  0  0  0  0  0
   36.9300   31.0080   38.6060 C   0  0  0  0  0  0  0  0  0  0  0  0
   36.0740   29.8670   39.0690 C   0  0  0  0  0  0  0  0  0  0  0  0
   35.5950   30.0460   40.3640 O   0  0  0  0  0  0  0  0  0  0  0  0
   36.4590   30.8210   41.1030 C   0  0  0  0  0  0  0  0  0  0  0  0
   37.9050   30.5190   40.7660 C   0  0  1  0  0  0  0  0  0  0  0  0
   38.9000   30.2930   38.9050 H   0  0  0  0  0  0  0  0  0  0  0  0
   37.0600   30.9160   37.5080 H   0  0  0  0  0  0  0  0  0  0  0  0
   36.3120   31.9330   38.7660 H   0  0  0  0  0  0  0  0  0  0  0  0
   36.4290   28.8660   38.8360 H   0  0  0  0  0  0  0  0  0  0  0  0
   35.1370   29.9560   38.4090 H   0  0  0  0  0  0  0  0  0  0  0  0
   36.2420   30.7070   42.1800 H   0  0  0  0  0  0  0  0  0  0  0  0
   36.3130   31.9150   40.8910 H   0  0  0  0  0  0  0  0  0  0  0  0
   38.4590   31.2590   41.4320 H   0  0  0  0  0  0  0  0  0  0  0  0
   38.7200   30.1540   43.3580 F   0  0  0  0  0  0  0  0  0  0  0  0
   38.8250   29.0930   42.4890 C   0  0  0  0  0  0  0  0  0  0  0  0
   38.4080   29.2360   41.1520 C   0  0  0  0  0  0  0  0  0  0  0  0
   38.5870   28.0770   40.4320 C   0  0  0  0  0  0  0  0  0  0  0  0
   38.3090   28.1050   39.4110 H   0  0  0  0  0  0  0  0  0  0  0  0
   39.0980   26.8900   40.8810 C   0  0  0  0  0  0  0  0  0  0  0  0
   39.2020   26.0310   40.2450 H   0  0  0  0  0  0  0  0  0  0  0  0
   39.4890   26.8090   42.2010 C   0  0  0  0  0  3  0  0  0  0  0  0
   39.3460   27.9240   42.9960 C   0  0  0  0  0  3  0  0  0  0  0  0
   38.8630   32.2050   39.3910 O   0  0  0  0  0  0  0  0  0  0  0  0
   40.8830   33.6770   38.5920 O   0  0  0  0  0  0  0  0  0  0  0  0
   40.1810   32.3890   38.4160 P   0  0  2  0  0  0  0  0  0  0  0  0
   39.6560   32.3200   36.7970 O   0  0  0  0  0  0  0  0  0  0  0  0
   39.0760   33.1160   36.6260 H   0  0  0  0  0  0  0  0  0  0  0  0
   41.2770   31.0760   38.6360 O   0  0  0  0  0  0  0  0  0  0  0  0
   42.8870   31.2520   36.9230 C   0  0  0  0  0  0  0  0  0  0  0  0
   41.9370   30.4990   37.5720 C   0  0  0  0  0  0  0  0  0  0  0  0
   41.6850   29.1780   37.1190 C   0  0  0  0  0  0  0  0  0  0  0  0
   42.4000   28.7340   36.0690 N   0  0  0  0  0  0  0  0  0  0  0  0
   43.3170   29.4940   35.4630 C   0  0  0  0  0  0  0  0  0  0  0  0
   43.5480   30.7580   35.9070 N   0  0  0  0  0  0  0  0  0  0  0  0
   44.3420   32.8860   38.1110 C   0  0  0  0  0  0  0  0  0  0  0  0
   44.5900   32.0910   39.0820 O   0  0  0  0  0  0  0  0  0  0  0  0
   43.4780   32.5410   36.9740 N   0  0  0  0  0  0  0  0  0  0  0  0
   40.9350   28.6660   37.6770 H   0  0  0  0  0  0  0  0  0  0  0  0
   43.8760   29.1000   34.6160 H   0  0  0  0  0  0  0  0  0  0  0  0
   44.8560   33.8120   38.2710 H   0  0  0  0  0  0  0  0  0  0  0  0
   43.3820   33.3150   36.2950 H   0  0  0  0  0  0  0  0  0  0  0  0
  1  7  1  6  0  0  0
  1 24  1  0  0  0  0
  1  6  1  0  0  0  0
  2  9  1  0  0  0  0
  2  3  1  0  0  0  0
  2  1  1  0  0  0  0
  3  4  1  0  0  0  0
  4  5  1  0  0  0  0
  5 12  1  0  0  0  0
  6  5  1  0  0  0  0
  6 17  1  0  0  0  0
  6 14  1  1  0  0  0
  8  2  1  0  0  0  0
 10  3  1  0  0  0  0
 11  3  1  0  0  0  0
 13  5  1  0  0  0  0
 16 23  1  0  0  0  0
 16 15  1  0  0  0  0
 17 16  2  0  0  0  0
 18 20  2  0  0  0  0
 18 17  1  0  0  0  0
 19 18  1  0  0  0  0
 20 22  1  0  0  0  0
 21 20  1  0  0  0  0
 22 23  2  0  0  0  0
 26 25  2  1  0  0  0
 26 29  1  0  0  0  0
 26 24  1  0  0  0  0
 27 26  1  0  0  0  0
 28 27  1  0  0  0  0
 30 38  1  0  0  0  0
 30 31  1  0  0  0  0
 31 29  1  0  0  0  0
 32 31  2  0  0  0  0
 32 39  1  0  0  0  0
 33 32  1  0  0  0  0
 34 35  1  0  0  0  0
 34 33  2  0  0  0  0
 35 30  2  0  0  0  0
 36 41  1  0  0  0  0
 36 37  2  0  0  0  0
 38 36  1  0  0  0  0
 40 34  1  0  0  0  0
 42 38  1  0  0  0  0
M  END
>  <minimizedAffinity>
-5.93119335

$$$$

 OpenBabel03252507143D

 42 44  0  0  1  0  0  0  0  0999 V2000
   37.7310   28.9750   41.6990 C   0  0  2  0  0  0  0  0  0  0  0  0
   36.7850   28.1230   40.9480 C   0  0  0  0  0  0  0  0  0  0  0  0
   37.0230   26.6770   41.2660 C   0  0  0  0  0  0  0  0  0  0  0  0
   36.6850   26.3530   42.5770 O   0  0  0  0  0  0  0  0  0  0  0  0
   36.8260   27.4440   43.4040 C   0  0  0  0  0  0  0  0  0  0  0  0
   38.0270   28.2840   43.0190 C   0  0  1  0  0  0  0  0  0  0  0  0
   38.7070   28.9880   41.1360 H   0  0  0  0  0  0  0  0  0  0  0  0
   36.8340   28.2440   39.8460 H   0  0  0  0  0  0  0  0  0  0  0  0
   35.7150   28.3220   41.2320 H   0  0  0  0  0  0  0  0  0  0  0  0
   37.9530   26.2450   40.9020 H   0  0  0  0  0  0  0  0  0  0  0  0
   36.2340   26.1330   40.6320 H   0  0  0  0  0  0  0  0  0  0  0  0
   36.8570   27.1180   44.4580 H   0  0  0  0  0  0  0  0  0  0  0  0
   35.9350   28.1270   43.3360 H   0  0  0  0  0  0  0  0  0  0  0  0
   37.9650   29.1380   43.7700 H   0  0  0  0  0  0  0  0  0  0  0  0
   40.2330   29.9020   42.8490 F   0  0  0  0  0  0  0  0  0  0  0  0
   40.4260   28.5690   43.1250 C   0  0  0  0  0  0  0  0  0  0  0  0
   39.3190   27.7060   43.2310 C   0  0  0  0  0  0  0  0  0  0  0  0
   39.7000   26.4130   43.5100 C   0  0  0  0  0  0  0  0  0  0  0  0
   38.9250   25.6970   43.5930 H   0  0  0  0  0  0  0  0  0  0  0  0
   40.9730   25.9400   43.6800 C   0  0  0  0  0  0  0  0  0  0  0  0
   41.1800   24.9100   43.8970 H   0  0  0  0  0  0  0  0  0  0  0  0
   42.0180   26.8330   43.5650 C   0  0  0  0  0  3  0  0  0  0  0  0
   41.7270   28.1490   43.2860 C   0  0  0  0  0  3  0  0  0  0  0  0
   37.3890   30.2620   41.8650 O   0  0  0  0  0  0  0  0  0  0  0  0
   39.0540   32.1880   41.2250 O   0  0  0  0  0  0  0  0  0  0  0  0
   37.9090   31.3760   40.7640 P   0  0  2  0  0  0  0  0  0  0  0  0
   36.6250   32.4500   40.4510 O   0  0  0  0  0  0  0  0  0  0  0  0
   36.4380   32.9610   41.2900 H   0  0  0  0  0  0  0  0  0  0  0  0
   38.2860   30.6060   39.2670 O   0  0  0  0  0  0  0  0  0  0  0  0
   40.5280   29.9910   38.8790 C   0  0  0  0  0  0  0  0  0  0  0  0
   39.4780   30.8390   38.6160 C   0  0  0  0  0  0  0  0  0  0  0  0
   39.6720   31.9010   37.6950 C   0  0  0  0  0  0  0  0  0  0  0  0
   40.8860   32.0180   37.1260 N   0  0  0  0  0  0  0  0  0  0  0  0
   41.8840   31.1750   37.4060 C   0  0  0  0  0  0  0  0  0  0  0  0
   41.6850   30.1610   38.2900 N   0  0  0  0  0  0  0  0  0  0  0  0
   40.2090   27.5660   39.3410 C   0  0  0  0  0  0  0  0  0  0  0  0
   39.3740   27.4060   38.3850 O   0  0  0  0  0  0  0  0  0  0  0  0
   40.8400   28.8520   39.6660 N   0  0  0  0  0  0  0  0  0  0  0  0
   38.8080   32.5090   37.5500 H   0  0  0  0  0  0  0  0  0  0  0  0
   42.8520   31.3000   36.9250 H   0  0  0  0  0  0  0  0  0  0  0  0
   40.3600   26.6310   39.8410 H   0  0  0  0  0  0  0  0  0  0  0  0
   41.4740   28.7930   40.4800 H   0  0  0  0  0  0  0  0  0  0  0  0
  1  7  1  6  0  0  0
  1 24  1  0  0  0  0
  1  6  1  0  0  0  0
  2  9  1  0  0  0  0
  2  3  1  0  0  0  0
  2  1  1  0  0  0  0
  3  4  1  0  0  0  0
  4  5  1  0  0  0  0
  5 12  1  0  0  0  0
  6 17  1  0  0  0  0
  6  5  1  0  0  0  0
  6 14  1  1  0  0  0
  8  2  1  0  0  0  0
 10  3  1  0  0  0  0
 11  3  1  0  0  0  0
 13  5  1  0  0  0  0
 15 16  1  0  0  0  0
 16 17  2  0  0  0  0
 16 23  1  0  0  0  0
 17 18  1  0  0  0  0
 18 19  1  0  0  0  0
 18 20  2  0  0  0  0
 20 21  1  0  0  0  0
 22 20  1  0  0  0  0
 23 22  2  0  0  0  0
 26 25  2  1  0  0  0
 26 24  1  0  0  0  0
 27 26  1  0  0  0  0
 27 28  1  0  0  0  0
 29 26  1  0  0  0  0
 30 38  1  0  0  0  0
 31 30  1  0  0  0  0
 31 29  1  0  0  0  0
 32 31  2  0  0  0  0
 33 34  2  0  0  0  0
 33 32  1  0  0  0  0
 34 35  1  0  0  0  0
 35 30  2  0  0  0  0
 36 38  1  0  0  0  0
 36 41  1  0  0  0  0
 37 36  2  0  0  0  0
 38 42  1  0  0  0  0
 39 32  1  0  0  0  0
 40 34  1  0  0  0  0
M  END
>  <minimizedAffinity>
-5.79895163

$$$$

 OpenBabel03252507143D

 42 44  0  0  1  0  0  0  0  0999 V2000
   38.2660   28.3600   42.2270 C   0  0  2  0  0  0  0  0  0  0  0  0
   37.8980   27.9210   43.5910 C   0  0  0  0  0  0  0  0  0  0  0  0
   36.5260   27.3170   43.5890 C   0  0  0  0  0  0  0  0  0  0  0  0
   36.4720   26.1080   42.9000 O   0  0  0  0  0  0  0  0  0  0  0  0
   37.4250   26.0670   41.9090 C   0  0  0  0  0  0  0  0  0  0  0  0
   37.5960   27.4170   41.2430 C   0  0  1  0  0  0  0  0  0  0  0  0
   37.7970   29.3690   42.0500 H   0  0  0  0  0  0  0  0  0  0  0  0
   37.9170   28.7280   44.3520 H   0  0  0  0  0  0  0  0  0  0  0  0
   38.5820   27.1160   43.9770 H   0  0  0  0  0  0  0  0  0  0  0  0
   35.6950   27.9950   43.4090 H   0  0  0  0  0  0  0  0  0  0  0  0
   36.3670   27.0200   44.6880 H   0  0  0  0  0  0  0  0  0  0  0  0
   37.1850   25.2660   41.1870 H   0  0  0  0  0  0  0  0  0  0  0  0
   38.4340   25.7930   42.3210 H   0  0  0  0  0  0  0  0  0  0  0  0
   38.4270   27.2040   40.4930 H   0  0  0  0  0  0  0  0  0  0  0  0
   37.1690   26.2860   38.7830 F   0  0  0  0  0  0  0  0  0  0  0  0
   36.3260   27.2930   39.1890 C   0  0  0  0  0  0  0  0  0  0  0  0
   36.5040   27.8930   40.4500 C   0  0  0  0  0  0  0  0  0  0  0  0
   35.5730   28.8780   40.6860 C   0  0  0  0  0  0  0  0  0  0  0  0
   35.6470   29.3890   41.6110 H   0  0  0  0  0  0  0  0  0  0  0  0
   34.5650   29.2860   39.8560 C   0  0  0  0  0  0  0  0  0  0  0  0
   33.8790   30.0670   40.1230 H   0  0  0  0  0  0  0  0  0  0  0  0
   34.4390   28.6610   38.6330 C   0  0  0  0  0  3  0  0  0  0  0  0
   35.3300   27.6620   38.3130 C   0  0  0  0  0  3  0  0  0  0  0  0
   39.5740   28.5160   41.9710 O   0  0  0  0  0  0  0  0  0  0  0  0
   41.5420   30.0290   42.8250 O   0  0  0  0  0  0  0  0  0  0  0  0
   40.2430   30.0170   42.1200 P   0  0  2  0  0  0  0  0  0  0  0  0
   39.1730   30.9880   43.0210 O   0  0  0  0  0  0  0  0  0  0  0  0
   39.1260   30.6170   43.9480 H   0  0  0  0  0  0  0  0  0  0  0  0
   40.3990   30.7590   40.5710 O   0  0  0  0  0  0  0  0  0  0  0  0
   38.3640   31.6980   39.8360 C   0  0  0  0  0  0  0  0  0  0  0  0
   39.3590   30.7640   39.6650 C   0  0  0  0  0  0  0  0  0  0  0  0
   39.2680   29.8610   38.5740 C   0  0  0  0  0  0  0  0  0  0  0  0
   38.2010   29.9720   37.7620 N   0  0  0  0  0  0  0  0  0  0  0  0
   37.2530   30.8930   37.9580 C   0  0  0  0  0  0  0  0  0  0  0  0
   37.3530   31.7520   39.0080 N   0  0  0  0  0  0  0  0  0  0  0  0
   38.8100   33.9850   40.7140 C   0  0  0  0  0  0  0  0  0  0  0  0
   39.8440   34.1580   39.9810 O   0  0  0  0  0  0  0  0  0  0  0  0
   38.0020   32.7580   40.7070 N   0  0  0  0  0  0  0  0  0  0  0  0
   40.0790   29.1720   38.5160 H   0  0  0  0  0  0  0  0  0  0  0  0
   36.4040   30.9530   37.2800 H   0  0  0  0  0  0  0  0  0  0  0  0
   38.6460   34.8600   41.3090 H   0  0  0  0  0  0  0  0  0  0  0  0
   37.2150   32.7940   41.3760 H   0  0  0  0  0  0  0  0  0  0  0  0
  1  7  1  6  0  0  0
  1  2  1  0  0  0  0
  2  9  1  0  0  0  0
  2  8  1  0  0  0  0
  3  2  1  0  0  0  0
  3 11  1  0  0  0  0
  4  3  1  0  0  0  0
  5 13  1  0  0  0  0
  5  4  1  0  0  0  0
  6 14  1  6  0  0  0
  6  5  1  0  0  0  0
  6  1  1  0  0  0  0
 10  3  1  0  0  0  0
 12  5  1  0  0  0  0
 15 16  1  0  0  0  0
 16 17  1  0  0  0  0
 17 18  2  0  0  0  0
 17  6  1  0  0  0  0
 18 19  1  0  0  0  0
 20 21  1  0  0  0  0
 20 18  1  0  0  0  0
 22 20  2  0  0  0  0
 23 22  1  0  0  0  0
 23 16  2  0  0  0  0
 24 26  1  0  0  0  0
 24  1  1  0  0  0  0
 26 25  2  1  0  0  0
 26 27  1  0  0  0  0
 27 28  1  0  0  0  0
 29 26  1  0  0  0  0
 30 38  1  0  0  0  0
 31 30  1  0  0  0  0
 31 29  1  0  0  0  0
 32 31  2  0  0  0  0
 33 34  2  0  0  0  0
 33 32  1  0  0  0  0
 34 35  1  0  0  0  0
 35 30  2  0  0  0  0
 36 41  1  0  0  0  0
 37 36  2  0  0  0  0
 38 36  1  0  0  0  0
 38 42  1  0  0  0  0
 39 32  1  0  0  0  0
 40 34  1  0  0  0  0
M  END
>  <minimizedAffinity>
-5.79799223

$$$$

 OpenBabel03252507143D

 42 44  0  0  1  0  0  0  0  0999 V2000
   38.2410   28.5790   42.3430 C   0  0  2  0  0  0  0  0  0  0  0  0
   37.8210   28.1060   43.6800 C   0  0  0  0  0  0  0  0  0  0  0  0
   36.4990   27.4050   43.5900 C   0  0  0  0  0  0  0  0  0  0  0  0
   36.5760   26.2000   42.8980 O   0  0  0  0  0  0  0  0  0  0  0  0
   37.5900   26.2330   41.9680 C   0  0  0  0  0  0  0  0  0  0  0  0
   37.7050   27.5960   41.3170 C   0  0  1  0  0  0  0  0  0  0  0  0
   37.7130   29.5530   42.1380 H   0  0  0  0  0  0  0  0  0  0  0  0
   37.7340   28.9080   44.4420 H   0  0  0  0  0  0  0  0  0  0  0  0
   38.5350   27.3500   44.1080 H   0  0  0  0  0  0  0  0  0  0  0  0
   35.6340   28.0230   43.3590 H   0  0  0  0  0  0  0  0  0  0  0  0
   36.2930   27.0900   44.6770 H   0  0  0  0  0  0  0  0  0  0  0  0
   37.4540   25.4210   41.2310 H   0  0  0  0  0  0  0  0  0  0  0  0
   38.5880   26.0310   42.4440 H   0  0  0  0  0  0  0  0  0  0  0  0
   38.5940   27.4480   40.6210 H   0  0  0  0  0  0  0  0  0  0  0  0
   37.5450   26.4900   38.8140 F   0  0  0  0  0  0  0  0  0  0  0  0
   36.5940   27.4130   39.1770 C   0  0  0  0  0  0  0  0  0  0  0  0
   36.6330   27.9980   40.4570 C   0  0  0  0  0  0  0  0  0  0  0  0
   35.6070   28.8950   40.6440 C   0  0  0  0  0  0  0  0  0  0  0  0
   35.5740   29.3890   41.5800 H   0  0  0  0  0  0  0  0  0  0  0  0
   34.6280   29.2360   39.7510 C   0  0  0  0  0  0  0  0  0  0  0  0
   33.8610   29.9510   39.9830 H   0  0  0  0  0  0  0  0  0  0  0  0
   34.6400   28.6310   38.5130 C   0  0  0  0  0  3  0  0  0  0  0  0
   35.6330   27.7180   38.2390 C   0  0  0  0  0  3  0  0  0  0  0  0
   39.5480   28.8310   42.1700 O   0  0  0  0  0  0  0  0  0  0  0  0
   40.7110   31.1120   42.7480 O   0  0  0  0  0  0  0  0  0  0  0  0
   40.0150   30.3410   41.6970 P   0  0  2  0  0  0  0  0  0  0  0  0
   38.6190   31.2180   41.2710 O   0  0  0  0  0  0  0  0  0  0  0  0
   38.0720   31.3480   42.0970 H   0  0  0  0  0  0  0  0  0  0  0  0
   40.9920   30.2470   40.2790 O   0  0  0  0  0  0  0  0  0  0  0  0
   40.7100   31.3170   38.1970 C   0  0  0  0  0  0  0  0  0  0  0  0
   41.2100   31.3480   39.4780 C   0  0  0  0  0  0  0  0  0  0  0  0
   41.9180   32.5000   39.9070 C   0  0  0  0  0  0  0  0  0  0  0  0
   42.0600   33.5070   39.0260 N   0  0  0  0  0  0  0  0  0  0  0  0
   41.5600   33.4430   37.7890 C   0  0  0  0  0  0  0  0  0  0  0  0
   40.8840   32.3330   37.3900 N   0  0  0  0  0  0  0  0  0  0  0  0
   38.5660   30.1910   37.6220 C   0  0  0  0  0  0  0  0  0  0  0  0
   37.9420   30.6740   38.6290 O   0  0  0  0  0  0  0  0  0  0  0  0
   39.9800   30.4620   37.3310 N   0  0  0  0  0  0  0  0  0  0  0  0
   42.2700   32.4400   40.9120 H   0  0  0  0  0  0  0  0  0  0  0  0
   41.6940   34.2780   37.1040 H   0  0  0  0  0  0  0  0  0  0  0  0
   37.8980   29.5770   37.0520 H   0  0  0  0  0  0  0  0  0  0  0  0
   40.3160   29.9730   36.4850 H   0  0  0  0  0  0  0  0  0  0  0  0
  1  7  1  6  0  0  0
  1  2  1  0  0  0  0
  2  9  1  0  0  0  0
  2  8  1  0  0  0  0
  3  2  1  0  0  0  0
  3 11  1  0  0  0  0
  4  3  1  0  0  0  0
  5 13  1  0  0  0  0
  5  4  1  0  0  0  0
  6 14  1  6  0  0  0
  6  5  1  0  0  0  0
  6  1  1  0  0  0  0
 10  3  1  0  0  0  0
 12  5  1  0  0  0  0
 15 16  1  0  0  0  0
 16 17  1  0  0  0  0
 17 18  2  0  0  0  0
 17  6  1  0  0  0  0
 18 19  1  0  0  0  0
 20 21  1  0  0  0  0
 20 18  1  0  0  0  0
 22 20  2  0  0  0  0
 23 22  1  0  0  0  0
 23 16  2  0  0  0  0
 24  1  1  0  0  0  0
 26 24  1  0  0  0  0
 26 25  2  1  0  0  0
 27 26  1  0  0  0  0
 27 28  1  0  0  0  0
 29 26  1  0  0  0  0
 30 31  1  0  0  0  0
 31 32  2  0  0  0  0
 31 29  1  0  0  0  0
 32 39  1  0  0  0  0
 33 32  1  0  0  0  0
 34 33  2  0  0  0  0
 35 34  1  0  0  0  0
 35 30  2  0  0  0  0
 36 37  2  0  0  0  0
 38 36  1  0  0  0  0
 38 30  1  0  0  0  0
 40 34  1  0  0  0  0
 41 36  1  0  0  0  0
 42 38  1  0  0  0  0
M  END
>  <minimizedAffinity>
-5.65074492

$$$$
