
 OpenBabel03252501093D

 40 43  0  0  1  0  0  0  0  0999 V2000
   34.9400   28.8960   40.4090 O   0  0  0  0  0  0  0  0  0  0  0  0
   36.1900   29.6080   40.9250 P   0  0  2  0  0  0  0  0  0  0  0  0
   35.6990   31.1640   41.3640 O   0  0  0  0  0  0  0  0  0  0  0  0
   36.3530   31.5650   42.0020 H   0  0  0  0  0  0  0  0  0  0  0  0
   37.4210   29.5510   39.8460 O   0  0  0  0  0  0  0  0  0  0  0  0
   37.3570   30.8210   37.7850 C   0  0  1  0  0  0  0  0  0  0  0  0
   38.2460   29.7010   37.4850 C   0  0  0  0  0  0  0  0  0  0  0  0
   37.1230   29.5840   38.5290 C   0  0  1  0  0  0  0  0  0  0  0  0
   36.5670   31.1510   37.1060 H   0  0  0  0  0  0  0  0  0  0  0  0
   39.2420   29.5730   37.9330 H   0  0  0  0  0  0  0  0  0  0  0  0
   38.1140   29.2210   36.4980 H   0  0  0  0  0  0  0  0  0  0  0  0
   36.3740   28.8400   38.2010 H   0  0  0  0  0  0  0  0  0  0  0  0
   39.9290   33.1190   39.3420 C   0  0  0  0  0  0  0  0  0  0  0  0
   39.3910   32.0630   38.6100 C   0  0  0  0  0  0  0  0  0  0  0  0
   37.9900   31.9460   38.5530 C   0  0  0  0  0  0  0  0  0  0  0  0
   37.2160   32.8630   39.2110 N   0  0  0  0  0  0  0  0  0  0  0  0
   37.7900   33.8730   39.9080 C   0  0  0  0  0  0  0  0  0  0  0  0
   39.1420   34.0000   39.9730 N   0  0  0  0  0  0  0  0  0  0  0  0
   40.9940   33.2720   39.4290 H   0  0  0  0  0  0  0  0  0  0  0  0
   40.0220   31.3600   38.1060 H   0  0  0  0  0  0  0  0  0  0  0  0
   36.9600   34.4420   40.3140 H   0  0  0  0  0  0  0  0  0  0  0  0
   36.5880   28.7950   42.3370 O   0  0  0  0  0  0  0  0  0  0  0  0
   37.6490   27.9030   42.4610 C   0  0  0  0  0  0  0  0  0  0  0  0
   38.7660   28.0450   43.2590 C   0  0  0  0  0  0  0  0  0  0  0  0
   39.7300   27.0620   43.2630 C   0  0  0  0  0  0  0  0  0  0  0  0
   39.5910   25.9450   42.4850 C   0  0  0  0  0  0  0  0  0  0  0  0
   38.4500   25.8470   41.7010 C   0  0  0  0  0  0  0  0  0  0  0  0
   37.5050   26.8100   41.6960 N   0  0  0  0  0  0  0  0  0  0  0  0
   38.7560   28.9690   43.8220 H   0  0  0  0  0  0  0  0  0  0  0  0
   40.5520   27.3210   43.9460 H   0  0  0  0  0  0  0  0  0  0  0  0
   40.4320   25.3140   42.6210 H   0  0  0  0  0  0  0  0  0  0  0  0
   36.2000   23.9820   41.5790 F   0  0  0  0  0  0  0  0  0  0  0  0
   37.2840   23.7980   40.8010 C   0  0  0  0  0  0  0  0  0  0  0  0
   38.3300   24.6710   40.8600 C   0  0  0  0  0  0  0  0  0  0  0  0
   39.3640   24.3780   40.0010 C   0  0  0  0  0  0  0  0  0  0  0  0
   40.2470   24.9900   39.9540 H   0  0  0  0  0  0  0  0  0  0  0  0
   39.3320   23.2950   39.1620 C   0  0  0  0  0  0  0  0  0  0  0  0
   40.0720   22.9580   38.4530 H   0  0  0  0  0  0  0  0  0  0  0  0
   38.2550   22.4340   39.1320 C   0  0  0  0  0  3  0  0  0  0  0  0
   37.1760   22.6910   39.9880 C   0  0  0  0  0  3  0  0  0  0  0  0
  2  1  2  6  0  0  0
  2  3  1  0  0  0  0
  2 22  1  0  0  0  0
  3  4  1  0  0  0  0
  5  2  1  0  0  0  0
  6  9  1  6  0  0  0
  6  8  1  0  0  0  0
  6 15  1  0  0  0  0
  7  6  1  0  0  0  0
  7 10  1  0  0  0  0
  7  8  1  0  0  0  0
  8 12  1  6  0  0  0
  8  5  1  0  0  0  0
 11  7  1  0  0  0  0
 13 19  1  0  0  0  0
 13 18  1  0  0  0  0
 14 13  2  0  0  0  0
 15 14  1  0  0  0  0
 15 16  2  0  0  0  0
 16 17  1  0  0  0  0
 17 18  2  0  0  0  0
 17 21  1  0  0  0  0
 20 14  1  0  0  0  0
 22 23  1  0  0  0  0
 23 24  1  0  0  0  0
 24 25  2  0  0  0  0
 24 29  1  0  0  0  0
 25 30  1  0  0  0  0
 26 31  1  0  0  0  0
 26 25  1  0  0  0  0
 27 26  2  0  0  0  0
 28 27  1  0  0  0  0
 28 23  2  0  0  0  0
 33 34  1  0  0  0  0
 33 32  1  0  0  0  0
 34 27  1  0  0  0  0
 35 34  2  0  0  0  0
 36 35  1  0  0  0  0
 37 35  1  0  0  0  0
 38 37  1  0  0  0  0
 39 37  2  0  0  0  0
 39 40  1  0  0  0  0
 40 33  2  0  0  0  0
M  END
>  <minimizedAffinity>
-6.27280617

$$$$

 OpenBabel03252501093D

 40 43  0  0  1  0  0  0  0  0999 V2000
   36.5410   30.1810   39.0350 O   0  0  0  0  0  0  0  0  0  0  0  0
   37.0580   30.9280   40.2630 P   0  0  2  0  0  0  0  0  0  0  0  0
   35.7220   31.1650   41.2690 O   0  0  0  0  0  0  0  0  0  0  0  0
   36.0200   31.3350   42.2060 H   0  0  0  0  0  0  0  0  0  0  0  0
   37.8690   32.2930   39.8590 O   0  0  0  0  0  0  0  0  0  0  0  0
   40.0650   32.8690   40.7000 C   0  0  1  0  0  0  0  0  0  0  0  0
   39.4260   34.1610   40.4610 C   0  0  0  0  0  0  0  0  0  0  0  0
   38.6070   32.9060   40.8080 C   0  0  1  0  0  0  0  0  0  0  0  0
   40.6270   32.6430   41.6110 H   0  0  0  0  0  0  0  0  0  0  0  0
   39.1840   34.5480   39.4600 H   0  0  0  0  0  0  0  0  0  0  0  0
   39.5790   34.9340   41.2350 H   0  0  0  0  0  0  0  0  0  0  0  0
   38.0990   33.0400   41.7810 H   0  0  0  0  0  0  0  0  0  0  0  0
   41.6210   30.3050   38.3930 C   0  0  0  0  0  0  0  0  0  0  0  0
   41.1080   30.8800   39.5540 C   0  0  0  0  0  0  0  0  0  0  0  0
   40.6220   32.1980   39.4760 C   0  0  0  0  0  0  0  0  0  0  0  0
   40.6710   32.8590   38.2790 N   0  0  0  0  0  0  0  0  0  0  0  0
   41.1800   32.2540   37.1800 C   0  0  0  0  0  0  0  0  0  0  0  0
   41.6530   30.9800   37.2370 N   0  0  0  0  0  0  0  0  0  0  0  0
   42.0100   29.2980   38.3770 H   0  0  0  0  0  0  0  0  0  0  0  0
   41.0830   30.3380   40.4770 H   0  0  0  0  0  0  0  0  0  0  0  0
   41.0910   32.9880   36.3870 H   0  0  0  0  0  0  0  0  0  0  0  0
   38.0700   29.8320   41.0310 O   0  0  0  0  0  0  0  0  0  0  0  0
   37.6310   28.7350   41.7670 C   0  0  0  0  0  0  0  0  0  0  0  0
   37.2650   28.7190   43.0970 C   0  0  0  0  0  0  0  0  0  0  0  0
   36.8510   27.5410   43.6760 C   0  0  0  0  0  0  0  0  0  0  0  0
   36.7990   26.3850   42.9450 C   0  0  0  0  0  0  0  0  0  0  0  0
   37.1760   26.4510   41.6110 C   0  0  0  0  0  0  0  0  0  0  0  0
   37.5820   27.6060   41.0430 N   0  0  0  0  0  0  0  0  0  0  0  0
   37.3510   29.6930   43.5600 H   0  0  0  0  0  0  0  0  0  0  0  0
   36.5960   27.6920   44.7350 H   0  0  0  0  0  0  0  0  0  0  0  0
   36.4660   25.5920   43.5650 H   0  0  0  0  0  0  0  0  0  0  0  0
   35.7640   25.9470   39.1000 F   0  0  0  0  0  0  0  0  0  0  0  0
   36.4850   24.9730   39.6870 C   0  0  0  0  0  0  0  0  0  0  0  0
   37.1430   25.2130   40.8570 C   0  0  0  0  0  0  0  0  0  0  0  0
   37.8560   24.1400   41.3380 C   0  0  0  0  0  0  0  0  0  0  0  0
   38.4170   24.2010   42.2540 H   0  0  0  0  0  0  0  0  0  0  0  0
   37.8920   22.9340   40.6860 C   0  0  0  0  0  0  0  0  0  0  0  0
   38.4050   22.0260   40.9590 H   0  0  0  0  0  0  0  0  0  0  0  0
   37.2120   22.7310   39.5040 C   0  0  0  0  0  3  0  0  0  0  0  0
   36.4720   23.7950   38.9720 C   0  0  0  0  0  3  0  0  0  0  0  0
  2  1  2  6  0  0  0
  2 22  1  0  0  0  0
  2  3  1  0  0  0  0
  3  4  1  0  0  0  0
  5  2  1  0  0  0  0
  5  8  1  0  0  0  0
  6  8  1  0  0  0  0
  6  9  1  1  0  0  0
  7  6  1  0  0  0  0
  7  8  1  0  0  0  0
  7 11  1  0  0  0  0
  8 12  1  1  0  0  0
 10  7  1  0  0  0  0
 13 14  1  0  0  0  0
 14 20  1  0  0  0  0
 15 14  2  0  0  0  0
 15  6  1  0  0  0  0
 16 15  1  0  0  0  0
 17 18  1  0  0  0  0
 17 16  2  0  0  0  0
 18 13  2  0  0  0  0
 19 13  1  0  0  0  0
 21 17  1  0  0  0  0
 22 23  1  0  0  0  0
 23 24  1  0  0  0  0
 24 29  1  0  0  0  0
 24 25  2  0  0  0  0
 25 30  1  0  0  0  0
 26 31  1  0  0  0  0
 26 25  1  0  0  0  0
 27 26  2  0  0  0  0
 28 27  1  0  0  0  0
 28 23  2  0  0  0  0
 32 33  1  0  0  0  0
 33 34  1  0  0  0  0
 34 35  2  0  0  0  0
 34 27  1  0  0  0  0
 35 36  1  0  0  0  0
 37 38  1  0  0  0  0
 37 35  1  0  0  0  0
 39 37  2  0  0  0  0
 40 39  1  0  0  0  0
 40 33  2  0  0  0  0
M  END
>  <minimizedAffinity>
-6.21843147

$$$$

 OpenBabel03252501093D

 40 43  0  0  1  0  0  0  0  0999 V2000
   37.6580   27.7160   37.2830 O   0  0  0  0  0  0  0  0  0  0  0  0
   36.6940   28.8190   37.7190 P   0  0  2  0  0  0  0  0  0  0  0  0
   36.2850   29.6710   36.3180 O   0  0  0  0  0  0  0  0  0  0  0  0
   35.4320   30.1710   36.4550 H   0  0  0  0  0  0  0  0  0  0  0  0
   37.3130   29.7350   38.9290 O   0  0  0  0  0  0  0  0  0  0  0  0
   36.2320   30.6630   40.8860 C   0  0  1  0  0  0  0  0  0  0  0  0
   37.1400   31.7200   40.4470 C   0  0  0  0  0  0  0  0  0  0  0  0
   36.5400   30.7070   39.4580 C   0  0  1  0  0  0  0  0  0  0  0  0
   35.1960   30.8530   41.1790 H   0  0  0  0  0  0  0  0  0  0  0  0
   38.2360   31.6460   40.5000 H   0  0  0  0  0  0  0  0  0  0  0  0
   36.7410   32.7500   40.4700 H   0  0  0  0  0  0  0  0  0  0  0  0
   35.8810   31.2240   38.7360 H   0  0  0  0  0  0  0  0  0  0  0  0
   38.6650   28.7110   43.0290 C   0  0  0  0  0  0  0  0  0  0  0  0
   38.1040   29.7730   42.3220 C   0  0  0  0  0  0  0  0  0  0  0  0
   36.8770   29.5550   41.6690 C   0  0  0  0  0  0  0  0  0  0  0  0
   36.2870   28.3230   41.7500 N   0  0  0  0  0  0  0  0  0  0  0  0
   36.8740   27.3230   42.4510 C   0  0  0  0  0  0  0  0  0  0  0  0
   38.0600   27.5180   43.0880 N   0  0  0  0  0  0  0  0  0  0  0  0
   39.6030   28.8050   43.5540 H   0  0  0  0  0  0  0  0  0  0  0  0
   38.5900   30.7260   42.2760 H   0  0  0  0  0  0  0  0  0  0  0  0
   36.2010   26.4790   42.3560 H   0  0  0  0  0  0  0  0  0  0  0  0
   35.3180   28.0040   38.2250 O   0  0  0  0  0  0  0  0  0  0  0  0
   34.1750   27.8300   37.4500 C   0  0  0  0  0  0  0  0  0  0  0  0
   33.7700   26.6750   36.8130 C   0  0  0  0  0  0  0  0  0  0  0  0
   32.6040   26.6730   36.0810 C   0  0  0  0  0  0  0  0  0  0  0  0
   31.8420   27.8060   35.9800 C   0  0  0  0  0  0  0  0  0  0  0  0
   32.2900   28.9410   36.6400 C   0  0  0  0  0  0  0  0  0  0  0  0
   33.4320   28.9430   37.3570 N   0  0  0  0  0  0  0  0  0  0  0  0
   34.4580   25.8540   36.9700 H   0  0  0  0  0  0  0  0  0  0  0  0
   32.4210   25.6840   35.6360 H   0  0  0  0  0  0  0  0  0  0  0  0
   30.9950   27.6070   35.3740 H   0  0  0  0  0  0  0  0  0  0  0  0
   30.6700   30.2350   38.7030 F   0  0  0  0  0  0  0  0  0  0  0  0
   30.7290   30.7470   37.4590 C   0  0  0  0  0  0  0  0  0  0  0  0
   31.4870   30.1410   36.5010 C   0  0  0  0  0  0  0  0  0  0  0  0
   31.4740   30.7760   35.2810 C   0  0  0  0  0  0  0  0  0  0  0  0
   32.0310   30.3960   34.4420 H   0  0  0  0  0  0  0  0  0  0  0  0
   30.7530   31.9220   35.0600 C   0  0  0  0  0  0  0  0  0  0  0  0
   30.6590   32.5060   34.1590 H   0  0  0  0  0  0  0  0  0  0  0  0
   29.9980   32.5040   36.0570 C   0  0  0  0  0  3  0  0  0  0  0  0
   29.9800   31.8950   37.3180 C   0  0  0  0  0  3  0  0  0  0  0  0
  2  1  2  6  0  0  0
  2 22  1  0  0  0  0
  2  5  1  0  0  0  0
  3  4  1  0  0  0  0
  3  2  1  0  0  0  0
  5  8  1  0  0  0  0
  6  9  1  1  0  0  0
  6 15  1  0  0  0  0
  7 11  1  0  0  0  0
  7 10  1  0  0  0  0
  7  6  1  0  0  0  0
  8 12  1  6  0  0  0
  8  7  1  0  0  0  0
  8  6  1  0  0  0  0
 13 18  1  0  0  0  0
 13 19  1  0  0  0  0
 14 13  2  0  0  0  0
 15 16  2  0  0  0  0
 15 14  1  0  0  0  0
 16 17  1  0  0  0  0
 17 18  2  0  0  0  0
 20 14  1  0  0  0  0
 21 17  1  0  0  0  0
 23 22  1  0  0  0  0
 24 29  1  0  0  0  0
 24 23  2  0  0  0  0
 25 24  1  0  0  0  0
 26 25  2  0  0  0  0
 26 27  1  0  0  0  0
 27 28  2  0  0  0  0
 28 23  1  0  0  0  0
 30 25  1  0  0  0  0
 31 26  1  0  0  0  0
 33 32  1  0  0  0  0
 34 27  1  0  0  0  0
 34 33  2  0  0  0  0
 35 34  1  0  0  0  0
 36 35  1  0  0  0  0
 37 35  2  0  0  0  0
 37 39  1  0  0  0  0
 38 37  1  0  0  0  0
 39 40  2  0  0  0  0
 40 33  1  0  0  0  0
M  END
>  <minimizedAffinity>
-5.96184111

$$$$

 OpenBabel03252501093D

 40 43  0  0  1  0  0  0  0  0999 V2000
   36.7170   29.7610   38.9320 O   0  0  0  0  0  0  0  0  0  0  0  0
   35.8290   28.7820   39.6980 P   0  0  2  0  0  0  0  0  0  0  0  0
   34.5580   29.6950   40.3350 O   0  0  0  0  0  0  0  0  0  0  0  0
   33.7830   29.1050   40.5520 H   0  0  0  0  0  0  0  0  0  0  0  0
   36.6760   27.9150   40.8000 O   0  0  0  0  0  0  0  0  0  0  0  0
   37.1760   27.3540   43.1020 C   0  0  1  0  0  0  0  0  0  0  0  0
   37.4910   28.7770   43.0070 C   0  0  0  0  0  0  0  0  0  0  0  0
   36.4260   28.1230   42.1100 C   0  0  1  0  0  0  0  0  0  0  0  0
   36.6090   26.9240   43.9330 H   0  0  0  0  0  0  0  0  0  0  0  0
   38.3310   29.1800   42.4230 H   0  0  0  0  0  0  0  0  0  0  0  0
   37.1660   29.4080   43.8530 H   0  0  0  0  0  0  0  0  0  0  0  0
   35.4290   28.5450   42.3340 H   0  0  0  0  0  0  0  0  0  0  0  0
   40.5060   25.9790   41.9450 C   0  0  0  0  0  0  0  0  0  0  0  0
   39.5650   26.8690   42.4580 C   0  0  0  0  0  0  0  0  0  0  0  0
   38.2320   26.4310   42.5640 C   0  0  0  0  0  0  0  0  0  0  0  0
   37.9130   25.1620   42.1640 N   0  0  0  0  0  0  0  0  0  0  0  0
   38.8660   24.3350   41.6720 C   0  0  0  0  0  0  0  0  0  0  0  0
   40.1590   24.7430   41.5640 N   0  0  0  0  0  0  0  0  0  0  0  0
   41.5470   26.2450   41.8360 H   0  0  0  0  0  0  0  0  0  0  0  0
   39.8450   27.8570   42.7620 H   0  0  0  0  0  0  0  0  0  0  0  0
   38.3470   23.4110   41.4460 H   0  0  0  0  0  0  0  0  0  0  0  0
   35.1800   27.7840   38.5160 O   0  0  0  0  0  0  0  0  0  0  0  0
   34.4630   28.2330   37.4110 C   0  0  0  0  0  0  0  0  0  0  0  0
   34.7760   28.0390   36.0820 C   0  0  0  0  0  0  0  0  0  0  0  0
   33.9530   28.5540   35.1060 C   0  0  0  0  0  0  0  0  0  0  0  0
   32.8270   29.2550   35.4410 C   0  0  0  0  0  0  0  0  0  0  0  0
   32.5540   29.4230   36.7910 C   0  0  0  0  0  0  0  0  0  0  0  0
   33.3600   28.9190   37.7480 N   0  0  0  0  0  0  0  0  0  0  0  0
   35.6880   27.4710   35.9510 H   0  0  0  0  0  0  0  0  0  0  0  0
   34.3370   28.3160   34.1030 H   0  0  0  0  0  0  0  0  0  0  0  0
   32.3340   29.5730   34.5570 H   0  0  0  0  0  0  0  0  0  0  0  0
   31.3820   31.6300   35.2710 F   0  0  0  0  0  0  0  0  0  0  0  0
   30.8240   31.2240   36.4270 C   0  0  0  0  0  0  0  0  0  0  0  0
   31.3720   30.1930   37.1310 C   0  0  0  0  0  0  0  0  0  0  0  0
   30.6940   29.8670   38.2830 C   0  0  0  0  0  0  0  0  0  0  0  0
   31.0270   29.0720   38.9270 H   0  0  0  0  0  0  0  0  0  0  0  0
   29.5620   30.5320   38.6770 C   0  0  0  0  0  0  0  0  0  0  0  0
   28.9480   30.3770   39.5500 H   0  0  0  0  0  0  0  0  0  0  0  0
   29.0380   31.5710   37.9370 C   0  0  0  0  0  3  0  0  0  0  0  0
   29.6930   31.9400   36.7540 C   0  0  0  0  0  3  0  0  0  0  0  0
  2  1  2  6  0  0  0
  2  3  1  0  0  0  0
  2  5  1  0  0  0  0
  3  4  1  0  0  0  0
  5  8  1  0  0  0  0
  6  9  1  1  0  0  0
  7  6  1  0  0  0  0
  7 11  1  0  0  0  0
  8 12  1  1  0  0  0
  8  7  1  0  0  0  0
  8  6  1  0  0  0  0
 10  7  1  0  0  0  0
 13 14  1  0  0  0  0
 14 15  2  0  0  0  0
 14 20  1  0  0  0  0
 15  6  1  0  0  0  0
 16 15  1  0  0  0  0
 17 16  2  0  0  0  0
 18 17  1  0  0  0  0
 18 13  2  0  0  0  0
 19 13  1  0  0  0  0
 21 17  1  0  0  0  0
 22  2  1  0  0  0  0
 23 28  1  0  0  0  0
 23 22  1  0  0  0  0
 24 23  2  0  0  0  0
 25 26  2  0  0  0  0
 25 24  1  0  0  0  0
 26 27  1  0  0  0  0
 27 34  1  0  0  0  0
 27 28  2  0  0  0  0
 29 24  1  0  0  0  0
 30 25  1  0  0  0  0
 31 26  1  0  0  0  0
 32 33  1  0  0  0  0
 33 40  2  0  0  0  0
 33 34  1  0  0  0  0
 34 35  2  0  0  0  0
 35 37  1  0  0  0  0
 35 36  1  0  0  0  0
 37 38  1  0  0  0  0
 39 37  2  0  0  0  0
 40 39  1  0  0  0  0
M  END
>  <minimizedAffinity>
-5.85348845

$$$$

 OpenBabel03252501093D

 40 43  0  0  1  0  0  0  0  0999 V2000
   37.5350   31.5460   38.2360 O   0  0  0  0  0  0  0  0  0  0  0  0
   37.3830   31.4280   39.7520 P   0  0  2  0  0  0  0  0  0  0  0  0
   36.9490   32.9640   40.3050 O   0  0  0  0  0  0  0  0  0  0  0  0
   36.5160   32.9000   41.2020 H   0  0  0  0  0  0  0  0  0  0  0  0
   38.7190   30.7920   40.4570 O   0  0  0  0  0  0  0  0  0  0  0  0
   39.5750   30.9770   42.7150 C   0  0  1  0  0  0  0  0  0  0  0  0
   40.7630   31.0970   41.8730 C   0  0  0  0  0  0  0  0  0  0  0  0
   39.3730   31.5320   41.3770 C   0  0  1  0  0  0  0  0  0  0  0  0
   39.3780   31.6390   43.5630 H   0  0  0  0  0  0  0  0  0  0  0  0
   41.1740   30.2710   41.2760 H   0  0  0  0  0  0  0  0  0  0  0  0
   41.4950   31.8700   42.1660 H   0  0  0  0  0  0  0  0  0  0  0  0
   39.3590   32.6230   41.1950 H   0  0  0  0  0  0  0  0  0  0  0  0
   39.4830   27.2100   43.0660 C   0  0  0  0  0  0  0  0  0  0  0  0
   39.9870   28.4950   42.8680 C   0  0  0  0  0  0  0  0  0  0  0  0
   39.0850   29.5730   42.9300 C   0  0  0  0  0  0  0  0  0  0  0  0
   37.7630   29.3250   43.1790 N   0  0  0  0  0  0  0  0  0  0  0  0
   37.3240   28.0570   43.3660 C   0  0  0  0  0  0  0  0  0  0  0  0
   38.1830   27.0040   43.3090 N   0  0  0  0  0  0  0  0  0  0  0  0
   40.1150   26.3360   43.0340 H   0  0  0  0  0  0  0  0  0  0  0  0
   41.0270   28.6580   42.6730 H   0  0  0  0  0  0  0  0  0  0  0  0
   36.2600   28.1520   43.5480 H   0  0  0  0  0  0  0  0  0  0  0  0
   36.0540   30.4280   39.9690 O   0  0  0  0  0  0  0  0  0  0  0  0
   35.8810   29.1980   39.3410 C   0  0  0  0  0  0  0  0  0  0  0  0
   35.0620   28.9210   38.2650 C   0  0  0  0  0  0  0  0  0  0  0  0
   35.0080   27.6410   37.7620 C   0  0  0  0  0  0  0  0  0  0  0  0
   35.7590   26.6410   38.3160 C   0  0  0  0  0  0  0  0  0  0  0  0
   36.5680   26.9680   39.3950 C   0  0  0  0  0  0  0  0  0  0  0  0
   36.6220   28.2230   39.8890 N   0  0  0  0  0  0  0  0  0  0  0  0
   34.5230   29.7950   37.9220 H   0  0  0  0  0  0  0  0  0  0  0  0
   34.3130   27.5830   36.9110 H   0  0  0  0  0  0  0  0  0  0  0  0
   35.5760   25.7340   37.7970 H   0  0  0  0  0  0  0  0  0  0  0  0
   39.4290   26.4510   39.0750 F   0  0  0  0  0  0  0  0  0  0  0  0
   38.6700   25.6460   39.8430 C   0  0  0  0  0  0  0  0  0  0  0  0
   37.3370   25.8920   39.9900 C   0  0  0  0  0  0  0  0  0  0  0  0
   36.6830   25.0060   40.8150 C   0  0  0  0  0  0  0  0  0  0  0  0
   35.6290   25.0920   41.0110 H   0  0  0  0  0  0  0  0  0  0  0  0
   37.3310   23.9660   41.4300 C   0  0  0  0  0  0  0  0  0  0  0  0
   36.9350   23.2090   42.0880 H   0  0  0  0  0  0  0  0  0  0  0  0
   38.6820   23.7500   41.2540 C   0  0  0  0  0  3  0  0  0  0  0  0
   39.3920   24.6260   40.4250 C   0  0  0  0  0  3  0  0  0  0  0  0
  2  1  2  6  0  0  0
  2 22  1  0  0  0  0
  2  3  1  0  0  0  0
  2  5  1  0  0  0  0
  3  4  1  0  0  0  0
  5  8  1  0  0  0  0
  6 15  1  0  0  0  0
  6  9  1  1  0  0  0
  7 11  1  0  0  0  0
  7  6  1  0  0  0  0
  8 12  1  6  0  0  0
  8  7  1  0  0  0  0
  8  6  1  0  0  0  0
 10  7  1  0  0  0  0
 13 18  1  0  0  0  0
 14 15  1  0  0  0  0
 14 13  2  0  0  0  0
 15 16  2  0  0  0  0
 16 17  1  0  0  0  0
 17 21  1  0  0  0  0
 18 17  2  0  0  0  0
 19 13  1  0  0  0  0
 20 14  1  0  0  0  0
 23 28  1  0  0  0  0
 23 22  1  0  0  0  0
 24 23  2  0  0  0  0
 25 24  1  0  0  0  0
 25 26  2  0  0  0  0
 26 27  1  0  0  0  0
 27 28  2  0  0  0  0
 27 34  1  0  0  0  0
 29 24  1  0  0  0  0
 30 25  1  0  0  0  0
 31 26  1  0  0  0  0
 32 33  1  0  0  0  0
 33 34  2  0  0  0  0
 33 40  1  0  0  0  0
 34 35  1  0  0  0  0
 35 36  1  0  0  0  0
 35 37  2  0  0  0  0
 37 38  1  0  0  0  0
 39 37  1  0  0  0  0
 40 39  2  0  0  0  0
M  END
>  <minimizedAffinity>
-5.82943344

$$$$

 OpenBabel03252501093D

 40 43  0  0  1  0  0  0  0  0999 V2000
   36.5690   31.1070   38.8710 O   0  0  0  0  0  0  0  0  0  0  0  0
   37.3360   31.6120   40.0930 P   0  0  2  0  0  0  0  0  0  0  0  0
   36.8160   33.1980   40.3550 O   0  0  0  0  0  0  0  0  0  0  0  0
   37.0050   33.4730   41.2950 H   0  0  0  0  0  0  0  0  0  0  0  0
   38.9550   31.4350   39.9200 O   0  0  0  0  0  0  0  0  0  0  0  0
   41.2070   32.1480   40.4530 C   0  0  1  0  0  0  0  0  0  0  0  0
   40.5020   33.3920   40.1520 C   0  0  0  0  0  0  0  0  0  0  0  0
   39.7690   32.1620   40.7150 C   0  0  1  0  0  0  0  0  0  0  0  0
   41.8690   32.0340   41.3150 H   0  0  0  0  0  0  0  0  0  0  0  0
   40.1430   33.6640   39.1500 H   0  0  0  0  0  0  0  0  0  0  0  0
   40.7090   34.2470   40.8210 H   0  0  0  0  0  0  0  0  0  0  0  0
   39.3620   32.3880   41.7180 H   0  0  0  0  0  0  0  0  0  0  0  0
   42.2070   31.2290   36.9210 C   0  0  0  0  0  0  0  0  0  0  0  0
   41.7980   32.0010   38.0060 C   0  0  0  0  0  0  0  0  0  0  0  0
   41.6540   31.3640   39.2520 C   0  0  0  0  0  0  0  0  0  0  0  0
   41.9180   30.0250   39.3520 N   0  0  0  0  0  0  0  0  0  0  0  0
   42.3140   29.3190   38.2650 C   0  0  0  0  0  0  0  0  0  0  0  0
   42.4580   29.9200   37.0540 N   0  0  0  0  0  0  0  0  0  0  0  0
   42.3400   31.6500   35.9360 H   0  0  0  0  0  0  0  0  0  0  0  0
   41.5970   33.0470   37.8970 H   0  0  0  0  0  0  0  0  0  0  0  0
   42.4570   28.3070   38.6250 H   0  0  0  0  0  0  0  0  0  0  0  0
   36.7610   30.6840   41.3670 O   0  0  0  0  0  0  0  0  0  0  0  0
   37.3770   29.5290   41.8420 C   0  0  0  0  0  0  0  0  0  0  0  0
   38.2680   29.4330   42.8910 C   0  0  0  0  0  0  0  0  0  0  0  0
   38.7880   28.2060   43.2330 C   0  0  0  0  0  0  0  0  0  0  0  0
   38.4290   27.0790   42.5450 C   0  0  0  0  0  0  0  0  0  0  0  0
   37.5290   27.2260   41.4990 C   0  0  0  0  0  0  0  0  0  0  0  0
   37.0190   28.4290   41.1630 N   0  0  0  0  0  0  0  0  0  0  0  0
   38.4700   30.3930   43.3500 H   0  0  0  0  0  0  0  0  0  0  0  0
   39.4800   28.2960   44.0830 H   0  0  0  0  0  0  0  0  0  0  0  0
   38.9370   26.2420   42.9510 H   0  0  0  0  0  0  0  0  0  0  0  0
   36.4520   24.7310   42.5820 F   0  0  0  0  0  0  0  0  0  0  0  0
   36.6780   24.8620   41.2610 C   0  0  0  0  0  0  0  0  0  0  0  0
   37.1790   26.0270   40.7600 C   0  0  0  0  0  0  0  0  0  0  0  0
   37.3450   26.0350   39.3950 C   0  0  0  0  0  0  0  0  0  0  0  0
   37.7340   26.8950   38.8800 H   0  0  0  0  0  0  0  0  0  0  0  0
   37.0300   24.9520   38.6150 C   0  0  0  0  0  0  0  0  0  0  0  0
   37.1170   24.8320   37.5470 H   0  0  0  0  0  0  0  0  0  0  0  0
   36.5260   23.7890   39.1600 C   0  0  0  0  0  3  0  0  0  0  0  0
   36.3370   23.7340   40.5470 C   0  0  0  0  0  3  0  0  0  0  0  0
  2  1  2  6  0  0  0
  2  3  1  0  0  0  0
  2 22  1  0  0  0  0
  3  4  1  0  0  0  0
  5  2  1  0  0  0  0
  5  8  1  0  0  0  0
  6  8  1  0  0  0  0
  6  9  1  1  0  0  0
  7  6  1  0  0  0  0
  7  8  1  0  0  0  0
  7 11  1  0  0  0  0
  8 12  1  1  0  0  0
 10  7  1  0  0  0  0
 13 18  2  0  0  0  0
 13 14  1  0  0  0  0
 14 15  2  0  0  0  0
 15 16  1  0  0  0  0
 15  6  1  0  0  0  0
 17 21  1  0  0  0  0
 17 16  2  0  0  0  0
 18 17  1  0  0  0  0
 19 13  1  0  0  0  0
 20 14  1  0  0  0  0
 22 23  1  0  0  0  0
 23 24  1  0  0  0  0
 24 25  2  0  0  0  0
 24 29  1  0  0  0  0
 25 30  1  0  0  0  0
 26 31  1  0  0  0  0
 26 25  1  0  0  0  0
 27 26  2  0  0  0  0
 28 27  1  0  0  0  0
 28 23  2  0  0  0  0
 33 32  1  0  0  0  0
 34 33  1  0  0  0  0
 34 27  1  0  0  0  0
 35 34  2  0  0  0  0
 36 35  1  0  0  0  0
 37 39  2  0  0  0  0
 37 35  1  0  0  0  0
 38 37  1  0  0  0  0
 39 40  1  0  0  0  0
 40 33  2  0  0  0  0
M  END
>  <minimizedAffinity>
-5.76315928

$$$$

 OpenBabel03252501093D

 40 43  0  0  1  0  0  0  0  0999 V2000
   41.7670   30.4520   40.1100 O   0  0  0  0  0  0  0  0  0  0  0  0
   40.5910   29.4770   40.0930 P   0  0  2  0  0  0  0  0  0  0  0  0
   41.1830   28.0340   39.4430 O   0  0  0  0  0  0  0  0  0  0  0  0
   40.5940   27.2710   39.7020 H   0  0  0  0  0  0  0  0  0  0  0  0
   39.2860   30.0980   39.3210 O   0  0  0  0  0  0  0  0  0  0  0  0
   37.6350   31.8690   39.3940 C   0  0  1  0  0  0  0  0  0  0  0  0
   38.2750   31.9250   40.7060 C   0  0  0  0  0  0  0  0  0  0  0  0
   39.0240   31.4150   39.4630 C   0  0  1  0  0  0  0  0  0  0  0  0
   37.4310   32.7590   38.7930 H   0  0  0  0  0  0  0  0  0  0  0  0
   38.1680   31.1450   41.4720 H   0  0  0  0  0  0  0  0  0  0  0  0
   38.5050   32.9330   41.0950 H   0  0  0  0  0  0  0  0  0  0  0  0
   39.8680   32.0880   39.2240 H   0  0  0  0  0  0  0  0  0  0  0  0
   34.9950   29.2730   40.1770 C   0  0  0  0  0  0  0  0  0  0  0  0
   35.9470   30.2720   40.3720 C   0  0  0  0  0  0  0  0  0  0  0  0
   36.5950   30.7950   39.2390 C   0  0  0  0  0  0  0  0  0  0  0  0
   36.2720   30.3100   38.0010 N   0  0  0  0  0  0  0  0  0  0  0  0
   35.3380   29.3380   37.8660 C   0  0  0  0  0  0  0  0  0  0  0  0
   34.7020   28.8210   38.9510 N   0  0  0  0  0  0  0  0  0  0  0  0
   34.4580   28.8250   40.9990 H   0  0  0  0  0  0  0  0  0  0  0  0
   36.1800   30.6310   41.3540 H   0  0  0  0  0  0  0  0  0  0  0  0
   35.2770   29.1530   36.7990 H   0  0  0  0  0  0  0  0  0  0  0  0
   40.2540   29.1920   41.7120 O   0  0  0  0  0  0  0  0  0  0  0  0
   39.0810   28.6090   42.1820 C   0  0  0  0  0  0  0  0  0  0  0  0
   38.3630   28.9730   43.3030 C   0  0  0  0  0  0  0  0  0  0  0  0
   37.2150   28.2860   43.6290 C   0  0  0  0  0  0  0  0  0  0  0  0
   36.7790   27.2470   42.8530 C   0  0  0  0  0  0  0  0  0  0  0  0
   37.5340   26.9200   41.7360 C   0  0  0  0  0  0  0  0  0  0  0  0
   38.6590   27.5920   41.4150 N   0  0  0  0  0  0  0  0  0  0  0  0
   38.8120   29.8050   43.8280 H   0  0  0  0  0  0  0  0  0  0  0  0
   36.7610   28.6940   44.5440 H   0  0  0  0  0  0  0  0  0  0  0  0
   35.8900   26.8460   43.2700 H   0  0  0  0  0  0  0  0  0  0  0  0
   37.3900   24.1140   42.5490 F   0  0  0  0  0  0  0  0  0  0  0  0
   37.0070   24.4880   41.3130 C   0  0  0  0  0  0  0  0  0  0  0  0
   37.0750   25.7980   40.9390 C   0  0  0  0  0  0  0  0  0  0  0  0
   36.6370   26.0470   39.6590 C   0  0  0  0  0  0  0  0  0  0  0  0
   36.6410   27.0400   39.2450 H   0  0  0  0  0  0  0  0  0  0  0  0
   36.1750   25.0510   38.8380 C   0  0  0  0  0  0  0  0  0  0  0  0
   35.8120   25.1140   37.8250 H   0  0  0  0  0  0  0  0  0  0  0  0
   36.1230   23.7360   39.2530 C   0  0  0  0  0  3  0  0  0  0  0  0
   36.5570   23.4320   40.5500 C   0  0  0  0  0  3  0  0  0  0  0  0
  2  1  2  6  0  0  0
  2 22  1  0  0  0  0
  3  4  1  0  0  0  0
  3  2  1  0  0  0  0
  5  8  1  0  0  0  0
  5  2  1  0  0  0  0
  6  9  1  6  0  0  0
  6  8  1  0  0  0  0
  6  7  1  0  0  0  0
  7 11  1  0  0  0  0
  7 10  1  0  0  0  0
  8 12  1  6  0  0  0
  8  7  1  0  0  0  0
 13 14  1  0  0  0  0
 13 19  1  0  0  0  0
 14 20  1  0  0  0  0
 15  6  1  0  0  0  0
 15 14  2  0  0  0  0
 16 15  1  0  0  0  0
 17 16  2  0  0  0  0
 17 18  1  0  0  0  0
 18 13  2  0  0  0  0
 21 17  1  0  0  0  0
 22 23  1  0  0  0  0
 23 24  1  0  0  0  0
 24 25  2  0  0  0  0
 24 29  1  0  0  0  0
 25 30  1  0  0  0  0
 26 31  1  0  0  0  0
 26 25  1  0  0  0  0
 27 26  2  0  0  0  0
 28 27  1  0  0  0  0
 28 23  2  0  0  0  0
 33 32  1  0  0  0  0
 34 33  1  0  0  0  0
 34 27  1  0  0  0  0
 35 34  2  0  0  0  0
 36 35  1  0  0  0  0
 37 39  2  0  0  0  0
 37 35  1  0  0  0  0
 38 37  1  0  0  0  0
 39 40  1  0  0  0  0
 40 33  2  0  0  0  0
M  END
>  <minimizedAffinity>
-5.75058222

$$$$

 OpenBabel03252501093D

 40 43  0  0  1  0  0  0  0  0999 V2000
   36.5980   30.6380   39.5140 O   0  0  0  0  0  0  0  0  0  0  0  0
   36.2660   29.2500   40.0600 P   0  0  2  0  0  0  0  0  0  0  0  0
   34.6220   29.2760   40.4490 O   0  0  0  0  0  0  0  0  0  0  0  0
   34.2610   28.3470   40.4900 H   0  0  0  0  0  0  0  0  0  0  0  0
   37.2600   28.8170   41.2890 O   0  0  0  0  0  0  0  0  0  0  0  0
   36.8280   27.0790   42.9180 C   0  0  1  0  0  0  0  0  0  0  0  0
   37.6010   28.0740   43.6570 C   0  0  0  0  0  0  0  0  0  0  0  0
   36.7060   28.4650   42.4680 C   0  0  1  0  0  0  0  0  0  0  0  0
   35.9290   26.6040   43.3210 H   0  0  0  0  0  0  0  0  0  0  0  0
   38.6610   28.2910   43.4640 H   0  0  0  0  0  0  0  0  0  0  0  0
   37.2580   28.2970   44.6830 H   0  0  0  0  0  0  0  0  0  0  0  0
   35.8820   29.1170   42.8110 H   0  0  0  0  0  0  0  0  0  0  0  0
   37.8090   24.6080   40.2240 C   0  0  0  0  0  0  0  0  0  0  0  0
   37.0160   25.4460   41.0050 C   0  0  0  0  0  0  0  0  0  0  0  0
   37.6390   26.1670   42.0400 C   0  0  0  0  0  0  0  0  0  0  0  0
   38.9840   26.0200   42.2410 N   0  0  0  0  0  0  0  0  0  0  0  0
   39.7110   25.1920   41.4520 C   0  0  0  0  0  0  0  0  0  0  0  0
   39.1240   24.4890   40.4470 N   0  0  0  0  0  0  0  0  0  0  0  0
   37.4000   24.0260   39.4120 H   0  0  0  0  0  0  0  0  0  0  0  0
   35.9640   25.5400   40.8250 H   0  0  0  0  0  0  0  0  0  0  0  0
   40.7270   25.2730   41.8210 H   0  0  0  0  0  0  0  0  0  0  0  0
   36.4500   28.2230   38.7470 O   0  0  0  0  0  0  0  0  0  0  0  0
   35.3980   27.7050   37.9970 C   0  0  0  0  0  0  0  0  0  0  0  0
   35.1750   26.3810   37.6790 C   0  0  0  0  0  0  0  0  0  0  0  0
   34.0780   26.0370   36.9230 C   0  0  0  0  0  0  0  0  0  0  0  0
   33.2040   26.9940   36.4840 C   0  0  0  0  0  0  0  0  0  0  0  0
   33.4690   28.3120   36.8300 C   0  0  0  0  0  0  0  0  0  0  0  0
   34.5450   28.6500   37.5720 N   0  0  0  0  0  0  0  0  0  0  0  0
   35.9360   25.7270   38.0840 H   0  0  0  0  0  0  0  0  0  0  0  0
   34.0420   24.9500   36.7550 H   0  0  0  0  0  0  0  0  0  0  0  0
   32.4350   26.5350   35.9170 H   0  0  0  0  0  0  0  0  0  0  0  0
   31.4320   29.7520   38.3560 F   0  0  0  0  0  0  0  0  0  0  0  0
   31.5990   29.9920   37.0410 C   0  0  0  0  0  0  0  0  0  0  0  0
   32.5510   29.3190   36.3340 C   0  0  0  0  0  0  0  0  0  0  0  0
   32.6280   29.6710   35.0070 C   0  0  0  0  0  0  0  0  0  0  0  0
   33.3380   29.2110   34.3430 H   0  0  0  0  0  0  0  0  0  0  0  0
   31.8090   30.6210   34.4540 C   0  0  0  0  0  0  0  0  0  0  0  0
   31.7680   30.9800   33.4380 H   0  0  0  0  0  0  0  0  0  0  0  0
   30.8560   31.2800   35.2030 C   0  0  0  0  0  3  0  0  0  0  0  0
   30.7390   30.9570   36.5610 C   0  0  0  0  0  3  0  0  0  0  0  0
  2  1  2  6  0  0  0
  2  3  1  0  0  0  0
  2  5  1  0  0  0  0
  3  4  1  0  0  0  0
  5  8  1  0  0  0  0
  6  9  1  1  0  0  0
  6  7  1  0  0  0  0
  7 11  1  0  0  0  0
  8 12  1  1  0  0  0
  8  6  1  0  0  0  0
  8  7  1  0  0  0  0
 10  7  1  0  0  0  0
 13 18  2  0  0  0  0
 13 14  1  0  0  0  0
 14 15  2  0  0  0  0
 15 16  1  0  0  0  0
 15  6  1  0  0  0  0
 17 21  1  0  0  0  0
 17 16  2  0  0  0  0
 18 17  1  0  0  0  0
 19 13  1  0  0  0  0
 20 14  1  0  0  0  0
 22  2  1  0  0  0  0
 23 22  1  0  0  0  0
 24 23  1  0  0  0  0
 24 29  1  0  0  0  0
 25 24  2  0  0  0  0
 26 27  2  0  0  0  0
 26 25  1  0  0  0  0
 27 28  1  0  0  0  0
 28 23  2  0  0  0  0
 30 25  1  0  0  0  0
 31 26  1  0  0  0  0
 33 32  1  0  0  0  0
 34 27  1  0  0  0  0
 34 33  2  0  0  0  0
 35 34  1  0  0  0  0
 36 35  1  0  0  0  0
 37 35  2  0  0  0  0
 37 39  1  0  0  0  0
 38 37  1  0  0  0  0
 39 40  2  0  0  0  0
 40 33  1  0  0  0  0
M  END
>  <minimizedAffinity>
-5.68602657

$$$$

 OpenBabel03252501093D

 40 43  0  0  1  0  0  0  0  0999 V2000
   36.2870   28.5240   38.1090 O   0  0  0  0  0  0  0  0  0  0  0  0
   37.2800   29.1090   39.1110 P   0  0  2  0  0  0  0  0  0  0  0  0
   38.7280   29.3280   38.2690 O   0  0  0  0  0  0  0  0  0  0  0  0
   39.3040   29.9940   38.7380 H   0  0  0  0  0  0  0  0  0  0  0  0
   37.4000   28.1950   40.4660 O   0  0  0  0  0  0  0  0  0  0  0  0
   36.6870   27.6840   42.7230 C   0  0  1  0  0  0  0  0  0  0  0  0
   37.3900   28.9580   42.8520 C   0  0  0  0  0  0  0  0  0  0  0  0
   36.6790   28.5550   41.5490 C   0  0  1  0  0  0  0  0  0  0  0  0
   35.7250   27.4840   43.2020 H   0  0  0  0  0  0  0  0  0  0  0  0
   38.4730   29.0760   42.7110 H   0  0  0  0  0  0  0  0  0  0  0  0
   36.9200   29.7120   43.5090 H   0  0  0  0  0  0  0  0  0  0  0  0
   35.8410   29.2460   41.3430 H   0  0  0  0  0  0  0  0  0  0  0  0
   37.9310   24.1660   42.0910 C   0  0  0  0  0  0  0  0  0  0  0  0
   37.0710   25.2610   42.1370 C   0  0  0  0  0  0  0  0  0  0  0  0
   37.5750   26.4740   42.6430 C   0  0  0  0  0  0  0  0  0  0  0  0
   38.8740   26.5320   43.0670 N   0  0  0  0  0  0  0  0  0  0  0  0
   39.6690   25.4370   43.0000 C   0  0  0  0  0  0  0  0  0  0  0  0
   39.1980   24.2580   42.5130 N   0  0  0  0  0  0  0  0  0  0  0  0
   37.6140   23.2050   41.7140 H   0  0  0  0  0  0  0  0  0  0  0  0
   36.0580   25.1850   41.7990 H   0  0  0  0  0  0  0  0  0  0  0  0
   40.6290   25.7620   43.3860 H   0  0  0  0  0  0  0  0  0  0  0  0
   36.6760   30.6340   39.4660 O   0  0  0  0  0  0  0  0  0  0  0  0
   37.4610   31.7360   39.7900 C   0  0  0  0  0  0  0  0  0  0  0  0
   37.1550   33.0650   39.5810 C   0  0  0  0  0  0  0  0  0  0  0  0
   38.0490   34.0390   39.9640 C   0  0  0  0  0  0  0  0  0  0  0  0
   39.2380   33.7030   40.5520 C   0  0  0  0  0  0  0  0  0  0  0  0
   39.5000   32.3540   40.7430 C   0  0  0  0  0  0  0  0  0  0  0  0
   38.6240   31.3990   40.3680 N   0  0  0  0  0  0  0  0  0  0  0  0
   36.1890   33.1970   39.1090 H   0  0  0  0  0  0  0  0  0  0  0  0
   37.6620   35.0420   39.7290 H   0  0  0  0  0  0  0  0  0  0  0  0
   39.7860   34.5850   40.7660 H   0  0  0  0  0  0  0  0  0  0  0  0
   42.1580   33.1410   39.8120 F   0  0  0  0  0  0  0  0  0  0  0  0
   42.0180   32.3750   40.9110 C   0  0  0  0  0  0  0  0  0  0  0  0
   40.7760   32.0110   41.3420 C   0  0  0  0  0  0  0  0  0  0  0  0
   40.7730   31.2440   42.4830 C   0  0  0  0  0  0  0  0  0  0  0  0
   39.8560   30.8920   42.9230 H   0  0  0  0  0  0  0  0  0  0  0  0
   41.9300   30.8810   43.1230 C   0  0  0  0  0  0  0  0  0  0  0  0
   42.0600   30.2860   44.0130 H   0  0  0  0  0  0  0  0  0  0  0  0
   43.1680   31.2690   42.6550 C   0  0  0  0  0  3  0  0  0  0  0  0
   43.2240   32.0530   41.4950 C   0  0  0  0  0  3  0  0  0  0  0  0
  2  1  2  6  0  0  0
  2 22  1  0  0  0  0
  2  5  1  0  0  0  0
  3  4  1  0  0  0  0
  3  2  1  0  0  0  0
  5  8  1  0  0  0  0
  6  7  1  0  0  0  0
  6  9  1  1  0  0  0
  7 11  1  0  0  0  0
  8 12  1  6  0  0  0
  8  6  1  0  0  0  0
  8  7  1  0  0  0  0
 10  7  1  0  0  0  0
 13 14  2  0  0  0  0
 13 18  1  0  0  0  0
 14 15  1  0  0  0  0
 15  6  1  0  0  0  0
 15 16  2  0  0  0  0
 17 16  1  0  0  0  0
 17 21  1  0  0  0  0
 18 17  2  0  0  0  0
 19 13  1  0  0  0  0
 20 14  1  0  0  0  0
 22 23  1  0  0  0  0
 23 28  1  0  0  0  0
 24 23  2  0  0  0  0
 24 25  1  0  0  0  0
 25 26  2  0  0  0  0
 26 27  1  0  0  0  0
 26 31  1  0  0  0  0
 27 34  1  0  0  0  0
 28 27  2  0  0  0  0
 29 24  1  0  0  0  0
 30 25  1  0  0  0  0
 32 33  1  0  0  0  0
 33 34  2  0  0  0  0
 33 40  1  0  0  0  0
 34 35  1  0  0  0  0
 35 36  1  0  0  0  0
 35 37  2  0  0  0  0
 37 38  1  0  0  0  0
 39 37  1  0  0  0  0
 40 39  2  0  0  0  0
M  END
>  <minimizedAffinity>
-5.67410612

$$$$
