
 OpenBabel03252501063D

 40 43  0  0  1  0  0  0  0  0999 V2000
   48.8370   32.4650   38.4230 O   0  0  0  0  0  0  0  0  0  0  0  0
   48.0310   33.7500   38.6080 P   0  0  2  0  0  0  0  0  0  0  0  0
   48.8030   34.9300   37.6770 O   0  0  0  0  0  0  0  0  0  0  0  0
   48.1750   35.6790   37.4790 H   0  0  0  0  0  0  0  0  0  0  0  0
   47.8390   34.1340   40.1890 O   0  0  0  0  0  0  0  0  0  0  0  0
   48.2850   35.6220   42.0470 C   0  0  1  0  0  0  0  0  0  0  0  0
   49.5230   34.8610   41.8960 C   0  0  0  0  0  0  0  0  0  0  0  0
   48.5890   35.1310   40.7030 C   0  0  1  0  0  0  0  0  0  0  0  0
   48.2670   36.7060   42.1880 H   0  0  0  0  0  0  0  0  0  0  0  0
   49.6100   33.7880   42.1170 H   0  0  0  0  0  0  0  0  0  0  0  0
   50.4630   35.4330   41.9830 H   0  0  0  0  0  0  0  0  0  0  0  0
   49.1020   35.7630   39.9550 H   0  0  0  0  0  0  0  0  0  0  0  0
   46.4140   33.1310   44.1950 C   0  0  0  0  0  0  0  0  0  0  0  0
   47.4710   33.7620   43.5410 C   0  0  0  0  0  0  0  0  0  0  0  0
   47.1840   34.9090   42.7790 C   0  0  0  0  0  0  0  0  0  0  0  0
   45.8930   35.3580   42.7070 N   0  0  0  0  0  0  0  0  0  0  0  0
   44.9020   34.7080   43.3630 C   0  0  0  0  0  0  0  0  0  0  0  0
   45.1620   33.5990   44.1040 N   0  0  0  0  0  0  0  0  0  0  0  0
   46.5590   32.2480   44.7980 H   0  0  0  0  0  0  0  0  0  0  0  0
   48.4710   33.3860   43.6140 H   0  0  0  0  0  0  0  0  0  0  0  0
   44.0020   35.2730   43.1430 H   0  0  0  0  0  0  0  0  0  0  0  0
   46.5530   33.4320   37.8820 O   0  0  0  0  0  0  0  0  0  0  0  0
   45.4830   32.8050   38.5130 C   0  0  0  0  0  0  0  0  0  0  0  0
   45.3840   31.4720   38.8570 C   0  0  0  0  0  0  0  0  0  0  0  0
   44.2480   31.0110   39.4810 C   0  0  0  0  0  0  0  0  0  0  0  0
   43.2140   31.8620   39.7650 C   0  0  0  0  0  0  0  0  0  0  0  0
   43.3590   33.1930   39.4010 C   0  0  0  0  0  0  0  0  0  0  0  0
   44.4730   33.6450   38.7890 N   0  0  0  0  0  0  0  0  0  0  0  0
   46.2660   30.9080   38.5790 H   0  0  0  0  0  0  0  0  0  0  0  0
   44.3220   29.9340   39.6880 H   0  0  0  0  0  0  0  0  0  0  0  0
   42.4330   31.3210   40.2360 H   0  0  0  0  0  0  0  0  0  0  0  0
   40.9300   33.5360   37.8090 F   0  0  0  0  0  0  0  0  0  0  0  0
   41.1100   34.2410   38.9420 C   0  0  0  0  0  0  0  0  0  0  0  0
   42.2440   34.0770   39.6820 C   0  0  0  0  0  0  0  0  0  0  0  0
   42.2930   34.8420   40.8230 C   0  0  0  0  0  0  0  0  0  0  0  0
   43.1360   34.8040   41.4910 H   0  0  0  0  0  0  0  0  0  0  0  0
   41.2810   35.6960   41.1750 C   0  0  0  0  0  0  0  0  0  0  0  0
   41.2020   36.3460   42.0320 H   0  0  0  0  0  0  0  0  0  0  0  0
   40.1490   35.8360   40.3980 C   0  0  0  0  0  0  0  0  0  0  0  0
   40.0510   35.0750   39.2260 C   0  0  0  0  0  0  0  0  0  0  0  0
  2  1  2  6  0  0  0
  2  5  1  0  0  0  0
  3  2  1  0  0  0  0
  4  3  1  0  0  0  0
  5  8  1  0  0  0  0
  6  9  1  1  0  0  0
  6 15  1  0  0  0  0
  7 11  1  0  0  0  0
  7  6  1  0  0  0  0
  7 10  1  0  0  0  0
  8 12  1  6  0  0  0
  8  7  1  0  0  0  0
  8  6  1  0  0  0  0
 13 19  1  0  0  0  0
 14 20  1  0  0  0  0
 14 13  2  0  0  0  0
 15 14  1  0  0  0  0
 16 15  2  0  0  0  0
 16 17  1  0  0  0  0
 17 18  2  0  0  0  0
 18 13  1  0  0  0  0
 21 17  1  0  0  0  0
 22 23  1  0  0  0  0
 22  2  1  0  0  0  0
 23 28  2  0  0  0  0
 23 24  1  0  0  0  0
 24 25  2  0  0  0  0
 25 30  1  0  0  0  0
 25 26  1  0  0  0  0
 26 31  1  0  0  0  0
 27 34  1  0  0  0  0
 27 26  2  0  0  0  0
 28 27  1  0  0  0  0
 29 24  1  0  0  0  0
 32 33  1  0  0  0  0
 33 40  2  0  0  0  0
 33 34  1  0  0  0  0
 34 35  2  0  0  0  0
 35 37  1  0  0  0  0
 35 36  1  0  0  0  0
 37 38  1  0  0  0  0
 39 37  2  0  0  0  0
 40 39  1  0  0  0  0
M  END
>  <minimizedAffinity>
-5.96336842

>  <minimizedRMSD>
2.15879893

$$$$
