
 OpenBabel03252502143D

 37 40  0  0  0  0  0  0  0  0999 V2000
   36.5390   29.7670   34.7710 Cl  0  0  0  0  0  0  0  0  0  0  0  0
   35.6770   29.3400   36.2360 C   0  0  0  0  0  0  0  0  0  0  0  0
   36.2660   29.4020   37.4530 C   0  0  0  0  0  0  0  0  0  0  0  0
   35.4990   29.0460   38.5270 C   0  0  0  0  0  0  0  0  0  0  0  0
   34.2010   28.6450   38.4130 C   0  0  0  0  0  0  0  0  0  0  0  0
   33.6050   28.5850   37.1730 C   0  0  0  0  0  0  0  0  0  0  0  0
   34.3620   28.9380   36.0910 C   0  0  0  0  0  0  0  0  0  0  0  0
   33.6320   28.3720   39.3030 H   0  0  0  0  0  0  0  0  0  0  0  0
   32.5830   28.2670   37.1080 H   0  0  0  0  0  0  0  0  0  0  0  0
   33.8910   28.8900   35.1150 H   0  0  0  0  0  0  0  0  0  0  0  0
   39.3950   31.5190   37.7350 C   0  0  0  0  0  0  0  0  0  0  0  0
   38.0550   31.1450   37.6520 C   0  0  0  0  0  0  0  0  0  0  0  0
   37.6500   29.8320   37.5410 C   0  0  0  0  0  0  0  0  0  0  0  0
   38.6680   28.9090   37.5170 N   0  0  0  0  0  0  0  0  0  0  0  0
   39.9580   29.2630   37.5960 C   0  0  0  0  0  0  0  0  0  0  0  0
   40.3340   30.5370   37.7030 N   0  0  0  0  0  0  0  0  0  0  0  0
   39.5410   32.5900   37.8170 H   0  0  0  0  0  0  0  0  0  0  0  0
   37.2360   31.8530   37.6690 H   0  0  0  0  0  0  0  0  0  0  0  0
   40.7480   28.5190   37.5750 H   0  0  0  0  0  0  0  0  0  0  0  0
   36.1080   29.1000   39.8740 C   0  0  0  0  0  0  0  0  0  0  0  0
   36.0110   30.3050   40.5590 C   0  0  0  0  0  0  0  0  0  0  0  0
   36.6160   30.2280   41.7980 C   0  0  0  0  0  0  0  0  0  0  0  0
   37.2500   29.1390   42.3470 C   0  0  0  0  0  0  0  0  0  0  0  0
   37.2880   27.9880   41.5740 C   0  0  0  0  0  0  0  0  0  0  0  0
   36.7070   28.0350   40.3640 N   0  0  0  0  0  0  0  0  0  0  0  0
   35.5380   31.1930   40.2040 H   0  0  0  0  0  0  0  0  0  0  0  0
   36.5870   31.1560   42.4230 H   0  0  0  0  0  0  0  0  0  0  0  0
   37.6930   29.1690   43.3180 H   0  0  0  0  0  0  0  0  0  0  0  0
   39.6810   28.0470   42.9760 F   0  0  0  0  0  0  0  0  0  0  0  0
   39.1140   26.8350   42.7270 C   0  0  0  0  0  0  0  0  0  0  0  0
   37.9270   26.7630   42.0340 C   0  0  0  0  0  0  0  0  0  0  0  0
   37.4350   25.4950   41.8320 C   0  0  0  0  0  0  0  0  0  0  0  0
   36.5100   25.3780   41.2980 H   0  0  0  0  0  0  0  0  0  0  0  0
   38.0640   24.3530   42.2820 C   0  0  0  0  0  0  0  0  0  0  0  0
   37.6310   23.3980   42.0930 H   0  0  0  0  0  0  0  0  0  0  0  0
   39.2500   24.4460   42.9730 C   0  0  0  0  0  3  0  0  0  0  0  0
   39.7620   25.7080   43.1850 C   0  0  0  0  0  3  0  0  0  0  0  0
  1  2  1  0  0  0  0
  2  3  1  0  0  0  0
  3 13  1  0  0  0  0
  3  4  2  0  0  0  0
  4 20  1  0  0  0  0
  5  4  1  0  0  0  0
  5  8  1  0  0  0  0
  6  5  2  0  0  0  0
  7  2  2  0  0  0  0
  7  6  1  0  0  0  0
  9  6  1  0  0  0  0
 10  7  1  0  0  0  0
 11 17  1  0  0  0  0
 12 18  1  0  0  0  0
 12 11  2  0  0  0  0
 13 12  1  0  0  0  0
 14 13  2  0  0  0  0
 14 15  1  0  0  0  0
 15 16  2  0  0  0  0
 16 11  1  0  0  0  0
 19 15  1  0  0  0  0
 20 25  2  0  0  0  0
 20 21  1  0  0  0  0
 21 22  2  0  0  0  0
 22 23  1  0  0  0  0
 22 27  1  0  0  0  0
 23 28  1  0  0  0  0
 24 31  1  0  0  0  0
 24 23  2  0  0  0  0
 25 24  1  0  0  0  0
 26 21  1  0  0  0  0
 30 29  1  0  0  0  0
 30 37  1  0  0  0  0
 31 30  2  0  0  0  0
 32 31  1  0  0  0  0
 32 34  2  0  0  0  0
 33 32  1  0  0  0  0
 34 36  1  0  0  0  0
 35 34  1  0  0  0  0
 36 37  2  0  0  0  0
M  END
>  <minimizedAffinity>
-6.32471704

$$$$

 OpenBabel03252502143D

 37 40  0  0  0  0  0  0  0  0999 V2000
   37.4280   27.3570   43.6280 Cl  0  0  0  0  0  0  0  0  0  0  0  0
   37.1220   26.5240   42.1180 C   0  0  0  0  0  0  0  0  0  0  0  0
   37.0430   27.1890   40.9410 C   0  0  0  0  0  0  0  0  0  0  0  0
   36.8010   26.4370   39.8240 C   0  0  0  0  0  0  0  0  0  0  0  0
   36.6410   25.0840   39.8590 C   0  0  0  0  0  0  0  0  0  0  0  0
   36.7240   24.4110   41.0590 C   0  0  0  0  0  0  0  0  0  0  0  0
   36.9650   25.1520   42.1820 C   0  0  0  0  0  0  0  0  0  0  0  0
   36.4500   24.5310   38.9390 H   0  0  0  0  0  0  0  0  0  0  0  0
   36.5950   23.3470   41.0620 H   0  0  0  0  0  0  0  0  0  0  0  0
   37.0290   24.6210   43.1260 H   0  0  0  0  0  0  0  0  0  0  0  0
   36.3950   30.9200   41.0530 C   0  0  0  0  0  0  0  0  0  0  0  0
   36.1880   29.5410   41.0620 C   0  0  0  0  0  0  0  0  0  0  0  0
   37.2160   28.6300   40.9370 C   0  0  0  0  0  0  0  0  0  0  0  0
   38.4680   29.1800   40.8010 N   0  0  0  0  0  0  0  0  0  0  0  0
   38.6720   30.5040   40.7930 C   0  0  0  0  0  0  0  0  0  0  0  0
   37.6680   31.3730   40.9150 N   0  0  0  0  0  0  0  0  0  0  0  0
   35.4820   31.4940   41.1610 H   0  0  0  0  0  0  0  0  0  0  0  0
   35.2120   29.0840   41.1660 H   0  0  0  0  0  0  0  0  0  0  0  0
   39.6690   30.9200   40.6850 H   0  0  0  0  0  0  0  0  0  0  0  0
   36.7070   27.1290   38.5200 C   0  0  0  0  0  0  0  0  0  0  0  0
   37.8710   27.2000   37.7630 C   0  0  0  0  0  0  0  0  0  0  0  0
   37.6540   27.8670   36.5730 C   0  0  0  0  0  0  0  0  0  0  0  0
   36.4740   28.4140   36.1290 C   0  0  0  0  0  0  0  0  0  0  0  0
   35.3770   28.2840   36.9670 C   0  0  0  0  0  0  0  0  0  0  0  0
   35.5590   27.6400   38.1310 N   0  0  0  0  0  0  0  0  0  0  0  0
   38.8220   26.8030   38.0360 H   0  0  0  0  0  0  0  0  0  0  0  0
   38.5390   27.9730   35.8960 H   0  0  0  0  0  0  0  0  0  0  0  0
   36.3980   28.9150   35.1890 H   0  0  0  0  0  0  0  0  0  0  0  0
   33.5400   28.9870   38.9220 F   0  0  0  0  0  0  0  0  0  0  0  0
   33.1830   29.1530   37.6200 C   0  0  0  0  0  0  0  0  0  0  0  0
   34.0670   28.8160   36.6190 C   0  0  0  0  0  0  0  0  0  0  0  0
   33.6140   29.0200   35.3370 C   0  0  0  0  0  0  0  0  0  0  0  0
   34.2620   28.7750   34.5150 H   0  0  0  0  0  0  0  0  0  0  0  0
   32.3670   29.5280   35.0400 C   0  0  0  0  0  0  0  0  0  0  0  0
   32.0760   29.6620   34.0230 H   0  0  0  0  0  0  0  0  0  0  0  0
   31.4980   29.8590   36.0540 C   0  0  0  0  0  3  0  0  0  0  0  0
   31.9310   29.6610   37.3480 C   0  0  0  0  0  3  0  0  0  0  0  0
  2  7  1  0  0  0  0
  2  1  1  0  0  0  0
  3  2  2  0  0  0  0
  4  5  2  0  0  0  0
  4  3  1  0  0  0  0
  5  6  1  0  0  0  0
  6  9  1  0  0  0  0
  6  7  2  0  0  0  0
  7 10  1  0  0  0  0
  8  5  1  0  0  0  0
 11 12  1  0  0  0  0
 11 17  1  0  0  0  0
 12 18  1  0  0  0  0
 13  3  1  0  0  0  0
 13 12  2  0  0  0  0
 14 13  1  0  0  0  0
 15 14  2  0  0  0  0
 15 16  1  0  0  0  0
 16 11  2  0  0  0  0
 19 15  1  0  0  0  0
 20  4  1  0  0  0  0
 21 26  1  0  0  0  0
 21 20  2  0  0  0  0
 22 21  1  0  0  0  0
 23 22  2  0  0  0  0
 23 24  1  0  0  0  0
 24 25  2  0  0  0  0
 25 20  1  0  0  0  0
 27 22  1  0  0  0  0
 28 23  1  0  0  0  0
 30 29  1  0  0  0  0
 31 24  1  0  0  0  0
 31 30  2  0  0  0  0
 32 31  1  0  0  0  0
 33 32  1  0  0  0  0
 34 32  2  0  0  0  0
 34 36  1  0  0  0  0
 35 34  1  0  0  0  0
 36 37  2  0  0  0  0
 37 30  1  0  0  0  0
M  END
>  <minimizedAffinity>
-6.14419651

$$$$

 OpenBabel03252502143D

 37 40  0  0  0  0  0  0  0  0999 V2000
   41.3190   32.0470   39.9180 Cl  0  0  0  0  0  0  0  0  0  0  0  0
   41.2300   30.7520   41.0950 C   0  0  0  0  0  0  0  0  0  0  0  0
   40.0850   30.0620   41.3100 C   0  0  0  0  0  0  0  0  0  0  0  0
   40.1310   29.0720   42.2520 C   0  0  0  0  0  0  0  0  0  0  0  0
   41.2570   28.7690   42.9580 C   0  0  0  0  0  0  0  0  0  0  0  0
   42.4200   29.4720   42.7340 C   0  0  0  0  0  0  0  0  0  0  0  0
   42.3870   30.4650   41.7950 C   0  0  0  0  0  0  0  0  0  0  0  0
   41.2400   27.9690   43.6990 H   0  0  0  0  0  0  0  0  0  0  0  0
   43.2930   29.2150   43.3010 H   0  0  0  0  0  0  0  0  0  0  0  0
   43.3040   31.0180   41.6210 H   0  0  0  0  0  0  0  0  0  0  0  0
   37.3910   30.1740   38.6490 C   0  0  0  0  0  0  0  0  0  0  0  0
   38.5370   29.8120   39.3560 C   0  0  0  0  0  0  0  0  0  0  0  0
   38.9020   30.4100   40.5440 C   0  0  0  0  0  0  0  0  0  0  0  0
   38.0520   31.3960   40.9850 N   0  0  0  0  0  0  0  0  0  0  0  0
   36.9510   31.7480   40.3080 C   0  0  0  0  0  0  0  0  0  0  0  0
   36.6100   31.1600   39.1610 N   0  0  0  0  0  0  0  0  0  0  0  0
   37.2500   29.6070   37.7360 H   0  0  0  0  0  0  0  0  0  0  0  0
   39.2210   29.0390   39.0290 H   0  0  0  0  0  0  0  0  0  0  0  0
   36.2920   32.5300   40.6730 H   0  0  0  0  0  0  0  0  0  0  0  0
   38.8990   28.2970   42.5160 C   0  0  0  0  0  0  0  0  0  0  0  0
   38.0710   28.7600   43.5320 C   0  0  0  0  0  0  0  0  0  0  0  0
   36.9590   27.9550   43.6800 C   0  0  0  0  0  0  0  0  0  0  0  0
   36.6460   26.8290   42.9550 C   0  0  0  0  0  0  0  0  0  0  0  0
   37.5440   26.4590   41.9650 C   0  0  0  0  0  0  0  0  0  0  0  0
   38.6340   27.2250   41.8000 N   0  0  0  0  0  0  0  0  0  0  0  0
   38.2430   29.6210   44.1390 H   0  0  0  0  0  0  0  0  0  0  0  0
   36.2340   28.2520   44.4790 H   0  0  0  0  0  0  0  0  0  0  0  0
   35.7580   26.2640   43.1390 H   0  0  0  0  0  0  0  0  0  0  0  0
   38.6810   24.0080   42.5920 F   0  0  0  0  0  0  0  0  0  0  0  0
   37.9160   24.0910   41.4700 C   0  0  0  0  0  0  0  0  0  0  0  0
   37.3340   25.2890   41.1240 C   0  0  0  0  0  0  0  0  0  0  0  0
   36.5810   25.2710   39.9730 C   0  0  0  0  0  0  0  0  0  0  0  0
   36.1020   26.1800   39.6540 H   0  0  0  0  0  0  0  0  0  0  0  0
   36.4000   24.1460   39.1970 C   0  0  0  0  0  0  0  0  0  0  0  0
   35.8040   24.1980   38.3160 H   0  0  0  0  0  0  0  0  0  0  0  0
   36.9900   22.9570   39.5600 C   0  0  0  0  0  3  0  0  0  0  0  0
   37.7510   22.9520   40.7100 C   0  0  0  0  0  3  0  0  0  0  0  0
  1  2  1  0  0  0  0
  2  3  2  0  0  0  0
  2  7  1  0  0  0  0
  3  4  1  0  0  0  0
  4 20  1  0  0  0  0
  4  5  2  0  0  0  0
  5  8  1  0  0  0  0
  6  5  1  0  0  0  0
  6  9  1  0  0  0  0
  7  6  2  0  0  0  0
 10  7  1  0  0  0  0
 11 16  2  0  0  0  0
 11 12  1  0  0  0  0
 12 13  2  0  0  0  0
 13 14  1  0  0  0  0
 13  3  1  0  0  0  0
 15 19  1  0  0  0  0
 15 14  2  0  0  0  0
 16 15  1  0  0  0  0
 17 11  1  0  0  0  0
 18 12  1  0  0  0  0
 20 21  1  0  0  0  0
 21 22  2  0  0  0  0
 21 26  1  0  0  0  0
 22 27  1  0  0  0  0
 23 28  1  0  0  0  0
 23 22  1  0  0  0  0
 24 23  2  0  0  0  0
 25 24  1  0  0  0  0
 25 20  2  0  0  0  0
 30 29  1  0  0  0  0
 31 30  1  0  0  0  0
 31 24  1  0  0  0  0
 32 31  2  0  0  0  0
 33 32  1  0  0  0  0
 34 36  2  0  0  0  0
 34 32  1  0  0  0  0
 35 34  1  0  0  0  0
 36 37  1  0  0  0  0
 37 30  2  0  0  0  0
M  END
>  <minimizedAffinity>
-6.11921883

$$$$

 OpenBabel03252502143D

 37 40  0  0  0  0  0  0  0  0999 V2000
   36.8870   29.9950   36.5210 Cl  0  0  0  0  0  0  0  0  0  0  0  0
   36.7750   28.6040   37.5800 C   0  0  0  0  0  0  0  0  0  0  0  0
   37.1160   28.6760   38.8890 C   0  0  0  0  0  0  0  0  0  0  0  0
   36.9890   27.5290   39.6220 C   0  0  0  0  0  0  0  0  0  0  0  0
   36.5450   26.3540   39.0930 C   0  0  0  0  0  0  0  0  0  0  0  0
   36.1980   26.2860   37.7610 C   0  0  0  0  0  0  0  0  0  0  0  0
   36.3210   27.4260   37.0170 C   0  0  0  0  0  0  0  0  0  0  0  0
   36.4620   25.4670   39.7210 H   0  0  0  0  0  0  0  0  0  0  0  0
   35.8520   25.3500   37.3670 H   0  0  0  0  0  0  0  0  0  0  0  0
   36.0490   27.3710   35.9690 H   0  0  0  0  0  0  0  0  0  0  0  0
   37.2590   32.1230   40.4550 C   0  0  0  0  0  0  0  0  0  0  0  0
   36.7690   30.9190   39.9520 C   0  0  0  0  0  0  0  0  0  0  0  0
   37.5860   29.9420   39.4220 C   0  0  0  0  0  0  0  0  0  0  0  0
   38.9280   30.2410   39.4250 N   0  0  0  0  0  0  0  0  0  0  0  0
   39.4030   31.3960   39.9070 C   0  0  0  0  0  0  0  0  0  0  0  0
   38.6010   32.3310   40.4160 N   0  0  0  0  0  0  0  0  0  0  0  0
   36.4850   32.7810   40.8330 H   0  0  0  0  0  0  0  0  0  0  0  0
   35.7180   30.6610   39.9380 H   0  0  0  0  0  0  0  0  0  0  0  0
   40.4670   31.6140   39.9010 H   0  0  0  0  0  0  0  0  0  0  0  0
   37.3520   27.5690   41.0550 C   0  0  0  0  0  0  0  0  0  0  0  0
   36.3210   27.8040   41.9570 C   0  0  0  0  0  0  0  0  0  0  0  0
   36.7860   27.8180   43.2580 C   0  0  0  0  0  0  0  0  0  0  0  0
   38.0810   27.6320   43.6800 C   0  0  0  0  0  0  0  0  0  0  0  0
   39.0280   27.4050   42.6930 C   0  0  0  0  0  0  0  0  0  0  0  0
   38.6030   27.3860   41.4190 N   0  0  0  0  0  0  0  0  0  0  0  0
   35.2940   27.9580   41.7110 H   0  0  0  0  0  0  0  0  0  0  0  0
   36.0220   28.0010   44.0550 H   0  0  0  0  0  0  0  0  0  0  0  0
   38.3510   27.6590   44.7130 H   0  0  0  0  0  0  0  0  0  0  0  0
   40.0170   24.8730   43.2460 F   0  0  0  0  0  0  0  0  0  0  0  0
   40.8870   25.9200   43.2700 C   0  0  0  0  0  0  0  0  0  0  0  0
   40.4350   27.1920   43.0010 C   0  0  0  0  0  0  0  0  0  0  0  0
   41.3890   28.1810   43.0500 C   0  0  0  0  0  0  0  0  0  0  0  0
   41.0940   29.1950   42.8480 H   0  0  0  0  0  0  0  0  0  0  0  0
   42.7160   27.9480   43.3440 C   0  0  0  0  0  0  0  0  0  0  0  0
   43.4060   28.7590   43.3660 H   0  0  0  0  0  0  0  0  0  0  0  0
   43.1480   26.6690   43.6100 C   0  0  0  0  0  3  0  0  0  0  0  0
   42.2080   25.6610   43.5670 C   0  0  0  0  0  3  0  0  0  0  0  0
  1  2  1  0  0  0  0
  2  3  1  0  0  0  0
  3 13  1  0  0  0  0
  3  4  2  0  0  0  0
  4 20  1  0  0  0  0
  5  4  1  0  0  0  0
  5  8  1  0  0  0  0
  6  5  2  0  0  0  0
  7  2  2  0  0  0  0
  7  6  1  0  0  0  0
  9  6  1  0  0  0  0
 10  7  1  0  0  0  0
 11 17  1  0  0  0  0
 12 11  2  0  0  0  0
 13 14  2  0  0  0  0
 13 12  1  0  0  0  0
 14 15  1  0  0  0  0
 15 16  2  0  0  0  0
 16 11  1  0  0  0  0
 18 12  1  0  0  0  0
 19 15  1  0  0  0  0
 20 25  2  0  0  0  0
 20 21  1  0  0  0  0
 21 22  2  0  0  0  0
 22 23  1  0  0  0  0
 22 27  1  0  0  0  0
 23 28  1  0  0  0  0
 24 31  1  0  0  0  0
 24 23  2  0  0  0  0
 25 24  1  0  0  0  0
 26 21  1  0  0  0  0
 29 30  1  0  0  0  0
 30 37  1  0  0  0  0
 31 32  1  0  0  0  0
 31 30  2  0  0  0  0
 32 34  2  0  0  0  0
 33 32  1  0  0  0  0
 34 35  1  0  0  0  0
 34 36  1  0  0  0  0
 37 36  2  0  0  0  0
M  END
>  <minimizedAffinity>
-5.96823931

$$$$

 OpenBabel03252502143D

 37 40  0  0  0  0  0  0  0  0999 V2000
   40.0640   23.2520   38.7900 Cl  0  0  0  0  0  0  0  0  0  0  0  0
   38.6280   24.1900   39.1490 C   0  0  0  0  0  0  0  0  0  0  0  0
   38.6300   25.1610   40.0930 C   0  0  0  0  0  0  0  0  0  0  0  0
   37.4540   25.8300   40.2910 C   0  0  0  0  0  0  0  0  0  0  0  0
   36.3180   25.5580   39.5890 C   0  0  0  0  0  0  0  0  0  0  0  0
   36.3210   24.5710   38.6280 C   0  0  0  0  0  0  0  0  0  0  0  0
   37.4910   23.8940   38.4220 C   0  0  0  0  0  0  0  0  0  0  0  0
   35.4050   26.1220   39.7840 H   0  0  0  0  0  0  0  0  0  0  0  0
   35.4150   24.3750   38.0880 H   0  0  0  0  0  0  0  0  0  0  0  0
   37.4920   23.1170   37.6660 H   0  0  0  0  0  0  0  0  0  0  0  0
   41.3820   25.1150   42.6970 C   0  0  0  0  0  0  0  0  0  0  0  0
   40.1940   24.8350   42.0240 C   0  0  0  0  0  0  0  0  0  0  0  0
   39.8560   25.4260   40.8250 C   0  0  0  0  0  0  0  0  0  0  0  0
   40.7790   26.3190   40.3360 N   0  0  0  0  0  0  0  0  0  0  0  0
   41.9220   26.5920   40.9780 C   0  0  0  0  0  0  0  0  0  0  0  0
   42.2350   26.0120   42.1370 N   0  0  0  0  0  0  0  0  0  0  0  0
   41.4930   24.5660   43.6250 H   0  0  0  0  0  0  0  0  0  0  0  0
   39.4520   24.1360   42.3890 H   0  0  0  0  0  0  0  0  0  0  0  0
   42.6390   27.3010   40.5760 H   0  0  0  0  0  0  0  0  0  0  0  0
   37.4170   26.8970   41.3140 C   0  0  0  0  0  0  0  0  0  0  0  0
   37.0510   26.5200   42.6010 C   0  0  0  0  0  0  0  0  0  0  0  0
   37.0540   27.6010   43.4600 C   0  0  0  0  0  0  0  0  0  0  0  0
   37.3650   28.9040   43.1560 C   0  0  0  0  0  0  0  0  0  0  0  0
   37.7160   29.1670   41.8400 C   0  0  0  0  0  0  0  0  0  0  0  0
   37.7220   28.1330   40.9820 N   0  0  0  0  0  0  0  0  0  0  0  0
   36.7950   25.5340   42.9170 H   0  0  0  0  0  0  0  0  0  0  0  0
   36.7700   27.3900   44.5220 H   0  0  0  0  0  0  0  0  0  0  0  0
   37.3400   29.6810   43.8890 H   0  0  0  0  0  0  0  0  0  0  0  0
   35.8730   30.7790   40.5370 F   0  0  0  0  0  0  0  0  0  0  0  0
   37.1260   31.2720   40.7390 C   0  0  0  0  0  0  0  0  0  0  0  0
   38.0690   30.5030   41.3820 C   0  0  0  0  0  0  0  0  0  0  0  0
   39.3040   31.0880   41.5360 C   0  0  0  0  0  0  0  0  0  0  0  0
   40.0800   30.5340   42.0320 H   0  0  0  0  0  0  0  0  0  0  0  0
   39.6080   32.3570   41.0920 C   0  0  0  0  0  0  0  0  0  0  0  0
   40.5850   32.7540   41.2430 H   0  0  0  0  0  0  0  0  0  0  0  0
   38.6510   33.1110   40.4520 C   0  0  0  0  0  3  0  0  0  0  0  0
   37.4050   32.5430   40.2840 C   0  0  0  0  0  3  0  0  0  0  0  0
  1  2  1  0  0  0  0
  2  3  1  0  0  0  0
  3  4  2  0  0  0  0
  3 13  1  0  0  0  0
  4 20  1  0  0  0  0
  5  8  1  0  0  0  0
  5  4  1  0  0  0  0
  6  5  2  0  0  0  0
  7  6  1  0  0  0  0
  7  2  2  0  0  0  0
  9  6  1  0  0  0  0
 10  7  1  0  0  0  0
 11 17  1  0  0  0  0
 12 18  1  0  0  0  0
 12 11  2  0  0  0  0
 13 12  1  0  0  0  0
 14 13  2  0  0  0  0
 14 15  1  0  0  0  0
 15 16  2  0  0  0  0
 16 11  1  0  0  0  0
 19 15  1  0  0  0  0
 20 21  1  0  0  0  0
 21 26  1  0  0  0  0
 21 22  2  0  0  0  0
 22 27  1  0  0  0  0
 23 22  1  0  0  0  0
 23 28  1  0  0  0  0
 24 23  2  0  0  0  0
 25 20  2  0  0  0  0
 25 24  1  0  0  0  0
 29 30  1  0  0  0  0
 30 31  1  0  0  0  0
 31 32  2  0  0  0  0
 31 24  1  0  0  0  0
 32 33  1  0  0  0  0
 34 35  1  0  0  0  0
 34 32  1  0  0  0  0
 36 34  2  0  0  0  0
 37 36  1  0  0  0  0
 37 30  2  0  0  0  0
M  END
>  <minimizedAffinity>
-5.8819232

$$$$

 OpenBabel03252502143D

 37 40  0  0  0  0  0  0  0  0999 V2000
   36.8330   25.3250   40.8470 Cl  0  0  0  0  0  0  0  0  0  0  0  0
   37.2200   26.8610   41.5960 C   0  0  0  0  0  0  0  0  0  0  0  0
   37.3410   27.9970   40.8700 C   0  0  0  0  0  0  0  0  0  0  0  0
   37.6460   29.1380   41.5590 C   0  0  0  0  0  0  0  0  0  0  0  0
   37.8260   29.1660   42.9090 C   0  0  0  0  0  0  0  0  0  0  0  0
   37.7000   28.0070   43.6450 C   0  0  0  0  0  0  0  0  0  0  0  0
   37.3960   26.8600   42.9670 C   0  0  0  0  0  0  0  0  0  0  0  0
   38.0670   30.1030   43.4110 H   0  0  0  0  0  0  0  0  0  0  0  0
   37.8460   28.0530   44.7060 H   0  0  0  0  0  0  0  0  0  0  0  0
   37.2980   25.9480   43.5470 H   0  0  0  0  0  0  0  0  0  0  0  0
   35.7880   28.0620   37.4150 C   0  0  0  0  0  0  0  0  0  0  0  0
   35.9360   28.1290   38.7990 C   0  0  0  0  0  0  0  0  0  0  0  0
   37.1450   27.9350   39.4320 C   0  0  0  0  0  0  0  0  0  0  0  0
   38.2030   27.6680   38.5970 N   0  0  0  0  0  0  0  0  0  0  0  0
   38.0660   27.6020   37.2660 C   0  0  0  0  0  0  0  0  0  0  0  0
   36.8900   27.7920   36.6680 N   0  0  0  0  0  0  0  0  0  0  0  0
   34.7720   28.2380   37.0800 H   0  0  0  0  0  0  0  0  0  0  0  0
   35.1180   28.3380   39.4780 H   0  0  0  0  0  0  0  0  0  0  0  0
   38.9140   27.3890   36.6220 H   0  0  0  0  0  0  0  0  0  0  0  0
   37.7870   30.4000   40.7990 C   0  0  0  0  0  0  0  0  0  0  0  0
   36.6610   31.2110   40.7140 C   0  0  0  0  0  0  0  0  0  0  0  0
   36.9200   32.3530   39.9830 C   0  0  0  0  0  0  0  0  0  0  0  0
   38.1070   32.7080   39.3870 C   0  0  0  0  0  0  0  0  0  0  0  0
   39.1640   31.8230   39.5360 C   0  0  0  0  0  0  0  0  0  0  0  0
   38.9410   30.7040   40.2430 N   0  0  0  0  0  0  0  0  0  0  0  0
   35.7070   31.0070   41.1460 H   0  0  0  0  0  0  0  0  0  0  0  0
   36.0670   33.0670   39.8610 H   0  0  0  0  0  0  0  0  0  0  0  0
   38.2170   33.6170   38.8370 H   0  0  0  0  0  0  0  0  0  0  0  0
   41.2430   32.8450   41.0630 F   0  0  0  0  0  0  0  0  0  0  0  0
   41.4820   32.5840   39.7490 C   0  0  0  0  0  0  0  0  0  0  0  0
   40.4760   32.0760   38.9580 C   0  0  0  0  0  0  0  0  0  0  0  0
   40.8150   31.8480   37.6450 C   0  0  0  0  0  0  0  0  0  0  0  0
   40.0700   31.4510   36.9800 H   0  0  0  0  0  0  0  0  0  0  0  0
   42.0690   32.0970   37.1260 C   0  0  0  0  0  0  0  0  0  0  0  0
   42.2680   31.8980   36.0980 H   0  0  0  0  0  0  0  0  0  0  0  0
   43.0600   32.6040   37.9340 C   0  0  0  0  0  3  0  0  0  0  0  0
   42.7420   32.8430   39.2540 C   0  0  0  0  0  3  0  0  0  0  0  0
  1  2  1  0  0  0  0
  2  7  1  0  0  0  0
  3  4  1  0  0  0  0
  3  2  2  0  0  0  0
  4  5  2  0  0  0  0
  5  8  1  0  0  0  0
  5  6  1  0  0  0  0
  6  9  1  0  0  0  0
  7 10  1  0  0  0  0
  7  6  2  0  0  0  0
 11 12  1  0  0  0  0
 12 13  2  0  0  0  0
 12 18  1  0  0  0  0
 13  3  1  0  0  0  0
 14 13  1  0  0  0  0
 15 14  2  0  0  0  0
 16 15  1  0  0  0  0
 16 11  2  0  0  0  0
 17 11  1  0  0  0  0
 19 15  1  0  0  0  0
 20  4  1  0  0  0  0
 21 20  1  0  0  0  0
 21 26  1  0  0  0  0
 22 21  2  0  0  0  0
 23 24  2  0  0  0  0
 23 22  1  0  0  0  0
 24 25  1  0  0  0  0
 25 20  2  0  0  0  0
 27 22  1  0  0  0  0
 28 23  1  0  0  0  0
 30 29  1  0  0  0  0
 31 24  1  0  0  0  0
 31 30  2  0  0  0  0
 32 31  1  0  0  0  0
 33 32  1  0  0  0  0
 34 32  2  0  0  0  0
 34 36  1  0  0  0  0
 35 34  1  0  0  0  0
 36 37  2  0  0  0  0
 37 30  1  0  0  0  0
M  END
>  <minimizedAffinity>
-5.87484026

$$$$

 OpenBabel03252502143D

 37 40  0  0  0  0  0  0  0  0999 V2000
   36.6310   29.2400   36.2550 Cl  0  0  0  0  0  0  0  0  0  0  0  0
   36.6360   28.0620   37.5520 C   0  0  0  0  0  0  0  0  0  0  0  0
   36.9940   28.3950   38.8150 C   0  0  0  0  0  0  0  0  0  0  0  0
   36.9610   27.3960   39.7480 C   0  0  0  0  0  0  0  0  0  0  0  0
   36.5920   26.1170   39.4540 C   0  0  0  0  0  0  0  0  0  0  0  0
   36.2270   25.7830   38.1680 C   0  0  0  0  0  0  0  0  0  0  0  0
   36.2560   26.7740   37.2270 C   0  0  0  0  0  0  0  0  0  0  0  0
   36.5820   25.3570   40.2360 H   0  0  0  0  0  0  0  0  0  0  0  0
   35.9400   24.7710   37.9610 H   0  0  0  0  0  0  0  0  0  0  0  0
   35.9700   26.5090   36.2140 H   0  0  0  0  0  0  0  0  0  0  0  0
   36.9650   32.0230   39.9080 C   0  0  0  0  0  0  0  0  0  0  0  0
   36.5540   30.7160   39.6530 C   0  0  0  0  0  0  0  0  0  0  0  0
   37.3830   29.7660   39.0950 C   0  0  0  0  0  0  0  0  0  0  0  0
   38.6540   30.2010   38.8050 N   0  0  0  0  0  0  0  0  0  0  0  0
   39.0540   31.4560   39.0470 C   0  0  0  0  0  0  0  0  0  0  0  0
   38.2400   32.3640   39.5870 N   0  0  0  0  0  0  0  0  0  0  0  0
   36.1920   32.6420   40.3480 H   0  0  0  0  0  0  0  0  0  0  0  0
   35.5590   30.3490   39.8730 H   0  0  0  0  0  0  0  0  0  0  0  0
   40.0630   31.7820   38.8110 H   0  0  0  0  0  0  0  0  0  0  0  0
   37.3460   27.7220   41.1380 C   0  0  0  0  0  0  0  0  0  0  0  0
   36.3870   27.5080   42.1210 C   0  0  0  0  0  0  0  0  0  0  0  0
   36.8650   27.8480   43.3710 C   0  0  0  0  0  0  0  0  0  0  0  0
   38.1110   28.3400   43.6790 C   0  0  0  0  0  0  0  0  0  0  0  0
   38.9880   28.5140   42.6190 C   0  0  0  0  0  0  0  0  0  0  0  0
   38.5490   28.1900   41.3920 N   0  0  0  0  0  0  0  0  0  0  0  0
   35.4010   27.1310   41.9650 H   0  0  0  0  0  0  0  0  0  0  0  0
   36.1580   27.7090   44.2270 H   0  0  0  0  0  0  0  0  0  0  0  0
   38.3960   28.5780   44.6800 H   0  0  0  0  0  0  0  0  0  0  0  0
   39.5560   31.2160   42.3530 F   0  0  0  0  0  0  0  0  0  0  0  0
   40.5790   30.3740   42.6630 C   0  0  0  0  0  0  0  0  0  0  0  0
   40.3380   29.0260   42.8040 C   0  0  0  0  0  0  0  0  0  0  0  0
   41.4360   28.2580   43.1170 C   0  0  0  0  0  0  0  0  0  0  0  0
   41.3070   27.1980   43.2410 H   0  0  0  0  0  0  0  0  0  0  0  0
   42.7040   28.7740   43.2870 C   0  0  0  0  0  0  0  0  0  0  0  0
   43.5130   28.1240   43.5300 H   0  0  0  0  0  0  0  0  0  0  0  0
   42.9240   30.1240   43.1420 C   0  0  0  0  0  3  0  0  0  0  0  0
   41.8380   30.9130   42.8270 C   0  0  0  0  0  3  0  0  0  0  0  0
  1  2  1  0  0  0  0
  2  3  1  0  0  0  0
  3 13  1  0  0  0  0
  3  4  2  0  0  0  0
  4 20  1  0  0  0  0
  5  4  1  0  0  0  0
  5  8  1  0  0  0  0
  6  5  2  0  0  0  0
  7  2  2  0  0  0  0
  7  6  1  0  0  0  0
  9  6  1  0  0  0  0
 10  7  1  0  0  0  0
 11 17  1  0  0  0  0
 12 18  1  0  0  0  0
 12 11  1  0  0  0  0
 13 12  2  0  0  0  0
 14 15  2  0  0  0  0
 14 13  1  0  0  0  0
 15 16  1  0  0  0  0
 16 11  2  0  0  0  0
 19 15  1  0  0  0  0
 20 25  2  0  0  0  0
 20 21  1  0  0  0  0
 21 22  2  0  0  0  0
 22 23  1  0  0  0  0
 22 27  1  0  0  0  0
 23 28  1  0  0  0  0
 24 31  1  0  0  0  0
 24 23  2  0  0  0  0
 25 24  1  0  0  0  0
 26 21  1  0  0  0  0
 29 30  1  0  0  0  0
 30 31  2  0  0  0  0
 30 37  1  0  0  0  0
 31 32  1  0  0  0  0
 32 33  1  0  0  0  0
 32 34  2  0  0  0  0
 34 35  1  0  0  0  0
 36 34  1  0  0  0  0
 37 36  2  0  0  0  0
M  END
>  <minimizedAffinity>
-5.82471323

$$$$

 OpenBabel03252502143D

 37 40  0  0  0  0  0  0  0  0999 V2000
   35.7260   25.3500   37.1070 Cl  0  0  0  0  0  0  0  0  0  0  0  0
   35.6770   26.7500   38.1610 C   0  0  0  0  0  0  0  0  0  0  0  0
   36.3640   26.7880   39.3270 C   0  0  0  0  0  0  0  0  0  0  0  0
   36.2520   27.9300   40.0700 C   0  0  0  0  0  0  0  0  0  0  0  0
   35.4960   28.9970   39.6840 C   0  0  0  0  0  0  0  0  0  0  0  0
   34.8010   28.9540   38.4950 C   0  0  0  0  0  0  0  0  0  0  0  0
   34.9030   27.8170   37.7440 C   0  0  0  0  0  0  0  0  0  0  0  0
   35.4420   29.8860   40.3130 H   0  0  0  0  0  0  0  0  0  0  0  0
   34.2130   29.8060   38.2130 H   0  0  0  0  0  0  0  0  0  0  0  0
   34.3540   27.7840   36.8090 H   0  0  0  0  0  0  0  0  0  0  0  0
   37.4870   23.4890   40.8120 C   0  0  0  0  0  0  0  0  0  0  0  0
   36.6920   24.5790   40.4640 C   0  0  0  0  0  0  0  0  0  0  0  0
   37.1590   25.6350   39.7110 C   0  0  0  0  0  0  0  0  0  0  0  0
   38.4740   25.5380   39.3250 N   0  0  0  0  0  0  0  0  0  0  0  0
   39.2430   24.4930   39.6570 C   0  0  0  0  0  0  0  0  0  0  0  0
   38.7770   23.4780   40.3860 N   0  0  0  0  0  0  0  0  0  0  0  0
   36.9670   22.7460   41.4070 H   0  0  0  0  0  0  0  0  0  0  0  0
   35.6540   24.6780   40.7560 H   0  0  0  0  0  0  0  0  0  0  0  0
   40.2810   24.4340   39.3420 H   0  0  0  0  0  0  0  0  0  0  0  0
   36.9880   28.0090   41.3500 C   0  0  0  0  0  0  0  0  0  0  0  0
   36.3070   27.6000   42.4910 C   0  0  0  0  0  0  0  0  0  0  0  0
   37.0970   27.7200   43.6170 C   0  0  0  0  0  0  0  0  0  0  0  0
   38.3920   28.1770   43.6790 C   0  0  0  0  0  0  0  0  0  0  0  0
   38.9730   28.5590   42.4790 C   0  0  0  0  0  0  0  0  0  0  0  0
   38.2270   28.4520   41.3680 N   0  0  0  0  0  0  0  0  0  0  0  0
   35.3050   27.2350   42.5270 H   0  0  0  0  0  0  0  0  0  0  0  0
   36.6300   27.4130   44.5860 H   0  0  0  0  0  0  0  0  0  0  0  0
   38.9300   28.2370   44.6000 H   0  0  0  0  0  0  0  0  0  0  0  0
   39.5640   31.2210   42.9860 F   0  0  0  0  0  0  0  0  0  0  0  0
   40.5900   30.3880   42.6600 C   0  0  0  0  0  0  0  0  0  0  0  0
   40.3380   29.0600   42.4010 C   0  0  0  0  0  0  0  0  0  0  0  0
   41.4390   28.3010   42.0800 C   0  0  0  0  0  0  0  0  0  0  0  0
   41.3020   27.2560   41.8690 H   0  0  0  0  0  0  0  0  0  0  0  0
   42.7210   28.8050   42.0160 C   0  0  0  0  0  0  0  0  0  0  0  0
   43.5320   28.1630   41.7610 H   0  0  0  0  0  0  0  0  0  0  0  0
   42.9520   30.1360   42.2780 C   0  0  0  0  0  3  0  0  0  0  0  0
   41.8620   30.9160   42.6010 C   0  0  0  0  0  3  0  0  0  0  0  0
  1  2  1  0  0  0  0
  2  3  1  0  0  0  0
  3 13  1  0  0  0  0
  3  4  2  0  0  0  0
  4 20  1  0  0  0  0
  5  4  1  0  0  0  0
  5  8  1  0  0  0  0
  6  5  2  0  0  0  0
  7  2  2  0  0  0  0
  7  6  1  0  0  0  0
  9  6  1  0  0  0  0
 10  7  1  0  0  0  0
 11 17  1  0  0  0  0
 12 18  1  0  0  0  0
 12 11  1  0  0  0  0
 13 12  2  0  0  0  0
 14 15  2  0  0  0  0
 14 13  1  0  0  0  0
 15 16  1  0  0  0  0
 16 11  2  0  0  0  0
 19 15  1  0  0  0  0
 20 25  2  0  0  0  0
 20 21  1  0  0  0  0
 21 26  1  0  0  0  0
 21 22  2  0  0  0  0
 22 23  1  0  0  0  0
 22 27  1  0  0  0  0
 23 28  1  0  0  0  0
 24 23  2  0  0  0  0
 25 24  1  0  0  0  0
 30 29  1  0  0  0  0
 31 24  1  0  0  0  0
 31 30  2  0  0  0  0
 32 31  1  0  0  0  0
 33 32  1  0  0  0  0
 34 32  2  0  0  0  0
 34 36  1  0  0  0  0
 35 34  1  0  0  0  0
 36 37  2  0  0  0  0
 37 30  1  0  0  0  0
M  END
>  <minimizedAffinity>
-5.79772997

$$$$

 OpenBabel03252502143D

 37 40  0  0  0  0  0  0  0  0999 V2000
   36.9570   24.7210   37.1750 Cl  0  0  0  0  0  0  0  0  0  0  0  0
   37.2780   24.5640   38.8900 C   0  0  0  0  0  0  0  0  0  0  0  0
   37.3010   25.6400   39.7110 C   0  0  0  0  0  0  0  0  0  0  0  0
   37.5620   25.4010   41.0320 C   0  0  0  0  0  0  0  0  0  0  0  0
   37.7920   24.1530   41.5300 C   0  0  0  0  0  0  0  0  0  0  0  0
   37.7670   23.0610   40.6910 C   0  0  0  0  0  0  0  0  0  0  0  0
   37.5070   23.2870   39.3680 C   0  0  0  0  0  0  0  0  0  0  0  0
   37.9950   24.0160   42.5930 H   0  0  0  0  0  0  0  0  0  0  0  0
   37.9510   22.0890   41.1050 H   0  0  0  0  0  0  0  0  0  0  0  0
   37.4880   22.4260   38.7080 H   0  0  0  0  0  0  0  0  0  0  0  0
   35.6280   28.8520   38.5990 C   0  0  0  0  0  0  0  0  0  0  0  0
   35.8260   27.5860   39.1480 C   0  0  0  0  0  0  0  0  0  0  0  0
   37.0530   26.9560   39.1510 C   0  0  0  0  0  0  0  0  0  0  0  0
   38.0750   27.6680   38.5690 N   0  0  0  0  0  0  0  0  0  0  0  0
   37.8890   28.8850   38.0410 C   0  0  0  0  0  0  0  0  0  0  0  0
   36.6970   29.4810   38.0450 N   0  0  0  0  0  0  0  0  0  0  0  0
   34.6050   29.2020   38.6780 H   0  0  0  0  0  0  0  0  0  0  0  0
   35.0380   27.0060   39.6100 H   0  0  0  0  0  0  0  0  0  0  0  0
   38.7090   29.4320   37.5850 H   0  0  0  0  0  0  0  0  0  0  0  0
   37.5960   26.5510   41.9600 C   0  0  0  0  0  0  0  0  0  0  0  0
   36.5490   26.6560   42.8690 C   0  0  0  0  0  0  0  0  0  0  0  0
   36.6950   27.7670   43.6760 C   0  0  0  0  0  0  0  0  0  0  0  0
   37.7110   28.6910   43.6430 C   0  0  0  0  0  0  0  0  0  0  0  0
   38.7030   28.4890   42.6950 C   0  0  0  0  0  0  0  0  0  0  0  0
   38.5870   27.4150   41.8970 N   0  0  0  0  0  0  0  0  0  0  0  0
   35.7260   25.9830   42.9590 H   0  0  0  0  0  0  0  0  0  0  0  0
   35.8950   27.9320   44.4410 H   0  0  0  0  0  0  0  0  0  0  0  0
   37.7430   29.5250   44.3100 H   0  0  0  0  0  0  0  0  0  0  0  0
   38.4090   31.0090   41.5750 F   0  0  0  0  0  0  0  0  0  0  0  0
   39.6490   30.6340   41.9910 C   0  0  0  0  0  0  0  0  0  0  0  0
   39.8360   29.3910   42.5520 C   0  0  0  0  0  0  0  0  0  0  0  0
   41.1250   29.1050   42.9380 C   0  0  0  0  0  0  0  0  0  0  0  0
   41.3310   28.1480   43.3840 H   0  0  0  0  0  0  0  0  0  0  0  0
   42.1790   29.9820   42.7900 C   0  0  0  0  0  0  0  0  0  0  0  0
   43.1550   29.6990   43.1110 H   0  0  0  0  0  0  0  0  0  0  0  0
   41.9710   31.2200   42.2270 C   0  0  0  0  0  3  0  0  0  0  0  0
   40.6860   31.5280   41.8310 C   0  0  0  0  0  3  0  0  0  0  0  0
  1  2  1  0  0  0  0
  2  7  2  0  0  0  0
  2  3  1  0  0  0  0
  3  4  2  0  0  0  0
  4  5  1  0  0  0  0
  4 20  1  0  0  0  0
  5  8  1  0  0  0  0
  6  9  1  0  0  0  0
  6  5  2  0  0  0  0
  7  6  1  0  0  0  0
 10  7  1  0  0  0  0
 11 17  1  0  0  0  0
 11 12  1  0  0  0  0
 12 13  2  0  0  0  0
 12 18  1  0  0  0  0
 13  3  1  0  0  0  0
 14 13  1  0  0  0  0
 15 16  1  0  0  0  0
 15 14  2  0  0  0  0
 16 11  2  0  0  0  0
 19 15  1  0  0  0  0
 20 21  1  0  0  0  0
 21 26  1  0  0  0  0
 21 22  2  0  0  0  0
 22 27  1  0  0  0  0
 23 22  1  0  0  0  0
 23 28  1  0  0  0  0
 24 23  2  0  0  0  0
 25 20  2  0  0  0  0
 25 24  1  0  0  0  0
 29 30  1  0  0  0  0
 30 31  1  0  0  0  0
 31 24  1  0  0  0  0
 31 32  2  0  0  0  0
 32 33  1  0  0  0  0
 34 32  1  0  0  0  0
 34 35  1  0  0  0  0
 36 34  2  0  0  0  0
 37 30  2  0  0  0  0
 37 36  1  0  0  0  0
M  END
>  <minimizedAffinity>
-5.75577259

$$$$
