
 OpenBabel03242518393D

 39 42  0  0  1  0  0  0  0  0999 V2000
   47.3160   33.5410   40.9720 O   0  0  0  0  0  0  0  0  0  0  0  0
   47.4390   33.7140   39.5690 C   0  0  0  0  0  0  0  0  0  0  0  0
   48.3620   34.4250   38.7910 C   0  0  0  0  0  0  0  0  0  0  0  0
   48.0340   34.2700   37.4580 C   0  0  0  0  0  0  0  0  0  0  0  0
   46.9320   33.4770   37.4830 C   0  0  0  0  0  0  0  0  0  0  0  0
   46.5840   33.1520   38.7230 O   0  0  0  0  0  0  0  0  0  0  0  0
   49.1730   34.9780   39.2740 H   0  0  0  0  0  0  0  0  0  0  0  0
   48.5830   34.7140   36.6460 H   0  0  0  0  0  0  0  0  0  0  0  0
   46.2030   33.0290   36.2800 C   0  0  2  0  0  0  0  0  0  0  0  0
   45.8660   31.6220   36.0840 C   0  0  0  0  0  0  0  0  0  0  0  0
   47.0530   32.1260   35.3450 C   0  0  1  0  0  0  0  0  0  0  0  0
   45.5950   33.7990   35.7770 H   0  0  0  0  0  0  0  0  0  0  0  0
   44.9630   31.3430   35.4860 H   0  0  0  0  0  0  0  0  0  0  0  0
   46.0480   30.8510   36.8810 H   0  0  0  0  0  0  0  0  0  0  0  0
   48.0840   31.9380   35.6500 H   0  0  0  0  0  0  0  0  0  0  0  0
   47.9460   32.5970   33.0730 C   0  0  0  0  0  0  0  0  0  0  0  0
   49.1450   32.5820   33.4780 O   0  0  0  0  0  0  0  0  0  0  0  0
   46.8330   32.4190   33.9320 N   0  0  0  0  0  0  0  0  0  0  0  0
   47.6970   32.7500   32.0140 H   0  0  0  0  0  0  0  0  0  0  0  0
   45.8510   32.4950   33.5670 H   0  0  0  0  0  0  0  0  0  0  0  0
   47.4280   34.6820   41.8070 C   0  0  0  0  0  0  0  0  0  0  0  0
   48.2940   35.5390   41.4690 O   0  0  0  0  0  0  0  0  0  0  0  0
   46.5610   34.7380   42.9260 C   0  0  0  0  0  0  0  0  0  0  0  0
   45.5880   35.6840   42.8810 C   0  0  0  0  0  0  0  0  0  0  0  0
   44.7020   35.7940   43.9480 C   0  0  0  0  0  0  0  0  0  0  0  0
   44.8490   34.9540   44.9840 N   0  0  0  0  0  0  0  0  0  0  0  0
   45.8130   34.0290   45.0100 C   0  0  0  0  0  0  0  0  0  0  0  0
   46.6420   33.9550   43.9680 N   0  0  0  0  0  0  0  0  0  0  0  0
   45.4010   36.3990   42.0850 H   0  0  0  0  0  0  0  0  0  0  0  0
   43.9040   36.5240   43.9780 H   0  0  0  0  0  0  0  0  0  0  0  0
   44.3600   34.1790   47.3880 F   0  0  0  0  0  0  0  0  0  0  0  0
   45.2980   33.1950   47.2530 C   0  0  0  0  0  0  0  0  0  0  0  0
   46.0450   33.0770   46.0940 C   0  0  0  0  0  0  0  0  0  0  0  0
   46.9730   32.0570   46.0320 C   0  0  0  0  0  0  0  0  0  0  0  0
   47.5290   32.0160   45.0970 H   0  0  0  0  0  0  0  0  0  0  0  0
   47.1370   31.1960   47.0950 C   0  0  0  0  0  0  0  0  0  0  0  0
   47.8830   30.4190   46.9780 H   0  0  0  0  0  0  0  0  0  0  0  0
   46.3730   31.3450   48.2340 C   0  0  0  0  0  0  0  0  0  0  0  0
   45.4270   32.3500   48.3520 C   0  0  0  0  0  0  0  0  0  0  0  0
  1 21  1  0  0  0  0
  2  1  1  0  0  0  0
  3  7  1  0  0  0  0
  3  2  2  0  0  0  0
  4  5  2  0  0  0  0
  4  3  1  0  0  0  0
  5  6  1  0  0  0  0
  6  2  1  0  0  0  0
  8  4  1  0  0  0  0
  9 12  1  6  0  0  0
  9  5  1  0  0  0  0
 10  9  1  0  0  0  0
 10 14  1  0  0  0  0
 11 15  1  1  0  0  0
 11 10  1  0  0  0  0
 11  9  1  0  0  0  0
 13 10  1  0  0  0  0
 16 17  2  0  0  0  0
 16 18  1  0  0  0  0
 18 11  1  0  0  0  0
 19 16  1  0  0  0  0
 20 18  1  0  0  0  0
 21 23  1  0  0  0  0
 22 21  2  0  0  0  0
 23 28  1  0  0  0  0
 24 23  2  0  0  0  0
 24 25  1  0  0  0  0
 25 30  1  0  0  0  0
 25 26  2  0  0  0  0
 26 27  1  0  0  0  0
 27 33  1  0  0  0  0
 28 27  2  0  0  0  0
 29 24  1  0  0  0  0
 32 31  1  0  0  0  0
 32 39  1  0  0  0  0
 33 32  2  0  0  0  0
 34 33  1  0  0  0  0
 34 36  2  0  0  0  0
 35 34  1  0  0  0  0
 36 38  1  0  0  0  0
 37 36  1  0  0  0  0
 38 39  2  0  0  0  0
M  END
>  <minimizedAffinity>
-6.58433485

>  <minimizedRMSD>
0.493566483

$$$$
