
 OpenBabel03252509123D

 31 34  0  0  0  0  0  0  0  0999 V2000
   39.3940   30.2150   41.8750 C   0  0  0  0  0  0  0  0  0  0  0  0
   38.3040   29.6510   41.2210 C   0  0  0  0  0  0  0  0  0  0  0  0
   37.4380   30.3970   40.4470 C   0  0  0  0  0  0  0  0  0  0  0  0
   37.6260   31.7690   40.2880 C   0  0  0  0  0  0  0  0  0  0  0  0
   37.0070   32.7820   39.6340 N   0  0  0  0  0  0  0  0  0  0  0  0
   37.6820   33.9340   39.8680 C   0  0  0  0  0  0  0  0  0  0  0  0
   38.7200   33.6170   40.6720 N   0  0  0  0  0  0  0  0  0  0  0  0
   38.7190   32.3010   40.9510 C   0  0  0  0  0  0  0  0  0  0  0  0
   39.5970   31.5910   41.7250 C   0  0  0  0  0  0  0  0  0  0  0  0
   40.0500   29.5950   42.4720 H   0  0  0  0  0  0  0  0  0  0  0  0
   36.1590   32.5810   39.0740 H   0  0  0  0  0  0  0  0  0  0  0  0
   37.3490   34.8590   39.4360 H   0  0  0  0  0  0  0  0  0  0  0  0
   40.4380   32.0530   42.2230 H   0  0  0  0  0  0  0  0  0  0  0  0
   38.3490   26.0360   40.5520 C   0  0  0  0  0  0  0  0  0  0  0  0
   37.5860   25.5350   41.6340 C   0  0  0  0  0  0  0  0  0  0  0  0
   37.0710   26.4380   42.5730 C   0  0  0  0  0  0  0  0  0  0  0  0
   37.3430   27.7590   42.3800 N   0  0  0  0  0  0  0  0  0  0  0  0
   38.0640   28.2270   41.3570 C   0  0  0  0  0  0  0  0  0  0  0  0
   38.5660   27.3660   40.4440 N   0  0  0  0  0  0  0  0  0  0  0  0
   38.7230   25.2990   39.8570 H   0  0  0  0  0  0  0  0  0  0  0  0
   37.3780   24.4810   41.7720 H   0  0  0  0  0  0  0  0  0  0  0  0
   36.4840   26.1380   43.4220 H   0  0  0  0  0  0  0  0  0  0  0  0
   37.7610   29.7770   37.8100 F   0  0  0  0  0  0  0  0  0  0  0  0
   36.5570   29.5700   38.4180 C   0  0  0  0  0  0  0  0  0  0  0  0
   36.2830   29.8480   39.7490 C   0  0  0  0  0  0  0  0  0  0  0  0
   35.0350   29.5990   40.2610 C   0  0  0  0  0  0  0  0  0  0  0  0
   34.9020   29.8420   41.2990 H   0  0  0  0  0  0  0  0  0  0  0  0
   34.0790   29.0730   39.4120 C   0  0  0  0  0  0  0  0  0  0  0  0
   33.1100   28.8900   39.8440 H   0  0  0  0  0  0  0  0  0  0  0  0
   34.3380   28.7950   38.0950 C   0  0  0  0  0  3  0  0  0  0  0  0
   35.5950   29.0430   37.5730 C   0  0  0  0  0  3  0  0  0  0  0  0
  1 10  1  0  0  0  0
  2 18  1  0  0  0  0
  2  1  2  0  0  0  0
  3  2  1  0  0  0  0
  4  3  2  0  0  0  0
  4  8  1  0  0  0  0
  5  6  1  0  0  0  0
  5  4  1  0  0  0  0
  6  7  2  0  0  0  0
  7  8  1  0  0  0  0
  8  9  2  0  0  0  0
  9  1  1  0  0  0  0
  9 13  1  0  0  0  0
 11  5  1  0  0  0  0
 12  6  1  0  0  0  0
 14 15  1  0  0  0  0
 15 21  1  0  0  0  0
 15 16  2  0  0  0  0
 16 22  1  0  0  0  0
 17 16  1  0  0  0  0
 18 17  2  0  0  0  0
 19 14  2  0  0  0  0
 19 18  1  0  0  0  0
 20 14  1  0  0  0  0
 23 24  1  0  0  0  0
 24 25  1  0  0  0  0
 25 26  2  0  0  0  0
 25  3  1  0  0  0  0
 26 27  1  0  0  0  0
 28 29  1  0  0  0  0
 28 26  1  0  0  0  0
 30 28  2  0  0  0  0
 31 30  1  0  0  0  0
 31 24  2  0  0  0  0
M  END
>  <minimizedAffinity>
-5.90988731

$$$$

 OpenBabel03252509123D

 31 34  0  0  0  0  0  0  0  0999 V2000
   37.0410   29.0330   37.4790 C   0  0  0  0  0  0  0  0  0  0  0  0
   37.3140   28.4420   38.7080 C   0  0  0  0  0  0  0  0  0  0  0  0
   37.5410   29.1830   39.8510 C   0  0  0  0  0  0  0  0  0  0  0  0
   37.5040   30.5760   39.8170 C   0  0  0  0  0  0  0  0  0  0  0  0
   37.6710   31.5910   40.6990 N   0  0  0  0  0  0  0  0  0  0  0  0
   37.5080   32.7690   40.0510 C   0  0  0  0  0  0  0  0  0  0  0  0
   37.2410   32.4670   38.7620 N   0  0  0  0  0  0  0  0  0  0  0  0
   37.2300   31.1340   38.5790 C   0  0  0  0  0  0  0  0  0  0  0  0
   37.0000   30.4300   37.4270 C   0  0  0  0  0  0  0  0  0  0  0  0
   36.8690   28.4170   36.6060 H   0  0  0  0  0  0  0  0  0  0  0  0
   37.8850   31.3730   41.6890 H   0  0  0  0  0  0  0  0  0  0  0  0
   37.6020   33.7010   40.5780 H   0  0  0  0  0  0  0  0  0  0  0  0
   36.7900   30.9140   36.4830 H   0  0  0  0  0  0  0  0  0  0  0  0
   36.2580   24.9400   39.0700 C   0  0  0  0  0  0  0  0  0  0  0  0
   37.4940   24.2560   38.9670 C   0  0  0  0  0  0  0  0  0  0  0  0
   38.6640   25.0010   38.7750 C   0  0  0  0  0  0  0  0  0  0  0  0
   38.5350   26.3550   38.6980 N   0  0  0  0  0  0  0  0  0  0  0  0
   37.3660   26.9950   38.7950 C   0  0  0  0  0  0  0  0  0  0  0  0
   36.2290   26.2890   38.9810 N   0  0  0  0  0  0  0  0  0  0  0  0
   35.3870   24.3190   39.2160 H   0  0  0  0  0  0  0  0  0  0  0  0
   37.5800   23.1780   39.0310 H   0  0  0  0  0  0  0  0  0  0  0  0
   39.6400   24.5580   38.6860 H   0  0  0  0  0  0  0  0  0  0  0  0
   35.4110   28.4920   41.4080 F   0  0  0  0  0  0  0  0  0  0  0  0
   36.6820   28.2930   41.8630 C   0  0  0  0  0  0  0  0  0  0  0  0
   37.8330   28.6060   41.1560 C   0  0  0  0  0  0  0  0  0  0  0  0
   39.0660   28.3630   41.7080 C   0  0  0  0  0  0  0  0  0  0  0  0
   39.9090   28.6330   41.0990 H   0  0  0  0  0  0  0  0  0  0  0  0
   39.1120   27.8050   42.9720 C   0  0  0  0  0  0  0  0  0  0  0  0
   40.0940   27.6280   43.3760 H   0  0  0  0  0  0  0  0  0  0  0  0
   37.9810   27.4920   43.6800 C   0  0  0  0  0  3  0  0  0  0  0  0
   36.7350   27.7340   43.1290 C   0  0  0  0  0  3  0  0  0  0  0  0
  1  2  1  0  0  0  0
  2 18  1  0  0  0  0
  2  3  2  0  0  0  0
  3 25  1  0  0  0  0
  4  3  1  0  0  0  0
  4  5  1  0  0  0  0
  5 11  1  0  0  0  0
  6 12  1  0  0  0  0
  6  5  1  0  0  0  0
  7  6  2  0  0  0  0
  8  7  1  0  0  0  0
  8  4  2  0  0  0  0
  9  1  2  0  0  0  0
  9  8  1  0  0  0  0
 10  1  1  0  0  0  0
 13  9  1  0  0  0  0
 14 20  1  0  0  0  0
 15 21  1  0  0  0  0
 15 14  2  0  0  0  0
 16 15  1  0  0  0  0
 17 16  2  0  0  0  0
 17 18  1  0  0  0  0
 18 19  2  0  0  0  0
 19 14  1  0  0  0  0
 22 16  1  0  0  0  0
 23 24  1  0  0  0  0
 24 31  1  0  0  0  0
 25 26  1  0  0  0  0
 25 24  2  0  0  0  0
 26 28  2  0  0  0  0
 27 26  1  0  0  0  0
 28 29  1  0  0  0  0
 28 30  1  0  0  0  0
 31 30  2  0  0  0  0
M  END
>  <minimizedAffinity>
-5.45172358

$$$$

 OpenBabel03252509123D

 31 34  0  0  0  0  0  0  0  0999 V2000
   35.7920   28.9870   40.5480 C   0  0  0  0  0  0  0  0  0  0  0  0
   36.9790   28.3180   40.8270 C   0  0  0  0  0  0  0  0  0  0  0  0
   38.1790   28.9790   40.9970 C   0  0  0  0  0  0  0  0  0  0  0  0
   38.2490   30.3670   40.8930 C   0  0  0  0  0  0  0  0  0  0  0  0
   39.2100   31.3190   40.9920 N   0  0  0  0  0  0  0  0  0  0  0  0
   38.6480   32.5340   40.7840 C   0  0  0  0  0  0  0  0  0  0  0  0
   37.3340   32.3180   40.5560 N   0  0  0  0  0  0  0  0  0  0  0  0
   37.0520   31.0050   40.6140 C   0  0  0  0  0  0  0  0  0  0  0  0
   35.8450   30.3810   40.4410 C   0  0  0  0  0  0  0  0  0  0  0  0
   34.8720   28.4320   40.4230 H   0  0  0  0  0  0  0  0  0  0  0  0
   40.1850   31.0360   41.1990 H   0  0  0  0  0  0  0  0  0  0  0  0
   39.2460   33.4260   40.8200 H   0  0  0  0  0  0  0  0  0  0  0  0
   34.9360   30.9240   40.2250 H   0  0  0  0  0  0  0  0  0  0  0  0
   36.9420   24.7560   39.9180 C   0  0  0  0  0  0  0  0  0  0  0  0
   36.9140   24.1360   41.1910 C   0  0  0  0  0  0  0  0  0  0  0  0
   36.9100   24.9430   42.3360 C   0  0  0  0  0  0  0  0  0  0  0  0
   36.9330   26.2920   42.1460 N   0  0  0  0  0  0  0  0  0  0  0  0
   36.9600   26.8720   40.9430 C   0  0  0  0  0  0  0  0  0  0  0  0
   36.9640   26.1050   39.8300 N   0  0  0  0  0  0  0  0  0  0  0  0
   36.9450   24.0890   39.0690 H   0  0  0  0  0  0  0  0  0  0  0  0
   36.8950   23.0610   41.3240 H   0  0  0  0  0  0  0  0  0  0  0  0
   36.8900   24.5500   43.3360 H   0  0  0  0  0  0  0  0  0  0  0  0
   38.8360   28.6510   43.6240 F   0  0  0  0  0  0  0  0  0  0  0  0
   39.6790   28.2040   42.6480 C   0  0  0  0  0  0  0  0  0  0  0  0
   39.4450   28.3180   41.2860 C   0  0  0  0  0  0  0  0  0  0  0  0
   40.3610   27.8320   40.3870 C   0  0  0  0  0  0  0  0  0  0  0  0
   40.1080   27.9590   39.3510 H   0  0  0  0  0  0  0  0  0  0  0  0
   41.5050   27.2380   40.8860 C   0  0  0  0  0  0  0  0  0  0  0  0
   42.2040   26.8680   40.1550 H   0  0  0  0  0  0  0  0  0  0  0  0
   41.7480   27.1200   42.2300 C   0  0  0  0  0  3  0  0  0  0  0  0
   40.8270   27.6070   43.1400 C   0  0  0  0  0  3  0  0  0  0  0  0
  1  2  1  0  0  0  0
  2 18  1  0  0  0  0
  2  3  2  0  0  0  0
  3 25  1  0  0  0  0
  4  5  1  0  0  0  0
  4  3  1  0  0  0  0
  5 11  1  0  0  0  0
  6 12  1  0  0  0  0
  6  5  1  0  0  0  0
  7  8  1  0  0  0  0
  7  6  2  0  0  0  0
  8  4  2  0  0  0  0
  9  1  2  0  0  0  0
  9  8  1  0  0  0  0
 10  1  1  0  0  0  0
 13  9  1  0  0  0  0
 14 15  1  0  0  0  0
 15 21  1  0  0  0  0
 15 16  2  0  0  0  0
 16 22  1  0  0  0  0
 17 16  1  0  0  0  0
 18 17  2  0  0  0  0
 19 14  2  0  0  0  0
 19 18  1  0  0  0  0
 20 14  1  0  0  0  0
 24 31  1  0  0  0  0
 24 23  1  0  0  0  0
 25 24  2  0  0  0  0
 26 28  2  0  0  0  0
 26 25  1  0  0  0  0
 27 26  1  0  0  0  0
 28 30  1  0  0  0  0
 29 28  1  0  0  0  0
 30 31  2  0  0  0  0
M  END
>  <minimizedAffinity>
-5.27730894

$$$$

 OpenBabel03252509123D

 31 34  0  0  0  0  0  0  0  0999 V2000
   35.8350   25.9980   38.5980 C   0  0  0  0  0  0  0  0  0  0  0  0
   36.6820   26.6280   39.5020 C   0  0  0  0  0  0  0  0  0  0  0  0
   37.5530   25.9270   40.3130 C   0  0  0  0  0  0  0  0  0  0  0  0
   37.6180   24.5360   40.2540 C   0  0  0  0  0  0  0  0  0  0  0  0
   38.3180   23.5520   40.8690 N   0  0  0  0  0  0  0  0  0  0  0  0
   37.9260   22.3550   40.3700 C   0  0  0  0  0  0  0  0  0  0  0  0
   36.9790   22.6140   39.4440 N   0  0  0  0  0  0  0  0  0  0  0  0
   36.7620   23.9380   39.3440 C   0  0  0  0  0  0  0  0  0  0  0  0
   35.8880   24.6020   38.5260 C   0  0  0  0  0  0  0  0  0  0  0  0
   35.1670   26.5840   37.9800 H   0  0  0  0  0  0  0  0  0  0  0  0
   39.0170   23.8030   41.5920 H   0  0  0  0  0  0  0  0  0  0  0  0
   38.3650   21.4430   40.7310 H   0  0  0  0  0  0  0  0  0  0  0  0
   35.2390   24.0890   37.8300 H   0  0  0  0  0  0  0  0  0  0  0  0
   35.7450   30.0220   40.5610 C   0  0  0  0  0  0  0  0  0  0  0  0
   36.6080   30.8180   39.7680 C   0  0  0  0  0  0  0  0  0  0  0  0
   37.4940   30.1830   38.8890 C   0  0  0  0  0  0  0  0  0  0  0  0
   37.4670   28.8210   38.8530 N   0  0  0  0  0  0  0  0  0  0  0  0
   36.6510   28.0750   39.6030 C   0  0  0  0  0  0  0  0  0  0  0  0
   35.7910   28.6750   40.4560 N   0  0  0  0  0  0  0  0  0  0  0  0
   35.0820   30.5600   41.2220 H   0  0  0  0  0  0  0  0  0  0  0  0
   36.6150   31.9000   39.8080 H   0  0  0  0  0  0  0  0  0  0  0  0
   38.1800   30.7150   38.2550 H   0  0  0  0  0  0  0  0  0  0  0  0
   36.6160   26.2610   42.8530 F   0  0  0  0  0  0  0  0  0  0  0  0
   37.8780   26.6680   42.5310 C   0  0  0  0  0  0  0  0  0  0  0  0
   38.4540   26.5460   41.2760 C   0  0  0  0  0  0  0  0  0  0  0  0
   39.7350   26.9890   41.0610 C   0  0  0  0  0  0  0  0  0  0  0  0
   40.1090   26.8600   40.0620 H   0  0  0  0  0  0  0  0  0  0  0  0
   40.4140   27.5510   42.1260 C   0  0  0  0  0  0  0  0  0  0  0  0
   41.4160   27.8880   41.9240 H   0  0  0  0  0  0  0  0  0  0  0  0
   39.8550   27.6760   43.3710 C   0  0  0  0  0  3  0  0  0  0  0  0
   38.5640   27.2320   43.5940 C   0  0  0  0  0  3  0  0  0  0  0  0
  1  2  1  0  0  0  0
  2 18  1  0  0  0  0
  2  3  2  0  0  0  0
  3 25  1  0  0  0  0
  4  3  1  0  0  0  0
  4  5  1  0  0  0  0
  5 11  1  0  0  0  0
  6 12  1  0  0  0  0
  6  5  1  0  0  0  0
  7  6  2  0  0  0  0
  8  7  1  0  0  0  0
  8  4  2  0  0  0  0
  9  1  2  0  0  0  0
  9  8  1  0  0  0  0
 10  1  1  0  0  0  0
 13  9  1  0  0  0  0
 14 20  1  0  0  0  0
 15 21  1  0  0  0  0
 15 14  2  0  0  0  0
 16 15  1  0  0  0  0
 17 16  2  0  0  0  0
 17 18  1  0  0  0  0
 18 19  2  0  0  0  0
 19 14  1  0  0  0  0
 22 16  1  0  0  0  0
 24 23  1  0  0  0  0
 24 31  1  0  0  0  0
 25 24  2  0  0  0  0
 26 25  1  0  0  0  0
 26 28  2  0  0  0  0
 27 26  1  0  0  0  0
 28 30  1  0  0  0  0
 29 28  1  0  0  0  0
 30 31  2  0  0  0  0
M  END
>  <minimizedAffinity>
-5.26239634

$$$$

 OpenBabel03252509123D

 31 34  0  0  0  0  0  0  0  0999 V2000
   37.3250   28.9950   37.3870 C   0  0  0  0  0  0  0  0  0  0  0  0
   37.3690   28.4160   38.6500 C   0  0  0  0  0  0  0  0  0  0  0  0
   37.3780   29.1680   39.8090 C   0  0  0  0  0  0  0  0  0  0  0  0
   37.3420   30.5600   39.7560 C   0  0  0  0  0  0  0  0  0  0  0  0
   37.3390   31.5830   40.6440 N   0  0  0  0  0  0  0  0  0  0  0  0
   37.2940   32.7560   39.9660 C   0  0  0  0  0  0  0  0  0  0  0  0
   37.2710   32.4410   38.6530 N   0  0  0  0  0  0  0  0  0  0  0  0
   37.2990   31.1060   38.4840 C   0  0  0  0  0  0  0  0  0  0  0  0
   37.2880   30.3920   37.3160 C   0  0  0  0  0  0  0  0  0  0  0  0
   37.3190   28.3710   36.5030 H   0  0  0  0  0  0  0  0  0  0  0  0
   37.3680   31.3750   41.6590 H   0  0  0  0  0  0  0  0  0  0  0  0
   37.2850   33.6920   40.4930 H   0  0  0  0  0  0  0  0  0  0  0  0
   37.2530   30.8660   36.3450 H   0  0  0  0  0  0  0  0  0  0  0  0
   38.6550   24.9800   38.8790 C   0  0  0  0  0  0  0  0  0  0  0  0
   37.4560   24.2300   38.9590 C   0  0  0  0  0  0  0  0  0  0  0  0
   36.2320   24.9090   38.9340 C   0  0  0  0  0  0  0  0  0  0  0  0
   36.2750   26.2680   38.8340 N   0  0  0  0  0  0  0  0  0  0  0  0
   37.4090   26.9710   38.7600 C   0  0  0  0  0  0  0  0  0  0  0  0
   38.5980   26.3280   38.7820 N   0  0  0  0  0  0  0  0  0  0  0  0
   39.5710   24.4090   38.9030 H   0  0  0  0  0  0  0  0  0  0  0  0
   37.4400   23.1500   39.0370 H   0  0  0  0  0  0  0  0  0  0  0  0
   35.2800   24.4140   38.9910 H   0  0  0  0  0  0  0  0  0  0  0  0
   39.8390   28.9100   40.9570 F   0  0  0  0  0  0  0  0  0  0  0  0
   38.7230   28.5170   41.6380 C   0  0  0  0  0  0  0  0  0  0  0  0
   37.4270   28.6030   41.1510 C   0  0  0  0  0  0  0  0  0  0  0  0
   36.3740   28.1790   41.9210 C   0  0  0  0  0  0  0  0  0  0  0  0
   35.4020   28.2770   41.4730 H   0  0  0  0  0  0  0  0  0  0  0  0
   36.6520   27.6700   43.1760 C   0  0  0  0  0  0  0  0  0  0  0  0
   35.8030   27.3450   43.7540 H   0  0  0  0  0  0  0  0  0  0  0  0
   37.9280   27.5800   43.6670 C   0  0  0  0  0  3  0  0  0  0  0  0
   38.9940   28.0070   42.8960 C   0  0  0  0  0  3  0  0  0  0  0  0
  1  2  1  0  0  0  0
  2 18  1  0  0  0  0
  2  3  2  0  0  0  0
  3 25  1  0  0  0  0
  4  3  1  0  0  0  0
  4  5  1  0  0  0  0
  5 11  1  0  0  0  0
  6 12  1  0  0  0  0
  6  5  1  0  0  0  0
  7  6  2  0  0  0  0
  8  7  1  0  0  0  0
  8  4  2  0  0  0  0
  9  1  2  0  0  0  0
  9  8  1  0  0  0  0
 10  1  1  0  0  0  0
 13  9  1  0  0  0  0
 14 20  1  0  0  0  0
 14 15  1  0  0  0  0
 15 21  1  0  0  0  0
 16 15  2  0  0  0  0
 16 22  1  0  0  0  0
 17 16  1  0  0  0  0
 18 19  1  0  0  0  0
 18 17  2  0  0  0  0
 19 14  2  0  0  0  0
 23 24  1  0  0  0  0
 24 31  1  0  0  0  0
 25 24  2  0  0  0  0
 25 26  1  0  0  0  0
 26 28  2  0  0  0  0
 27 26  1  0  0  0  0
 28 30  1  0  0  0  0
 28 29  1  0  0  0  0
 31 30  2  0  0  0  0
M  END
>  <minimizedAffinity>
-5.2494626

$$$$

 OpenBabel03252509123D

 31 34  0  0  0  0  0  0  0  0999 V2000
   35.8610   27.5130   38.0140 C   0  0  0  0  0  0  0  0  0  0  0  0
   36.5100   27.7480   39.2220 C   0  0  0  0  0  0  0  0  0  0  0  0
   36.8360   26.7310   40.0970 C   0  0  0  0  0  0  0  0  0  0  0  0
   36.5210   25.4060   39.7990 C   0  0  0  0  0  0  0  0  0  0  0  0
   36.6760   24.1970   40.3910 N   0  0  0  0  0  0  0  0  0  0  0  0
   36.1470   23.2430   39.5870 C   0  0  0  0  0  0  0  0  0  0  0  0
   35.6650   23.8800   38.4980 N   0  0  0  0  0  0  0  0  0  0  0  0
   35.8760   25.2050   38.5910 C   0  0  0  0  0  0  0  0  0  0  0  0
   35.5390   26.1890   37.7000 C   0  0  0  0  0  0  0  0  0  0  0  0
   35.6230   28.3380   37.3560 H   0  0  0  0  0  0  0  0  0  0  0  0
   37.1440   24.1390   41.3140 H   0  0  0  0  0  0  0  0  0  0  0  0
   36.1690   22.2090   39.8780 H   0  0  0  0  0  0  0  0  0  0  0  0
   35.0340   25.9800   36.7670 H   0  0  0  0  0  0  0  0  0  0  0  0
   38.3610   30.9140   39.4730 C   0  0  0  0  0  0  0  0  0  0  0  0
   37.4930   31.6910   40.2780 C   0  0  0  0  0  0  0  0  0  0  0  0
   36.2920   31.1210   40.7200 C   0  0  0  0  0  0  0  0  0  0  0  0
   36.0340   29.8390   40.3400 N   0  0  0  0  0  0  0  0  0  0  0  0
   36.8570   29.1100   39.5790 C   0  0  0  0  0  0  0  0  0  0  0  0
   38.0190   29.6480   39.1460 N   0  0  0  0  0  0  0  0  0  0  0  0
   39.2730   31.4000   39.1590 H   0  0  0  0  0  0  0  0  0  0  0  0
   37.7140   32.7090   40.5730 H   0  0  0  0  0  0  0  0  0  0  0  0
   35.5800   31.6440   41.3330 H   0  0  0  0  0  0  0  0  0  0  0  0
   39.5590   26.5730   40.0980 F   0  0  0  0  0  0  0  0  0  0  0  0
   38.8890   26.8310   41.2590 C   0  0  0  0  0  0  0  0  0  0  0  0
   37.5110   26.9330   41.3720 C   0  0  0  0  0  0  0  0  0  0  0  0
   36.9390   27.1970   42.5910 C   0  0  0  0  0  0  0  0  0  0  0  0
   35.8670   27.2600   42.5960 H   0  0  0  0  0  0  0  0  0  0  0  0
   37.7760   27.3520   43.6800 C   0  0  0  0  0  0  0  0  0  0  0  0
   37.2960   27.5580   44.6220 H   0  0  0  0  0  0  0  0  0  0  0  0
   39.1390   27.2530   43.5800 C   0  0  0  0  0  3  0  0  0  0  0  0
   39.7220   26.9880   42.3540 C   0  0  0  0  0  3  0  0  0  0  0  0
  1  2  1  0  0  0  0
  2 18  1  0  0  0  0
  2  3  2  0  0  0  0
  3 25  1  0  0  0  0
  4  3  1  0  0  0  0
  4  5  1  0  0  0  0
  5 11  1  0  0  0  0
  6 12  1  0  0  0  0
  6  5  1  0  0  0  0
  7  8  1  0  0  0  0
  7  6  2  0  0  0  0
  8  4  2  0  0  0  0
  9  1  2  0  0  0  0
  9  8  1  0  0  0  0
 10  1  1  0  0  0  0
 13  9  1  0  0  0  0
 14 15  1  0  0  0  0
 15 21  1  0  0  0  0
 15 16  2  0  0  0  0
 16 22  1  0  0  0  0
 17 16  1  0  0  0  0
 18 17  2  0  0  0  0
 19 14  2  0  0  0  0
 19 18  1  0  0  0  0
 20 14  1  0  0  0  0
 23 24  1  0  0  0  0
 24 25  2  0  0  0  0
 24 31  1  0  0  0  0
 25 26  1  0  0  0  0
 26 27  1  0  0  0  0
 26 28  2  0  0  0  0
 28 29  1  0  0  0  0
 30 28  1  0  0  0  0
 31 30  2  0  0  0  0
M  END
>  <minimizedAffinity>
-5.24512339

$$$$

 OpenBabel03252509123D

 31 34  0  0  0  0  0  0  0  0999 V2000
   36.7710   25.1420   39.9220 C   0  0  0  0  0  0  0  0  0  0  0  0
   37.0810   26.4750   40.1670 C   0  0  0  0  0  0  0  0  0  0  0  0
   36.6060   27.5020   39.3750 C   0  0  0  0  0  0  0  0  0  0  0  0
   35.7830   27.2370   38.2810 C   0  0  0  0  0  0  0  0  0  0  0  0
   35.1560   27.9570   37.3190 N   0  0  0  0  0  0  0  0  0  0  0  0
   34.4800   27.1100   36.5060 C   0  0  0  0  0  0  0  0  0  0  0  0
   34.7010   25.8630   36.9780 N   0  0  0  0  0  0  0  0  0  0  0  0
   35.4940   25.9010   38.0640 C   0  0  0  0  0  0  0  0  0  0  0  0
   35.9470   24.8590   38.8280 C   0  0  0  0  0  0  0  0  0  0  0  0
   37.1640   24.3660   40.5670 H   0  0  0  0  0  0  0  0  0  0  0  0
   35.2530   28.9890   37.3130 H   0  0  0  0  0  0  0  0  0  0  0  0
   33.9140   27.4860   35.6740 H   0  0  0  0  0  0  0  0  0  0  0  0
   35.6910   23.8290   38.6170 H   0  0  0  0  0  0  0  0  0  0  0  0
   40.0880   27.1590   42.1670 C   0  0  0  0  0  0  0  0  0  0  0  0
   39.5310   27.4190   43.4430 C   0  0  0  0  0  0  0  0  0  0  0  0
   38.1400   27.3570   43.5970 C   0  0  0  0  0  0  0  0  0  0  0  0
   37.4040   27.0470   42.4930 N   0  0  0  0  0  0  0  0  0  0  0  0
   37.9350   26.8030   41.2920 C   0  0  0  0  0  0  0  0  0  0  0  0
   39.2760   26.8590   41.1290 N   0  0  0  0  0  0  0  0  0  0  0  0
   41.1640   27.2200   42.1010 H   0  0  0  0  0  0  0  0  0  0  0  0
   40.1310   27.6630   44.3110 H   0  0  0  0  0  0  0  0  0  0  0  0
   37.6400   27.5420   44.5310 H   0  0  0  0  0  0  0  0  0  0  0  0
   34.9290   28.8920   41.0180 F   0  0  0  0  0  0  0  0  0  0  0  0
   35.9950   29.5190   40.4400 C   0  0  0  0  0  0  0  0  0  0  0  0
   36.9080   28.9110   39.5930 C   0  0  0  0  0  0  0  0  0  0  0  0
   37.9470   29.6360   39.0660 C   0  0  0  0  0  0  0  0  0  0  0  0
   38.6100   29.0940   38.4180 H   0  0  0  0  0  0  0  0  0  0  0  0
   38.0430   30.9720   39.4080 C   0  0  0  0  0  0  0  0  0  0  0  0
   38.8690   31.5130   38.9770 H   0  0  0  0  0  0  0  0  0  0  0  0
   37.1460   31.5840   40.2440 C   0  0  0  0  0  3  0  0  0  0  0  0
   36.0970   30.8580   40.7790 C   0  0  0  0  0  3  0  0  0  0  0  0
  1  2  1  0  0  0  0
  1 10  1  0  0  0  0
  2 18  1  0  0  0  0
  3 25  1  0  0  0  0
  3  2  2  0  0  0  0
  4  3  1  0  0  0  0
  5  4  1  0  0  0  0
  6  7  2  0  0  0  0
  6  5  1  0  0  0  0
  7  8  1  0  0  0  0
  8  4  2  0  0  0  0
  8  9  1  0  0  0  0
  9  1  2  0  0  0  0
 11  5  1  0  0  0  0
 12  6  1  0  0  0  0
 13  9  1  0  0  0  0
 14 15  1  0  0  0  0
 15 16  2  0  0  0  0
 15 21  1  0  0  0  0
 16 22  1  0  0  0  0
 17 16  1  0  0  0  0
 18 17  2  0  0  0  0
 19 18  1  0  0  0  0
 19 14  2  0  0  0  0
 20 14  1  0  0  0  0
 24 31  1  0  0  0  0
 24 23  1  0  0  0  0
 25 24  2  0  0  0  0
 26 28  2  0  0  0  0
 26 25  1  0  0  0  0
 27 26  1  0  0  0  0
 28 30  1  0  0  0  0
 29 28  1  0  0  0  0
 30 31  2  0  0  0  0
M  END
>  <minimizedAffinity>
-5.16967201

$$$$

 OpenBabel03252509123D

 31 34  0  0  0  0  0  0  0  0999 V2000
   41.6540   31.1520   42.5830 C   0  0  0  0  0  0  0  0  0  0  0  0
   40.5970   30.7530   41.7730 C   0  0  0  0  0  0  0  0  0  0  0  0
   40.3040   31.3790   40.5770 C   0  0  0  0  0  0  0  0  0  0  0  0
   41.0710   32.4530   40.1280 C   0  0  0  0  0  0  0  0  0  0  0  0
   41.0820   33.2790   39.0540 N   0  0  0  0  0  0  0  0  0  0  0  0
   42.1040   34.1590   39.1860 C   0  0  0  0  0  0  0  0  0  0  0  0
   42.7190   33.8650   40.3520 N   0  0  0  0  0  0  0  0  0  0  0  0
   42.1160   32.8270   40.9570 C   0  0  0  0  0  0  0  0  0  0  0  0
   42.4330   32.2280   42.1480 C   0  0  0  0  0  0  0  0  0  0  0  0
   41.8500   30.6350   43.5130 H   0  0  0  0  0  0  0  0  0  0  0  0
   40.3680   33.1570   38.3120 H   0  0  0  0  0  0  0  0  0  0  0  0
   42.2840   34.9040   38.4330 H   0  0  0  0  0  0  0  0  0  0  0  0
   43.2610   32.5580   42.7600 H   0  0  0  0  0  0  0  0  0  0  0  0
   37.9130   28.8370   43.3970 C   0  0  0  0  0  0  0  0  0  0  0  0
   38.2180   27.5150   42.9900 C   0  0  0  0  0  0  0  0  0  0  0  0
   39.3310   27.3020   42.1680 C   0  0  0  0  0  0  0  0  0  0  0  0
   40.0590   28.3960   41.8090 N   0  0  0  0  0  0  0  0  0  0  0  0
   39.7670   29.6410   42.1960 C   0  0  0  0  0  0  0  0  0  0  0  0
   38.6950   29.8610   42.9890 N   0  0  0  0  0  0  0  0  0  0  0  0
   37.0450   28.9470   44.0300 H   0  0  0  0  0  0  0  0  0  0  0  0
   37.6290   26.6550   43.2860 H   0  0  0  0  0  0  0  0  0  0  0  0
   39.6290   26.3310   41.8150 H   0  0  0  0  0  0  0  0  0  0  0  0
   37.9200   32.6520   40.9460 F   0  0  0  0  0  0  0  0  0  0  0  0
   38.0440   31.7020   39.9740 C   0  0  0  0  0  0  0  0  0  0  0  0
   39.2060   30.9970   39.6990 C   0  0  0  0  0  0  0  0  0  0  0  0
   39.2220   30.0620   38.6950 C   0  0  0  0  0  0  0  0  0  0  0  0
   40.1580   29.5570   38.5460 H   0  0  0  0  0  0  0  0  0  0  0  0
   38.0550   29.8560   37.9830 C   0  0  0  0  0  0  0  0  0  0  0  0
   38.1010   29.1160   37.2020 H   0  0  0  0  0  0  0  0  0  0  0  0
   36.9010   30.5480   38.2440 C   0  0  0  0  0  3  0  0  0  0  0  0
   36.8790   31.4920   39.2560 C   0  0  0  0  0  3  0  0  0  0  0  0
  1 10  1  0  0  0  0
  2 18  1  0  0  0  0
  2  1  2  0  0  0  0
  3  2  1  0  0  0  0
  4  3  2  0  0  0  0
  4  8  1  0  0  0  0
  5  6  1  0  0  0  0
  5  4  1  0  0  0  0
  6  7  2  0  0  0  0
  7  8  1  0  0  0  0
  8  9  2  0  0  0  0
  9  1  1  0  0  0  0
  9 13  1  0  0  0  0
 11  5  1  0  0  0  0
 12  6  1  0  0  0  0
 14 20  1  0  0  0  0
 15 21  1  0  0  0  0
 15 14  1  0  0  0  0
 16 15  2  0  0  0  0
 17 16  1  0  0  0  0
 17 18  2  0  0  0  0
 18 19  1  0  0  0  0
 19 14  2  0  0  0  0
 22 16  1  0  0  0  0
 24 23  1  0  0  0  0
 25 24  1  0  0  0  0
 25  3  1  0  0  0  0
 26 25  2  0  0  0  0
 27 26  1  0  0  0  0
 28 30  2  0  0  0  0
 28 26  1  0  0  0  0
 29 28  1  0  0  0  0
 30 31  1  0  0  0  0
 31 24  2  0  0  0  0
M  END
>  <minimizedAffinity>
-5.12804031

$$$$

 OpenBabel03252509123D

 31 34  0  0  0  0  0  0  0  0999 V2000
   36.2070   28.5000   37.5940 C   0  0  0  0  0  0  0  0  0  0  0  0
   36.7000   28.5850   38.8910 C   0  0  0  0  0  0  0  0  0  0  0  0
   36.7640   27.4910   39.7320 C   0  0  0  0  0  0  0  0  0  0  0  0
   36.3280   26.2370   39.3040 C   0  0  0  0  0  0  0  0  0  0  0  0
   36.2400   24.9900   39.8280 N   0  0  0  0  0  0  0  0  0  0  0  0
   35.7140   24.1580   38.8960 C   0  0  0  0  0  0  0  0  0  0  0  0
   35.4790   24.9080   37.7980 N   0  0  0  0  0  0  0  0  0  0  0  0
   35.8420   26.1860   38.0090 C   0  0  0  0  0  0  0  0  0  0  0  0
   35.7650   27.2500   37.1500 C   0  0  0  0  0  0  0  0  0  0  0  0
   36.1740   29.3820   36.9670 H   0  0  0  0  0  0  0  0  0  0  0  0
   36.5590   24.8240   40.7990 H   0  0  0  0  0  0  0  0  0  0  0  0
   35.5610   23.1180   39.1170 H   0  0  0  0  0  0  0  0  0  0  0  0
   35.3770   27.1580   36.1440 H   0  0  0  0  0  0  0  0  0  0  0  0
   36.7330   31.8780   40.5240 C   0  0  0  0  0  0  0  0  0  0  0  0
   38.0680   32.2960   40.3010 C   0  0  0  0  0  0  0  0  0  0  0  0
   38.9320   31.4470   39.5980 C   0  0  0  0  0  0  0  0  0  0  0  0
   38.4240   30.2570   39.1710 N   0  0  0  0  0  0  0  0  0  0  0  0
   37.1640   29.8670   39.3850 C   0  0  0  0  0  0  0  0  0  0  0  0
   36.3190   30.6770   40.0610 N   0  0  0  0  0  0  0  0  0  0  0  0
   36.1080   32.5690   41.0710 H   0  0  0  0  0  0  0  0  0  0  0  0
   38.4550   33.2460   40.6470 H   0  0  0  0  0  0  0  0  0  0  0  0
   39.9580   31.6890   39.3880 H   0  0  0  0  0  0  0  0  0  0  0  0
   39.4370   27.0730   40.0800 F   0  0  0  0  0  0  0  0  0  0  0  0
   38.6360   27.3090   41.1590 C   0  0  0  0  0  0  0  0  0  0  0  0
   37.2690   27.5350   41.0970 C   0  0  0  0  0  0  0  0  0  0  0  0
   36.5570   27.7650   42.2470 C   0  0  0  0  0  0  0  0  0  0  0  0
   35.5040   27.9290   42.1160 H   0  0  0  0  0  0  0  0  0  0  0  0
   37.2450   27.7610   43.4470 C   0  0  0  0  0  0  0  0  0  0  0  0
   36.6570   27.9430   44.3310 H   0  0  0  0  0  0  0  0  0  0  0  0
   38.5950   27.5390   43.5210 C   0  0  0  0  0  3  0  0  0  0  0  0
   39.3190   27.3070   42.3640 C   0  0  0  0  0  3  0  0  0  0  0  0
  1  2  1  0  0  0  0
  2 18  1  0  0  0  0
  2  3  2  0  0  0  0
  3 25  1  0  0  0  0
  4  3  1  0  0  0  0
  4  5  1  0  0  0  0
  5 11  1  0  0  0  0
  6 12  1  0  0  0  0
  6  5  1  0  0  0  0
  7  8  1  0  0  0  0
  7  6  2  0  0  0  0
  8  4  2  0  0  0  0
  9  1  2  0  0  0  0
  9  8  1  0  0  0  0
 10  1  1  0  0  0  0
 13  9  1  0  0  0  0
 14 20  1  0  0  0  0
 15 14  1  0  0  0  0
 15 21  1  0  0  0  0
 16 15  2  0  0  0  0
 17 18  2  0  0  0  0
 17 16  1  0  0  0  0
 18 19  1  0  0  0  0
 19 14  2  0  0  0  0
 22 16  1  0  0  0  0
 23 24  1  0  0  0  0
 24 31  1  0  0  0  0
 25 24  2  0  0  0  0
 25 26  1  0  0  0  0
 26 28  2  0  0  0  0
 27 26  1  0  0  0  0
 28 30  1  0  0  0  0
 28 29  1  0  0  0  0
 31 30  2  0  0  0  0
M  END
>  <minimizedAffinity>
-5.0416255

$$$$
