
 OpenBabel03252509163D

 25 27  0  0  0  0  0  0  0  0999 V2000
   46.0380   32.8940   45.9630 C   0  0  0  0  0  0  0  0  0  0  0  0
   45.6850   32.6590   47.3170 C   0  0  0  0  0  0  0  0  0  0  0  0
   46.1380   31.5400   47.9260 C   0  0  0  0  0  0  0  0  0  0  0  0
   46.9480   30.6480   47.1850 C   0  0  0  0  0  0  0  0  0  0  0  0
   47.0510   31.4560   45.5650 S   0  0  0  0  0  0  0  0  0  0  0  0
   45.0550   33.3890   47.8350 H   0  0  0  0  0  0  0  0  0  0  0  0
   45.9240   31.2890   48.9280 H   0  0  0  0  0  0  0  0  0  0  0  0
   44.4750   36.0390   44.7550 C   0  0  0  0  0  0  0  0  0  0  0  0
   45.0540   36.1090   43.4610 C   0  0  0  0  0  0  0  0  0  0  0  0
   45.9420   35.0850   43.0730 C   0  0  0  0  0  0  0  0  0  0  0  0
   46.1920   34.0800   43.9730 N   0  0  0  0  0  0  0  0  0  0  0  0
   45.6160   34.0590   45.1920 C   0  0  0  0  0  0  0  0  0  0  0  0
   44.7590   35.0340   45.5860 N   0  0  0  0  0  0  0  0  0  0  0  0
   43.7920   36.8180   45.0640 H   0  0  0  0  0  0  0  0  0  0  0  0
   44.8410   36.9080   42.7740 H   0  0  0  0  0  0  0  0  0  0  0  0
   46.4180   35.0760   42.1040 H   0  0  0  0  0  0  0  0  0  0  0  0
   49.5030   30.3870   48.3110 F   0  0  0  0  0  0  0  0  0  0  0  0
   48.8350   29.2440   48.0540 C   0  0  0  0  0  0  0  0  0  0  0  0
   47.5830   29.4030   47.5010 C   0  0  0  0  0  0  0  0  0  0  0  0
   46.8910   28.2400   47.2340 C   0  0  0  0  0  0  0  0  0  0  0  0
   45.8820   28.2410   46.7920 H   0  0  0  0  0  0  0  0  0  0  0  0
   47.4000   26.9880   47.4950 C   0  0  0  0  0  0  0  0  0  0  0  0
   46.8370   26.0920   47.2760 H   0  0  0  0  0  0  0  0  0  0  0  0
   48.6590   26.9080   48.0490 C   0  0  0  0  0  3  0  0  0  0  0  0
   49.4090   28.0270   48.3430 C   0  0  0  0  0  3  0  0  0  0  0  0
  1  2  2  0  0  0  0
  2  6  1  0  0  0  0
  2  3  1  0  0  0  0
  3  7  1  0  0  0  0
  4 19  1  0  0  0  0
  4  3  2  0  0  0  0
  5  1  1  0  0  0  0
  5  4  1  0  0  0  0
  8 14  1  0  0  0  0
  8 13  1  0  0  0  0
  9  8  2  0  0  0  0
 10  9  1  0  0  0  0
 10 11  2  0  0  0  0
 11 12  1  0  0  0  0
 12 13  2  0  0  0  0
 12  1  1  0  0  0  0
 15  9  1  0  0  0  0
 16 10  1  0  0  0  0
 18 17  1  0  0  0  0
 18 25  1  0  0  0  0
 19 18  2  0  0  0  0
 20 22  2  0  0  0  0
 20 19  1  0  0  0  0
 21 20  1  0  0  0  0
 22 24  1  0  0  0  0
 23 22  1  0  0  0  0
 24 25  2  0  0  0  0
M  END
>  <minimizedAffinity>
-4.74846554

>  <minimizedRMSD>
1.64430523

$$$$
