
 OpenBabel03252507263D

 27 29  0  0  0  0  0  0  0  0999 V2000
   46.0530   33.5170   45.5800 C   0  0  0  0  0  0  0  0  0  0  0  0
   45.0430   34.4130   45.9330 C   0  0  0  0  0  0  0  0  0  0  0  0
   44.6710   35.3900   44.9800 C   0  0  0  0  0  0  0  0  0  0  0  0
   45.3110   35.4160   43.7600 N   0  0  0  0  0  0  0  0  0  0  0  0
   46.2790   34.5160   43.4910 C   0  0  0  0  0  0  0  0  0  0  0  0
   46.6390   33.5940   44.3740 N   0  0  0  0  0  0  0  0  0  0  0  0
   44.5430   34.4040   46.8650 H   0  0  0  0  0  0  0  0  0  0  0  0
   43.9150   36.1230   45.1430 H   0  0  0  0  0  0  0  0  0  0  0  0
   46.9390   34.5670   42.1930 C   0  0  0  0  0  0  0  0  0  0  0  0
   48.0760   35.3450   42.0160 C   0  0  0  0  0  0  0  0  0  0  0  0
   48.7690   35.4600   40.8290 C   0  0  0  0  0  0  0  0  0  0  0  0
   48.2410   34.7200   39.7790 C   0  0  0  0  0  0  0  0  0  0  0  0
   47.1080   33.9360   39.9270 C   0  0  0  0  0  0  0  0  0  0  0  0
   46.4810   33.8790   41.1430 N   0  0  0  0  0  0  0  0  0  0  0  0
   48.4230   35.8890   42.8860 H   0  0  0  0  0  0  0  0  0  0  0  0
   49.6460   36.0700   40.7270 H   0  0  0  0  0  0  0  0  0  0  0  0
   48.7110   34.7420   38.8040 H   0  0  0  0  0  0  0  0  0  0  0  0
   46.7460   33.3840   39.0720 H   0  0  0  0  0  0  0  0  0  0  0  0
   45.3980   30.8490   45.2150 F   0  0  0  0  0  0  0  0  0  0  0  0
   46.1370   31.1690   46.3050 C   0  0  0  0  0  0  0  0  0  0  0  0
   46.4800   32.4870   46.5170 C   0  0  0  0  0  0  0  0  0  0  0  0
   47.2280   32.7050   47.6490 C   0  0  0  0  0  0  0  0  0  0  0  0
   47.5330   33.7110   47.8800 H   0  0  0  0  0  0  0  0  0  0  0  0
   47.6100   31.6970   48.5090 C   0  0  0  0  0  0  0  0  0  0  0  0
   48.2040   31.9520   49.3890 H   0  0  0  0  0  0  0  0  0  0  0  0
   47.2380   30.3910   48.2470 C   0  0  0  0  0  3  0  0  0  0  0  0
   46.4860   30.1150   47.1250 C   0  0  0  0  0  3  0  0  0  0  0  0
  1  2  1  0  0  0  0
  1 21  1  0  0  0  0
  2  7  1  0  0  0  0
  3  8  1  0  0  0  0
  3  2  2  0  0  0  0
  4  3  1  0  0  0  0
  5  4  2  0  0  0  0
  5  6  1  0  0  0  0
  6  1  2  0  0  0  0
  9  5  1  0  0  0  0
 10  9  1  0  0  0  0
 10 15  1  0  0  0  0
 11 10  2  0  0  0  0
 12 13  2  0  0  0  0
 12 11  1  0  0  0  0
 13 14  1  0  0  0  0
 14  9  2  0  0  0  0
 16 11  1  0  0  0  0
 17 12  1  0  0  0  0
 18 13  1  0  0  0  0
 19 20  1  0  0  0  0
 20 21  2  0  0  0  0
 20 27  1  0  0  0  0
 21 22  1  0  0  0  0
 22 23  1  0  0  0  0
 22 24  2  0  0  0  0
 24 25  1  0  0  0  0
 26 24  1  0  0  0  0
 27 26  2  0  0  0  0
M  END
>  <minimizedAffinity>
-6.02928448

>  <minimizedRMSD>
0.840819061

$$$$
