
 OpenBabel03252505343D

 30 32  0  0  0  0  0  0  0  0999 V2000
   46.4680   34.7080   42.1800 C   0  0  0  0  0  0  0  0  0  0  0  0
   47.7260   35.2280   41.9940 C   0  0  0  0  0  0  0  0  0  0  0  0
   48.4710   35.0710   40.8370 C   0  0  0  0  0  0  0  0  0  0  0  0
   47.9150   34.3380   39.7860 C   0  0  0  0  0  0  0  0  0  0  0  0
   46.6610   33.8210   39.9730 C   0  0  0  0  0  0  0  0  0  0  0  0
   45.9440   33.9940   41.1380 C   0  0  0  0  0  0  0  0  0  0  0  0
   48.2040   35.8100   42.7890 H   0  0  0  0  0  0  0  0  0  0  0  0
   49.4620   35.4980   40.7290 H   0  0  0  0  0  0  0  0  0  0  0  0
   48.4580   34.1860   38.8560 H   0  0  0  0  0  0  0  0  0  0  0  0
   46.2430   33.2480   39.1320 H   0  0  0  0  0  0  0  0  0  0  0  0
   44.4090   36.1740   44.9530 C   0  0  0  0  0  0  0  0  0  0  0  0
   45.0080   36.0570   43.6890 C   0  0  0  0  0  0  0  0  0  0  0  0
   45.8020   34.9410   43.4250 C   0  0  0  0  0  0  0  0  0  0  0  0
   45.9510   34.0270   44.4120 N   0  0  0  0  0  0  0  0  0  0  0  0
   45.3560   34.1790   45.6180 C   0  0  0  0  0  0  0  0  0  0  0  0
   44.5880   35.2480   45.8860 N   0  0  0  0  0  0  0  0  0  0  0  0
   45.5220   33.2060   46.6530 N   0  0  0  0  0  0  0  0  0  0  0  0
   43.7900   37.0670   45.1220 H   0  0  0  0  0  0  0  0  0  0  0  0
   44.9040   36.7700   42.8860 H   0  0  0  0  0  0  0  0  0  0  0  0
   46.2280   33.2160   47.4290 H   0  0  0  0  0  0  0  0  0  0  0  0
   44.7480   32.5290   46.3830 H   0  0  0  0  0  0  0  0  0  0  0  0
   43.8630   35.5960   40.3960 F   0  0  0  0  0  0  0  0  0  0  0  0
   43.6420   34.3250   40.8340 C   0  0  0  0  0  0  0  0  0  0  0  0
   44.6140   33.4050   41.2400 C   0  0  0  0  0  0  0  0  0  0  0  0
   44.2150   32.1520   41.6590 C   0  0  0  0  0  0  0  0  0  0  0  0
   45.0510   31.5400   41.9440 H   0  0  0  0  0  0  0  0  0  0  0  0
   42.8750   31.8350   41.6670 C   0  0  0  0  0  0  0  0  0  0  0  0
   42.6330   30.8310   42.0080 H   0  0  0  0  0  0  0  0  0  0  0  0
   41.9050   32.7220   41.2720 C   0  0  0  0  0  0  0  0  0  0  0  0
   42.2950   33.9940   40.8470 C   0  0  0  0  0  0  0  0  0  0  0  0
  1 13  1  0  0  0  0
  2  1  1  0  0  0  0
  2  7  1  0  0  0  0
  3  2  2  0  0  0  0
  4  5  2  0  0  0  0
  4  3  1  0  0  0  0
  5  6  1  0  0  0  0
  6 24  1  0  0  0  0
  6  1  2  0  0  0  0
  8  3  1  0  0  0  0
  9  4  1  0  0  0  0
 10  5  1  0  0  0  0
 11 18  1  0  0  0  0
 11 16  1  0  0  0  0
 12 11  2  0  0  0  0
 13 12  1  0  0  0  0
 13 14  2  0  0  0  0
 14 15  1  0  0  0  0
 15 16  2  0  0  0  0
 15 17  1  0  0  0  0
 17 20  1  0  0  0  0
 19 12  1  0  0  0  0
 21 17  1  0  0  0  0
 22 23  1  0  0  0  0
 23 30  2  0  0  0  0
 23 24  1  0  0  0  0
 24 25  2  0  0  0  0
 25 27  1  0  0  0  0
 25 26  1  0  0  0  0
 27 28  1  0  0  0  0
 29 27  2  0  0  0  0
 30 29  1  0  0  0  0
M  END
>  <minimizedAffinity>
-6.41956329

>  <minimizedRMSD>
0.909869313

$$$$
