
 OpenBabel03242520593D

 41 43  0  0  0  0  0  0  0  0999 V2000
   36.4640   30.0350   38.2700 C   0  0  0  0  0  0  0  0  0  0  0  0
   36.0550   29.0470   39.2090 C   0  0  0  0  0  0  0  0  0  0  0  0
   36.1510   29.3160   40.5670 C   0  0  0  0  0  0  0  0  0  0  0  0
   36.6320   30.5130   40.8810 N   0  0  0  0  0  0  0  0  0  0  0  0
   37.0180   31.4490   40.0250 C   0  0  0  0  0  0  0  0  0  0  0  0
   36.9360   31.2150   38.7010 N   0  0  0  0  0  0  0  0  0  0  0  0
   36.4340   29.9400   37.1950 H   0  0  0  0  0  0  0  0  0  0  0  0
   33.4750   28.6680   38.0660 F   0  0  0  0  0  0  0  0  0  0  0  0
   34.3250   27.6340   37.9330 C   0  0  0  0  0  0  0  0  0  0  0  0
   35.5780   27.8670   38.5110 C   0  0  0  0  0  0  0  0  0  0  0  0
   36.5300   26.8620   38.4280 C   0  0  0  0  0  0  0  0  0  0  0  0
   37.5440   26.9480   38.8530 H   0  0  0  0  0  0  0  0  0  0  0  0
   36.2170   25.6820   37.7890 C   0  0  0  0  0  0  0  0  0  0  0  0
   36.9590   24.8870   37.7210 H   0  0  0  0  0  0  0  0  0  0  0  0
   34.9970   25.4120   37.2080 C   0  0  0  0  0  3  0  0  0  0  0  0
   34.0700   26.4270   37.3040 C   0  0  0  0  0  3  0  0  0  0  0  0
   37.5450   32.7370   40.4840 C   0  0  0  0  0  3  0  0  0  0  0  0
   38.0840   33.5990   39.6480 C   0  0  0  0  0  3  0  0  0  0  0  0
   38.6130   34.9010   40.1460 C   0  0  0  0  0  0  0  0  0  0  0  0
   38.8470   35.4760   39.2430 H   0  0  0  0  0  0  0  0  0  0  0  0
   37.7480   35.4400   40.6160 H   0  0  0  0  0  0  0  0  0  0  0  0
   40.9130   34.8280   40.5590 C   0  0  0  0  0  0  0  0  0  0  0  0
   41.3610   35.0340   39.4020 O   0  0  0  0  0  0  0  0  0  0  0  0
   39.6320   34.7500   41.0950 N   0  0  0  0  0  0  0  0  0  0  0  0
   39.5270   34.5930   42.1060 H   0  0  0  0  0  0  0  0  0  0  0  0
   42.3450   32.1410   40.7340 Cl  0  0  0  0  0  0  0  0  0  0  0  0
   42.9610   33.5700   41.4960 C   0  0  0  0  0  0  0  0  0  0  0  0
   42.1750   34.6720   41.2970 C   0  0  0  0  0  0  0  0  0  0  0  0
   42.5320   35.9130   41.8450 C   0  0  0  0  0  0  0  0  0  0  0  0
   43.6950   36.0340   42.5980 C   0  0  0  0  0  0  0  0  0  0  0  0
   44.4790   34.9060   42.7880 C   0  0  0  0  0  0  0  0  0  0  0  0
   45.9490   34.9930   43.7290 Cl  0  0  0  0  0  0  0  0  0  0  0  0
   44.1080   33.6940   42.2380 C   0  0  0  0  0  0  0  0  0  0  0  0
   42.0090   36.8380   41.7660 H   0  0  0  0  0  0  0  0  0  0  0  0
   44.0330   36.9500   43.0470 H   0  0  0  0  0  0  0  0  0  0  0  0
   44.6740   32.7700   42.3470 H   0  0  0  0  0  0  0  0  0  0  0  0
   35.7770   28.4100   41.4910 O   0  0  0  0  0  0  0  0  0  0  0  0
   36.8100   27.7980   42.2750 C   0  0  0  0  0  0  0  0  0  0  0  0
   37.9700   27.7060   41.5050 F   0  0  0  0  0  0  0  0  0  0  0  0
   37.0590   28.6730   43.3310 F   0  0  0  0  0  0  0  0  0  0  0  0
   36.4450   26.5620   42.7970 F   0  0  0  0  0  0  0  0  0  0  0  0
  1  6  2  0  0  0  0
  1  2  1  0  0  0  0
  2  3  2  0  0  0  0
  3  4  1  0  0  0  0
  3 37  1  0  0  0  0
  5 17  1  0  0  0  0
  5  4  2  0  0  0  0
  6  5  1  0  0  0  0
  7  1  1  0  0  0  0
  9  8  1  0  0  0  0
  9 10  1  0  0  0  0
 10  2  1  0  0  0  0
 11 10  2  0  0  0  0
 11 12  1  0  0  0  0
 13 11  1  0  0  0  0
 14 13  1  0  0  0  0
 15 16  1  0  0  0  0
 15 13  2  0  0  0  0
 16  9  2  0  0  0  0
 18 19  1  0  0  0  0
 18 17  2  0  0  0  0
 19 21  1  0  0  0  0
 19 24  1  0  0  0  0
 20 19  1  0  0  0  0
 22 24  1  0  0  0  0
 22 28  1  0  0  0  0
 23 22  2  0  0  0  0
 24 25  1  0  0  0  0
 26 27  1  0  0  0  0
 27 33  1  0  0  0  0
 28 27  2  0  0  0  0
 28 29  1  0  0  0  0
 29 30  2  0  0  0  0
 30 31  1  0  0  0  0
 30 35  1  0  0  0  0
 31 32  1  0  0  0  0
 33 36  1  0  0  0  0
 33 31  2  0  0  0  0
 34 29  1  0  0  0  0
 37 38  1  0  0  0  0
 38 41  1  0  0  0  0
 38 40  1  0  0  0  0
 39 38  1  0  0  0  0
M  END
>  <minimizedAffinity>
-6.73084068

$$$$

 OpenBabel03242520593D

 41 43  0  0  0  0  0  0  0  0999 V2000
   38.8010   29.5150   40.0300 C   0  0  0  0  0  0  0  0  0  0  0  0
   38.6910   29.3990   41.4450 C   0  0  0  0  0  0  0  0  0  0  0  0
   37.4500   29.1560   42.0150 C   0  0  0  0  0  0  0  0  0  0  0  0
   36.4380   29.0510   41.1620 N   0  0  0  0  0  0  0  0  0  0  0  0
   36.5160   29.1550   39.8420 C   0  0  0  0  0  0  0  0  0  0  0  0
   37.7090   29.3900   39.2610 N   0  0  0  0  0  0  0  0  0  0  0  0
   39.7090   29.7000   39.4770 H   0  0  0  0  0  0  0  0  0  0  0  0
   40.5070   27.3300   42.1720 F   0  0  0  0  0  0  0  0  0  0  0  0
   40.9230   28.5810   42.4310 C   0  0  0  0  0  0  0  0  0  0  0  0
   39.9970   29.5620   42.0580 C   0  0  0  0  0  0  0  0  0  0  0  0
   40.3300   30.8910   42.2820 C   0  0  0  0  0  0  0  0  0  0  0  0
   39.6690   31.7340   42.0250 H   0  0  0  0  0  0  0  0  0  0  0  0
   41.5440   31.1980   42.8570 C   0  0  0  0  0  0  0  0  0  0  0  0
   41.8120   32.2380   43.0370 H   0  0  0  0  0  0  0  0  0  0  0  0
   42.4820   30.2640   43.2390 C   0  0  0  0  0  3  0  0  0  0  0  0
   42.1280   28.9530   43.0050 C   0  0  0  0  0  3  0  0  0  0  0  0
   35.3270   29.0300   38.9930 C   0  0  0  0  0  3  0  0  0  0  0  0
   35.1010   27.9480   38.2790 C   0  0  0  0  0  3  0  0  0  0  0  0
   33.8840   27.8520   37.4240 C   0  0  0  0  0  0  0  0  0  0  0  0
   34.2280   27.3870   36.4920 H   0  0  0  0  0  0  0  0  0  0  0  0
   33.2170   27.0860   37.9000 H   0  0  0  0  0  0  0  0  0  0  0  0
   32.0540   28.9950   36.5240 C   0  0  0  0  0  0  0  0  0  0  0  0
   31.4880   28.0640   35.8930 O   0  0  0  0  0  0  0  0  0  0  0  0
   33.1920   29.0650   37.3190 N   0  0  0  0  0  0  0  0  0  0  0  0
   33.4360   29.9640   37.7560 H   0  0  0  0  0  0  0  0  0  0  0  0
   30.1600   30.1750   38.6010 Cl  0  0  0  0  0  0  0  0  0  0  0  0
   30.2350   30.7670   36.9740 C   0  0  0  0  0  0  0  0  0  0  0  0
   31.1490   30.1070   36.2000 C   0  0  0  0  0  0  0  0  0  0  0  0
   31.3370   30.4630   34.8560 C   0  0  0  0  0  0  0  0  0  0  0  0
   30.5910   31.4970   34.2980 C   0  0  0  0  0  0  0  0  0  0  0  0
   29.6700   32.1540   35.0990 C   0  0  0  0  0  0  0  0  0  0  0  0
   28.6990   33.4570   34.4540 Cl  0  0  0  0  0  0  0  0  0  0  0  0
   29.5020   31.7860   36.4200 C   0  0  0  0  0  0  0  0  0  0  0  0
   32.0090   30.0310   34.1520 H   0  0  0  0  0  0  0  0  0  0  0  0
   30.6810   31.8260   33.2790 H   0  0  0  0  0  0  0  0  0  0  0  0
   28.7990   32.2570   37.1050 H   0  0  0  0  0  0  0  0  0  0  0  0
   37.3000   29.0400   43.3490 O   0  0  0  0  0  0  0  0  0  0  0  0
   37.2080   27.7150   43.8920 C   0  0  0  0  0  0  0  0  0  0  0  0
   38.4820   27.2920   44.2740 F   0  0  0  0  0  0  0  0  0  0  0  0
   36.4260   27.8250   45.0390 F   0  0  0  0  0  0  0  0  0  0  0  0
   36.6070   26.8070   43.0270 F   0  0  0  0  0  0  0  0  0  0  0  0
  1  2  1  0  0  0  0
  2  3  2  0  0  0  0
  2 10  1  0  0  0  0
  3 37  1  0  0  0  0
  4  3  1  0  0  0  0
  5  4  2  0  0  0  0
  6  5  1  0  0  0  0
  6  1  2  0  0  0  0
  7  1  1  0  0  0  0
  8  9  1  0  0  0  0
  9 16  1  0  0  0  0
 10 11  1  0  0  0  0
 10  9  2  0  0  0  0
 11 13  2  0  0  0  0
 12 11  1  0  0  0  0
 13 14  1  0  0  0  0
 13 15  1  0  0  0  0
 16 15  2  0  0  0  0
 17  5  1  0  0  0  0
 18 17  2  0  0  0  0
 19 21  1  0  0  0  0
 19 18  1  0  0  0  0
 20 19  1  0  0  0  0
 22 24  1  0  0  0  0
 23 22  2  0  0  0  0
 24 19  1  0  0  0  0
 24 25  1  0  0  0  0
 27 26  1  0  0  0  0
 28 22  1  0  0  0  0
 28 27  2  0  0  0  0
 29 28  1  0  0  0  0
 30 29  2  0  0  0  0
 30 31  1  0  0  0  0
 31 33  2  0  0  0  0
 32 31  1  0  0  0  0
 33 27  1  0  0  0  0
 33 36  1  0  0  0  0
 34 29  1  0  0  0  0
 35 30  1  0  0  0  0
 37 38  1  0  0  0  0
 38 39  1  0  0  0  0
 38 40  1  0  0  0  0
 41 38  1  0  0  0  0
M  END
>  <minimizedAffinity>
-6.59733772

$$$$

 OpenBabel03242520593D

 41 43  0  0  0  0  0  0  0  0999 V2000
   41.7660   31.4660   41.8280 C   0  0  0  0  0  0  0  0  0  0  0  0
   41.5640   32.6130   41.0100 C   0  0  0  0  0  0  0  0  0  0  0  0
   40.2830   32.9340   40.5890 C   0  0  0  0  0  0  0  0  0  0  0  0
   39.3220   32.1150   40.9990 N   0  0  0  0  0  0  0  0  0  0  0  0
   39.4850   31.0410   41.7600 C   0  0  0  0  0  0  0  0  0  0  0  0
   40.7190   30.7060   42.1840 N   0  0  0  0  0  0  0  0  0  0  0  0
   42.7120   31.1200   42.2150 H   0  0  0  0  0  0  0  0  0  0  0  0
   43.0610   32.5910   38.5870 F   0  0  0  0  0  0  0  0  0  0  0  0
   43.6040   33.2950   39.5960 C   0  0  0  0  0  0  0  0  0  0  0  0
   42.8340   33.2750   40.7640 C   0  0  0  0  0  0  0  0  0  0  0  0
   43.3060   33.9710   41.8670 C   0  0  0  0  0  0  0  0  0  0  0  0
   42.7740   34.0150   42.8320 H   0  0  0  0  0  0  0  0  0  0  0  0
   44.5010   34.6510   41.7800 C   0  0  0  0  0  0  0  0  0  0  0  0
   44.8790   35.2000   42.6410 H   0  0  0  0  0  0  0  0  0  0  0  0
   45.2900   34.6960   40.6500 C   0  0  0  0  0  3  0  0  0  0  0  0
   44.7980   33.9970   39.5690 C   0  0  0  0  0  3  0  0  0  0  0  0
   38.3500   30.1980   42.1480 C   0  0  0  0  0  3  0  0  0  0  0  0
   38.4230   29.3710   43.1700 C   0  0  0  0  0  3  0  0  0  0  0  0
   37.2520   28.5250   43.5380 C   0  0  0  0  0  0  0  0  0  0  0  0
   37.4480   28.2010   44.5670 H   0  0  0  0  0  0  0  0  0  0  0  0
   36.3700   29.2140   43.6150 H   0  0  0  0  0  0  0  0  0  0  0  0
   37.8920   26.4820   42.5990 C   0  0  0  0  0  0  0  0  0  0  0  0
   38.9060   26.2160   43.2950 O   0  0  0  0  0  0  0  0  0  0  0  0
   36.9780   27.5300   42.5920 N   0  0  0  0  0  0  0  0  0  0  0  0
   36.1980   27.5020   41.9210 H   0  0  0  0  0  0  0  0  0  0  0  0
   39.7130   24.0840   43.0780 Cl  0  0  0  0  0  0  0  0  0  0  0  0
   38.6170   24.1610   41.7390 C   0  0  0  0  0  0  0  0  0  0  0  0
   37.8870   25.3170   41.7020 C   0  0  0  0  0  0  0  0  0  0  0  0
   36.9500   25.5390   40.6820 C   0  0  0  0  0  0  0  0  0  0  0  0
   36.7540   24.5790   39.6940 C   0  0  0  0  0  0  0  0  0  0  0  0
   37.5030   23.4130   39.7490 C   0  0  0  0  0  0  0  0  0  0  0  0
   37.3070   22.1720   38.5340 Cl  0  0  0  0  0  0  0  0  0  0  0  0
   38.4200   23.2160   40.7640 C   0  0  0  0  0  0  0  0  0  0  0  0
   36.3250   26.3900   40.5400 H   0  0  0  0  0  0  0  0  0  0  0  0
   36.0550   24.6780   38.8840 H   0  0  0  0  0  0  0  0  0  0  0  0
   39.0410   22.3270   40.8680 H   0  0  0  0  0  0  0  0  0  0  0  0
   40.0460   34.0100   39.8130 O   0  0  0  0  0  0  0  0  0  0  0  0
   39.7180   35.2410   40.4710 C   0  0  0  0  0  0  0  0  0  0  0  0
   38.9690   36.0360   39.6020 F   0  0  0  0  0  0  0  0  0  0  0  0
   38.9070   34.8950   41.5500 F   0  0  0  0  0  0  0  0  0  0  0  0
   40.8320   35.9210   40.9520 F   0  0  0  0  0  0  0  0  0  0  0  0
  1  6  1  0  0  0  0
  1  7  1  0  0  0  0
  2  1  2  0  0  0  0
  3  4  2  0  0  0  0
  3  2  1  0  0  0  0
  4  5  1  0  0  0  0
  5 17  1  0  0  0  0
  5  6  2  0  0  0  0
  8  9  1  0  0  0  0
  9 10  1  0  0  0  0
 10  2  1  0  0  0  0
 10 11  2  0  0  0  0
 11 12  1  0  0  0  0
 13 11  1  0  0  0  0
 13 14  1  0  0  0  0
 15 13  2  0  0  0  0
 16  9  2  0  0  0  0
 16 15  1  0  0  0  0
 17 18  2  0  0  0  0
 18 19  1  0  0  0  0
 19 21  1  0  0  0  0
 19 20  1  0  0  0  0
 22 23  2  0  0  0  0
 24 22  1  0  0  0  0
 24 19  1  0  0  0  0
 25 24  1  0  0  0  0
 27 26  1  0  0  0  0
 28 27  1  0  0  0  0
 28 22  1  0  0  0  0
 29 28  2  0  0  0  0
 30 31  2  0  0  0  0
 30 29  1  0  0  0  0
 31 33  1  0  0  0  0
 32 31  1  0  0  0  0
 33 36  1  0  0  0  0
 33 27  2  0  0  0  0
 34 29  1  0  0  0  0
 35 30  1  0  0  0  0
 37 38  1  0  0  0  0
 37  3  1  0  0  0  0
 38 41  1  0  0  0  0
 38 40  1  0  0  0  0
 39 38  1  0  0  0  0
M  END
>  <minimizedAffinity>
-6.42775488

$$$$

 OpenBabel03242520593D

 41 43  0  0  0  0  0  0  0  0999 V2000
   36.9460   26.4640   39.3100 C   0  0  0  0  0  0  0  0  0  0  0  0
   37.3950   25.7250   40.4410 C   0  0  0  0  0  0  0  0  0  0  0  0
   37.5570   26.3720   41.6570 C   0  0  0  0  0  0  0  0  0  0  0  0
   37.2710   27.6670   41.6610 N   0  0  0  0  0  0  0  0  0  0  0  0
   36.8520   28.3770   40.6220 C   0  0  0  0  0  0  0  0  0  0  0  0
   36.6850   27.7750   39.4280 N   0  0  0  0  0  0  0  0  0  0  0  0
   36.7830   26.0710   38.3190 H   0  0  0  0  0  0  0  0  0  0  0  0
   35.4700   23.6290   40.5300 F   0  0  0  0  0  0  0  0  0  0  0  0
   36.6930   23.2730   40.0980 C   0  0  0  0  0  0  0  0  0  0  0  0
   37.6030   24.3360   40.0730 C   0  0  0  0  0  0  0  0  0  0  0  0
   38.8960   24.0760   39.6420 C   0  0  0  0  0  0  0  0  0  0  0  0
   39.6850   24.8440   39.5880 H   0  0  0  0  0  0  0  0  0  0  0  0
   39.2380   22.7980   39.2570 C   0  0  0  0  0  0  0  0  0  0  0  0
   40.2510   22.5850   38.9190 H   0  0  0  0  0  0  0  0  0  0  0  0
   38.3740   21.7240   39.2680 C   0  0  0  0  0  3  0  0  0  0  0  0
   37.0970   22.0100   39.6990 C   0  0  0  0  0  3  0  0  0  0  0  0
   36.5730   29.8120   40.7360 C   0  0  0  0  0  3  0  0  0  0  0  0
   37.0960   30.6840   39.9000 C   0  0  0  0  0  3  0  0  0  0  0  0
   36.7940   32.1370   40.0430 C   0  0  0  0  0  0  0  0  0  0  0  0
   36.5170   32.4700   39.0360 H   0  0  0  0  0  0  0  0  0  0  0  0
   35.8490   32.2110   40.6430 H   0  0  0  0  0  0  0  0  0  0  0  0
   38.9680   32.9930   39.9400 C   0  0  0  0  0  0  0  0  0  0  0  0
   39.2950   32.6510   38.7740 O   0  0  0  0  0  0  0  0  0  0  0  0
   37.8110   32.8450   40.6970 N   0  0  0  0  0  0  0  0  0  0  0  0
   37.7840   33.2470   41.6440 H   0  0  0  0  0  0  0  0  0  0  0  0
   39.2220   36.0300   40.0150 Cl  0  0  0  0  0  0  0  0  0  0  0  0
   40.5240   34.9810   40.4690 C   0  0  0  0  0  0  0  0  0  0  0  0
   40.2090   33.6530   40.3690 C   0  0  0  0  0  0  0  0  0  0  0  0
   41.1520   32.6690   40.7000 C   0  0  0  0  0  0  0  0  0  0  0  0
   42.4200   33.0360   41.1360 C   0  0  0  0  0  0  0  0  0  0  0  0
   42.7200   34.3870   41.2310 C   0  0  0  0  0  0  0  0  0  0  0  0
   44.2990   34.9120   41.7680 Cl  0  0  0  0  0  0  0  0  0  0  0  0
   41.7750   35.3390   40.9000 C   0  0  0  0  0  0  0  0  0  0  0  0
   41.0330   31.6100   40.6640 H   0  0  0  0  0  0  0  0  0  0  0  0
   43.1920   32.3400   41.4080 H   0  0  0  0  0  0  0  0  0  0  0  0
   41.9420   36.4140   40.9510 H   0  0  0  0  0  0  0  0  0  0  0  0
   37.9800   25.7110   42.7540 O   0  0  0  0  0  0  0  0  0  0  0  0
   39.3760   25.7850   43.0740 C   0  0  0  0  0  0  0  0  0  0  0  0
   39.5380   26.5620   44.2220 F   0  0  0  0  0  0  0  0  0  0  0  0
   39.7700   24.4830   43.3730 F   0  0  0  0  0  0  0  0  0  0  0  0
   40.1570   26.2560   42.0240 F   0  0  0  0  0  0  0  0  0  0  0  0
  1  6  2  0  0  0  0
  1  2  1  0  0  0  0
  2  3  2  0  0  0  0
  3  4  1  0  0  0  0
  3 37  1  0  0  0  0
  5 17  1  0  0  0  0
  5  4  2  0  0  0  0
  6  5  1  0  0  0  0
  7  1  1  0  0  0  0
  9  8  1  0  0  0  0
 10  9  1  0  0  0  0
 10  2  1  0  0  0  0
 11 10  2  0  0  0  0
 12 11  1  0  0  0  0
 13 15  2  0  0  0  0
 13 11  1  0  0  0  0
 14 13  1  0  0  0  0
 15 16  1  0  0  0  0
 16  9  2  0  0  0  0
 18 19  1  0  0  0  0
 18 17  2  0  0  0  0
 19 21  1  0  0  0  0
 19 24  1  0  0  0  0
 20 19  1  0  0  0  0
 22 28  1  0  0  0  0
 22 24  1  0  0  0  0
 23 22  2  0  0  0  0
 24 25  1  0  0  0  0
 26 27  1  0  0  0  0
 27 33  1  0  0  0  0
 28 27  2  0  0  0  0
 28 29  1  0  0  0  0
 29 30  2  0  0  0  0
 30 31  1  0  0  0  0
 30 35  1  0  0  0  0
 31 32  1  0  0  0  0
 33 36  1  0  0  0  0
 33 31  2  0  0  0  0
 34 29  1  0  0  0  0
 37 38  1  0  0  0  0
 38 40  1  0  0  0  0
 38 39  1  0  0  0  0
 41 38  1  0  0  0  0
M  END
>  <minimizedAffinity>
-6.34605026

$$$$

 OpenBabel03242520593D

 41 43  0  0  0  0  0  0  0  0999 V2000
   41.6960   31.3300   41.3960 C   0  0  0  0  0  0  0  0  0  0  0  0
   41.4360   32.5020   40.6290 C   0  0  0  0  0  0  0  0  0  0  0  0
   40.1240   32.8790   40.3840 C   0  0  0  0  0  0  0  0  0  0  0  0
   39.1930   32.0880   40.9030 N   0  0  0  0  0  0  0  0  0  0  0  0
   39.4100   30.9930   41.6200 C   0  0  0  0  0  0  0  0  0  0  0  0
   40.6740   30.6030   41.8730 N   0  0  0  0  0  0  0  0  0  0  0  0
   42.6690   30.9410   41.6500 H   0  0  0  0  0  0  0  0  0  0  0  0
   43.0000   34.3270   42.1560 F   0  0  0  0  0  0  0  0  0  0  0  0
   43.4920   34.0180   40.9430 C   0  0  0  0  0  0  0  0  0  0  0  0
   42.6880   33.1200   40.2310 C   0  0  0  0  0  0  0  0  0  0  0  0
   43.1060   32.7350   38.9660 C   0  0  0  0  0  0  0  0  0  0  0  0
   42.5440   32.0340   38.3260 H   0  0  0  0  0  0  0  0  0  0  0  0
   44.2820   33.2410   38.4560 C   0  0  0  0  0  0  0  0  0  0  0  0
   44.6170   32.9440   37.4630 H   0  0  0  0  0  0  0  0  0  0  0  0
   45.1010   34.1270   39.1230 C   0  0  0  0  0  3  0  0  0  0  0  0
   44.6630   34.4930   40.3770 C   0  0  0  0  0  3  0  0  0  0  0  0
   38.3020   30.1850   42.1380 C   0  0  0  0  0  3  0  0  0  0  0  0
   38.4670   29.3560   43.1470 C   0  0  0  0  0  3  0  0  0  0  0  0
   37.3220   28.5460   43.6500 C   0  0  0  0  0  0  0  0  0  0  0  0
   37.7390   27.9370   44.4610 H   0  0  0  0  0  0  0  0  0  0  0  0
   36.6210   29.2610   44.1570 H   0  0  0  0  0  0  0  0  0  0  0  0
   37.3410   26.8060   42.0890 C   0  0  0  0  0  0  0  0  0  0  0  0
   38.4600   26.2870   42.3360 O   0  0  0  0  0  0  0  0  0  0  0  0
   36.6360   27.8750   42.6300 N   0  0  0  0  0  0  0  0  0  0  0  0
   35.7010   28.0900   42.2590 H   0  0  0  0  0  0  0  0  0  0  0  0
   36.8520   27.9060   39.2870 Cl  0  0  0  0  0  0  0  0  0  0  0  0
   36.6230   26.2340   39.6780 C   0  0  0  0  0  0  0  0  0  0  0  0
   36.8980   25.9410   40.9860 C   0  0  0  0  0  0  0  0  0  0  0  0
   36.7640   24.6310   41.4680 C   0  0  0  0  0  0  0  0  0  0  0  0
   36.3510   23.6120   40.6150 C   0  0  0  0  0  0  0  0  0  0  0  0
   36.0780   23.9290   39.2930 C   0  0  0  0  0  0  0  0  0  0  0  0
   35.5500   22.6940   38.1740 Cl  0  0  0  0  0  0  0  0  0  0  0  0
   36.2170   25.2270   38.8400 C   0  0  0  0  0  0  0  0  0  0  0  0
   36.9440   24.2750   42.4560 H   0  0  0  0  0  0  0  0  0  0  0  0
   36.2280   22.5870   40.9110 H   0  0  0  0  0  0  0  0  0  0  0  0
   36.0200   25.5460   37.8170 H   0  0  0  0  0  0  0  0  0  0  0  0
   39.8320   33.9800   39.6640 O   0  0  0  0  0  0  0  0  0  0  0  0
   39.5030   35.1750   40.3840 C   0  0  0  0  0  0  0  0  0  0  0  0
   38.9440   34.8250   41.6140 F   0  0  0  0  0  0  0  0  0  0  0  0
   40.7140   35.8220   40.6280 F   0  0  0  0  0  0  0  0  0  0  0  0
   38.6740   36.0360   39.6730 F   0  0  0  0  0  0  0  0  0  0  0  0
  1  7  1  0  0  0  0
  1  6  1  0  0  0  0
  2  1  2  0  0  0  0
  3  2  1  0  0  0  0
  3  4  2  0  0  0  0
  4  5  1  0  0  0  0
  5  6  2  0  0  0  0
  5 17  1  0  0  0  0
  9  8  1  0  0  0  0
 10  2  1  0  0  0  0
 10  9  2  0  0  0  0
 11 10  1  0  0  0  0
 12 11  1  0  0  0  0
 13 11  2  0  0  0  0
 13 15  1  0  0  0  0
 14 13  1  0  0  0  0
 15 16  2  0  0  0  0
 16  9  1  0  0  0  0
 17 18  2  0  0  0  0
 18 19  1  0  0  0  0
 19 21  1  0  0  0  0
 19 20  1  0  0  0  0
 22 23  2  0  0  0  0
 22 24  1  0  0  0  0
 24 19  1  0  0  0  0
 25 24  1  0  0  0  0
 26 27  1  0  0  0  0
 27 28  1  0  0  0  0
 28 29  2  0  0  0  0
 28 22  1  0  0  0  0
 29 34  1  0  0  0  0
 30 35  1  0  0  0  0
 30 29  1  0  0  0  0
 31 30  2  0  0  0  0
 32 31  1  0  0  0  0
 33 31  1  0  0  0  0
 33 27  2  0  0  0  0
 36 33  1  0  0  0  0
 37 38  1  0  0  0  0
 37  3  1  0  0  0  0
 38 40  1  0  0  0  0
 38 39  1  0  0  0  0
 41 38  1  0  0  0  0
M  END
>  <minimizedAffinity>
-6.29689884

$$$$

 OpenBabel03242520593D

 41 43  0  0  0  0  0  0  0  0999 V2000
   39.7780   31.5210   42.1990 C   0  0  0  0  0  0  0  0  0  0  0  0
   39.4310   31.8000   40.8470 C   0  0  0  0  0  0  0  0  0  0  0  0
   38.9290   30.7840   40.0480 C   0  0  0  0  0  0  0  0  0  0  0  0
   38.8120   29.5980   40.6340 N   0  0  0  0  0  0  0  0  0  0  0  0
   39.1290   29.3140   41.8900 C   0  0  0  0  0  0  0  0  0  0  0  0
   39.6190   30.2820   42.6890 N   0  0  0  0  0  0  0  0  0  0  0  0
   40.1750   32.2280   42.9110 H   0  0  0  0  0  0  0  0  0  0  0  0
   37.4850   33.8480   40.4930 F   0  0  0  0  0  0  0  0  0  0  0  0
   38.7650   34.2400   40.3690 C   0  0  0  0  0  0  0  0  0  0  0  0
   39.6830   33.1990   40.5500 C   0  0  0  0  0  0  0  0  0  0  0  0
   41.0340   33.4970   40.4430 C   0  0  0  0  0  0  0  0  0  0  0  0
   41.8340   32.7480   40.5670 H   0  0  0  0  0  0  0  0  0  0  0  0
   41.4240   34.7890   40.1660 C   0  0  0  0  0  0  0  0  0  0  0  0
   42.4820   35.0310   40.0790 H   0  0  0  0  0  0  0  0  0  0  0  0
   40.5530   35.8420   39.9800 C   0  0  0  0  0  3  0  0  0  0  0  0
   39.2190   35.5190   40.0930 C   0  0  0  0  0  3  0  0  0  0  0  0
   38.9680   27.9620   42.4340 C   0  0  0  0  0  3  0  0  0  0  0  0
   39.9860   27.1340   42.5330 C   0  0  0  0  0  3  0  0  0  0  0  0
   39.7890   25.7650   43.0890 C   0  0  0  0  0  0  0  0  0  0  0  0
   40.7600   25.2690   42.9720 H   0  0  0  0  0  0  0  0  0  0  0  0
   39.6570   25.8840   44.1960 H   0  0  0  0  0  0  0  0  0  0  0  0
   38.8800   24.5670   41.2980 C   0  0  0  0  0  0  0  0  0  0  0  0
   39.8780   24.5030   40.5340 O   0  0  0  0  0  0  0  0  0  0  0  0
   38.6680   25.1140   42.5590 N   0  0  0  0  0  0  0  0  0  0  0  0
   37.7420   25.0090   42.9940 H   0  0  0  0  0  0  0  0  0  0  0  0
   36.5560   26.0350   39.9800 Cl  0  0  0  0  0  0  0  0  0  0  0  0
   36.7850   24.3260   39.8140 C   0  0  0  0  0  0  0  0  0  0  0  0
   37.8860   23.8600   40.4780 C   0  0  0  0  0  0  0  0  0  0  0  0
   38.2180   22.4970   40.4440 C   0  0  0  0  0  0  0  0  0  0  0  0
   37.4250   21.6050   39.7300 C   0  0  0  0  0  0  0  0  0  0  0  0
   36.3130   22.0960   39.0630 C   0  0  0  0  0  0  0  0  0  0  0  0
   35.2750   21.0230   38.1540 Cl  0  0  0  0  0  0  0  0  0  0  0  0
   36.0060   23.4430   39.1100 C   0  0  0  0  0  0  0  0  0  0  0  0
   39.0400   22.0120   40.9160 H   0  0  0  0  0  0  0  0  0  0  0  0
   37.6160   20.5490   39.6580 H   0  0  0  0  0  0  0  0  0  0  0  0
   35.1510   23.8960   38.6120 H   0  0  0  0  0  0  0  0  0  0  0  0
   38.5880   31.0030   38.7630 O   0  0  0  0  0  0  0  0  0  0  0  0
   37.2190   31.3300   38.4880 C   0  0  0  0  0  0  0  0  0  0  0  0
   37.1630   32.5910   37.8930 F   0  0  0  0  0  0  0  0  0  0  0  0
   36.7800   30.3910   37.5560 F   0  0  0  0  0  0  0  0  0  0  0  0
   36.4000   31.2580   39.6100 F   0  0  0  0  0  0  0  0  0  0  0  0
  1  6  1  0  0  0  0
  1  7  1  0  0  0  0
  2  1  2  0  0  0  0
  3  4  2  0  0  0  0
  3  2  1  0  0  0  0
  4  5  1  0  0  0  0
  5 17  1  0  0  0  0
  5  6  2  0  0  0  0
  9  8  1  0  0  0  0
  9 10  1  0  0  0  0
 10  2  1  0  0  0  0
 11 10  2  0  0  0  0
 11 12  1  0  0  0  0
 13 11  1  0  0  0  0
 14 13  1  0  0  0  0
 15 16  1  0  0  0  0
 15 13  2  0  0  0  0
 16  9  2  0  0  0  0
 17 18  2  0  0  0  0
 18 19  1  0  0  0  0
 19 21  1  0  0  0  0
 20 19  1  0  0  0  0
 22 24  1  0  0  0  0
 23 22  2  0  0  0  0
 24 25  1  0  0  0  0
 24 19  1  0  0  0  0
 27 26  1  0  0  0  0
 27 28  1  0  0  0  0
 28 22  1  0  0  0  0
 29 28  2  0  0  0  0
 29 34  1  0  0  0  0
 30 29  1  0  0  0  0
 31 33  1  0  0  0  0
 31 30  2  0  0  0  0
 32 31  1  0  0  0  0
 33 27  2  0  0  0  0
 35 30  1  0  0  0  0
 36 33  1  0  0  0  0
 37  3  1  0  0  0  0
 38 37  1  0  0  0  0
 38 41  1  0  0  0  0
 39 38  1  0  0  0  0
 40 38  1  0  0  0  0
M  END
>  <minimizedAffinity>
-6.24285507

$$$$

 OpenBabel03242520593D

 41 43  0  0  0  0  0  0  0  0999 V2000
   34.1640   28.1020   36.8330 C   0  0  0  0  0  0  0  0  0  0  0  0
   34.7000   28.3680   35.5420 C   0  0  0  0  0  0  0  0  0  0  0  0
   35.7820   29.2270   35.4160 C   0  0  0  0  0  0  0  0  0  0  0  0
   36.2390   29.7440   36.5500 N   0  0  0  0  0  0  0  0  0  0  0  0
   35.7570   29.5110   37.7630 C   0  0  0  0  0  0  0  0  0  0  0  0
   34.7070   28.6810   37.9150 N   0  0  0  0  0  0  0  0  0  0  0  0
   33.3300   27.4540   37.0530 H   0  0  0  0  0  0  0  0  0  0  0  0
   35.7410   26.4320   33.7320 F   0  0  0  0  0  0  0  0  0  0  0  0
   34.4220   26.6700   33.6280 C   0  0  0  0  0  0  0  0  0  0  0  0
   33.9580   27.6290   34.5360 C   0  0  0  0  0  0  0  0  0  0  0  0
   32.6080   27.9480   34.5120 C   0  0  0  0  0  0  0  0  0  0  0  0
   32.1470   28.6900   35.1850 H   0  0  0  0  0  0  0  0  0  0  0  0
   31.7790   27.3220   33.6090 C   0  0  0  0  0  0  0  0  0  0  0  0
   30.7180   27.5670   33.5830 H   0  0  0  0  0  0  0  0  0  0  0  0
   32.1940   26.3740   32.6980 C   0  0  0  0  0  3  0  0  0  0  0  0
   33.5390   26.0740   32.7430 C   0  0  0  0  0  3  0  0  0  0  0  0
   36.3350   30.1450   38.9520 C   0  0  0  0  0  3  0  0  0  0  0  0
   35.7240   30.1130   40.1170 C   0  0  0  0  0  3  0  0  0  0  0  0
   36.3360   30.7690   41.3070 C   0  0  0  0  0  0  0  0  0  0  0  0
   36.9710   31.5640   40.8980 H   0  0  0  0  0  0  0  0  0  0  0  0
   35.5080   31.3050   41.8400 H   0  0  0  0  0  0  0  0  0  0  0  0
   38.2740   29.6060   41.9070 C   0  0  0  0  0  0  0  0  0  0  0  0
   39.0810   30.0440   41.0460 O   0  0  0  0  0  0  0  0  0  0  0  0
   36.9350   29.8580   42.1860 N   0  0  0  0  0  0  0  0  0  0  0  0
   36.4970   29.3770   42.9830 H   0  0  0  0  0  0  0  0  0  0  0  0
   37.1860   27.0920   43.2470 Cl  0  0  0  0  0  0  0  0  0  0  0  0
   38.8670   27.5110   43.2910 C   0  0  0  0  0  0  0  0  0  0  0  0
   39.1530   28.6740   42.6280 C   0  0  0  0  0  0  0  0  0  0  0  0
   40.4680   29.1560   42.5660 C   0  0  0  0  0  0  0  0  0  0  0  0
   41.4990   28.4510   43.1790 C   0  0  0  0  0  0  0  0  0  0  0  0
   41.1900   27.2750   43.8450 C   0  0  0  0  0  0  0  0  0  0  0  0
   42.4400   26.3480   44.6400 Cl  0  0  0  0  0  0  0  0  0  0  0  0
   39.8860   26.8190   43.8930 C   0  0  0  0  0  0  0  0  0  0  0  0
   40.8200   30.0410   42.0880 H   0  0  0  0  0  0  0  0  0  0  0  0
   42.5290   28.7570   43.1730 H   0  0  0  0  0  0  0  0  0  0  0  0
   39.5720   25.9060   44.3970 H   0  0  0  0  0  0  0  0  0  0  0  0
   36.3210   29.5080   34.2130 O   0  0  0  0  0  0  0  0  0  0  0  0
   36.1070   30.8220   33.6820 C   0  0  0  0  0  0  0  0  0  0  0  0
   36.4300   30.8220   32.3240 F   0  0  0  0  0  0  0  0  0  0  0  0
   34.7400   31.0660   33.8010 F   0  0  0  0  0  0  0  0  0  0  0  0
   36.7970   31.8130   34.3710 F   0  0  0  0  0  0  0  0  0  0  0  0
  1  7  1  0  0  0  0
  1  6  1  0  0  0  0
  2  1  2  0  0  0  0
  3  2  1  0  0  0  0
  3  4  2  0  0  0  0
  4  5  1  0  0  0  0
  5  6  2  0  0  0  0
  5 17  1  0  0  0  0
  9  8  1  0  0  0  0
  9 10  1  0  0  0  0
 10  2  1  0  0  0  0
 11 10  2  0  0  0  0
 11 12  1  0  0  0  0
 13 11  1  0  0  0  0
 14 13  1  0  0  0  0
 15 16  1  0  0  0  0
 15 13  2  0  0  0  0
 16  9  2  0  0  0  0
 17 18  2  0  0  0  0
 18 19  1  0  0  0  0
 19 21  1  0  0  0  0
 19 24  1  0  0  0  0
 20 19  1  0  0  0  0
 22 24  1  0  0  0  0
 22 28  1  0  0  0  0
 23 22  2  0  0  0  0
 24 25  1  0  0  0  0
 26 27  1  0  0  0  0
 27 33  1  0  0  0  0
 28 27  2  0  0  0  0
 29 28  1  0  0  0  0
 29 30  2  0  0  0  0
 30 31  1  0  0  0  0
 31 33  2  0  0  0  0
 31 32  1  0  0  0  0
 33 36  1  0  0  0  0
 34 29  1  0  0  0  0
 35 30  1  0  0  0  0
 37  3  1  0  0  0  0
 38 40  1  0  0  0  0
 38 37  1  0  0  0  0
 38 41  1  0  0  0  0
 39 38  1  0  0  0  0
M  END
>  <minimizedAffinity>
-6.0699048

$$$$

 OpenBabel03242520593D

 41 43  0  0  0  0  0  0  0  0999 V2000
   38.0070   31.8850   38.1380 C   0  0  0  0  0  0  0  0  0  0  0  0
   38.2010   31.8990   39.5480 C   0  0  0  0  0  0  0  0  0  0  0  0
   37.5750   30.9420   40.3320 C   0  0  0  0  0  0  0  0  0  0  0  0
   36.8230   30.0660   39.6760 N   0  0  0  0  0  0  0  0  0  0  0  0
   36.6270   30.0330   38.3650 C   0  0  0  0  0  0  0  0  0  0  0  0
   37.2240   30.9510   37.5790 N   0  0  0  0  0  0  0  0  0  0  0  0
   38.4420   32.5750   37.4310 H   0  0  0  0  0  0  0  0  0  0  0  0
   41.0260   31.7640   39.8840 F   0  0  0  0  0  0  0  0  0  0  0  0
   40.4760   32.9740   40.0910 C   0  0  0  0  0  0  0  0  0  0  0  0
   39.0870   32.9890   39.9150 C   0  0  0  0  0  0  0  0  0  0  0  0
   38.4210   34.1910   40.1040 C   0  0  0  0  0  0  0  0  0  0  0  0
   37.3300   34.3060   39.9910 H   0  0  0  0  0  0  0  0  0  0  0  0
   39.1360   35.3160   40.4540 C   0  0  0  0  0  0  0  0  0  0  0  0
   38.6200   36.2630   40.6050 H   0  0  0  0  0  0  0  0  0  0  0  0
   40.5020   35.3430   40.6380 C   0  0  0  0  0  3  0  0  0  0  0  0
   41.1390   34.1370   40.4430 C   0  0  0  0  0  3  0  0  0  0  0  0
   35.7650   29.0230   37.7440 C   0  0  0  0  0  3  0  0  0  0  0  0
   34.4880   29.2490   37.5220 C   0  0  0  0  0  3  0  0  0  0  0  0
   33.6370   28.2010   36.8900 C   0  0  0  0  0  0  0  0  0  0  0  0
   34.2340   27.2820   36.9400 H   0  0  0  0  0  0  0  0  0  0  0  0
   32.7760   28.0240   37.5860 H   0  0  0  0  0  0  0  0  0  0  0  0
   31.9880   29.3490   35.6940 C   0  0  0  0  0  0  0  0  0  0  0  0
   31.2960   29.8080   36.6400 O   0  0  0  0  0  0  0  0  0  0  0  0
   33.1450   28.5790   35.6350 N   0  0  0  0  0  0  0  0  0  0  0  0
   33.5400   28.3510   34.7130 H   0  0  0  0  0  0  0  0  0  0  0  0
   30.6630   27.4760   33.6870 Cl  0  0  0  0  0  0  0  0  0  0  0  0
   30.5670   29.2000   33.5470 C   0  0  0  0  0  0  0  0  0  0  0  0
   31.2240   29.8620   34.5480 C   0  0  0  0  0  0  0  0  0  0  0  0
   31.2430   31.2640   34.5850 C   0  0  0  0  0  0  0  0  0  0  0  0
   30.5890   31.9960   33.6000 C   0  0  0  0  0  0  0  0  0  0  0  0
   29.9280   31.3080   32.5940 C   0  0  0  0  0  0  0  0  0  0  0  0
   29.0920   32.1720   31.3250 Cl  0  0  0  0  0  0  0  0  0  0  0  0
   29.9220   29.9260   32.5780 C   0  0  0  0  0  0  0  0  0  0  0  0
   31.7160   31.8940   35.3030 H   0  0  0  0  0  0  0  0  0  0  0  0
   30.5590   33.0700   33.5630 H   0  0  0  0  0  0  0  0  0  0  0  0
   29.4240   29.3220   31.8210 H   0  0  0  0  0  0  0  0  0  0  0  0
   37.7300   30.9170   41.6710 O   0  0  0  0  0  0  0  0  0  0  0  0
   38.8340   30.1680   42.1960 C   0  0  0  0  0  0  0  0  0  0  0  0
   39.4900   29.5270   41.1430 F   0  0  0  0  0  0  0  0  0  0  0  0
   39.7070   31.1050   42.7450 F   0  0  0  0  0  0  0  0  0  0  0  0
   38.4640   29.2680   43.1900 F   0  0  0  0  0  0  0  0  0  0  0  0
  1  2  1  0  0  0  0
  2 10  1  0  0  0  0
  2  3  2  0  0  0  0
  3 37  1  0  0  0  0
  4  3  1  0  0  0  0
  5  4  2  0  0  0  0
  6  1  2  0  0  0  0
  6  5  1  0  0  0  0
  7  1  1  0  0  0  0
  8  9  1  0  0  0  0
  9 16  1  0  0  0  0
 10  9  2  0  0  0  0
 10 11  1  0  0  0  0
 11 13  2  0  0  0  0
 12 11  1  0  0  0  0
 13 14  1  0  0  0  0
 13 15  1  0  0  0  0
 16 15  2  0  0  0  0
 17  5  1  0  0  0  0
 18 17  2  0  0  0  0
 19 20  1  0  0  0  0
 19 18  1  0  0  0  0
 19 21  1  0  0  0  0
 22 23  2  0  0  0  0
 24 22  1  0  0  0  0
 24 19  1  0  0  0  0
 25 24  1  0  0  0  0
 27 26  1  0  0  0  0
 27 28  1  0  0  0  0
 28 29  2  0  0  0  0
 28 22  1  0  0  0  0
 29 34  1  0  0  0  0
 30 29  1  0  0  0  0
 31 30  2  0  0  0  0
 32 31  1  0  0  0  0
 33 31  1  0  0  0  0
 33 27  2  0  0  0  0
 35 30  1  0  0  0  0
 36 33  1  0  0  0  0
 37 38  1  0  0  0  0
 38 40  1  0  0  0  0
 38 41  1  0  0  0  0
 39 38  1  0  0  0  0
M  END
>  <minimizedAffinity>
-6.06847286

$$$$

 OpenBabel03242520593D

 41 43  0  0  0  0  0  0  0  0999 V2000
   39.1620   28.5660   39.9990 C   0  0  0  0  0  0  0  0  0  0  0  0
   38.8620   28.9020   41.3490 C   0  0  0  0  0  0  0  0  0  0  0  0
   37.5700   28.7360   41.8220 C   0  0  0  0  0  0  0  0  0  0  0  0
   36.6940   28.2630   40.9450 N   0  0  0  0  0  0  0  0  0  0  0  0
   36.9490   27.9420   39.6830 C   0  0  0  0  0  0  0  0  0  0  0  0
   38.1960   28.0930   39.1970 N   0  0  0  0  0  0  0  0  0  0  0  0
   40.1260   28.6510   39.5220 H   0  0  0  0  0  0  0  0  0  0  0  0
   39.4660   31.5970   42.0450 F   0  0  0  0  0  0  0  0  0  0  0  0
   40.4000   30.6900   42.3800 C   0  0  0  0  0  0  0  0  0  0  0  0
   40.0600   29.3820   42.0160 C   0  0  0  0  0  0  0  0  0  0  0  0
   40.9580   28.3680   42.3170 C   0  0  0  0  0  0  0  0  0  0  0  0
   40.7820   27.3080   42.0710 H   0  0  0  0  0  0  0  0  0  0  0  0
   42.1390   28.6750   42.9550 C   0  0  0  0  0  0  0  0  0  0  0  0
   42.8500   27.8860   43.1940 H   0  0  0  0  0  0  0  0  0  0  0  0
   42.5140   29.9490   43.3280 C   0  0  0  0  0  3  0  0  0  0  0  0
   41.6040   30.9360   43.0190 C   0  0  0  0  0  3  0  0  0  0  0  0
   35.8990   27.4340   38.7950 C   0  0  0  0  0  3  0  0  0  0  0  0
   35.9290   26.2060   38.3240 C   0  0  0  0  0  3  0  0  0  0  0  0
   34.8480   25.7190   37.4210 C   0  0  0  0  0  0  0  0  0  0  0  0
   35.3440   25.5230   36.4630 H   0  0  0  0  0  0  0  0  0  0  0  0
   34.5430   24.7080   37.8010 H   0  0  0  0  0  0  0  0  0  0  0  0
   33.7300   27.4770   36.3590 C   0  0  0  0  0  0  0  0  0  0  0  0
   34.5110   27.6980   35.3980 O   0  0  0  0  0  0  0  0  0  0  0  0
   33.7280   26.5610   37.4050 N   0  0  0  0  0  0  0  0  0  0  0  0
   32.9400   26.5660   38.0660 H   0  0  0  0  0  0  0  0  0  0  0  0
   32.8270   29.4100   38.5370 Cl  0  0  0  0  0  0  0  0  0  0  0  0
   32.1760   29.4540   36.9320 C   0  0  0  0  0  0  0  0  0  0  0  0
   32.7140   28.5070   36.1030 C   0  0  0  0  0  0  0  0  0  0  0  0
   32.2970   28.4070   34.7680 C   0  0  0  0  0  0  0  0  0  0  0  0
   31.3310   29.2760   34.2720 C   0  0  0  0  0  0  0  0  0  0  0  0
   30.7980   30.2290   35.1270 C   0  0  0  0  0  0  0  0  0  0  0  0
   29.5760   31.3450   34.5640 Cl  0  0  0  0  0  0  0  0  0  0  0  0
   31.2240   30.3090   36.4390 C   0  0  0  0  0  0  0  0  0  0  0  0
   32.6330   27.7190   34.0270 H   0  0  0  0  0  0  0  0  0  0  0  0
   30.9640   29.2610   33.2620 H   0  0  0  0  0  0  0  0  0  0  0  0
   30.8500   31.0310   37.1640 H   0  0  0  0  0  0  0  0  0  0  0  0
   37.2410   29.0430   43.0930 O   0  0  0  0  0  0  0  0  0  0  0  0
   37.1530   27.9630   44.0330 C   0  0  0  0  0  0  0  0  0  0  0  0
   36.6910   28.4580   45.2530 F   0  0  0  0  0  0  0  0  0  0  0  0
   36.1910   27.0920   43.5260 F   0  0  0  0  0  0  0  0  0  0  0  0
   38.3480   27.2670   44.1840 F   0  0  0  0  0  0  0  0  0  0  0  0
  1  2  1  0  0  0  0
  2  3  2  0  0  0  0
  2 10  1  0  0  0  0
  3 37  1  0  0  0  0
  4  3  1  0  0  0  0
  5  4  2  0  0  0  0
  6  5  1  0  0  0  0
  6  1  2  0  0  0  0
  7  1  1  0  0  0  0
  8  9  1  0  0  0  0
  9 16  1  0  0  0  0
 10 11  1  0  0  0  0
 10  9  2  0  0  0  0
 11 13  2  0  0  0  0
 12 11  1  0  0  0  0
 13 14  1  0  0  0  0
 13 15  1  0  0  0  0
 16 15  2  0  0  0  0
 17  5  1  0  0  0  0
 18 17  2  0  0  0  0
 19 21  1  0  0  0  0
 19 18  1  0  0  0  0
 20 19  1  0  0  0  0
 22 24  1  0  0  0  0
 23 22  2  0  0  0  0
 24 19  1  0  0  0  0
 24 25  1  0  0  0  0
 27 26  1  0  0  0  0
 28 22  1  0  0  0  0
 28 27  2  0  0  0  0
 29 28  1  0  0  0  0
 30 29  2  0  0  0  0
 30 31  1  0  0  0  0
 31 33  2  0  0  0  0
 32 31  1  0  0  0  0
 33 27  1  0  0  0  0
 33 36  1  0  0  0  0
 34 29  1  0  0  0  0
 35 30  1  0  0  0  0
 37 38  1  0  0  0  0
 38 41  1  0  0  0  0
 38 39  1  0  0  0  0
 40 38  1  0  0  0  0
M  END
>  <minimizedAffinity>
-6.00084639

$$$$
