
 OpenBabel03252509163D

 25 27  0  0  0  0  0  0  0  0999 V2000
   45.9570   33.1000   46.2160 C   0  0  0  0  0  0  0  0  0  0  0  0
   45.4530   32.8850   47.5250 C   0  0  0  0  0  0  0  0  0  0  0  0
   46.1080   32.0340   48.3450 C   0  0  0  0  0  0  0  0  0  0  0  0
   47.2730   31.3930   47.8620 C   0  0  0  0  0  0  0  0  0  0  0  0
   47.4160   32.0420   46.1750 S   0  0  0  0  0  0  0  0  0  0  0  0
   44.5470   33.4120   47.8380 H   0  0  0  0  0  0  0  0  0  0  0  0
   45.8040   31.8160   49.3310 H   0  0  0  0  0  0  0  0  0  0  0  0
   44.2790   35.9050   44.4500 C   0  0  0  0  0  0  0  0  0  0  0  0
   44.2780   35.3860   43.1290 C   0  0  0  0  0  0  0  0  0  0  0  0
   44.8470   34.1150   42.9130 C   0  0  0  0  0  0  0  0  0  0  0  0
   45.3690   33.4540   43.9980 N   0  0  0  0  0  0  0  0  0  0  0  0
   45.3450   33.9910   45.2340 C   0  0  0  0  0  0  0  0  0  0  0  0
   44.8020   35.2130   45.4650 N   0  0  0  0  0  0  0  0  0  0  0  0
   43.8450   36.8780   44.6280 H   0  0  0  0  0  0  0  0  0  0  0  0
   43.8630   35.9240   42.2970 H   0  0  0  0  0  0  0  0  0  0  0  0
   44.8810   33.6610   41.9350 H   0  0  0  0  0  0  0  0  0  0  0  0
   47.8460   28.8500   46.8240 F   0  0  0  0  0  0  0  0  0  0  0  0
   48.4920   29.2030   47.9540 C   0  0  0  0  0  0  0  0  0  0  0  0
   48.1910   30.4560   48.4410 C   0  0  0  0  0  0  0  0  0  0  0  0
   48.8460   30.8270   49.5960 C   0  0  0  0  0  0  0  0  0  0  0  0
   48.6880   31.8040   50.0790 H   0  0  0  0  0  0  0  0  0  0  0  0
   49.7500   30.0110   50.2410 C   0  0  0  0  0  0  0  0  0  0  0  0
   50.2500   30.3260   51.1460 H   0  0  0  0  0  0  0  0  0  0  0  0
   50.0010   28.7700   49.6950 C   0  0  0  0  0  3  0  0  0  0  0  0
   49.3830   28.3330   48.5430 C   0  0  0  0  0  3  0  0  0  0  0  0
  1  2  2  0  0  0  0
  2  6  1  0  0  0  0
  2  3  1  0  0  0  0
  3  7  1  0  0  0  0
  4  3  2  0  0  0  0
  4 19  1  0  0  0  0
  5  1  1  0  0  0  0
  5  4  1  0  0  0  0
  8 14  1  0  0  0  0
  8 13  1  0  0  0  0
  9  8  2  0  0  0  0
 10  9  1  0  0  0  0
 10 11  2  0  0  0  0
 11 12  1  0  0  0  0
 12 13  2  0  0  0  0
 12  1  1  0  0  0  0
 15  9  1  0  0  0  0
 16 10  1  0  0  0  0
 17 18  1  0  0  0  0
 18 19  2  0  0  0  0
 18 25  1  0  0  0  0
 19 20  1  0  0  0  0
 20 21  1  0  0  0  0
 20 22  2  0  0  0  0
 22 23  1  0  0  0  0
 24 22  1  0  0  0  0
 25 24  2  0  0  0  0
M  END
>  <minimizedAffinity>
-4.7066431

>  <minimizedRMSD>
1.17812598

$$$$
