
 OpenBabel03252505073D

 43 46  0  0  1  0  0  0  0  0999 V2000
   44.5750   35.5830   44.6020 C   0  0  0  0  0  0  0  0  0  0  0  0
   45.2370   35.5970   43.3540 C   0  0  0  0  0  0  0  0  0  0  0  0
   46.3290   34.6890   43.1760 C   0  0  0  0  0  0  0  0  0  0  0  0
   46.6690   33.8700   44.2040 N   0  0  0  0  0  0  0  0  0  0  0  0
   46.0100   33.8920   45.3720 C   0  0  0  0  0  0  0  0  0  0  0  0
   44.9600   34.7470   45.5810 N   0  0  0  0  0  0  0  0  0  0  0  0
   43.7470   36.2470   44.7870 H   0  0  0  0  0  0  0  0  0  0  0  0
   44.9270   36.2720   42.5630 H   0  0  0  0  0  0  0  0  0  0  0  0
   46.4340   32.9730   46.4600 C   0  0  2  0  0  0  0  0  0  0  0  0
   46.9670   31.7440   45.7780 C   0  0  0  0  0  0  0  0  0  0  0  0
   46.0890   30.5560   45.7840 C   0  0  0  0  0  0  0  0  0  0  0  0
   45.7830   30.3000   47.2570 C   0  0  0  0  0  0  0  0  0  0  0  0
   44.9980   31.3640   47.8590 C   0  0  0  0  0  0  0  0  0  0  0  0
   45.3720   32.7350   47.4130 C   0  0  0  0  0  0  0  0  0  0  0  0
   47.2710   33.5050   46.9750 H   0  0  0  0  0  0  0  0  0  0  0  0
   47.9130   31.4620   46.2860 H   0  0  0  0  0  0  0  0  0  0  0  0
   47.2690   31.9470   44.7120 H   0  0  0  0  0  0  0  0  0  0  0  0
   45.1360   30.7170   45.2430 H   0  0  0  0  0  0  0  0  0  0  0  0
   46.6410   29.7050   45.3890 H   0  0  0  0  0  0  0  0  0  0  0  0
   46.7470   30.1140   47.7810 H   0  0  0  0  0  0  0  0  0  0  0  0
   45.1550   29.3990   47.2640 H   0  0  0  0  0  0  0  0  0  0  0  0
   44.1860   31.3550   48.5730 H   0  0  0  0  0  0  0  0  0  0  0  0
   44.6780   33.8810   47.9250 N   0  0  0  0  0  0  0  0  0  0  0  0
   43.7380   34.0260   47.4910 H   0  0  0  0  0  0  0  0  0  0  0  0
   45.1280   34.4530   48.6480 H   0  0  0  0  0  0  0  0  0  0  0  0
   47.0280   34.6780   41.9070 C   0  0  0  0  0  0  0  0  0  0  0  0
   48.1710   35.3990   41.7810 C   0  0  0  0  0  0  0  0  0  0  0  0
   48.8070   35.3600   40.5360 C   0  0  0  0  0  0  0  0  0  0  0  0
   48.2150   34.5950   39.5550 C   0  0  0  0  0  0  0  0  0  0  0  0
   47.0680   33.8710   39.6800 C   0  0  0  0  0  0  0  0  0  0  0  0
   46.4840   33.9440   40.9200 N   0  0  0  0  0  0  0  0  0  0  0  0
   48.5990   35.9890   42.5870 H   0  0  0  0  0  0  0  0  0  0  0  0
   49.7290   35.9150   40.3640 H   0  0  0  0  0  0  0  0  0  0  0  0
   48.7320   34.5900   38.6130 H   0  0  0  0  0  0  0  0  0  0  0  0
   47.5250   34.4400   37.0160 F   0  0  0  0  0  0  0  0  0  0  0  0
   46.7130   33.3870   37.3120 C   0  0  0  0  0  0  0  0  0  0  0  0
   46.4570   33.0670   38.6280 C   0  0  0  0  0  0  0  0  0  0  0  0
   45.6340   32.0010   38.9190 C   0  0  0  0  0  0  0  0  0  0  0  0
   45.4080   31.7170   39.9280 H   0  0  0  0  0  0  0  0  0  0  0  0
   45.0360   31.2140   37.9300 C   0  0  0  0  0  0  0  0  0  0  0  0
   44.3990   30.3890   38.2000 H   0  0  0  0  0  0  0  0  0  0  0  0
   45.3050   31.5500   36.6220 C   0  0  0  0  0  0  0  0  0  0  0  0
   46.1260   32.6130   36.3030 C   0  0  0  0  0  0  0  0  0  0  0  0
  1  7  1  0  0  0  0
  1  6  1  0  0  0  0
  2  1  2  0  0  0  0
  3  2  1  0  0  0  0
  3  4  2  0  0  0  0
  4  5  1  0  0  0  0
  5  6  2  0  0  0  0
  5  9  1  0  0  0  0
  8  2  1  0  0  0  0
  9 15  1  1  0  0  0
  9 14  1  0  0  0  0
 10 11  1  0  0  0  0
 10 16  1  0  0  0  0
 10  9  1  0  0  0  0
 11 12  1  0  0  0  0
 12 21  1  0  0  0  0
 12 20  1  0  0  0  0
 12 13  1  0  0  0  0
 13 22  1  0  0  0  0
 14 13  2  0  0  0  0
 14 23  1  0  0  0  0
 17 10  1  0  0  0  0
 18 11  1  0  0  0  0
 19 11  1  0  0  0  0
 23 25  1  0  0  0  0
 24 23  1  0  0  0  0
 26  3  1  0  0  0  0
 27 26  1  0  0  0  0
 27 32  1  0  0  0  0
 28 27  2  0  0  0  0
 29 30  2  0  0  0  0
 29 28  1  0  0  0  0
 30 31  1  0  0  0  0
 31 26  2  0  0  0  0
 33 28  1  0  0  0  0
 34 29  1  0  0  0  0
 35 36  1  0  0  0  0
 36 37  1  0  0  0  0
 37 38  2  0  0  0  0
 37 30  1  0  0  0  0
 38 39  1  0  0  0  0
 40 41  1  0  0  0  0
 40 38  1  0  0  0  0
 42 40  2  0  0  0  0
 43 42  1  0  0  0  0
 43 36  2  0  0  0  0
M  END
>  <minimizedAffinity>
-7.67468166

>  <minimizedRMSD>
0.126624748

$$$$
