
 OpenBabel03252508223D

 34 36  0  0  0  0  0  0  0  0999 V2000
   36.0610   29.9980   38.7800 C   0  0  0  0  0  0  0  0  0  0  0  0
   35.4590   29.1090   37.9310 C   0  0  0  0  0  0  0  0  0  0  0  0
   35.7260   28.9750   36.5820 C   0  0  0  0  0  0  0  0  0  0  0  0
   36.7090   29.8450   36.0780 C   0  0  0  0  0  0  0  0  0  0  0  0
   37.3420   30.7620   36.9160 C   0  0  0  0  0  0  0  0  0  0  0  0
   37.0380   30.8540   38.2480 C   0  0  0  0  0  0  0  0  0  0  0  0
   34.7020   28.4500   38.3540 H   0  0  0  0  0  0  0  0  0  0  0  0
   35.2320   28.2640   35.9450 H   0  0  0  0  0  0  0  0  0  0  0  0
   36.9920   29.8240   35.0450 H   0  0  0  0  0  0  0  0  0  0  0  0
   38.0930   31.4220   36.5140 H   0  0  0  0  0  0  0  0  0  0  0  0
   39.3640   30.1320   39.5460 F   0  0  0  0  0  0  0  0  0  0  0  0
   38.8790   31.4030   39.6900 C   0  0  0  0  0  0  0  0  0  0  0  0
   37.7300   31.8290   39.0760 C   0  0  0  0  0  0  0  0  0  0  0  0
   37.2840   33.1360   39.2610 C   0  0  0  0  0  0  0  0  0  0  0  0
   36.3610   33.4360   38.7520 H   0  0  0  0  0  0  0  0  0  0  0  0
   38.0050   33.9980   40.0670 C   0  0  0  0  0  0  0  0  0  0  0  0
   37.6410   35.0170   40.2000 H   0  0  0  0  0  0  0  0  0  0  0  0
   39.1680   33.5460   40.6810 C   0  0  0  0  0  3  0  0  0  0  0  0
   39.5980   32.2560   40.4920 C   0  0  0  0  0  3  0  0  0  0  0  0
   35.7720   30.1340   40.2130 C   0  0  0  0  0  0  0  0  0  0  0  0
   34.8070   30.7060   40.3490 H   0  0  0  0  0  0  0  0  0  0  0  0
   36.5900   30.6010   40.7840 H   0  0  0  0  0  0  0  0  0  0  0  0
   35.5030   28.7800   40.8440 C   0  0  0  0  0  0  0  0  0  0  0  0
   34.6050   28.8720   41.4970 H   0  0  0  0  0  0  0  0  0  0  0  0
   35.3020   27.9930   40.1100 H   0  0  0  0  0  0  0  0  0  0  0  0
   38.4750   29.1420   43.1260 C   0  0  0  0  0  0  0  0  0  0  0  0
   37.3990   29.4970   42.2890 C   0  0  0  0  0  0  0  0  0  0  0  0
   36.6510   28.4520   41.7370 C   0  0  0  0  0  0  0  0  0  0  0  0
   37.0050   27.1520   42.0410 N   0  0  0  0  0  0  0  0  0  0  0  0
   38.0390   26.8750   42.8450 C   0  0  0  0  0  0  0  0  0  0  0  0
   38.7790   27.8560   43.3910 N   0  0  0  0  0  0  0  0  0  0  0  0
   39.1000   29.8770   43.5910 H   0  0  0  0  0  0  0  0  0  0  0  0
   37.1930   30.5350   42.1050 H   0  0  0  0  0  0  0  0  0  0  0  0
   38.2280   25.8240   43.0150 H   0  0  0  0  0  0  0  0  0  0  0  0
  1 20  1  0  0  0  0
  2  7  1  0  0  0  0
  2  1  2  0  0  0  0
  3  2  1  0  0  0  0
  4  3  2  0  0  0  0
  4  5  1  0  0  0  0
  5  6  2  0  0  0  0
  6  1  1  0  0  0  0
  6 13  1  0  0  0  0
  8  3  1  0  0  0  0
  9  4  1  0  0  0  0
 10  5  1  0  0  0  0
 11 12  1  0  0  0  0
 12 19  1  0  0  0  0
 13 14  1  0  0  0  0
 13 12  2  0  0  0  0
 14 16  2  0  0  0  0
 15 14  1  0  0  0  0
 16 17  1  0  0  0  0
 16 18  1  0  0  0  0
 19 18  2  0  0  0  0
 20 21  1  0  0  0  0
 20 22  1  0  0  0  0
 20 23  1  0  0  0  0
 23 24  1  0  0  0  0
 23 28  1  0  0  0  0
 25 23  1  0  0  0  0
 26 31  1  0  0  0  0
 26 32  1  0  0  0  0
 27 26  2  0  0  0  0
 28 29  2  0  0  0  0
 28 27  1  0  0  0  0
 29 30  1  0  0  0  0
 30 34  1  0  0  0  0
 30 31  2  0  0  0  0
 33 27  1  0  0  0  0
M  END
>  <minimizedAffinity>
-5.77932692

$$$$

 OpenBabel03252508223D

 34 36  0  0  0  0  0  0  0  0999 V2000
   38.9990   31.5160   40.1910 C   0  0  0  0  0  0  0  0  0  0  0  0
   39.8080   32.5720   40.5140 C   0  0  0  0  0  0  0  0  0  0  0  0
   39.4680   33.9070   40.4150 C   0  0  0  0  0  0  0  0  0  0  0  0
   38.1690   34.1610   39.9390 C   0  0  0  0  0  0  0  0  0  0  0  0
   37.3200   33.1080   39.6010 C   0  0  0  0  0  0  0  0  0  0  0  0
   37.7080   31.8000   39.7170 C   0  0  0  0  0  0  0  0  0  0  0  0
   40.8070   32.3410   40.8800 H   0  0  0  0  0  0  0  0  0  0  0  0
   40.1310   34.7120   40.6780 H   0  0  0  0  0  0  0  0  0  0  0  0
   37.8050   35.1610   39.8240 H   0  0  0  0  0  0  0  0  0  0  0  0
   36.3270   33.3190   39.2370 H   0  0  0  0  0  0  0  0  0  0  0  0
   35.9860   30.7810   41.6170 F   0  0  0  0  0  0  0  0  0  0  0  0
   35.9540   30.2830   40.3440 C   0  0  0  0  0  0  0  0  0  0  0  0
   36.7810   30.7410   39.3510 C   0  0  0  0  0  0  0  0  0  0  0  0
   36.7040   30.1950   38.0720 C   0  0  0  0  0  0  0  0  0  0  0  0
   37.3830   30.5890   37.3080 H   0  0  0  0  0  0  0  0  0  0  0  0
   35.7910   29.1890   37.8110 C   0  0  0  0  0  0  0  0  0  0  0  0
   35.7440   28.7730   36.8040 H   0  0  0  0  0  0  0  0  0  0  0  0
   34.9610   28.7380   38.8320 C   0  0  0  0  0  3  0  0  0  0  0  0
   35.0460   29.2840   40.0890 C   0  0  0  0  0  3  0  0  0  0  0  0
   39.3670   30.0990   40.2980 C   0  0  0  0  0  0  0  0  0  0  0  0
   40.3560   29.9270   39.7810 H   0  0  0  0  0  0  0  0  0  0  0  0
   38.5960   29.4140   39.9120 H   0  0  0  0  0  0  0  0  0  0  0  0
   39.6240   29.7130   41.7440 C   0  0  0  0  0  0  0  0  0  0  0  0
   40.6110   29.1990   41.7970 H   0  0  0  0  0  0  0  0  0  0  0  0
   39.6590   30.5720   42.4220 H   0  0  0  0  0  0  0  0  0  0  0  0
   37.3350   26.7240   41.6910 C   0  0  0  0  0  0  0  0  0  0  0  0
   38.3140   27.6490   41.2760 C   0  0  0  0  0  0  0  0  0  0  0  0
   38.5960   28.7100   42.1420 C   0  0  0  0  0  0  0  0  0  0  0  0
   37.9080   28.7880   43.3370 N   0  0  0  0  0  0  0  0  0  0  0  0
   36.9870   27.8790   43.6800 C   0  0  0  0  0  0  0  0  0  0  0  0
   36.6920   26.8480   42.8690 N   0  0  0  0  0  0  0  0  0  0  0  0
   37.0570   25.8830   41.0910 H   0  0  0  0  0  0  0  0  0  0  0  0
   38.8000   27.5120   40.3280 H   0  0  0  0  0  0  0  0  0  0  0  0
   36.5100   28.0380   44.6370 H   0  0  0  0  0  0  0  0  0  0  0  0
  1 20  1  0  0  0  0
  1  2  1  0  0  0  0
  2  7  1  0  0  0  0
  3  2  2  0  0  0  0
  3  8  1  0  0  0  0
  4  3  1  0  0  0  0
  5  6  1  0  0  0  0
  5  4  2  0  0  0  0
  6  1  2  0  0  0  0
  9  4  1  0  0  0  0
 10  5  1  0  0  0  0
 12 11  1  0  0  0  0
 13  6  1  0  0  0  0
 13 12  2  0  0  0  0
 14 13  1  0  0  0  0
 15 14  1  0  0  0  0
 16 14  2  0  0  0  0
 16 18  1  0  0  0  0
 17 16  1  0  0  0  0
 18 19  2  0  0  0  0
 19 12  1  0  0  0  0
 20 23  1  0  0  0  0
 21 20  1  0  0  0  0
 22 20  1  0  0  0  0
 23 24  1  0  0  0  0
 23 28  1  0  0  0  0
 23 25  1  0  0  0  0
 26 31  1  0  0  0  0
 27 26  2  0  0  0  0
 27 28  1  0  0  0  0
 28 29  2  0  0  0  0
 29 30  1  0  0  0  0
 30 34  1  0  0  0  0
 31 30  2  0  0  0  0
 32 26  1  0  0  0  0
 33 27  1  0  0  0  0
M  END
>  <minimizedAffinity>
-5.74198675

$$$$

 OpenBabel03252508223D

 34 36  0  0  0  0  0  0  0  0999 V2000
   35.9010   27.2220   38.2530 C   0  0  0  0  0  0  0  0  0  0  0  0
   35.2420   26.2080   37.6110 C   0  0  0  0  0  0  0  0  0  0  0  0
   34.0390   26.3260   36.9430 C   0  0  0  0  0  0  0  0  0  0  0  0
   33.4770   27.6140   36.9440 C   0  0  0  0  0  0  0  0  0  0  0  0
   34.1230   28.6690   37.5880 C   0  0  0  0  0  0  0  0  0  0  0  0
   35.3160   28.4970   38.2380 C   0  0  0  0  0  0  0  0  0  0  0  0
   35.7040   25.2220   37.6290 H   0  0  0  0  0  0  0  0  0  0  0  0
   33.5480   25.5050   36.4490 H   0  0  0  0  0  0  0  0  0  0  0  0
   32.5460   27.8150   36.4540 H   0  0  0  0  0  0  0  0  0  0  0  0
   33.6790   29.6510   37.5800 H   0  0  0  0  0  0  0  0  0  0  0  0
   34.7260   29.0470   40.8770 F   0  0  0  0  0  0  0  0  0  0  0  0
   35.6070   29.8470   40.2030 C   0  0  0  0  0  0  0  0  0  0  0  0
   35.9460   29.6320   38.8920 C   0  0  0  0  0  0  0  0  0  0  0  0
   36.8510   30.4820   38.2580 C   0  0  0  0  0  0  0  0  0  0  0  0
   37.0930   30.2750   37.2100 H   0  0  0  0  0  0  0  0  0  0  0  0
   37.4030   31.5400   38.9570 C   0  0  0  0  0  0  0  0  0  0  0  0
   38.1090   32.1940   38.4450 H   0  0  0  0  0  0  0  0  0  0  0  0
   37.0460   31.7390   40.2870 C   0  0  0  0  0  3  0  0  0  0  0  0
   36.1540   30.8960   40.9010 C   0  0  0  0  0  3  0  0  0  0  0  0
   37.1800   27.0890   38.9620 C   0  0  0  0  0  0  0  0  0  0  0  0
   37.5390   28.1090   39.2850 H   0  0  0  0  0  0  0  0  0  0  0  0
   37.9540   26.5660   38.3770 H   0  0  0  0  0  0  0  0  0  0  0  0
   37.0060   26.3190   40.2590 C   0  0  0  0  0  0  0  0  0  0  0  0
   35.9180   26.1320   40.4090 H   0  0  0  0  0  0  0  0  0  0  0  0
   37.5140   25.3490   40.2570 H   0  0  0  0  0  0  0  0  0  0  0  0
   38.9580   28.8240   42.2800 C   0  0  0  0  0  0  0  0  0  0  0  0
   38.5720   28.0100   41.1960 C   0  0  0  0  0  0  0  0  0  0  0  0
   37.4500   27.1970   41.3780 C   0  0  0  0  0  0  0  0  0  0  0  0
   36.7930   27.2390   42.5930 N   0  0  0  0  0  0  0  0  0  0  0  0
   37.2050   28.0330   43.5880 C   0  0  0  0  0  0  0  0  0  0  0  0
   38.2810   28.8270   43.4450 N   0  0  0  0  0  0  0  0  0  0  0  0
   39.8040   29.4780   42.2270 H   0  0  0  0  0  0  0  0  0  0  0  0
   39.1410   28.0400   40.2860 H   0  0  0  0  0  0  0  0  0  0  0  0
   36.6180   27.9860   44.4950 H   0  0  0  0  0  0  0  0  0  0  0  0
  1 20  1  0  0  0  0
  2  7  1  0  0  0  0
  2  1  2  0  0  0  0
  3  4  2  0  0  0  0
  3  2  1  0  0  0  0
  4  5  1  0  0  0  0
  5  6  2  0  0  0  0
  6  1  1  0  0  0  0
  6 13  1  0  0  0  0
  8  3  1  0  0  0  0
  9  4  1  0  0  0  0
 10  5  1  0  0  0  0
 12 11  1  0  0  0  0
 12 19  1  0  0  0  0
 13 12  2  0  0  0  0
 14 13  1  0  0  0  0
 14 16  2  0  0  0  0
 15 14  1  0  0  0  0
 16 18  1  0  0  0  0
 17 16  1  0  0  0  0
 18 19  2  0  0  0  0
 20 21  1  0  0  0  0
 20 23  1  0  0  0  0
 22 20  1  0  0  0  0
 23 24  1  0  0  0  0
 23 28  1  0  0  0  0
 25 23  1  0  0  0  0
 26 31  1  0  0  0  0
 27 28  1  0  0  0  0
 27 26  2  0  0  0  0
 28 29  2  0  0  0  0
 29 30  1  0  0  0  0
 30 34  1  0  0  0  0
 31 30  2  0  0  0  0
 32 26  1  0  0  0  0
 33 27  1  0  0  0  0
M  END
>  <minimizedAffinity>
-5.42460012

$$$$

 OpenBabel03252508223D

 34 36  0  0  0  0  0  0  0  0999 V2000
   36.6780   25.8310   39.4190 C   0  0  0  0  0  0  0  0  0  0  0  0
   36.1050   24.9950   38.4980 C   0  0  0  0  0  0  0  0  0  0  0  0
   35.7100   23.6910   38.7290 C   0  0  0  0  0  0  0  0  0  0  0  0
   35.9320   23.2210   40.0350 C   0  0  0  0  0  0  0  0  0  0  0  0
   36.5130   24.0470   40.9970 C   0  0  0  0  0  0  0  0  0  0  0  0
   36.8870   25.3340   40.7150 C   0  0  0  0  0  0  0  0  0  0  0  0
   35.9470   25.3900   37.4960 H   0  0  0  0  0  0  0  0  0  0  0  0
   35.2630   23.0630   37.9790 H   0  0  0  0  0  0  0  0  0  0  0  0
   35.6630   22.2240   40.3200 H   0  0  0  0  0  0  0  0  0  0  0  0
   36.6770   23.6710   41.9940 H   0  0  0  0  0  0  0  0  0  0  0  0
   39.6210   25.2720   41.0860 F   0  0  0  0  0  0  0  0  0  0  0  0
   38.8510   26.0710   41.8850 C   0  0  0  0  0  0  0  0  0  0  0  0
   37.4880   26.1500   41.7560 C   0  0  0  0  0  0  0  0  0  0  0  0
   36.7560   26.9830   42.6000 C   0  0  0  0  0  0  0  0  0  0  0  0
   35.6690   27.0160   42.4640 H   0  0  0  0  0  0  0  0  0  0  0  0
   37.4100   27.7260   43.5660 C   0  0  0  0  0  0  0  0  0  0  0  0
   36.8210   28.3720   44.2170 H   0  0  0  0  0  0  0  0  0  0  0  0
   38.7930   27.6310   43.6790 C   0  0  0  0  0  3  0  0  0  0  0  0
   39.5040   26.8070   42.8420 C   0  0  0  0  0  3  0  0  0  0  0  0
   37.0940   27.2150   39.1660 C   0  0  0  0  0  0  0  0  0  0  0  0
   37.6260   27.2730   38.1710 H   0  0  0  0  0  0  0  0  0  0  0  0
   37.7160   27.6410   39.9700 H   0  0  0  0  0  0  0  0  0  0  0  0
   35.8890   28.1250   39.0050 C   0  0  0  0  0  0  0  0  0  0  0  0
   35.6110   28.1480   37.9270 H   0  0  0  0  0  0  0  0  0  0  0  0
   35.0140   27.7860   39.5680 H   0  0  0  0  0  0  0  0  0  0  0  0
   37.1240   31.6720   38.7510 C   0  0  0  0  0  0  0  0  0  0  0  0
   36.7400   30.3740   38.3610 C   0  0  0  0  0  0  0  0  0  0  0  0
   36.3050   29.5090   39.3700 C   0  0  0  0  0  0  0  0  0  0  0  0
   36.2780   29.9720   40.6720 N   0  0  0  0  0  0  0  0  0  0  0  0
   36.6550   31.2180   40.9830 C   0  0  0  0  0  0  0  0  0  0  0  0
   37.0780   32.0740   40.0360 N   0  0  0  0  0  0  0  0  0  0  0  0
   37.4690   32.3990   38.0440 H   0  0  0  0  0  0  0  0  0  0  0  0
   36.7930   30.0970   37.3250 H   0  0  0  0  0  0  0  0  0  0  0  0
   36.5940   31.4750   42.0320 H   0  0  0  0  0  0  0  0  0  0  0  0
  1  6  1  0  0  0  0
  2  3  1  0  0  0  0
  2  1  2  0  0  0  0
  3  4  2  0  0  0  0
  4  9  1  0  0  0  0
  4  5  1  0  0  0  0
  5 10  1  0  0  0  0
  6  5  2  0  0  0  0
  6 13  1  0  0  0  0
  7  2  1  0  0  0  0
  8  3  1  0  0  0  0
 11 12  1  0  0  0  0
 12 19  1  0  0  0  0
 13 12  2  0  0  0  0
 13 14  1  0  0  0  0
 14 16  2  0  0  0  0
 15 14  1  0  0  0  0
 16 18  1  0  0  0  0
 16 17  1  0  0  0  0
 19 18  2  0  0  0  0
 20  1  1  0  0  0  0
 20 22  1  0  0  0  0
 21 20  1  0  0  0  0
 23 20  1  0  0  0  0
 23 28  1  0  0  0  0
 23 25  1  0  0  0  0
 24 23  1  0  0  0  0
 26 31  1  0  0  0  0
 27 26  2  0  0  0  0
 27 28  1  0  0  0  0
 28 29  2  0  0  0  0
 29 30  1  0  0  0  0
 30 34  1  0  0  0  0
 31 30  2  0  0  0  0
 32 26  1  0  0  0  0
 33 27  1  0  0  0  0
M  END
>  <minimizedAffinity>
-5.41629505

$$$$

 OpenBabel03252508223D

 34 36  0  0  0  0  0  0  0  0999 V2000
   37.0510   26.2210   41.9280 C   0  0  0  0  0  0  0  0  0  0  0  0
   37.0680   24.8650   42.1230 C   0  0  0  0  0  0  0  0  0  0  0  0
   36.8530   23.9090   41.1490 C   0  0  0  0  0  0  0  0  0  0  0  0
   36.6000   24.4120   39.8610 C   0  0  0  0  0  0  0  0  0  0  0  0
   36.5760   25.7880   39.6290 C   0  0  0  0  0  0  0  0  0  0  0  0
   36.7960   26.6940   40.6320 C   0  0  0  0  0  0  0  0  0  0  0  0
   37.2670   24.5090   43.1320 H   0  0  0  0  0  0  0  0  0  0  0  0
   36.8730   22.8510   41.3390 H   0  0  0  0  0  0  0  0  0  0  0  0
   36.4200   23.7570   39.0340 H   0  0  0  0  0  0  0  0  0  0  0  0
   36.3810   26.1570   38.6360 H   0  0  0  0  0  0  0  0  0  0  0  0
   38.9660   27.8850   39.4140 F   0  0  0  0  0  0  0  0  0  0  0  0
   37.8710   28.6410   39.7280 C   0  0  0  0  0  0  0  0  0  0  0  0
   36.7590   28.1160   40.3330 C   0  0  0  0  0  0  0  0  0  0  0  0
   35.6730   28.9370   40.6290 C   0  0  0  0  0  0  0  0  0  0  0  0
   34.8050   28.4770   41.1130 H   0  0  0  0  0  0  0  0  0  0  0  0
   35.7240   30.2820   40.3100 C   0  0  0  0  0  0  0  0  0  0  0  0
   34.8650   30.9090   40.5480 H   0  0  0  0  0  0  0  0  0  0  0  0
   36.8620   30.7950   39.6950 C   0  0  0  0  0  3  0  0  0  0  0  0
   37.9260   29.9760   39.4080 C   0  0  0  0  0  3  0  0  0  0  0  0
   37.2800   27.2310   42.9680 C   0  0  0  0  0  0  0  0  0  0  0  0
   36.6580   26.9830   43.8770 H   0  0  0  0  0  0  0  0  0  0  0  0
   37.0890   28.2620   42.6290 H   0  0  0  0  0  0  0  0  0  0  0  0
   38.7140   27.1830   43.4660 C   0  0  0  0  0  0  0  0  0  0  0  0
   38.7030   27.3000   44.5730 H   0  0  0  0  0  0  0  0  0  0  0  0
   39.2210   26.2410   43.2350 H   0  0  0  0  0  0  0  0  0  0  0  0
   39.5760   30.7300   42.5450 C   0  0  0  0  0  0  0  0  0  0  0  0
   38.8650   29.6370   43.0790 C   0  0  0  0  0  0  0  0  0  0  0  0
   39.4310   28.3690   42.9170 C   0  0  0  0  0  0  0  0  0  0  0  0
   40.6380   28.2630   42.2520 N   0  0  0  0  0  0  0  0  0  0  0  0
   41.2690   29.3390   41.7650 C   0  0  0  0  0  0  0  0  0  0  0  0
   40.7510   30.5720   41.9040 N   0  0  0  0  0  0  0  0  0  0  0  0
   39.2170   31.7360   42.6230 H   0  0  0  0  0  0  0  0  0  0  0  0
   37.9320   29.8100   43.5810 H   0  0  0  0  0  0  0  0  0  0  0  0
   42.2060   29.1400   41.2630 H   0  0  0  0  0  0  0  0  0  0  0  0
  1  2  1  0  0  0  0
  1 20  1  0  0  0  0
  2  7  1  0  0  0  0
  3  8  1  0  0  0  0
  3  2  2  0  0  0  0
  4  3  1  0  0  0  0
  5  4  2  0  0  0  0
  5  6  1  0  0  0  0
  6  1  2  0  0  0  0
  9  4  1  0  0  0  0
 10  5  1  0  0  0  0
 11 12  1  0  0  0  0
 12 13  1  0  0  0  0
 13 14  2  0  0  0  0
 13  6  1  0  0  0  0
 14 15  1  0  0  0  0
 16 17  1  0  0  0  0
 16 14  1  0  0  0  0
 18 16  2  0  0  0  0
 19 18  1  0  0  0  0
 19 12  2  0  0  0  0
 20 23  1  0  0  0  0
 20 21  1  0  0  0  0
 22 20  1  0  0  0  0
 23 24  1  0  0  0  0
 25 23  1  0  0  0  0
 26 32  1  0  0  0  0
 26 27  1  0  0  0  0
 27 33  1  0  0  0  0
 28 27  2  0  0  0  0
 28 23  1  0  0  0  0
 29 28  1  0  0  0  0
 30 31  1  0  0  0  0
 30 29  2  0  0  0  0
 31 26  2  0  0  0  0
 34 30  1  0  0  0  0
M  END
>  <minimizedAffinity>
-5.39558411

$$$$

 OpenBabel03252508223D

 34 36  0  0  0  0  0  0  0  0999 V2000
   36.7600   28.9110   38.6490 C   0  0  0  0  0  0  0  0  0  0  0  0
   36.0440   29.1220   37.5010 C   0  0  0  0  0  0  0  0  0  0  0  0
   34.6670   29.1880   37.4120 C   0  0  0  0  0  0  0  0  0  0  0  0
   33.9790   29.0200   38.6260 C   0  0  0  0  0  0  0  0  0  0  0  0
   34.6790   28.8030   39.8140 C   0  0  0  0  0  0  0  0  0  0  0  0
   36.0470   28.7460   39.8460 C   0  0  0  0  0  0  0  0  0  0  0  0
   36.6070   29.2480   36.5770 H   0  0  0  0  0  0  0  0  0  0  0  0
   34.1370   29.3550   36.4910 H   0  0  0  0  0  0  0  0  0  0  0  0
   32.9100   29.0530   38.6690 H   0  0  0  0  0  0  0  0  0  0  0  0
   34.1370   28.6760   40.7370 H   0  0  0  0  0  0  0  0  0  0  0  0
   36.5590   26.1630   40.6710 F   0  0  0  0  0  0  0  0  0  0  0  0
   36.9470   27.2110   41.4590 C   0  0  0  0  0  0  0  0  0  0  0  0
   36.7250   28.5180   41.1120 C   0  0  0  0  0  0  0  0  0  0  0  0
   37.1430   29.5450   41.9560 C   0  0  0  0  0  0  0  0  0  0  0  0
   36.9460   30.5750   41.6410 H   0  0  0  0  0  0  0  0  0  0  0  0
   37.7810   29.2380   43.1440 C   0  0  0  0  0  0  0  0  0  0  0  0
   38.1020   30.0530   43.7930 H   0  0  0  0  0  0  0  0  0  0  0  0
   37.9980   27.9040   43.4780 C   0  0  0  0  0  3  0  0  0  0  0  0
   37.5810   26.9010   42.6380 C   0  0  0  0  0  3  0  0  0  0  0  0
   38.2240   28.8420   38.7360 C   0  0  0  0  0  0  0  0  0  0  0  0
   38.5980   27.9760   38.1150 H   0  0  0  0  0  0  0  0  0  0  0  0
   38.6000   28.7780   39.7690 H   0  0  0  0  0  0  0  0  0  0  0  0
   38.8640   30.0650   38.1040 C   0  0  0  0  0  0  0  0  0  0  0  0
   39.9410   29.8430   37.9290 H   0  0  0  0  0  0  0  0  0  0  0  0
   38.4190   30.3380   37.1410 H   0  0  0  0  0  0  0  0  0  0  0  0
   37.8340   33.2130   39.8940 C   0  0  0  0  0  0  0  0  0  0  0  0
   37.8500   32.1810   38.9350 C   0  0  0  0  0  0  0  0  0  0  0  0
   38.8100   31.1770   39.0950 C   0  0  0  0  0  0  0  0  0  0  0  0
   39.6750   31.2540   40.1700 N   0  0  0  0  0  0  0  0  0  0  0  0
   39.6130   32.2600   41.0510 C   0  0  0  0  0  0  0  0  0  0  0  0
   38.7020   33.2410   40.9250 N   0  0  0  0  0  0  0  0  0  0  0  0
   37.1340   34.0210   39.8490 H   0  0  0  0  0  0  0  0  0  0  0  0
   37.1410   32.1990   38.1290 H   0  0  0  0  0  0  0  0  0  0  0  0
   40.3370   32.2210   41.8530 H   0  0  0  0  0  0  0  0  0  0  0  0
  1 20  1  0  0  0  0
  1  6  1  0  0  0  0
  2  1  2  0  0  0  0
  3  2  1  0  0  0  0
  3  4  2  0  0  0  0
  4  9  1  0  0  0  0
  4  5  1  0  0  0  0
  5  6  2  0  0  0  0
  5 10  1  0  0  0  0
  6 13  1  0  0  0  0
  7  2  1  0  0  0  0
  8  3  1  0  0  0  0
 11 12  1  0  0  0  0
 12 19  1  0  0  0  0
 13 12  2  0  0  0  0
 13 14  1  0  0  0  0
 14 16  2  0  0  0  0
 15 14  1  0  0  0  0
 16 18  1  0  0  0  0
 16 17  1  0  0  0  0
 19 18  2  0  0  0  0
 20 22  1  0  0  0  0
 21 20  1  0  0  0  0
 23 20  1  0  0  0  0
 23 28  1  0  0  0  0
 24 23  1  0  0  0  0
 25 23  1  0  0  0  0
 26 31  1  0  0  0  0
 27 28  1  0  0  0  0
 27 26  2  0  0  0  0
 28 29  2  0  0  0  0
 29 30  1  0  0  0  0
 30 34  1  0  0  0  0
 31 30  2  0  0  0  0
 32 26  1  0  0  0  0
 33 27  1  0  0  0  0
M  END
>  <minimizedAffinity>
-5.35405016

$$$$

 OpenBabel03252508223D

 34 36  0  0  0  0  0  0  0  0999 V2000
   36.7930   27.1360   41.5330 C   0  0  0  0  0  0  0  0  0  0  0  0
   36.9940   26.1220   42.4310 C   0  0  0  0  0  0  0  0  0  0  0  0
   37.1500   24.7860   42.1170 C   0  0  0  0  0  0  0  0  0  0  0  0
   37.0920   24.4830   40.7450 C   0  0  0  0  0  0  0  0  0  0  0  0
   36.8880   25.4920   39.8040 C   0  0  0  0  0  0  0  0  0  0  0  0
   36.7390   26.8030   40.1700 C   0  0  0  0  0  0  0  0  0  0  0  0
   37.0340   26.3910   43.4860 H   0  0  0  0  0  0  0  0  0  0  0  0
   37.3060   24.0160   42.8510 H   0  0  0  0  0  0  0  0  0  0  0  0
   37.2010   23.4780   40.3930 H   0  0  0  0  0  0  0  0  0  0  0  0
   36.8460   25.2430   38.7560 H   0  0  0  0  0  0  0  0  0  0  0  0
   38.9170   27.9540   38.9280 F   0  0  0  0  0  0  0  0  0  0  0  0
   37.6560   28.3430   38.5710 C   0  0  0  0  0  0  0  0  0  0  0  0
   36.5300   27.8140   39.1470 C   0  0  0  0  0  0  0  0  0  0  0  0
   35.2700   28.2500   38.7420 C   0  0  0  0  0  0  0  0  0  0  0  0
   34.3960   27.8020   39.2270 H   0  0  0  0  0  0  0  0  0  0  0  0
   35.1630   29.2180   37.7600 C   0  0  0  0  0  0  0  0  0  0  0  0
   34.1690   29.5470   37.4550 H   0  0  0  0  0  0  0  0  0  0  0  0
   36.3180   29.7410   37.1880 C   0  0  0  0  0  3  0  0  0  0  0  0
   37.5540   29.3040   37.5950 C   0  0  0  0  0  3  0  0  0  0  0  0
   36.6290   28.5540   41.8750 C   0  0  0  0  0  0  0  0  0  0  0  0
   35.9710   28.6470   42.7880 H   0  0  0  0  0  0  0  0  0  0  0  0
   36.2380   29.1640   41.0440 H   0  0  0  0  0  0  0  0  0  0  0  0
   37.9520   29.1690   42.2950 C   0  0  0  0  0  0  0  0  0  0  0  0
   37.9030   29.3860   43.3860 H   0  0  0  0  0  0  0  0  0  0  0  0
   38.8090   28.5090   42.1240 H   0  0  0  0  0  0  0  0  0  0  0  0
   37.1670   32.2420   40.2670 C   0  0  0  0  0  0  0  0  0  0  0  0
   36.9930   30.9990   40.9080 C   0  0  0  0  0  0  0  0  0  0  0  0
   38.0900   30.4810   41.6020 C   0  0  0  0  0  0  0  0  0  0  0  0
   39.2650   31.2080   41.6200 N   0  0  0  0  0  0  0  0  0  0  0  0
   39.3720   32.3850   40.9920 C   0  0  0  0  0  0  0  0  0  0  0  0
   38.3370   32.9110   40.3150 N   0  0  0  0  0  0  0  0  0  0  0  0
   36.3800   32.7120   39.7130 H   0  0  0  0  0  0  0  0  0  0  0  0
   36.0440   30.5010   40.8430 H   0  0  0  0  0  0  0  0  0  0  0  0
   40.3370   32.8680   41.0710 H   0  0  0  0  0  0  0  0  0  0  0  0
  1 20  1  0  0  0  0
  1  2  1  0  0  0  0
  2  7  1  0  0  0  0
  3  2  2  0  0  0  0
  3  8  1  0  0  0  0
  4  3  1  0  0  0  0
  5  6  1  0  0  0  0
  5  4  2  0  0  0  0
  6  1  2  0  0  0  0
  9  4  1  0  0  0  0
 10  5  1  0  0  0  0
 12 11  1  0  0  0  0
 12 13  1  0  0  0  0
 13  6  1  0  0  0  0
 14 13  2  0  0  0  0
 14 15  1  0  0  0  0
 16 14  1  0  0  0  0
 17 16  1  0  0  0  0
 18 19  1  0  0  0  0
 18 16  2  0  0  0  0
 19 12  2  0  0  0  0
 20 23  1  0  0  0  0
 20 21  1  0  0  0  0
 22 20  1  0  0  0  0
 23 24  1  0  0  0  0
 25 23  1  0  0  0  0
 26 31  2  0  0  0  0
 26 27  1  0  0  0  0
 27 28  2  0  0  0  0
 28 29  1  0  0  0  0
 28 23  1  0  0  0  0
 30 34  1  0  0  0  0
 30 29  2  0  0  0  0
 31 30  1  0  0  0  0
 32 26  1  0  0  0  0
 33 27  1  0  0  0  0
M  END
>  <minimizedAffinity>
-5.29789114

$$$$

 OpenBabel03252508223D

 34 36  0  0  0  0  0  0  0  0999 V2000
   36.5800   25.8100   39.8310 C   0  0  0  0  0  0  0  0  0  0  0  0
   36.3290   24.6750   39.1070 C   0  0  0  0  0  0  0  0  0  0  0  0
   36.6920   23.3920   39.4690 C   0  0  0  0  0  0  0  0  0  0  0  0
   37.3740   23.2860   40.6940 C   0  0  0  0  0  0  0  0  0  0  0  0
   37.6450   24.4220   41.4560 C   0  0  0  0  0  0  0  0  0  0  0  0
   37.2630   25.6730   41.0500 C   0  0  0  0  0  0  0  0  0  0  0  0
   35.7990   24.7920   38.1630 H   0  0  0  0  0  0  0  0  0  0  0  0
   36.4780   22.5220   38.8740 H   0  0  0  0  0  0  0  0  0  0  0  0
   37.7000   22.3360   41.0680 H   0  0  0  0  0  0  0  0  0  0  0  0
   38.1700   24.3230   42.3930 H   0  0  0  0  0  0  0  0  0  0  0  0
   39.5610   27.1240   40.5730 F   0  0  0  0  0  0  0  0  0  0  0  0
   38.7280   27.4970   41.5910 C   0  0  0  0  0  0  0  0  0  0  0  0
   37.5720   26.8220   41.8840 C   0  0  0  0  0  0  0  0  0  0  0  0
   36.7620   27.2500   42.9350 C   0  0  0  0  0  0  0  0  0  0  0  0
   35.8470   26.6820   43.1350 H   0  0  0  0  0  0  0  0  0  0  0  0
   37.1320   28.3550   43.6790 C   0  0  0  0  0  0  0  0  0  0  0  0
   36.4860   28.6760   44.4970 H   0  0  0  0  0  0  0  0  0  0  0  0
   38.3100   29.0260   43.3650 C   0  0  0  0  0  3  0  0  0  0  0  0
   39.1000   28.5960   42.3270 C   0  0  0  0  0  3  0  0  0  0  0  0
   36.1910   27.1700   39.4400 C   0  0  0  0  0  0  0  0  0  0  0  0
   36.4210   27.8840   40.2840 H   0  0  0  0  0  0  0  0  0  0  0  0
   35.1380   27.2540   39.1300 H   0  0  0  0  0  0  0  0  0  0  0  0
   37.0390   27.6660   38.2820 C   0  0  0  0  0  0  0  0  0  0  0  0
   38.0760   27.2850   38.4210 H   0  0  0  0  0  0  0  0  0  0  0  0
   36.6830   27.3180   37.3060 H   0  0  0  0  0  0  0  0  0  0  0  0
   36.7730   31.1900   39.5800 C   0  0  0  0  0  0  0  0  0  0  0  0
   36.6860   29.7840   39.5410 C   0  0  0  0  0  0  0  0  0  0  0  0
   37.1110   29.1520   38.3680 C   0  0  0  0  0  0  0  0  0  0  0  0
   37.5840   29.9320   37.3310 N   0  0  0  0  0  0  0  0  0  0  0  0
   37.6430   31.2660   37.4250 C   0  0  0  0  0  0  0  0  0  0  0  0
   37.2420   31.9040   38.5380 N   0  0  0  0  0  0  0  0  0  0  0  0
   36.4690   31.7550   40.4380 H   0  0  0  0  0  0  0  0  0  0  0  0
   36.3050   29.2550   40.3940 H   0  0  0  0  0  0  0  0  0  0  0  0
   38.0300   31.7780   36.5540 H   0  0  0  0  0  0  0  0  0  0  0  0
  1  6  1  0  0  0  0
  2  3  1  0  0  0  0
  2  1  2  0  0  0  0
  3  4  2  0  0  0  0
  4  9  1  0  0  0  0
  4  5  1  0  0  0  0
  5 10  1  0  0  0  0
  6  5  2  0  0  0  0
  6 13  1  0  0  0  0
  7  2  1  0  0  0  0
  8  3  1  0  0  0  0
 11 12  1  0  0  0  0
 12 13  2  0  0  0  0
 12 19  1  0  0  0  0
 13 14  1  0  0  0  0
 14 15  1  0  0  0  0
 14 16  2  0  0  0  0
 16 17  1  0  0  0  0
 18 16  1  0  0  0  0
 19 18  2  0  0  0  0
 20  1  1  0  0  0  0
 20 21  1  0  0  0  0
 22 20  1  0  0  0  0
 23 28  1  0  0  0  0
 23 24  1  0  0  0  0
 23 20  1  0  0  0  0
 25 23  1  0  0  0  0
 26 32  1  0  0  0  0
 27 26  1  0  0  0  0
 27 33  1  0  0  0  0
 28 27  2  0  0  0  0
 29 30  2  0  0  0  0
 29 28  1  0  0  0  0
 30 31  1  0  0  0  0
 31 26  2  0  0  0  0
 34 30  1  0  0  0  0
M  END
>  <minimizedAffinity>
-5.18052864

$$$$

 OpenBabel03252508223D

 34 36  0  0  0  0  0  0  0  0999 V2000
   36.0420   29.5350   39.6470 C   0  0  0  0  0  0  0  0  0  0  0  0
   35.4530   29.6590   38.4170 C   0  0  0  0  0  0  0  0  0  0  0  0
   35.2580   28.6350   37.5100 C   0  0  0  0  0  0  0  0  0  0  0  0
   35.7180   27.3730   37.9250 C   0  0  0  0  0  0  0  0  0  0  0  0
   36.3220   27.2130   39.1720 C   0  0  0  0  0  0  0  0  0  0  0  0
   36.4920   28.2630   40.0340 C   0  0  0  0  0  0  0  0  0  0  0  0
   35.1080   30.6500   38.1260 H   0  0  0  0  0  0  0  0  0  0  0  0
   34.7910   28.7700   36.5510 H   0  0  0  0  0  0  0  0  0  0  0  0
   35.6160   26.5110   37.2980 H   0  0  0  0  0  0  0  0  0  0  0  0
   36.6690   26.2380   39.4750 H   0  0  0  0  0  0  0  0  0  0  0  0
   39.2410   28.3770   40.2320 F   0  0  0  0  0  0  0  0  0  0  0  0
   38.4960   28.1100   41.3470 C   0  0  0  0  0  0  0  0  0  0  0  0
   37.1280   28.0390   41.3210 C   0  0  0  0  0  0  0  0  0  0  0  0
   36.4220   27.7640   42.4910 C   0  0  0  0  0  0  0  0  0  0  0  0
   35.3290   27.7150   42.4260 H   0  0  0  0  0  0  0  0  0  0  0  0
   37.1090   27.5620   43.6740 C   0  0  0  0  0  0  0  0  0  0  0  0
   36.5400   27.3480   44.5800 H   0  0  0  0  0  0  0  0  0  0  0  0
   38.4980   27.6400   43.6790 C   0  0  0  0  0  3  0  0  0  0  0  0
   39.1830   27.9120   42.5200 C   0  0  0  0  0  3  0  0  0  0  0  0
   36.2460   30.6290   40.6050 C   0  0  0  0  0  0  0  0  0  0  0  0
   36.9560   30.2910   41.4150 H   0  0  0  0  0  0  0  0  0  0  0  0
   35.3080   31.0130   41.0380 H   0  0  0  0  0  0  0  0  0  0  0  0
   36.9480   31.8040   39.9490 C   0  0  0  0  0  0  0  0  0  0  0  0
   36.7750   31.7440   38.8500 H   0  0  0  0  0  0  0  0  0  0  0  0
   36.5790   32.7750   40.2930 H   0  0  0  0  0  0  0  0  0  0  0  0
   40.6250   31.3300   39.2940 C   0  0  0  0  0  0  0  0  0  0  0  0
   39.2460   31.4810   39.0480 C   0  0  0  0  0  0  0  0  0  0  0  0
   38.4140   31.6400   40.1610 C   0  0  0  0  0  0  0  0  0  0  0  0
   38.9860   31.6390   41.4190 N   0  0  0  0  0  0  0  0  0  0  0  0
   40.3050   31.4910   41.5920 C   0  0  0  0  0  0  0  0  0  0  0  0
   41.1310   31.3360   40.5440 N   0  0  0  0  0  0  0  0  0  0  0  0
   41.3340   31.2030   38.5020 H   0  0  0  0  0  0  0  0  0  0  0  0
   38.8870   31.4700   38.0370 H   0  0  0  0  0  0  0  0  0  0  0  0
   40.6430   31.5050   42.6190 H   0  0  0  0  0  0  0  0  0  0  0  0
  1  6  1  0  0  0  0
  1 20  1  0  0  0  0
  2  1  2  0  0  0  0
  3  4  2  0  0  0  0
  3  2  1  0  0  0  0
  4  5  1  0  0  0  0
  5 10  1  0  0  0  0
  5  6  2  0  0  0  0
  6 13  1  0  0  0  0
  7  2  1  0  0  0  0
  8  3  1  0  0  0  0
  9  4  1  0  0  0  0
 11 12  1  0  0  0  0
 12 19  1  0  0  0  0
 13 12  2  0  0  0  0
 13 14  1  0  0  0  0
 14 16  2  0  0  0  0
 15 14  1  0  0  0  0
 16 18  1  0  0  0  0
 16 17  1  0  0  0  0
 19 18  2  0  0  0  0
 20 22  1  0  0  0  0
 20 21  1  0  0  0  0
 23 28  1  0  0  0  0
 23 25  1  0  0  0  0
 23 20  1  0  0  0  0
 24 23  1  0  0  0  0
 26 31  1  0  0  0  0
 27 26  2  0  0  0  0
 27 28  1  0  0  0  0
 28 29  2  0  0  0  0
 29 30  1  0  0  0  0
 30 34  1  0  0  0  0
 31 30  2  0  0  0  0
 32 26  1  0  0  0  0
 33 27  1  0  0  0  0
M  END
>  <minimizedAffinity>
-5.12424183

$$$$
