
 OpenBabel03252509213D

 25 27  0  0  0  0  0  0  0  0999 V2000
   45.1680   33.7540   43.8060 C   0  0  0  0  0  0  0  0  0  0  0  0
   45.2580   33.9970   42.3910 C   0  0  0  0  0  0  0  0  0  0  0  0
   46.5420   34.0100   41.8740 C   0  0  0  0  0  0  0  0  0  0  0  0
   47.6550   33.8080   42.6620 N   0  0  0  0  0  0  0  0  0  0  0  0
   47.5060   33.5830   43.9930 C   0  0  0  0  0  0  0  0  0  0  0  0
   46.2770   33.5590   44.5460 N   0  0  0  0  0  0  0  0  0  0  0  0
   44.1690   33.7510   44.1650 H   0  0  0  0  0  0  0  0  0  0  0  0
   48.3920   33.4300   44.5660 H   0  0  0  0  0  0  0  0  0  0  0  0
   44.0120   31.8200   41.1940 F   0  0  0  0  0  0  0  0  0  0  0  0
   43.5090   33.0710   40.9940 C   0  0  0  0  0  0  0  0  0  0  0  0
   44.0810   34.2110   41.5630 C   0  0  0  0  0  0  0  0  0  0  0  0
   43.4740   35.4180   41.2850 C   0  0  0  0  0  0  0  0  0  0  0  0
   43.9380   36.2860   41.7380 H   0  0  0  0  0  0  0  0  0  0  0  0
   42.3620   35.4920   40.4850 C   0  0  0  0  0  0  0  0  0  0  0  0
   41.9190   36.4740   40.2940 H   0  0  0  0  0  0  0  0  0  0  0  0
   41.8030   34.3480   39.9250 C   0  0  0  0  0  0  0  0  0  0  0  0
   42.4000   33.1340   40.1970 C   0  0  0  0  0  0  0  0  0  0  0  0
   46.6510   34.1590   40.3780 C   0  0  0  0  0  0  0  0  0  0  0  0
   48.0830   34.5070   39.9600 C   0  0  0  0  0  0  0  0  0  0  0  0
   47.3950   33.1460   39.6620 C   0  0  0  0  0  0  0  0  0  0  0  0
   46.0080   34.9800   39.9580 H   0  0  0  0  0  0  0  0  0  0  0  0
   48.2710   35.0870   39.0460 H   0  0  0  0  0  0  0  0  0  0  0  0
   48.8500   34.5100   40.7360 H   0  0  0  0  0  0  0  0  0  0  0  0
   47.7930   32.2930   40.2500 H   0  0  0  0  0  0  0  0  0  0  0  0
   47.1960   32.9050   38.5890 H   0  0  0  0  0  0  0  0  0  0  0  0
  1  7  1  0  0  0  0
  1  6  1  0  0  0  0
  2  1  2  0  0  0  0
  3  2  1  0  0  0  0
  3  4  2  0  0  0  0
  4  5  1  0  0  0  0
  5  6  2  0  0  0  0
  5  8  1  0  0  0  0
 10  9  1  0  0  0  0
 10 11  1  0  0  0  0
 11  2  1  0  0  0  0
 12 11  2  0  0  0  0
 12 13  1  0  0  0  0
 14 12  1  0  0  0  0
 15 14  1  0  0  0  0
 16 17  1  0  0  0  0
 16 14  2  0  0  0  0
 17 10  2  0  0  0  0
 18  3  1  0  0  0  0
 19 18  1  0  0  0  0
 19 23  1  0  0  0  0
 20 19  1  0  0  0  0
 20 24  1  0  0  0  0
 20 18  1  0  0  0  0
 21 18  1  0  0  0  0
 22 19  1  0  0  0  0
 25 20  1  0  0  0  0
M  END
>  <minimizedAffinity>
-3.82611704

>  <minimizedRMSD>
3.04811978

$$$$
