
 OpenBabel03242520563D

 41 43  0  0  0  0  0  0  0  0999 V2000
   51.1470   31.9180   51.2460 C   0  0  0  0  0  0  0  0  0  0  0  0
   51.2850   30.6680   51.9130 C   0  0  0  0  0  0  0  0  0  0  0  0
   50.5220   29.5870   51.5000 C   0  0  0  0  0  0  0  0  0  0  0  0
   49.7000   29.8200   50.4840 N   0  0  0  0  0  0  0  0  0  0  0  0
   49.5550   30.9730   49.8470 C   0  0  0  0  0  0  0  0  0  0  0  0
   50.2840   32.0410   50.2260 N   0  0  0  0  0  0  0  0  0  0  0  0
   51.6860   32.8240   51.4770 H   0  0  0  0  0  0  0  0  0  0  0  0
   54.1020   30.3460   51.6500 F   0  0  0  0  0  0  0  0  0  0  0  0
   53.6660   30.6310   52.8900 C   0  0  0  0  0  0  0  0  0  0  0  0
   52.2760   30.7780   52.9690 C   0  0  0  0  0  0  0  0  0  0  0  0
   51.7220   31.0740   54.2060 C   0  0  0  0  0  0  0  0  0  0  0  0
   50.6400   31.2070   54.3710 H   0  0  0  0  0  0  0  0  0  0  0  0
   52.5450   31.2100   55.3020 C   0  0  0  0  0  0  0  0  0  0  0  0
   52.1180   31.4410   56.2770 H   0  0  0  0  0  0  0  0  0  0  0  0
   53.9160   31.0720   55.2690 C   0  0  0  0  0  0  0  0  0  0  0  0
   54.4400   30.7800   54.0280 C   0  0  0  0  0  0  0  0  0  0  0  0
   48.6070   31.1220   48.7380 C   0  0  0  0  0  0  0  0  0  0  0  0
   47.5990   31.9670   48.8010 C   0  0  0  0  0  0  0  0  0  0  0  0
   46.6520   32.0940   47.6570 C   0  0  0  0  0  0  0  0  0  0  0  0
   46.4690   31.0660   47.3250 H   0  0  0  0  0  0  0  0  0  0  0  0
   45.6740   32.4370   48.0870 H   0  0  0  0  0  0  0  0  0  0  0  0
   46.6090   32.7450   45.4120 C   0  0  0  0  0  0  0  0  0  0  0  0
   45.8530   31.8620   44.9310 O   0  0  0  0  0  0  0  0  0  0  0  0
   47.0790   33.0150   46.6930 N   0  0  0  0  0  0  0  0  0  0  0  0
   47.6820   33.8360   46.8350 H   0  0  0  0  0  0  0  0  0  0  0  0
   44.8980   35.1120   44.5340 Cl  0  0  0  0  0  0  0  0  0  0  0  0
   46.2810   34.5840   43.6330 C   0  0  0  0  0  0  0  0  0  0  0  0
   46.9150   33.5090   44.1940 C   0  0  0  0  0  0  0  0  0  0  0  0
   48.0550   32.9570   43.5910 C   0  0  0  0  0  0  0  0  0  0  0  0
   48.5540   33.5020   42.4130 C   0  0  0  0  0  0  0  0  0  0  0  0
   47.8980   34.5920   41.8600 C   0  0  0  0  0  0  0  0  0  0  0  0
   48.4720   35.3170   40.3770 Cl  0  0  0  0  0  0  0  0  0  0  0  0
   46.7760   35.1190   42.4710 C   0  0  0  0  0  0  0  0  0  0  0  0
   48.6340   32.1270   43.9230 H   0  0  0  0  0  0  0  0  0  0  0  0
   49.4210   33.1350   41.8950 H   0  0  0  0  0  0  0  0  0  0  0  0
   46.2130   35.9710   42.0930 H   0  0  0  0  0  0  0  0  0  0  0  0
   50.6200   28.3860   52.1030 O   0  0  0  0  0  0  0  0  0  0  0  0
   51.6040   27.4720   51.6020 C   0  0  0  0  0  0  0  0  0  0  0  0
   52.1120   27.9640   50.3990 F   0  0  0  0  0  0  0  0  0  0  0  0
   52.6370   27.4690   52.5380 F   0  0  0  0  0  0  0  0  0  0  0  0
   51.1270   26.1730   51.4610 F   0  0  0  0  0  0  0  0  0  0  0  0
  1  7  1  0  0  0  0
  1  2  1  0  0  0  0
  2 10  1  0  0  0  0
  3  2  2  0  0  0  0
  3 37  1  0  0  0  0
  4  3  1  0  0  0  0
  5  6  1  0  0  0  0
  5  4  2  0  0  0  0
  6  1  2  0  0  0  0
  8  9  1  0  0  0  0
  9 10  2  0  0  0  0
  9 16  1  0  0  0  0
 10 11  1  0  0  0  0
 11 12  1  0  0  0  0
 11 13  2  0  0  0  0
 13 14  1  0  0  0  0
 15 13  1  0  0  0  0
 16 15  2  0  0  0  0
 17 18  2  0  0  0  0
 17  5  1  0  0  0  0
 19 21  1  0  0  0  0
 19 18  1  0  0  0  0
 20 19  1  0  0  0  0
 22 24  1  0  0  0  0
 23 22  2  0  0  0  0
 24 25  1  0  0  0  0
 24 19  1  0  0  0  0
 27 28  1  0  0  0  0
 27 26  1  0  0  0  0
 28 22  1  0  0  0  0
 29 34  1  0  0  0  0
 29 28  2  0  0  0  0
 30 29  1  0  0  0  0
 31 30  2  0  0  0  0
 31 33  1  0  0  0  0
 32 31  1  0  0  0  0
 33 27  2  0  0  0  0
 35 30  1  0  0  0  0
 36 33  1  0  0  0  0
 38 37  1  0  0  0  0
 38 40  1  0  0  0  0
 39 38  1  0  0  0  0
 41 38  1  0  0  0  0
M  END
>  <minimizedAffinity>
-7.46333361

>  <minimizedRMSD>
0.565502942

$$$$
