
 OpenBabel03252505093D

 43 46  0  0  1  0  0  0  0  0999 V2000
   37.4250   32.6340   39.9270 C   0  0  0  0  0  0  0  0  0  0  0  0
   37.0420   31.4680   40.6270 C   0  0  0  0  0  0  0  0  0  0  0  0
   38.0370   30.4590   40.8230 C   0  0  0  0  0  0  0  0  0  0  0  0
   39.2850   30.6710   40.3310 N   0  0  0  0  0  0  0  0  0  0  0  0
   39.6030   31.7960   39.6730 C   0  0  0  0  0  0  0  0  0  0  0  0
   38.6780   32.7850   39.4650 N   0  0  0  0  0  0  0  0  0  0  0  0
   36.7120   33.4240   39.7530 H   0  0  0  0  0  0  0  0  0  0  0  0
   36.0310   31.3450   41.0000 H   0  0  0  0  0  0  0  0  0  0  0  0
   40.9860   31.9660   39.1560 C   0  0  2  0  0  0  0  0  0  0  0  0
   41.7820   32.5520   40.2880 C   0  0  0  0  0  0  0  0  0  0  0  0
   42.0940   33.9930   40.1940 C   0  0  0  0  0  0  0  0  0  0  0  0
   42.8090   34.1540   38.8550 C   0  0  0  0  0  0  0  0  0  0  0  0
   41.9450   33.8720   37.7220 C   0  0  0  0  0  0  0  0  0  0  0  0
   41.0140   32.7270   37.9260 C   0  0  0  0  0  0  0  0  0  0  0  0
   41.3440   30.9280   38.9480 H   0  0  0  0  0  0  0  0  0  0  0  0
   42.7450   32.0040   40.3400 H   0  0  0  0  0  0  0  0  0  0  0  0
   41.2970   32.3660   41.2880 H   0  0  0  0  0  0  0  0  0  0  0  0
   41.1910   34.6350   40.1980 H   0  0  0  0  0  0  0  0  0  0  0  0
   42.7840   34.2580   40.9930 H   0  0  0  0  0  0  0  0  0  0  0  0
   43.7260   33.5240   38.8770 H   0  0  0  0  0  0  0  0  0  0  0  0
   43.0680   35.2200   38.8000 H   0  0  0  0  0  0  0  0  0  0  0  0
   41.8420   34.3360   36.7510 H   0  0  0  0  0  0  0  0  0  0  0  0
   40.1020   32.3380   36.8900 N   0  0  0  0  0  0  0  0  0  0  0  0
   39.2690   32.9660   36.8110 H   0  0  0  0  0  0  0  0  0  0  0  0
   40.3180   31.5110   36.3220 H   0  0  0  0  0  0  0  0  0  0  0  0
   37.6760   29.2510   41.5380 C   0  0  0  0  0  0  0  0  0  0  0  0
   37.6340   29.2800   42.8940 C   0  0  0  0  0  0  0  0  0  0  0  0
   37.2830   28.0890   43.5390 C   0  0  0  0  0  0  0  0  0  0  0  0
   37.0150   27.0000   42.7380 C   0  0  0  0  0  0  0  0  0  0  0  0
   37.0560   26.9710   41.3770 C   0  0  0  0  0  0  0  0  0  0  0  0
   37.4050   28.1640   40.7950 N   0  0  0  0  0  0  0  0  0  0  0  0
   37.8550   30.1650   43.4820 H   0  0  0  0  0  0  0  0  0  0  0  0
   37.2290   28.0380   44.6260 H   0  0  0  0  0  0  0  0  0  0  0  0
   36.7490   26.1030   43.2690 H   0  0  0  0  0  0  0  0  0  0  0  0
   37.3020   24.4130   42.3900 F   0  0  0  0  0  0  0  0  0  0  0  0
   36.9040   24.5490   41.0940 C   0  0  0  0  0  0  0  0  0  0  0  0
   36.7680   25.8070   40.5470 C   0  0  0  0  0  0  0  0  0  0  0  0
   36.3650   25.9360   39.2360 C   0  0  0  0  0  0  0  0  0  0  0  0
   36.2460   26.8950   38.7690 H   0  0  0  0  0  0  0  0  0  0  0  0
   36.0810   24.8370   38.4180 C   0  0  0  0  0  0  0  0  0  0  0  0
   35.7690   24.9810   37.3990 H   0  0  0  0  0  0  0  0  0  0  0  0
   36.2230   23.5890   38.9840 C   0  0  0  0  0  3  0  0  0  0  0  0
   36.6260   23.4320   40.2950 C   0  0  0  0  0  3  0  0  0  0  0  0
  1  2  1  0  0  0  0
  2  3  2  0  0  0  0
  2  8  1  0  0  0  0
  3 26  1  0  0  0  0
  4  3  1  0  0  0  0
  5  4  2  0  0  0  0
  6  5  1  0  0  0  0
  6  1  2  0  0  0  0
  7  1  1  0  0  0  0
  9 15  1  6  0  0  0
  9  5  1  0  0  0  0
  9 10  1  0  0  0  0
 10 16  1  0  0  0  0
 10 17  1  0  0  0  0
 11 18  1  0  0  0  0
 11 10  1  0  0  0  0
 11 19  1  0  0  0  0
 12 20  1  0  0  0  0
 12 11  1  0  0  0  0
 13 14  2  0  0  0  0
 13 12  1  0  0  0  0
 14  9  1  0  0  0  0
 21 12  1  0  0  0  0
 22 13  1  0  0  0  0
 23 14  1  0  0  0  0
 24 23  1  0  0  0  0
 25 23  1  0  0  0  0
 26 27  1  0  0  0  0
 27 32  1  0  0  0  0
 27 28  2  0  0  0  0
 28 33  1  0  0  0  0
 29 34  1  0  0  0  0
 29 28  1  0  0  0  0
 30 29  2  0  0  0  0
 31 30  1  0  0  0  0
 31 26  2  0  0  0  0
 36 35  1  0  0  0  0
 37 36  1  0  0  0  0
 37 30  1  0  0  0  0
 38 37  2  0  0  0  0
 39 38  1  0  0  0  0
 40 42  2  0  0  0  0
 40 38  1  0  0  0  0
 41 40  1  0  0  0  0
 42 43  1  0  0  0  0
 43 36  2  0  0  0  0
M  END
>  <minimizedAffinity>
-7.19901133

$$$$

 OpenBabel03252505093D

 43 46  0  0  1  0  0  0  0  0999 V2000
   32.7100   26.7560   35.9700 C   0  0  0  0  0  0  0  0  0  0  0  0
   33.9250   27.1760   36.5560 C   0  0  0  0  0  0  0  0  0  0  0  0
   33.9540   28.4750   37.1560 C   0  0  0  0  0  0  0  0  0  0  0  0
   32.8250   29.2280   37.1310 N   0  0  0  0  0  0  0  0  0  0  0  0
   31.6930   28.7860   36.5620 C   0  0  0  0  0  0  0  0  0  0  0  0
   31.6260   27.5490   35.9780 N   0  0  0  0  0  0  0  0  0  0  0  0
   32.6370   25.7850   35.5050 H   0  0  0  0  0  0  0  0  0  0  0  0
   34.8010   26.5360   36.5500 H   0  0  0  0  0  0  0  0  0  0  0  0
   30.4920   29.6610   36.5640 C   0  0  2  0  0  0  0  0  0  0  0  0
   30.5230   30.4080   35.2600 C   0  0  0  0  0  0  0  0  0  0  0  0
   30.9490   31.8210   35.3220 C   0  0  0  0  0  0  0  0  0  0  0  0
   30.0040   32.4740   36.3280 C   0  0  0  0  0  0  0  0  0  0  0  0
   30.1770   31.9580   37.6750 C   0  0  0  0  0  0  0  0  0  0  0  0
   30.4290   30.4920   37.7460 C   0  0  0  0  0  0  0  0  0  0  0  0
   29.6240   28.9580   36.5680 H   0  0  0  0  0  0  0  0  0  0  0  0
   29.4970   30.3870   34.8360 H   0  0  0  0  0  0  0  0  0  0  0  0
   31.1570   29.8890   34.4870 H   0  0  0  0  0  0  0  0  0  0  0  0
   31.9910   31.9470   35.6780 H   0  0  0  0  0  0  0  0  0  0  0  0
   30.7950   32.2820   34.3480 H   0  0  0  0  0  0  0  0  0  0  0  0
   28.9650   32.3630   35.9440 H   0  0  0  0  0  0  0  0  0  0  0  0
   30.3010   33.5310   36.3510 H   0  0  0  0  0  0  0  0  0  0  0  0
   30.1600   32.4350   38.6450 H   0  0  0  0  0  0  0  0  0  0  0  0
   30.6210   29.8490   39.0140 N   0  0  0  0  0  0  0  0  0  0  0  0
   31.5710   30.0040   39.4200 H   0  0  0  0  0  0  0  0  0  0  0  0
   29.8490   29.3050   39.4170 H   0  0  0  0  0  0  0  0  0  0  0  0
   35.1850   28.9350   37.7660 C   0  0  0  0  0  0  0  0  0  0  0  0
   35.9800   29.7890   37.0740 C   0  0  0  0  0  0  0  0  0  0  0  0
   37.1590   30.2030   37.7040 C   0  0  0  0  0  0  0  0  0  0  0  0
   37.4020   29.7030   38.9660 C   0  0  0  0  0  0  0  0  0  0  0  0
   36.6030   28.8470   39.6610 C   0  0  0  0  0  0  0  0  0  0  0  0
   35.4610   28.4730   38.9990 N   0  0  0  0  0  0  0  0  0  0  0  0
   35.7450   30.1550   36.0790 H   0  0  0  0  0  0  0  0  0  0  0  0
   37.8460   30.8880   37.2080 H   0  0  0  0  0  0  0  0  0  0  0  0
   38.3170   30.0430   39.4170 H   0  0  0  0  0  0  0  0  0  0  0  0
   36.9840   30.5620   41.7930 F   0  0  0  0  0  0  0  0  0  0  0  0
   37.0610   29.2220   42.0310 C   0  0  0  0  0  0  0  0  0  0  0  0
   36.8780   28.3300   40.9960 C   0  0  0  0  0  0  0  0  0  0  0  0
   36.9580   26.9780   41.2460 C   0  0  0  0  0  0  0  0  0  0  0  0
   36.8220   26.2480   40.4720 H   0  0  0  0  0  0  0  0  0  0  0  0
   37.2190   26.4550   42.5170 C   0  0  0  0  0  0  0  0  0  0  0  0
   37.2740   25.3910   42.6690 H   0  0  0  0  0  0  0  0  0  0  0  0
   37.3990   27.3640   43.5370 C   0  0  0  0  0  3  0  0  0  0  0  0
   37.3240   28.7240   43.3140 C   0  0  0  0  0  3  0  0  0  0  0  0
  1  6  2  0  0  0  0
  1  2  1  0  0  0  0
  2  3  2  0  0  0  0
  3 26  1  0  0  0  0
  4  3  1  0  0  0  0
  5  9  1  0  0  0  0
  5  4  2  0  0  0  0
  6  5  1  0  0  0  0
  7  1  1  0  0  0  0
  8  2  1  0  0  0  0
  9 15  1  6  0  0  0
  9 14  1  0  0  0  0
 10 11  1  0  0  0  0
 10  9  1  0  0  0  0
 11 18  1  0  0  0  0
 11 12  1  0  0  0  0
 12 21  1  0  0  0  0
 12 13  1  0  0  0  0
 13 14  2  0  0  0  0
 13 22  1  0  0  0  0
 14 23  1  0  0  0  0
 16 10  1  0  0  0  0
 17 10  1  0  0  0  0
 19 11  1  0  0  0  0
 20 12  1  0  0  0  0
 23 25  1  0  0  0  0
 23 24  1  0  0  0  0
 26 31  1  0  0  0  0
 27 28  1  0  0  0  0
 27 26  2  0  0  0  0
 28 29  2  0  0  0  0
 29 34  1  0  0  0  0
 29 30  1  0  0  0  0
 30 37  1  0  0  0  0
 31 30  2  0  0  0  0
 32 27  1  0  0  0  0
 33 28  1  0  0  0  0
 35 36  1  0  0  0  0
 36 43  1  0  0  0  0
 37 38  1  0  0  0  0
 37 36  2  0  0  0  0
 38 40  2  0  0  0  0
 39 38  1  0  0  0  0
 40 41  1  0  0  0  0
 40 42  1  0  0  0  0
 43 42  2  0  0  0  0
M  END
>  <minimizedAffinity>
-6.79057837

$$$$

 OpenBabel03252505093D

 43 46  0  0  1  0  0  0  0  0999 V2000
   35.8910   29.1200   38.0840 C   0  0  0  0  0  0  0  0  0  0  0  0
   36.1540   28.4360   39.2930 C   0  0  0  0  0  0  0  0  0  0  0  0
   37.1060   29.0200   40.1870 C   0  0  0  0  0  0  0  0  0  0  0  0
   37.7010   30.1870   39.8330 N   0  0  0  0  0  0  0  0  0  0  0  0
   37.4190   30.8000   38.6740 C   0  0  0  0  0  0  0  0  0  0  0  0
   36.5140   30.2730   37.7910 N   0  0  0  0  0  0  0  0  0  0  0  0
   35.1820   28.7220   37.3760 H   0  0  0  0  0  0  0  0  0  0  0  0
   35.6520   27.5040   39.5300 H   0  0  0  0  0  0  0  0  0  0  0  0
   38.1090   32.0750   38.3420 C   0  0  2  0  0  0  0  0  0  0  0  0
   39.4240   31.6850   37.7270 C   0  0  0  0  0  0  0  0  0  0  0  0
   40.6190   31.8300   38.5830 C   0  0  0  0  0  0  0  0  0  0  0  0
   40.6110   33.2900   39.0270 C   0  0  0  0  0  0  0  0  0  0  0  0
   39.4810   33.6090   39.8830 C   0  0  0  0  0  0  0  0  0  0  0  0
   38.2030   32.9520   39.4880 C   0  0  0  0  0  0  0  0  0  0  0  0
   37.4640   32.5570   37.5670 H   0  0  0  0  0  0  0  0  0  0  0  0
   39.5760   32.3210   36.8300 H   0  0  0  0  0  0  0  0  0  0  0  0
   39.4100   30.6320   37.3260 H   0  0  0  0  0  0  0  0  0  0  0  0
   40.5920   31.1830   39.4820 H   0  0  0  0  0  0  0  0  0  0  0  0
   41.5090   31.6520   37.9830 H   0  0  0  0  0  0  0  0  0  0  0  0
   40.6650   33.9260   38.1150 H   0  0  0  0  0  0  0  0  0  0  0  0
   41.5160   33.4060   39.6380 H   0  0  0  0  0  0  0  0  0  0  0  0
   39.3850   34.2340   40.7600 H   0  0  0  0  0  0  0  0  0  0  0  0
   37.0070   33.1770   40.2460 N   0  0  0  0  0  0  0  0  0  0  0  0
   36.9750   32.6390   41.1410 H   0  0  0  0  0  0  0  0  0  0  0  0
   36.2970   33.8200   39.8760 H   0  0  0  0  0  0  0  0  0  0  0  0
   37.3970   28.3430   41.4350 C   0  0  0  0  0  0  0  0  0  0  0  0
   36.3740   28.0600   42.2820 C   0  0  0  0  0  0  0  0  0  0  0  0
   36.7050   27.4100   43.4750 C   0  0  0  0  0  0  0  0  0  0  0  0
   38.0370   27.1190   43.6800 C   0  0  0  0  0  0  0  0  0  0  0  0
   39.0630   27.4020   42.8310 C   0  0  0  0  0  0  0  0  0  0  0  0
   38.6840   28.0400   41.6760 N   0  0  0  0  0  0  0  0  0  0  0  0
   35.3380   28.3110   42.0750 H   0  0  0  0  0  0  0  0  0  0  0  0
   35.9350   27.1510   44.2010 H   0  0  0  0  0  0  0  0  0  0  0  0
   38.2520   26.6200   44.6070 H   0  0  0  0  0  0  0  0  0  0  0  0
   39.9480   24.7860   42.8100 F   0  0  0  0  0  0  0  0  0  0  0  0
   40.8640   25.7660   43.0460 C   0  0  0  0  0  0  0  0  0  0  0  0
   40.4670   27.0860   43.0660 C   0  0  0  0  0  0  0  0  0  0  0  0
   41.4000   28.0700   43.3060 C   0  0  0  0  0  0  0  0  0  0  0  0
   41.1360   29.1100   43.3300 H   0  0  0  0  0  0  0  0  0  0  0  0
   42.7520   27.7950   43.5330 C   0  0  0  0  0  0  0  0  0  0  0  0
   43.4490   28.5940   43.7170 H   0  0  0  0  0  0  0  0  0  0  0  0
   43.1280   26.4700   43.5090 C   0  0  0  0  0  3  0  0  0  0  0  0
   42.2140   25.4640   43.2710 C   0  0  0  0  0  3  0  0  0  0  0  0
  1  2  1  0  0  0  0
  2  8  1  0  0  0  0
  2  3  2  0  0  0  0
  3 26  1  0  0  0  0
  4  3  1  0  0  0  0
  5  4  2  0  0  0  0
  6  1  2  0  0  0  0
  6  5  1  0  0  0  0
  7  1  1  0  0  0  0
  9 15  1  6  0  0  0
  9  5  1  0  0  0  0
  9 14  1  0  0  0  0
 10  9  1  0  0  0  0
 10 11  1  0  0  0  0
 11 12  1  0  0  0  0
 11 18  1  0  0  0  0
 12 21  1  0  0  0  0
 12 13  1  0  0  0  0
 13 22  1  0  0  0  0
 14 13  2  0  0  0  0
 14 23  1  0  0  0  0
 16 10  1  0  0  0  0
 17 10  1  0  0  0  0
 19 11  1  0  0  0  0
 20 12  1  0  0  0  0
 23 24  1  0  0  0  0
 25 23  1  0  0  0  0
 26 31  2  0  0  0  0
 26 27  1  0  0  0  0
 27 28  2  0  0  0  0
 28 29  1  0  0  0  0
 28 33  1  0  0  0  0
 29 34  1  0  0  0  0
 30 37  1  0  0  0  0
 30 29  2  0  0  0  0
 31 30  1  0  0  0  0
 32 27  1  0  0  0  0
 35 36  1  0  0  0  0
 36 37  2  0  0  0  0
 36 43  1  0  0  0  0
 37 38  1  0  0  0  0
 38 39  1  0  0  0  0
 38 40  2  0  0  0  0
 40 41  1  0  0  0  0
 42 40  1  0  0  0  0
 43 42  2  0  0  0  0
M  END
>  <minimizedAffinity>
-6.66510105

$$$$

 OpenBabel03252505093D

 43 46  0  0  1  0  0  0  0  0999 V2000
   37.9020   31.8760   39.7920 C   0  0  0  0  0  0  0  0  0  0  0  0
   37.0530   31.0380   39.0340 C   0  0  0  0  0  0  0  0  0  0  0  0
   36.8680   29.6960   39.4950 C   0  0  0  0  0  0  0  0  0  0  0  0
   37.5100   29.3010   40.6240 N   0  0  0  0  0  0  0  0  0  0  0  0
   38.3070   30.1340   41.3110 C   0  0  0  0  0  0  0  0  0  0  0  0
   38.5100   31.4250   40.9020 N   0  0  0  0  0  0  0  0  0  0  0  0
   38.0750   32.8950   39.4870 H   0  0  0  0  0  0  0  0  0  0  0  0
   36.5620   31.4010   38.1380 H   0  0  0  0  0  0  0  0  0  0  0  0
   38.9860   29.6380   42.5370 C   0  0  2  0  0  0  0  0  0  0  0  0
   40.3500   29.1840   42.1000 C   0  0  0  0  0  0  0  0  0  0  0  0
   40.5520   27.7250   41.9900 C   0  0  0  0  0  0  0  0  0  0  0  0
   40.1840   27.1710   43.3640 C   0  0  0  0  0  0  0  0  0  0  0  0
   38.7760   27.3440   43.6770 C   0  0  0  0  0  0  0  0  0  0  0  0
   38.1980   28.6410   43.2260 C   0  0  0  0  0  0  0  0  0  0  0  0
   39.0870   30.5380   43.1930 H   0  0  0  0  0  0  0  0  0  0  0  0
   41.0850   29.5680   42.8370 H   0  0  0  0  0  0  0  0  0  0  0  0
   40.6610   29.6510   41.1230 H   0  0  0  0  0  0  0  0  0  0  0  0
   39.9030   27.2510   41.2270 H   0  0  0  0  0  0  0  0  0  0  0  0
   41.6070   27.5260   41.8040 H   0  0  0  0  0  0  0  0  0  0  0  0
   40.8620   27.6360   44.1140 H   0  0  0  0  0  0  0  0  0  0  0  0
   40.3640   26.0900   43.2920 H   0  0  0  0  0  0  0  0  0  0  0  0
   38.0580   26.7080   44.1770 H   0  0  0  0  0  0  0  0  0  0  0  0
   36.8170   28.9440   43.4680 N   0  0  0  0  0  0  0  0  0  0  0  0
   36.1630   28.4570   42.8140 H   0  0  0  0  0  0  0  0  0  0  0  0
   36.5750   29.5880   44.2300 H   0  0  0  0  0  0  0  0  0  0  0  0
   36.0020   28.8120   38.7410 C   0  0  0  0  0  0  0  0  0  0  0  0
   36.2820   27.4840   38.7170 C   0  0  0  0  0  0  0  0  0  0  0  0
   35.4200   26.6720   37.9730 C   0  0  0  0  0  0  0  0  0  0  0  0
   34.3690   27.2960   37.3340 C   0  0  0  0  0  0  0  0  0  0  0  0
   34.0880   28.6270   37.3590 C   0  0  0  0  0  0  0  0  0  0  0  0
   34.9640   29.3780   38.1020 N   0  0  0  0  0  0  0  0  0  0  0  0
   37.1250   27.0390   39.2370 H   0  0  0  0  0  0  0  0  0  0  0  0
   35.5830   25.5970   37.9080 H   0  0  0  0  0  0  0  0  0  0  0  0
   33.7290   26.6390   36.7720 H   0  0  0  0  0  0  0  0  0  0  0  0
   31.9100   29.5640   38.7760 F   0  0  0  0  0  0  0  0  0  0  0  0
   31.9040   29.7210   37.4230 C   0  0  0  0  0  0  0  0  0  0  0  0
   32.9700   29.2680   36.6760 C   0  0  0  0  0  0  0  0  0  0  0  0
   32.9560   29.4310   35.3080 C   0  0  0  0  0  0  0  0  0  0  0  0
   33.7640   29.0950   34.6870 H   0  0  0  0  0  0  0  0  0  0  0  0
   31.8990   30.0430   34.6280 C   0  0  0  0  0  0  0  0  0  0  0  0
   31.9270   30.1510   33.5580 H   0  0  0  0  0  0  0  0  0  0  0  0
   30.8430   30.4880   35.3930 C   0  0  0  0  0  3  0  0  0  0  0  0
   30.8320   30.3370   36.7650 C   0  0  0  0  0  3  0  0  0  0  0  0
  1  6  1  0  0  0  0
  2  3  1  0  0  0  0
  2  1  2  0  0  0  0
  3  4  2  0  0  0  0
  4  5  1  0  0  0  0
  5  9  1  0  0  0  0
  6  5  2  0  0  0  0
  7  1  1  0  0  0  0
  8  2  1  0  0  0  0
  9 15  1  1  0  0  0
  9 14  1  0  0  0  0
 10  9  1  0  0  0  0
 10 16  1  0  0  0  0
 11 10  1  0  0  0  0
 11 12  1  0  0  0  0
 12 13  1  0  0  0  0
 12 20  1  0  0  0  0
 13 22  1  0  0  0  0
 14 23  1  0  0  0  0
 14 13  2  0  0  0  0
 17 10  1  0  0  0  0
 18 11  1  0  0  0  0
 19 11  1  0  0  0  0
 21 12  1  0  0  0  0
 23 25  1  0  0  0  0
 24 23  1  0  0  0  0
 26  3  1  0  0  0  0
 27 26  1  0  0  0  0
 27 32  1  0  0  0  0
 28 27  2  0  0  0  0
 29 30  2  0  0  0  0
 29 28  1  0  0  0  0
 30 31  1  0  0  0  0
 31 26  2  0  0  0  0
 33 28  1  0  0  0  0
 34 29  1  0  0  0  0
 36 35  1  0  0  0  0
 37 30  1  0  0  0  0
 37 36  2  0  0  0  0
 38 37  1  0  0  0  0
 39 38  1  0  0  0  0
 40 38  2  0  0  0  0
 40 42  1  0  0  0  0
 41 40  1  0  0  0  0
 42 43  2  0  0  0  0
 43 36  1  0  0  0  0
M  END
>  <minimizedAffinity>
-6.45180845

$$$$

 OpenBabel03252505093D

 43 46  0  0  1  0  0  0  0  0999 V2000
   37.5170   29.5090   38.5620 C   0  0  0  0  0  0  0  0  0  0  0  0
   36.3480   29.3320   37.7870 C   0  0  0  0  0  0  0  0  0  0  0  0
   35.4280   28.3190   38.2040 C   0  0  0  0  0  0  0  0  0  0  0  0
   35.7210   27.5880   39.3090 N   0  0  0  0  0  0  0  0  0  0  0  0
   36.8450   27.7920   40.0140 C   0  0  0  0  0  0  0  0  0  0  0  0
   37.7500   28.7520   39.6470 N   0  0  0  0  0  0  0  0  0  0  0  0
   38.2420   30.2590   38.2900 H   0  0  0  0  0  0  0  0  0  0  0  0
   36.1590   29.9430   36.9110 H   0  0  0  0  0  0  0  0  0  0  0  0
   37.1100   26.9550   41.2130 C   0  0  2  0  0  0  0  0  0  0  0  0
   36.5730   27.7280   42.3850 C   0  0  0  0  0  0  0  0  0  0  0  0
   37.5710   28.4020   43.2400 C   0  0  0  0  0  0  0  0  0  0  0  0
   38.5250   27.2950   43.6800 C   0  0  0  0  0  0  0  0  0  0  0  0
   39.2800   26.7340   42.5730 C   0  0  0  0  0  0  0  0  0  0  0  0
   38.5030   26.5780   41.3120 C   0  0  0  0  0  0  0  0  0  0  0  0
   36.4950   26.0340   41.0610 H   0  0  0  0  0  0  0  0  0  0  0  0
   36.0090   27.0180   43.0250 H   0  0  0  0  0  0  0  0  0  0  0  0
   35.8080   28.4950   42.0730 H   0  0  0  0  0  0  0  0  0  0  0  0
   38.1500   29.1800   42.7030 H   0  0  0  0  0  0  0  0  0  0  0  0
   37.0710   28.8030   44.1200 H   0  0  0  0  0  0  0  0  0  0  0  0
   37.9340   26.5350   44.2390 H   0  0  0  0  0  0  0  0  0  0  0  0
   39.2490   27.7900   44.3400 H   0  0  0  0  0  0  0  0  0  0  0  0
   40.3070   26.4060   42.4840 H   0  0  0  0  0  0  0  0  0  0  0  0
   39.1240   26.0380   40.1370 N   0  0  0  0  0  0  0  0  0  0  0  0
   39.7400   26.7220   39.6410 H   0  0  0  0  0  0  0  0  0  0  0  0
   38.9320   25.0640   39.8760 H   0  0  0  0  0  0  0  0  0  0  0  0
   34.2190   28.1130   37.4320 C   0  0  0  0  0  0  0  0  0  0  0  0
   33.9460   26.8700   36.9600 C   0  0  0  0  0  0  0  0  0  0  0  0
   32.7700   26.7230   36.2170 C   0  0  0  0  0  0  0  0  0  0  0  0
   32.0000   27.8520   36.0340 C   0  0  0  0  0  0  0  0  0  0  0  0
   32.2740   29.0980   36.5070 C   0  0  0  0  0  0  0  0  0  0  0  0
   33.4380   29.1890   37.2280 N   0  0  0  0  0  0  0  0  0  0  0  0
   34.5860   26.0100   37.1310 H   0  0  0  0  0  0  0  0  0  0  0  0
   32.4870   25.7540   35.8070 H   0  0  0  0  0  0  0  0  0  0  0  0
   31.1050   27.6990   35.4580 H   0  0  0  0  0  0  0  0  0  0  0  0
   30.6620   30.0680   38.5310 F   0  0  0  0  0  0  0  0  0  0  0  0
   30.6570   30.7310   37.3390 C   0  0  0  0  0  0  0  0  0  0  0  0
   31.4460   30.2810   36.3020 C   0  0  0  0  0  0  0  0  0  0  0  0
   31.4340   30.9560   35.1010 C   0  0  0  0  0  0  0  0  0  0  0  0
   32.0320   30.6430   34.2670 H   0  0  0  0  0  0  0  0  0  0  0  0
   30.6510   32.0930   34.8780 C   0  0  0  0  0  0  0  0  0  0  0  0
   30.6710   32.5920   33.9250 H   0  0  0  0  0  0  0  0  0  0  0  0
   29.8710   32.5260   35.9280 C   0  0  0  0  0  3  0  0  0  0  0  0
   29.8630   31.8680   37.1410 C   0  0  0  0  0  3  0  0  0  0  0  0
  1  6  1  0  0  0  0
  2  3  1  0  0  0  0
  2  1  2  0  0  0  0
  3  4  2  0  0  0  0
  4  5  1  0  0  0  0
  5  9  1  0  0  0  0
  6  5  2  0  0  0  0
  7  1  1  0  0  0  0
  8  2  1  0  0  0  0
  9 15  1  6  0  0  0
  9 14  1  0  0  0  0
  9 10  1  0  0  0  0
 10 16  1  0  0  0  0
 10 11  1  0  0  0  0
 11 12  1  0  0  0  0
 11 19  1  0  0  0  0
 12 20  1  0  0  0  0
 12 21  1  0  0  0  0
 13 12  1  0  0  0  0
 14 13  2  0  0  0  0
 17 10  1  0  0  0  0
 18 11  1  0  0  0  0
 22 13  1  0  0  0  0
 23 14  1  0  0  0  0
 24 23  1  0  0  0  0
 25 23  1  0  0  0  0
 26  3  1  0  0  0  0
 27 32  1  0  0  0  0
 27 26  2  0  0  0  0
 28 27  1  0  0  0  0
 29 28  2  0  0  0  0
 29 30  1  0  0  0  0
 30 31  2  0  0  0  0
 31 26  1  0  0  0  0
 33 28  1  0  0  0  0
 34 29  1  0  0  0  0
 36 35  1  0  0  0  0
 37 30  1  0  0  0  0
 37 36  2  0  0  0  0
 38 37  1  0  0  0  0
 39 38  1  0  0  0  0
 40 38  2  0  0  0  0
 40 42  1  0  0  0  0
 41 40  1  0  0  0  0
 42 43  2  0  0  0  0
 43 36  1  0  0  0  0
M  END
>  <minimizedAffinity>
-6.45170021

$$$$

 OpenBabel03252505093D

 43 46  0  0  1  0  0  0  0  0999 V2000
   35.9820   24.5410   38.9160 C   0  0  0  0  0  0  0  0  0  0  0  0
   36.0660   25.7060   38.1210 C   0  0  0  0  0  0  0  0  0  0  0  0
   36.5800   26.8900   38.7380 C   0  0  0  0  0  0  0  0  0  0  0  0
   36.9580   26.8340   40.0400 N   0  0  0  0  0  0  0  0  0  0  0  0
   36.8610   25.7030   40.7560 C   0  0  0  0  0  0  0  0  0  0  0  0
   36.3730   24.5490   40.2020 N   0  0  0  0  0  0  0  0  0  0  0  0
   35.6020   23.6220   38.4990 H   0  0  0  0  0  0  0  0  0  0  0  0
   35.7500   25.6990   37.0830 H   0  0  0  0  0  0  0  0  0  0  0  0
   37.2870   25.7090   42.1800 C   0  0  2  0  0  0  0  0  0  0  0  0
   37.3020   27.1510   42.6010 C   0  0  0  0  0  0  0  0  0  0  0  0
   38.6290   27.7900   42.7110 C   0  0  0  0  0  0  0  0  0  0  0  0
   39.4120   26.9070   43.6800 C   0  0  0  0  0  0  0  0  0  0  0  0
   39.6650   25.5790   43.1480 C   0  0  0  0  0  0  0  0  0  0  0  0
   38.5310   24.9990   42.3750 C   0  0  0  0  0  0  0  0  0  0  0  0
   36.4730   25.1710   42.7250 H   0  0  0  0  0  0  0  0  0  0  0  0
   36.8170   27.2150   43.5980 H   0  0  0  0  0  0  0  0  0  0  0  0
   36.6610   27.7960   41.9350 H   0  0  0  0  0  0  0  0  0  0  0  0
   39.1730   27.8320   41.7460 H   0  0  0  0  0  0  0  0  0  0  0  0
   38.5130   28.7770   43.1540 H   0  0  0  0  0  0  0  0  0  0  0  0
   38.8670   26.8970   44.6500 H   0  0  0  0  0  0  0  0  0  0  0  0
   40.3880   27.3990   43.7850 H   0  0  0  0  0  0  0  0  0  0  0  0
   40.5230   24.9240   43.2030 H   0  0  0  0  0  0  0  0  0  0  0  0
   38.6440   23.6940   41.7910 N   0  0  0  0  0  0  0  0  0  0  0  0
   39.2140   23.6770   40.9150 H   0  0  0  0  0  0  0  0  0  0  0  0
   38.1790   22.9010   42.2500 H   0  0  0  0  0  0  0  0  0  0  0  0
   36.6790   28.1010   37.9490 C   0  0  0  0  0  0  0  0  0  0  0  0
   36.2270   28.0890   36.6690 C   0  0  0  0  0  0  0  0  0  0  0  0
   36.3470   29.2810   35.9470 C   0  0  0  0  0  0  0  0  0  0  0  0
   36.9130   30.3540   36.6010 C   0  0  0  0  0  0  0  0  0  0  0  0
   37.3670   30.3670   37.8850 C   0  0  0  0  0  0  0  0  0  0  0  0
   37.2260   29.1730   38.5480 N   0  0  0  0  0  0  0  0  0  0  0  0
   35.7870   27.2160   36.1970 H   0  0  0  0  0  0  0  0  0  0  0  0
   36.0050   29.3450   34.9150 H   0  0  0  0  0  0  0  0  0  0  0  0
   36.9890   31.2520   36.0140 H   0  0  0  0  0  0  0  0  0  0  0  0
   40.0520   30.9450   37.5880 F   0  0  0  0  0  0  0  0  0  0  0  0
   39.3070   31.7650   38.3830 C   0  0  0  0  0  0  0  0  0  0  0  0
   37.9640   31.5130   38.5600 C   0  0  0  0  0  0  0  0  0  0  0  0
   37.2190   32.3470   39.3640 C   0  0  0  0  0  0  0  0  0  0  0  0
   36.1710   32.1900   39.5300 H   0  0  0  0  0  0  0  0  0  0  0  0
   37.7660   33.4540   40.0220 C   0  0  0  0  0  0  0  0  0  0  0  0
   37.1490   34.0800   40.6420 H   0  0  0  0  0  0  0  0  0  0  0  0
   39.1100   33.6870   39.8320 C   0  0  0  0  0  3  0  0  0  0  0  0
   39.8790   32.8670   39.0310 C   0  0  0  0  0  3  0  0  0  0  0  0
  1  6  1  0  0  0  0
  2  3  1  0  0  0  0
  2  1  2  0  0  0  0
  3  4  2  0  0  0  0
  4  5  1  0  0  0  0
  5  9  1  0  0  0  0
  6  5  2  0  0  0  0
  7  1  1  0  0  0  0
  8  2  1  0  0  0  0
  9 14  1  0  0  0  0
  9 10  1  0  0  0  0
  9 15  1  1  0  0  0
 10 11  1  0  0  0  0
 10 16  1  0  0  0  0
 11 19  1  0  0  0  0
 11 12  1  0  0  0  0
 12 21  1  0  0  0  0
 12 20  1  0  0  0  0
 13 22  1  0  0  0  0
 13 12  1  0  0  0  0
 14 13  2  0  0  0  0
 17 10  1  0  0  0  0
 18 11  1  0  0  0  0
 23 25  1  0  0  0  0
 23 14  1  0  0  0  0
 24 23  1  0  0  0  0
 26 31  1  0  0  0  0
 26  3  1  0  0  0  0
 27 26  2  0  0  0  0
 28 29  2  0  0  0  0
 28 27  1  0  0  0  0
 29 30  1  0  0  0  0
 30 31  2  0  0  0  0
 30 37  1  0  0  0  0
 32 27  1  0  0  0  0
 33 28  1  0  0  0  0
 34 29  1  0  0  0  0
 35 36  1  0  0  0  0
 36 37  2  0  0  0  0
 36 43  1  0  0  0  0
 37 38  1  0  0  0  0
 38 39  1  0  0  0  0
 38 40  2  0  0  0  0
 40 41  1  0  0  0  0
 42 40  1  0  0  0  0
 43 42  2  0  0  0  0
M  END
>  <minimizedAffinity>
-6.42506409

$$$$

 OpenBabel03252505093D

 43 46  0  0  1  0  0  0  0  0999 V2000
   37.9910   30.1790   37.7660 C   0  0  0  0  0  0  0  0  0  0  0  0
   36.7630   29.7890   37.1860 C   0  0  0  0  0  0  0  0  0  0  0  0
   35.9470   28.8720   37.9210 C   0  0  0  0  0  0  0  0  0  0  0  0
   36.3900   28.4280   39.1250 N   0  0  0  0  0  0  0  0  0  0  0  0
   37.5650   28.8280   39.6370 C   0  0  0  0  0  0  0  0  0  0  0  0
   38.3740   29.7040   38.9630 N   0  0  0  0  0  0  0  0  0  0  0  0
   38.6420   30.8690   37.2520 H   0  0  0  0  0  0  0  0  0  0  0  0
   36.4540   30.1730   36.2190 H   0  0  0  0  0  0  0  0  0  0  0  0
   37.9950   28.3010   40.9580 C   0  0  2  0  0  0  0  0  0  0  0  0
   38.2990   26.8450   40.7440 C   0  0  0  0  0  0  0  0  0  0  0  0
   37.2920   25.8840   41.2380 C   0  0  0  0  0  0  0  0  0  0  0  0
   37.1230   26.2170   42.7180 C   0  0  0  0  0  0  0  0  0  0  0  0
   36.5410   27.5300   42.9340 C   0  0  0  0  0  0  0  0  0  0  0  0
   37.0250   28.5800   41.9940 C   0  0  0  0  0  0  0  0  0  0  0  0
   38.9410   28.8480   41.1910 H   0  0  0  0  0  0  0  0  0  0  0  0
   39.2550   26.6220   41.2620 H   0  0  0  0  0  0  0  0  0  0  0  0
   38.5030   26.6080   39.6620 H   0  0  0  0  0  0  0  0  0  0  0  0
   36.3100   25.9840   40.7340 H   0  0  0  0  0  0  0  0  0  0  0  0
   37.6910   24.8750   41.1500 H   0  0  0  0  0  0  0  0  0  0  0  0
   38.1100   26.0850   43.2150 H   0  0  0  0  0  0  0  0  0  0  0  0
   36.3970   25.4820   43.0920 H   0  0  0  0  0  0  0  0  0  0  0  0
   35.8190   27.8980   43.6480 H   0  0  0  0  0  0  0  0  0  0  0  0
   36.5330   29.9240   42.0910 N   0  0  0  0  0  0  0  0  0  0  0  0
   35.5740   30.0460   41.6910 H   0  0  0  0  0  0  0  0  0  0  0  0
   37.1260   30.6410   42.5250 H   0  0  0  0  0  0  0  0  0  0  0  0
   34.6820   28.4530   37.3530 C   0  0  0  0  0  0  0  0  0  0  0  0
   34.5150   27.1500   37.0130 C   0  0  0  0  0  0  0  0  0  0  0  0
   33.2770   26.7950   36.4660 C   0  0  0  0  0  0  0  0  0  0  0  0
   32.3460   27.8000   36.3230 C   0  0  0  0  0  0  0  0  0  0  0  0
   32.5120   29.1080   36.6650 C   0  0  0  0  0  0  0  0  0  0  0  0
   33.7430   29.4030   37.1960 N   0  0  0  0  0  0  0  0  0  0  0  0
   35.2820   26.3930   37.1450 H   0  0  0  0  0  0  0  0  0  0  0  0
   33.0730   25.7670   36.1700 H   0  0  0  0  0  0  0  0  0  0  0  0
   31.4080   27.4900   35.8990 H   0  0  0  0  0  0  0  0  0  0  0  0
   30.9610   29.9230   38.8000 F   0  0  0  0  0  0  0  0  0  0  0  0
   30.7610   30.5330   37.5980 C   0  0  0  0  0  0  0  0  0  0  0  0
   31.5130   30.1580   36.5050 C   0  0  0  0  0  0  0  0  0  0  0  0
   31.3040   30.7800   35.2940 C   0  0  0  0  0  0  0  0  0  0  0  0
   31.8660   30.5200   34.4180 H   0  0  0  0  0  0  0  0  0  0  0  0
   30.3530   31.7890   35.1140 C   0  0  0  0  0  0  0  0  0  0  0  0
   30.2220   32.2500   34.1500 H   0  0  0  0  0  0  0  0  0  0  0  0
   29.6130   32.1500   36.2190 C   0  0  0  0  0  3  0  0  0  0  0  0
   29.8020   31.5420   37.4440 C   0  0  0  0  0  3  0  0  0  0  0  0
  1  6  1  0  0  0  0
  2  1  2  0  0  0  0
  2  3  1  0  0  0  0
  3  4  2  0  0  0  0
  4  5  1  0  0  0  0
  5  9  1  0  0  0  0
  6  5  2  0  0  0  0
  7  1  1  0  0  0  0
  8  2  1  0  0  0  0
  9 15  1  1  0  0  0
  9 14  1  0  0  0  0
 10  9  1  0  0  0  0
 10 11  1  0  0  0  0
 10 16  1  0  0  0  0
 11 12  1  0  0  0  0
 12 13  1  0  0  0  0
 12 21  1  0  0  0  0
 12 20  1  0  0  0  0
 13 22  1  0  0  0  0
 14 23  1  0  0  0  0
 14 13  2  0  0  0  0
 17 10  1  0  0  0  0
 18 11  1  0  0  0  0
 19 11  1  0  0  0  0
 23 25  1  0  0  0  0
 24 23  1  0  0  0  0
 26  3  1  0  0  0  0
 27 32  1  0  0  0  0
 27 26  2  0  0  0  0
 28 27  1  0  0  0  0
 29 28  2  0  0  0  0
 29 30  1  0  0  0  0
 30 31  2  0  0  0  0
 31 26  1  0  0  0  0
 33 28  1  0  0  0  0
 34 29  1  0  0  0  0
 36 35  1  0  0  0  0
 37 30  1  0  0  0  0
 37 36  2  0  0  0  0
 38 37  1  0  0  0  0
 39 38  1  0  0  0  0
 40 38  2  0  0  0  0
 40 42  1  0  0  0  0
 41 40  1  0  0  0  0
 42 43  2  0  0  0  0
 43 36  1  0  0  0  0
M  END
>  <minimizedAffinity>
-6.36631775

$$$$

 OpenBabel03252505093D

 43 46  0  0  1  0  0  0  0  0999 V2000
   35.8340   27.9980   37.2290 C   0  0  0  0  0  0  0  0  0  0  0  0
   36.2790   27.0270   38.1530 C   0  0  0  0  0  0  0  0  0  0  0  0
   36.9350   27.4930   39.3370 C   0  0  0  0  0  0  0  0  0  0  0  0
   37.0930   28.8310   39.5090 N   0  0  0  0  0  0  0  0  0  0  0  0
   36.6520   29.7170   38.6030 C   0  0  0  0  0  0  0  0  0  0  0  0
   36.0200   29.3090   37.4570 N   0  0  0  0  0  0  0  0  0  0  0  0
   35.3340   27.6990   36.3220 H   0  0  0  0  0  0  0  0  0  0  0  0
   36.1290   25.9690   37.9690 H   0  0  0  0  0  0  0  0  0  0  0  0
   36.8600   31.1680   38.8480 C   0  0  2  0  0  0  0  0  0  0  0  0
   38.1020   31.5410   38.0890 C   0  0  0  0  0  0  0  0  0  0  0  0
   39.3290   31.7300   38.8890 C   0  0  0  0  0  0  0  0  0  0  0  0
   38.9630   32.7830   39.9310 C   0  0  0  0  0  0  0  0  0  0  0  0
   37.9580   32.3160   40.8690 C   0  0  0  0  0  0  0  0  0  0  0  0
   36.8860   31.4790   40.2600 C   0  0  0  0  0  0  0  0  0  0  0  0
   35.9750   31.6670   38.3830 H   0  0  0  0  0  0  0  0  0  0  0  0
   37.8980   32.4960   37.5600 H   0  0  0  0  0  0  0  0  0  0  0  0
   38.3340   30.8080   37.2650 H   0  0  0  0  0  0  0  0  0  0  0  0
   39.6550   30.8080   39.4110 H   0  0  0  0  0  0  0  0  0  0  0  0
   40.1130   32.1300   38.2470 H   0  0  0  0  0  0  0  0  0  0  0  0
   38.6640   33.7100   39.3910 H   0  0  0  0  0  0  0  0  0  0  0  0
   39.8840   32.9460   40.5060 H   0  0  0  0  0  0  0  0  0  0  0  0
   37.8350   32.4560   41.9340 H   0  0  0  0  0  0  0  0  0  0  0  0
   35.8300   30.9480   41.0720 N   0  0  0  0  0  0  0  0  0  0  0  0
   36.1170   30.1180   41.6390 H   0  0  0  0  0  0  0  0  0  0  0  0
   34.9060   31.3970   41.0420 H   0  0  0  0  0  0  0  0  0  0  0  0
   37.4030   26.5220   40.3040 C   0  0  0  0  0  0  0  0  0  0  0  0
   36.6370   25.4310   40.5610 C   0  0  0  0  0  0  0  0  0  0  0  0
   37.1300   24.5240   41.5050 C   0  0  0  0  0  0  0  0  0  0  0  0
   38.3440   24.8230   42.0860 C   0  0  0  0  0  0  0  0  0  0  0  0
   39.1120   25.9170   41.8280 C   0  0  0  0  0  0  0  0  0  0  0  0
   38.5840   26.7740   40.8960 N   0  0  0  0  0  0  0  0  0  0  0  0
   35.6850   25.2390   40.0760 H   0  0  0  0  0  0  0  0  0  0  0  0
   36.5690   23.6250   41.7610 H   0  0  0  0  0  0  0  0  0  0  0  0
   38.6890   24.1030   42.8060 H   0  0  0  0  0  0  0  0  0  0  0  0
   39.5400   28.3330   43.0960 F   0  0  0  0  0  0  0  0  0  0  0  0
   40.5640   27.4340   43.0760 C   0  0  0  0  0  0  0  0  0  0  0  0
   40.3950   26.2160   42.4540 C   0  0  0  0  0  0  0  0  0  0  0  0
   41.4350   25.3130   42.4390 C   0  0  0  0  0  0  0  0  0  0  0  0
   41.3470   24.3530   41.9670 H   0  0  0  0  0  0  0  0  0  0  0  0
   42.6740   25.5730   43.0320 C   0  0  0  0  0  0  0  0  0  0  0  0
   43.4610   24.8400   42.9970 H   0  0  0  0  0  0  0  0  0  0  0  0
   42.8230   26.7970   43.6480 C   0  0  0  0  0  3  0  0  0  0  0  0
   41.7970   27.7190   43.6780 C   0  0  0  0  0  3  0  0  0  0  0  0
  1  6  2  0  0  0  0
  1  2  1  0  0  0  0
  2  3  2  0  0  0  0
  3  4  1  0  0  0  0
  3 26  1  0  0  0  0
  5  9  1  0  0  0  0
  5  4  2  0  0  0  0
  6  5  1  0  0  0  0
  7  1  1  0  0  0  0
  8  2  1  0  0  0  0
  9 15  1  6  0  0  0
  9 14  1  0  0  0  0
 10  9  1  0  0  0  0
 10 11  1  0  0  0  0
 11 18  1  0  0  0  0
 11 12  1  0  0  0  0
 12 21  1  0  0  0  0
 12 13  1  0  0  0  0
 13 22  1  0  0  0  0
 14 13  2  0  0  0  0
 14 23  1  0  0  0  0
 16 10  1  0  0  0  0
 17 10  1  0  0  0  0
 19 11  1  0  0  0  0
 20 12  1  0  0  0  0
 23 24  1  0  0  0  0
 25 23  1  0  0  0  0
 26 27  2  0  0  0  0
 26 31  1  0  0  0  0
 27 28  1  0  0  0  0
 28 33  1  0  0  0  0
 28 29  2  0  0  0  0
 29 34  1  0  0  0  0
 30 29  1  0  0  0  0
 30 37  1  0  0  0  0
 31 30  2  0  0  0  0
 32 27  1  0  0  0  0
 36 35  1  0  0  0  0
 36 43  1  0  0  0  0
 37 36  2  0  0  0  0
 38 37  1  0  0  0  0
 38 40  2  0  0  0  0
 39 38  1  0  0  0  0
 40 42  1  0  0  0  0
 41 40  1  0  0  0  0
 42 43  2  0  0  0  0
M  END
>  <minimizedAffinity>
-6.26882076

$$$$

 OpenBabel03252505093D

 43 46  0  0  1  0  0  0  0  0999 V2000
   38.3800   27.5480   36.1140 C   0  0  0  0  0  0  0  0  0  0  0  0
   37.0050   27.3130   35.8860 C   0  0  0  0  0  0  0  0  0  0  0  0
   36.0700   28.1650   36.5560 C   0  0  0  0  0  0  0  0  0  0  0  0
   36.5470   29.1440   37.3670 N   0  0  0  0  0  0  0  0  0  0  0  0
   37.8630   29.3290   37.5530 C   0  0  0  0  0  0  0  0  0  0  0  0
   38.7890   28.5340   36.9300 N   0  0  0  0  0  0  0  0  0  0  0  0
   39.1240   26.9340   35.6330 H   0  0  0  0  0  0  0  0  0  0  0  0
   36.6750   26.5170   35.2280 H   0  0  0  0  0  0  0  0  0  0  0  0
   38.3200   30.4150   38.4580 C   0  0  2  0  0  0  0  0  0  0  0  0
   37.8260   30.0470   39.8290 C   0  0  0  0  0  0  0  0  0  0  0  0
   36.6530   30.7930   40.3270 C   0  0  0  0  0  0  0  0  0  0  0  0
   37.0570   32.2630   40.2460 C   0  0  0  0  0  0  0  0  0  0  0  0
   37.2510   32.7150   38.8790 C   0  0  0  0  0  0  0  0  0  0  0  0
   37.9100   31.7200   37.9880 C   0  0  0  0  0  0  0  0  0  0  0  0
   39.4360   30.3560   38.4370 H   0  0  0  0  0  0  0  0  0  0  0  0
   38.6590   30.2180   40.5430 H   0  0  0  0  0  0  0  0  0  0  0  0
   37.6010   28.9460   39.9180 H   0  0  0  0  0  0  0  0  0  0  0  0
   35.7440   30.6380   39.7120 H   0  0  0  0  0  0  0  0  0  0  0  0
   36.4850   30.5340   41.3710 H   0  0  0  0  0  0  0  0  0  0  0  0
   37.9540   32.4080   40.8890 H   0  0  0  0  0  0  0  0  0  0  0  0
   36.1970   32.8160   40.6450 H   0  0  0  0  0  0  0  0  0  0  0  0
   37.0070   33.6410   38.3770 H   0  0  0  0  0  0  0  0  0  0  0  0
   38.1620   32.0330   36.6110 N   0  0  0  0  0  0  0  0  0  0  0  0
   37.3110   31.9690   36.0070 H   0  0  0  0  0  0  0  0  0  0  0  0
   39.1150   32.2860   36.3240 H   0  0  0  0  0  0  0  0  0  0  0  0
   34.6530   27.9510   36.3420 C   0  0  0  0  0  0  0  0  0  0  0  0
   34.1840   26.6790   36.2810 C   0  0  0  0  0  0  0  0  0  0  0  0
   32.8100   26.5230   36.0700 C   0  0  0  0  0  0  0  0  0  0  0  0
   32.0630   27.6740   35.9430 C   0  0  0  0  0  0  0  0  0  0  0  0
   32.5330   28.9510   36.0040 C   0  0  0  0  0  0  0  0  0  0  0  0
   33.8860   29.0480   36.2120 N   0  0  0  0  0  0  0  0  0  0  0  0
   34.8150   25.8010   36.3870 H   0  0  0  0  0  0  0  0  0  0  0  0
   32.3640   25.5310   36.0100 H   0  0  0  0  0  0  0  0  0  0  0  0
   31.0120   27.5150   35.7810 H   0  0  0  0  0  0  0  0  0  0  0  0
   31.1050   29.9510   38.1470 F   0  0  0  0  0  0  0  0  0  0  0  0
   31.0290   30.6210   36.9620 C   0  0  0  0  0  0  0  0  0  0  0  0
   31.7250   30.1570   35.8670 C   0  0  0  0  0  0  0  0  0  0  0  0
   31.6430   30.8400   34.6730 C   0  0  0  0  0  0  0  0  0  0  0  0
   32.1680   30.5160   33.7950 H   0  0  0  0  0  0  0  0  0  0  0  0
   30.8770   31.9990   34.5140 C   0  0  0  0  0  0  0  0  0  0  0  0
   30.8400   32.5030   33.5640 H   0  0  0  0  0  0  0  0  0  0  0  0
   30.1890   32.4460   35.6220 C   0  0  0  0  0  3  0  0  0  0  0  0
   30.2540   31.7800   36.8290 C   0  0  0  0  0  3  0  0  0  0  0  0
  1  6  1  0  0  0  0
  2  1  2  0  0  0  0
  2  3  1  0  0  0  0
  3  4  2  0  0  0  0
  4  5  1  0  0  0  0
  5  9  1  0  0  0  0
  6  5  2  0  0  0  0
  7  1  1  0  0  0  0
  8  2  1  0  0  0  0
  9 15  1  1  0  0  0
  9 10  1  0  0  0  0
 10 17  1  0  0  0  0
 10 11  1  0  0  0  0
 10 16  1  0  0  0  0
 11 19  1  0  0  0  0
 12 11  1  0  0  0  0
 12 21  1  0  0  0  0
 12 20  1  0  0  0  0
 13 12  1  0  0  0  0
 14  9  1  0  0  0  0
 14 13  2  0  0  0  0
 18 11  1  0  0  0  0
 22 13  1  0  0  0  0
 23 14  1  0  0  0  0
 24 23  1  0  0  0  0
 25 23  1  0  0  0  0
 26  3  1  0  0  0  0
 27 26  1  0  0  0  0
 27 32  1  0  0  0  0
 28 27  2  0  0  0  0
 29 30  2  0  0  0  0
 29 28  1  0  0  0  0
 30 31  1  0  0  0  0
 31 26  2  0  0  0  0
 33 28  1  0  0  0  0
 34 29  1  0  0  0  0
 36 35  1  0  0  0  0
 37 30  1  0  0  0  0
 37 36  2  0  0  0  0
 38 37  1  0  0  0  0
 39 38  1  0  0  0  0
 40 38  2  0  0  0  0
 40 42  1  0  0  0  0
 41 40  1  0  0  0  0
 42 43  2  0  0  0  0
 43 36  1  0  0  0  0
M  END
>  <minimizedAffinity>
-6.22316837

$$$$
