
 OpenBabel03242522043D

 35 37  0  0  1  0  0  0  0  0999 V2000
   38.9910   30.7990   39.3090 N   0  0  0  0  0  0  0  0  0  0  0  0
   40.1810   30.8500   38.4960 C   0  0  0  0  0  0  0  0  0  0  0  0
   40.1340   31.9900   37.5120 C   0  0  0  0  0  0  0  0  0  0  0  0
   38.9530   32.0440   36.7450 N   0  0  0  0  0  0  0  0  0  0  0  0
   37.7450   31.6740   37.3810 C   0  0  2  0  0  0  0  0  0  0  0  0
   37.7860   31.4140   38.8390 C   0  0  0  0  0  0  0  0  0  0  0  0
   41.1210   30.8950   39.0720 H   0  0  0  0  0  0  0  0  0  0  0  0
   40.1820   29.9060   37.9010 H   0  0  0  0  0  0  0  0  0  0  0  0
   41.0030   31.8230   36.8110 H   0  0  0  0  0  0  0  0  0  0  0  0
   40.4100   32.9410   38.0320 H   0  0  0  0  0  0  0  0  0  0  0  0
   38.9080   32.9770   36.2750 H   0  0  0  0  0  0  0  0  0  0  0  0
   37.0050   32.4850   37.2030 H   0  0  0  0  0  0  0  0  0  0  0  0
   36.9330   30.7620   39.1270 H   0  0  0  0  0  0  0  0  0  0  0  0
   37.6350   32.3630   39.4270 H   0  0  0  0  0  0  0  0  0  0  0  0
   39.2600   30.0360   42.9730 C   0  0  0  0  0  0  0  0  0  0  0  0
   39.2850   30.7830   41.7870 C   0  0  0  0  0  0  0  0  0  0  0  0
   38.9970   30.1460   40.5670 C   0  0  0  0  0  0  0  0  0  0  0  0
   38.7080   28.8230   40.6390 N   0  0  0  0  0  0  0  0  0  0  0  0
   38.6940   28.1320   41.8020 C   0  0  0  0  0  0  0  0  0  0  0  0
   38.9690   28.7370   42.9670 N   0  0  0  0  0  0  0  0  0  0  0  0
   39.4900   30.5630   43.8970 H   0  0  0  0  0  0  0  0  0  0  0  0
   39.5130   31.8250   41.7400 H   0  0  0  0  0  0  0  0  0  0  0  0
   36.3150   27.0640   42.9000 F   0  0  0  0  0  0  0  0  0  0  0  0
   37.2040   26.2350   42.3140 C   0  0  0  0  0  0  0  0  0  0  0  0
   38.3710   26.7070   41.7680 C   0  0  0  0  0  0  0  0  0  0  0  0
   39.3030   25.8610   41.1580 C   0  0  0  0  0  0  0  0  0  0  0  0
   40.2160   26.2320   40.7310 H   0  0  0  0  0  0  0  0  0  0  0  0
   39.0730   24.5040   41.0850 C   0  0  0  0  0  0  0  0  0  0  0  0
   39.7820   23.8360   40.6170 H   0  0  0  0  0  0  0  0  0  0  0  0
   37.8810   24.0470   41.6460 C   0  0  0  0  0  3  0  0  0  0  0  0
   36.9670   24.8890   42.2470 C   0  0  0  0  0  3  0  0  0  0  0  0
   37.2050   30.4330   36.7080 C   0  0  0  0  0  0  0  0  0  0  0  0
   36.7590   30.7520   35.4230 F   0  0  0  0  0  0  0  0  0  0  0  0
   36.0780   30.0700   37.4160 F   0  0  0  0  0  0  0  0  0  0  0  0
   38.1280   29.4320   36.6100 F   0  0  0  0  0  0  0  0  0  0  0  0
  1 17  1  0  0  0  0
  2  7  1  0  0  0  0
  2  1  1  0  0  0  0
  3 10  1  0  0  0  0
  3  2  1  0  0  0  0
  4  5  1  0  0  0  0
  4  3  1  0  0  0  0
  5 12  1  6  0  0  0
  5  6  1  0  0  0  0
  6 13  1  0  0  0  0
  6  1  1  0  0  0  0
  6 14  1  0  0  0  0
  8  2  1  0  0  0  0
  9  3  1  0  0  0  0
 11  4  1  0  0  0  0
 15 21  1  0  0  0  0
 16 15  2  0  0  0  0
 17 18  2  0  0  0  0
 17 16  1  0  0  0  0
 18 19  1  0  0  0  0
 19 20  2  0  0  0  0
 20 15  1  0  0  0  0
 22 16  1  0  0  0  0
 24 23  1  0  0  0  0
 25 19  1  0  0  0  0
 25 24  2  0  0  0  0
 26 25  1  0  0  0  0
 27 26  1  0  0  0  0
 28 26  2  0  0  0  0
 28 30  1  0  0  0  0
 29 28  1  0  0  0  0
 30 31  2  0  0  0  0
 31 24  1  0  0  0  0
 32  5  1  0  0  0  0
 32 34  1  0  0  0  0
 33 32  1  0  0  0  0
 35 32  1  0  0  0  0
M  END
>  <minimizedAffinity>
-5.93517447

$$$$

 OpenBabel03242522043D

 35 37  0  0  1  0  0  0  0  0999 V2000
   39.1530   30.7710   39.3160 N   0  0  0  0  0  0  0  0  0  0  0  0
   38.0270   31.4980   38.7860 C   0  0  0  0  0  0  0  0  0  0  0  0
   38.1310   31.6780   37.2940 C   0  0  0  0  0  0  0  0  0  0  0  0
   39.3650   32.2010   36.8590 N   0  0  0  0  0  0  0  0  0  0  0  0
   40.5280   31.7960   37.5560 C   0  0  2  0  0  0  0  0  0  0  0  0
   40.3820   30.7350   38.5800 C   0  0  0  0  0  0  0  0  0  0  0  0
   37.0460   31.0610   39.0400 H   0  0  0  0  0  0  0  0  0  0  0  0
   38.0820   32.5160   39.2410 H   0  0  0  0  0  0  0  0  0  0  0  0
   37.3190   32.4110   37.0170 H   0  0  0  0  0  0  0  0  0  0  0  0
   37.8050   30.7370   36.7830 H   0  0  0  0  0  0  0  0  0  0  0  0
   39.4320   32.0700   35.8240 H   0  0  0  0  0  0  0  0  0  0  0  0
   41.2680   31.4430   36.8050 H   0  0  0  0  0  0  0  0  0  0  0  0
   41.2190   30.8000   39.3070 H   0  0  0  0  0  0  0  0  0  0  0  0
   40.4760   29.7110   38.1220 H   0  0  0  0  0  0  0  0  0  0  0  0
   39.1460   29.9310   42.9730 C   0  0  0  0  0  0  0  0  0  0  0  0
   39.2610   30.7030   41.8080 C   0  0  0  0  0  0  0  0  0  0  0  0
   39.0640   30.0920   40.5560 C   0  0  0  0  0  0  0  0  0  0  0  0
   38.7690   28.7690   40.5790 N   0  0  0  0  0  0  0  0  0  0  0  0
   38.6670   28.0540   41.7230 C   0  0  0  0  0  0  0  0  0  0  0  0
   38.8540   28.6340   42.9170 N   0  0  0  0  0  0  0  0  0  0  0  0
   39.3060   30.4390   43.9230 H   0  0  0  0  0  0  0  0  0  0  0  0
   39.4920   31.7460   41.8000 H   0  0  0  0  0  0  0  0  0  0  0  0
   36.3820   26.9110   42.9390 F   0  0  0  0  0  0  0  0  0  0  0  0
   37.2250   26.1220   42.2410 C   0  0  0  0  0  0  0  0  0  0  0  0
   38.3460   26.6310   41.6350 C   0  0  0  0  0  0  0  0  0  0  0  0
   39.2310   25.8270   40.9090 C   0  0  0  0  0  0  0  0  0  0  0  0
   40.1070   26.2260   40.4360 H   0  0  0  0  0  0  0  0  0  0  0  0
   38.9990   24.4730   40.7800 C   0  0  0  0  0  0  0  0  0  0  0  0
   39.6720   23.8370   40.2230 H   0  0  0  0  0  0  0  0  0  0  0  0
   37.8550   23.9790   41.4040 C   0  0  0  0  0  3  0  0  0  0  0  0
   36.9880   24.7800   42.1180 C   0  0  0  0  0  3  0  0  0  0  0  0
   41.1330   33.0070   38.2300 C   0  0  0  0  0  0  0  0  0  0  0  0
   41.7600   33.8110   37.2760 F   0  0  0  0  0  0  0  0  0  0  0  0
   42.1420   32.5310   39.0410 F   0  0  0  0  0  0  0  0  0  0  0  0
   40.2130   33.7630   38.8980 F   0  0  0  0  0  0  0  0  0  0  0  0
  1 17  1  0  0  0  0
  2  7  1  0  0  0  0
  2  8  1  0  0  0  0
  2  1  1  0  0  0  0
  3  2  1  0  0  0  0
  4  3  1  0  0  0  0
  4  5  1  0  0  0  0
  5 12  1  6  0  0  0
  5 32  1  0  0  0  0
  5  6  1  0  0  0  0
  6 13  1  0  0  0  0
  6  1  1  0  0  0  0
  9  3  1  0  0  0  0
 10  3  1  0  0  0  0
 11  4  1  0  0  0  0
 14  6  1  0  0  0  0
 15 21  1  0  0  0  0
 16 15  2  0  0  0  0
 17 18  2  0  0  0  0
 17 16  1  0  0  0  0
 18 19  1  0  0  0  0
 19 20  2  0  0  0  0
 20 15  1  0  0  0  0
 22 16  1  0  0  0  0
 24 23  1  0  0  0  0
 25 19  1  0  0  0  0
 25 24  2  0  0  0  0
 26 25  1  0  0  0  0
 27 26  1  0  0  0  0
 28 26  2  0  0  0  0
 28 30  1  0  0  0  0
 29 28  1  0  0  0  0
 30 31  2  0  0  0  0
 31 24  1  0  0  0  0
 32 35  1  0  0  0  0
 32 34  1  0  0  0  0
 33 32  1  0  0  0  0
M  END
>  <minimizedAffinity>
-5.92134523

$$$$

 OpenBabel03242522043D

 35 37  0  0  1  0  0  0  0  0999 V2000
   38.7820   30.2220   40.7100 N   0  0  0  0  0  0  0  0  0  0  0  0
   39.4230   29.9100   39.4580 C   0  0  0  0  0  0  0  0  0  0  0  0
   40.3030   31.0380   38.9850 C   0  0  0  0  0  0  0  0  0  0  0  0
   39.6710   32.2970   38.9690 N   0  0  0  0  0  0  0  0  0  0  0  0
   38.7420   32.5740   40.0000 C   0  0  2  0  0  0  0  0  0  0  0  0
   38.6240   31.5910   41.1020 C   0  0  0  0  0  0  0  0  0  0  0  0
   39.9980   28.9680   39.4660 H   0  0  0  0  0  0  0  0  0  0  0  0
   38.5980   29.8060   38.7130 H   0  0  0  0  0  0  0  0  0  0  0  0
   40.5940   30.7740   37.9270 H   0  0  0  0  0  0  0  0  0  0  0  0
   41.2790   31.0000   39.5310 H   0  0  0  0  0  0  0  0  0  0  0  0
   40.4060   33.0330   38.8610 H   0  0  0  0  0  0  0  0  0  0  0  0
   39.0150   33.5540   40.4480 H   0  0  0  0  0  0  0  0  0  0  0  0
   37.6320   31.6960   41.5910 H   0  0  0  0  0  0  0  0  0  0  0  0
   39.3710   31.8020   41.9180 H   0  0  0  0  0  0  0  0  0  0  0  0
   37.5690   28.2700   43.6770 C   0  0  0  0  0  0  0  0  0  0  0  0
   38.0420   29.3600   42.9320 C   0  0  0  0  0  0  0  0  0  0  0  0
   38.3030   29.1940   41.5600 C   0  0  0  0  0  0  0  0  0  0  0  0
   38.0680   27.9580   41.0540 N   0  0  0  0  0  0  0  0  0  0  0  0
   37.6110   26.9280   41.8020 C   0  0  0  0  0  0  0  0  0  0  0  0
   37.3620   27.0830   43.1100 N   0  0  0  0  0  0  0  0  0  0  0  0
   37.3800   28.4360   44.7350 H   0  0  0  0  0  0  0  0  0  0  0  0
   38.2240   30.3300   43.3390 H   0  0  0  0  0  0  0  0  0  0  0  0
   36.0180   26.6120   39.4850 F   0  0  0  0  0  0  0  0  0  0  0  0
   36.6110   25.5310   40.0340 C   0  0  0  0  0  0  0  0  0  0  0  0
   37.3920   25.6350   41.1570 C   0  0  0  0  0  0  0  0  0  0  0  0
   38.0130   24.5250   41.7380 C   0  0  0  0  0  0  0  0  0  0  0  0
   38.6230   24.6080   42.6170 H   0  0  0  0  0  0  0  0  0  0  0  0
   37.8550   23.2690   41.1900 C   0  0  0  0  0  0  0  0  0  0  0  0
   38.3280   22.4000   41.6270 H   0  0  0  0  0  0  0  0  0  0  0  0
   37.0580   23.1870   40.0500 C   0  0  0  0  0  3  0  0  0  0  0  0
   36.4490   24.2890   39.4830 C   0  0  0  0  0  3  0  0  0  0  0  0
   37.3720   32.7410   39.3830 C   0  0  0  0  0  0  0  0  0  0  0  0
   36.4530   31.9280   40.0520 F   0  0  0  0  0  0  0  0  0  0  0  0
   37.4610   32.2330   38.1040 F   0  0  0  0  0  0  0  0  0  0  0  0
   36.9210   34.0280   39.4230 F   0  0  0  0  0  0  0  0  0  0  0  0
  1  6  1  0  0  0  0
  1 17  1  0  0  0  0
  2  7  1  0  0  0  0
  2  1  1  0  0  0  0
  3  2  1  0  0  0  0
  3 10  1  0  0  0  0
  4  3  1  0  0  0  0
  4  5  1  0  0  0  0
  5 12  1  1  0  0  0
  5  6  1  0  0  0  0
  6 13  1  0  0  0  0
  6 14  1  0  0  0  0
  8  2  1  0  0  0  0
  9  3  1  0  0  0  0
 11  4  1  0  0  0  0
 15 21  1  0  0  0  0
 16 22  1  0  0  0  0
 16 15  2  0  0  0  0
 17 16  1  0  0  0  0
 18 17  2  0  0  0  0
 18 19  1  0  0  0  0
 19 20  2  0  0  0  0
 20 15  1  0  0  0  0
 23 24  1  0  0  0  0
 24 25  1  0  0  0  0
 25 26  2  0  0  0  0
 25 19  1  0  0  0  0
 26 27  1  0  0  0  0
 28 29  1  0  0  0  0
 28 26  1  0  0  0  0
 30 28  2  0  0  0  0
 31 24  2  0  0  0  0
 31 30  1  0  0  0  0
 32 35  1  0  0  0  0
 32  5  1  0  0  0  0
 32 33  1  0  0  0  0
 34 32  1  0  0  0  0
M  END
>  <minimizedAffinity>
-5.89071894

$$$$

 OpenBabel03242522043D

 35 37  0  0  1  0  0  0  0  0999 V2000
   38.7040   30.1020   40.7490 N   0  0  0  0  0  0  0  0  0  0  0  0
   39.4170   29.7780   39.5380 C   0  0  0  0  0  0  0  0  0  0  0  0
   40.2930   30.9170   39.0850 C   0  0  0  0  0  0  0  0  0  0  0  0
   39.6330   32.1600   39.0080 N   0  0  0  0  0  0  0  0  0  0  0  0
   38.6460   32.4360   39.9840 C   0  0  2  0  0  0  0  0  0  0  0  0
   38.4950   31.4740   41.1010 C   0  0  0  0  0  0  0  0  0  0  0  0
   40.0120   28.8520   39.5970 H   0  0  0  0  0  0  0  0  0  0  0  0
   38.6340   29.6390   38.7540 H   0  0  0  0  0  0  0  0  0  0  0  0
   40.6440   30.6380   38.0490 H   0  0  0  0  0  0  0  0  0  0  0  0
   41.2410   30.9150   39.6800 H   0  0  0  0  0  0  0  0  0  0  0  0
   40.3550   32.9110   38.9210 H   0  0  0  0  0  0  0  0  0  0  0  0
   38.8730   33.4320   40.4230 H   0  0  0  0  0  0  0  0  0  0  0  0
   37.4770   31.5660   41.5360 H   0  0  0  0  0  0  0  0  0  0  0  0
   39.1940   31.7210   41.9490 H   0  0  0  0  0  0  0  0  0  0  0  0
   37.3240   28.1990   43.6740 C   0  0  0  0  0  0  0  0  0  0  0  0
   37.8020   29.2860   42.9280 C   0  0  0  0  0  0  0  0  0  0  0  0
   38.2070   29.0810   41.5960 C   0  0  0  0  0  0  0  0  0  0  0  0
   38.0980   27.8130   41.1290 N   0  0  0  0  0  0  0  0  0  0  0  0
   37.6320   26.7870   41.8770 C   0  0  0  0  0  0  0  0  0  0  0  0
   37.2460   26.9790   43.1470 N   0  0  0  0  0  0  0  0  0  0  0  0
   37.0210   28.3960   44.7000 H   0  0  0  0  0  0  0  0  0  0  0  0
   37.8830   30.2820   43.3040 H   0  0  0  0  0  0  0  0  0  0  0  0
   39.3590   24.6660   42.6040 F   0  0  0  0  0  0  0  0  0  0  0  0
   38.4150   24.4590   41.6610 C   0  0  0  0  0  0  0  0  0  0  0  0
   37.5570   25.4570   41.2760 C   0  0  0  0  0  0  0  0  0  0  0  0
   36.5750   25.2590   40.3000 C   0  0  0  0  0  0  0  0  0  0  0  0
   35.9040   26.0410   39.9990 H   0  0  0  0  0  0  0  0  0  0  0  0
   36.4380   24.0330   39.6840 C   0  0  0  0  0  0  0  0  0  0  0  0
   35.6840   23.8620   38.9280 H   0  0  0  0  0  0  0  0  0  0  0  0
   37.3210   23.0340   40.0910 C   0  0  0  0  0  3  0  0  0  0  0  0
   38.2880   23.2390   41.0550 C   0  0  0  0  0  3  0  0  0  0  0  0
   37.3060   32.5560   39.2950 C   0  0  0  0  0  0  0  0  0  0  0  0
   37.4520   32.2860   37.9320 F   0  0  0  0  0  0  0  0  0  0  0  0
   36.9500   33.8860   39.3770 F   0  0  0  0  0  0  0  0  0  0  0  0
   36.3640   31.7110   39.8060 F   0  0  0  0  0  0  0  0  0  0  0  0
  1  6  1  0  0  0  0
  1 17  1  0  0  0  0
  2  7  1  0  0  0  0
  2  1  1  0  0  0  0
  3  2  1  0  0  0  0
  3 10  1  0  0  0  0
  4  3  1  0  0  0  0
  4  5  1  0  0  0  0
  5 12  1  1  0  0  0
  5  6  1  0  0  0  0
  6 13  1  0  0  0  0
  6 14  1  0  0  0  0
  8  2  1  0  0  0  0
  9  3  1  0  0  0  0
 11  4  1  0  0  0  0
 15 21  1  0  0  0  0
 16 22  1  0  0  0  0
 16 15  2  0  0  0  0
 17 16  1  0  0  0  0
 18 17  2  0  0  0  0
 18 19  1  0  0  0  0
 19 20  2  0  0  0  0
 20 15  1  0  0  0  0
 24 23  1  0  0  0  0
 25 24  1  0  0  0  0
 25 19  1  0  0  0  0
 26 25  2  0  0  0  0
 27 26  1  0  0  0  0
 28 30  2  0  0  0  0
 28 26  1  0  0  0  0
 29 28  1  0  0  0  0
 30 31  1  0  0  0  0
 31 24  2  0  0  0  0
 32 34  1  0  0  0  0
 32 35  1  0  0  0  0
 32  5  1  0  0  0  0
 33 32  1  0  0  0  0
M  END
>  <minimizedAffinity>
-5.81519985

$$$$

 OpenBabel03242522043D

 35 37  0  0  1  0  0  0  0  0999 V2000
   40.4540   31.7460   40.7630 N   0  0  0  0  0  0  0  0  0  0  0  0
   41.0850   31.9270   39.4790 C   0  0  0  0  0  0  0  0  0  0  0  0
   41.1290   33.3790   39.0800 C   0  0  0  0  0  0  0  0  0  0  0  0
   39.8890   34.0410   39.1700 N   0  0  0  0  0  0  0  0  0  0  0  0
   39.0310   33.6780   40.2350 C   0  0  2  0  0  0  0  0  0  0  0  0
   39.5630   32.7500   41.2610 C   0  0  0  0  0  0  0  0  0  0  0  0
   42.0960   31.4910   39.4070 H   0  0  0  0  0  0  0  0  0  0  0  0
   40.4280   31.4060   38.7430 H   0  0  0  0  0  0  0  0  0  0  0  0
   41.4570   33.3880   37.9990 H   0  0  0  0  0  0  0  0  0  0  0  0
   41.9800   33.8830   39.6040 H   0  0  0  0  0  0  0  0  0  0  0  0
   40.0600   35.0710   39.1060 H   0  0  0  0  0  0  0  0  0  0  0  0
   38.7170   34.6110   40.7520 H   0  0  0  0  0  0  0  0  0  0  0  0
   38.7210   32.2380   41.7730 H   0  0  0  0  0  0  0  0  0  0  0  0
   40.0990   33.3100   42.0780 H   0  0  0  0  0  0  0  0  0  0  0  0
   42.0460   29.1460   42.9520 C   0  0  0  0  0  0  0  0  0  0  0  0
   41.9120   30.3290   42.2100 C   0  0  0  0  0  0  0  0  0  0  0  0
   40.7030   30.5870   41.5400 C   0  0  0  0  0  0  0  0  0  0  0  0
   39.7370   29.6440   41.6690 N   0  0  0  0  0  0  0  0  0  0  0  0
   39.9010   28.5140   42.3930 C   0  0  0  0  0  0  0  0  0  0  0  0
   41.0520   28.2650   43.0330 N   0  0  0  0  0  0  0  0  0  0  0  0
   42.9960   28.9810   43.4560 H   0  0  0  0  0  0  0  0  0  0  0  0
   42.6790   31.0660   42.1140 H   0  0  0  0  0  0  0  0  0  0  0  0
   37.4480   29.0950   43.6800 F   0  0  0  0  0  0  0  0  0  0  0  0
   37.6230   27.8880   43.1020 C   0  0  0  0  0  0  0  0  0  0  0  0
   38.7940   27.5610   42.4670 C   0  0  0  0  0  0  0  0  0  0  0  0
   38.9920   26.3140   41.8640 C   0  0  0  0  0  0  0  0  0  0  0  0
   39.9080   26.0600   41.3680 H   0  0  0  0  0  0  0  0  0  0  0  0
   37.9970   25.3600   41.8900 C   0  0  0  0  0  0  0  0  0  0  0  0
   38.1320   24.3920   41.4280 H   0  0  0  0  0  0  0  0  0  0  0  0
   36.8160   25.7150   42.5400 C   0  0  0  0  0  3  0  0  0  0  0  0
   36.6300   26.9470   43.1330 C   0  0  0  0  0  3  0  0  0  0  0  0
   37.7800   33.0560   39.6560 C   0  0  0  0  0  0  0  0  0  0  0  0
   36.8760   34.0610   39.3040 F   0  0  0  0  0  0  0  0  0  0  0  0
   37.1840   32.3610   40.6870 F   0  0  0  0  0  0  0  0  0  0  0  0
   38.0250   32.2870   38.5560 F   0  0  0  0  0  0  0  0  0  0  0  0
  1  6  1  0  0  0  0
  1 17  1  0  0  0  0
  2  1  1  0  0  0  0
  3  4  1  0  0  0  0
  3  2  1  0  0  0  0
  3 10  1  0  0  0  0
  4  5  1  0  0  0  0
  5 12  1  1  0  0  0
  5  6  1  0  0  0  0
  6 13  1  0  0  0  0
  6 14  1  0  0  0  0
  7  2  1  0  0  0  0
  8  2  1  0  0  0  0
  9  3  1  0  0  0  0
 11  4  1  0  0  0  0
 15 20  1  0  0  0  0
 15 21  1  0  0  0  0
 16 15  2  0  0  0  0
 17 18  2  0  0  0  0
 17 16  1  0  0  0  0
 18 19  1  0  0  0  0
 19 25  1  0  0  0  0
 19 20  2  0  0  0  0
 22 16  1  0  0  0  0
 24 31  1  0  0  0  0
 24 23  1  0  0  0  0
 25 24  2  0  0  0  0
 26 28  2  0  0  0  0
 26 25  1  0  0  0  0
 27 26  1  0  0  0  0
 28 30  1  0  0  0  0
 29 28  1  0  0  0  0
 30 31  2  0  0  0  0
 32  5  1  0  0  0  0
 32 34  1  0  0  0  0
 33 32  1  0  0  0  0
 35 32  1  0  0  0  0
M  END
>  <minimizedAffinity>
-5.77188635

$$$$

 OpenBabel03242522043D

 35 37  0  0  1  0  0  0  0  0999 V2000
   38.0620   30.5870   38.7370 N   0  0  0  0  0  0  0  0  0  0  0  0
   37.3600   31.6180   38.0140 C   0  0  0  0  0  0  0  0  0  0  0  0
   38.0640   31.9770   36.7310 C   0  0  0  0  0  0  0  0  0  0  0  0
   39.4360   32.2620   36.8840 N   0  0  0  0  0  0  0  0  0  0  0  0
   40.1560   31.5100   37.8410 C   0  0  2  0  0  0  0  0  0  0  0  0
   39.4570   30.3760   38.4920 C   0  0  0  0  0  0  0  0  0  0  0  0
   36.3030   31.3850   37.8040 H   0  0  0  0  0  0  0  0  0  0  0  0
   37.3940   32.5230   38.6670 H   0  0  0  0  0  0  0  0  0  0  0  0
   37.5490   32.9080   36.3510 H   0  0  0  0  0  0  0  0  0  0  0  0
   37.8180   31.2170   35.9470 H   0  0  0  0  0  0  0  0  0  0  0  0
   39.8790   32.2660   35.9370 H   0  0  0  0  0  0  0  0  0  0  0  0
   41.0640   31.1060   37.3420 H   0  0  0  0  0  0  0  0  0  0  0  0
   39.9450   30.1460   39.4640 H   0  0  0  0  0  0  0  0  0  0  0  0
   39.5600   29.4320   37.8870 H   0  0  0  0  0  0  0  0  0  0  0  0
   35.4490   28.9830   40.9010 C   0  0  0  0  0  0  0  0  0  0  0  0
   36.0070   29.8330   39.9350 C   0  0  0  0  0  0  0  0  0  0  0  0
   37.3900   29.7790   39.6870 C   0  0  0  0  0  0  0  0  0  0  0  0
   38.0930   28.8830   40.4240 N   0  0  0  0  0  0  0  0  0  0  0  0
   37.5220   28.0780   41.3490 C   0  0  0  0  0  0  0  0  0  0  0  0
   36.2030   28.1270   41.5870 N   0  0  0  0  0  0  0  0  0  0  0  0
   34.3760   29.0550   41.0660 H   0  0  0  0  0  0  0  0  0  0  0  0
   35.4460   30.5360   39.3590 H   0  0  0  0  0  0  0  0  0  0  0  0
   39.3960   28.9160   43.2960 F   0  0  0  0  0  0  0  0  0  0  0  0
   39.2660   27.6000   43.0250 C   0  0  0  0  0  0  0  0  0  0  0  0
   38.3710   27.1470   42.0890 C   0  0  0  0  0  0  0  0  0  0  0  0
   38.2250   25.7870   41.7960 C   0  0  0  0  0  0  0  0  0  0  0  0
   37.5250   25.4340   41.0640 H   0  0  0  0  0  0  0  0  0  0  0  0
   38.9890   24.8440   42.4510 C   0  0  0  0  0  0  0  0  0  0  0  0
   38.8890   23.7890   42.2370 H   0  0  0  0  0  0  0  0  0  0  0  0
   39.8910   25.3280   43.3970 C   0  0  0  0  0  3  0  0  0  0  0  0
   40.0290   26.6720   43.6800 C   0  0  0  0  0  3  0  0  0  0  0  0
   40.6330   32.4430   38.9300 C   0  0  0  0  0  0  0  0  0  0  0  0
   41.9390   32.8540   38.6570 F   0  0  0  0  0  0  0  0  0  0  0  0
   40.7110   31.6850   40.0800 F   0  0  0  0  0  0  0  0  0  0  0  0
   39.8490   33.5520   39.0660 F   0  0  0  0  0  0  0  0  0  0  0  0
  1 17  1  0  0  0  0
  2  8  1  0  0  0  0
  2  1  1  0  0  0  0
  3  4  1  0  0  0  0
  3  2  1  0  0  0  0
  4  5  1  0  0  0  0
  5 12  1  6  0  0  0
  5  6  1  0  0  0  0
  5 32  1  0  0  0  0
  6  1  1  0  0  0  0
  6 13  1  0  0  0  0
  7  2  1  0  0  0  0
  9  3  1  0  0  0  0
 10  3  1  0  0  0  0
 11  4  1  0  0  0  0
 14  6  1  0  0  0  0
 15 21  1  0  0  0  0
 15 20  1  0  0  0  0
 16 15  2  0  0  0  0
 17 16  1  0  0  0  0
 17 18  2  0  0  0  0
 18 19  1  0  0  0  0
 19 20  2  0  0  0  0
 19 25  1  0  0  0  0
 22 16  1  0  0  0  0
 24 23  1  0  0  0  0
 24 31  1  0  0  0  0
 25 24  2  0  0  0  0
 26 25  1  0  0  0  0
 26 28  2  0  0  0  0
 27 26  1  0  0  0  0
 28 30  1  0  0  0  0
 29 28  1  0  0  0  0
 30 31  2  0  0  0  0
 32 35  1  0  0  0  0
 32 34  1  0  0  0  0
 33 32  1  0  0  0  0
M  END
>  <minimizedAffinity>
-5.75735235

$$$$

 OpenBabel03242522043D

 35 37  0  0  1  0  0  0  0  0999 V2000
   38.2690   27.9580   41.8650 N   0  0  0  0  0  0  0  0  0  0  0  0
   38.4550   27.8100   43.2870 C   0  0  0  0  0  0  0  0  0  0  0  0
   39.4180   26.6970   43.6100 C   0  0  0  0  0  0  0  0  0  0  0  0
   39.1230   25.4740   42.9730 N   0  0  0  0  0  0  0  0  0  0  0  0
   38.6010   25.5320   41.6600 C   0  0  2  0  0  0  0  0  0  0  0  0
   38.5540   26.8560   40.9950 C   0  0  0  0  0  0  0  0  0  0  0  0
   38.7700   28.7340   43.8000 H   0  0  0  0  0  0  0  0  0  0  0  0
   37.4600   27.5070   43.6920 H   0  0  0  0  0  0  0  0  0  0  0  0
   39.3410   26.5420   44.7250 H   0  0  0  0  0  0  0  0  0  0  0  0
   40.4670   27.0630   43.4790 H   0  0  0  0  0  0  0  0  0  0  0  0
   39.9550   24.8470   43.0640 H   0  0  0  0  0  0  0  0  0  0  0  0
   39.2110   24.8550   41.0220 H   0  0  0  0  0  0  0  0  0  0  0  0
   37.7850   26.8440   40.1930 H   0  0  0  0  0  0  0  0  0  0  0  0
   39.5210   27.0800   40.4640 H   0  0  0  0  0  0  0  0  0  0  0  0
   36.1210   30.8330   40.7670 C   0  0  0  0  0  0  0  0  0  0  0  0
   36.4650   29.6020   41.3450 C   0  0  0  0  0  0  0  0  0  0  0  0
   37.8060   29.1790   41.3140 C   0  0  0  0  0  0  0  0  0  0  0  0
   38.6830   30.0200   40.7130 N   0  0  0  0  0  0  0  0  0  0  0  0
   38.3160   31.2010   40.1650 C   0  0  0  0  0  0  0  0  0  0  0  0
   37.0380   31.6070   40.1920 N   0  0  0  0  0  0  0  0  0  0  0  0
   35.0740   31.1250   40.8090 H   0  0  0  0  0  0  0  0  0  0  0  0
   35.7680   28.9450   41.8170 H   0  0  0  0  0  0  0  0  0  0  0  0
   39.0990   33.7180   41.1960 F   0  0  0  0  0  0  0  0  0  0  0  0
   39.6890   33.2480   40.0760 C   0  0  0  0  0  0  0  0  0  0  0  0
   39.3410   32.0340   39.5400 C   0  0  0  0  0  0  0  0  0  0  0  0
   39.9420   31.5330   38.3800 C   0  0  0  0  0  0  0  0  0  0  0  0
   39.6690   30.5840   37.9610 H   0  0  0  0  0  0  0  0  0  0  0  0
   40.9180   32.2580   37.7290 C   0  0  0  0  0  0  0  0  0  0  0  0
   41.3930   31.8860   36.8320 H   0  0  0  0  0  0  0  0  0  0  0  0
   41.2540   33.4880   38.2920 C   0  0  0  0  0  3  0  0  0  0  0  0
   40.6560   33.9740   39.4370 C   0  0  0  0  0  3  0  0  0  0  0  0
   37.1960   24.9740   41.6740 C   0  0  0  0  0  0  0  0  0  0  0  0
   37.2410   23.5850   41.5230 F   0  0  0  0  0  0  0  0  0  0  0  0
   36.5800   25.4540   40.5370 F   0  0  0  0  0  0  0  0  0  0  0  0
   36.5170   25.2630   42.8210 F   0  0  0  0  0  0  0  0  0  0  0  0
  1  2  1  0  0  0  0
  2  3  1  0  0  0  0
  2  8  1  0  0  0  0
  2  7  1  0  0  0  0
  3  9  1  0  0  0  0
  4 11  1  0  0  0  0
  4  3  1  0  0  0  0
  5 12  1  6  0  0  0
  5 32  1  0  0  0  0
  5  4  1  0  0  0  0
  6  5  1  0  0  0  0
  6  1  1  0  0  0  0
 10  3  1  0  0  0  0
 13  6  1  0  0  0  0
 14  6  1  0  0  0  0
 15 21  1  0  0  0  0
 15 16  1  0  0  0  0
 16 22  1  0  0  0  0
 17 16  2  0  0  0  0
 17  1  1  0  0  0  0
 18 17  1  0  0  0  0
 19 20  1  0  0  0  0
 19 18  2  0  0  0  0
 20 15  2  0  0  0  0
 24 23  1  0  0  0  0
 25 24  1  0  0  0  0
 25 19  1  0  0  0  0
 26 25  2  0  0  0  0
 27 26  1  0  0  0  0
 28 30  2  0  0  0  0
 28 26  1  0  0  0  0
 29 28  1  0  0  0  0
 30 31  1  0  0  0  0
 31 24  2  0  0  0  0
 32 35  1  0  0  0  0
 33 32  1  0  0  0  0
 34 32  1  0  0  0  0
M  END
>  <minimizedAffinity>
-5.73586321

$$$$

 OpenBabel03242522043D

 35 37  0  0  1  0  0  0  0  0999 V2000
   37.9610   27.5970   41.6560 N   0  0  0  0  0  0  0  0  0  0  0  0
   38.1120   27.5130   43.0880 C   0  0  0  0  0  0  0  0  0  0  0  0
   39.1800   26.5260   43.4780 C   0  0  0  0  0  0  0  0  0  0  0  0
   39.0480   25.2600   42.8740 N   0  0  0  0  0  0  0  0  0  0  0  0
   38.5690   25.2190   41.5430 C   0  0  2  0  0  0  0  0  0  0  0  0
   38.3980   26.5080   40.8340 C   0  0  0  0  0  0  0  0  0  0  0  0
   38.3030   28.4810   43.5800 H   0  0  0  0  0  0  0  0  0  0  0  0
   37.1430   27.1120   43.4710 H   0  0  0  0  0  0  0  0  0  0  0  0
   39.0820   26.3960   44.5960 H   0  0  0  0  0  0  0  0  0  0  0  0
   40.1860   27.0040   43.3690 H   0  0  0  0  0  0  0  0  0  0  0  0
   39.9410   24.7330   43.0120 H   0  0  0  0  0  0  0  0  0  0  0  0
   39.2730   24.5960   40.9490 H   0  0  0  0  0  0  0  0  0  0  0  0
   37.6640   26.3860   40.0080 H   0  0  0  0  0  0  0  0  0  0  0  0
   39.3520   26.8240   40.3260 H   0  0  0  0  0  0  0  0  0  0  0  0
   36.7390   31.0750   40.9550 C   0  0  0  0  0  0  0  0  0  0  0  0
   37.3350   30.0120   41.6500 C   0  0  0  0  0  0  0  0  0  0  0  0
   37.3840   28.7410   41.0500 C   0  0  0  0  0  0  0  0  0  0  0  0
   36.8370   28.6430   39.8140 N   0  0  0  0  0  0  0  0  0  0  0  0
   36.2690   29.6900   39.1730 C   0  0  0  0  0  0  0  0  0  0  0  0
   36.2200   30.9030   39.7420 N   0  0  0  0  0  0  0  0  0  0  0  0
   36.7180   32.0430   41.4520 H   0  0  0  0  0  0  0  0  0  0  0  0
   37.7640   30.0980   42.6240 H   0  0  0  0  0  0  0  0  0  0  0  0
   33.6000   28.8530   38.7430 F   0  0  0  0  0  0  0  0  0  0  0  0
   34.4050   29.0700   37.6810 C   0  0  0  0  0  0  0  0  0  0  0  0
   35.7060   29.4760   37.8410 C   0  0  0  0  0  0  0  0  0  0  0  0
   36.5540   29.7040   36.7520 C   0  0  0  0  0  0  0  0  0  0  0  0
   37.5710   30.0210   36.8780 H   0  0  0  0  0  0  0  0  0  0  0  0
   36.0990   29.5250   35.4620 C   0  0  0  0  0  0  0  0  0  0  0  0
   36.7410   29.6960   34.6090 H   0  0  0  0  0  0  0  0  0  0  0  0
   34.7750   29.1120   35.3250 C   0  0  0  0  0  3  0  0  0  0  0  0
   33.9460   28.8890   36.4060 C   0  0  0  0  0  3  0  0  0  0  0  0
   37.2360   24.5060   41.5310 C   0  0  0  0  0  0  0  0  0  0  0  0
   37.4380   23.1340   41.3640 F   0  0  0  0  0  0  0  0  0  0  0  0
   36.5840   24.9300   40.3920 F   0  0  0  0  0  0  0  0  0  0  0  0
   36.5140   24.7020   42.6730 F   0  0  0  0  0  0  0  0  0  0  0  0
  1  2  1  0  0  0  0
  2  8  1  0  0  0  0
  2  3  1  0  0  0  0
  2  7  1  0  0  0  0
  3  9  1  0  0  0  0
  4 11  1  0  0  0  0
  4  3  1  0  0  0  0
  5 12  1  6  0  0  0
  5  4  1  0  0  0  0
  6  5  1  0  0  0  0
  6  1  1  0  0  0  0
 10  3  1  0  0  0  0
 13  6  1  0  0  0  0
 14  6  1  0  0  0  0
 15 21  1  0  0  0  0
 15 16  1  0  0  0  0
 16 22  1  0  0  0  0
 17 16  2  0  0  0  0
 17  1  1  0  0  0  0
 18 17  1  0  0  0  0
 19 20  1  0  0  0  0
 19 18  2  0  0  0  0
 20 15  2  0  0  0  0
 24 25  1  0  0  0  0
 24 23  1  0  0  0  0
 25 19  1  0  0  0  0
 26 27  1  0  0  0  0
 26 25  2  0  0  0  0
 28 26  1  0  0  0  0
 29 28  1  0  0  0  0
 30 28  2  0  0  0  0
 30 31  1  0  0  0  0
 31 24  2  0  0  0  0
 32  5  1  0  0  0  0
 32 35  1  0  0  0  0
 33 32  1  0  0  0  0
 34 32  1  0  0  0  0
M  END
>  <minimizedAffinity>
-5.70482826

$$$$

 OpenBabel03242522043D

 35 37  0  0  1  0  0  0  0  0999 V2000
   35.7670   29.0080   36.5730 N   0  0  0  0  0  0  0  0  0  0  0  0
   34.6550   28.3160   35.9700 C   0  0  0  0  0  0  0  0  0  0  0  0
   35.0740   27.5540   34.7390 C   0  0  0  0  0  0  0  0  0  0  0  0
   35.8050   28.3180   33.8070 N   0  0  0  0  0  0  0  0  0  0  0  0
   36.7000   29.2870   34.3170 C   0  0  2  0  0  0  0  0  0  0  0  0
   36.9210   29.3170   35.7820 C   0  0  0  0  0  0  0  0  0  0  0  0
   34.1140   27.6430   36.6570 H   0  0  0  0  0  0  0  0  0  0  0  0
   33.9490   29.1130   35.6340 H   0  0  0  0  0  0  0  0  0  0  0  0
   34.1150   27.2190   34.2470 H   0  0  0  0  0  0  0  0  0  0  0  0
   35.5500   26.5880   35.0440 H   0  0  0  0  0  0  0  0  0  0  0  0
   36.2450   27.6640   33.1190 H   0  0  0  0  0  0  0  0  0  0  0  0
   37.6870   29.1280   33.8300 H   0  0  0  0  0  0  0  0  0  0  0  0
   37.2840   30.3230   36.0840 H   0  0  0  0  0  0  0  0  0  0  0  0
   37.7430   28.6100   36.0850 H   0  0  0  0  0  0  0  0  0  0  0  0
   34.9280   29.2770   40.2200 C   0  0  0  0  0  0  0  0  0  0  0  0
   34.8720   28.8230   38.8950 C   0  0  0  0  0  0  0  0  0  0  0  0
   35.7350   29.3870   37.9380 C   0  0  0  0  0  0  0  0  0  0  0  0
   36.5750   30.3510   38.3870 N   0  0  0  0  0  0  0  0  0  0  0  0
   36.6020   30.7660   39.6750 C   0  0  0  0  0  0  0  0  0  0  0  0
   35.7810   30.2300   40.5890 N   0  0  0  0  0  0  0  0  0  0  0  0
   34.2450   28.8180   40.9320 H   0  0  0  0  0  0  0  0  0  0  0  0
   34.2070   28.0630   38.5490 H   0  0  0  0  0  0  0  0  0  0  0  0
   38.9370   30.2600   41.1910 F   0  0  0  0  0  0  0  0  0  0  0  0
   38.6670   31.5200   40.7910 C   0  0  0  0  0  0  0  0  0  0  0  0
   37.5480   31.8140   40.0550 C   0  0  0  0  0  0  0  0  0  0  0  0
   37.2530   33.1150   39.6340 C   0  0  0  0  0  0  0  0  0  0  0  0
   36.3770   33.3430   39.0580 H   0  0  0  0  0  0  0  0  0  0  0  0
   38.0950   34.1600   39.9520 C   0  0  0  0  0  0  0  0  0  0  0  0
   37.8820   35.1710   39.6340 H   0  0  0  0  0  0  0  0  0  0  0  0
   39.2250   33.8380   40.7000 C   0  0  0  0  0  3  0  0  0  0  0  0
   39.5080   32.5510   41.1120 C   0  0  0  0  0  3  0  0  0  0  0  0
   36.2200   30.6570   33.8960 C   0  0  0  0  0  0  0  0  0  0  0  0
   36.6780   30.9400   32.6070 F   0  0  0  0  0  0  0  0  0  0  0  0
   36.8530   31.5590   34.7250 F   0  0  0  0  0  0  0  0  0  0  0  0
   34.8600   30.7740   33.9070 F   0  0  0  0  0  0  0  0  0  0  0  0
  1 17  1  0  0  0  0
  2  1  1  0  0  0  0
  2  7  1  0  0  0  0
  3 10  1  0  0  0  0
  3  2  1  0  0  0  0
  4  5  1  0  0  0  0
  4  3  1  0  0  0  0
  5 12  1  6  0  0  0
  5  6  1  0  0  0  0
  6 13  1  0  0  0  0
  6 14  1  0  0  0  0
  6  1  1  0  0  0  0
  8  2  1  0  0  0  0
  9  3  1  0  0  0  0
 11  4  1  0  0  0  0
 15 20  1  0  0  0  0
 15 21  1  0  0  0  0
 16 15  2  0  0  0  0
 17 18  2  0  0  0  0
 17 16  1  0  0  0  0
 18 19  1  0  0  0  0
 19 25  1  0  0  0  0
 19 20  2  0  0  0  0
 22 16  1  0  0  0  0
 24 31  1  0  0  0  0
 24 23  1  0  0  0  0
 25 24  2  0  0  0  0
 26 28  2  0  0  0  0
 26 25  1  0  0  0  0
 27 26  1  0  0  0  0
 28 30  1  0  0  0  0
 29 28  1  0  0  0  0
 30 31  2  0  0  0  0
 32 35  1  0  0  0  0
 32  5  1  0  0  0  0
 32 34  1  0  0  0  0
 33 32  1  0  0  0  0
M  END
>  <minimizedAffinity>
-5.67708015

$$$$
