
 OpenBabel03252501263D

 35 38  0  0  0  0  0  0  0  0999 V2000
   38.1140   27.5970   39.8420 F   0  0  0  0  0  0  0  0  0  0  0  0
   37.8670   27.7940   41.1500 C   0  0  0  0  0  0  0  0  0  0  0  0
   37.7820   29.0710   41.6330 C   0  0  0  0  0  0  0  0  0  0  0  0
   37.5250   29.2940   42.9890 C   0  0  0  0  0  0  0  0  0  0  0  0
   37.3530   28.2550   43.8670 C   0  0  0  0  0  0  0  0  0  0  0  0
   37.4410   26.9910   43.3720 C   0  0  0  0  0  0  0  0  0  0  0  0
   37.6920   26.7420   42.0410 C   0  0  0  0  0  0  0  0  0  0  0  0
   37.4530   30.3000   43.3980 H   0  0  0  0  0  0  0  0  0  0  0  0
   37.1530   28.4200   44.9250 H   0  0  0  0  0  0  0  0  0  0  0  0
   37.3190   26.0930   43.9790 H   0  0  0  0  0  0  0  0  0  0  0  0
   40.0960   25.2810   41.6740 F   0  0  0  0  0  0  0  0  0  0  0  0
   38.9630   24.6850   41.2480 C   0  0  0  0  0  0  0  0  0  0  0  0
   37.8000   25.4020   41.4300 C   0  0  0  0  0  0  0  0  0  0  0  0
   36.5470   24.9190   41.0400 C   0  0  0  0  0  0  0  0  0  0  0  0
   35.6190   25.4240   41.1550 H   0  0  0  0  0  0  0  0  0  0  0  0
   36.5380   23.6520   40.4470 C   0  0  0  0  0  0  0  0  0  0  0  0
   35.5890   23.2240   40.1240 H   0  0  0  0  0  0  0  0  0  0  0  0
   37.6810   22.9060   40.2490 C   0  0  0  0  0  3  0  0  0  0  0  0
   38.9000   23.4390   40.6580 C   0  0  0  0  0  3  0  0  0  0  0  0
   39.0170   31.7920   39.7780 C   0  0  0  0  0  0  0  0  0  0  0  0
   37.6540   31.9980   39.6600 C   0  0  0  0  0  0  0  0  0  0  0  0
   36.9970   31.0180   40.3320 C   0  0  0  0  0  0  0  0  0  0  0  0
   37.9360   30.2220   40.8540 N   0  0  0  0  0  0  0  0  0  0  0  0
   39.1380   30.6940   40.5170 N   0  0  0  0  0  0  0  0  0  0  0  0
   37.1200   32.7900   39.1350 H   0  0  0  0  0  0  0  0  0  0  0  0
   35.9450   30.8040   40.4920 H   0  0  0  0  0  0  0  0  0  0  0  0
   41.3970   34.5360   39.3070 C   0  0  0  0  0  0  0  0  0  0  0  0
   42.0090   34.1970   38.0760 C   0  0  0  0  0  0  0  0  0  0  0  0
   41.5940   33.0300   37.4310 C   0  0  0  0  0  0  0  0  0  0  0  0
   40.6290   32.3090   38.0370 N   0  0  0  0  0  0  0  0  0  0  0  0
   40.0500   32.6290   39.1970 C   0  0  0  0  0  0  0  0  0  0  0  0
   40.4350   33.7580   39.8470 N   0  0  0  0  0  0  0  0  0  0  0  0
   41.6900   35.4320   39.8390 H   0  0  0  0  0  0  0  0  0  0  0  0
   42.7800   34.8270   37.6490 H   0  0  0  0  0  0  0  0  0  0  0  0
   42.0280   32.7220   36.4880 H   0  0  0  0  0  0  0  0  0  0  0  0
  1  2  1  0  0  0  0
  2  3  2  0  0  0  0
  2  7  1  0  0  0  0
  3  4  1  0  0  0  0
  4  8  1  0  0  0  0
  4  5  2  0  0  0  0
  5  9  1  0  0  0  0
  6  5  1  0  0  0  0
  6 10  1  0  0  0  0
  7  6  2  0  0  0  0
 12 13  1  0  0  0  0
 12 11  1  0  0  0  0
 13  7  1  0  0  0  0
 14 15  1  0  0  0  0
 14 13  2  0  0  0  0
 16 14  1  0  0  0  0
 17 16  1  0  0  0  0
 18 16  2  0  0  0  0
 18 19  1  0  0  0  0
 19 12  2  0  0  0  0
 20 24  2  0  0  0  0
 21 20  1  0  0  0  0
 21 22  2  0  0  0  0
 22 26  1  0  0  0  0
 22 23  1  0  0  0  0
 23  3  1  0  0  0  0
 24 23  1  0  0  0  0
 25 21  1  0  0  0  0
 27 33  1  0  0  0  0
 27 32  1  0  0  0  0
 28 27  2  0  0  0  0
 29 30  2  0  0  0  0
 29 28  1  0  0  0  0
 30 31  1  0  0  0  0
 31 20  1  0  0  0  0
 31 32  2  0  0  0  0
 34 28  1  0  0  0  0
 35 29  1  0  0  0  0
M  END
>  <minimizedAffinity>
-6.13876724

$$$$

 OpenBabel03252501263D

 35 38  0  0  0  0  0  0  0  0999 V2000
   39.2470   28.1250   41.2280 F   0  0  0  0  0  0  0  0  0  0  0  0
   38.1360   28.8670   41.0670 C   0  0  0  0  0  0  0  0  0  0  0  0
   38.2430   30.2260   40.9620 C   0  0  0  0  0  0  0  0  0  0  0  0
   37.1000   31.0110   40.7940 C   0  0  0  0  0  0  0  0  0  0  0  0
   35.8490   30.4520   40.7300 C   0  0  0  0  0  0  0  0  0  0  0  0
   35.7580   29.0990   40.8350 C   0  0  0  0  0  0  0  0  0  0  0  0
   36.8670   28.3010   41.0020 C   0  0  0  0  0  0  0  0  0  0  0  0
   37.1590   32.0940   40.7080 H   0  0  0  0  0  0  0  0  0  0  0  0
   34.9530   31.0570   40.5980 H   0  0  0  0  0  0  0  0  0  0  0  0
   34.8150   28.5510   40.7960 H   0  0  0  0  0  0  0  0  0  0  0  0
   37.0630   26.8410   43.4250 F   0  0  0  0  0  0  0  0  0  0  0  0
   36.9440   26.1120   42.2960 C   0  0  0  0  0  0  0  0  0  0  0  0
   36.8490   26.8310   41.1240 C   0  0  0  0  0  0  0  0  0  0  0  0
   36.7210   26.2180   39.8720 C   0  0  0  0  0  0  0  0  0  0  0  0
   36.6440   26.7180   38.9380 H   0  0  0  0  0  0  0  0  0  0  0  0
   36.6940   24.8200   39.8750 C   0  0  0  0  0  0  0  0  0  0  0  0
   36.5950   24.2890   38.9290 H   0  0  0  0  0  0  0  0  0  0  0  0
   36.7860   24.0680   41.0290 C   0  0  0  0  0  3  0  0  0  0  0  0
   36.9120   24.7330   42.2450 C   0  0  0  0  0  3  0  0  0  0  0  0
   41.1430   32.0750   40.2280 C   0  0  0  0  0  0  0  0  0  0  0  0
   41.2890   31.9010   41.5920 C   0  0  0  0  0  0  0  0  0  0  0  0
   40.2340   31.1890   42.0640 C   0  0  0  0  0  0  0  0  0  0  0  0
   39.4520   30.9290   41.0110 N   0  0  0  0  0  0  0  0  0  0  0  0
   40.0050   31.4630   39.9200 N   0  0  0  0  0  0  0  0  0  0  0  0
   42.0870   32.2450   42.2500 H   0  0  0  0  0  0  0  0  0  0  0  0
   39.9560   30.8380   43.0520 H   0  0  0  0  0  0  0  0  0  0  0  0
   42.4600   34.0670   37.4490 C   0  0  0  0  0  0  0  0  0  0  0  0
   43.8430   34.1230   37.7470 C   0  0  0  0  0  0  0  0  0  0  0  0
   44.2980   33.4760   38.8970 C   0  0  0  0  0  0  0  0  0  0  0  0
   43.3740   32.8390   39.6450 N   0  0  0  0  0  0  0  0  0  0  0  0
   42.0690   32.7850   39.3650 C   0  0  0  0  0  0  0  0  0  0  0  0
   41.5980   33.4060   38.2520 N   0  0  0  0  0  0  0  0  0  0  0  0
   42.0660   34.5550   36.5670 H   0  0  0  0  0  0  0  0  0  0  0  0
   44.5280   34.6550   37.0970 H   0  0  0  0  0  0  0  0  0  0  0  0
   45.3450   33.4870   39.1740 H   0  0  0  0  0  0  0  0  0  0  0  0
  2  1  1  0  0  0  0
  3 23  1  0  0  0  0
  3  2  2  0  0  0  0
  4  3  1  0  0  0  0
  5  4  2  0  0  0  0
  5  6  1  0  0  0  0
  6  7  2  0  0  0  0
  7  2  1  0  0  0  0
  7 13  1  0  0  0  0
  8  4  1  0  0  0  0
  9  5  1  0  0  0  0
 10  6  1  0  0  0  0
 12 11  1  0  0  0  0
 13 12  2  0  0  0  0
 14 16  2  0  0  0  0
 14 13  1  0  0  0  0
 15 14  1  0  0  0  0
 16 18  1  0  0  0  0
 17 16  1  0  0  0  0
 18 19  2  0  0  0  0
 19 12  1  0  0  0  0
 20 21  1  0  0  0  0
 21 22  2  0  0  0  0
 21 25  1  0  0  0  0
 22 26  1  0  0  0  0
 23 22  1  0  0  0  0
 24 20  2  0  0  0  0
 24 23  1  0  0  0  0
 27 28  2  0  0  0  0
 27 32  1  0  0  0  0
 28 29  1  0  0  0  0
 29 35  1  0  0  0  0
 29 30  2  0  0  0  0
 31 30  1  0  0  0  0
 31 20  1  0  0  0  0
 32 31  2  0  0  0  0
 33 27  1  0  0  0  0
 34 28  1  0  0  0  0
M  END
>  <minimizedAffinity>
-6.09131241

$$$$

 OpenBabel03252501263D

 35 38  0  0  0  0  0  0  0  0999 V2000
   37.3910   26.6230   39.2740 F   0  0  0  0  0  0  0  0  0  0  0  0
   37.1440   26.7180   40.5930 C   0  0  0  0  0  0  0  0  0  0  0  0
   36.9960   27.9520   41.1630 C   0  0  0  0  0  0  0  0  0  0  0  0
   36.7380   28.0700   42.5310 C   0  0  0  0  0  0  0  0  0  0  0  0
   36.6260   26.9650   43.3370 C   0  0  0  0  0  0  0  0  0  0  0  0
   36.7750   25.7450   42.7570 C   0  0  0  0  0  0  0  0  0  0  0  0
   37.0290   25.5990   41.4120 C   0  0  0  0  0  0  0  0  0  0  0  0
   36.6180   29.0400   43.0080 H   0  0  0  0  0  0  0  0  0  0  0  0
   36.4250   27.0480   44.4050 H   0  0  0  0  0  0  0  0  0  0  0  0
   36.7050   24.8020   43.3020 H   0  0  0  0  0  0  0  0  0  0  0  0
   39.4500   24.1320   41.2210 F   0  0  0  0  0  0  0  0  0  0  0  0
   38.3740   23.5920   40.6120 C   0  0  0  0  0  0  0  0  0  0  0  0
   37.2030   24.3120   40.7100 C   0  0  0  0  0  0  0  0  0  0  0  0
   36.0030   23.8830   40.1320 C   0  0  0  0  0  0  0  0  0  0  0  0
   35.0720   24.3930   40.1750 H   0  0  0  0  0  0  0  0  0  0  0  0
   36.0580   22.6690   39.4410 C   0  0  0  0  0  0  0  0  0  0  0  0
   35.1520   22.2850   38.9710 H   0  0  0  0  0  0  0  0  0  0  0  0
   37.2120   21.9210   39.3220 C   0  0  0  0  0  3  0  0  0  0  0  0
   38.3750   22.3990   39.9190 C   0  0  0  0  0  3  0  0  0  0  0  0
   37.9290   31.0990   39.8990 C   0  0  0  0  0  0  0  0  0  0  0  0
   36.7920   30.8490   39.1520 C   0  0  0  0  0  0  0  0  0  0  0  0
   36.2800   29.6450   39.5130 C   0  0  0  0  0  0  0  0  0  0  0  0
   37.0850   29.1600   40.4640 N   0  0  0  0  0  0  0  0  0  0  0  0
   38.0660   30.0380   40.6860 N   0  0  0  0  0  0  0  0  0  0  0  0
   36.3220   31.4650   38.3860 H   0  0  0  0  0  0  0  0  0  0  0  0
   35.4160   29.0770   39.1840 H   0  0  0  0  0  0  0  0  0  0  0  0
   39.1250   34.5360   40.3230 C   0  0  0  0  0  0  0  0  0  0  0  0
   40.3460   34.5210   39.6050 C   0  0  0  0  0  0  0  0  0  0  0  0
   40.7360   33.3300   38.9890 C   0  0  0  0  0  0  0  0  0  0  0  0
   39.9100   32.2730   39.1270 N   0  0  0  0  0  0  0  0  0  0  0  0
   38.7580   32.2860   39.8030 C   0  0  0  0  0  0  0  0  0  0  0  0
   38.3540   33.4310   40.4120 N   0  0  0  0  0  0  0  0  0  0  0  0
   38.7860   35.4380   40.8150 H   0  0  0  0  0  0  0  0  0  0  0  0
   40.9590   35.4120   39.5380 H   0  0  0  0  0  0  0  0  0  0  0  0
   41.6600   33.2620   38.4280 H   0  0  0  0  0  0  0  0  0  0  0  0
  1  2  1  0  0  0  0
  2  3  2  0  0  0  0
  2  7  1  0  0  0  0
  3  4  1  0  0  0  0
  4  8  1  0  0  0  0
  4  5  2  0  0  0  0
  5  9  1  0  0  0  0
  6 10  1  0  0  0  0
  6  5  1  0  0  0  0
  7  6  2  0  0  0  0
 12 13  1  0  0  0  0
 12 11  1  0  0  0  0
 13  7  1  0  0  0  0
 14 15  1  0  0  0  0
 14 13  2  0  0  0  0
 16 14  1  0  0  0  0
 17 16  1  0  0  0  0
 18 16  2  0  0  0  0
 18 19  1  0  0  0  0
 19 12  2  0  0  0  0
 20 24  2  0  0  0  0
 21 22  2  0  0  0  0
 21 20  1  0  0  0  0
 22 23  1  0  0  0  0
 23 24  1  0  0  0  0
 23  3  1  0  0  0  0
 25 21  1  0  0  0  0
 26 22  1  0  0  0  0
 27 32  1  0  0  0  0
 27 33  1  0  0  0  0
 28 27  2  0  0  0  0
 29 30  2  0  0  0  0
 29 28  1  0  0  0  0
 30 31  1  0  0  0  0
 31 20  1  0  0  0  0
 31 32  2  0  0  0  0
 34 28  1  0  0  0  0
 35 29  1  0  0  0  0
M  END
>  <minimizedAffinity>
-6.0642004

$$$$

 OpenBabel03252501263D

 35 38  0  0  0  0  0  0  0  0999 V2000
   39.2720   27.1490   40.4890 F   0  0  0  0  0  0  0  0  0  0  0  0
   38.5350   27.4220   41.5810 C   0  0  0  0  0  0  0  0  0  0  0  0
   38.8350   28.5230   42.3370 C   0  0  0  0  0  0  0  0  0  0  0  0
   38.0800   28.8220   43.4740 C   0  0  0  0  0  0  0  0  0  0  0  0
   37.0290   28.0330   43.8650 C   0  0  0  0  0  0  0  0  0  0  0  0
   36.7430   26.9420   43.1040 C   0  0  0  0  0  0  0  0  0  0  0  0
   37.4690   26.6230   41.9790 C   0  0  0  0  0  0  0  0  0  0  0  0
   38.2990   29.6910   44.0910 H   0  0  0  0  0  0  0  0  0  0  0  0
   36.4350   28.2590   44.7500 H   0  0  0  0  0  0  0  0  0  0  0  0
   35.9290   26.2490   43.3220 H   0  0  0  0  0  0  0  0  0  0  0  0
   36.0310   26.6710   39.5340 F   0  0  0  0  0  0  0  0  0  0  0  0
   36.5230   25.4740   39.9150 C   0  0  0  0  0  0  0  0  0  0  0  0
   37.2210   25.4610   41.1040 C   0  0  0  0  0  0  0  0  0  0  0  0
   37.7910   24.2970   41.6320 C   0  0  0  0  0  0  0  0  0  0  0  0
   38.3370   24.2260   42.5400 H   0  0  0  0  0  0  0  0  0  0  0  0
   37.6120   23.1330   40.8780 C   0  0  0  0  0  0  0  0  0  0  0  0
   38.0360   22.1960   41.2400 H   0  0  0  0  0  0  0  0  0  0  0  0
   36.9210   23.1080   39.6840 C   0  0  0  0  0  3  0  0  0  0  0  0
   36.3760   24.2970   39.2090 C   0  0  0  0  0  3  0  0  0  0  0  0
   40.8680   31.1070   41.0890 C   0  0  0  0  0  0  0  0  0  0  0  0
   41.7400   30.4990   41.9740 C   0  0  0  0  0  0  0  0  0  0  0  0
   41.1130   29.4520   42.5660 C   0  0  0  0  0  0  0  0  0  0  0  0
   39.8770   29.4130   42.0570 N   0  0  0  0  0  0  0  0  0  0  0  0
   39.7430   30.4070   41.1760 N   0  0  0  0  0  0  0  0  0  0  0  0
   42.7720   30.7580   42.2120 H   0  0  0  0  0  0  0  0  0  0  0  0
   41.4230   28.7220   43.3070 H   0  0  0  0  0  0  0  0  0  0  0  0
   41.3390   33.2420   38.1500 C   0  0  0  0  0  0  0  0  0  0  0  0
   41.7520   34.4660   38.7290 C   0  0  0  0  0  0  0  0  0  0  0  0
   41.8600   34.5360   40.1190 C   0  0  0  0  0  0  0  0  0  0  0  0
   41.5600   33.4190   40.8110 N   0  0  0  0  0  0  0  0  0  0  0  0
   41.1710   32.2630   40.2660 C   0  0  0  0  0  0  0  0  0  0  0  0
   41.0570   32.1660   38.9160 N   0  0  0  0  0  0  0  0  0  0  0  0
   41.2410   33.1450   37.0760 H   0  0  0  0  0  0  0  0  0  0  0  0
   41.9760   35.3250   38.1070 H   0  0  0  0  0  0  0  0  0  0  0  0
   42.1710   35.4470   40.6150 H   0  0  0  0  0  0  0  0  0  0  0  0
  1  2  1  0  0  0  0
  2  7  2  0  0  0  0
  2  3  1  0  0  0  0
  3  4  2  0  0  0  0
  4  5  1  0  0  0  0
  4  8  1  0  0  0  0
  5  9  1  0  0  0  0
  6 10  1  0  0  0  0
  6  5  2  0  0  0  0
  7  6  1  0  0  0  0
 11 12  1  0  0  0  0
 12 13  1  0  0  0  0
 13 14  2  0  0  0  0
 13  7  1  0  0  0  0
 14 15  1  0  0  0  0
 16 17  1  0  0  0  0
 16 14  1  0  0  0  0
 18 16  2  0  0  0  0
 19 18  1  0  0  0  0
 19 12  2  0  0  0  0
 20 24  2  0  0  0  0
 20 21  1  0  0  0  0
 21 25  1  0  0  0  0
 21 22  2  0  0  0  0
 22 26  1  0  0  0  0
 23  3  1  0  0  0  0
 23 22  1  0  0  0  0
 24 23  1  0  0  0  0
 27 28  2  0  0  0  0
 27 32  1  0  0  0  0
 28 29  1  0  0  0  0
 29 35  1  0  0  0  0
 29 30  2  0  0  0  0
 31 30  1  0  0  0  0
 31 20  1  0  0  0  0
 32 31  2  0  0  0  0
 33 27  1  0  0  0  0
 34 28  1  0  0  0  0
M  END
>  <minimizedAffinity>
-5.97532082

$$$$

 OpenBabel03252501263D

 35 38  0  0  0  0  0  0  0  0999 V2000
   39.3220   27.9830   40.2370 F   0  0  0  0  0  0  0  0  0  0  0  0
   38.2560   28.7990   40.3330 C   0  0  0  0  0  0  0  0  0  0  0  0
   38.4000   30.1300   40.0510 C   0  0  0  0  0  0  0  0  0  0  0  0
   37.3040   30.9910   40.1450 C   0  0  0  0  0  0  0  0  0  0  0  0
   36.0650   30.5370   40.5190 C   0  0  0  0  0  0  0  0  0  0  0  0
   35.9370   29.2120   40.7970 C   0  0  0  0  0  0  0  0  0  0  0  0
   37.0000   28.3400   40.7120 C   0  0  0  0  0  0  0  0  0  0  0  0
   37.3920   32.0530   39.9260 H   0  0  0  0  0  0  0  0  0  0  0  0
   35.2050   31.2020   40.5950 H   0  0  0  0  0  0  0  0  0  0  0  0
   35.0000   28.7450   41.1020 H   0  0  0  0  0  0  0  0  0  0  0  0
   37.4640   27.1310   43.2360 F   0  0  0  0  0  0  0  0  0  0  0  0
   37.1650   26.2960   42.2190 C   0  0  0  0  0  0  0  0  0  0  0  0
   36.9400   26.8930   40.9960 C   0  0  0  0  0  0  0  0  0  0  0  0
   36.6200   26.1620   39.8470 C   0  0  0  0  0  0  0  0  0  0  0  0
   36.4370   26.5660   38.8820 H   0  0  0  0  0  0  0  0  0  0  0  0
   36.5380   24.7750   40.0080 C   0  0  0  0  0  0  0  0  0  0  0  0
   36.2910   24.1550   39.1460 H   0  0  0  0  0  0  0  0  0  0  0  0
   36.7560   24.1440   41.2150 C   0  0  0  0  0  3  0  0  0  0  0  0
   37.0710   24.9230   42.3240 C   0  0  0  0  0  3  0  0  0  0  0  0
   41.4130   31.0050   38.4610 C   0  0  0  0  0  0  0  0  0  0  0  0
   41.3520   31.9740   39.4470 C   0  0  0  0  0  0  0  0  0  0  0  0
   40.2240   31.7900   40.1800 C   0  0  0  0  0  0  0  0  0  0  0  0
   39.6020   30.7280   39.6580 N   0  0  0  0  0  0  0  0  0  0  0  0
   40.3210   30.2680   38.6320 N   0  0  0  0  0  0  0  0  0  0  0  0
   42.0500   32.7820   39.6630 H   0  0  0  0  0  0  0  0  0  0  0  0
   39.7970   32.3130   41.0290 H   0  0  0  0  0  0  0  0  0  0  0  0
   44.5980   31.4590   36.7100 C   0  0  0  0  0  0  0  0  0  0  0  0
   44.4570   30.5940   35.5980 C   0  0  0  0  0  0  0  0  0  0  0  0
   43.2700   29.8700   35.4700 C   0  0  0  0  0  0  0  0  0  0  0  0
   42.3380   30.0530   36.4270 N   0  0  0  0  0  0  0  0  0  0  0  0
   42.4700   30.8690   37.4770 C   0  0  0  0  0  0  0  0  0  0  0  0
   43.6140   31.5850   37.6260 N   0  0  0  0  0  0  0  0  0  0  0  0
   45.5030   32.0380   36.8460 H   0  0  0  0  0  0  0  0  0  0  0  0
   45.2510   30.4980   34.8670 H   0  0  0  0  0  0  0  0  0  0  0  0
   43.1080   29.1940   34.6400 H   0  0  0  0  0  0  0  0  0  0  0  0
  1  2  1  0  0  0  0
  2  7  1  0  0  0  0
  3  4  1  0  0  0  0
  3  2  2  0  0  0  0
  4  5  2  0  0  0  0
  5  9  1  0  0  0  0
  5  6  1  0  0  0  0
  6 10  1  0  0  0  0
  7  6  2  0  0  0  0
  7 13  1  0  0  0  0
  8  4  1  0  0  0  0
 12 19  1  0  0  0  0
 12 11  1  0  0  0  0
 13 12  2  0  0  0  0
 14 16  2  0  0  0  0
 14 13  1  0  0  0  0
 15 14  1  0  0  0  0
 16 18  1  0  0  0  0
 17 16  1  0  0  0  0
 18 19  2  0  0  0  0
 20 24  2  0  0  0  0
 20 21  1  0  0  0  0
 21 25  1  0  0  0  0
 21 22  2  0  0  0  0
 22 26  1  0  0  0  0
 23  3  1  0  0  0  0
 23 22  1  0  0  0  0
 24 23  1  0  0  0  0
 27 33  1  0  0  0  0
 27 32  1  0  0  0  0
 28 27  2  0  0  0  0
 29 28  1  0  0  0  0
 29 30  2  0  0  0  0
 30 31  1  0  0  0  0
 31 32  2  0  0  0  0
 31 20  1  0  0  0  0
 34 28  1  0  0  0  0
 35 29  1  0  0  0  0
M  END
>  <minimizedAffinity>
-5.94962072

$$$$

 OpenBabel03252501263D

 35 38  0  0  0  0  0  0  0  0999 V2000
   38.1300   27.8560   39.7160 F   0  0  0  0  0  0  0  0  0  0  0  0
   37.7180   27.7790   40.9940 C   0  0  0  0  0  0  0  0  0  0  0  0
   37.6280   28.9210   41.7420 C   0  0  0  0  0  0  0  0  0  0  0  0
   37.2010   28.8600   43.0710 C   0  0  0  0  0  0  0  0  0  0  0  0
   36.8630   27.6690   43.6620 C   0  0  0  0  0  0  0  0  0  0  0  0
   36.9570   26.5420   42.9060 C   0  0  0  0  0  0  0  0  0  0  0  0
   37.3740   26.5730   41.5940 C   0  0  0  0  0  0  0  0  0  0  0  0
   37.1220   29.7540   43.6870 H   0  0  0  0  0  0  0  0  0  0  0  0
   36.5290   27.6130   44.6970 H   0  0  0  0  0  0  0  0  0  0  0  0
   36.7120   25.5450   43.2730 H   0  0  0  0  0  0  0  0  0  0  0  0
   35.7930   26.0500   39.2970 F   0  0  0  0  0  0  0  0  0  0  0  0
   36.7380   25.1340   39.5940 C   0  0  0  0  0  0  0  0  0  0  0  0
   37.5010   25.3970   40.7120 C   0  0  0  0  0  0  0  0  0  0  0  0
   38.5200   24.5420   41.1480 C   0  0  0  0  0  0  0  0  0  0  0  0
   39.1390   24.6920   41.9980 H   0  0  0  0  0  0  0  0  0  0  0  0
   38.7240   23.3920   40.3790 C   0  0  0  0  0  0  0  0  0  0  0  0
   39.5050   22.6900   40.6710 H   0  0  0  0  0  0  0  0  0  0  0  0
   37.9800   23.0970   39.2540 C   0  0  0  0  0  3  0  0  0  0  0  0
   36.9800   23.9850   38.8690 C   0  0  0  0  0  3  0  0  0  0  0  0
   39.2300   31.8790   40.7140 C   0  0  0  0  0  0  0  0  0  0  0  0
   37.9070   32.2130   40.4910 C   0  0  0  0  0  0  0  0  0  0  0  0
   37.1190   31.1640   40.8390 C   0  0  0  0  0  0  0  0  0  0  0  0
   37.9400   30.2000   41.2700 N   0  0  0  0  0  0  0  0  0  0  0  0
   39.1980   30.6390   41.1910 N   0  0  0  0  0  0  0  0  0  0  0  0
   37.4860   33.1400   40.1030 H   0  0  0  0  0  0  0  0  0  0  0  0
   36.0460   31.0020   40.8240 H   0  0  0  0  0  0  0  0  0  0  0  0
   41.3260   34.5360   39.3130 C   0  0  0  0  0  0  0  0  0  0  0  0
   42.5470   34.3560   40.0080 C   0  0  0  0  0  0  0  0  0  0  0  0
   42.6270   33.3250   40.9460 C   0  0  0  0  0  0  0  0  0  0  0  0
   41.5230   32.5710   41.1200 N   0  0  0  0  0  0  0  0  0  0  0  0
   40.3710   32.7390   40.4640 C   0  0  0  0  0  0  0  0  0  0  0  0
   40.2650   33.7350   39.5460 N   0  0  0  0  0  0  0  0  0  0  0  0
   41.2220   35.3240   38.5780 H   0  0  0  0  0  0  0  0  0  0  0  0
   43.3940   35.0030   39.8150 H   0  0  0  0  0  0  0  0  0  0  0  0
   43.5350   33.1420   41.5070 H   0  0  0  0  0  0  0  0  0  0  0  0
  1  2  1  0  0  0  0
  2  7  2  0  0  0  0
  2  3  1  0  0  0  0
  3  4  2  0  0  0  0
  4  5  1  0  0  0  0
  4  8  1  0  0  0  0
  5  9  1  0  0  0  0
  6 10  1  0  0  0  0
  6  5  2  0  0  0  0
  7  6  1  0  0  0  0
 11 12  1  0  0  0  0
 12 13  1  0  0  0  0
 13 14  2  0  0  0  0
 13  7  1  0  0  0  0
 14 15  1  0  0  0  0
 16 17  1  0  0  0  0
 16 14  1  0  0  0  0
 18 16  2  0  0  0  0
 19 18  1  0  0  0  0
 19 12  2  0  0  0  0
 20 24  2  0  0  0  0
 21 20  1  0  0  0  0
 21 22  2  0  0  0  0
 22 23  1  0  0  0  0
 23  3  1  0  0  0  0
 24 23  1  0  0  0  0
 25 21  1  0  0  0  0
 26 22  1  0  0  0  0
 27 32  2  0  0  0  0
 27 28  1  0  0  0  0
 28 29  2  0  0  0  0
 29 30  1  0  0  0  0
 29 35  1  0  0  0  0
 31 20  1  0  0  0  0
 31 30  2  0  0  0  0
 32 31  1  0  0  0  0
 33 27  1  0  0  0  0
 34 28  1  0  0  0  0
M  END
>  <minimizedAffinity>
-5.93178892

$$$$

 OpenBabel03252501263D

 35 38  0  0  0  0  0  0  0  0999 V2000
   40.6850   30.7970   40.3520 F   0  0  0  0  0  0  0  0  0  0  0  0
   39.5430   31.4950   40.2090 C   0  0  0  0  0  0  0  0  0  0  0  0
   38.3830   31.0040   40.7420 C   0  0  0  0  0  0  0  0  0  0  0  0
   37.1890   31.7160   40.6030 C   0  0  0  0  0  0  0  0  0  0  0  0
   37.1410   32.9140   39.9360 C   0  0  0  0  0  0  0  0  0  0  0  0
   38.3030   33.3900   39.4120 C   0  0  0  0  0  0  0  0  0  0  0  0
   39.4940   32.7100   39.5340 C   0  0  0  0  0  0  0  0  0  0  0  0
   36.2530   31.3470   41.0170 H   0  0  0  0  0  0  0  0  0  0  0  0
   36.2140   33.4750   39.8240 H   0  0  0  0  0  0  0  0  0  0  0  0
   38.3790   34.3310   38.8650 H   0  0  0  0  0  0  0  0  0  0  0  0
   40.4360   32.2540   36.8980 F   0  0  0  0  0  0  0  0  0  0  0  0
   41.2580   32.9430   37.7160 C   0  0  0  0  0  0  0  0  0  0  0  0
   40.7920   33.1600   38.9950 C   0  0  0  0  0  0  0  0  0  0  0  0
   41.5280   33.8580   39.9580 C   0  0  0  0  0  0  0  0  0  0  0  0
   41.2210   34.0550   40.9560 H   0  0  0  0  0  0  0  0  0  0  0  0
   42.7790   34.3290   39.5490 C   0  0  0  0  0  0  0  0  0  0  0  0
   43.3960   34.8810   40.2580 H   0  0  0  0  0  0  0  0  0  0  0  0
   43.2780   34.1320   38.2770 C   0  0  0  0  0  3  0  0  0  0  0  0
   42.5000   33.4300   37.3610 C   0  0  0  0  0  3  0  0  0  0  0  0
   38.0170   27.6430   41.7100 C   0  0  0  0  0  0  0  0  0  0  0  0
   38.2130   28.2440   42.9400 C   0  0  0  0  0  0  0  0  0  0  0  0
   38.3770   29.5800   42.7600 C   0  0  0  0  0  0  0  0  0  0  0  0
   38.2840   29.7990   41.4440 N   0  0  0  0  0  0  0  0  0  0  0  0
   38.0700   28.6350   40.8270 N   0  0  0  0  0  0  0  0  0  0  0  0
   38.2430   27.7920   43.9310 H   0  0  0  0  0  0  0  0  0  0  0  0
   38.5530   30.4050   43.4420 H   0  0  0  0  0  0  0  0  0  0  0  0
   36.6780   24.5050   40.3760 C   0  0  0  0  0  0  0  0  0  0  0  0
   37.4200   23.5330   41.0880 C   0  0  0  0  0  0  0  0  0  0  0  0
   38.3680   23.9730   42.0140 C   0  0  0  0  0  0  0  0  0  0  0  0
   38.5050   25.3060   42.1600 N   0  0  0  0  0  0  0  0  0  0  0  0
   37.8040   26.2250   41.4890 C   0  0  0  0  0  0  0  0  0  0  0  0
   36.8750   25.8250   40.5820 N   0  0  0  0  0  0  0  0  0  0  0  0
   35.9330   24.2060   39.6490 H   0  0  0  0  0  0  0  0  0  0  0  0
   37.2550   22.4760   40.9170 H   0  0  0  0  0  0  0  0  0  0  0  0
   38.9650   23.2730   42.5860 H   0  0  0  0  0  0  0  0  0  0  0  0
  2  1  1  0  0  0  0
  2  3  1  0  0  0  0
  3 23  1  0  0  0  0
  4  3  2  0  0  0  0
  4  8  1  0  0  0  0
  5  4  1  0  0  0  0
  6  7  1  0  0  0  0
  6  5  2  0  0  0  0
  7  2  2  0  0  0  0
  9  5  1  0  0  0  0
 10  6  1  0  0  0  0
 11 12  1  0  0  0  0
 12 13  1  0  0  0  0
 13  7  1  0  0  0  0
 13 14  2  0  0  0  0
 14 15  1  0  0  0  0
 16 14  1  0  0  0  0
 16 17  1  0  0  0  0
 18 16  2  0  0  0  0
 19 12  2  0  0  0  0
 19 18  1  0  0  0  0
 20 21  1  0  0  0  0
 21 25  1  0  0  0  0
 22 21  2  0  0  0  0
 22 26  1  0  0  0  0
 23 22  1  0  0  0  0
 24 23  1  0  0  0  0
 24 20  2  0  0  0  0
 27 32  2  0  0  0  0
 27 28  1  0  0  0  0
 28 29  2  0  0  0  0
 29 30  1  0  0  0  0
 29 35  1  0  0  0  0
 31 20  1  0  0  0  0
 31 30  2  0  0  0  0
 32 31  1  0  0  0  0
 33 27  1  0  0  0  0
 34 28  1  0  0  0  0
M  END
>  <minimizedAffinity>
-5.82048464

$$$$

 OpenBabel03252501263D

 35 38  0  0  0  0  0  0  0  0999 V2000
   38.0920   27.3440   39.6470 F   0  0  0  0  0  0  0  0  0  0  0  0
   37.5980   27.1470   40.8840 C   0  0  0  0  0  0  0  0  0  0  0  0
   37.2910   28.2270   41.6650 C   0  0  0  0  0  0  0  0  0  0  0  0
   36.7770   28.0420   42.9500 C   0  0  0  0  0  0  0  0  0  0  0  0
   36.5670   26.7880   43.4650 C   0  0  0  0  0  0  0  0  0  0  0  0
   36.8770   25.7240   42.6770 C   0  0  0  0  0  0  0  0  0  0  0  0
   37.3840   25.8770   41.4070 C   0  0  0  0  0  0  0  0  0  0  0  0
   36.5250   28.8840   43.5910 H   0  0  0  0  0  0  0  0  0  0  0  0
   36.1660   26.6350   44.4670 H   0  0  0  0  0  0  0  0  0  0  0  0
   36.7490   24.6850   42.9850 H   0  0  0  0  0  0  0  0  0  0  0  0
   35.5660   24.0470   40.2260 F   0  0  0  0  0  0  0  0  0  0  0  0
   36.8680   23.8800   39.9160 C   0  0  0  0  0  0  0  0  0  0  0  0
   37.7440   24.7740   40.4930 C   0  0  0  0  0  0  0  0  0  0  0  0
   39.1240   24.7310   40.2680 C   0  0  0  0  0  0  0  0  0  0  0  0
   39.8460   25.3910   40.6840 H   0  0  0  0  0  0  0  0  0  0  0  0
   39.5730   23.7190   39.4140 C   0  0  0  0  0  0  0  0  0  0  0  0
   40.6390   23.6380   39.2010 H   0  0  0  0  0  0  0  0  0  0  0  0
   38.7260   22.8070   38.8170 C   0  0  0  0  0  3  0  0  0  0  0  0
   37.3620   22.9000   39.0790 C   0  0  0  0  0  3  0  0  0  0  0  0
   38.5410   31.4040   40.8200 C   0  0  0  0  0  0  0  0  0  0  0  0
   37.1880   31.5960   40.6060 C   0  0  0  0  0  0  0  0  0  0  0  0
   36.5260   30.4450   40.8890 C   0  0  0  0  0  0  0  0  0  0  0  0
   37.4530   29.5590   41.2700 N   0  0  0  0  0  0  0  0  0  0  0  0
   38.6520   30.1440   41.2240 N   0  0  0  0  0  0  0  0  0  0  0  0
   36.6630   32.4900   40.2700 H   0  0  0  0  0  0  0  0  0  0  0  0
   35.4790   30.1620   40.8560 H   0  0  0  0  0  0  0  0  0  0  0  0
   41.7920   33.0900   40.9080 C   0  0  0  0  0  0  0  0  0  0  0  0
   41.5160   34.3130   40.2500 C   0  0  0  0  0  0  0  0  0  0  0  0
   40.2170   34.5360   39.7880 C   0  0  0  0  0  0  0  0  0  0  0  0
   39.3150   33.5580   40.0060 N   0  0  0  0  0  0  0  0  0  0  0  0
   39.5750   32.4040   40.6280 C   0  0  0  0  0  0  0  0  0  0  0  0
   40.8290   32.1600   41.0880 N   0  0  0  0  0  0  0  0  0  0  0  0
   42.7850   32.8780   41.2820 H   0  0  0  0  0  0  0  0  0  0  0  0
   42.2930   35.0540   40.1100 H   0  0  0  0  0  0  0  0  0  0  0  0
   39.9500   35.4530   39.2770 H   0  0  0  0  0  0  0  0  0  0  0  0
  1  2  1  0  0  0  0
  2  7  2  0  0  0  0
  2  3  1  0  0  0  0
  3  4  2  0  0  0  0
  4  5  1  0  0  0  0
  4  8  1  0  0  0  0
  5  9  1  0  0  0  0
  6 10  1  0  0  0  0
  6  5  2  0  0  0  0
  7  6  1  0  0  0  0
 12 11  1  0  0  0  0
 12 13  1  0  0  0  0
 13  7  1  0  0  0  0
 14 13  2  0  0  0  0
 14 15  1  0  0  0  0
 16 14  1  0  0  0  0
 17 16  1  0  0  0  0
 18 19  1  0  0  0  0
 18 16  2  0  0  0  0
 19 12  2  0  0  0  0
 20 24  2  0  0  0  0
 21 20  1  0  0  0  0
 21 22  2  0  0  0  0
 22 23  1  0  0  0  0
 23  3  1  0  0  0  0
 24 23  1  0  0  0  0
 25 21  1  0  0  0  0
 26 22  1  0  0  0  0
 27 32  1  0  0  0  0
 27 33  1  0  0  0  0
 28 27  2  0  0  0  0
 29 30  2  0  0  0  0
 29 28  1  0  0  0  0
 30 31  1  0  0  0  0
 31 20  1  0  0  0  0
 31 32  2  0  0  0  0
 34 28  1  0  0  0  0
 35 29  1  0  0  0  0
M  END
>  <minimizedAffinity>
-5.70530462

$$$$

 OpenBabel03252501263D

 35 38  0  0  0  0  0  0  0  0999 V2000
   39.2870   29.8900   40.9020 F   0  0  0  0  0  0  0  0  0  0  0  0
   38.3780   30.0570   39.9240 C   0  0  0  0  0  0  0  0  0  0  0  0
   38.5350   31.0780   39.0270 C   0  0  0  0  0  0  0  0  0  0  0  0
   37.6010   31.2650   38.0050 C   0  0  0  0  0  0  0  0  0  0  0  0
   36.5110   30.4440   37.8700 C   0  0  0  0  0  0  0  0  0  0  0  0
   36.3680   29.4340   38.7690 C   0  0  0  0  0  0  0  0  0  0  0  0
   37.2730   29.2250   39.7860 C   0  0  0  0  0  0  0  0  0  0  0  0
   37.7030   32.0700   37.2800 H   0  0  0  0  0  0  0  0  0  0  0  0
   35.7780   30.5840   37.0760 H   0  0  0  0  0  0  0  0  0  0  0  0
   35.5410   28.7220   38.7540 H   0  0  0  0  0  0  0  0  0  0  0  0
   36.7770   29.5990   42.5530 F   0  0  0  0  0  0  0  0  0  0  0  0
   36.9470   28.3250   42.1430 C   0  0  0  0  0  0  0  0  0  0  0  0
   37.1870   28.1530   40.7970 C   0  0  0  0  0  0  0  0  0  0  0  0
   37.3840   26.8940   40.2210 C   0  0  0  0  0  0  0  0  0  0  0  0
   37.5730   26.7000   39.1930 H   0  0  0  0  0  0  0  0  0  0  0  0
   37.3230   25.8050   41.0960 C   0  0  0  0  0  0  0  0  0  0  0  0
   37.4680   24.7990   40.7020 H   0  0  0  0  0  0  0  0  0  0  0  0
   37.0840   25.9380   42.4480 C   0  0  0  0  0  3  0  0  0  0  0  0
   36.8960   27.2170   42.9650 C   0  0  0  0  0  3  0  0  0  0  0  0
   41.6240   32.7210   38.6730 C   0  0  0  0  0  0  0  0  0  0  0  0
   40.8840   33.7000   39.3110 C   0  0  0  0  0  0  0  0  0  0  0  0
   39.6300   33.2330   39.5350 C   0  0  0  0  0  0  0  0  0  0  0  0
   39.5960   31.9890   39.0460 N   0  0  0  0  0  0  0  0  0  0  0  0
   40.7920   31.6950   38.5330 N   0  0  0  0  0  0  0  0  0  0  0  0
   41.1860   34.7020   39.6160 H   0  0  0  0  0  0  0  0  0  0  0  0
   38.7480   33.6640   39.9980 H   0  0  0  0  0  0  0  0  0  0  0  0
   45.0570   33.9670   38.3900 C   0  0  0  0  0  0  0  0  0  0  0  0
   45.6370   33.0520   37.4790 C   0  0  0  0  0  0  0  0  0  0  0  0
   44.8370   32.0220   36.9780 C   0  0  0  0  0  0  0  0  0  0  0  0
   43.5590   31.9790   37.4070 N   0  0  0  0  0  0  0  0  0  0  0  0
   43.0110   32.8430   38.2660 C   0  0  0  0  0  0  0  0  0  0  0  0
   43.7660   33.8540   38.7690 N   0  0  0  0  0  0  0  0  0  0  0  0
   45.6420   34.7800   38.8020 H   0  0  0  0  0  0  0  0  0  0  0  0
   46.6730   33.1490   37.1800 H   0  0  0  0  0  0  0  0  0  0  0  0
   45.2280   31.2930   36.2790 H   0  0  0  0  0  0  0  0  0  0  0  0
  2  1  1  0  0  0  0
  3 23  1  0  0  0  0
  3  2  2  0  0  0  0
  4  3  1  0  0  0  0
  5  4  2  0  0  0  0
  5  6  1  0  0  0  0
  6  7  2  0  0  0  0
  7  2  1  0  0  0  0
  7 13  1  0  0  0  0
  8  4  1  0  0  0  0
  9  5  1  0  0  0  0
 10  6  1  0  0  0  0
 12 11  1  0  0  0  0
 12 19  1  0  0  0  0
 13 12  2  0  0  0  0
 14 13  1  0  0  0  0
 14 16  2  0  0  0  0
 15 14  1  0  0  0  0
 16 18  1  0  0  0  0
 17 16  1  0  0  0  0
 18 19  2  0  0  0  0
 20 21  1  0  0  0  0
 21 22  2  0  0  0  0
 21 25  1  0  0  0  0
 22 26  1  0  0  0  0
 23 22  1  0  0  0  0
 24 20  2  0  0  0  0
 24 23  1  0  0  0  0
 27 32  1  0  0  0  0
 27 33  1  0  0  0  0
 28 27  2  0  0  0  0
 29 30  2  0  0  0  0
 29 28  1  0  0  0  0
 30 31  1  0  0  0  0
 31 20  1  0  0  0  0
 31 32  2  0  0  0  0
 34 28  1  0  0  0  0
 35 29  1  0  0  0  0
M  END
>  <minimizedAffinity>
-5.69386244

$$$$
