
 OpenBabel03252507263D

 27 29  0  0  0  0  0  0  0  0999 V2000
   45.6020   33.9680   45.5540 C   0  0  0  0  0  0  0  0  0  0  0  0
   44.6880   34.9940   45.7970 C   0  0  0  0  0  0  0  0  0  0  0  0
   44.4640   35.9320   44.7620 C   0  0  0  0  0  0  0  0  0  0  0  0
   45.1480   35.7960   43.5740 N   0  0  0  0  0  0  0  0  0  0  0  0
   46.0180   34.7770   43.4130 C   0  0  0  0  0  0  0  0  0  0  0  0
   46.2380   33.8890   44.3730 N   0  0  0  0  0  0  0  0  0  0  0  0
   44.1570   35.1100   46.7040 H   0  0  0  0  0  0  0  0  0  0  0  0
   43.7910   36.7530   44.8390 H   0  0  0  0  0  0  0  0  0  0  0  0
   46.7260   34.6580   42.1450 C   0  0  0  0  0  0  0  0  0  0  0  0
   47.9400   35.3080   41.9580 C   0  0  0  0  0  0  0  0  0  0  0  0
   48.6840   35.2580   40.7980 C   0  0  0  0  0  0  0  0  0  0  0  0
   48.1250   34.4870   39.7870 C   0  0  0  0  0  0  0  0  0  0  0  0
   46.9160   33.8280   39.9460 C   0  0  0  0  0  0  0  0  0  0  0  0
   46.2420   33.9310   41.1340 N   0  0  0  0  0  0  0  0  0  0  0  0
   48.3050   35.8880   42.7970 H   0  0  0  0  0  0  0  0  0  0  0  0
   49.6190   35.7730   40.6870 H   0  0  0  0  0  0  0  0  0  0  0  0
   48.6310   34.3830   38.8350 H   0  0  0  0  0  0  0  0  0  0  0  0
   46.5340   33.2430   39.1220 H   0  0  0  0  0  0  0  0  0  0  0  0
   47.5800   32.0550   45.2330 F   0  0  0  0  0  0  0  0  0  0  0  0
   46.8680   32.0320   46.3870 C   0  0  0  0  0  0  0  0  0  0  0  0
   45.8750   32.9710   46.5790 C   0  0  0  0  0  0  0  0  0  0  0  0
   45.2160   32.8610   47.7780 C   0  0  0  0  0  0  0  0  0  0  0  0
   44.4270   33.5600   48.0000 H   0  0  0  0  0  0  0  0  0  0  0  0
   45.5100   31.8970   48.7200 C   0  0  0  0  0  0  0  0  0  0  0  0
   44.9390   31.8770   49.6490 H   0  0  0  0  0  0  0  0  0  0  0  0
   46.5160   30.9810   48.4750 C   0  0  0  0  0  3  0  0  0  0  0  0
   47.2120   31.0440   47.2870 C   0  0  0  0  0  3  0  0  0  0  0  0
  1  2  1  0  0  0  0
  1 21  1  0  0  0  0
  2  7  1  0  0  0  0
  3  8  1  0  0  0  0
  3  2  2  0  0  0  0
  4  3  1  0  0  0  0
  5  4  2  0  0  0  0
  5  6  1  0  0  0  0
  6  1  2  0  0  0  0
  9  5  1  0  0  0  0
 10  9  1  0  0  0  0
 10 15  1  0  0  0  0
 11 10  2  0  0  0  0
 12 13  2  0  0  0  0
 12 11  1  0  0  0  0
 13 14  1  0  0  0  0
 14  9  2  0  0  0  0
 16 11  1  0  0  0  0
 17 12  1  0  0  0  0
 18 13  1  0  0  0  0
 19 20  1  0  0  0  0
 20 21  2  0  0  0  0
 20 27  1  0  0  0  0
 21 22  1  0  0  0  0
 22 23  1  0  0  0  0
 22 24  2  0  0  0  0
 24 25  1  0  0  0  0
 26 24  1  0  0  0  0
 27 26  2  0  0  0  0
M  END
>  <minimizedAffinity>
-6.5048871

>  <minimizedRMSD>
0.693923175

$$$$
