
 OpenBabel03252508393D

 41 44  0  0  0  0  0  0  0  0999 V2000
   45.1500   33.9610   40.7230 C   0  0  0  0  0  0  0  0  0  0  0  0
   44.1080   33.6250   39.9120 C   0  0  0  0  0  0  0  0  0  0  0  0
   44.4070   33.1120   38.6770 C   0  0  0  0  0  0  0  0  0  0  0  0
   45.6930   32.9190   38.2160 C   0  0  0  0  0  0  0  0  0  0  0  0
   46.7210   33.2670   39.0570 C   0  0  0  0  0  0  0  0  0  0  0  0
   46.4680   33.7880   40.3110 C   0  0  0  0  0  0  0  0  0  0  0  0
   43.5860   32.8420   38.0240 H   0  0  0  0  0  0  0  0  0  0  0  0
   45.9090   32.5110   37.2350 H   0  0  0  0  0  0  0  0  0  0  0  0
   47.7360   33.1130   38.6920 H   0  0  0  0  0  0  0  0  0  0  0  0
   40.8290   35.2670   40.8000 C   0  0  0  0  0  0  0  0  0  0  0  0
   42.1260   35.0850   40.2890 C   0  0  0  0  0  0  0  0  0  0  0  0
   42.7710   33.8410   40.4290 C   0  0  0  0  0  0  0  0  0  0  0  0
   42.0560   32.8960   41.0670 N   0  0  0  0  0  0  0  0  0  0  0  0
   40.8320   33.0790   41.5460 C   0  0  0  0  0  0  0  0  0  0  0  0
   40.2150   34.2590   41.4150 N   0  0  0  0  0  0  0  0  0  0  0  0
   40.2300   36.5430   40.6290 N   0  0  0  0  0  0  0  0  0  0  0  0
   42.6540   35.8900   39.7810 H   0  0  0  0  0  0  0  0  0  0  0  0
   40.3480   32.2370   42.0470 H   0  0  0  0  0  0  0  0  0  0  0  0
   39.8040   36.9220   39.7540 H   0  0  0  0  0  0  0  0  0  0  0  0
   40.0960   37.3240   41.3060 H   0  0  0  0  0  0  0  0  0  0  0  0
   47.6210   34.1250   41.1200 C   0  0  0  0  0  0  0  0  0  0  0  0
   48.1360   35.3890   40.9300 C   0  0  0  0  0  0  0  0  0  0  0  0
   49.2410   35.8920   41.6150 C   0  0  0  0  0  0  0  0  0  0  0  0
   49.8470   35.0610   42.5400 C   0  0  0  0  0  0  0  0  0  0  0  0
   49.3530   33.7890   42.7520 C   0  0  0  0  0  0  0  0  0  0  0  0
   48.2540   33.3390   42.0450 C   0  0  0  0  0  0  0  0  0  0  0  0
   47.7080   36.0920   40.2170 H   0  0  0  0  0  0  0  0  0  0  0  0
   49.6430   36.8750   41.4690 H   0  0  0  0  0  0  0  0  0  0  0  0
   50.7100   35.3280   43.1390 H   0  0  0  0  0  0  0  0  0  0  0  0
   49.7690   33.0800   43.4570 H   0  0  0  0  0  0  0  0  0  0  0  0
   46.8720   32.9770   44.3590 F   0  0  0  0  0  0  0  0  0  0  0  0
   47.0270   31.9350   43.4760 C   0  0  0  0  0  0  0  0  0  0  0  0
   47.7150   32.0010   42.2580 C   0  0  0  0  0  0  0  0  0  0  0  0
   47.7820   30.8570   41.4780 C   0  0  0  0  0  0  0  0  0  0  0  0
   48.3280   31.0230   40.5810 H   0  0  0  0  0  0  0  0  0  0  0  0
   47.1750   29.7080   41.9270 C   0  0  0  0  0  0  0  0  0  0  0  0
   47.2800   28.8620   41.2480 H   0  0  0  0  0  0  0  0  0  0  0  0
   46.5000   29.6510   43.1270 C   0  0  0  0  0  3  0  0  0  0  0  0
   46.4210   30.7940   43.9290 C   0  0  0  0  0  3  0  0  0  0  0  0
   44.7430   34.9510   43.1010 N   0  0  0  0  0  0  0  0  0  0  0  0
   44.9360   34.5090   42.0370 C   0  0  0  0  0  0  0  0  0  0  0  0
  1 41  1  0  0  0  0
  2 12  1  0  0  0  0
  2  1  2  0  0  0  0
  3  2  1  0  0  0  0
  4  3  2  0  0  0  0
  4  5  1  0  0  0  0
  5  6  2  0  0  0  0
  6  1  1  0  0  0  0
  6 21  1  0  0  0  0
  7  3  1  0  0  0  0
  8  4  1  0  0  0  0
  9  5  1  0  0  0  0
 10 15  1  0  0  0  0
 11 12  1  0  0  0  0
 11 10  2  0  0  0  0
 12 13  2  0  0  0  0
 13 14  1  0  0  0  0
 14 18  1  0  0  0  0
 15 14  2  0  0  0  0
 16 10  1  0  0  0  0
 16 20  1  0  0  0  0
 17 11  1  0  0  0  0
 19 16  1  0  0  0  0
 21 26  1  0  0  0  0
 22 21  2  0  0  0  0
 22 23  1  0  0  0  0
 23 24  2  0  0  0  0
 24 25  1  0  0  0  0
 24 29  1  0  0  0  0
 25 30  1  0  0  0  0
 26 33  1  0  0  0  0
 26 25  2  0  0  0  0
 27 22  1  0  0  0  0
 28 23  1  0  0  0  0
 32 39  1  0  0  0  0
 32 31  1  0  0  0  0
 33 32  2  0  0  0  0
 34 36  2  0  0  0  0
 34 33  1  0  0  0  0
 35 34  1  0  0  0  0
 36 38  1  0  0  0  0
 37 36  1  0  0  0  0
 38 39  2  0  0  0  0
 41 40  3  0  0  0  0
M  END
>  <minimizedAffinity>
-6.20139837

>  <minimizedRMSD>
0.728056133

$$$$
