
 OpenBabel03242521063D

 34 37  0  0  1  0  0  0  0  0999 V2000
   39.2570   32.0630   40.8830 C   0  0  0  0  0  0  0  0  0  0  0  0
   38.2230   32.7120   40.2200 C   0  0  0  0  0  0  0  0  0  0  0  0
   36.9370   32.2390   40.1220 C   0  0  0  0  0  0  0  0  0  0  0  0
   36.6240   31.0380   40.7130 C   0  0  0  0  0  0  0  0  0  0  0  0
   37.6620   30.4110   41.3650 C   0  0  0  0  0  0  0  0  0  0  0  0
   38.8970   30.9000   41.4400 N   0  0  0  0  0  0  0  0  0  0  0  0
   38.4120   33.6620   39.7360 H   0  0  0  0  0  0  0  0  0  0  0  0
   36.1640   32.7880   39.5900 H   0  0  0  0  0  0  0  0  0  0  0  0
   35.6100   30.6870   40.6230 H   0  0  0  0  0  0  0  0  0  0  0  0
   42.3820   34.1300   40.4810 C   0  0  0  0  0  0  0  0  0  0  0  0
   41.0370   33.7430   40.2940 C   0  0  0  0  0  0  0  0  0  0  0  0
   40.6070   32.6090   40.9580 C   0  0  0  0  0  0  0  0  0  0  0  0
   41.4850   31.9340   41.7460 N   0  0  0  0  0  0  0  0  0  0  0  0
   42.7750   32.3340   41.9040 C   0  0  0  0  0  0  0  0  0  0  0  0
   43.1930   33.4390   41.2560 N   0  0  0  0  0  0  0  0  0  0  0  0
   42.6940   35.0230   39.9470 H   0  0  0  0  0  0  0  0  0  0  0  0
   40.3160   34.2590   39.6730 H   0  0  0  0  0  0  0  0  0  0  0  0
   43.3710   31.7070   42.5600 H   0  0  0  0  0  0  0  0  0  0  0  0
   37.3620   29.1010   42.0220 C   0  0  2  0  0  0  0  0  0  0  0  0
   37.7960   28.9970   43.4590 C   0  0  0  0  0  0  0  0  0  0  0  0
   38.4660   28.2180   42.3550 C   0  0  1  0  0  0  0  0  0  0  0  0
   36.3550   28.6600   41.8330 H   0  0  0  0  0  0  0  0  0  0  0  0
   38.4180   29.8010   43.8900 H   0  0  0  0  0  0  0  0  0  0  0  0
   37.1880   28.4050   44.1670 H   0  0  0  0  0  0  0  0  0  0  0  0
   39.4700   28.5250   41.9990 H   0  0  0  0  0  0  0  0  0  0  0  0
   40.4350   26.5540   43.2910 F   0  0  0  0  0  0  0  0  0  0  0  0
   39.2920   26.0270   42.7710 C   0  0  0  0  0  0  0  0  0  0  0  0
   38.2200   26.7530   42.2640 C   0  0  0  0  0  0  0  0  0  0  0  0
   37.1120   26.1020   41.7610 C   0  0  0  0  0  0  0  0  0  0  0  0
   36.3320   26.7830   41.3890 H   0  0  0  0  0  0  0  0  0  0  0  0
   37.0720   24.7230   41.7640 C   0  0  0  0  0  0  0  0  0  0  0  0
   36.1800   24.2680   41.3580 H   0  0  0  0  0  0  0  0  0  0  0  0
   38.1440   24.0190   42.2700 C   0  0  0  0  0  3  0  0  0  0  0  0
   39.2780   24.6270   42.7860 C   0  0  0  0  0  3  0  0  0  0  0  0
  1 12  1  0  0  0  0
  1  6  1  0  0  0  0
  2  1  2  0  0  0  0
  3  2  1  0  0  0  0
  3  4  2  0  0  0  0
  4  5  1  0  0  0  0
  5  6  2  0  0  0  0
  5 19  1  0  0  0  0
  7  2  1  0  0  0  0
  8  3  1  0  0  0  0
  9  4  1  0  0  0  0
 10 15  1  0  0  0  0
 11 10  2  0  0  0  0
 11 12  1  0  0  0  0
 12 13  2  0  0  0  0
 13 14  1  0  0  0  0
 14 18  1  0  0  0  0
 15 14  2  0  0  0  0
 16 10  1  0  0  0  0
 17 11  1  0  0  0  0
 19 22  1  6  0  0  0
 19 21  1  0  0  0  0
 19 20  1  0  0  0  0
 20 23  1  0  0  0  0
 20 24  1  0  0  0  0
 21 25  1  6  0  0  0
 21 20  1  0  0  0  0
 27 34  1  0  0  0  0
 27 26  1  0  0  0  0
 28 21  1  0  0  0  0
 28 27  2  0  0  0  0
 29 31  2  0  0  0  0
 29 28  1  0  0  0  0
 30 29  1  0  0  0  0
 31 33  1  0  0  0  0
 32 31  1  0  0  0  0
 33 34  2  0  0  0  0
M  END
>  <minimizedAffinity>
-5.9111948

$$$$

 OpenBabel03242521063D

 34 37  0  0  1  0  0  0  0  0999 V2000
   39.1730   31.5330   38.7640 C   0  0  0  0  0  0  0  0  0  0  0  0
   38.5780   32.6580   39.3190 C   0  0  0  0  0  0  0  0  0  0  0  0
   37.3800   32.6580   39.9930 C   0  0  0  0  0  0  0  0  0  0  0  0
   36.7010   31.4720   40.1400 C   0  0  0  0  0  0  0  0  0  0  0  0
   37.3080   30.3690   39.5820 C   0  0  0  0  0  0  0  0  0  0  0  0
   38.4700   30.4070   38.9370 N   0  0  0  0  0  0  0  0  0  0  0  0
   39.0680   33.6200   39.2340 H   0  0  0  0  0  0  0  0  0  0  0  0
   36.9580   33.5690   40.4090 H   0  0  0  0  0  0  0  0  0  0  0  0
   35.7640   31.4960   40.6710 H   0  0  0  0  0  0  0  0  0  0  0  0
   42.3970   32.6080   37.1340 C   0  0  0  0  0  0  0  0  0  0  0  0
   41.1800   32.7390   37.8390 C   0  0  0  0  0  0  0  0  0  0  0  0
   40.4480   31.5870   38.0580 C   0  0  0  0  0  0  0  0  0  0  0  0
   40.9280   30.4040   37.5930 N   0  0  0  0  0  0  0  0  0  0  0  0
   42.1050   30.3120   36.9170 C   0  0  0  0  0  0  0  0  0  0  0  0
   42.8170   31.4350   36.7040 N   0  0  0  0  0  0  0  0  0  0  0  0
   42.9510   33.5280   36.9760 H   0  0  0  0  0  0  0  0  0  0  0  0
   40.7730   33.6670   38.2200 H   0  0  0  0  0  0  0  0  0  0  0  0
   42.3730   29.3090   36.6000 H   0  0  0  0  0  0  0  0  0  0  0  0
   36.6010   29.0590   39.7220 C   0  0  2  0  0  0  0  0  0  0  0  0
   35.4740   29.0480   40.7200 C   0  0  0  0  0  0  0  0  0  0  0  0
   36.7660   28.3030   40.9520 C   0  0  1  0  0  0  0  0  0  0  0  0
   36.3590   28.5110   38.7800 H   0  0  0  0  0  0  0  0  0  0  0  0
   35.3310   29.9250   41.3750 H   0  0  0  0  0  0  0  0  0  0  0  0
   34.5850   28.4210   40.5260 H   0  0  0  0  0  0  0  0  0  0  0  0
   37.5020   28.6990   41.6800 H   0  0  0  0  0  0  0  0  0  0  0  0
   37.1910   26.8830   43.2580 F   0  0  0  0  0  0  0  0  0  0  0  0
   36.9890   26.2240   42.0840 C   0  0  0  0  0  0  0  0  0  0  0  0
   36.7630   26.8190   40.8470 C   0  0  0  0  0  0  0  0  0  0  0  0
   36.5730   26.0410   39.7240 C   0  0  0  0  0  0  0  0  0  0  0  0
   36.4030   26.6260   38.8070 H   0  0  0  0  0  0  0  0  0  0  0  0
   36.6070   24.6670   39.8310 C   0  0  0  0  0  0  0  0  0  0  0  0
   36.4500   24.1090   38.9200 H   0  0  0  0  0  0  0  0  0  0  0  0
   36.8320   24.0940   41.0650 C   0  0  0  0  0  3  0  0  0  0  0  0
   37.0300   24.8310   42.2220 C   0  0  0  0  0  3  0  0  0  0  0  0
  1  6  2  0  0  0  0
  1  2  1  0  0  0  0
  2  3  2  0  0  0  0
  3  4  1  0  0  0  0
  3  8  1  0  0  0  0
  4  9  1  0  0  0  0
  5 19  1  0  0  0  0
  5  4  2  0  0  0  0
  6  5  1  0  0  0  0
  7  2  1  0  0  0  0
 10 11  1  0  0  0  0
 11 12  2  0  0  0  0
 11 17  1  0  0  0  0
 12  1  1  0  0  0  0
 13 12  1  0  0  0  0
 14 13  2  0  0  0  0
 15 14  1  0  0  0  0
 15 10  2  0  0  0  0
 16 10  1  0  0  0  0
 18 14  1  0  0  0  0
 19 22  1  6  0  0  0
 19 20  1  0  0  0  0
 19 21  1  0  0  0  0
 20 21  1  0  0  0  0
 20 23  1  0  0  0  0
 21 25  1  1  0  0  0
 24 20  1  0  0  0  0
 27 34  1  0  0  0  0
 27 26  1  0  0  0  0
 28 21  1  0  0  0  0
 28 27  2  0  0  0  0
 29 31  2  0  0  0  0
 29 28  1  0  0  0  0
 30 29  1  0  0  0  0
 31 33  1  0  0  0  0
 32 31  1  0  0  0  0
 33 34  2  0  0  0  0
M  END
>  <minimizedAffinity>
-5.86115026

$$$$

 OpenBabel03242521063D

 34 37  0  0  1  0  0  0  0  0999 V2000
   38.5800   24.9690   41.9550 C   0  0  0  0  0  0  0  0  0  0  0  0
   39.5860   24.4740   42.7740 C   0  0  0  0  0  0  0  0  0  0  0  0
   40.3530   25.2370   43.6210 C   0  0  0  0  0  0  0  0  0  0  0  0
   40.1300   26.5920   43.6790 C   0  0  0  0  0  0  0  0  0  0  0  0
   39.1300   27.0640   42.8590 C   0  0  0  0  0  0  0  0  0  0  0  0
   38.4060   26.2940   42.0510 N   0  0  0  0  0  0  0  0  0  0  0  0
   39.8050   23.4140   42.7700 H   0  0  0  0  0  0  0  0  0  0  0  0
   41.1290   24.7990   44.2420 H   0  0  0  0  0  0  0  0  0  0  0  0
   40.7440   27.1710   44.3490 H   0  0  0  0  0  0  0  0  0  0  0  0
   35.9160   23.4800   39.7440 C   0  0  0  0  0  0  0  0  0  0  0  0
   36.5360   24.4260   40.5890 C   0  0  0  0  0  0  0  0  0  0  0  0
   37.7930   24.1150   41.0730 C   0  0  0  0  0  0  0  0  0  0  0  0
   38.3610   22.9320   40.7180 N   0  0  0  0  0  0  0  0  0  0  0  0
   37.7360   22.0420   39.9020 C   0  0  0  0  0  0  0  0  0  0  0  0
   36.5120   22.3470   39.4310 N   0  0  0  0  0  0  0  0  0  0  0  0
   34.9300   23.7500   39.3780 H   0  0  0  0  0  0  0  0  0  0  0  0
   36.1090   25.3750   40.8890 H   0  0  0  0  0  0  0  0  0  0  0  0
   38.2990   21.1360   39.6970 H   0  0  0  0  0  0  0  0  0  0  0  0
   38.8560   28.5330   42.8930 C   0  0  2  0  0  0  0  0  0  0  0  0
   37.4790   28.9120   43.3690 C   0  0  0  0  0  0  0  0  0  0  0  0
   37.9160   29.0920   41.9370 C   0  0  1  0  0  0  0  0  0  0  0  0
   39.6590   29.1880   43.3060 H   0  0  0  0  0  0  0  0  0  0  0  0
   36.7270   28.1180   43.5190 H   0  0  0  0  0  0  0  0  0  0  0  0
   37.3440   29.8410   43.9510 H   0  0  0  0  0  0  0  0  0  0  0  0
   37.5340   28.4010   41.1570 H   0  0  0  0  0  0  0  0  0  0  0  0
   35.8890   30.3560   40.5900 F   0  0  0  0  0  0  0  0  0  0  0  0
   37.0780   30.9910   40.7770 C   0  0  0  0  0  0  0  0  0  0  0  0
   38.1840   30.4680   41.4390 C   0  0  0  0  0  0  0  0  0  0  0  0
   39.3390   31.2120   41.5630 C   0  0  0  0  0  0  0  0  0  0  0  0
   40.1420   30.6910   42.1060 H   0  0  0  0  0  0  0  0  0  0  0  0
   39.3940   32.4820   41.0290 C   0  0  0  0  0  0  0  0  0  0  0  0
   40.3220   33.0180   41.1570 H   0  0  0  0  0  0  0  0  0  0  0  0
   38.2880   32.9860   40.3760 C   0  0  0  0  0  3  0  0  0  0  0  0
   37.1060   32.2780   40.2240 C   0  0  0  0  0  3  0  0  0  0  0  0
  1  6  2  0  0  0  0
  1  2  1  0  0  0  0
  2  3  2  0  0  0  0
  3  4  1  0  0  0  0
  3  8  1  0  0  0  0
  4  9  1  0  0  0  0
  5 19  1  0  0  0  0
  5  4  2  0  0  0  0
  6  5  1  0  0  0  0
  7  2  1  0  0  0  0
 10 11  1  0  0  0  0
 11 17  1  0  0  0  0
 11 12  2  0  0  0  0
 12  1  1  0  0  0  0
 13 12  1  0  0  0  0
 14 13  2  0  0  0  0
 15 10  2  0  0  0  0
 15 14  1  0  0  0  0
 16 10  1  0  0  0  0
 18 14  1  0  0  0  0
 19 22  1  1  0  0  0
 19 20  1  0  0  0  0
 20 23  1  0  0  0  0
 20 24  1  0  0  0  0
 21 25  1  6  0  0  0
 21 19  1  0  0  0  0
 21 20  1  0  0  0  0
 26 27  1  0  0  0  0
 27 28  1  0  0  0  0
 28 29  2  0  0  0  0
 28 21  1  0  0  0  0
 29 30  1  0  0  0  0
 31 32  1  0  0  0  0
 31 29  1  0  0  0  0
 33 31  2  0  0  0  0
 34 33  1  0  0  0  0
 34 27  2  0  0  0  0
M  END
>  <minimizedAffinity>
-5.86019754

$$$$

 OpenBabel03242521063D

 34 37  0  0  1  0  0  0  0  0999 V2000
   38.0570   25.9800   41.7280 C   0  0  0  0  0  0  0  0  0  0  0  0
   38.8470   25.8810   42.8660 C   0  0  0  0  0  0  0  0  0  0  0  0
   39.1840   26.9360   43.6800 C   0  0  0  0  0  0  0  0  0  0  0  0
   38.7180   28.1910   43.3660 C   0  0  0  0  0  0  0  0  0  0  0  0
   37.9370   28.2680   42.2350 C   0  0  0  0  0  0  0  0  0  0  0  0
   37.6310   27.2230   41.4710 N   0  0  0  0  0  0  0  0  0  0  0  0
   39.2410   24.9170   43.1610 H   0  0  0  0  0  0  0  0  0  0  0  0
   39.8060   26.8040   44.5600 H   0  0  0  0  0  0  0  0  0  0  0  0
   38.9950   29.0030   44.0180 H   0  0  0  0  0  0  0  0  0  0  0  0
   37.7480   22.5380   40.2240 C   0  0  0  0  0  0  0  0  0  0  0  0
   38.1630   23.5360   41.1330 C   0  0  0  0  0  0  0  0  0  0  0  0
   37.7280   24.8270   40.8980 C   0  0  0  0  0  0  0  0  0  0  0  0
   36.9340   25.0690   39.8220 N   0  0  0  0  0  0  0  0  0  0  0  0
   36.5530   24.0840   38.9640 C   0  0  0  0  0  0  0  0  0  0  0  0
   36.9780   22.8270   39.1950 N   0  0  0  0  0  0  0  0  0  0  0  0
   38.1050   21.5340   40.4310 H   0  0  0  0  0  0  0  0  0  0  0  0
   38.7950   23.3740   41.9970 H   0  0  0  0  0  0  0  0  0  0  0  0
   35.9190   24.4110   38.1450 H   0  0  0  0  0  0  0  0  0  0  0  0
   37.4110   29.6160   41.8600 C   0  0  2  0  0  0  0  0  0  0  0  0
   36.2220   29.6010   40.9380 C   0  0  0  0  0  0  0  0  0  0  0  0
   37.5830   30.0780   40.4940 C   0  0  1  0  0  0  0  0  0  0  0  0
   37.3240   30.3700   42.6780 H   0  0  0  0  0  0  0  0  0  0  0  0
   35.9070   28.6440   40.4870 H   0  0  0  0  0  0  0  0  0  0  0  0
   35.4480   30.3820   41.0400 H   0  0  0  0  0  0  0  0  0  0  0  0
   38.1970   29.4380   39.8290 H   0  0  0  0  0  0  0  0  0  0  0  0
   39.8930   31.1630   41.4960 F   0  0  0  0  0  0  0  0  0  0  0  0
   39.0010   31.9550   40.8420 C   0  0  0  0  0  0  0  0  0  0  0  0
   37.7960   31.5370   40.2870 C   0  0  0  0  0  0  0  0  0  0  0  0
   36.9710   32.4390   39.6470 C   0  0  0  0  0  0  0  0  0  0  0  0
   36.0490   31.9880   39.2510 H   0  0  0  0  0  0  0  0  0  0  0  0
   37.3480   33.7620   39.5570 C   0  0  0  0  0  0  0  0  0  0  0  0
   36.6640   34.4230   39.0450 H   0  0  0  0  0  0  0  0  0  0  0  0
   38.5460   34.1610   40.1130 C   0  0  0  0  0  3  0  0  0  0  0  0
   39.4070   33.2930   40.7660 C   0  0  0  0  0  3  0  0  0  0  0  0
  1  2  1  0  0  0  0
  2  7  1  0  0  0  0
  2  3  2  0  0  0  0
  3  8  1  0  0  0  0
  4  3  1  0  0  0  0
  4  9  1  0  0  0  0
  5  4  2  0  0  0  0
  6  1  2  0  0  0  0
  6  5  1  0  0  0  0
 10 16  1  0  0  0  0
 10 11  1  0  0  0  0
 11 17  1  0  0  0  0
 12 11  2  0  0  0  0
 12  1  1  0  0  0  0
 13 12  1  0  0  0  0
 14 15  1  0  0  0  0
 14 13  2  0  0  0  0
 15 10  2  0  0  0  0
 18 14  1  0  0  0  0
 19  5  1  0  0  0  0
 19 22  1  1  0  0  0
 20 24  1  0  0  0  0
 20 19  1  0  0  0  0
 21 25  1  6  0  0  0
 21 20  1  0  0  0  0
 21 19  1  0  0  0  0
 23 20  1  0  0  0  0
 27 26  1  0  0  0  0
 28 21  1  0  0  0  0
 28 27  2  0  0  0  0
 29 28  1  0  0  0  0
 30 29  1  0  0  0  0
 31 29  2  0  0  0  0
 31 33  1  0  0  0  0
 32 31  1  0  0  0  0
 33 34  2  0  0  0  0
 34 27  1  0  0  0  0
M  END
>  <minimizedAffinity>
-5.6038537

$$$$

 OpenBabel03242521063D

 34 37  0  0  1  0  0  0  0  0999 V2000
   39.1580   31.4810   39.1720 C   0  0  0  0  0  0  0  0  0  0  0  0
   38.1070   32.3890   39.1620 C   0  0  0  0  0  0  0  0  0  0  0  0
   36.9620   32.2690   39.9120 C   0  0  0  0  0  0  0  0  0  0  0  0
   36.8200   31.1800   40.7390 C   0  0  0  0  0  0  0  0  0  0  0  0
   37.8720   30.2910   40.7340 C   0  0  0  0  0  0  0  0  0  0  0  0
   38.9670   30.4400   39.9940 N   0  0  0  0  0  0  0  0  0  0  0  0
   38.1650   33.2660   38.5300 H   0  0  0  0  0  0  0  0  0  0  0  0
   36.1680   33.0100   39.8670 H   0  0  0  0  0  0  0  0  0  0  0  0
   35.9140   31.1070   41.3170 H   0  0  0  0  0  0  0  0  0  0  0  0
   42.0790   32.8580   37.2290 C   0  0  0  0  0  0  0  0  0  0  0  0
   40.9160   32.8750   38.0310 C   0  0  0  0  0  0  0  0  0  0  0  0
   40.3540   31.6540   38.3560 C   0  0  0  0  0  0  0  0  0  0  0  0
   40.9370   30.5170   37.8950 N   0  0  0  0  0  0  0  0  0  0  0  0
   42.0570   30.5360   37.1230 C   0  0  0  0  0  0  0  0  0  0  0  0
   42.6040   31.7260   36.8080 N   0  0  0  0  0  0  0  0  0  0  0  0
   42.4990   33.8300   36.9890 H   0  0  0  0  0  0  0  0  0  0  0  0
   40.4300   33.7640   38.4130 H   0  0  0  0  0  0  0  0  0  0  0  0
   42.4210   29.5580   36.8210 H   0  0  0  0  0  0  0  0  0  0  0  0
   37.7560   29.0930   41.6210 C   0  0  2  0  0  0  0  0  0  0  0  0
   37.9770   29.3630   43.0850 C   0  0  0  0  0  0  0  0  0  0  0  0
   38.9560   28.5730   42.2520 C   0  0  1  0  0  0  0  0  0  0  0  0
   36.9040   28.4000   41.4250 H   0  0  0  0  0  0  0  0  0  0  0  0
   38.3440   30.3560   43.3970 H   0  0  0  0  0  0  0  0  0  0  0  0
   37.4070   28.7860   43.8340 H   0  0  0  0  0  0  0  0  0  0  0  0
   39.9160   29.0370   41.9480 H   0  0  0  0  0  0  0  0  0  0  0  0
   41.0960   27.6190   43.6770 F   0  0  0  0  0  0  0  0  0  0  0  0
   40.1670   26.7530   43.1880 C   0  0  0  0  0  0  0  0  0  0  0  0
   39.0390   27.1000   42.4520 C   0  0  0  0  0  0  0  0  0  0  0  0
   38.1680   26.1270   42.0080 C   0  0  0  0  0  0  0  0  0  0  0  0
   37.3150   26.5260   41.4380 H   0  0  0  0  0  0  0  0  0  0  0  0
   38.4200   24.8030   42.2980 C   0  0  0  0  0  0  0  0  0  0  0  0
   37.7040   24.0840   41.9270 H   0  0  0  0  0  0  0  0  0  0  0  0
   39.5430   24.4750   43.0290 C   0  0  0  0  0  3  0  0  0  0  0  0
   40.4470   25.4160   43.4960 C   0  0  0  0  0  3  0  0  0  0  0  0
  1  6  1  0  0  0  0
  2  1  2  0  0  0  0
  2  3  1  0  0  0  0
  3  4  2  0  0  0  0
  4  9  1  0  0  0  0
  5  4  1  0  0  0  0
  5 19  1  0  0  0  0
  6  5  2  0  0  0  0
  7  2  1  0  0  0  0
  8  3  1  0  0  0  0
 10 11  1  0  0  0  0
 11 12  2  0  0  0  0
 11 17  1  0  0  0  0
 12  1  1  0  0  0  0
 13 12  1  0  0  0  0
 14 13  2  0  0  0  0
 15 14  1  0  0  0  0
 15 10  2  0  0  0  0
 16 10  1  0  0  0  0
 18 14  1  0  0  0  0
 19 22  1  6  0  0  0
 19 21  1  0  0  0  0
 19 20  1  0  0  0  0
 20 23  1  0  0  0  0
 20 24  1  0  0  0  0
 21 25  1  6  0  0  0
 21 28  1  0  0  0  0
 21 20  1  0  0  0  0
 27 34  1  0  0  0  0
 27 26  1  0  0  0  0
 28 27  2  0  0  0  0
 29 31  2  0  0  0  0
 29 28  1  0  0  0  0
 30 29  1  0  0  0  0
 31 33  1  0  0  0  0
 32 31  1  0  0  0  0
 33 34  2  0  0  0  0
M  END
>  <minimizedAffinity>
-5.58176136

$$$$

 OpenBabel03242521063D

 34 37  0  0  1  0  0  0  0  0999 V2000
   37.8100   26.4950   41.8780 C   0  0  0  0  0  0  0  0  0  0  0  0
   36.9620   26.7680   42.9430 C   0  0  0  0  0  0  0  0  0  0  0  0
   36.9630   27.9370   43.6650 C   0  0  0  0  0  0  0  0  0  0  0  0
   37.8600   28.9230   43.3310 C   0  0  0  0  0  0  0  0  0  0  0  0
   38.6930   28.6330   42.2730 C   0  0  0  0  0  0  0  0  0  0  0  0
   38.6620   27.4890   41.5950 N   0  0  0  0  0  0  0  0  0  0  0  0
   36.2350   26.0280   43.2510 H   0  0  0  0  0  0  0  0  0  0  0  0
   36.2770   28.1000   44.4910 H   0  0  0  0  0  0  0  0  0  0  0  0
   37.8440   29.8310   43.9100 H   0  0  0  0  0  0  0  0  0  0  0  0
   36.7730   23.2740   40.2170 C   0  0  0  0  0  0  0  0  0  0  0  0
   36.6330   24.4690   40.9580 C   0  0  0  0  0  0  0  0  0  0  0  0
   37.7680   25.2360   41.1430 C   0  0  0  0  0  0  0  0  0  0  0  0
   38.9450   24.8100   40.6120 N   0  0  0  0  0  0  0  0  0  0  0  0
   39.0460   23.6530   39.9050 C   0  0  0  0  0  0  0  0  0  0  0  0
   37.9390   22.9070   39.7250 N   0  0  0  0  0  0  0  0  0  0  0  0
   35.8670   22.6910   40.0880 H   0  0  0  0  0  0  0  0  0  0  0  0
   35.7100   24.8330   41.3920 H   0  0  0  0  0  0  0  0  0  0  0  0
   40.0420   23.4280   39.5360 H   0  0  0  0  0  0  0  0  0  0  0  0
   39.6830   29.6810   41.8770 C   0  0  2  0  0  0  0  0  0  0  0  0
   39.8500   30.8040   42.8660 C   0  0  0  0  0  0  0  0  0  0  0  0
   39.1960   31.0030   41.5210 C   0  0  1  0  0  0  0  0  0  0  0  0
   40.6490   29.3270   41.4470 H   0  0  0  0  0  0  0  0  0  0  0  0
   39.1560   30.8700   43.7220 H   0  0  0  0  0  0  0  0  0  0  0  0
   40.8420   31.2710   42.9930 H   0  0  0  0  0  0  0  0  0  0  0  0
   38.0960   31.1250   41.4590 H   0  0  0  0  0  0  0  0  0  0  0  0
   38.7590   33.7040   41.3400 F   0  0  0  0  0  0  0  0  0  0  0  0
   39.6290   33.1000   40.4850 C   0  0  0  0  0  0  0  0  0  0  0  0
   39.9420   31.7450   40.4670 C   0  0  0  0  0  0  0  0  0  0  0  0
   40.8430   31.2480   39.5480 C   0  0  0  0  0  0  0  0  0  0  0  0
   41.0070   30.1630   39.6340 H   0  0  0  0  0  0  0  0  0  0  0  0
   41.4350   32.1040   38.6430 C   0  0  0  0  0  0  0  0  0  0  0  0
   42.1330   31.6610   37.9480 H   0  0  0  0  0  0  0  0  0  0  0  0
   41.1140   33.4450   38.6740 C   0  0  0  0  0  3  0  0  0  0  0  0
   40.2150   33.9910   39.5780 C   0  0  0  0  0  3  0  0  0  0  0  0
  1  2  1  0  0  0  0
  2  7  1  0  0  0  0
  2  3  2  0  0  0  0
  3  8  1  0  0  0  0
  4  3  1  0  0  0  0
  4  9  1  0  0  0  0
  5  4  2  0  0  0  0
  6  1  2  0  0  0  0
  6  5  1  0  0  0  0
 10 11  1  0  0  0  0
 11 12  2  0  0  0  0
 11 17  1  0  0  0  0
 12  1  1  0  0  0  0
 13 12  1  0  0  0  0
 14 13  2  0  0  0  0
 15 14  1  0  0  0  0
 15 10  2  0  0  0  0
 16 10  1  0  0  0  0
 18 14  1  0  0  0  0
 19 22  1  6  0  0  0
 19  5  1  0  0  0  0
 19 20  1  0  0  0  0
 20 24  1  0  0  0  0
 20 23  1  0  0  0  0
 21 25  1  1  0  0  0
 21 19  1  0  0  0  0
 21 20  1  0  0  0  0
 27 26  1  0  0  0  0
 28 27  1  0  0  0  0
 28 21  1  0  0  0  0
 29 30  1  0  0  0  0
 29 28  2  0  0  0  0
 31 33  2  0  0  0  0
 31 29  1  0  0  0  0
 32 31  1  0  0  0  0
 33 34  1  0  0  0  0
 34 27  2  0  0  0  0
M  END
>  <minimizedAffinity>
-5.41868591

$$$$

 OpenBabel03242521063D

 34 37  0  0  1  0  0  0  0  0999 V2000
   36.5290   30.1550   38.4500 C   0  0  0  0  0  0  0  0  0  0  0  0
   36.7640   31.4650   38.8460 C   0  0  0  0  0  0  0  0  0  0  0  0
   37.1560   31.8430   40.1070 C   0  0  0  0  0  0  0  0  0  0  0  0
   37.3350   30.8740   41.0660 C   0  0  0  0  0  0  0  0  0  0  0  0
   37.0980   29.5820   40.6530 C   0  0  0  0  0  0  0  0  0  0  0  0
   36.7190   29.2520   39.4210 N   0  0  0  0  0  0  0  0  0  0  0  0
   36.6390   32.2700   38.1330 H   0  0  0  0  0  0  0  0  0  0  0  0
   37.3260   32.8850   40.3660 H   0  0  0  0  0  0  0  0  0  0  0  0
   37.6430   31.1930   42.0470 H   0  0  0  0  0  0  0  0  0  0  0  0
   36.2850   29.6750   34.7190 C   0  0  0  0  0  0  0  0  0  0  0  0
   36.8380   30.0860   35.9520 C   0  0  0  0  0  0  0  0  0  0  0  0
   36.1140   29.8060   37.0960 C   0  0  0  0  0  0  0  0  0  0  0  0
   34.9240   29.1590   36.9800 N   0  0  0  0  0  0  0  0  0  0  0  0
   34.4190   28.7770   35.7770 C   0  0  0  0  0  0  0  0  0  0  0  0
   35.1260   29.0510   34.6630 N   0  0  0  0  0  0  0  0  0  0  0  0
   36.8740   29.9080   33.8380 H   0  0  0  0  0  0  0  0  0  0  0  0
   37.7820   30.6020   36.0750 H   0  0  0  0  0  0  0  0  0  0  0  0
   33.4600   28.2690   35.8230 H   0  0  0  0  0  0  0  0  0  0  0  0
   37.2820   28.4980   41.6660 C   0  0  2  0  0  0  0  0  0  0  0  0
   37.7150   28.9690   43.0290 C   0  0  0  0  0  0  0  0  0  0  0  0
   38.6270   28.1860   42.1180 C   0  0  1  0  0  0  0  0  0  0  0  0
   36.5020   27.7020   41.7030 H   0  0  0  0  0  0  0  0  0  0  0  0
   38.0040   30.0260   43.1630 H   0  0  0  0  0  0  0  0  0  0  0  0
   37.3550   28.4340   43.9260 H   0  0  0  0  0  0  0  0  0  0  0  0
   39.4570   28.7050   41.5970 H   0  0  0  0  0  0  0  0  0  0  0  0
   40.8310   27.6980   43.6750 F   0  0  0  0  0  0  0  0  0  0  0  0
   40.0630   26.6600   43.2440 C   0  0  0  0  0  0  0  0  0  0  0  0
   38.9240   26.7660   42.4530 C   0  0  0  0  0  0  0  0  0  0  0  0
   38.2270   25.6360   42.0780 C   0  0  0  0  0  0  0  0  0  0  0  0
   37.3460   25.8500   41.4540 H   0  0  0  0  0  0  0  0  0  0  0  0
   38.6640   24.3960   42.4920 C   0  0  0  0  0  0  0  0  0  0  0  0
   38.0800   23.5480   42.1700 H   0  0  0  0  0  0  0  0  0  0  0  0
   39.7960   24.3090   43.2770 C   0  0  0  0  0  3  0  0  0  0  0  0
   40.5290   25.4140   43.6790 C   0  0  0  0  0  3  0  0  0  0  0  0
  1  2  2  0  0  0  0
  1  6  1  0  0  0  0
  2  3  1  0  0  0  0
  3  8  1  0  0  0  0
  3  4  2  0  0  0  0
  4  9  1  0  0  0  0
  5  4  1  0  0  0  0
  5 19  1  0  0  0  0
  6  5  2  0  0  0  0
  7  2  1  0  0  0  0
 10 11  1  0  0  0  0
 11 17  1  0  0  0  0
 11 12  2  0  0  0  0
 12  1  1  0  0  0  0
 13 12  1  0  0  0  0
 14 18  1  0  0  0  0
 14 13  2  0  0  0  0
 15 10  2  0  0  0  0
 15 14  1  0  0  0  0
 16 10  1  0  0  0  0
 19 22  1  6  0  0  0
 19 21  1  0  0  0  0
 19 20  1  0  0  0  0
 20 23  1  0  0  0  0
 20 24  1  0  0  0  0
 21 25  1  6  0  0  0
 21 28  1  0  0  0  0
 21 20  1  0  0  0  0
 27 26  1  0  0  0  0
 27 34  1  0  0  0  0
 28 27  2  0  0  0  0
 29 28  1  0  0  0  0
 29 31  2  0  0  0  0
 30 29  1  0  0  0  0
 31 33  1  0  0  0  0
 32 31  1  0  0  0  0
 33 34  2  0  0  0  0
M  END
>  <minimizedAffinity>
-5.35994959

$$$$

 OpenBabel03242521063D

 34 37  0  0  1  0  0  0  0  0999 V2000
   38.6600   24.7330   40.6250 C   0  0  0  0  0  0  0  0  0  0  0  0
   37.5880   24.1400   41.2790 C   0  0  0  0  0  0  0  0  0  0  0  0
   36.7830   24.7720   42.1960 C   0  0  0  0  0  0  0  0  0  0  0  0
   37.0370   26.0860   42.5080 C   0  0  0  0  0  0  0  0  0  0  0  0
   38.1040   26.6560   41.8500 C   0  0  0  0  0  0  0  0  0  0  0  0
   38.8620   26.0130   40.9670 N   0  0  0  0  0  0  0  0  0  0  0  0
   37.3410   23.1060   41.0720 H   0  0  0  0  0  0  0  0  0  0  0  0
   35.9550   24.2610   42.6790 H   0  0  0  0  0  0  0  0  0  0  0  0
   36.3940   26.5610   43.2300 H   0  0  0  0  0  0  0  0  0  0  0  0
   40.0530   22.2700   38.1360 C   0  0  0  0  0  0  0  0  0  0  0  0
   39.1320   22.8270   39.0500 C   0  0  0  0  0  0  0  0  0  0  0  0
   39.4840   24.0170   39.6590 C   0  0  0  0  0  0  0  0  0  0  0  0
   40.6800   24.5850   39.3510 N   0  0  0  0  0  0  0  0  0  0  0  0
   41.5460   24.0220   38.4660 C   0  0  0  0  0  0  0  0  0  0  0  0
   41.2010   22.8620   37.8750 N   0  0  0  0  0  0  0  0  0  0  0  0
   39.7510   21.3350   37.6740 H   0  0  0  0  0  0  0  0  0  0  0  0
   38.1730   22.3980   39.3150 H   0  0  0  0  0  0  0  0  0  0  0  0
   42.4660   24.5760   38.3110 H   0  0  0  0  0  0  0  0  0  0  0  0
   38.4130   28.0850   42.1620 C   0  0  2  0  0  0  0  0  0  0  0  0
   37.5930   28.6850   43.2740 C   0  0  0  0  0  0  0  0  0  0  0  0
   37.4280   29.1010   41.8330 C   0  0  1  0  0  0  0  0  0  0  0  0
   39.4900   28.3720   42.2060 H   0  0  0  0  0  0  0  0  0  0  0  0
   36.7430   28.1100   43.6810 H   0  0  0  0  0  0  0  0  0  0  0  0
   38.0530   29.4350   43.9420 H   0  0  0  0  0  0  0  0  0  0  0  0
   36.5380   28.7610   41.2640 H   0  0  0  0  0  0  0  0  0  0  0  0
   35.7020   30.7210   40.4490 F   0  0  0  0  0  0  0  0  0  0  0  0
   36.9640   31.1510   40.7220 C   0  0  0  0  0  0  0  0  0  0  0  0
   37.9360   30.4350   41.4120 C   0  0  0  0  0  0  0  0  0  0  0  0
   39.1850   30.9800   41.6260 C   0  0  0  0  0  0  0  0  0  0  0  0
   39.8650   30.3180   42.1820 H   0  0  0  0  0  0  0  0  0  0  0  0
   39.4670   32.2440   41.1530 C   0  0  0  0  0  0  0  0  0  0  0  0
   40.4600   32.6210   41.3500 H   0  0  0  0  0  0  0  0  0  0  0  0
   38.4920   32.9410   40.4700 C   0  0  0  0  0  3  0  0  0  0  0  0
   37.2240   32.4360   40.2300 C   0  0  0  0  0  3  0  0  0  0  0  0
  1  6  2  0  0  0  0
  1  2  1  0  0  0  0
  2  3  2  0  0  0  0
  3  4  1  0  0  0  0
  3  8  1  0  0  0  0
  4  9  1  0  0  0  0
  5 19  1  0  0  0  0
  5  4  2  0  0  0  0
  6  5  1  0  0  0  0
  7  2  1  0  0  0  0
 10 11  1  0  0  0  0
 11 17  1  0  0  0  0
 11 12  2  0  0  0  0
 12  1  1  0  0  0  0
 13 12  1  0  0  0  0
 14 13  2  0  0  0  0
 15 10  2  0  0  0  0
 15 14  1  0  0  0  0
 16 10  1  0  0  0  0
 18 14  1  0  0  0  0
 19 22  1  6  0  0  0
 19 20  1  0  0  0  0
 20 23  1  0  0  0  0
 20 24  1  0  0  0  0
 21 25  1  6  0  0  0
 21 19  1  0  0  0  0
 21 20  1  0  0  0  0
 26 27  1  0  0  0  0
 27 28  1  0  0  0  0
 28 29  2  0  0  0  0
 28 21  1  0  0  0  0
 29 30  1  0  0  0  0
 31 32  1  0  0  0  0
 31 29  1  0  0  0  0
 33 31  2  0  0  0  0
 34 33  1  0  0  0  0
 34 27  2  0  0  0  0
M  END
>  <minimizedAffinity>
-5.35209942

$$$$

 OpenBabel03242521063D

 34 37  0  0  1  0  0  0  0  0999 V2000
   32.6620   29.0760   37.0360 C   0  0  0  0  0  0  0  0  0  0  0  0
   33.4790   28.4350   36.1150 C   0  0  0  0  0  0  0  0  0  0  0  0
   34.7690   28.0280   36.3620 C   0  0  0  0  0  0  0  0  0  0  0  0
   35.3130   28.2610   37.6020 C   0  0  0  0  0  0  0  0  0  0  0  0
   34.4870   28.8980   38.5010 C   0  0  0  0  0  0  0  0  0  0  0  0
   33.2420   29.2780   38.2270 N   0  0  0  0  0  0  0  0  0  0  0  0
   33.1030   28.2250   35.1220 H   0  0  0  0  0  0  0  0  0  0  0  0
   35.3660   27.5300   35.6030 H   0  0  0  0  0  0  0  0  0  0  0  0
   36.3250   27.9340   37.7730 H   0  0  0  0  0  0  0  0  0  0  0  0
   29.4590   30.9950   36.5240 C   0  0  0  0  0  0  0  0  0  0  0  0
   30.8080   30.7720   36.8760 C   0  0  0  0  0  0  0  0  0  0  0  0
   31.2990   29.4880   36.7240 C   0  0  0  0  0  0  0  0  0  0  0  0
   30.4720   28.5190   36.2510 N   0  0  0  0  0  0  0  0  0  0  0  0
   29.1750   28.7670   35.9210 C   0  0  0  0  0  0  0  0  0  0  0  0
   28.6990   30.0180   36.0700 N   0  0  0  0  0  0  0  0  0  0  0  0
   29.1000   32.0110   36.6530 H   0  0  0  0  0  0  0  0  0  0  0  0
   31.4900   31.5230   37.2550 H   0  0  0  0  0  0  0  0  0  0  0  0
   28.6240   27.9060   35.5560 H   0  0  0  0  0  0  0  0  0  0  0  0
   35.0420   29.1700   39.8630 C   0  0  2  0  0  0  0  0  0  0  0  0
   35.8470   30.4360   39.9800 C   0  0  0  0  0  0  0  0  0  0  0  0
   36.4770   29.0670   40.0650 C   0  0  1  0  0  0  0  0  0  0  0  0
   34.3610   29.0000   40.7300 H   0  0  0  0  0  0  0  0  0  0  0  0
   36.1010   30.9960   39.0620 H   0  0  0  0  0  0  0  0  0  0  0  0
   35.8170   31.0120   40.9220 H   0  0  0  0  0  0  0  0  0  0  0  0
   37.0710   28.6840   39.2110 H   0  0  0  0  0  0  0  0  0  0  0  0
   36.4860   26.3550   40.4700 F   0  0  0  0  0  0  0  0  0  0  0  0
   36.9010   27.1900   41.4620 C   0  0  0  0  0  0  0  0  0  0  0  0
   36.9470   28.5790   41.3900 C   0  0  0  0  0  0  0  0  0  0  0  0
   37.3870   29.3190   42.4670 C   0  0  0  0  0  0  0  0  0  0  0  0
   37.3770   30.4050   42.2880 H   0  0  0  0  0  0  0  0  0  0  0  0
   37.7850   28.6760   43.6200 C   0  0  0  0  0  0  0  0  0  0  0  0
   38.1210   29.3060   44.4310 H   0  0  0  0  0  0  0  0  0  0  0  0
   37.7340   27.2990   43.6750 C   0  0  0  0  0  3  0  0  0  0  0  0
   37.2980   26.5120   42.6210 C   0  0  0  0  0  3  0  0  0  0  0  0
  1  6  1  0  0  0  0
  2  3  1  0  0  0  0
  2  1  2  0  0  0  0
  3  4  2  0  0  0  0
  4  9  1  0  0  0  0
  4  5  1  0  0  0  0
  5 19  1  0  0  0  0
  6  5  2  0  0  0  0
  7  2  1  0  0  0  0
  8  3  1  0  0  0  0
 10 16  1  0  0  0  0
 10 11  1  0  0  0  0
 11 17  1  0  0  0  0
 12 11  2  0  0  0  0
 12  1  1  0  0  0  0
 13 12  1  0  0  0  0
 14 15  1  0  0  0  0
 14 13  2  0  0  0  0
 15 10  2  0  0  0  0
 18 14  1  0  0  0  0
 19 20  1  0  0  0  0
 19 21  1  0  0  0  0
 19 22  1  1  0  0  0
 20 21  1  0  0  0  0
 20 24  1  0  0  0  0
 21 25  1  6  0  0  0
 21 28  1  0  0  0  0
 23 20  1  0  0  0  0
 26 27  1  0  0  0  0
 27 34  1  0  0  0  0
 28 27  2  0  0  0  0
 28 29  1  0  0  0  0
 29 31  2  0  0  0  0
 30 29  1  0  0  0  0
 31 33  1  0  0  0  0
 31 32  1  0  0  0  0
 34 33  2  0  0  0  0
M  END
>  <minimizedAffinity>
-5.2924943

$$$$
