
 OpenBabel03242518193D

 30 32  0  0  0  0  0  0  0  0999 V2000
   45.7910   33.9470   44.5220 C   0  0  0  0  0  0  0  0  0  0  0  0
   46.9330   33.7590   43.7900 C   0  0  0  0  0  0  0  0  0  0  0  0
   46.5350   33.7120   42.4500 C   0  0  0  0  0  0  0  0  0  0  0  0
   45.1650   33.8760   42.4650 C   0  0  0  0  0  0  0  0  0  0  0  0
   44.8040   34.0050   43.6910 O   0  0  0  0  0  0  0  0  0  0  0  0
   47.9520   33.6610   44.1330 H   0  0  0  0  0  0  0  0  0  0  0  0
   47.1990   33.5750   41.6220 H   0  0  0  0  0  0  0  0  0  0  0  0
   43.7550   36.1910   41.5330 F   0  0  0  0  0  0  0  0  0  0  0  0
   43.5850   35.0180   40.8830 C   0  0  0  0  0  0  0  0  0  0  0  0
   44.2580   33.9040   41.3250 C   0  0  0  0  0  0  0  0  0  0  0  0
   44.0040   32.7700   40.5840 C   0  0  0  0  0  0  0  0  0  0  0  0
   44.5100   31.8390   40.8810 H   0  0  0  0  0  0  0  0  0  0  0  0
   43.1750   32.6870   39.5020 C   0  0  0  0  0  0  0  0  0  0  0  0
   43.0410   31.7460   38.9850 H   0  0  0  0  0  0  0  0  0  0  0  0
   42.5200   33.8230   39.0920 C   0  0  0  0  0  0  0  0  0  0  0  0
   42.7360   34.9880   39.7950 C   0  0  0  0  0  0  0  0  0  0  0  0
   45.7540   34.0560   46.0280 C   0  0  0  0  0  0  0  0  0  0  0  0
   44.9310   34.7380   46.3170 H   0  0  0  0  0  0  0  0  0  0  0  0
   46.7120   34.4870   46.3610 H   0  0  0  0  0  0  0  0  0  0  0  0
   45.8860   30.4200   46.4270 C   0  0  0  0  0  0  0  0  0  0  0  0
   45.4140   30.1930   47.7370 C   0  0  0  0  0  0  0  0  0  0  0  0
   45.0550   31.3040   48.4660 C   0  0  0  0  0  0  0  0  0  0  0  0
   45.1670   32.5420   47.9110 N   0  0  0  0  0  0  0  0  0  0  0  0
   45.6260   32.7120   46.6510 C   0  0  0  0  0  0  0  0  0  0  0  0
   45.9880   31.6280   45.9040 N   0  0  0  0  0  0  0  0  0  0  0  0
   46.1890   29.6010   45.7880 H   0  0  0  0  0  0  0  0  0  0  0  0
   44.7000   31.1230   49.4540 H   0  0  0  0  0  0  0  0  0  0  0  0
   45.3670   28.8490   48.1400 N   0  0  0  0  0  0  0  0  0  0  0  0
   46.1670   28.3080   48.5510 H   0  0  0  0  0  0  0  0  0  0  0  0
   44.3680   28.6480   47.9020 H   0  0  0  0  0  0  0  0  0  0  0  0
  1 17  1  0  0  0  0
  2  6  1  0  0  0  0
  2  1  2  0  0  0  0
  3  4  2  0  0  0  0
  3  2  1  0  0  0  0
  4  5  1  0  0  0  0
  5  1  1  0  0  0  0
  7  3  1  0  0  0  0
  9 10  1  0  0  0  0
  9  8  1  0  0  0  0
 10  4  1  0  0  0  0
 11 12  1  0  0  0  0
 11 10  2  0  0  0  0
 13 11  1  0  0  0  0
 14 13  1  0  0  0  0
 15 13  2  0  0  0  0
 15 16  1  0  0  0  0
 16  9  2  0  0  0  0
 17 18  1  0  0  0  0
 17 19  1  0  0  0  0
 17 24  1  0  0  0  0
 20 21  1  0  0  0  0
 21 28  1  0  0  0  0
 21 22  2  0  0  0  0
 22 27  1  0  0  0  0
 23 22  1  0  0  0  0
 24 23  2  0  0  0  0
 25 20  2  0  0  0  0
 25 24  1  0  0  0  0
 26 20  1  0  0  0  0
 28 29  1  0  0  0  0
 30 28  1  0  0  0  0
M  END
>  <minimizedAffinity>
-4.884655

>  <minimizedRMSD>
7.90053177

$$$$
