
 OpenBabel03252501553D

 21 22  0  0  0  0  0  0  0  0999 V2000
   44.8020   35.1830   45.0230 C   0  0  0  0  0  0  0  0  0  0  0  0
   45.4960   35.2640   43.8050 C   0  0  0  0  0  0  0  0  0  0  0  0
   46.5290   34.3490   43.5900 C   0  0  0  0  0  0  0  0  0  0  0  0
   46.8040   33.4480   44.5500 N   0  0  0  0  0  0  0  0  0  0  0  0
   46.1230   33.3910   45.7070 C   0  0  0  0  0  0  0  0  0  0  0  0
   45.1080   34.2550   45.9730 N   0  0  0  0  0  0  0  0  0  0  0  0
   43.9860   35.8570   45.2860 H   0  0  0  0  0  0  0  0  0  0  0  0
   46.4640   32.6130   46.3760 H   0  0  0  0  0  0  0  0  0  0  0  0
   45.5640   32.8860   41.5530 F   0  0  0  0  0  0  0  0  0  0  0  0
   46.6100   33.7600   41.3820 C   0  0  0  0  0  0  0  0  0  0  0  0
   47.2140   34.5780   42.3320 C   0  0  0  0  0  0  0  0  0  0  0  0
   48.2540   35.3950   41.9770 C   0  0  0  0  0  0  0  0  0  0  0  0
   48.6070   35.9740   42.8120 H   0  0  0  0  0  0  0  0  0  0  0  0
   48.7030   35.4020   40.6760 C   0  0  0  0  0  0  0  0  0  0  0  0
   49.5230   36.0710   40.4580 H   0  0  0  0  0  0  0  0  0  0  0  0
   48.1210   34.6040   39.7440 C   0  0  0  0  0  0  0  0  0  0  0  0
   47.0680   33.7690   40.0620 C   0  0  0  0  0  0  0  0  0  0  0  0
   45.0340   36.3550   42.9200 C   0  0  0  0  0  0  0  0  0  0  0  0
   45.6040   36.3900   41.9700 H   0  0  0  0  0  0  0  0  0  0  0  0
   43.9520   36.2040   42.7650 H   0  0  0  0  0  0  0  0  0  0  0  0
   45.2100   37.3630   43.4040 H   0  0  0  0  0  0  0  0  0  0  0  0
  1  7  1  0  0  0  0
  1  6  1  0  0  0  0
  2  1  2  0  0  0  0
  3  2  1  0  0  0  0
  3  4  2  0  0  0  0
  4  5  1  0  0  0  0
  5  6  2  0  0  0  0
  5  8  1  0  0  0  0
 10  9  1  0  0  0  0
 10 11  1  0  0  0  0
 11  3  1  0  0  0  0
 12 11  2  0  0  0  0
 12 13  1  0  0  0  0
 14 12  1  0  0  0  0
 15 14  1  0  0  0  0
 16 17  1  0  0  0  0
 16 14  2  0  0  0  0
 17 10  2  0  0  0  0
 18 21  1  0  0  0  0
 18  2  1  0  0  0  0
 19 18  1  0  0  0  0
 20 18  1  0  0  0  0
M  END
>  <minimizedAffinity>
-5.09574699

>  <minimizedRMSD>
2.28320718

$$$$
