
 OpenBabel03252508393D

 41 44  0  0  0  0  0  0  0  0999 V2000
   45.6010   33.6880   40.1470 C   0  0  0  0  0  0  0  0  0  0  0  0
   44.6780   33.3500   39.2030 C   0  0  0  0  0  0  0  0  0  0  0  0
   45.1400   33.0250   37.9550 C   0  0  0  0  0  0  0  0  0  0  0  0
   46.4750   33.0200   37.6060 C   0  0  0  0  0  0  0  0  0  0  0  0
   47.3800   33.3650   38.5810 C   0  0  0  0  0  0  0  0  0  0  0  0
   46.9610   33.7010   39.8530 C   0  0  0  0  0  0  0  0  0  0  0  0
   44.4150   32.7550   37.1970 H   0  0  0  0  0  0  0  0  0  0  0  0
   46.8220   32.7590   36.6130 H   0  0  0  0  0  0  0  0  0  0  0  0
   48.4340   33.3610   38.3040 H   0  0  0  0  0  0  0  0  0  0  0  0
   41.1470   34.5080   39.8550 C   0  0  0  0  0  0  0  0  0  0  0  0
   42.4950   34.5220   39.4580 C   0  0  0  0  0  0  0  0  0  0  0  0
   43.2850   33.3640   39.6040 C   0  0  0  0  0  0  0  0  0  0  0  0
   42.6500   32.3030   40.1340 N   0  0  0  0  0  0  0  0  0  0  0  0
   41.3750   32.3010   40.5050 C   0  0  0  0  0  0  0  0  0  0  0  0
   40.6220   33.3980   40.3680 N   0  0  0  0  0  0  0  0  0  0  0  0
   40.4010   35.7040   39.6840 N   0  0  0  0  0  0  0  0  0  0  0  0
   42.9540   35.4130   39.0350 H   0  0  0  0  0  0  0  0  0  0  0  0
   40.9670   31.3780   40.9230 H   0  0  0  0  0  0  0  0  0  0  0  0
   40.0050   36.0720   38.7910 H   0  0  0  0  0  0  0  0  0  0  0  0
   40.1080   36.4230   40.3790 H   0  0  0  0  0  0  0  0  0  0  0  0
   47.9930   34.0520   40.8070 C   0  0  0  0  0  0  0  0  0  0  0  0
   48.3350   35.3860   40.8530 C   0  0  0  0  0  0  0  0  0  0  0  0
   49.3050   35.9130   41.7050 C   0  0  0  0  0  0  0  0  0  0  0  0
   49.9560   35.0320   42.5490 C   0  0  0  0  0  0  0  0  0  0  0  0
   49.6340   33.6880   42.5260 C   0  0  0  0  0  0  0  0  0  0  0  0
   48.6630   33.2180   41.6610 C   0  0  0  0  0  0  0  0  0  0  0  0
   47.8640   36.1320   40.2160 H   0  0  0  0  0  0  0  0  0  0  0  0
   49.5730   36.9500   41.7430 H   0  0  0  0  0  0  0  0  0  0  0  0
   50.7270   35.3090   43.2590 H   0  0  0  0  0  0  0  0  0  0  0  0
   50.0940   32.9370   43.1540 H   0  0  0  0  0  0  0  0  0  0  0  0
   50.1680   31.6650   40.0130 F   0  0  0  0  0  0  0  0  0  0  0  0
   49.1450   31.1080   40.7450 C   0  0  0  0  0  0  0  0  0  0  0  0
   48.3060   31.8050   41.6230 C   0  0  0  0  0  0  0  0  0  0  0  0
   47.3170   31.0960   42.2870 C   0  0  0  0  0  0  0  0  0  0  0  0
   46.7430   31.7250   42.9230 H   0  0  0  0  0  0  0  0  0  0  0  0
   47.1980   29.7460   42.0620 C   0  0  0  0  0  0  0  0  0  0  0  0
   46.3960   29.2750   42.6270 H   0  0  0  0  0  0  0  0  0  0  0  0
   48.0290   29.0670   41.1960 C   0  0  0  0  0  3  0  0  0  0  0  0
   49.0320   29.7620   40.5140 C   0  0  0  0  0  3  0  0  0  0  0  0
   44.8780   34.3340   42.5680 N   0  0  0  0  0  0  0  0  0  0  0  0
   45.2120   34.0470   41.4860 C   0  0  0  0  0  0  0  0  0  0  0  0
  1 41  1  0  0  0  0
  2 12  1  0  0  0  0
  2  1  2  0  0  0  0
  3  2  1  0  0  0  0
  4  3  2  0  0  0  0
  4  5  1  0  0  0  0
  5  6  2  0  0  0  0
  6  1  1  0  0  0  0
  6 21  1  0  0  0  0
  7  3  1  0  0  0  0
  8  4  1  0  0  0  0
  9  5  1  0  0  0  0
 10 15  1  0  0  0  0
 11 12  1  0  0  0  0
 11 10  2  0  0  0  0
 12 13  2  0  0  0  0
 13 14  1  0  0  0  0
 14 18  1  0  0  0  0
 15 14  2  0  0  0  0
 16 10  1  0  0  0  0
 16 20  1  0  0  0  0
 17 11  1  0  0  0  0
 19 16  1  0  0  0  0
 21 22  2  0  0  0  0
 21 26  1  0  0  0  0
 22 23  1  0  0  0  0
 23 28  1  0  0  0  0
 23 24  2  0  0  0  0
 24 29  1  0  0  0  0
 25 24  1  0  0  0  0
 25 30  1  0  0  0  0
 26 25  2  0  0  0  0
 27 22  1  0  0  0  0
 31 32  1  0  0  0  0
 32 33  1  0  0  0  0
 33 26  1  0  0  0  0
 33 34  2  0  0  0  0
 34 35  1  0  0  0  0
 36 34  1  0  0  0  0
 36 37  1  0  0  0  0
 38 36  2  0  0  0  0
 39 32  2  0  0  0  0
 39 38  1  0  0  0  0
 41 40  3  0  0  0  0
M  END
>  <minimizedAffinity>
-5.73365402

>  <minimizedRMSD>
1.45456374

$$$$
