
 OpenBabel03252503033D

 33 34  0  0  0  0  0  0  0  0999 V2000
   38.5150   33.9590   39.9530 C   0  0  0  0  0  0  0  0  0  0  0  0
   39.8410   33.5340   39.9710 C   0  0  0  0  0  0  0  0  0  0  0  0
   40.1670   32.1940   39.7800 C   0  0  0  0  0  0  0  0  0  0  0  0
   39.1400   31.3300   39.5780 N   0  0  0  0  0  0  0  0  0  0  0  0
   37.8720   31.7650   39.5670 C   0  0  0  0  0  0  0  0  0  0  0  0
   37.5430   33.0350   39.7450 N   0  0  0  0  0  0  0  0  0  0  0  0
   38.3230   35.0090   40.1060 H   0  0  0  0  0  0  0  0  0  0  0  0
   41.2160   31.8640   39.7960 H   0  0  0  0  0  0  0  0  0  0  0  0
   36.2350   30.7780   41.6740 F   0  0  0  0  0  0  0  0  0  0  0  0
   36.0180   30.3330   40.4120 C   0  0  0  0  0  0  0  0  0  0  0  0
   36.7990   30.7910   39.3450 C   0  0  0  0  0  0  0  0  0  0  0  0
   36.5220   30.2930   38.0860 C   0  0  0  0  0  0  0  0  0  0  0  0
   37.1610   30.6840   37.2870 H   0  0  0  0  0  0  0  0  0  0  0  0
   35.5270   29.3760   37.8060 C   0  0  0  0  0  0  0  0  0  0  0  0
   35.3460   29.0140   36.8030 H   0  0  0  0  0  0  0  0  0  0  0  0
   34.7540   28.9240   38.8710 C   0  0  0  0  0  3  0  0  0  0  0  0
   35.0100   29.4050   40.1400 C   0  0  0  0  0  3  0  0  0  0  0  0
   41.1530   34.7460   40.2450 S   0  0  0  0  0  0  0  0  0  0  0  0
   42.7430   33.9160   40.1400 C   0  0  0  0  0  0  0  0  0  0  0  0
   43.2750   34.0230   41.1090 H   0  0  0  0  0  0  0  0  0  0  0  0
   42.6240   32.8400   39.9110 H   0  0  0  0  0  0  0  0  0  0  0  0
   43.5110   34.5970   39.0940 N   0  0  0  0  0  0  0  0  0  0  0  0
   43.1960   35.5950   39.0100 H   0  0  0  0  0  0  0  0  0  0  0  0
   43.4670   33.7750   37.5940 S   0  0  0  0  0  0  0  0  0  0  0  0
   42.5570   34.4440   36.6130 O   0  0  0  0  0  0  0  0  0  0  0  0
   42.9010   34.6070   35.6790 H   0  0  0  0  0  0  0  0  0  0  0  0
   44.8930   33.7950   37.0590 O   0  0  0  0  0  0  0  0  0  0  0  0
   45.3910   34.6230   36.8480 H   0  0  0  0  0  0  0  0  0  0  0  0
   43.0670   32.1830   37.8120 O   0  0  0  0  0  0  0  0  0  0  0  0
   43.5050   31.3720   36.7720 C   0  0  0  0  0  0  0  0  0  0  0  0
   43.1750   30.3430   36.9530 H   0  0  0  0  0  0  0  0  0  0  0  0
   43.0380   31.7030   35.8020 H   0  0  0  0  0  0  0  0  0  0  0  0
   44.6000   31.4660   36.6350 H   0  0  0  0  0  0  0  0  0  0  0  0
  1  2  1  0  0  0  0
  1  7  1  0  0  0  0
  2 18  1  0  0  0  0
  3  8  1  0  0  0  0
  3  2  2  0  0  0  0
  4  3  1  0  0  0  0
  5  4  2  0  0  0  0
  5  6  1  0  0  0  0
  6  1  2  0  0  0  0
 10  9  1  0  0  0  0
 11  5  1  0  0  0  0
 11 10  2  0  0  0  0
 12 11  1  0  0  0  0
 13 12  1  0  0  0  0
 14 12  2  0  0  0  0
 14 16  1  0  0  0  0
 15 14  1  0  0  0  0
 16 17  2  0  0  0  0
 17 10  1  0  0  0  0
 19 18  1  0  0  0  0
 19 20  1  0  0  0  0
 21 19  1  0  0  0  0
 22 19  1  0  0  0  0
 23 22  1  0  0  0  0
 24 29  1  0  0  0  0
 24 22  1  0  0  0  0
 25 24  1  0  0  0  0
 26 25  1  0  0  0  0
 27 24  1  0  0  0  0
 28 27  1  0  0  0  0
 30 31  1  0  0  0  0
 30 29  1  0  0  0  0
 32 30  1  0  0  0  0
 33 30  1  0  0  0  0
M  END
>  <minimizedAffinity>
-5.81690216

$$$$

 OpenBabel03252503033D

 33 34  0  0  0  0  0  0  0  0999 V2000
   40.9900   31.7920   40.8960 C   0  0  0  0  0  0  0  0  0  0  0  0
   40.3550   32.9910   40.5820 C   0  0  0  0  0  0  0  0  0  0  0  0
   38.9740   33.1250   40.7050 C   0  0  0  0  0  0  0  0  0  0  0  0
   38.2850   32.0410   41.1420 N   0  0  0  0  0  0  0  0  0  0  0  0
   38.9200   30.8980   41.4370 C   0  0  0  0  0  0  0  0  0  0  0  0
   40.2310   30.7520   41.3270 N   0  0  0  0  0  0  0  0  0  0  0  0
   42.0620   31.7480   40.7820 H   0  0  0  0  0  0  0  0  0  0  0  0
   38.4790   34.0740   40.4550 H   0  0  0  0  0  0  0  0  0  0  0  0
   37.0560   29.5380   39.7720 F   0  0  0  0  0  0  0  0  0  0  0  0
   37.2230   29.1170   41.0490 C   0  0  0  0  0  0  0  0  0  0  0  0
   38.1280   29.7560   41.9040 C   0  0  0  0  0  0  0  0  0  0  0  0
   38.2450   29.2720   43.1930 C   0  0  0  0  0  0  0  0  0  0  0  0
   38.9670   29.8070   43.8200 H   0  0  0  0  0  0  0  0  0  0  0  0
   37.5310   28.2020   43.6980 C   0  0  0  0  0  0  0  0  0  0  0  0
   37.6570   27.8590   44.7160 H   0  0  0  0  0  0  0  0  0  0  0  0
   36.6330   27.5720   42.8450 C   0  0  0  0  0  3  0  0  0  0  0  0
   36.4960   28.0350   41.5500 C   0  0  0  0  0  3  0  0  0  0  0  0
   41.3440   34.3900   40.0080 S   0  0  0  0  0  0  0  0  0  0  0  0
   43.0840   33.9640   40.1350 C   0  0  0  0  0  0  0  0  0  0  0  0
   43.4910   34.3690   41.0860 H   0  0  0  0  0  0  0  0  0  0  0  0
   43.2350   32.8670   40.1170 H   0  0  0  0  0  0  0  0  0  0  0  0
   43.7640   34.6080   39.0090 N   0  0  0  0  0  0  0  0  0  0  0  0
   43.4630   35.6110   38.9330 H   0  0  0  0  0  0  0  0  0  0  0  0
   43.5670   33.7600   37.5370 S   0  0  0  0  0  0  0  0  0  0  0  0
   42.6210   34.4570   36.6090 O   0  0  0  0  0  0  0  0  0  0  0  0
   42.9020   34.5820   35.6490 H   0  0  0  0  0  0  0  0  0  0  0  0
   44.9480   33.6930   36.8970 O   0  0  0  0  0  0  0  0  0  0  0  0
   45.4700   34.4890   36.6300 H   0  0  0  0  0  0  0  0  0  0  0  0
   43.1020   32.1960   37.8220 O   0  0  0  0  0  0  0  0  0  0  0  0
   41.9580   31.8390   37.1170 C   0  0  0  0  0  0  0  0  0  0  0  0
   41.6790   30.8120   37.3790 H   0  0  0  0  0  0  0  0  0  0  0  0
   41.0980   32.5020   37.4160 H   0  0  0  0  0  0  0  0  0  0  0  0
   42.1030   31.9930   36.0300 H   0  0  0  0  0  0  0  0  0  0  0  0
  1  6  1  0  0  0  0
  2  3  1  0  0  0  0
  2  1  2  0  0  0  0
  3  4  2  0  0  0  0
  4  5  1  0  0  0  0
  5 11  1  0  0  0  0
  6  5  2  0  0  0  0
  7  1  1  0  0  0  0
  8  3  1  0  0  0  0
  9 10  1  0  0  0  0
 10 17  2  0  0  0  0
 10 11  1  0  0  0  0
 11 12  2  0  0  0  0
 12 14  1  0  0  0  0
 12 13  1  0  0  0  0
 14 15  1  0  0  0  0
 16 14  2  0  0  0  0
 17 16  1  0  0  0  0
 18 19  1  0  0  0  0
 18  2  1  0  0  0  0
 19 20  1  0  0  0  0
 21 19  1  0  0  0  0
 22 19  1  0  0  0  0
 23 22  1  0  0  0  0
 24 29  1  0  0  0  0
 24 22  1  0  0  0  0
 25 24  1  0  0  0  0
 26 25  1  0  0  0  0
 27 24  1  0  0  0  0
 28 27  1  0  0  0  0
 30 31  1  0  0  0  0
 30 32  1  0  0  0  0
 30 29  1  0  0  0  0
 33 30  1  0  0  0  0
M  END
>  <minimizedAffinity>
-5.72691107

$$$$

 OpenBabel03252503033D

 33 34  0  0  0  0  0  0  0  0999 V2000
   39.6180   31.9550   41.2890 C   0  0  0  0  0  0  0  0  0  0  0  0
   38.6620   32.8060   40.7410 C   0  0  0  0  0  0  0  0  0  0  0  0
   37.3810   32.3480   40.4430 C   0  0  0  0  0  0  0  0  0  0  0  0
   37.1130   31.0450   40.7110 N   0  0  0  0  0  0  0  0  0  0  0  0
   38.0520   30.2470   41.2380 C   0  0  0  0  0  0  0  0  0  0  0  0
   39.2740   30.6640   41.5290 N   0  0  0  0  0  0  0  0  0  0  0  0
   40.5930   32.3670   41.4990 H   0  0  0  0  0  0  0  0  0  0  0  0
   36.6300   33.0250   40.0100 H   0  0  0  0  0  0  0  0  0  0  0  0
   37.7410   29.2230   43.8740 F   0  0  0  0  0  0  0  0  0  0  0  0
   37.5680   28.3870   42.8220 C   0  0  0  0  0  0  0  0  0  0  0  0
   37.7110   28.8460   41.5080 C   0  0  0  0  0  0  0  0  0  0  0  0
   37.5210   27.9370   40.4860 C   0  0  0  0  0  0  0  0  0  0  0  0
   37.6440   28.3480   39.4780 H   0  0  0  0  0  0  0  0  0  0  0  0
   37.1980   26.6060   40.6680 C   0  0  0  0  0  0  0  0  0  0  0  0
   37.0580   25.9300   39.8350 H   0  0  0  0  0  0  0  0  0  0  0  0
   37.0570   26.1550   41.9760 C   0  0  0  0  0  3  0  0  0  0  0  0
   37.2420   27.0430   43.0180 C   0  0  0  0  0  3  0  0  0  0  0  0
   39.0960   34.5300   40.4140 S   0  0  0  0  0  0  0  0  0  0  0  0
   40.8590   34.6320   40.0850 C   0  0  0  0  0  0  0  0  0  0  0  0
   41.2740   35.5290   40.5940 H   0  0  0  0  0  0  0  0  0  0  0  0
   41.3930   33.7340   40.4480 H   0  0  0  0  0  0  0  0  0  0  0  0
   41.0140   34.7890   38.6370 N   0  0  0  0  0  0  0  0  0  0  0  0
   40.1650   34.4210   38.1420 H   0  0  0  0  0  0  0  0  0  0  0  0
   42.4610   34.0950   38.0430 S   0  0  0  0  0  0  0  0  0  0  0  0
   42.7480   34.5130   36.6350 O   0  0  0  0  0  0  0  0  0  0  0  0
   43.6770   34.8350   36.4140 H   0  0  0  0  0  0  0  0  0  0  0  0
   43.5750   34.5920   38.9560 O   0  0  0  0  0  0  0  0  0  0  0  0
   43.8120   35.5450   39.0680 H   0  0  0  0  0  0  0  0  0  0  0  0
   42.4240   32.4470   38.1960 O   0  0  0  0  0  0  0  0  0  0  0  0
   41.6890   31.8300   37.1900 C   0  0  0  0  0  0  0  0  0  0  0  0
   41.6680   30.7500   37.3700 H   0  0  0  0  0  0  0  0  0  0  0  0
   40.6230   32.1920   37.2150 H   0  0  0  0  0  0  0  0  0  0  0  0
   42.0840   32.1040   36.1920 H   0  0  0  0  0  0  0  0  0  0  0  0
  1  7  1  0  0  0  0
  1  6  1  0  0  0  0
  2  1  2  0  0  0  0
  3  4  2  0  0  0  0
  3  2  1  0  0  0  0
  4  5  1  0  0  0  0
  5 11  1  0  0  0  0
  5  6  2  0  0  0  0
  8  3  1  0  0  0  0
 10 17  1  0  0  0  0
 10  9  1  0  0  0  0
 11 10  2  0  0  0  0
 12 14  2  0  0  0  0
 12 11  1  0  0  0  0
 13 12  1  0  0  0  0
 14 16  1  0  0  0  0
 15 14  1  0  0  0  0
 16 17  2  0  0  0  0
 18  2  1  0  0  0  0
 19 18  1  0  0  0  0
 19 21  1  0  0  0  0
 19 20  1  0  0  0  0
 22 19  1  0  0  0  0
 23 22  1  0  0  0  0
 24 29  1  0  0  0  0
 24 22  1  0  0  0  0
 24 27  1  0  0  0  0
 25 24  1  0  0  0  0
 26 25  1  0  0  0  0
 27 28  1  0  0  0  0
 30 32  1  0  0  0  0
 30 31  1  0  0  0  0
 30 29  1  0  0  0  0
 33 30  1  0  0  0  0
M  END
>  <minimizedAffinity>
-5.71147585

$$$$

 OpenBabel03252503033D

 33 34  0  0  0  0  0  0  0  0999 V2000
   39.2580   30.2460   40.6600 C   0  0  0  0  0  0  0  0  0  0  0  0
   38.2470   31.2020   40.7290 C   0  0  0  0  0  0  0  0  0  0  0  0
   36.9170   30.8280   40.9030 C   0  0  0  0  0  0  0  0  0  0  0  0
   36.6570   29.5000   40.9990 N   0  0  0  0  0  0  0  0  0  0  0  0
   37.6480   28.6000   40.9270 C   0  0  0  0  0  0  0  0  0  0  0  0
   38.9170   28.9370   40.7640 N   0  0  0  0  0  0  0  0  0  0  0  0
   40.2700   30.5960   40.5250 H   0  0  0  0  0  0  0  0  0  0  0  0
   36.1240   31.5870   40.9570 H   0  0  0  0  0  0  0  0  0  0  0  0
   37.8240   27.1650   43.3780 F   0  0  0  0  0  0  0  0  0  0  0  0
   37.4140   26.5120   42.2640 C   0  0  0  0  0  0  0  0  0  0  0  0
   37.3120   27.1770   41.0370 C   0  0  0  0  0  0  0  0  0  0  0  0
   36.8880   26.4470   39.9430 C   0  0  0  0  0  0  0  0  0  0  0  0
   36.8260   27.0150   39.0090 H   0  0  0  0  0  0  0  0  0  0  0  0
   36.5560   25.1060   39.9760 C   0  0  0  0  0  0  0  0  0  0  0  0
   36.2270   24.5750   39.0920 H   0  0  0  0  0  0  0  0  0  0  0  0
   36.6580   24.4500   41.1970 C   0  0  0  0  0  3  0  0  0  0  0  0
   37.0800   25.1560   42.3070 C   0  0  0  0  0  3  0  0  0  0  0  0
   38.6760   32.9530   40.5940 S   0  0  0  0  0  0  0  0  0  0  0  0
   40.4190   33.0940   40.1830 C   0  0  0  0  0  0  0  0  0  0  0  0
   40.9250   33.7210   40.9500 H   0  0  0  0  0  0  0  0  0  0  0  0
   40.9100   32.1030   40.1490 H   0  0  0  0  0  0  0  0  0  0  0  0
   40.4980   33.7680   38.8850 N   0  0  0  0  0  0  0  0  0  0  0  0
   39.5890   34.2470   38.6730 H   0  0  0  0  0  0  0  0  0  0  0  0
   40.9910   32.7250   37.6220 S   0  0  0  0  0  0  0  0  0  0  0  0
   39.8580   32.3720   36.7100 O   0  0  0  0  0  0  0  0  0  0  0  0
   40.0070   32.4460   35.7160 H   0  0  0  0  0  0  0  0  0  0  0  0
   42.0560   33.4820   36.8390 O   0  0  0  0  0  0  0  0  0  0  0  0
   41.8930   34.3380   36.3720 H   0  0  0  0  0  0  0  0  0  0  0  0
   41.7260   31.3730   38.2350 O   0  0  0  0  0  0  0  0  0  0  0  0
   42.3000   30.5800   37.2470 C   0  0  0  0  0  0  0  0  0  0  0  0
   42.7320   29.6850   37.7100 H   0  0  0  0  0  0  0  0  0  0  0  0
   41.5090   30.2310   36.5250 H   0  0  0  0  0  0  0  0  0  0  0  0
   43.0280   31.1620   36.6500 H   0  0  0  0  0  0  0  0  0  0  0  0
  1  2  2  0  0  0  0
  1  6  1  0  0  0  0
  2  3  1  0  0  0  0
  3  8  1  0  0  0  0
  3  4  2  0  0  0  0
  5  4  1  0  0  0  0
  5 11  1  0  0  0  0
  6  5  2  0  0  0  0
  7  1  1  0  0  0  0
 10 17  1  0  0  0  0
 10  9  1  0  0  0  0
 11 10  2  0  0  0  0
 12 14  2  0  0  0  0
 12 11  1  0  0  0  0
 13 12  1  0  0  0  0
 14 16  1  0  0  0  0
 15 14  1  0  0  0  0
 16 17  2  0  0  0  0
 18  2  1  0  0  0  0
 19 18  1  0  0  0  0
 19 20  1  0  0  0  0
 21 19  1  0  0  0  0
 22 19  1  0  0  0  0
 23 22  1  0  0  0  0
 24 29  1  0  0  0  0
 24 22  1  0  0  0  0
 25 24  1  0  0  0  0
 26 25  1  0  0  0  0
 27 24  1  0  0  0  0
 28 27  1  0  0  0  0
 30 31  1  0  0  0  0
 30 29  1  0  0  0  0
 32 30  1  0  0  0  0
 33 30  1  0  0  0  0
M  END
>  <minimizedAffinity>
-5.45089006

$$$$

 OpenBabel03252503033D

 33 34  0  0  0  0  0  0  0  0999 V2000
   36.7680   30.4520   41.2450 C   0  0  0  0  0  0  0  0  0  0  0  0
   37.9030   30.8840   40.5620 C   0  0  0  0  0  0  0  0  0  0  0  0
   38.7790   29.9720   39.9800 C   0  0  0  0  0  0  0  0  0  0  0  0
   38.4770   28.6550   40.1100 N   0  0  0  0  0  0  0  0  0  0  0  0
   37.3790   28.2660   40.7730 C   0  0  0  0  0  0  0  0  0  0  0  0
   36.5340   29.1180   41.3310 N   0  0  0  0  0  0  0  0  0  0  0  0
   36.1260   31.2050   41.6740 H   0  0  0  0  0  0  0  0  0  0  0  0
   39.6740   30.3180   39.4430 H   0  0  0  0  0  0  0  0  0  0  0  0
   37.6750   26.8280   43.2090 F   0  0  0  0  0  0  0  0  0  0  0  0
   37.2580   26.1650   42.1040 C   0  0  0  0  0  0  0  0  0  0  0  0
   37.0980   26.8310   40.8840 C   0  0  0  0  0  0  0  0  0  0  0  0
   36.6700   26.0910   39.7990 C   0  0  0  0  0  0  0  0  0  0  0  0
   36.5610   26.6600   38.8690 H   0  0  0  0  0  0  0  0  0  0  0  0
   36.3880   24.7390   39.8330 C   0  0  0  0  0  0  0  0  0  0  0  0
   36.0540   24.2000   38.9560 H   0  0  0  0  0  0  0  0  0  0  0  0
   36.5480   24.0820   41.0480 C   0  0  0  0  0  3  0  0  0  0  0  0
   36.9750   24.7980   42.1490 C   0  0  0  0  0  3  0  0  0  0  0  0
   38.2360   32.6550   40.4330 S   0  0  0  0  0  0  0  0  0  0  0  0
   40.0020   32.9010   40.2250 C   0  0  0  0  0  0  0  0  0  0  0  0
   40.3880   33.5140   41.0680 H   0  0  0  0  0  0  0  0  0  0  0  0
   40.5470   31.9380   40.2020 H   0  0  0  0  0  0  0  0  0  0  0  0
   40.1860   33.6400   38.9730 N   0  0  0  0  0  0  0  0  0  0  0  0
   39.2860   34.1040   38.6940 H   0  0  0  0  0  0  0  0  0  0  0  0
   40.8320   32.6730   37.7170 S   0  0  0  0  0  0  0  0  0  0  0  0
   39.7860   32.2660   36.7280 O   0  0  0  0  0  0  0  0  0  0  0  0
   39.9880   32.3800   35.7470 H   0  0  0  0  0  0  0  0  0  0  0  0
   41.8820   33.5290   37.0210 O   0  0  0  0  0  0  0  0  0  0  0  0
   41.6840   34.3840   36.5670 H   0  0  0  0  0  0  0  0  0  0  0  0
   41.6270   31.3610   38.3410 O   0  0  0  0  0  0  0  0  0  0  0  0
   43.0090   31.4720   38.2370 C   0  0  0  0  0  0  0  0  0  0  0  0
   43.4740   30.5600   38.6270 H   0  0  0  0  0  0  0  0  0  0  0  0
   43.3080   31.5590   37.1540 H   0  0  0  0  0  0  0  0  0  0  0  0
   43.3670   32.3950   38.7310 H   0  0  0  0  0  0  0  0  0  0  0  0
  1  6  1  0  0  0  0
  1  7  1  0  0  0  0
  2  1  2  0  0  0  0
  3  4  2  0  0  0  0
  3  2  1  0  0  0  0
  4  5  1  0  0  0  0
  5 11  1  0  0  0  0
  5  6  2  0  0  0  0
  8  3  1  0  0  0  0
 10 17  1  0  0  0  0
 10  9  1  0  0  0  0
 11 10  2  0  0  0  0
 12 14  2  0  0  0  0
 12 11  1  0  0  0  0
 13 12  1  0  0  0  0
 14 16  1  0  0  0  0
 15 14  1  0  0  0  0
 16 17  2  0  0  0  0
 18  2  1  0  0  0  0
 19 18  1  0  0  0  0
 19 20  1  0  0  0  0
 21 19  1  0  0  0  0
 22 19  1  0  0  0  0
 23 22  1  0  0  0  0
 24 29  1  0  0  0  0
 24 22  1  0  0  0  0
 25 24  1  0  0  0  0
 26 25  1  0  0  0  0
 27 24  1  0  0  0  0
 28 27  1  0  0  0  0
 30 29  1  0  0  0  0
 30 31  1  0  0  0  0
 30 33  1  0  0  0  0
 32 30  1  0  0  0  0
M  END
>  <minimizedAffinity>
-5.43879414

$$$$

 OpenBabel03252503033D

 33 34  0  0  0  0  0  0  0  0999 V2000
   40.2950   31.3760   40.4780 C   0  0  0  0  0  0  0  0  0  0  0  0
   41.2810   31.6630   41.4190 C   0  0  0  0  0  0  0  0  0  0  0  0
   41.4550   30.8590   42.5430 C   0  0  0  0  0  0  0  0  0  0  0  0
   40.6240   29.7940   42.6750 N   0  0  0  0  0  0  0  0  0  0  0  0
   39.6820   29.5410   41.7550 C   0  0  0  0  0  0  0  0  0  0  0  0
   39.5030   30.2930   40.6810 N   0  0  0  0  0  0  0  0  0  0  0  0
   40.2070   32.0350   39.6280 H   0  0  0  0  0  0  0  0  0  0  0  0
   42.2350   31.0900   43.2820 H   0  0  0  0  0  0  0  0  0  0  0  0
   37.8020   29.3630   43.8830 F   0  0  0  0  0  0  0  0  0  0  0  0
   37.9000   28.3340   43.0080 C   0  0  0  0  0  0  0  0  0  0  0  0
   38.8110   28.3770   41.9460 C   0  0  0  0  0  0  0  0  0  0  0  0
   38.8560   27.2910   41.0940 C   0  0  0  0  0  0  0  0  0  0  0  0
   39.5850   27.3760   40.2800 H   0  0  0  0  0  0  0  0  0  0  0  0
   38.0650   26.1640   41.2140 C   0  0  0  0  0  0  0  0  0  0  0  0
   38.1360   25.3370   40.5210 H   0  0  0  0  0  0  0  0  0  0  0  0
   37.1620   26.1260   42.2710 C   0  0  0  0  0  3  0  0  0  0  0  0
   37.0960   27.1990   43.1390 C   0  0  0  0  0  3  0  0  0  0  0  0
   42.3480   33.1000   41.1710 S   0  0  0  0  0  0  0  0  0  0  0  0
   41.4830   34.2970   40.1490 C   0  0  0  0  0  0  0  0  0  0  0  0
   40.5810   33.8180   39.7100 H   0  0  0  0  0  0  0  0  0  0  0  0
   41.1700   35.1820   40.7350 H   0  0  0  0  0  0  0  0  0  0  0  0
   42.3970   34.6760   39.0680 N   0  0  0  0  0  0  0  0  0  0  0  0
   42.2650   35.6880   38.8240 H   0  0  0  0  0  0  0  0  0  0  0  0
   42.2680   33.6570   37.6990 S   0  0  0  0  0  0  0  0  0  0  0  0
   40.8520   33.2600   37.4260 O   0  0  0  0  0  0  0  0  0  0  0  0
   40.5080   33.3430   36.4820 H   0  0  0  0  0  0  0  0  0  0  0  0
   42.8050   34.4610   36.5220 O   0  0  0  0  0  0  0  0  0  0  0  0
   42.4100   35.3100   36.2080 H   0  0  0  0  0  0  0  0  0  0  0  0
   43.2540   32.3360   37.8600 O   0  0  0  0  0  0  0  0  0  0  0  0
   43.1340   31.4450   36.7990 C   0  0  0  0  0  0  0  0  0  0  0  0
   43.7770   30.5770   36.9830 H   0  0  0  0  0  0  0  0  0  0  0  0
   42.0760   31.0650   36.7320 H   0  0  0  0  0  0  0  0  0  0  0  0
   43.3410   31.9510   35.8360 H   0  0  0  0  0  0  0  0  0  0  0  0
  1  6  2  0  0  0  0
  1  2  1  0  0  0  0
  2  3  2  0  0  0  0
  3  4  1  0  0  0  0
  3  8  1  0  0  0  0
  5 11  1  0  0  0  0
  5  4  2  0  0  0  0
  6  5  1  0  0  0  0
  7  1  1  0  0  0  0
 10 17  1  0  0  0  0
 10  9  1  0  0  0  0
 11 10  2  0  0  0  0
 12 14  2  0  0  0  0
 12 11  1  0  0  0  0
 13 12  1  0  0  0  0
 14 16  1  0  0  0  0
 15 14  1  0  0  0  0
 16 17  2  0  0  0  0
 18  2  1  0  0  0  0
 19 21  1  0  0  0  0
 19 18  1  0  0  0  0
 20 19  1  0  0  0  0
 22 19  1  0  0  0  0
 23 22  1  0  0  0  0
 24 29  1  0  0  0  0
 24 22  1  0  0  0  0
 25 24  1  0  0  0  0
 26 25  1  0  0  0  0
 27 24  1  0  0  0  0
 28 27  1  0  0  0  0
 30 31  1  0  0  0  0
 30 29  1  0  0  0  0
 32 30  1  0  0  0  0
 33 30  1  0  0  0  0
M  END
>  <minimizedAffinity>
-5.29536772

$$$$

 OpenBabel03252503033D

 33 34  0  0  0  0  0  0  0  0999 V2000
   38.8830   29.9960   40.3370 C   0  0  0  0  0  0  0  0  0  0  0  0
   37.9160   30.9190   40.7300 C   0  0  0  0  0  0  0  0  0  0  0  0
   36.6670   30.5000   41.1800 C   0  0  0  0  0  0  0  0  0  0  0  0
   36.4380   29.1630   41.2150 N   0  0  0  0  0  0  0  0  0  0  0  0
   37.3860   28.2960   40.8290 C   0  0  0  0  0  0  0  0  0  0  0  0
   38.5790   28.6750   40.4000 N   0  0  0  0  0  0  0  0  0  0  0  0
   39.8320   30.3800   39.9980 H   0  0  0  0  0  0  0  0  0  0  0  0
   35.9070   31.2330   41.4890 H   0  0  0  0  0  0  0  0  0  0  0  0
   36.5600   26.8080   38.5490 F   0  0  0  0  0  0  0  0  0  0  0  0
   36.6850   26.1700   39.7380 C   0  0  0  0  0  0  0  0  0  0  0  0
   37.0880   26.8610   40.8860 C   0  0  0  0  0  0  0  0  0  0  0  0
   37.1930   26.1460   42.0630 C   0  0  0  0  0  0  0  0  0  0  0  0
   37.5130   26.7340   42.9300 H   0  0  0  0  0  0  0  0  0  0  0  0
   36.9290   24.7950   42.1870 C   0  0  0  0  0  0  0  0  0  0  0  0
   37.0260   24.2760   43.1310 H   0  0  0  0  0  0  0  0  0  0  0  0
   36.5290   24.1130   41.0430 C   0  0  0  0  0  3  0  0  0  0  0  0
   36.4150   24.8040   39.8520 C   0  0  0  0  0  3  0  0  0  0  0  0
   38.2970   32.6840   40.6560 S   0  0  0  0  0  0  0  0  0  0  0  0
   40.0410   32.8870   40.2760 C   0  0  0  0  0  0  0  0  0  0  0  0
   40.5150   33.5150   41.0610 H   0  0  0  0  0  0  0  0  0  0  0  0
   40.5630   31.9120   40.2320 H   0  0  0  0  0  0  0  0  0  0  0  0
   40.1190   33.5860   38.9910 N   0  0  0  0  0  0  0  0  0  0  0  0
   39.1560   33.8330   38.6570 H   0  0  0  0  0  0  0  0  0  0  0  0
   41.0110   32.7200   37.8150 S   0  0  0  0  0  0  0  0  0  0  0  0
   41.5890   31.4550   38.3680 O   0  0  0  0  0  0  0  0  0  0  0  0
   41.4690   30.6060   37.8370 H   0  0  0  0  0  0  0  0  0  0  0  0
   40.0280   32.3840   36.7010 O   0  0  0  0  0  0  0  0  0  0  0  0
   39.2210   31.8270   36.8270 H   0  0  0  0  0  0  0  0  0  0  0  0
   42.1780   33.6820   37.1420 O   0  0  0  0  0  0  0  0  0  0  0  0
   43.4340   33.4760   37.7030 C   0  0  0  0  0  0  0  0  0  0  0  0
   44.1500   34.1670   37.2470 H   0  0  0  0  0  0  0  0  0  0  0  0
   43.4060   33.7070   38.8050 H   0  0  0  0  0  0  0  0  0  0  0  0
   43.7310   32.4130   37.6190 H   0  0  0  0  0  0  0  0  0  0  0  0
  1  6  2  0  0  0  0
  1  2  1  0  0  0  0
  2  3  2  0  0  0  0
  3  4  1  0  0  0  0
  3  8  1  0  0  0  0
  5 11  1  0  0  0  0
  5  4  2  0  0  0  0
  6  5  1  0  0  0  0
  7  1  1  0  0  0  0
  9 10  1  0  0  0  0
 10 17  2  0  0  0  0
 10 11  1  0  0  0  0
 11 12  2  0  0  0  0
 12 14  1  0  0  0  0
 12 13  1  0  0  0  0
 14 15  1  0  0  0  0
 16 14  2  0  0  0  0
 17 16  1  0  0  0  0
 18  2  1  0  0  0  0
 19 18  1  0  0  0  0
 19 20  1  0  0  0  0
 21 19  1  0  0  0  0
 22 19  1  0  0  0  0
 23 22  1  0  0  0  0
 24 25  1  0  0  0  0
 24 22  1  0  0  0  0
 26 25  1  0  0  0  0
 27 28  1  0  0  0  0
 27 24  1  0  0  0  0
 29 30  1  0  0  0  0
 29 24  1  0  0  0  0
 30 32  1  0  0  0  0
 31 30  1  0  0  0  0
 33 30  1  0  0  0  0
M  END
>  <minimizedAffinity>
-5.237885

$$$$

 OpenBabel03252503033D

 33 34  0  0  0  0  0  0  0  0999 V2000
   37.1680   30.4510   41.2430 C   0  0  0  0  0  0  0  0  0  0  0  0
   38.5140   30.7730   41.0850 C   0  0  0  0  0  0  0  0  0  0  0  0
   39.4720   29.7790   40.9000 C   0  0  0  0  0  0  0  0  0  0  0  0
   39.0340   28.4950   40.8820 N   0  0  0  0  0  0  0  0  0  0  0  0
   37.7330   28.2120   41.0380 C   0  0  0  0  0  0  0  0  0  0  0  0
   36.8090   29.1420   41.2140 N   0  0  0  0  0  0  0  0  0  0  0  0
   36.4720   31.2630   41.3820 H   0  0  0  0  0  0  0  0  0  0  0  0
   40.5330   30.0400   40.7760 H   0  0  0  0  0  0  0  0  0  0  0  0
   37.8520   26.5300   43.3300 F   0  0  0  0  0  0  0  0  0  0  0  0
   37.3890   26.0180   42.1640 C   0  0  0  0  0  0  0  0  0  0  0  0
   37.3130   26.8070   41.0120 C   0  0  0  0  0  0  0  0  0  0  0  0
   36.8320   26.2170   39.8590 C   0  0  0  0  0  0  0  0  0  0  0  0
   36.7930   26.8790   38.9870 H   0  0  0  0  0  0  0  0  0  0  0  0
   36.4190   24.9020   39.7640 C   0  0  0  0  0  0  0  0  0  0  0  0
   36.0480   24.4830   38.8380 H   0  0  0  0  0  0  0  0  0  0  0  0
   36.4970   24.1220   40.9120 C   0  0  0  0  0  3  0  0  0  0  0  0
   36.9750   24.6870   42.0780 C   0  0  0  0  0  3  0  0  0  0  0  0
   39.0170   32.5080   41.1190 S   0  0  0  0  0  0  0  0  0  0  0  0
   39.4580   33.0190   39.4550 C   0  0  0  0  0  0  0  0  0  0  0  0
   39.6710   34.1100   39.4520 H   0  0  0  0  0  0  0  0  0  0  0  0
   40.3510   32.4780   39.0870 H   0  0  0  0  0  0  0  0  0  0  0  0
   38.2940   32.7560   38.6050 N   0  0  0  0  0  0  0  0  0  0  0  0
   37.5360   32.2960   39.1670 H   0  0  0  0  0  0  0  0  0  0  0  0
   38.6850   31.8700   37.1950 S   0  0  0  0  0  0  0  0  0  0  0  0
   37.7340   32.1500   36.0740 O   0  0  0  0  0  0  0  0  0  0  0  0
   38.1180   32.3540   35.1640 H   0  0  0  0  0  0  0  0  0  0  0  0
   40.0870   32.3100   36.7930 O   0  0  0  0  0  0  0  0  0  0  0  0
   40.3250   33.2380   36.5490 H   0  0  0  0  0  0  0  0  0  0  0  0
   38.7760   30.2500   37.5300 O   0  0  0  0  0  0  0  0  0  0  0  0
   37.5290   29.6370   37.5580 C   0  0  0  0  0  0  0  0  0  0  0  0
   37.6520   28.5810   37.8240 H   0  0  0  0  0  0  0  0  0  0  0  0
   36.8870   30.1070   38.3550 H   0  0  0  0  0  0  0  0  0  0  0  0
   36.9940   29.7920   36.6010 H   0  0  0  0  0  0  0  0  0  0  0  0
  1  7  1  0  0  0  0
  2 18  1  0  0  0  0
  2  1  2  0  0  0  0
  3  2  1  0  0  0  0
  4  3  2  0  0  0  0
  4  5  1  0  0  0  0
  5  6  2  0  0  0  0
  6  1  1  0  0  0  0
  8  3  1  0  0  0  0
 10  9  1  0  0  0  0
 11  5  1  0  0  0  0
 11 10  2  0  0  0  0
 12 11  1  0  0  0  0
 13 12  1  0  0  0  0
 14 12  2  0  0  0  0
 14 16  1  0  0  0  0
 15 14  1  0  0  0  0
 16 17  2  0  0  0  0
 17 10  1  0  0  0  0
 19 18  1  0  0  0  0
 20 19  1  0  0  0  0
 21 19  1  0  0  0  0
 22 23  1  0  0  0  0
 22 19  1  0  0  0  0
 24 29  1  0  0  0  0
 24 22  1  0  0  0  0
 25 24  1  0  0  0  0
 26 25  1  0  0  0  0
 27 24  1  0  0  0  0
 28 27  1  0  0  0  0
 29 30  1  0  0  0  0
 30 31  1  0  0  0  0
 30 32  1  0  0  0  0
 33 30  1  0  0  0  0
M  END
>  <minimizedAffinity>
-5.14505005

$$$$

 OpenBabel03252503033D

 33 34  0  0  0  0  0  0  0  0999 V2000
   34.0260   29.1290   35.5300 C   0  0  0  0  0  0  0  0  0  0  0  0
   33.5810   28.9490   36.8370 C   0  0  0  0  0  0  0  0  0  0  0  0
   32.2970   29.3330   37.2170 C   0  0  0  0  0  0  0  0  0  0  0  0
   31.5090   29.8860   36.2600 N   0  0  0  0  0  0  0  0  0  0  0  0
   31.9620   30.0490   35.0090 C   0  0  0  0  0  0  0  0  0  0  0  0
   33.1780   29.6890   34.6300 N   0  0  0  0  0  0  0  0  0  0  0  0
   35.0300   28.8120   35.2950 H   0  0  0  0  0  0  0  0  0  0  0  0
   31.9520   29.1890   38.2510 H   0  0  0  0  0  0  0  0  0  0  0  0
   31.3840   32.8340   34.9520 F   0  0  0  0  0  0  0  0  0  0  0  0
   30.8150   32.0270   34.0240 C   0  0  0  0  0  0  0  0  0  0  0  0
   31.0710   30.6520   34.0130 C   0  0  0  0  0  0  0  0  0  0  0  0
   30.4550   29.8910   33.0380 C   0  0  0  0  0  0  0  0  0  0  0  0
   30.6890   28.8210   33.0750 H   0  0  0  0  0  0  0  0  0  0  0  0
   29.6050   30.3930   32.0710 C   0  0  0  0  0  0  0  0  0  0  0  0
   29.1460   29.7580   31.3250 H   0  0  0  0  0  0  0  0  0  0  0  0
   29.3550   31.7610   32.0860 C   0  0  0  0  0  3  0  0  0  0  0  0
   29.9570   32.5450   33.0510 C   0  0  0  0  0  3  0  0  0  0  0  0
   34.6910   28.2050   38.0540 S   0  0  0  0  0  0  0  0  0  0  0  0
   35.6650   29.5030   38.8230 C   0  0  0  0  0  0  0  0  0  0  0  0
   36.4560   29.8330   38.1160 H   0  0  0  0  0  0  0  0  0  0  0  0
   35.0380   30.3740   39.0950 H   0  0  0  0  0  0  0  0  0  0  0  0
   36.2960   28.9170   40.0080 N   0  0  0  0  0  0  0  0  0  0  0  0
   35.7070   28.1310   40.3770 H   0  0  0  0  0  0  0  0  0  0  0  0
   36.6560   30.0770   41.2130 S   0  0  0  0  0  0  0  0  0  0  0  0
   35.5540   31.0760   41.3780 O   0  0  0  0  0  0  0  0  0  0  0  0
   35.2360   31.2840   42.3120 H   0  0  0  0  0  0  0  0  0  0  0  0
   36.8340   29.3000   42.5110 O   0  0  0  0  0  0  0  0  0  0  0  0
   36.1230   28.7540   42.9290 H   0  0  0  0  0  0  0  0  0  0  0  0
   38.1060   30.8140   40.9010 O   0  0  0  0  0  0  0  0  0  0  0  0
   37.9630   32.1490   40.5390 C   0  0  0  0  0  0  0  0  0  0  0  0
   38.9490   32.5660   40.3060 H   0  0  0  0  0  0  0  0  0  0  0  0
   37.3400   32.2300   39.6050 H   0  0  0  0  0  0  0  0  0  0  0  0
   37.4200   32.7110   41.3230 H   0  0  0  0  0  0  0  0  0  0  0  0
  1  2  1  0  0  0  0
  2  3  2  0  0  0  0
  2 18  1  0  0  0  0
  3  8  1  0  0  0  0
  4  3  1  0  0  0  0
  5  4  2  0  0  0  0
  6  5  1  0  0  0  0
  6  1  2  0  0  0  0
  7  1  1  0  0  0  0
 10  9  1  0  0  0  0
 11 10  1  0  0  0  0
 11  5  1  0  0  0  0
 12 13  1  0  0  0  0
 12 11  2  0  0  0  0
 14 16  2  0  0  0  0
 14 12  1  0  0  0  0
 15 14  1  0  0  0  0
 16 17  1  0  0  0  0
 17 10  2  0  0  0  0
 18 19  1  0  0  0  0
 19 21  1  0  0  0  0
 19 22  1  0  0  0  0
 20 19  1  0  0  0  0
 22 23  1  0  0  0  0
 22 24  1  0  0  0  0
 24 25  1  0  0  0  0
 24 27  1  0  0  0  0
 25 26  1  0  0  0  0
 27 28  1  0  0  0  0
 29 24  1  0  0  0  0
 30 29  1  0  0  0  0
 30 33  1  0  0  0  0
 31 30  1  0  0  0  0
 32 30  1  0  0  0  0
M  END
>  <minimizedAffinity>
-4.99118042

$$$$
