
 OpenBabel03242511243D

 28 30  0  0  0  0  0  0  0  0999 V2000
   44.9090   33.0550   41.1200 Cl  0  0  0  0  0  0  0  0  0  0  0  0
   46.4130   33.8990   40.9160 C   0  0  0  0  0  0  0  0  0  0  0  0
   46.8840   34.7320   41.8860 C   0  0  0  0  0  0  0  0  0  0  0  0
   48.0910   35.4200   41.7340 C   0  0  0  0  0  0  0  0  0  0  0  0
   48.7840   35.2240   40.5630 C   0  0  0  0  0  0  0  0  0  0  0  0
   48.3040   34.3820   39.5880 C   0  0  0  0  0  0  0  0  0  0  0  0
   47.1150   33.7070   39.7420 C   0  0  0  0  0  0  0  0  0  0  0  0
   48.3940   36.0610   42.5510 H   0  0  0  0  0  0  0  0  0  0  0  0
   49.7130   35.7740   40.4840 H   0  0  0  0  0  0  0  0  0  0  0  0
   48.9280   34.2950   38.6990 H   0  0  0  0  0  0  0  0  0  0  0  0
   45.5000   34.1800   45.2520 C   0  0  0  0  0  0  0  0  0  0  0  0
   44.6480   35.2810   45.4200 C   0  0  0  0  0  0  0  0  0  0  0  0
   44.5590   36.2030   44.3720 C   0  0  0  0  0  0  0  0  0  0  0  0
   45.2990   35.9810   43.2570 N   0  0  0  0  0  0  0  0  0  0  0  0
   46.1100   34.9130   43.1220 C   0  0  0  0  0  0  0  0  0  0  0  0
   46.2100   34.0120   44.1210 N   0  0  0  0  0  0  0  0  0  0  0  0
   45.6350   33.4090   46.0130 H   0  0  0  0  0  0  0  0  0  0  0  0
   44.0940   35.3740   46.3520 H   0  0  0  0  0  0  0  0  0  0  0  0
   43.9030   37.0600   44.4890 H   0  0  0  0  0  0  0  0  0  0  0  0
   47.3450   34.6180   37.1760 F   0  0  0  0  0  0  0  0  0  0  0  0
   46.8120   33.3730   37.3940 C   0  0  0  0  0  0  0  0  0  0  0  0
   46.6560   32.8260   38.6700 C   0  0  0  0  0  0  0  0  0  0  0  0
   46.1070   31.5630   38.7620 C   0  0  0  0  0  0  0  0  0  0  0  0
   46.0180   31.2090   39.7760 H   0  0  0  0  0  0  0  0  0  0  0  0
   45.7370   30.8930   37.6220 C   0  0  0  0  0  0  0  0  0  0  0  0
   45.3060   29.8930   37.7560 H   0  0  0  0  0  0  0  0  0  0  0  0
   45.8750   31.4010   36.3560 C   0  0  0  0  0  0  0  0  0  0  0  0
   46.4260   32.6680   36.2580 C   0  0  0  0  0  0  0  0  0  0  0  0
  2  1  1  0  0  0  0
  2  3  1  0  0  0  0
  3 15  1  0  0  0  0
  4  3  2  0  0  0  0
  4  8  1  0  0  0  0
  5  4  1  0  0  0  0
  6  7  1  0  0  0  0
  6  5  2  0  0  0  0
  7  2  2  0  0  0  0
  9  5  1  0  0  0  0
 10  6  1  0  0  0  0
 11 12  1  0  0  0  0
 11 17  1  0  0  0  0
 12 18  1  0  0  0  0
 13 19  1  0  0  0  0
 13 12  2  0  0  0  0
 14 13  1  0  0  0  0
 15 14  2  0  0  0  0
 15 16  1  0  0  0  0
 16 11  2  0  0  0  0
 20 21  1  0  0  0  0
 21 22  1  0  0  0  0
 22 23  2  0  0  0  0
 22  7  1  0  0  0  0
 23 24  1  0  0  0  0
 25 26  1  0  0  0  0
 25 23  1  0  0  0  0
 27 25  2  0  0  0  0
 28 27  1  0  0  0  0
 28 21  2  0  0  0  0
M  END
>  <minimizedAffinity>
-5.70496178

>  <minimizedRMSD>
0.550978839

$$$$
