
 OpenBabel03252503243D

 47 52  0  0  1  0  0  0  0  0999 V2000
   45.6210   33.4890   45.2950 C   0  0  0  0  0  0  0  0  0  0  0  0
   46.6630   32.8970   44.5340 C   0  0  0  0  0  0  0  0  0  0  0  0
   47.5380   32.0590   45.1790 C   0  0  0  0  0  0  0  0  0  0  0  0
   47.3530   31.8450   46.5110 N   0  0  0  0  0  0  0  0  0  0  0  0
   46.3500   32.4200   47.2240 C   0  0  0  0  0  0  0  0  0  0  0  0
   45.4860   33.2430   46.6080 N   0  0  0  0  0  0  0  0  0  0  0  0
   44.9330   34.1540   44.7650 H   0  0  0  0  0  0  0  0  0  0  0  0
   48.3490   31.5820   44.6480 H   0  0  0  0  0  0  0  0  0  0  0  0
   46.7870   33.2060   43.0780 C   0  0  1  0  0  0  0  0  0  0  0  0
   46.8910   34.5900   42.6260 C   0  0  0  0  0  0  0  0  0  0  0  0
   48.1190   33.7520   42.5990 C   0  0  2  0  0  0  0  0  0  0  0  0
   46.3110   32.4540   42.4260 H   0  0  0  0  0  0  0  0  0  0  0  0
   46.9130   35.3750   43.4460 H   0  0  0  0  0  0  0  0  0  0  0  0
   46.2860   34.8800   41.7830 H   0  0  0  0  0  0  0  0  0  0  0  0
   48.8670   33.7740   43.4010 H   0  0  0  0  0  0  0  0  0  0  0  0
   48.5450   33.2310   41.2700 C   0  0  0  0  0  0  0  0  0  0  0  0
   49.4380   32.1950   41.0930 C   0  0  0  0  0  0  0  0  0  0  0  0
   49.7940   31.7680   39.8260 C   0  0  0  0  0  0  0  0  0  0  0  0
   49.2630   32.3710   38.7210 C   0  0  0  0  0  0  0  0  0  0  0  0
   49.5940   31.9690   37.4600 N   0  0  0  0  0  0  0  0  0  0  0  0
   49.0520   32.5840   36.3810 C   0  0  0  0  0  0  0  0  0  0  0  0
   48.1290   33.6550   36.4610 C   0  0  0  0  0  0  0  0  0  0  0  0
   47.7930   34.0620   37.7370 C   0  0  0  0  0  0  0  0  0  0  0  0
   48.3550   33.4250   38.8380 C   0  0  0  0  0  0  0  0  0  0  0  0
   48.0250   33.8200   40.1180 C   0  0  0  0  0  0  0  0  0  0  0  0
   49.8530   31.7230   41.9860 H   0  0  0  0  0  0  0  0  0  0  0  0
   50.4900   30.9600   39.6800 H   0  0  0  0  0  0  0  0  0  0  0  0
   49.3100   32.2710   35.3940 H   0  0  0  0  0  0  0  0  0  0  0  0
   47.7460   34.0870   35.5470 H   0  0  0  0  0  0  0  0  0  0  0  0
   47.0930   34.8740   37.8430 H   0  0  0  0  0  0  0  0  0  0  0  0
   47.3240   34.6430   40.1280 H   0  0  0  0  0  0  0  0  0  0  0  0
   46.2480   32.1040   48.6740 C   0  0  2  0  0  0  0  0  0  0  0  0
   47.2340   31.2680   49.3400 C   0  0  0  0  0  0  0  0  0  0  0  0
   45.9400   30.5980   48.9580 C   0  0  2  0  0  0  0  0  0  0  0  0
   45.5630   32.7860   49.2490 H   0  0  0  0  0  0  0  0  0  0  0  0
   47.4070   31.4670   50.4350 H   0  0  0  0  0  0  0  0  0  0  0  0
   48.1690   31.0880   48.8130 H   0  0  0  0  0  0  0  0  0  0  0  0
   45.2580   30.3950   49.8030 H   0  0  0  0  0  0  0  0  0  0  0  0
   47.9710   28.9090   47.8450 F   0  0  0  0  0  0  0  0  0  0  0  0
   46.7860   28.8800   47.2210 C   0  0  0  0  0  0  0  0  0  0  0  0
   45.8460   29.7090   47.7950 C   0  0  0  0  0  0  0  0  0  0  0  0
   44.5670   29.7620   47.2270 C   0  0  0  0  0  0  0  0  0  0  0  0
   43.7190   30.3730   47.5740 H   0  0  0  0  0  0  0  0  0  0  0  0
   44.2420   28.9950   46.1030 C   0  0  0  0  0  0  0  0  0  0  0  0
   43.2640   29.0180   45.6470 H   0  0  0  0  0  0  0  0  0  0  0  0
   45.2110   28.1740   45.5530 C   0  0  0  0  0  0  0  0  0  0  0  0
   46.4630   28.1250   46.1120 C   0  0  0  0  0  0  0  0  0  0  0  0
  1  6  1  0  0  0  0
  2  3  1  0  0  0  0
  2  1  2  0  0  0  0
  3  4  2  0  0  0  0
  4  5  1  0  0  0  0
  5 32  1  0  0  0  0
  6  5  2  0  0  0  0
  7  1  1  0  0  0  0
  8  3  1  0  0  0  0
  9 12  1  6  0  0  0
  9  2  1  0  0  0  0
 10  9  1  0  0  0  0
 10 13  1  0  0  0  0
 11 10  1  0  0  0  0
 11  9  1  0  0  0  0
 11 15  1  1  0  0  0
 14 10  1  0  0  0  0
 16 11  1  0  0  0  0
 17 16  1  0  0  0  0
 17 26  1  0  0  0  0
 18 17  2  0  0  0  0
 19 24  1  0  0  0  0
 19 18  1  0  0  0  0
 20 19  2  0  0  0  0
 21 22  2  0  0  0  0
 21 20  1  0  0  0  0
 22 23  1  0  0  0  0
 23 30  1  0  0  0  0
 23 24  2  0  0  0  0
 24 25  1  0  0  0  0
 25 31  1  0  0  0  0
 25 16  2  0  0  0  0
 27 18  1  0  0  0  0
 28 21  1  0  0  0  0
 29 22  1  0  0  0  0
 32 34  1  0  0  0  0
 32 35  1  1  0  0  0
 32 33  1  0  0  0  0
 33 36  1  0  0  0  0
 34 33  1  0  0  0  0
 34 38  1  1  0  0  0
 37 33  1  0  0  0  0
 40 41  1  0  0  0  0
 40 39  1  0  0  0  0
 41 34  1  0  0  0  0
 42 43  1  0  0  0  0
 42 41  2  0  0  0  0
 44 42  1  0  0  0  0
 45 44  1  0  0  0  0
 46 44  2  0  0  0  0
 46 47  1  0  0  0  0
 47 40  2  0  0  0  0
M  END
>  <minimizedAffinity>
-5.78153229

>  <minimizedRMSD>
1.32491291

$$$$
