
 OpenBabel03252508383D

 41 44  0  0  0  0  0  0  0  0999 V2000
   45.1110   33.9790   40.7510 C   0  0  0  0  0  0  0  0  0  0  0  0
   44.0690   33.6260   39.9470 C   0  0  0  0  0  0  0  0  0  0  0  0
   44.3690   33.0820   38.7260 C   0  0  0  0  0  0  0  0  0  0  0  0
   45.6550   32.8750   38.2710 C   0  0  0  0  0  0  0  0  0  0  0  0
   46.6830   33.2430   39.1050 C   0  0  0  0  0  0  0  0  0  0  0  0
   46.4290   33.7950   40.3450 C   0  0  0  0  0  0  0  0  0  0  0  0
   43.5480   32.7970   38.0790 H   0  0  0  0  0  0  0  0  0  0  0  0
   45.8730   32.4430   37.3010 H   0  0  0  0  0  0  0  0  0  0  0  0
   47.6980   33.0790   38.7450 H   0  0  0  0  0  0  0  0  0  0  0  0
   40.8020   35.3020   40.8130 C   0  0  0  0  0  0  0  0  0  0  0  0
   42.0990   35.1060   40.3090 C   0  0  0  0  0  0  0  0  0  0  0  0
   42.7320   33.8550   40.4570 C   0  0  0  0  0  0  0  0  0  0  0  0
   42.0060   32.9200   41.0960 N   0  0  0  0  0  0  0  0  0  0  0  0
   40.7810   33.1160   41.5680 C   0  0  0  0  0  0  0  0  0  0  0  0
   40.1760   34.3010   41.4290 N   0  0  0  0  0  0  0  0  0  0  0  0
   40.2150   36.5820   40.6340 N   0  0  0  0  0  0  0  0  0  0  0  0
   42.6380   35.9030   39.8000 H   0  0  0  0  0  0  0  0  0  0  0  0
   40.2870   32.2800   42.0700 H   0  0  0  0  0  0  0  0  0  0  0  0
   39.7970   36.9610   39.7560 H   0  0  0  0  0  0  0  0  0  0  0  0
   40.0860   37.3660   41.3070 H   0  0  0  0  0  0  0  0  0  0  0  0
   47.5820   34.1500   41.1480 C   0  0  0  0  0  0  0  0  0  0  0  0
   48.1310   35.3870   40.8890 C   0  0  0  0  0  0  0  0  0  0  0  0
   49.2410   35.9030   41.5580 C   0  0  0  0  0  0  0  0  0  0  0  0
   49.8160   35.1130   42.5370 C   0  0  0  0  0  0  0  0  0  0  0  0
   49.2870   33.8680   42.8180 C   0  0  0  0  0  0  0  0  0  0  0  0
   48.1840   33.4050   42.1250 C   0  0  0  0  0  0  0  0  0  0  0  0
   47.7290   36.0580   40.1320 H   0  0  0  0  0  0  0  0  0  0  0  0
   49.6700   36.8640   41.3590 H   0  0  0  0  0  0  0  0  0  0  0  0
   50.6790   35.3930   43.1300 H   0  0  0  0  0  0  0  0  0  0  0  0
   49.6770   33.1920   43.5680 H   0  0  0  0  0  0  0  0  0  0  0  0
   46.8590   33.1860   44.4890 F   0  0  0  0  0  0  0  0  0  0  0  0
   46.9560   32.1020   43.6470 C   0  0  0  0  0  0  0  0  0  0  0  0
   47.6090   32.0950   42.4090 C   0  0  0  0  0  0  0  0  0  0  0  0
   47.6170   30.9180   41.6780 C   0  0  0  0  0  0  0  0  0  0  0  0
   48.1420   31.0290   40.7600 H   0  0  0  0  0  0  0  0  0  0  0  0
   46.9880   29.8090   42.1910 C   0  0  0  0  0  0  0  0  0  0  0  0
   47.0460   28.9330   41.5470 H   0  0  0  0  0  0  0  0  0  0  0  0
   46.3460   29.8250   43.4110 C   0  0  0  0  0  3  0  0  0  0  0  0
   46.3260   31.0020   44.1660 C   0  0  0  0  0  3  0  0  0  0  0  0
   44.7030   35.0280   43.1030 N   0  0  0  0  0  0  0  0  0  0  0  0
   44.8960   34.5600   42.0510 C   0  0  0  0  0  0  0  0  0  0  0  0
  1 41  1  0  0  0  0
  2 12  1  0  0  0  0
  2  1  2  0  0  0  0
  3  2  1  0  0  0  0
  4  3  2  0  0  0  0
  4  5  1  0  0  0  0
  5  6  2  0  0  0  0
  6  1  1  0  0  0  0
  6 21  1  0  0  0  0
  7  3  1  0  0  0  0
  8  4  1  0  0  0  0
  9  5  1  0  0  0  0
 10 15  1  0  0  0  0
 11 12  1  0  0  0  0
 11 10  2  0  0  0  0
 12 13  2  0  0  0  0
 13 14  1  0  0  0  0
 14 18  1  0  0  0  0
 15 14  2  0  0  0  0
 16 10  1  0  0  0  0
 16 20  1  0  0  0  0
 17 11  1  0  0  0  0
 19 16  1  0  0  0  0
 21 26  1  0  0  0  0
 22 21  2  0  0  0  0
 22 23  1  0  0  0  0
 23 24  2  0  0  0  0
 24 25  1  0  0  0  0
 24 29  1  0  0  0  0
 25 30  1  0  0  0  0
 26 33  1  0  0  0  0
 26 25  2  0  0  0  0
 27 22  1  0  0  0  0
 28 23  1  0  0  0  0
 32 39  1  0  0  0  0
 32 31  1  0  0  0  0
 33 32  2  0  0  0  0
 34 36  2  0  0  0  0
 34 33  1  0  0  0  0
 35 34  1  0  0  0  0
 36 38  1  0  0  0  0
 37 36  1  0  0  0  0
 38 39  2  0  0  0  0
 41 40  3  0  0  0  0
M  END
>  <minimizedAffinity>
-6.25267553

>  <minimizedRMSD>
0.501013756

$$$$
