
 OpenBabel03252508393D

 41 44  0  0  0  0  0  0  0  0999 V2000
   45.1530   33.9490   40.7000 C   0  0  0  0  0  0  0  0  0  0  0  0
   44.1110   33.6350   39.8810 C   0  0  0  0  0  0  0  0  0  0  0  0
   44.4100   33.1540   38.6340 C   0  0  0  0  0  0  0  0  0  0  0  0
   45.6960   32.9710   38.1680 C   0  0  0  0  0  0  0  0  0  0  0  0
   46.7240   33.2970   39.0180 C   0  0  0  0  0  0  0  0  0  0  0  0
   46.4710   33.7860   40.2850 C   0  0  0  0  0  0  0  0  0  0  0  0
   43.5890   32.9010   37.9740 H   0  0  0  0  0  0  0  0  0  0  0  0
   45.9120   32.5890   37.1770 H   0  0  0  0  0  0  0  0  0  0  0  0
   47.7390   33.1530   38.6490 H   0  0  0  0  0  0  0  0  0  0  0  0
   40.8240   35.2490   40.7900 C   0  0  0  0  0  0  0  0  0  0  0  0
   42.1210   35.0800   40.2750 C   0  0  0  0  0  0  0  0  0  0  0  0
   42.7740   33.8380   40.4030 C   0  0  0  0  0  0  0  0  0  0  0  0
   42.0670   32.8840   41.0360 N   0  0  0  0  0  0  0  0  0  0  0  0
   40.8420   33.0550   41.5190 C   0  0  0  0  0  0  0  0  0  0  0  0
   40.2180   34.2320   41.3990 N   0  0  0  0  0  0  0  0  0  0  0  0
   40.2160   36.5220   40.6310 N   0  0  0  0  0  0  0  0  0  0  0  0
   42.6430   35.8910   39.7720 H   0  0  0  0  0  0  0  0  0  0  0  0
   40.3650   32.2060   42.0150 H   0  0  0  0  0  0  0  0  0  0  0  0
   39.7860   36.9050   39.7600 H   0  0  0  0  0  0  0  0  0  0  0  0
   40.0790   37.2970   41.3140 H   0  0  0  0  0  0  0  0  0  0  0  0
   47.6250   34.1020   41.1030 C   0  0  0  0  0  0  0  0  0  0  0  0
   48.1350   35.3720   40.9500 C   0  0  0  0  0  0  0  0  0  0  0  0
   49.2400   35.8580   41.6490 C   0  0  0  0  0  0  0  0  0  0  0  0
   49.8500   35.0010   42.5470 C   0  0  0  0  0  0  0  0  0  0  0  0
   49.3590   33.7220   42.7220 C   0  0  0  0  0  0  0  0  0  0  0  0
   48.2600   33.2900   42.0030 C   0  0  0  0  0  0  0  0  0  0  0  0
   47.7050   36.0950   40.2590 H   0  0  0  0  0  0  0  0  0  0  0  0
   49.6400   36.8460   41.5320 H   0  0  0  0  0  0  0  0  0  0  0  0
   50.7130   35.2520   43.1540 H   0  0  0  0  0  0  0  0  0  0  0  0
   49.7780   32.9930   43.4050 H   0  0  0  0  0  0  0  0  0  0  0  0
   49.3520   31.3730   40.4140 F   0  0  0  0  0  0  0  0  0  0  0  0
   48.3610   31.0480   41.3090 C   0  0  0  0  0  0  0  0  0  0  0  0
   47.7250   31.9450   42.1760 C   0  0  0  0  0  0  0  0  0  0  0  0
   46.7400   31.4560   43.0200 C   0  0  0  0  0  0  0  0  0  0  0  0
   46.3280   32.2240   43.6290 H   0  0  0  0  0  0  0  0  0  0  0  0
   46.4260   30.1190   42.9760 C   0  0  0  0  0  0  0  0  0  0  0  0
   45.6420   29.8280   43.6740 H   0  0  0  0  0  0  0  0  0  0  0  0
   47.0570   29.2420   42.1190 C   0  0  0  0  0  3  0  0  0  0  0  0
   48.0530   29.7140   41.2590 C   0  0  0  0  0  3  0  0  0  0  0  0
   44.7460   34.8780   43.1030 N   0  0  0  0  0  0  0  0  0  0  0  0
   44.9390   34.4640   42.0280 C   0  0  0  0  0  0  0  0  0  0  0  0
  1 41  1  0  0  0  0
  2 12  1  0  0  0  0
  2  1  2  0  0  0  0
  3  2  1  0  0  0  0
  4  3  2  0  0  0  0
  4  5  1  0  0  0  0
  5  6  2  0  0  0  0
  6  1  1  0  0  0  0
  6 21  1  0  0  0  0
  7  3  1  0  0  0  0
  8  4  1  0  0  0  0
  9  5  1  0  0  0  0
 10 15  1  0  0  0  0
 11 12  1  0  0  0  0
 11 10  2  0  0  0  0
 12 13  2  0  0  0  0
 13 14  1  0  0  0  0
 14 18  1  0  0  0  0
 15 14  2  0  0  0  0
 16 10  1  0  0  0  0
 16 20  1  0  0  0  0
 17 11  1  0  0  0  0
 19 16  1  0  0  0  0
 21 26  1  0  0  0  0
 22 21  2  0  0  0  0
 22 23  1  0  0  0  0
 23 24  2  0  0  0  0
 24 25  1  0  0  0  0
 24 29  1  0  0  0  0
 25 30  1  0  0  0  0
 26 33  1  0  0  0  0
 26 25  2  0  0  0  0
 27 22  1  0  0  0  0
 28 23  1  0  0  0  0
 31 32  1  0  0  0  0
 32 33  1  0  0  0  0
 33 34  2  0  0  0  0
 34 35  1  0  0  0  0
 36 34  1  0  0  0  0
 36 37  1  0  0  0  0
 38 36  2  0  0  0  0
 39 32  2  0  0  0  0
 39 38  1  0  0  0  0
 41 40  3  0  0  0  0
M  END
>  <minimizedAffinity>
-6.085814

>  <minimizedRMSD>
0.800358295

$$$$
