
 OpenBabel03252507013D

 37 39  0  0  0  0  0  0  0  0999 V2000
   38.5600   28.1580   41.2370 N   0  0  0  0  0  0  0  0  0  0  0  0
   39.3730   27.2220   41.9460 C   0  0  0  0  0  0  0  0  0  0  0  0
   38.9820   27.5330   43.4030 C   0  0  0  0  0  0  0  0  0  0  0  0
   37.5470   27.3670   43.6790 C   0  0  0  0  0  0  0  0  0  0  0  0
   36.6200   27.3790   42.4970 C   0  0  0  0  0  0  0  0  0  0  0  0
   37.1470   27.8160   41.1950 C   0  0  0  0  0  0  0  0  0  0  0  0
   39.0480   26.1960   41.7860 H   0  0  0  0  0  0  0  0  0  0  0  0
   40.4350   27.2340   41.8060 H   0  0  0  0  0  0  0  0  0  0  0  0
   39.5350   26.7780   44.0090 H   0  0  0  0  0  0  0  0  0  0  0  0
   39.3980   28.5250   43.7090 H   0  0  0  0  0  0  0  0  0  0  0  0
   37.3190   26.4020   44.2130 H   0  0  0  0  0  0  0  0  0  0  0  0
   37.2240   28.1400   44.4090 H   0  0  0  0  0  0  0  0  0  0  0  0
   35.6320   27.0950   42.6390 H   0  0  0  0  0  0  0  0  0  0  0  0
   35.1350   29.9150   40.8090 F   0  0  0  0  0  0  0  0  0  0  0  0
   35.3010   28.9100   39.9290 C   0  0  0  0  0  0  0  0  0  0  0  0
   36.2650   27.9530   40.0980 C   0  0  0  0  0  0  0  0  0  0  0  0
   36.2610   27.0560   39.0740 C   0  0  0  0  0  0  0  0  0  0  0  0
   36.9490   26.2300   39.0720 H   0  0  0  0  0  0  0  0  0  0  0  0
   35.4200   27.0620   37.9870 C   0  0  0  0  0  0  0  0  0  0  0  0
   35.4720   26.3170   37.2090 H   0  0  0  0  0  0  0  0  0  0  0  0
   34.4660   28.0470   37.8630 C   0  0  0  0  0  3  0  0  0  0  0  0
   34.4250   28.9840   38.8720 C   0  0  0  0  0  3  0  0  0  0  0  0
   38.9280   29.4040   40.8350 C   0  0  0  0  0  0  0  0  0  0  0  0
   39.9970   29.6730   40.7430 H   0  0  0  0  0  0  0  0  0  0  0  0
   38.5330   29.7190   39.8080 H   0  0  0  0  0  0  0  0  0  0  0  0
   38.3230   30.4590   41.7340 C   0  0  0  0  0  0  0  0  0  0  0  0
   37.2060   30.2620   41.7160 H   0  0  0  0  0  0  0  0  0  0  0  0
   38.5770   30.4280   42.7760 H   0  0  0  0  0  0  0  0  0  0  0  0
   38.4330   31.7540   41.0440 C   0  0  0  0  0  0  0  0  0  0  0  0
   37.3920   32.2830   40.3200 C   0  0  0  0  0  0  0  0  0  0  0  0
   37.5420   33.5120   39.6690 C   0  0  0  0  0  0  0  0  0  0  0  0
   38.7510   34.1280   39.7950 N   0  0  0  0  0  0  0  0  0  0  0  0
   39.7410   33.5910   40.5040 C   0  0  0  0  0  0  0  0  0  0  0  0
   39.5670   32.4170   41.1140 N   0  0  0  0  0  0  0  0  0  0  0  0
   36.4470   31.7650   40.2420 H   0  0  0  0  0  0  0  0  0  0  0  0
   36.7760   33.9810   39.0900 H   0  0  0  0  0  0  0  0  0  0  0  0
   40.7060   34.0920   40.6000 H   0  0  0  0  0  0  0  0  0  0  0  0
  1  2  1  0  0  0  0
  2  3  1  0  0  0  0
  3  4  1  0  0  0  0
  3 10  1  0  0  0  0
  3  9  1  0  0  0  0
  4 11  1  0  0  0  0
  4 12  1  0  0  0  0
  5 13  1  0  0  0  0
  5  4  1  0  0  0  0
  6  1  1  0  0  0  0
  6  5  2  0  0  0  0
  7  2  1  0  0  0  0
  8  2  1  0  0  0  0
 15 16  1  0  0  0  0
 15 14  1  0  0  0  0
 16  6  1  0  0  0  0
 17 16  2  0  0  0  0
 18 17  1  0  0  0  0
 19 17  1  0  0  0  0
 20 19  1  0  0  0  0
 21 19  2  0  0  0  0
 21 22  1  0  0  0  0
 22 15  2  0  0  0  0
 23  1  1  0  0  0  0
 23 26  1  0  0  0  0
 24 23  1  0  0  0  0
 25 23  1  0  0  0  0
 26 28  1  0  0  0  0
 27 26  1  0  0  0  0
 29 34  1  0  0  0  0
 29 26  1  0  0  0  0
 30 29  2  0  0  0  0
 31 32  2  0  0  0  0
 31 30  1  0  0  0  0
 32 33  1  0  0  0  0
 33 37  1  0  0  0  0
 33 34  2  0  0  0  0
 35 30  1  0  0  0  0
 36 31  1  0  0  0  0
M  END
>  <minimizedAffinity>
-5.38292885

$$$$

 OpenBabel03252507013D

 37 39  0  0  0  0  0  0  0  0999 V2000
   35.7850   29.0970   39.4710 N   0  0  0  0  0  0  0  0  0  0  0  0
   34.4710   28.9130   38.9400 C   0  0  0  0  0  0  0  0  0  0  0  0
   34.7810   28.1430   37.6420 C   0  0  0  0  0  0  0  0  0  0  0  0
   35.4900   26.8730   37.8630 C   0  0  0  0  0  0  0  0  0  0  0  0
   36.2030   26.7100   39.1750 C   0  0  0  0  0  0  0  0  0  0  0  0
   36.3800   27.8930   40.0310 C   0  0  0  0  0  0  0  0  0  0  0  0
   33.8830   28.2200   39.5380 H   0  0  0  0  0  0  0  0  0  0  0  0
   33.8520   29.7680   38.7590 H   0  0  0  0  0  0  0  0  0  0  0  0
   33.7800   27.9040   37.2130 H   0  0  0  0  0  0  0  0  0  0  0  0
   35.2710   28.8220   36.9000 H   0  0  0  0  0  0  0  0  0  0  0  0
   34.8080   25.9800   37.7920 H   0  0  0  0  0  0  0  0  0  0  0  0
   36.2070   26.7070   37.0300 H   0  0  0  0  0  0  0  0  0  0  0  0
   36.5640   25.7710   39.4290 H   0  0  0  0  0  0  0  0  0  0  0  0
   39.2950   27.6150   40.2020 F   0  0  0  0  0  0  0  0  0  0  0  0
   38.5090   27.6250   41.2950 C   0  0  0  0  0  0  0  0  0  0  0  0
   37.1530   27.7890   41.2100 C   0  0  0  0  0  0  0  0  0  0  0  0
   36.5730   27.7890   42.4410 C   0  0  0  0  0  0  0  0  0  0  0  0
   35.5080   27.8890   42.5410 H   0  0  0  0  0  0  0  0  0  0  0  0
   37.2180   27.6460   43.6470 C   0  0  0  0  0  0  0  0  0  0  0  0
   36.6950   27.6550   44.5900 H   0  0  0  0  0  0  0  0  0  0  0  0
   38.5850   27.4830   43.6800 C   0  0  0  0  0  3  0  0  0  0  0  0
   39.2260   27.4760   42.4600 C   0  0  0  0  0  3  0  0  0  0  0  0
   36.5870   30.1780   39.2840 C   0  0  0  0  0  0  0  0  0  0  0  0
   37.6760   30.0510   39.1310 H   0  0  0  0  0  0  0  0  0  0  0  0
   36.3140   30.8360   38.3890 H   0  0  0  0  0  0  0  0  0  0  0  0
   36.4530   31.1520   40.4340 C   0  0  0  0  0  0  0  0  0  0  0  0
   35.7090   31.9310   40.0790 H   0  0  0  0  0  0  0  0  0  0  0  0
   36.0290   30.7840   41.3490 H   0  0  0  0  0  0  0  0  0  0  0  0
   37.7060   31.9170   40.5240 C   0  0  0  0  0  0  0  0  0  0  0  0
   38.8840   31.3370   40.9300 C   0  0  0  0  0  0  0  0  0  0  0  0
   40.0510   32.1020   41.0140 C   0  0  0  0  0  0  0  0  0  0  0  0
   39.9460   33.4190   40.6780 N   0  0  0  0  0  0  0  0  0  0  0  0
   38.7910   33.9530   40.2880 C   0  0  0  0  0  0  0  0  0  0  0  0
   37.6940   33.1960   40.2180 N   0  0  0  0  0  0  0  0  0  0  0  0
   38.9300   30.2880   41.1880 H   0  0  0  0  0  0  0  0  0  0  0  0
   41.0000   31.7170   41.3210 H   0  0  0  0  0  0  0  0  0  0  0  0
   38.7160   35.0080   40.0210 H   0  0  0  0  0  0  0  0  0  0  0  0
  1  6  1  0  0  0  0
  2  1  1  0  0  0  0
  2  7  1  0  0  0  0
  3  4  1  0  0  0  0
  3  2  1  0  0  0  0
  4  5  1  0  0  0  0
  5 13  1  0  0  0  0
  5  6  2  0  0  0  0
  6 16  1  0  0  0  0
  8  2  1  0  0  0  0
  9  3  1  0  0  0  0
 10  3  1  0  0  0  0
 11  4  1  0  0  0  0
 12  4  1  0  0  0  0
 14 15  1  0  0  0  0
 15 22  1  0  0  0  0
 16 15  2  0  0  0  0
 16 17  1  0  0  0  0
 17 18  1  0  0  0  0
 17 19  2  0  0  0  0
 19 21  1  0  0  0  0
 19 20  1  0  0  0  0
 22 21  2  0  0  0  0
 23  1  1  0  0  0  0
 23 26  1  0  0  0  0
 24 23  1  0  0  0  0
 25 23  1  0  0  0  0
 26 29  1  0  0  0  0
 26 28  1  0  0  0  0
 27 26  1  0  0  0  0
 29 30  1  0  0  0  0
 30 31  2  0  0  0  0
 30 35  1  0  0  0  0
 31 36  1  0  0  0  0
 32 31  1  0  0  0  0
 33 32  2  0  0  0  0
 34 33  1  0  0  0  0
 34 29  2  0  0  0  0
 37 33  1  0  0  0  0
M  END
>  <minimizedAffinity>
-5.27384806

$$$$

 OpenBabel03252507013D

 37 39  0  0  0  0  0  0  0  0999 V2000
   37.3200   26.6890   41.5970 N   0  0  0  0  0  0  0  0  0  0  0  0
   38.1790   25.6440   42.0580 C   0  0  0  0  0  0  0  0  0  0  0  0
   37.1920   24.4660   42.1510 C   0  0  0  0  0  0  0  0  0  0  0  0
   36.5350   24.1430   40.8740 C   0  0  0  0  0  0  0  0  0  0  0  0
   36.5340   25.2120   39.8190 C   0  0  0  0  0  0  0  0  0  0  0  0
   36.9340   26.5760   40.2000 C   0  0  0  0  0  0  0  0  0  0  0  0
   38.8980   25.3430   41.2990 H   0  0  0  0  0  0  0  0  0  0  0  0
   38.7290   25.7780   42.9670 H   0  0  0  0  0  0  0  0  0  0  0  0
   37.8240   23.5930   42.4390 H   0  0  0  0  0  0  0  0  0  0  0  0
   36.4880   24.6210   43.0050 H   0  0  0  0  0  0  0  0  0  0  0  0
   36.9880   23.2430   40.3720 H   0  0  0  0  0  0  0  0  0  0  0  0
   35.4910   23.8190   41.0740 H   0  0  0  0  0  0  0  0  0  0  0  0
   36.2340   24.9590   38.8590 H   0  0  0  0  0  0  0  0  0  0  0  0
   39.1310   28.1140   39.0120 F   0  0  0  0  0  0  0  0  0  0  0  0
   37.8400   28.3660   38.7240 C   0  0  0  0  0  0  0  0  0  0  0  0
   36.8220   27.6220   39.2560 C   0  0  0  0  0  0  0  0  0  0  0  0
   35.6090   28.0440   38.8050 C   0  0  0  0  0  0  0  0  0  0  0  0
   34.7070   27.5710   39.1470 H   0  0  0  0  0  0  0  0  0  0  0  0
   35.3780   29.0780   37.9290 C   0  0  0  0  0  0  0  0  0  0  0  0
   34.3870   29.3610   37.6120 H   0  0  0  0  0  0  0  0  0  0  0  0
   36.4370   29.7970   37.4220 C   0  0  0  0  0  3  0  0  0  0  0  0
   37.6910   29.4130   37.8440 C   0  0  0  0  0  3  0  0  0  0  0  0
   36.6600   27.5910   42.3710 C   0  0  0  0  0  0  0  0  0  0  0  0
   35.8380   28.2000   41.9490 H   0  0  0  0  0  0  0  0  0  0  0  0
   36.1570   27.1570   43.3020 H   0  0  0  0  0  0  0  0  0  0  0  0
   37.6260   28.5840   42.9790 C   0  0  0  0  0  0  0  0  0  0  0  0
   37.1010   28.9850   43.9010 H   0  0  0  0  0  0  0  0  0  0  0  0
   38.5580   28.2050   43.3550 H   0  0  0  0  0  0  0  0  0  0  0  0
   37.6760   29.7600   42.0970 C   0  0  0  0  0  0  0  0  0  0  0  0
   38.8610   30.3790   41.7790 C   0  0  0  0  0  0  0  0  0  0  0  0
   38.8650   31.5030   40.9460 C   0  0  0  0  0  0  0  0  0  0  0  0
   37.6550   31.9290   40.4870 N   0  0  0  0  0  0  0  0  0  0  0  0
   36.5230   31.3080   40.8130 C   0  0  0  0  0  0  0  0  0  0  0  0
   36.5520   30.2390   41.6100 N   0  0  0  0  0  0  0  0  0  0  0  0
   39.8030   30.0120   42.1600 H   0  0  0  0  0  0  0  0  0  0  0  0
   39.7470   32.0320   40.6570 H   0  0  0  0  0  0  0  0  0  0  0  0
   35.5580   31.6570   40.4410 H   0  0  0  0  0  0  0  0  0  0  0  0
  1  2  1  0  0  0  0
  1 23  1  0  0  0  0
  2  3  1  0  0  0  0
  2  8  1  0  0  0  0
  3  9  1  0  0  0  0
  3 10  1  0  0  0  0
  4 12  1  0  0  0  0
  4  3  1  0  0  0  0
  5  6  2  0  0  0  0
  5  4  1  0  0  0  0
  6  1  1  0  0  0  0
  7  2  1  0  0  0  0
 11  4  1  0  0  0  0
 13  5  1  0  0  0  0
 15 14  1  0  0  0  0
 15 16  1  0  0  0  0
 16  6  1  0  0  0  0
 17 18  1  0  0  0  0
 17 16  2  0  0  0  0
 19 17  1  0  0  0  0
 20 19  1  0  0  0  0
 21 22  1  0  0  0  0
 21 19  2  0  0  0  0
 22 15  2  0  0  0  0
 23 26  1  0  0  0  0
 23 25  1  0  0  0  0
 24 23  1  0  0  0  0
 26 28  1  0  0  0  0
 26 27  1  0  0  0  0
 29 26  1  0  0  0  0
 30 29  1  0  0  0  0
 30 35  1  0  0  0  0
 31 30  2  0  0  0  0
 32 33  2  0  0  0  0
 32 31  1  0  0  0  0
 33 34  1  0  0  0  0
 34 29  2  0  0  0  0
 36 31  1  0  0  0  0
 37 33  1  0  0  0  0
M  END
>  <minimizedAffinity>
-5.19924641

$$$$

 OpenBabel03252507013D

 37 39  0  0  0  0  0  0  0  0999 V2000
   36.8160   29.5380   39.2300 N   0  0  0  0  0  0  0  0  0  0  0  0
   37.1240   28.2870   38.6120 C   0  0  0  0  0  0  0  0  0  0  0  0
   36.2620   28.3650   37.3380 C   0  0  0  0  0  0  0  0  0  0  0  0
   36.5770   29.5180   36.4800 C   0  0  0  0  0  0  0  0  0  0  0  0
   37.3080   30.6640   37.1210 C   0  0  0  0  0  0  0  0  0  0  0  0
   37.4250   30.6910   38.5870 C   0  0  0  0  0  0  0  0  0  0  0  0
   38.1490   28.2530   38.2500 H   0  0  0  0  0  0  0  0  0  0  0  0
   36.9570   27.3770   39.1520 H   0  0  0  0  0  0  0  0  0  0  0  0
   36.5170   27.4390   36.7700 H   0  0  0  0  0  0  0  0  0  0  0  0
   35.1790   28.2680   37.6000 H   0  0  0  0  0  0  0  0  0  0  0  0
   37.2080   29.2350   35.5910 H   0  0  0  0  0  0  0  0  0  0  0  0
   35.6400   29.8920   36.0140 H   0  0  0  0  0  0  0  0  0  0  0  0
   37.6930   31.4090   36.5100 H   0  0  0  0  0  0  0  0  0  0  0  0
   40.0110   30.8070   39.9670 F   0  0  0  0  0  0  0  0  0  0  0  0
   39.1890   31.8710   39.8920 C   0  0  0  0  0  0  0  0  0  0  0  0
   37.9990   31.8190   39.2170 C   0  0  0  0  0  0  0  0  0  0  0  0
   37.3520   33.0150   39.2580 C   0  0  0  0  0  0  0  0  0  0  0  0
   36.3920   33.1300   38.7880 H   0  0  0  0  0  0  0  0  0  0  0  0
   37.7900   34.1600   39.8810 C   0  0  0  0  0  0  0  0  0  0  0  0
   37.2240   35.0780   39.8730 H   0  0  0  0  0  0  0  0  0  0  0  0
   38.9940   34.1610   40.5470 C   0  0  0  0  0  3  0  0  0  0  0  0
   39.6950   32.9740   40.5390 C   0  0  0  0  0  3  0  0  0  0  0  0
   35.8530   29.7610   40.1630 C   0  0  0  0  0  0  0  0  0  0  0  0
   35.0120   30.4480   39.9500 H   0  0  0  0  0  0  0  0  0  0  0  0
   35.2920   28.8280   40.5140 H   0  0  0  0  0  0  0  0  0  0  0  0
   36.4620   30.2580   41.4550 C   0  0  0  0  0  0  0  0  0  0  0  0
   37.3070   30.9450   41.1420 H   0  0  0  0  0  0  0  0  0  0  0  0
   35.8500   30.8690   42.0910 H   0  0  0  0  0  0  0  0  0  0  0  0
   37.1750   29.1310   42.0780 C   0  0  0  0  0  0  0  0  0  0  0  0
   36.5560   27.9310   42.3330 C   0  0  0  0  0  0  0  0  0  0  0  0
   37.2660   26.8890   42.9380 C   0  0  0  0  0  0  0  0  0  0  0  0
   38.5700   27.1350   43.2490 N   0  0  0  0  0  0  0  0  0  0  0  0
   39.1420   28.3090   42.9900 C   0  0  0  0  0  0  0  0  0  0  0  0
   38.4380   29.2840   42.4120 N   0  0  0  0  0  0  0  0  0  0  0  0
   35.5200   27.7710   42.0710 H   0  0  0  0  0  0  0  0  0  0  0  0
   36.8490   25.9310   43.1640 H   0  0  0  0  0  0  0  0  0  0  0  0
   40.1870   28.4980   43.2430 H   0  0  0  0  0  0  0  0  0  0  0  0
  1 23  1  0  0  0  0
  2  8  1  0  0  0  0
  2  1  1  0  0  0  0
  3 10  1  0  0  0  0
  3  2  1  0  0  0  0
  4  5  1  0  0  0  0
  4  3  1  0  0  0  0
  5  6  2  0  0  0  0
  6 16  1  0  0  0  0
  6  1  1  0  0  0  0
  7  2  1  0  0  0  0
  9  3  1  0  0  0  0
 11  4  1  0  0  0  0
 12  4  1  0  0  0  0
 13  5  1  0  0  0  0
 15 14  1  0  0  0  0
 15 22  1  0  0  0  0
 16 17  1  0  0  0  0
 16 15  2  0  0  0  0
 17 19  2  0  0  0  0
 18 17  1  0  0  0  0
 19 21  1  0  0  0  0
 20 19  1  0  0  0  0
 22 21  2  0  0  0  0
 23 25  1  0  0  0  0
 23 26  1  0  0  0  0
 24 23  1  0  0  0  0
 26 29  1  0  0  0  0
 26 28  1  0  0  0  0
 27 26  1  0  0  0  0
 29 30  2  0  0  0  0
 29 34  1  0  0  0  0
 30 31  1  0  0  0  0
 31 36  1  0  0  0  0
 31 32  2  0  0  0  0
 33 37  1  0  0  0  0
 33 32  1  0  0  0  0
 34 33  2  0  0  0  0
 35 30  1  0  0  0  0
M  END
>  <minimizedAffinity>
-5.1521492

$$$$

 OpenBabel03252507013D

 37 39  0  0  0  0  0  0  0  0999 V2000
   37.2950   31.2060   40.1830 N   0  0  0  0  0  0  0  0  0  0  0  0
   37.0890   32.0180   39.0250 C   0  0  0  0  0  0  0  0  0  0  0  0
   37.2870   33.4280   39.6110 C   0  0  0  0  0  0  0  0  0  0  0  0
   38.6090   33.6320   40.2240 C   0  0  0  0  0  0  0  0  0  0  0  0
   39.3800   32.4020   40.6090 C   0  0  0  0  0  0  0  0  0  0  0  0
   38.6820   31.1070   40.6070 C   0  0  0  0  0  0  0  0  0  0  0  0
   37.8920   31.9040   38.3000 H   0  0  0  0  0  0  0  0  0  0  0  0
   36.1690   31.9360   38.4820 H   0  0  0  0  0  0  0  0  0  0  0  0
   37.2100   34.1100   38.7330 H   0  0  0  0  0  0  0  0  0  0  0  0
   36.4270   33.6930   40.2740 H   0  0  0  0  0  0  0  0  0  0  0  0
   39.3080   34.2130   39.5590 H   0  0  0  0  0  0  0  0  0  0  0  0
   38.5010   34.2930   41.1110 H   0  0  0  0  0  0  0  0  0  0  0  0
   40.3750   32.5060   40.8830 H   0  0  0  0  0  0  0  0  0  0  0  0
   38.9260   30.2450   43.4010 F   0  0  0  0  0  0  0  0  0  0  0  0
   39.4980   29.5670   42.3880 C   0  0  0  0  0  0  0  0  0  0  0  0
   39.3510   29.9560   41.0840 C   0  0  0  0  0  0  0  0  0  0  0  0
   39.9960   29.1080   40.2360 C   0  0  0  0  0  0  0  0  0  0  0  0
   39.9910   29.2890   39.1770 H   0  0  0  0  0  0  0  0  0  0  0  0
   40.7160   27.9910   40.5900 C   0  0  0  0  0  0  0  0  0  0  0  0
   41.2040   27.3610   39.8640 H   0  0  0  0  0  0  0  0  0  0  0  0
   40.8340   27.6430   41.9170 C   0  0  0  0  0  3  0  0  0  0  0  0
   40.2000   28.4670   42.8210 C   0  0  0  0  0  3  0  0  0  0  0  0
   36.3340   30.7470   41.0280 C   0  0  0  0  0  0  0  0  0  0  0  0
   36.5900   30.4510   42.0630 H   0  0  0  0  0  0  0  0  0  0  0  0
   35.4670   31.4700   41.2150 H   0  0  0  0  0  0  0  0  0  0  0  0
   35.6180   29.5560   40.4330 C   0  0  0  0  0  0  0  0  0  0  0  0
   34.5900   29.5560   40.9100 H   0  0  0  0  0  0  0  0  0  0  0  0
   35.4160   29.5730   39.3780 H   0  0  0  0  0  0  0  0  0  0  0  0
   36.2330   28.3390   40.9880 C   0  0  0  0  0  0  0  0  0  0  0  0
   36.7640   27.3620   40.1810 C   0  0  0  0  0  0  0  0  0  0  0  0
   37.3290   26.2140   40.7480 C   0  0  0  0  0  0  0  0  0  0  0  0
   37.3150   26.1330   42.1080 N   0  0  0  0  0  0  0  0  0  0  0  0
   36.7920   27.0970   42.8630 C   0  0  0  0  0  0  0  0  0  0  0  0
   36.2610   28.1790   42.2920 N   0  0  0  0  0  0  0  0  0  0  0  0
   36.7580   27.4610   39.1050 H   0  0  0  0  0  0  0  0  0  0  0  0
   37.7600   25.4160   40.1830 H   0  0  0  0  0  0  0  0  0  0  0  0
   36.7860   27.0220   43.9510 H   0  0  0  0  0  0  0  0  0  0  0  0
  1  6  1  0  0  0  0
  1 23  1  0  0  0  0
  2  3  1  0  0  0  0
  2  1  1  0  0  0  0
  3  4  1  0  0  0  0
  3 10  1  0  0  0  0
  4  5  1  0  0  0  0
  4 12  1  0  0  0  0
  5 13  1  0  0  0  0
  6  5  2  0  0  0  0
  6 16  1  0  0  0  0
  7  2  1  0  0  0  0
  8  2  1  0  0  0  0
  9  3  1  0  0  0  0
 11  4  1  0  0  0  0
 15 22  1  0  0  0  0
 15 14  1  0  0  0  0
 16 15  2  0  0  0  0
 17 19  2  0  0  0  0
 17 16  1  0  0  0  0
 18 17  1  0  0  0  0
 19 21  1  0  0  0  0
 20 19  1  0  0  0  0
 21 22  2  0  0  0  0
 23 25  1  0  0  0  0
 23 24  1  0  0  0  0
 26 27  1  0  0  0  0
 26 29  1  0  0  0  0
 26 23  1  0  0  0  0
 28 26  1  0  0  0  0
 29 34  1  0  0  0  0
 30 31  1  0  0  0  0
 30 29  2  0  0  0  0
 31 32  2  0  0  0  0
 32 33  1  0  0  0  0
 33 37  1  0  0  0  0
 34 33  2  0  0  0  0
 35 30  1  0  0  0  0
 36 31  1  0  0  0  0
M  END
>  <minimizedAffinity>
-5.1093564

$$$$

 OpenBabel03252507013D

 37 39  0  0  0  0  0  0  0  0999 V2000
   37.7200   30.0330   40.7540 N   0  0  0  0  0  0  0  0  0  0  0  0
   37.0200   31.2750   40.6460 C   0  0  0  0  0  0  0  0  0  0  0  0
   37.0340   31.4920   39.1210 C   0  0  0  0  0  0  0  0  0  0  0  0
   36.3910   30.4060   38.3640 C   0  0  0  0  0  0  0  0  0  0  0  0
   36.2340   29.0870   39.0650 C   0  0  0  0  0  0  0  0  0  0  0  0
   36.9520   28.8730   40.3300 C   0  0  0  0  0  0  0  0  0  0  0  0
   35.9680   31.1730   40.9010 H   0  0  0  0  0  0  0  0  0  0  0  0
   37.3840   32.1320   41.1750 H   0  0  0  0  0  0  0  0  0  0  0  0
   36.4330   32.4180   38.9650 H   0  0  0  0  0  0  0  0  0  0  0  0
   38.0680   31.7430   38.7780 H   0  0  0  0  0  0  0  0  0  0  0  0
   35.3530   30.6760   38.0210 H   0  0  0  0  0  0  0  0  0  0  0  0
   36.9390   30.2550   37.4090 H   0  0  0  0  0  0  0  0  0  0  0  0
   35.6370   28.3610   38.6250 H   0  0  0  0  0  0  0  0  0  0  0  0
   36.8390   28.3070   43.2060 F   0  0  0  0  0  0  0  0  0  0  0  0
   36.9000   27.3280   42.2840 C   0  0  0  0  0  0  0  0  0  0  0  0
   36.9180   27.5990   40.9430 C   0  0  0  0  0  0  0  0  0  0  0  0
   36.9580   26.4560   40.2040 C   0  0  0  0  0  0  0  0  0  0  0  0
   36.9950   26.5030   39.1320 H   0  0  0  0  0  0  0  0  0  0  0  0
   36.9780   25.1700   40.6910 C   0  0  0  0  0  0  0  0  0  0  0  0
   37.0100   24.3060   40.0470 H   0  0  0  0  0  0  0  0  0  0  0  0
   36.9590   24.9500   42.0500 C   0  0  0  0  0  3  0  0  0  0  0  0
   36.9190   26.0740   42.8470 C   0  0  0  0  0  3  0  0  0  0  0  0
   39.0530   29.8750   40.9680 C   0  0  0  0  0  0  0  0  0  0  0  0
   39.5160   28.8710   40.9110 H   0  0  0  0  0  0  0  0  0  0  0  0
   39.7310   30.4700   40.2650 H   0  0  0  0  0  0  0  0  0  0  0  0
   39.4500   30.4260   42.3190 C   0  0  0  0  0  0  0  0  0  0  0  0
   38.6580   31.1970   42.5710 H   0  0  0  0  0  0  0  0  0  0  0  0
   39.4340   29.7520   43.1550 H   0  0  0  0  0  0  0  0  0  0  0  0
   40.6560   31.2490   42.1320 C   0  0  0  0  0  0  0  0  0  0  0  0
   41.7530   31.1240   42.9490 C   0  0  0  0  0  0  0  0  0  0  0  0
   42.8760   31.9350   42.7450 C   0  0  0  0  0  0  0  0  0  0  0  0
   42.8090   32.8260   41.7170 N   0  0  0  0  0  0  0  0  0  0  0  0
   41.7300   32.9230   40.9420 C   0  0  0  0  0  0  0  0  0  0  0  0
   40.6760   32.1360   41.1620 N   0  0  0  0  0  0  0  0  0  0  0  0
   41.7710   30.4050   43.7550 H   0  0  0  0  0  0  0  0  0  0  0  0
   43.7620   31.8920   43.3400 H   0  0  0  0  0  0  0  0  0  0  0  0
   41.6860   33.6400   40.1210 H   0  0  0  0  0  0  0  0  0  0  0  0
  1 23  1  0  0  0  0
  2  1  1  0  0  0  0
  2  7  1  0  0  0  0
  2  8  1  0  0  0  0
  3  2  1  0  0  0  0
  4  5  1  0  0  0  0
  4  3  1  0  0  0  0
  5  6  2  0  0  0  0
  6  1  1  0  0  0  0
  6 16  1  0  0  0  0
  9  3  1  0  0  0  0
 10  3  1  0  0  0  0
 11  4  1  0  0  0  0
 12  4  1  0  0  0  0
 13  5  1  0  0  0  0
 15 22  1  0  0  0  0
 15 14  1  0  0  0  0
 16 15  2  0  0  0  0
 17 19  2  0  0  0  0
 17 16  1  0  0  0  0
 18 17  1  0  0  0  0
 19 21  1  0  0  0  0
 20 19  1  0  0  0  0
 21 22  2  0  0  0  0
 23 26  1  0  0  0  0
 24 23  1  0  0  0  0
 25 23  1  0  0  0  0
 26 27  1  0  0  0  0
 26 28  1  0  0  0  0
 29 26  1  0  0  0  0
 29 30  1  0  0  0  0
 30 35  1  0  0  0  0
 31 30  2  0  0  0  0
 31 36  1  0  0  0  0
 32 31  1  0  0  0  0
 33 34  1  0  0  0  0
 33 32  2  0  0  0  0
 34 29  2  0  0  0  0
 37 33  1  0  0  0  0
M  END
>  <minimizedAffinity>
-5.09616756

$$$$

 OpenBabel03252507013D

 37 39  0  0  0  0  0  0  0  0999 V2000
   36.9560   25.3470   40.1620 N   0  0  0  0  0  0  0  0  0  0  0  0
   36.2060   24.1310   40.1890 C   0  0  0  0  0  0  0  0  0  0  0  0
   37.3070   23.0960   39.8940 C   0  0  0  0  0  0  0  0  0  0  0  0
   38.4080   23.1090   40.8710 C   0  0  0  0  0  0  0  0  0  0  0  0
   38.5650   24.3490   41.7030 C   0  0  0  0  0  0  0  0  0  0  0  0
   37.8090   25.5520   41.3230 C   0  0  0  0  0  0  0  0  0  0  0  0
   35.8600   23.8880   41.1910 H   0  0  0  0  0  0  0  0  0  0  0  0
   35.3650   24.0180   39.5360 H   0  0  0  0  0  0  0  0  0  0  0  0
   36.7930   22.1100   39.9740 H   0  0  0  0  0  0  0  0  0  0  0  0
   37.6360   23.1770   38.8290 H   0  0  0  0  0  0  0  0  0  0  0  0
   38.3320   22.2690   41.6170 H   0  0  0  0  0  0  0  0  0  0  0  0
   39.3630   22.8930   40.3460 H   0  0  0  0  0  0  0  0  0  0  0  0
   39.2160   24.3240   42.5110 H   0  0  0  0  0  0  0  0  0  0  0  0
   36.1190   26.7220   43.4160 F   0  0  0  0  0  0  0  0  0  0  0  0
   37.2330   27.3320   42.9680 C   0  0  0  0  0  0  0  0  0  0  0  0
   38.0350   26.7630   42.0160 C   0  0  0  0  0  0  0  0  0  0  0  0
   39.1120   27.5490   41.7390 C   0  0  0  0  0  0  0  0  0  0  0  0
   39.8270   27.2480   40.9960 H   0  0  0  0  0  0  0  0  0  0  0  0
   39.4050   28.7640   42.3120 C   0  0  0  0  0  0  0  0  0  0  0  0
   40.2790   29.3360   42.0450 H   0  0  0  0  0  0  0  0  0  0  0  0
   38.5650   29.2930   43.2660 C   0  0  0  0  0  3  0  0  0  0  0  0
   37.4570   28.5390   43.5870 C   0  0  0  0  0  3  0  0  0  0  0  0
   37.1290   26.1650   39.0900 C   0  0  0  0  0  0  0  0  0  0  0  0
   38.0180   26.8210   39.0210 H   0  0  0  0  0  0  0  0  0  0  0  0
   37.1670   25.6360   38.0770 H   0  0  0  0  0  0  0  0  0  0  0  0
   35.9380   27.0810   38.9160 C   0  0  0  0  0  0  0  0  0  0  0  0
   35.8330   27.2230   37.7960 H   0  0  0  0  0  0  0  0  0  0  0  0
   34.9780   26.7100   39.2230 H   0  0  0  0  0  0  0  0  0  0  0  0
   36.3300   28.4220   39.3780 C   0  0  0  0  0  0  0  0  0  0  0  0
   35.5760   29.1250   40.2860 C   0  0  0  0  0  0  0  0  0  0  0  0
   35.9770   30.4030   40.6910 C   0  0  0  0  0  0  0  0  0  0  0  0
   37.1260   30.8870   40.1420 N   0  0  0  0  0  0  0  0  0  0  0  0
   37.8350   30.1810   39.2630 C   0  0  0  0  0  0  0  0  0  0  0  0
   37.4260   28.9650   38.8970 N   0  0  0  0  0  0  0  0  0  0  0  0
   34.6700   28.7090   40.7020 H   0  0  0  0  0  0  0  0  0  0  0  0
   35.4410   31.0060   41.3920 H   0  0  0  0  0  0  0  0  0  0  0  0
   38.7540   30.5770   38.8290 H   0  0  0  0  0  0  0  0  0  0  0  0
  1  2  1  0  0  0  0
  1  6  1  0  0  0  0
  2  7  1  0  0  0  0
  3  9  1  0  0  0  0
  3  2  1  0  0  0  0
  3  4  1  0  0  0  0
  4 11  1  0  0  0  0
  4  5  1  0  0  0  0
  5 13  1  0  0  0  0
  6  5  2  0  0  0  0
  6 16  1  0  0  0  0
  8  2  1  0  0  0  0
 10  3  1  0  0  0  0
 12  4  1  0  0  0  0
 15 14  1  0  0  0  0
 15 22  1  0  0  0  0
 16 15  2  0  0  0  0
 17 16  1  0  0  0  0
 17 19  2  0  0  0  0
 18 17  1  0  0  0  0
 19 21  1  0  0  0  0
 20 19  1  0  0  0  0
 21 22  2  0  0  0  0
 23  1  1  0  0  0  0
 24 23  1  0  0  0  0
 25 23  1  0  0  0  0
 26 23  1  0  0  0  0
 26 28  1  0  0  0  0
 26 29  1  0  0  0  0
 27 26  1  0  0  0  0
 29 30  1  0  0  0  0
 30 31  2  0  0  0  0
 30 35  1  0  0  0  0
 31 36  1  0  0  0  0
 32 31  1  0  0  0  0
 33 32  2  0  0  0  0
 34 33  1  0  0  0  0
 34 29  2  0  0  0  0
 37 33  1  0  0  0  0
M  END
>  <minimizedAffinity>
-5.08580542

$$$$

 OpenBabel03252507013D

 37 39  0  0  0  0  0  0  0  0999 V2000
   38.9080   27.4700   41.6990 N   0  0  0  0  0  0  0  0  0  0  0  0
   39.4790   28.1010   42.8470 C   0  0  0  0  0  0  0  0  0  0  0  0
   38.3280   29.0290   43.2780 C   0  0  0  0  0  0  0  0  0  0  0  0
   37.0760   28.3170   43.5810 C   0  0  0  0  0  0  0  0  0  0  0  0
   36.9270   26.9310   43.0200 C   0  0  0  0  0  0  0  0  0  0  0  0
   37.8890   26.4780   42.0040 C   0  0  0  0  0  0  0  0  0  0  0  0
   39.5990   27.4070   43.6760 H   0  0  0  0  0  0  0  0  0  0  0  0
   40.4040   28.6310   42.7510 H   0  0  0  0  0  0  0  0  0  0  0  0
   38.6880   29.5010   44.2220 H   0  0  0  0  0  0  0  0  0  0  0  0
   38.2150   29.8670   42.5470 H   0  0  0  0  0  0  0  0  0  0  0  0
   36.9040   28.2000   44.6880 H   0  0  0  0  0  0  0  0  0  0  0  0
   36.2150   28.9410   43.2580 H   0  0  0  0  0  0  0  0  0  0  0  0
   36.1400   26.3440   43.3550 H   0  0  0  0  0  0  0  0  0  0  0  0
   39.7240   24.1890   42.0380 F   0  0  0  0  0  0  0  0  0  0  0  0
   38.5630   24.1690   41.3560 C   0  0  0  0  0  0  0  0  0  0  0  0
   37.6960   25.2270   41.3730 C   0  0  0  0  0  0  0  0  0  0  0  0
   36.5820   24.9700   40.6340 C   0  0  0  0  0  0  0  0  0  0  0  0
   35.8130   25.7130   40.5330 H   0  0  0  0  0  0  0  0  0  0  0  0
   36.3120   23.8140   39.9400 C   0  0  0  0  0  0  0  0  0  0  0  0
   35.4060   23.6770   39.3720 H   0  0  0  0  0  0  0  0  0  0  0  0
   37.2170   22.7770   39.9550 C   0  0  0  0  0  3  0  0  0  0  0  0
   38.3650   22.9830   40.6890 C   0  0  0  0  0  3  0  0  0  0  0  0
   39.0440   27.8700   40.4070 C   0  0  0  0  0  0  0  0  0  0  0  0
   39.8380   28.5860   40.1210 H   0  0  0  0  0  0  0  0  0  0  0  0
   39.2240   27.0290   39.6540 H   0  0  0  0  0  0  0  0  0  0  0  0
   37.7550   28.4710   39.8930 C   0  0  0  0  0  0  0  0  0  0  0  0
   37.6910   28.1560   38.8060 H   0  0  0  0  0  0  0  0  0  0  0  0
   36.8360   28.1180   40.3220 H   0  0  0  0  0  0  0  0  0  0  0  0
   37.9440   29.9280   39.7970 C   0  0  0  0  0  0  0  0  0  0  0  0
   36.9550   30.8130   40.1500 C   0  0  0  0  0  0  0  0  0  0  0  0
   37.1710   32.1900   40.0320 C   0  0  0  0  0  0  0  0  0  0  0  0
   38.3880   32.5810   39.5580 N   0  0  0  0  0  0  0  0  0  0  0  0
   39.3270   31.6980   39.2240 C   0  0  0  0  0  0  0  0  0  0  0  0
   39.0900   30.3910   39.3480 N   0  0  0  0  0  0  0  0  0  0  0  0
   36.0020   30.4670   40.5230 H   0  0  0  0  0  0  0  0  0  0  0  0
   36.4490   32.9350   40.2870 H   0  0  0  0  0  0  0  0  0  0  0  0
   40.2980   32.0200   38.8450 H   0  0  0  0  0  0  0  0  0  0  0  0
  1  6  1  0  0  0  0
  1  2  1  0  0  0  0
  2  3  1  0  0  0  0
  2  7  1  0  0  0  0
  3  4  1  0  0  0  0
  3  9  1  0  0  0  0
  4 11  1  0  0  0  0
  5 13  1  0  0  0  0
  5  4  1  0  0  0  0
  6  5  2  0  0  0  0
  8  2  1  0  0  0  0
 10  3  1  0  0  0  0
 12  4  1  0  0  0  0
 15 16  1  0  0  0  0
 15 14  1  0  0  0  0
 16  6  1  0  0  0  0
 17 16  2  0  0  0  0
 18 17  1  0  0  0  0
 19 21  2  0  0  0  0
 19 17  1  0  0  0  0
 20 19  1  0  0  0  0
 21 22  1  0  0  0  0
 22 15  2  0  0  0  0
 23  1  1  0  0  0  0
 24 23  1  0  0  0  0
 25 23  1  0  0  0  0
 26 28  1  0  0  0  0
 26 23  1  0  0  0  0
 27 26  1  0  0  0  0
 29 26  1  0  0  0  0
 29 30  1  0  0  0  0
 30 35  1  0  0  0  0
 31 30  2  0  0  0  0
 31 36  1  0  0  0  0
 32 31  1  0  0  0  0
 33 34  1  0  0  0  0
 33 32  2  0  0  0  0
 34 29  2  0  0  0  0
 37 33  1  0  0  0  0
M  END
>  <minimizedAffinity>
-5.05501652

$$$$

 OpenBabel03252507013D

 37 39  0  0  0  0  0  0  0  0999 V2000
   39.3400   31.1960   40.8970 N   0  0  0  0  0  0  0  0  0  0  0  0
   40.4670   31.5790   40.1050 C   0  0  0  0  0  0  0  0  0  0  0  0
   41.3350   32.3000   41.1530 C   0  0  0  0  0  0  0  0  0  0  0  0
   41.7030   31.4550   42.3000 C   0  0  0  0  0  0  0  0  0  0  0  0
   40.8650   30.2320   42.5420 C   0  0  0  0  0  0  0  0  0  0  0  0
   39.5950   30.0950   41.8110 C   0  0  0  0  0  0  0  0  0  0  0  0
   41.0600   30.7200   39.8000 H   0  0  0  0  0  0  0  0  0  0  0  0
   40.3170   32.1770   39.2300 H   0  0  0  0  0  0  0  0  0  0  0  0
   42.2720   32.5620   40.6080 H   0  0  0  0  0  0  0  0  0  0  0  0
   40.8680   33.2770   41.4330 H   0  0  0  0  0  0  0  0  0  0  0  0
   42.7590   31.0700   42.2300 H   0  0  0  0  0  0  0  0  0  0  0  0
   41.7230   32.0770   43.2200 H   0  0  0  0  0  0  0  0  0  0  0  0
   41.1990   29.5310   43.2300 H   0  0  0  0  0  0  0  0  0  0  0  0
   38.9630   27.8100   40.0830 F   0  0  0  0  0  0  0  0  0  0  0  0
   38.4060   27.9660   41.3000 C   0  0  0  0  0  0  0  0  0  0  0  0
   38.7320   29.0160   42.1140 C   0  0  0  0  0  0  0  0  0  0  0  0
   38.0650   28.9530   43.2990 C   0  0  0  0  0  0  0  0  0  0  0  0
   38.1990   29.7190   44.0400 H   0  0  0  0  0  0  0  0  0  0  0  0
   37.1680   27.9830   43.6800 C   0  0  0  0  0  0  0  0  0  0  0  0
   36.6730   27.9930   44.6380 H   0  0  0  0  0  0  0  0  0  0  0  0
   36.8740   26.9460   42.8230 C   0  0  0  0  0  3  0  0  0  0  0  0
   37.5220   26.9590   41.6070 C   0  0  0  0  0  3  0  0  0  0  0  0
   38.1840   31.8970   41.0470 C   0  0  0  0  0  0  0  0  0  0  0  0
   37.4190   31.5700   41.7760 H   0  0  0  0  0  0  0  0  0  0  0  0
   38.3160   32.9940   41.3430 H   0  0  0  0  0  0  0  0  0  0  0  0
   37.4560   32.0200   39.7270 C   0  0  0  0  0  0  0  0  0  0  0  0
   36.6430   32.7890   39.9060 H   0  0  0  0  0  0  0  0  0  0  0  0
   38.0060   32.4110   38.8910 H   0  0  0  0  0  0  0  0  0  0  0  0
   36.6910   30.7800   39.5190 C   0  0  0  0  0  0  0  0  0  0  0  0
   36.8490   30.0110   38.3910 C   0  0  0  0  0  0  0  0  0  0  0  0
   36.0920   28.8460   38.2250 C   0  0  0  0  0  0  0  0  0  0  0  0
   35.2170   28.5360   39.2230 N   0  0  0  0  0  0  0  0  0  0  0  0
   35.0860   29.3030   40.3040 C   0  0  0  0  0  0  0  0  0  0  0  0
   35.8220   30.4080   40.4330 N   0  0  0  0  0  0  0  0  0  0  0  0
   37.5530   30.2870   37.6200 H   0  0  0  0  0  0  0  0  0  0  0  0
   36.1630   28.2000   37.3770 H   0  0  0  0  0  0  0  0  0  0  0  0
   34.3830   29.0470   41.0980 H   0  0  0  0  0  0  0  0  0  0  0  0
  1 23  1  0  0  0  0
  1  6  1  0  0  0  0
  2  1  1  0  0  0  0
  2  3  1  0  0  0  0
  3 10  1  0  0  0  0
  3  4  1  0  0  0  0
  4  5  1  0  0  0  0
  4 12  1  0  0  0  0
  5 13  1  0  0  0  0
  6 16  1  0  0  0  0
  6  5  2  0  0  0  0
  7  2  1  0  0  0  0
  8  2  1  0  0  0  0
  9  3  1  0  0  0  0
 11  4  1  0  0  0  0
 14 15  1  0  0  0  0
 15 22  2  0  0  0  0
 15 16  1  0  0  0  0
 16 17  2  0  0  0  0
 17 19  1  0  0  0  0
 17 18  1  0  0  0  0
 19 20  1  0  0  0  0
 21 19  2  0  0  0  0
 22 21  1  0  0  0  0
 23 25  1  0  0  0  0
 23 24  1  0  0  0  0
 26 27  1  0  0  0  0
 26 23  1  0  0  0  0
 28 26  1  0  0  0  0
 29 26  1  0  0  0  0
 29 34  1  0  0  0  0
 30 29  2  0  0  0  0
 31 30  1  0  0  0  0
 31 32  2  0  0  0  0
 32 33  1  0  0  0  0
 33 34  2  0  0  0  0
 33 37  1  0  0  0  0
 35 30  1  0  0  0  0
 36 31  1  0  0  0  0
M  END
>  <minimizedAffinity>
-5.04253054

$$$$
