
 OpenBabel03252501563D

 21 22  0  0  0  0  0  0  0  0999 V2000
   36.2010   30.0270   37.9880 C   0  0  0  0  0  0  0  0  0  0  0  0
   36.2340   29.4280   39.2580 C   0  0  0  0  0  0  0  0  0  0  0  0
   37.4800   29.0370   39.7530 C   0  0  0  0  0  0  0  0  0  0  0  0
   38.5720   29.2520   38.9980 N   0  0  0  0  0  0  0  0  0  0  0  0
   38.5130   29.8290   37.7850 C   0  0  0  0  0  0  0  0  0  0  0  0
   37.3290   30.2290   37.2510 N   0  0  0  0  0  0  0  0  0  0  0  0
   35.2770   30.3580   37.5130 H   0  0  0  0  0  0  0  0  0  0  0  0
   39.4750   29.9300   37.3030 H   0  0  0  0  0  0  0  0  0  0  0  0
   38.1120   30.6060   41.8420 F   0  0  0  0  0  0  0  0  0  0  0  0
   37.7310   29.2970   42.0110 C   0  0  0  0  0  0  0  0  0  0  0  0
   37.3770   28.3690   41.0370 C   0  0  0  0  0  0  0  0  0  0  0  0
   37.0190   27.0970   41.3940 C   0  0  0  0  0  0  0  0  0  0  0  0
   36.7610   26.5010   40.5370 H   0  0  0  0  0  0  0  0  0  0  0  0
   37.0130   26.7380   42.7230 C   0  0  0  0  0  0  0  0  0  0  0  0
   36.7170   25.7210   42.9410 H   0  0  0  0  0  0  0  0  0  0  0  0
   37.3590   27.6360   43.6790 C   0  0  0  0  0  3  0  0  0  0  0  0
   37.7230   28.9300   43.3590 C   0  0  0  0  0  3  0  0  0  0  0  0
   34.9040   29.2700   39.8840 C   0  0  0  0  0  0  0  0  0  0  0  0
   34.9690   28.7940   40.8830 H   0  0  0  0  0  0  0  0  0  0  0  0
   34.4450   30.2730   39.9170 H   0  0  0  0  0  0  0  0  0  0  0  0
   34.2530   28.5760   39.2700 H   0  0  0  0  0  0  0  0  0  0  0  0
  1  2  1  0  0  0  0
  2  3  2  0  0  0  0
  2 18  1  0  0  0  0
  3 11  1  0  0  0  0
  4  3  1  0  0  0  0
  5  4  2  0  0  0  0
  6  5  1  0  0  0  0
  6  1  2  0  0  0  0
  7  1  1  0  0  0  0
  8  5  1  0  0  0  0
  9 10  1  0  0  0  0
 10 17  1  0  0  0  0
 11 12  1  0  0  0  0
 11 10  2  0  0  0  0
 12 14  2  0  0  0  0
 13 12  1  0  0  0  0
 14 15  1  0  0  0  0
 14 16  1  0  0  0  0
 17 16  2  0  0  0  0
 18 20  1  0  0  0  0
 18 19  1  0  0  0  0
 21 18  1  0  0  0  0
M  END
>  <minimizedAffinity>
-4.4138155

$$$$

 OpenBabel03252501563D

 21 22  0  0  0  0  0  0  0  0999 V2000
   39.5470   32.1300   41.1800 C   0  0  0  0  0  0  0  0  0  0  0  0
   39.1700   30.8680   41.6680 C   0  0  0  0  0  0  0  0  0  0  0  0
   37.8540   30.4580   41.4430 C   0  0  0  0  0  0  0  0  0  0  0  0
   37.0240   31.2820   40.7800 N   0  0  0  0  0  0  0  0  0  0  0  0
   37.4110   32.4860   40.3230 C   0  0  0  0  0  0  0  0  0  0  0  0
   38.6790   32.9390   40.5120 N   0  0  0  0  0  0  0  0  0  0  0  0
   40.5490   32.5410   41.3120 H   0  0  0  0  0  0  0  0  0  0  0  0
   36.6290   33.0310   39.8120 H   0  0  0  0  0  0  0  0  0  0  0  0
   37.7620   28.4250   39.6880 F   0  0  0  0  0  0  0  0  0  0  0  0
   37.5520   28.2290   41.0310 C   0  0  0  0  0  0  0  0  0  0  0  0
   37.5670   29.1730   42.0530 C   0  0  0  0  0  0  0  0  0  0  0  0
   37.3360   28.7920   43.3470 C   0  0  0  0  0  0  0  0  0  0  0  0
   37.3920   29.6260   44.0240 H   0  0  0  0  0  0  0  0  0  0  0  0
   37.0850   27.4690   43.6350 C   0  0  0  0  0  0  0  0  0  0  0  0
   36.9140   27.2310   44.6750 H   0  0  0  0  0  0  0  0  0  0  0  0
   37.0650   26.5430   42.6430 C   0  0  0  0  0  3  0  0  0  0  0  0
   37.2970   26.8870   41.3250 C   0  0  0  0  0  3  0  0  0  0  0  0
   40.2460   30.1550   42.3900 C   0  0  0  0  0  0  0  0  0  0  0  0
   39.9130   29.1650   42.7610 H   0  0  0  0  0  0  0  0  0  0  0  0
   41.1040   30.0870   41.7000 H   0  0  0  0  0  0  0  0  0  0  0  0
   40.5510   30.7280   43.3180 H   0  0  0  0  0  0  0  0  0  0  0  0
  1  7  1  0  0  0  0
  1  2  1  0  0  0  0
  2 18  1  0  0  0  0
  3  2  2  0  0  0  0
  3 11  1  0  0  0  0
  4  3  1  0  0  0  0
  5  6  1  0  0  0  0
  5  4  2  0  0  0  0
  6  1  2  0  0  0  0
  8  5  1  0  0  0  0
  9 10  1  0  0  0  0
 10 17  2  0  0  0  0
 10 11  1  0  0  0  0
 11 12  2  0  0  0  0
 12 14  1  0  0  0  0
 12 13  1  0  0  0  0
 14 15  1  0  0  0  0
 16 14  2  0  0  0  0
 17 16  1  0  0  0  0
 18 19  1  0  0  0  0
 18 21  1  0  0  0  0
 20 18  1  0  0  0  0
M  END
>  <minimizedAffinity>
-4.4060483

$$$$

 OpenBabel03252501563D

 21 22  0  0  0  0  0  0  0  0999 V2000
   39.9630   32.4130   40.5290 C   0  0  0  0  0  0  0  0  0  0  0  0
   39.0320   31.4930   40.0200 C   0  0  0  0  0  0  0  0  0  0  0  0
   37.7800   31.9850   39.6460 C   0  0  0  0  0  0  0  0  0  0  0  0
   37.5320   33.2990   39.7900 N   0  0  0  0  0  0  0  0  0  0  0  0
   38.4420   34.1590   40.2790 C   0  0  0  0  0  0  0  0  0  0  0  0
   39.6770   33.7380   40.6610 N   0  0  0  0  0  0  0  0  0  0  0  0
   40.9640   32.1250   40.8560 H   0  0  0  0  0  0  0  0  0  0  0  0
   38.0910   35.1800   40.3350 H   0  0  0  0  0  0  0  0  0  0  0  0
   36.1780   31.0430   41.5880 F   0  0  0  0  0  0  0  0  0  0  0  0
   36.1270   30.5500   40.3070 C   0  0  0  0  0  0  0  0  0  0  0  0
   36.8850   30.9320   39.2040 C   0  0  0  0  0  0  0  0  0  0  0  0
   36.6940   30.3250   37.9920 C   0  0  0  0  0  0  0  0  0  0  0  0
   37.3420   30.7330   37.2370 H   0  0  0  0  0  0  0  0  0  0  0  0
   35.7500   29.3310   37.8680 C   0  0  0  0  0  0  0  0  0  0  0  0
   35.6450   28.8940   36.8850 H   0  0  0  0  0  0  0  0  0  0  0  0
   35.0090   28.9500   38.9390 C   0  0  0  0  0  3  0  0  0  0  0  0
   35.1690   29.5400   40.1780 C   0  0  0  0  0  3  0  0  0  0  0  0
   39.5220   30.0980   39.9840 C   0  0  0  0  0  0  0  0  0  0  0  0
   38.7620   29.4010   39.5780 H   0  0  0  0  0  0  0  0  0  0  0  0
   40.4550   30.1030   39.3950 H   0  0  0  0  0  0  0  0  0  0  0  0
   39.7360   29.7220   41.0300 H   0  0  0  0  0  0  0  0  0  0  0  0
  1  6  1  0  0  0  0
  1  7  1  0  0  0  0
  2  1  2  0  0  0  0
  3  4  2  0  0  0  0
  3  2  1  0  0  0  0
  4  5  1  0  0  0  0
  5  8  1  0  0  0  0
  5  6  2  0  0  0  0
 10  9  1  0  0  0  0
 11  3  1  0  0  0  0
 11 10  2  0  0  0  0
 12 11  1  0  0  0  0
 13 12  1  0  0  0  0
 14 12  2  0  0  0  0
 14 16  1  0  0  0  0
 15 14  1  0  0  0  0
 16 17  2  0  0  0  0
 17 10  1  0  0  0  0
 18  2  1  0  0  0  0
 18 21  1  0  0  0  0
 19 18  1  0  0  0  0
 20 18  1  0  0  0  0
M  END
>  <minimizedAffinity>
-4.37312746

$$$$

 OpenBabel03252501563D

 21 22  0  0  0  0  0  0  0  0999 V2000
   37.8430   30.7170   38.1970 C   0  0  0  0  0  0  0  0  0  0  0  0
   37.9770   29.8480   39.2920 C   0  0  0  0  0  0  0  0  0  0  0  0
   37.6290   30.3410   40.5510 C   0  0  0  0  0  0  0  0  0  0  0  0
   37.1880   31.6070   40.6510 N   0  0  0  0  0  0  0  0  0  0  0  0
   37.0680   32.4190   39.5860 C   0  0  0  0  0  0  0  0  0  0  0  0
   37.3930   31.9950   38.3350 N   0  0  0  0  0  0  0  0  0  0  0  0
   38.0970   30.4280   37.1760 H   0  0  0  0  0  0  0  0  0  0  0  0
   36.7020   33.4070   39.8290 H   0  0  0  0  0  0  0  0  0  0  0  0
   35.4750   28.8690   41.1980 F   0  0  0  0  0  0  0  0  0  0  0  0
   36.6830   28.6970   41.8290 C   0  0  0  0  0  0  0  0  0  0  0  0
   37.8770   29.3770   41.6070 C   0  0  0  0  0  0  0  0  0  0  0  0
   38.9930   29.0680   42.3370 C   0  0  0  0  0  0  0  0  0  0  0  0
   39.8370   29.6650   42.0450 H   0  0  0  0  0  0  0  0  0  0  0  0
   38.9290   28.0820   43.2960 C   0  0  0  0  0  0  0  0  0  0  0  0
   39.8440   27.8820   43.8350 H   0  0  0  0  0  0  0  0  0  0  0  0
   37.7680   27.4170   43.5210 C   0  0  0  0  0  3  0  0  0  0  0  0
   36.6210   27.6970   42.8030 C   0  0  0  0  0  3  0  0  0  0  0  0
   38.5100   28.5140   38.9400 C   0  0  0  0  0  0  0  0  0  0  0  0
   38.6020   27.8560   39.8270 H   0  0  0  0  0  0  0  0  0  0  0  0
   37.8420   28.0970   38.1670 H   0  0  0  0  0  0  0  0  0  0  0  0
   39.5600   28.5990   38.5270 H   0  0  0  0  0  0  0  0  0  0  0  0
  1  6  2  0  0  0  0
  1  2  1  0  0  0  0
  2  3  2  0  0  0  0
  3  4  1  0  0  0  0
  3 11  1  0  0  0  0
  5  8  1  0  0  0  0
  5  4  2  0  0  0  0
  6  5  1  0  0  0  0
  7  1  1  0  0  0  0
  9 10  1  0  0  0  0
 10 17  1  0  0  0  0
 11 10  2  0  0  0  0
 11 12  1  0  0  0  0
 12 14  2  0  0  0  0
 13 12  1  0  0  0  0
 14 16  1  0  0  0  0
 14 15  1  0  0  0  0
 17 16  2  0  0  0  0
 18  2  1  0  0  0  0
 18 19  1  0  0  0  0
 20 18  1  0  0  0  0
 21 18  1  0  0  0  0
M  END
>  <minimizedAffinity>
-4.31034517

$$$$

 OpenBabel03252501563D

 21 22  0  0  0  0  0  0  0  0999 V2000
   36.5330   31.1800   40.4580 C   0  0  0  0  0  0  0  0  0  0  0  0
   36.4420   29.7920   40.6540 C   0  0  0  0  0  0  0  0  0  0  0  0
   37.5900   29.1280   41.0930 C   0  0  0  0  0  0  0  0  0  0  0  0
   38.7100   29.8420   41.3020 N   0  0  0  0  0  0  0  0  0  0  0  0
   38.7700   31.1710   41.1070 C   0  0  0  0  0  0  0  0  0  0  0  0
   37.6860   31.8710   40.6800 N   0  0  0  0  0  0  0  0  0  0  0  0
   35.6950   31.7850   40.1100 H   0  0  0  0  0  0  0  0  0  0  0  0
   39.7410   31.5990   41.3160 H   0  0  0  0  0  0  0  0  0  0  0  0
   37.1210   28.2700   43.5960 F   0  0  0  0  0  0  0  0  0  0  0  0
   37.1620   27.4030   42.5320 C   0  0  0  0  0  0  0  0  0  0  0  0
   37.3920   27.6940   41.1900 C   0  0  0  0  0  0  0  0  0  0  0  0
   37.3940   26.6920   40.2580 C   0  0  0  0  0  0  0  0  0  0  0  0
   37.5730   27.0710   39.2680 H   0  0  0  0  0  0  0  0  0  0  0  0
   37.1710   25.3920   40.6530 C   0  0  0  0  0  0  0  0  0  0  0  0
   37.1820   24.6480   39.8690 H   0  0  0  0  0  0  0  0  0  0  0  0
   36.9490   25.1000   41.9590 C   0  0  0  0  0  3  0  0  0  0  0  0
   36.9360   26.0830   42.9300 C   0  0  0  0  0  3  0  0  0  0  0  0
   35.1160   29.2240   40.3310 C   0  0  0  0  0  0  0  0  0  0  0  0
   35.0820   28.1290   40.4970 H   0  0  0  0  0  0  0  0  0  0  0  0
   34.3770   29.7720   40.9390 H   0  0  0  0  0  0  0  0  0  0  0  0
   34.8800   29.3610   39.2320 H   0  0  0  0  0  0  0  0  0  0  0  0
  1  2  2  0  0  0  0
  1  6  1  0  0  0  0
  2  3  1  0  0  0  0
  3 11  1  0  0  0  0
  3  4  2  0  0  0  0
  5  4  1  0  0  0  0
  5  8  1  0  0  0  0
  6  5  2  0  0  0  0
  7  1  1  0  0  0  0
 10 17  1  0  0  0  0
 10  9  1  0  0  0  0
 11 10  2  0  0  0  0
 12 14  2  0  0  0  0
 12 11  1  0  0  0  0
 13 12  1  0  0  0  0
 14 16  1  0  0  0  0
 15 14  1  0  0  0  0
 16 17  2  0  0  0  0
 18 19  1  0  0  0  0
 18  2  1  0  0  0  0
 18 20  1  0  0  0  0
 21 18  1  0  0  0  0
M  END
>  <minimizedAffinity>
-4.30511141

$$$$

 OpenBabel03252501563D

 21 22  0  0  0  0  0  0  0  0999 V2000
   39.7330   31.4010   39.1980 C   0  0  0  0  0  0  0  0  0  0  0  0
   39.1060   30.3740   39.9220 C   0  0  0  0  0  0  0  0  0  0  0  0
   38.0260   30.7260   40.7330 C   0  0  0  0  0  0  0  0  0  0  0  0
   37.6450   32.0140   40.7800 N   0  0  0  0  0  0  0  0  0  0  0  0
   38.2620   32.9790   40.0770 C   0  0  0  0  0  0  0  0  0  0  0  0
   39.3200   32.6970   39.2700 N   0  0  0  0  0  0  0  0  0  0  0  0
   40.5890   31.2290   38.5440 H   0  0  0  0  0  0  0  0  0  0  0  0
   37.8400   33.9640   40.2220 H   0  0  0  0  0  0  0  0  0  0  0  0
   39.1260   30.4480   43.1700 F   0  0  0  0  0  0  0  0  0  0  0  0
   38.1660   29.5810   42.7080 C   0  0  0  0  0  0  0  0  0  0  0  0
   37.5090   29.5950   41.4810 C   0  0  0  0  0  0  0  0  0  0  0  0
   36.5700   28.6420   41.1910 C   0  0  0  0  0  0  0  0  0  0  0  0
   36.1430   28.7890   40.2160 H   0  0  0  0  0  0  0  0  0  0  0  0
   36.2790   27.6660   42.1180 C   0  0  0  0  0  0  0  0  0  0  0  0
   35.5260   26.9460   41.8310 H   0  0  0  0  0  0  0  0  0  0  0  0
   36.9170   27.6440   43.3160 C   0  0  0  0  0  3  0  0  0  0  0  0
   37.8680   28.5900   43.6470 C   0  0  0  0  0  3  0  0  0  0  0  0
   39.7210   29.0420   39.7320 C   0  0  0  0  0  0  0  0  0  0  0  0
   39.2010   28.2580   40.3180 H   0  0  0  0  0  0  0  0  0  0  0  0
   39.7160   28.8400   38.6470 H   0  0  0  0  0  0  0  0  0  0  0  0
   40.7860   29.0360   40.1130 H   0  0  0  0  0  0  0  0  0  0  0  0
  1  6  2  0  0  0  0
  1  2  1  0  0  0  0
  2  3  2  0  0  0  0
  3  4  1  0  0  0  0
  3 11  1  0  0  0  0
  5  8  1  0  0  0  0
  5  4  2  0  0  0  0
  6  5  1  0  0  0  0
  7  1  1  0  0  0  0
 10  9  1  0  0  0  0
 10 17  1  0  0  0  0
 11 10  2  0  0  0  0
 12 11  1  0  0  0  0
 12 14  2  0  0  0  0
 13 12  1  0  0  0  0
 14 16  1  0  0  0  0
 15 14  1  0  0  0  0
 16 17  2  0  0  0  0
 18  2  1  0  0  0  0
 18 21  1  0  0  0  0
 18 19  1  0  0  0  0
 20 18  1  0  0  0  0
M  END
>  <minimizedAffinity>
-4.2786088

$$$$

 OpenBabel03252501563D

 21 22  0  0  0  0  0  0  0  0999 V2000
   38.4970   30.3360   41.1750 C   0  0  0  0  0  0  0  0  0  0  0  0
   38.3190   28.9450   41.2500 C   0  0  0  0  0  0  0  0  0  0  0  0
   37.0130   28.4580   41.1680 C   0  0  0  0  0  0  0  0  0  0  0  0
   36.0040   29.3340   41.0220 N   0  0  0  0  0  0  0  0  0  0  0  0
   36.2010   30.6620   40.9520 C   0  0  0  0  0  0  0  0  0  0  0  0
   37.4490   31.1950   41.0280 N   0  0  0  0  0  0  0  0  0  0  0  0
   39.4750   30.8130   41.2380 H   0  0  0  0  0  0  0  0  0  0  0  0
   35.2900   31.2330   40.8370 H   0  0  0  0  0  0  0  0  0  0  0  0
   36.5860   27.1310   38.8690 F   0  0  0  0  0  0  0  0  0  0  0  0
   36.7300   26.4730   40.0670 C   0  0  0  0  0  0  0  0  0  0  0  0
   36.9530   27.0170   41.3280 C   0  0  0  0  0  0  0  0  0  0  0  0
   37.0740   26.2000   42.4200 C   0  0  0  0  0  0  0  0  0  0  0  0
   37.2560   26.7610   43.3190 H   0  0  0  0  0  0  0  0  0  0  0  0
   36.9700   24.8350   42.2660 C   0  0  0  0  0  0  0  0  0  0  0  0
   37.0780   24.2440   43.1640 H   0  0  0  0  0  0  0  0  0  0  0  0
   36.7490   24.2980   41.0390 C   0  0  0  0  0  3  0  0  0  0  0  0
   36.6250   25.0880   39.9130 C   0  0  0  0  0  3  0  0  0  0  0  0
   39.5750   28.1870   41.4400 C   0  0  0  0  0  0  0  0  0  0  0  0
   39.3970   27.0950   41.4950 H   0  0  0  0  0  0  0  0  0  0  0  0
   40.2470   28.4700   40.6110 H   0  0  0  0  0  0  0  0  0  0  0  0
   40.0590   28.4560   42.4270 H   0  0  0  0  0  0  0  0  0  0  0  0
  1  7  1  0  0  0  0
  1  2  1  0  0  0  0
  2 18  1  0  0  0  0
  3  2  2  0  0  0  0
  3 11  1  0  0  0  0
  4  3  1  0  0  0  0
  5  4  2  0  0  0  0
  5  6  1  0  0  0  0
  6  1  2  0  0  0  0
  8  5  1  0  0  0  0
  9 10  1  0  0  0  0
 10 11  1  0  0  0  0
 11 12  2  0  0  0  0
 12 13  1  0  0  0  0
 14 12  1  0  0  0  0
 14 15  1  0  0  0  0
 16 14  2  0  0  0  0
 17 10  2  0  0  0  0
 17 16  1  0  0  0  0
 18 19  1  0  0  0  0
 18 21  1  0  0  0  0
 20 18  1  0  0  0  0
M  END
>  <minimizedAffinity>
-4.23018217

$$$$

 OpenBabel03252501563D

 21 22  0  0  0  0  0  0  0  0999 V2000
   35.6460   29.2790   37.8620 C   0  0  0  0  0  0  0  0  0  0  0  0
   35.8720   29.0890   39.2360 C   0  0  0  0  0  0  0  0  0  0  0  0
   37.1670   28.7480   39.6330 C   0  0  0  0  0  0  0  0  0  0  0  0
   38.1190   28.6200   38.6920 N   0  0  0  0  0  0  0  0  0  0  0  0
   37.8760   28.8080   37.3840 C   0  0  0  0  0  0  0  0  0  0  0  0
   36.6350   29.1400   36.9370 N   0  0  0  0  0  0  0  0  0  0  0  0
   34.6680   29.5390   37.4530 H   0  0  0  0  0  0  0  0  0  0  0  0
   38.7430   28.6670   36.7540 H   0  0  0  0  0  0  0  0  0  0  0  0
   36.7460   26.1870   40.3320 F   0  0  0  0  0  0  0  0  0  0  0  0
   37.0200   27.1560   41.2670 C   0  0  0  0  0  0  0  0  0  0  0  0
   37.2590   28.5110   41.0610 C   0  0  0  0  0  0  0  0  0  0  0  0
   37.5200   29.3340   42.1230 C   0  0  0  0  0  0  0  0  0  0  0  0
   37.6950   30.3470   41.8070 H   0  0  0  0  0  0  0  0  0  0  0  0
   37.5430   28.8160   43.3990 C   0  0  0  0  0  0  0  0  0  0  0  0
   37.7590   29.5160   44.1940 H   0  0  0  0  0  0  0  0  0  0  0  0
   37.3080   27.4960   43.6080 C   0  0  0  0  0  3  0  0  0  0  0  0
   37.0440   26.6320   42.5630 C   0  0  0  0  0  3  0  0  0  0  0  0
   34.6650   29.2560   40.0740 C   0  0  0  0  0  0  0  0  0  0  0  0
   34.8810   29.0990   41.1490 H   0  0  0  0  0  0  0  0  0  0  0  0
   34.2650   30.2610   39.8600 H   0  0  0  0  0  0  0  0  0  0  0  0
   33.8880   28.4760   39.8140 H   0  0  0  0  0  0  0  0  0  0  0  0
  1  2  1  0  0  0  0
  2  3  2  0  0  0  0
  2 18  1  0  0  0  0
  3 11  1  0  0  0  0
  4  3  1  0  0  0  0
  5  4  2  0  0  0  0
  6  5  1  0  0  0  0
  6  1  2  0  0  0  0
  7  1  1  0  0  0  0
  8  5  1  0  0  0  0
  9 10  1  0  0  0  0
 10 17  1  0  0  0  0
 11 10  2  0  0  0  0
 11 12  1  0  0  0  0
 12 14  2  0  0  0  0
 13 12  1  0  0  0  0
 14 16  1  0  0  0  0
 14 15  1  0  0  0  0
 17 16  2  0  0  0  0
 18 19  1  0  0  0  0
 20 18  1  0  0  0  0
 21 18  1  0  0  0  0
M  END
>  <minimizedAffinity>
-4.1823988

$$$$

 OpenBabel03252501563D

 21 22  0  0  0  0  0  0  0  0999 V2000
   36.9580   27.0620   41.6650 C   0  0  0  0  0  0  0  0  0  0  0  0
   37.3950   28.1790   40.9360 C   0  0  0  0  0  0  0  0  0  0  0  0
   37.8470   29.2840   41.6610 C   0  0  0  0  0  0  0  0  0  0  0  0
   37.8400   29.2230   43.0040 N   0  0  0  0  0  0  0  0  0  0  0  0
   37.4160   28.1400   43.6780 C   0  0  0  0  0  0  0  0  0  0  0  0
   36.9640   27.0350   43.0270 N   0  0  0  0  0  0  0  0  0  0  0  0
   36.5800   26.1550   41.1900 H   0  0  0  0  0  0  0  0  0  0  0  0
   37.4700   28.2460   44.7530 H   0  0  0  0  0  0  0  0  0  0  0  0
   35.9040   31.1240   41.4110 F   0  0  0  0  0  0  0  0  0  0  0  0
   37.1110   31.2570   40.7700 C   0  0  0  0  0  0  0  0  0  0  0  0
   38.2040   30.3970   40.8010 C   0  0  0  0  0  0  0  0  0  0  0  0
   39.3370   30.6950   40.0930 C   0  0  0  0  0  0  0  0  0  0  0  0
   40.0970   29.9460   40.2250 H   0  0  0  0  0  0  0  0  0  0  0  0
   39.3910   31.8510   39.3470 C   0  0  0  0  0  0  0  0  0  0  0  0
   40.3140   32.0320   38.8140 H   0  0  0  0  0  0  0  0  0  0  0  0
   38.3280   32.6940   39.3080 C   0  0  0  0  0  3  0  0  0  0  0  0
   37.1680   32.4290   40.0110 C   0  0  0  0  0  3  0  0  0  0  0  0
   37.2820   28.0240   39.4690 C   0  0  0  0  0  0  0  0  0  0  0  0
   37.6350   28.9240   38.9270 H   0  0  0  0  0  0  0  0  0  0  0  0
   37.8450   27.1140   39.2000 H   0  0  0  0  0  0  0  0  0  0  0  0
   36.1990   27.9030   39.1630 H   0  0  0  0  0  0  0  0  0  0  0  0
  1  6  1  0  0  0  0
  2  3  1  0  0  0  0
  2  1  2  0  0  0  0
  3  4  2  0  0  0  0
  4  5  1  0  0  0  0
  5  8  1  0  0  0  0
  6  5  2  0  0  0  0
  7  1  1  0  0  0  0
 10 11  1  0  0  0  0
 10  9  1  0  0  0  0
 11  3  1  0  0  0  0
 12 13  1  0  0  0  0
 12 11  2  0  0  0  0
 14 12  1  0  0  0  0
 15 14  1  0  0  0  0
 16 14  2  0  0  0  0
 16 17  1  0  0  0  0
 17 10  2  0  0  0  0
 18  2  1  0  0  0  0
 19 18  1  0  0  0  0
 20 18  1  0  0  0  0
 21 18  1  0  0  0  0
M  END
>  <minimizedAffinity>
-4.17257166

$$$$
