
 OpenBabel03252508253D

 41 45  0  0  1  0  0  0  0  0999 V2000
   46.2310   33.0310   46.6570 C   0  0  1  0  0  0  0  0  0  0  0  0
   45.2850   32.6560   47.7170 C   0  0  0  0  0  0  0  0  0  0  0  0
   45.7690   31.6570   46.5920 C   0  0  2  0  0  0  0  0  0  0  0  0
   47.1680   33.3970   47.2110 H   0  0  0  0  0  0  0  0  0  0  0  0
   45.5760   32.2640   48.7010 H   0  0  0  0  0  0  0  0  0  0  0  0
   44.2390   33.0000   47.6770 H   0  0  0  0  0  0  0  0  0  0  0  0
   44.7800   31.3460   46.1480 H   0  0  0  0  0  0  0  0  0  0  0  0
   46.5630   30.4820   46.9660 C   0  0  0  0  0  0  0  0  0  0  0  0
   47.8670   30.4560   47.3560 C   0  0  0  0  0  0  0  0  0  0  0  0
   48.6220   29.3140   47.5820 C   0  0  0  0  0  0  0  0  0  0  0  0
   47.9730   28.0860   47.3870 C   0  0  0  0  0  0  0  0  0  0  0  0
   46.6350   28.0860   46.9880 C   0  0  0  0  0  0  0  0  0  0  0  0
   46.0230   26.8510   46.8700 C   0  0  0  0  0  0  0  0  0  0  0  0
   44.6700   26.8040   46.5460 C   0  0  0  0  0  0  0  0  0  0  0  0
   43.9500   27.9640   46.3480 C   0  0  0  0  0  0  0  0  0  0  0  0
   44.6150   29.1610   46.4770 C   0  0  0  0  0  0  0  0  0  0  0  0
   45.9590   29.2620   46.7890 C   0  0  0  0  0  0  0  0  0  0  0  0
   48.3290   31.4310   47.4960 H   0  0  0  0  0  0  0  0  0  0  0  0
   49.6570   29.3660   47.8940 H   0  0  0  0  0  0  0  0  0  0  0  0
   48.5260   27.1680   47.5490 H   0  0  0  0  0  0  0  0  0  0  0  0
   46.6130   25.9490   47.0340 H   0  0  0  0  0  0  0  0  0  0  0  0
   44.2890   25.7720   46.4760 H   0  0  0  0  0  0  0  0  0  0  0  0
   42.9350   27.7200   46.1130 H   0  0  0  0  0  0  0  0  0  0  0  0
   43.8550   29.8810   46.3660 H   0  0  0  0  0  0  0  0  0  0  0  0
   44.4480   35.6830   44.8080 C   0  0  0  0  0  0  0  0  0  0  0  0
   45.1160   35.6690   43.5350 C   0  0  0  0  0  0  0  0  0  0  0  0
   46.1750   34.7450   43.3640 C   0  0  0  0  0  0  0  0  0  0  0  0
   46.5220   33.9220   44.3770 N   0  0  0  0  0  0  0  0  0  0  0  0
   45.8400   33.9840   45.5760 C   0  0  0  0  0  0  0  0  0  0  0  0
   44.8400   34.8350   45.7820 N   0  0  0  0  0  0  0  0  0  0  0  0
   43.6460   36.4020   44.8960 H   0  0  0  0  0  0  0  0  0  0  0  0
   44.8010   36.3370   42.7790 H   0  0  0  0  0  0  0  0  0  0  0  0
   45.2060   33.2330   41.3030 F   0  0  0  0  0  0  0  0  0  0  0  0
   46.3780   33.9140   41.0730 C   0  0  0  0  0  0  0  0  0  0  0  0
   46.8880   34.6840   42.0970 C   0  0  0  0  0  0  0  0  0  0  0  0
   48.0450   35.3300   41.8110 C   0  0  0  0  0  0  0  0  0  0  0  0
   48.5040   35.9520   42.5630 H   0  0  0  0  0  0  0  0  0  0  0  0
   48.6870   35.2370   40.5790 C   0  0  0  0  0  0  0  0  0  0  0  0
   49.6180   35.7920   40.4300 H   0  0  0  0  0  0  0  0  0  0  0  0
   48.1270   34.4510   39.5940 C   0  0  0  0  0  0  0  0  0  0  0  0
   46.9580   33.7750   39.8310 C   0  0  0  0  0  0  0  0  0  0  0  0
  1  4  1  1  0  0  0
  1  2  1  0  0  0  0
  2  5  1  0  0  0  0
  3  7  1  6  0  0  0
  3  1  1  0  0  0  0
  3  8  1  0  0  0  0
  3  2  1  0  0  0  0
  6  2  1  0  0  0  0
  8  9  1  0  0  0  0
  9 18  1  0  0  0  0
  9 10  2  0  0  0  0
 10 19  1  0  0  0  0
 11 20  1  0  0  0  0
 11 10  1  0  0  0  0
 12 11  2  0  0  0  0
 13 12  1  0  0  0  0
 13 21  1  0  0  0  0
 14 13  2  0  0  0  0
 15 16  2  0  0  0  0
 15 14  1  0  0  0  0
 16 17  1  0  0  0  0
 17  8  2  0  0  0  0
 17 12  1  0  0  0  0
 22 14  1  0  0  0  0
 23 15  1  0  0  0  0
 24 16  1  0  0  0  0
 25 31  1  0  0  0  0
 25 30  1  0  0  0  0
 26 25  2  0  0  0  0
 27 26  1  0  0  0  0
 27 28  2  0  0  0  0
 28 29  1  0  0  0  0
 29 30  2  0  0  0  0
 29  1  1  0  0  0  0
 32 26  1  0  0  0  0
 34 33  1  0  0  0  0
 34 35  1  0  0  0  0
 35 27  1  0  0  0  0
 36 35  2  0  0  0  0
 36 37  1  0  0  0  0
 38 36  1  0  0  0  0
 39 38  1  0  0  0  0
 40 41  1  0  0  0  0
 40 38  2  0  0  0  0
 41 34  2  0  0  0  0
M  END
>  <minimizedAffinity>
-7.083992

>  <minimizedRMSD>
1.72126949

$$$$
