
 OpenBabel03252507013D

 37 39  0  0  0  0  0  0  0  0999 V2000
   46.5500   32.7950   44.5910 N   0  0  0  0  0  0  0  0  0  0  0  0
   46.7110   33.2020   45.9510 C   0  0  0  0  0  0  0  0  0  0  0  0
   45.8830   32.1300   46.6830 C   0  0  0  0  0  0  0  0  0  0  0  0
   46.3470   30.7560   46.4400 C   0  0  0  0  0  0  0  0  0  0  0  0
   47.2040   30.5300   45.2270 C   0  0  0  0  0  0  0  0  0  0  0  0
   47.3030   31.6050   44.2270 C   0  0  0  0  0  0  0  0  0  0  0  0
   47.7300   33.0520   46.3030 H   0  0  0  0  0  0  0  0  0  0  0  0
   46.4280   34.1940   46.2410 H   0  0  0  0  0  0  0  0  0  0  0  0
   46.0300   32.3530   47.7660 H   0  0  0  0  0  0  0  0  0  0  0  0
   44.7930   32.2890   46.4900 H   0  0  0  0  0  0  0  0  0  0  0  0
   46.9500   30.3460   47.2980 H   0  0  0  0  0  0  0  0  0  0  0  0
   45.4690   30.0760   46.4040 H   0  0  0  0  0  0  0  0  0  0  0  0
   47.6840   29.6160   45.1220 H   0  0  0  0  0  0  0  0  0  0  0  0
   49.6610   33.0510   43.2500 F   0  0  0  0  0  0  0  0  0  0  0  0
   49.0810   32.0630   42.5430 C   0  0  0  0  0  0  0  0  0  0  0  0
   48.0020   31.3700   43.0210 C   0  0  0  0  0  0  0  0  0  0  0  0
   47.6020   30.4060   42.1460 C   0  0  0  0  0  0  0  0  0  0  0  0
   46.7530   29.7880   42.3690 H   0  0  0  0  0  0  0  0  0  0  0  0
   48.1730   30.1230   40.9280 C   0  0  0  0  0  0  0  0  0  0  0  0
   47.8040   29.3420   40.2820 H   0  0  0  0  0  0  0  0  0  0  0  0
   49.2580   30.8500   40.4920 C   0  0  0  0  0  0  0  0  0  0  0  0
   49.7060   31.8400   41.3390 C   0  0  0  0  0  0  0  0  0  0  0  0
   45.6090   33.2460   43.7200 C   0  0  0  0  0  0  0  0  0  0  0  0
   45.4260   32.7170   42.7650 H   0  0  0  0  0  0  0  0  0  0  0  0
   44.5470   33.3100   44.1420 H   0  0  0  0  0  0  0  0  0  0  0  0
   45.8760   34.6850   43.3380 C   0  0  0  0  0  0  0  0  0  0  0  0
   44.8760   35.0920   42.9890 H   0  0  0  0  0  0  0  0  0  0  0  0
   46.1730   35.3590   44.1200 H   0  0  0  0  0  0  0  0  0  0  0  0
   46.6740   34.6820   42.1020 C   0  0  0  0  0  0  0  0  0  0  0  0
   46.2950   33.9610   40.9960 C   0  0  0  0  0  0  0  0  0  0  0  0
   47.0890   33.9740   39.8440 C   0  0  0  0  0  0  0  0  0  0  0  0
   48.2250   34.7240   39.8920 N   0  0  0  0  0  0  0  0  0  0  0  0
   48.5660   35.4120   40.9800 C   0  0  0  0  0  0  0  0  0  0  0  0
   47.7880   35.3790   42.0630 N   0  0  0  0  0  0  0  0  0  0  0  0
   45.3860   33.3770   40.9930 H   0  0  0  0  0  0  0  0  0  0  0  0
   46.8560   33.4390   38.9490 H   0  0  0  0  0  0  0  0  0  0  0  0
   49.4780   36.0100   41.0090 H   0  0  0  0  0  0  0  0  0  0  0  0
  1  2  1  0  0  0  0
  2  8  1  0  0  0  0
  2  7  1  0  0  0  0
  2  3  1  0  0  0  0
  3  9  1  0  0  0  0
  4  3  1  0  0  0  0
  4 11  1  0  0  0  0
  5  4  1  0  0  0  0
  6  1  1  0  0  0  0
  6  5  2  0  0  0  0
 10  3  1  0  0  0  0
 12  4  1  0  0  0  0
 13  5  1  0  0  0  0
 15 16  1  0  0  0  0
 15 14  1  0  0  0  0
 16  6  1  0  0  0  0
 17 18  1  0  0  0  0
 17 16  2  0  0  0  0
 19 17  1  0  0  0  0
 20 19  1  0  0  0  0
 21 19  2  0  0  0  0
 21 22  1  0  0  0  0
 22 15  2  0  0  0  0
 23 25  1  0  0  0  0
 23  1  1  0  0  0  0
 24 23  1  0  0  0  0
 26 23  1  0  0  0  0
 26 28  1  0  0  0  0
 27 26  1  0  0  0  0
 29 26  1  0  0  0  0
 30 29  2  0  0  0  0
 31 32  2  0  0  0  0
 31 30  1  0  0  0  0
 32 33  1  0  0  0  0
 33 37  1  0  0  0  0
 33 34  2  0  0  0  0
 34 29  1  0  0  0  0
 35 30  1  0  0  0  0
 36 31  1  0  0  0  0
M  END
>  <minimizedAffinity>
-3.9605689

>  <minimizedRMSD>
5.25576591

$$$$
