
 OpenBabel03252508323D

 32 34  0  0  1  0  0  0  0  0999 V2000
   45.1630   34.2320   41.9930 N   0  0  0  0  0  0  0  0  0  0  0  0
   46.1540   33.4160   41.3470 C   0  0  1  0  0  0  0  0  0  0  0  0
   46.0720   33.4300   39.8560 C   0  0  0  0  0  0  0  0  0  0  0  0
   44.7790   33.4450   39.2970 N   0  0  0  0  0  0  0  0  0  0  0  0
   43.7420   34.0630   40.0190 C   0  0  0  0  0  0  0  0  0  0  0  0
   44.3160   34.9650   41.1000 C   0  0  0  0  0  0  0  0  0  0  0  0
   46.0780   32.3810   41.7370 H   0  0  0  0  0  0  0  0  0  0  0  0
   46.6380   34.3170   39.4830 H   0  0  0  0  0  0  0  0  0  0  0  0
   46.6610   32.5460   39.4980 H   0  0  0  0  0  0  0  0  0  0  0  0
   44.5060   32.6430   38.7140 H   0  0  0  0  0  0  0  0  0  0  0  0
   43.1600   33.2690   40.5460 H   0  0  0  0  0  0  0  0  0  0  0  0
   43.0220   34.6380   39.4310 H   0  0  0  0  0  0  0  0  0  0  0  0
   44.8440   35.7810   40.5670 H   0  0  0  0  0  0  0  0  0  0  0  0
   43.4540   35.3930   41.6280 H   0  0  0  0  0  0  0  0  0  0  0  0
   44.6720   35.3950   44.0100 C   0  0  0  0  0  0  0  0  0  0  0  0
   45.1310   34.2270   43.4100 C   0  0  0  0  0  0  0  0  0  0  0  0
   45.5070   33.1850   44.2380 C   0  0  0  0  0  0  0  0  0  0  0  0
   45.4220   33.3180   45.5910 N   0  0  0  0  0  0  0  0  0  0  0  0
   44.9690   34.4740   46.1410 C   0  0  0  0  0  0  0  0  0  0  0  0
   44.5980   35.5010   45.3470 N   0  0  0  0  0  0  0  0  0  0  0  0
   44.3350   36.3190   43.5680 H   0  0  0  0  0  0  0  0  0  0  0  0
   45.8580   32.2870   43.7520 H   0  0  0  0  0  0  0  0  0  0  0  0
   44.9480   34.4580   47.2310 H   0  0  0  0  0  0  0  0  0  0  0  0
   48.2360   32.0260   42.7330 F   0  0  0  0  0  0  0  0  0  0  0  0
   48.4890   33.3160   42.3680 C   0  0  0  0  0  0  0  0  0  0  0  0
   47.4970   34.0020   41.6990 C   0  0  0  0  0  0  0  0  0  0  0  0
   47.8210   35.2910   41.3630 C   0  0  0  0  0  0  0  0  0  0  0  0
   47.1470   35.9290   40.8460 H   0  0  0  0  0  0  0  0  0  0  0  0
   49.0430   35.8800   41.6640 C   0  0  0  0  0  0  0  0  0  0  0  0
   49.2740   36.9060   41.3850 H   0  0  0  0  0  0  0  0  0  0  0  0
   49.9890   35.1290   42.3370 C   0  0  0  0  0  3  0  0  0  0  0  0
   49.6990   33.8450   42.6850 C   0  0  0  0  0  3  0  0  0  0  0  0
  1 16  1  0  0  0  0
  2 26  1  0  0  0  0
  2  7  1  1  0  0  0
  2  1  1  0  0  0  0
  3  2  1  0  0  0  0
  4  3  1  0  0  0  0
  4  5  1  0  0  0  0
  5 11  1  0  0  0  0
  5  6  1  0  0  0  0
  6 14  1  0  0  0  0
  6  1  1  0  0  0  0
  8  3  1  0  0  0  0
  9  3  1  0  0  0  0
 10  4  1  0  0  0  0
 12  5  1  0  0  0  0
 13  6  1  0  0  0  0
 15 20  1  0  0  0  0
 16 15  2  0  0  0  0
 16 17  1  0  0  0  0
 17 18  2  0  0  0  0
 18 19  1  0  0  0  0
 19 23  1  0  0  0  0
 20 19  2  0  0  0  0
 21 15  1  0  0  0  0
 22 17  1  0  0  0  0
 25 32  1  0  0  0  0
 25 24  1  0  0  0  0
 26 25  2  0  0  0  0
 27 29  2  0  0  0  0
 27 26  1  0  0  0  0
 28 27  1  0  0  0  0
 29 31  1  0  0  0  0
 30 29  1  0  0  0  0
 31 32  2  0  0  0  0
M  END
>  <minimizedAffinity>
-5.52067471

>  <minimizedRMSD>
1.91846609

$$$$
