
 OpenBabel03252504493D

 24 25  0  0  0  0  0  0  0  0999 V2000
   45.6440   34.5480   44.1520 C   0  0  0  0  0  0  0  0  0  0  0  0
   46.7580   34.2870   43.3550 C   0  0  0  0  0  0  0  0  0  0  0  0
   47.5800   33.2260   43.7430 C   0  0  0  0  0  0  0  0  0  0  0  0
   47.2480   32.5200   44.8580 N   0  0  0  0  0  0  0  0  0  0  0  0
   46.1570   32.8070   45.6030 C   0  0  0  0  0  0  0  0  0  0  0  0
   45.3590   33.8210   45.2450 N   0  0  0  0  0  0  0  0  0  0  0  0
   44.9720   35.3740   43.8830 H   0  0  0  0  0  0  0  0  0  0  0  0
   48.4510   32.9960   43.1490 H   0  0  0  0  0  0  0  0  0  0  0  0
   45.4440   30.1760   45.4330 F   0  0  0  0  0  0  0  0  0  0  0  0
   45.4910   30.6900   46.6700 C   0  0  0  0  0  0  0  0  0  0  0  0
   45.8470   32.0170   46.7900 C   0  0  0  0  0  0  0  0  0  0  0  0
   45.9090   32.5940   48.0620 C   0  0  0  0  0  0  0  0  0  0  0  0
   46.1820   33.6200   48.1850 H   0  0  0  0  0  0  0  0  0  0  0  0
   45.6220   31.8750   49.2220 C   0  0  0  0  0  0  0  0  0  0  0  0
   45.6760   32.3410   50.1990 H   0  0  0  0  0  0  0  0  0  0  0  0
   45.2670   30.5490   49.0850 C   0  0  0  0  0  0  0  0  0  0  0  0
   45.2000   29.9530   47.8200 C   0  0  0  0  0  0  0  0  0  0  0  0
   47.0030   35.1130   42.1900 C   0  0  0  0  0  0  0  0  0  0  0  0
   46.5040   34.7930   41.2540 H   0  0  0  0  0  0  0  0  0  0  0  0
   46.7040   36.1480   42.3740 H   0  0  0  0  0  0  0  0  0  0  0  0
   48.5090   35.1580   41.9500 C   0  0  0  0  0  0  0  0  0  0  0  0
   48.6870   35.8220   41.0620 H   0  0  0  0  0  0  0  0  0  0  0  0
   49.0200   35.5070   42.8510 H   0  0  0  0  0  0  0  0  0  0  0  0
   48.8820   34.1520   41.6030 H   0  0  0  0  0  0  0  0  0  0  0  0
  1  6  1  0  0  0  0
  2  3  1  0  0  0  0
  2  1  2  0  0  0  0
  3  4  2  0  0  0  0
  4  5  1  0  0  0  0
  5 11  1  0  0  0  0
  6  5  2  0  0  0  0
  7  1  1  0  0  0  0
  8  3  1  0  0  0  0
  9 10  1  0  0  0  0
 10 11  2  0  0  0  0
 10 17  1  0  0  0  0
 11 12  1  0  0  0  0
 12 13  1  0  0  0  0
 12 14  2  0  0  0  0
 14 15  1  0  0  0  0
 16 14  1  0  0  0  0
 17 16  2  0  0  0  0
 18 20  1  0  0  0  0
 18  2  1  0  0  0  0
 19 18  1  0  0  0  0
 21 18  1  0  0  0  0
 21 23  1  0  0  0  0
 22 21  1  0  0  0  0
 24 21  1  0  0  0  0
M  END
>  <minimizedAffinity>
-4.81488371

>  <minimizedRMSD>
1.63911295

$$$$
