
 OpenBabel03252508323D

 32 34  0  0  1  0  0  0  0  0999 V2000
   45.6120   33.7300   42.9430 N   0  0  0  0  0  0  0  0  0  0  0  0
   46.3170   33.3300   41.7560 C   0  0  1  0  0  0  0  0  0  0  0  0
   45.9640   34.1270   40.5440 C   0  0  0  0  0  0  0  0  0  0  0  0
   44.6100   34.4900   40.4020 N   0  0  0  0  0  0  0  0  0  0  0  0
   43.8420   34.6830   41.5630 C   0  0  0  0  0  0  0  0  0  0  0  0
   44.7470   34.8590   42.7730 C   0  0  0  0  0  0  0  0  0  0  0  0
   46.1460   32.2490   41.5820 H   0  0  0  0  0  0  0  0  0  0  0  0
   46.5900   35.0520   40.5390 H   0  0  0  0  0  0  0  0  0  0  0  0
   46.3240   33.5370   39.6610 H   0  0  0  0  0  0  0  0  0  0  0  0
   44.1060   34.1260   39.5840 H   0  0  0  0  0  0  0  0  0  0  0  0
   43.2450   33.7580   41.7470 H   0  0  0  0  0  0  0  0  0  0  0  0
   43.1300   35.5120   41.5380 H   0  0  0  0  0  0  0  0  0  0  0  0
   45.2940   35.8080   42.6090 H   0  0  0  0  0  0  0  0  0  0  0  0
   44.0800   34.9840   43.6360 H   0  0  0  0  0  0  0  0  0  0  0  0
   46.1510   33.7270   45.2600 C   0  0  0  0  0  0  0  0  0  0  0  0
   45.8420   32.9840   44.1250 C   0  0  0  0  0  0  0  0  0  0  0  0
   45.7880   31.6080   44.2550 C   0  0  0  0  0  0  0  0  0  0  0  0
   46.0320   31.0210   45.4590 N   0  0  0  0  0  0  0  0  0  0  0  0
   46.3310   31.7800   46.5460 C   0  0  0  0  0  0  0  0  0  0  0  0
   46.3890   33.1240   46.4370 N   0  0  0  0  0  0  0  0  0  0  0  0
   46.2500   34.7930   45.3880 H   0  0  0  0  0  0  0  0  0  0  0  0
   45.5440   31.0500   43.3630 H   0  0  0  0  0  0  0  0  0  0  0  0
   46.5060   31.1960   47.4500 H   0  0  0  0  0  0  0  0  0  0  0  0
   47.4870   35.9120   42.1450 F   0  0  0  0  0  0  0  0  0  0  0  0
   48.3250   34.8370   42.1990 C   0  0  0  0  0  0  0  0  0  0  0  0
   47.7810   33.5850   42.0140 C   0  0  0  0  0  0  0  0  0  0  0  0
   48.6820   32.5540   42.0810 C   0  0  0  0  0  0  0  0  0  0  0  0
   48.3920   31.5390   41.9570 H   0  0  0  0  0  0  0  0  0  0  0  0
   50.0380   32.7340   42.3160 C   0  0  0  0  0  0  0  0  0  0  0  0
   50.7330   31.8960   42.3660 H   0  0  0  0  0  0  0  0  0  0  0  0
   50.5140   34.0200   42.4930 C   0  0  0  0  0  3  0  0  0  0  0  0
   49.6440   35.0670   42.4310 C   0  0  0  0  0  3  0  0  0  0  0  0
  1 16  1  0  0  0  0
  2  7  1  6  0  0  0
  2 26  1  0  0  0  0
  2  1  1  0  0  0  0
  3  2  1  0  0  0  0
  4  3  1  0  0  0  0
  4  5  1  0  0  0  0
  5 11  1  0  0  0  0
  5  6  1  0  0  0  0
  6  1  1  0  0  0  0
  6 14  1  0  0  0  0
  8  3  1  0  0  0  0
  9  3  1  0  0  0  0
 10  4  1  0  0  0  0
 12  5  1  0  0  0  0
 13  6  1  0  0  0  0
 15 21  1  0  0  0  0
 15 20  1  0  0  0  0
 16 17  1  0  0  0  0
 16 15  2  0  0  0  0
 17 18  2  0  0  0  0
 18 19  1  0  0  0  0
 19 23  1  0  0  0  0
 20 19  2  0  0  0  0
 22 17  1  0  0  0  0
 24 25  1  0  0  0  0
 25 32  1  0  0  0  0
 26 27  1  0  0  0  0
 26 25  2  0  0  0  0
 27 29  2  0  0  0  0
 28 27  1  0  0  0  0
 29 30  1  0  0  0  0
 29 31  1  0  0  0  0
 32 31  2  0  0  0  0
M  END
>  <minimizedAffinity>
-5.19989777

>  <minimizedRMSD>
2.24484611

$$$$
