
 OpenBabel03252503483D

 44 47  0  0  1  0  0  0  0  0999 V2000
   37.3370   30.9780   40.6730 C   0  0  0  0  0  0  0  0  0  0  0  0
   36.8170   30.1600   39.6700 C   0  0  0  0  0  0  0  0  0  0  0  0
   37.5500   30.0940   38.4860 C   0  0  0  0  0  0  0  0  0  0  0  0
   38.7000   30.7800   38.3210 N   0  0  0  0  0  0  0  0  0  0  0  0
   39.1680   31.5640   39.3270 C   0  0  0  0  0  0  0  0  0  0  0  0
   38.4930   31.6630   40.4940 N   0  0  0  0  0  0  0  0  0  0  0  0
   36.7780   31.0320   41.5850 H   0  0  0  0  0  0  0  0  0  0  0  0
   37.2670   29.5500   37.6310 H   0  0  0  0  0  0  0  0  0  0  0  0
   40.8900   32.1700   37.6390 C   0  0  2  0  0  0  0  0  0  0  0  0
   40.4170   32.2880   39.1180 C   0  0  1  0  0  0  0  0  0  0  0  0
   40.3420   33.6360   39.2020 O   0  0  0  0  0  0  0  0  0  0  0  0
   41.4760   34.1600   38.6560 C   0  0  0  0  0  0  0  0  0  0  0  0
   42.0840   33.1280   37.7490 C   0  0  2  0  0  0  0  0  0  0  0  0
   41.1970   31.1480   37.4000 H   0  0  0  0  0  0  0  0  0  0  0  0
   41.2360   31.8940   39.7460 H   0  0  0  0  0  0  0  0  0  0  0  0
   42.1900   34.5900   39.3960 H   0  0  0  0  0  0  0  0  0  0  0  0
   41.1810   35.0330   38.0110 H   0  0  0  0  0  0  0  0  0  0  0  0
   42.8920   32.6340   38.3390 H   0  0  0  0  0  0  0  0  0  0  0  0
   39.9930   32.7430   36.8160 O   0  0  0  0  0  0  0  0  0  0  0  0
   39.5450   33.4970   37.3020 H   0  0  0  0  0  0  0  0  0  0  0  0
   42.4900   33.6230   36.5390 O   0  0  0  0  0  0  0  0  0  0  0  0
   41.8140   33.5060   35.8490 H   0  0  0  0  0  0  0  0  0  0  0  0
   35.5960   29.4030   39.8390 C   0  0  0  0  0  0  0  0  0  0  0  0
   34.8050   29.9030   39.2030 H   0  0  0  0  0  0  0  0  0  0  0  0
   35.2100   29.4550   40.8660 H   0  0  0  0  0  0  0  0  0  0  0  0
   35.7740   28.0210   39.3740 C   0  0  0  0  0  0  0  0  0  0  0  0
   35.1990   27.4840   38.2480 C   0  0  0  0  0  0  0  0  0  0  0  0
   35.4110   26.1740   37.8630 C   0  0  0  0  0  0  0  0  0  0  0  0
   36.2370   25.3850   38.6560 C   0  0  0  0  0  0  0  0  0  0  0  0
   36.8250   25.9270   39.8050 C   0  0  0  0  0  0  0  0  0  0  0  0
   36.5930   27.2550   40.1680 C   0  0  0  0  0  0  0  0  0  0  0  0
   34.5810   28.2150   37.7300 H   0  0  0  0  0  0  0  0  0  0  0  0
   34.9030   25.8720   36.9580 H   0  0  0  0  0  0  0  0  0  0  0  0
   36.3030   24.3930   38.2270 H   0  0  0  0  0  0  0  0  0  0  0  0
   37.4070   25.1060   40.2250 H   0  0  0  0  0  0  0  0  0  0  0  0
   35.6950   27.5880   42.8620 F   0  0  0  0  0  0  0  0  0  0  0  0
   37.0390   27.5400   42.7270 C   0  0  0  0  0  0  0  0  0  0  0  0
   37.3710   27.3770   41.3910 C   0  0  0  0  0  0  0  0  0  0  0  0
   38.7300   27.3050   41.0480 C   0  0  0  0  0  0  0  0  0  0  0  0
   39.1890   27.1800   40.0670 H   0  0  0  0  0  0  0  0  0  0  0  0
   39.7250   27.3950   42.0270 C   0  0  0  0  0  0  0  0  0  0  0  0
   40.7870   27.3480   41.8420 H   0  0  0  0  0  0  0  0  0  0  0  0
   39.3630   27.5570   43.3460 C   0  0  0  0  0  3  0  0  0  0  0  0
   38.0290   27.6270   43.6780 C   0  0  0  0  0  3  0  0  0  0  0  0
  1  7  1  0  0  0  0
  2 23  1  0  0  0  0
  2  1  2  0  0  0  0
  3  2  1  0  0  0  0
  4  3  2  0  0  0  0
  4  5  1  0  0  0  0
  5  6  2  0  0  0  0
  6  1  1  0  0  0  0
  8  3  1  0  0  0  0
  9 14  1  6  0  0  0
  9 13  1  0  0  0  0
  9 10  1  0  0  0  0
 10 11  1  0  0  0  0
 10  5  1  0  0  0  0
 10 15  1  1  0  0  0
 12 11  1  0  0  0  0
 12 16  1  0  0  0  0
 13 18  1  1  0  0  0
 13 12  1  0  0  0  0
 17 12  1  0  0  0  0
 19 20  1  0  0  0  0
 19  9  1  0  0  0  0
 21 13  1  0  0  0  0
 22 21  1  0  0  0  0
 23 25  1  0  0  0  0
 24 23  1  0  0  0  0
 26 23  1  0  0  0  0
 26 31  1  0  0  0  0
 27 26  2  0  0  0  0
 28 27  1  0  0  0  0
 28 29  2  0  0  0  0
 29 30  1  0  0  0  0
 30 31  2  0  0  0  0
 30 35  1  0  0  0  0
 31 38  1  0  0  0  0
 32 27  1  0  0  0  0
 33 28  1  0  0  0  0
 34 29  1  0  0  0  0
 37 36  1  0  0  0  0
 37 44  1  0  0  0  0
 38 37  2  0  0  0  0
 39 38  1  0  0  0  0
 39 41  2  0  0  0  0
 40 39  1  0  0  0  0
 41 43  1  0  0  0  0
 42 41  1  0  0  0  0
 43 44  2  0  0  0  0
M  END
>  <minimizedAffinity>
-7.00890732

$$$$

 OpenBabel03252503483D

 44 47  0  0  1  0  0  0  0  0999 V2000
   36.7950   27.5770   40.5190 C   0  0  0  0  0  0  0  0  0  0  0  0
   37.3080   27.0800   41.7180 C   0  0  0  0  0  0  0  0  0  0  0  0
   38.1910   27.9130   42.4030 C   0  0  0  0  0  0  0  0  0  0  0  0
   38.5280   29.1330   41.9340 N   0  0  0  0  0  0  0  0  0  0  0  0
   38.0020   29.5740   40.7620 C   0  0  0  0  0  0  0  0  0  0  0  0
   37.1430   28.8040   40.0590 N   0  0  0  0  0  0  0  0  0  0  0  0
   36.1160   26.9410   39.9880 H   0  0  0  0  0  0  0  0  0  0  0  0
   38.6840   27.6630   43.2970 H   0  0  0  0  0  0  0  0  0  0  0  0
   37.1470   31.6780   39.7480 C   0  0  2  0  0  0  0  0  0  0  0  0
   38.3830   30.9000   40.2880 C   0  0  1  0  0  0  0  0  0  0  0  0
   38.7800   31.7790   41.2370 O   0  0  0  0  0  0  0  0  0  0  0  0
   38.7660   33.0280   40.6930 C   0  0  0  0  0  0  0  0  0  0  0  0
   37.8630   33.0110   39.4920 C   0  0  2  0  0  0  0  0  0  0  0  0
   36.7650   31.2270   38.8280 H   0  0  0  0  0  0  0  0  0  0  0  0
   39.1140   30.8520   39.4600 H   0  0  0  0  0  0  0  0  0  0  0  0
   39.7760   33.4570   40.4950 H   0  0  0  0  0  0  0  0  0  0  0  0
   38.3050   33.7300   41.4420 H   0  0  0  0  0  0  0  0  0  0  0  0
   38.5300   32.9000   38.6040 H   0  0  0  0  0  0  0  0  0  0  0  0
   36.2600   31.8850   40.7370 O   0  0  0  0  0  0  0  0  0  0  0  0
   36.7560   31.9660   41.6050 H   0  0  0  0  0  0  0  0  0  0  0  0
   37.0080   34.0780   39.4260 O   0  0  0  0  0  0  0  0  0  0  0  0
   36.1350   33.8720   39.8050 H   0  0  0  0  0  0  0  0  0  0  0  0
   36.9420   25.7830   42.2420 C   0  0  0  0  0  0  0  0  0  0  0  0
   35.8390   25.8260   42.4920 H   0  0  0  0  0  0  0  0  0  0  0  0
   37.4400   25.5610   43.1960 H   0  0  0  0  0  0  0  0  0  0  0  0
   37.1580   24.7360   41.2360 C   0  0  0  0  0  0  0  0  0  0  0  0
   36.1680   24.1050   40.5230 C   0  0  0  0  0  0  0  0  0  0  0  0
   36.4410   23.1280   39.5850 C   0  0  0  0  0  0  0  0  0  0  0  0
   37.7700   22.7830   39.3690 C   0  0  0  0  0  0  0  0  0  0  0  0
   38.7840   23.4220   40.0930 C   0  0  0  0  0  0  0  0  0  0  0  0
   38.4770   24.4070   41.0330 C   0  0  0  0  0  0  0  0  0  0  0  0
   35.1830   24.4760   40.7980 H   0  0  0  0  0  0  0  0  0  0  0  0
   35.5760   22.7080   39.0920 H   0  0  0  0  0  0  0  0  0  0  0  0
   37.8200   22.0100   38.6130 H   0  0  0  0  0  0  0  0  0  0  0  0
   39.7060   22.9660   39.7300 H   0  0  0  0  0  0  0  0  0  0  0  0
   39.5390   24.1980   43.6800 F   0  0  0  0  0  0  0  0  0  0  0  0
   40.4000   24.7150   42.7770 C   0  0  0  0  0  0  0  0  0  0  0  0
   39.7940   24.7730   41.5310 C   0  0  0  0  0  0  0  0  0  0  0  0
   40.5360   25.2860   40.4550 C   0  0  0  0  0  0  0  0  0  0  0  0
   40.2410   25.4130   39.4120 H   0  0  0  0  0  0  0  0  0  0  0  0
   41.8520   25.7260   40.6320 C   0  0  0  0  0  0  0  0  0  0  0  0
   42.4820   26.1310   39.8560 H   0  0  0  0  0  0  0  0  0  0  0  0
   42.4250   25.6550   41.8830 C   0  0  0  0  0  3  0  0  0  0  0  0
   41.6950   25.1510   42.9350 C   0  0  0  0  0  3  0  0  0  0  0  0
  1  2  1  0  0  0  0
  2 23  1  0  0  0  0
  2  3  2  0  0  0  0
  3  8  1  0  0  0  0
  4  3  1  0  0  0  0
  5  4  2  0  0  0  0
  6  1  2  0  0  0  0
  6  5  1  0  0  0  0
  7  1  1  0  0  0  0
  9 14  1  6  0  0  0
  9 10  1  0  0  0  0
  9 19  1  0  0  0  0
 10 15  1  6  0  0  0
 10  5  1  0  0  0  0
 10 11  1  0  0  0  0
 12 11  1  0  0  0  0
 12 17  1  0  0  0  0
 13 18  1  6  0  0  0
 13  9  1  0  0  0  0
 13 12  1  0  0  0  0
 16 12  1  0  0  0  0
 19 20  1  0  0  0  0
 21 13  1  0  0  0  0
 21 22  1  0  0  0  0
 23 24  1  0  0  0  0
 23 25  1  0  0  0  0
 26 23  1  0  0  0  0
 27 32  1  0  0  0  0
 27 26  2  0  0  0  0
 28 27  1  0  0  0  0
 29 28  2  0  0  0  0
 29 30  1  0  0  0  0
 30 31  2  0  0  0  0
 31 26  1  0  0  0  0
 31 38  1  0  0  0  0
 33 28  1  0  0  0  0
 34 29  1  0  0  0  0
 35 30  1  0  0  0  0
 37 44  1  0  0  0  0
 37 36  1  0  0  0  0
 38 37  2  0  0  0  0
 39 41  2  0  0  0  0
 39 38  1  0  0  0  0
 40 39  1  0  0  0  0
 41 43  1  0  0  0  0
 42 41  1  0  0  0  0
 43 44  2  0  0  0  0
M  END
>  <minimizedAffinity>
-6.83035994

$$$$

 OpenBabel03252503483D

 44 47  0  0  1  0  0  0  0  0999 V2000
   37.6660   29.7340   38.1270 C   0  0  0  0  0  0  0  0  0  0  0  0
   36.8000   29.8510   39.2150 C   0  0  0  0  0  0  0  0  0  0  0  0
   37.1770   30.7530   40.2090 C   0  0  0  0  0  0  0  0  0  0  0  0
   38.3150   31.4740   40.1220 N   0  0  0  0  0  0  0  0  0  0  0  0
   39.1260   31.3260   39.0430 C   0  0  0  0  0  0  0  0  0  0  0  0
   38.8060   30.4630   38.0530 N   0  0  0  0  0  0  0  0  0  0  0  0
   37.3810   29.0420   37.3610 H   0  0  0  0  0  0  0  0  0  0  0  0
   36.6470   30.9230   41.1010 H   0  0  0  0  0  0  0  0  0  0  0  0
   40.9250   32.1440   37.5330 C   0  0  2  0  0  0  0  0  0  0  0  0
   40.3440   32.1250   38.9780 C   0  0  1  0  0  0  0  0  0  0  0  0
   40.1900   33.4580   39.1540 O   0  0  0  0  0  0  0  0  0  0  0  0
   41.3280   34.0780   38.7310 C   0  0  0  0  0  0  0  0  0  0  0  0
   42.0540   33.1500   37.7990 C   0  0  2  0  0  0  0  0  0  0  0  0
   41.3040   31.1600   37.2440 H   0  0  0  0  0  0  0  0  0  0  0  0
   41.1390   31.7260   39.6340 H   0  0  0  0  0  0  0  0  0  0  0  0
   41.9640   34.4850   39.5510 H   0  0  0  0  0  0  0  0  0  0  0  0
   41.0310   34.9810   38.1310 H   0  0  0  0  0  0  0  0  0  0  0  0
   42.8450   32.6530   38.4090 H   0  0  0  0  0  0  0  0  0  0  0  0
   40.0570   32.7320   36.6910 O   0  0  0  0  0  0  0  0  0  0  0  0
   39.5350   33.4240   37.1950 H   0  0  0  0  0  0  0  0  0  0  0  0
   42.5150   33.7550   36.6610 O   0  0  0  0  0  0  0  0  0  0  0  0
   41.8960   33.6570   35.9170 H   0  0  0  0  0  0  0  0  0  0  0  0
   35.5690   29.0990   39.3130 C   0  0  0  0  0  0  0  0  0  0  0  0
   34.8500   29.5400   38.5590 H   0  0  0  0  0  0  0  0  0  0  0  0
   35.0740   29.2300   40.2860 H   0  0  0  0  0  0  0  0  0  0  0  0
   35.7950   27.6860   38.9820 C   0  0  0  0  0  0  0  0  0  0  0  0
   35.2490   27.0280   37.9080 C   0  0  0  0  0  0  0  0  0  0  0  0
   35.5060   25.6950   37.6490 C   0  0  0  0  0  0  0  0  0  0  0  0
   36.3480   25.0120   38.5190 C   0  0  0  0  0  0  0  0  0  0  0  0
   36.9080   25.6780   39.6160 C   0  0  0  0  0  0  0  0  0  0  0  0
   36.6310   27.0260   39.8500 C   0  0  0  0  0  0  0  0  0  0  0  0
   34.6130   27.6860   37.3190 H   0  0  0  0  0  0  0  0  0  0  0  0
   35.0170   25.2920   36.7740 H   0  0  0  0  0  0  0  0  0  0  0  0
   36.4500   23.9860   38.1870 H   0  0  0  0  0  0  0  0  0  0  0  0
   37.5120   24.9200   40.1150 H   0  0  0  0  0  0  0  0  0  0  0  0
   39.3940   27.6960   40.1470 F   0  0  0  0  0  0  0  0  0  0  0  0
   38.7150   27.6150   41.3120 C   0  0  0  0  0  0  0  0  0  0  0  0
   37.3910   27.2880   41.0620 C   0  0  0  0  0  0  0  0  0  0  0  0
   36.5210   27.1560   42.1560 C   0  0  0  0  0  0  0  0  0  0  0  0
   35.4590   26.9080   42.1660 H   0  0  0  0  0  0  0  0  0  0  0  0
   36.9740   27.3510   43.4640 C   0  0  0  0  0  0  0  0  0  0  0  0
   36.3680   27.2680   44.3520 H   0  0  0  0  0  0  0  0  0  0  0  0
   38.2960   27.6750   43.6800 C   0  0  0  0  0  3  0  0  0  0  0  0
   39.1460   27.8040   42.6050 C   0  0  0  0  0  3  0  0  0  0  0  0
  1  2  1  0  0  0  0
  2 23  1  0  0  0  0
  2  3  2  0  0  0  0
  3  8  1  0  0  0  0
  4  3  1  0  0  0  0
  5  4  2  0  0  0  0
  6  1  2  0  0  0  0
  6  5  1  0  0  0  0
  7  1  1  0  0  0  0
  9 14  1  6  0  0  0
  9 13  1  0  0  0  0
  9 10  1  0  0  0  0
 10  5  1  0  0  0  0
 10 11  1  0  0  0  0
 10 15  1  1  0  0  0
 12 11  1  0  0  0  0
 12 16  1  0  0  0  0
 13 18  1  1  0  0  0
 13 12  1  0  0  0  0
 17 12  1  0  0  0  0
 19 20  1  0  0  0  0
 19  9  1  0  0  0  0
 21 13  1  0  0  0  0
 22 21  1  0  0  0  0
 23 25  1  0  0  0  0
 24 23  1  0  0  0  0
 26 23  1  0  0  0  0
 26 31  1  0  0  0  0
 27 26  2  0  0  0  0
 28 27  1  0  0  0  0
 28 29  2  0  0  0  0
 29 30  1  0  0  0  0
 30 31  2  0  0  0  0
 30 35  1  0  0  0  0
 31 38  1  0  0  0  0
 32 27  1  0  0  0  0
 33 28  1  0  0  0  0
 34 29  1  0  0  0  0
 36 37  1  0  0  0  0
 37 44  1  0  0  0  0
 38 37  2  0  0  0  0
 38 39  1  0  0  0  0
 39 40  1  0  0  0  0
 39 41  2  0  0  0  0
 41 43  1  0  0  0  0
 41 42  1  0  0  0  0
 44 43  2  0  0  0  0
M  END
>  <minimizedAffinity>
-6.82887268

$$$$

 OpenBabel03252503483D

 44 47  0  0  1  0  0  0  0  0999 V2000
   37.4000   27.7840   40.8210 C   0  0  0  0  0  0  0  0  0  0  0  0
   36.8380   28.9860   41.2510 C   0  0  0  0  0  0  0  0  0  0  0  0
   37.3910   29.5480   42.4010 C   0  0  0  0  0  0  0  0  0  0  0  0
   38.4130   28.9630   43.0590 N   0  0  0  0  0  0  0  0  0  0  0  0
   38.9280   27.7920   42.6010 C   0  0  0  0  0  0  0  0  0  0  0  0
   38.4260   27.2060   41.4920 N   0  0  0  0  0  0  0  0  0  0  0  0
   36.9780   27.3470   39.9370 H   0  0  0  0  0  0  0  0  0  0  0  0
   37.0520   30.4300   42.8640 H   0  0  0  0  0  0  0  0  0  0  0  0
   40.4530   25.8300   42.6980 C   0  0  2  0  0  0  0  0  0  0  0  0
   40.0360   27.1890   43.3330 C   0  0  1  0  0  0  0  0  0  0  0  0
   41.2250   27.8310   43.2440 O   0  0  0  0  0  0  0  0  0  0  0  0
   42.1990   26.9830   43.6790 C   0  0  0  0  0  0  0  0  0  0  0  0
   41.6780   25.5770   43.5880 C   0  0  2  0  0  0  0  0  0  0  0  0
   39.6760   25.0730   42.8330 H   0  0  0  0  0  0  0  0  0  0  0  0
   39.7750   26.9800   44.3860 H   0  0  0  0  0  0  0  0  0  0  0  0
   42.6290   27.2440   44.6740 H   0  0  0  0  0  0  0  0  0  0  0  0
   43.0690   27.0580   42.9690 H   0  0  0  0  0  0  0  0  0  0  0  0
   41.3310   25.3080   44.6140 H   0  0  0  0  0  0  0  0  0  0  0  0
   40.9040   26.0220   41.4450 O   0  0  0  0  0  0  0  0  0  0  0  0
   41.3290   26.9280   41.3890 H   0  0  0  0  0  0  0  0  0  0  0  0
   42.5660   24.6900   43.0430 O   0  0  0  0  0  0  0  0  0  0  0  0
   42.4210   24.5660   42.0880 H   0  0  0  0  0  0  0  0  0  0  0  0
   35.7550   29.6360   40.5460 C   0  0  0  0  0  0  0  0  0  0  0  0
   35.6980   30.6980   40.9320 H   0  0  0  0  0  0  0  0  0  0  0  0
   34.7770   29.1940   40.7820 H   0  0  0  0  0  0  0  0  0  0  0  0
   36.0230   29.6710   39.1020 C   0  0  0  0  0  0  0  0  0  0  0  0
   35.4330   28.8570   38.1670 C   0  0  0  0  0  0  0  0  0  0  0  0
   35.7270   28.9440   36.8200 C   0  0  0  0  0  0  0  0  0  0  0  0
   36.6570   29.8950   36.4140 C   0  0  0  0  0  0  0  0  0  0  0  0
   37.2630   30.7270   37.3640 C   0  0  0  0  0  0  0  0  0  0  0  0
   36.9440   30.6160   38.7180 C   0  0  0  0  0  0  0  0  0  0  0  0
   34.7310   28.1650   38.6280 H   0  0  0  0  0  0  0  0  0  0  0  0
   35.1960   28.2490   36.1850 H   0  0  0  0  0  0  0  0  0  0  0  0
   36.7800   29.8400   35.3400 H   0  0  0  0  0  0  0  0  0  0  0  0
   37.9330   31.3610   36.7820 H   0  0  0  0  0  0  0  0  0  0  0  0
   39.5440   30.3630   39.8800 F   0  0  0  0  0  0  0  0  0  0  0  0
   39.0480   31.6200   39.8990 C   0  0  0  0  0  0  0  0  0  0  0  0
   37.7910   31.6370   39.3150 C   0  0  0  0  0  0  0  0  0  0  0  0
   37.1090   32.8620   39.2420 C   0  0  0  0  0  0  0  0  0  0  0  0
   36.1250   33.0800   38.8260 H   0  0  0  0  0  0  0  0  0  0  0  0
   37.6810   34.0360   39.7430 C   0  0  0  0  0  0  0  0  0  0  0  0
   37.2200   35.0110   39.7230 H   0  0  0  0  0  0  0  0  0  0  0  0
   38.9320   33.9850   40.3180 C   0  0  0  0  0  3  0  0  0  0  0  0
   39.5980   32.7820   40.3870 C   0  0  0  0  0  3  0  0  0  0  0  0
  1  2  2  0  0  0  0
  1  6  1  0  0  0  0
  2  3  1  0  0  0  0
  3  8  1  0  0  0  0
  3  4  2  0  0  0  0
  5  4  1  0  0  0  0
  5 10  1  0  0  0  0
  6  5  2  0  0  0  0
  7  1  1  0  0  0  0
  9 14  1  1  0  0  0
  9 10  1  0  0  0  0
  9 13  1  0  0  0  0
 10 15  1  1  0  0  0
 11 10  1  0  0  0  0
 11 12  1  0  0  0  0
 12 16  1  0  0  0  0
 13 12  1  0  0  0  0
 13 18  1  1  0  0  0
 17 12  1  0  0  0  0
 19  9  1  0  0  0  0
 20 19  1  0  0  0  0
 21 13  1  0  0  0  0
 22 21  1  0  0  0  0
 23 25  1  0  0  0  0
 23 24  1  0  0  0  0
 23  2  1  0  0  0  0
 26 23  1  0  0  0  0
 27 32  1  0  0  0  0
 27 26  2  0  0  0  0
 28 27  1  0  0  0  0
 29 28  2  0  0  0  0
 29 30  1  0  0  0  0
 30 31  2  0  0  0  0
 31 26  1  0  0  0  0
 31 38  1  0  0  0  0
 33 28  1  0  0  0  0
 34 29  1  0  0  0  0
 35 30  1  0  0  0  0
 36 37  1  0  0  0  0
 37 44  1  0  0  0  0
 38 37  2  0  0  0  0
 39 38  1  0  0  0  0
 39 41  2  0  0  0  0
 40 39  1  0  0  0  0
 41 43  1  0  0  0  0
 42 41  1  0  0  0  0
 43 44  2  0  0  0  0
M  END
>  <minimizedAffinity>
-6.71701813

$$$$

 OpenBabel03252503483D

 44 47  0  0  1  0  0  0  0  0999 V2000
   37.5280   30.2880   38.9990 C   0  0  0  0  0  0  0  0  0  0  0  0
   37.8720   28.9530   39.2170 C   0  0  0  0  0  0  0  0  0  0  0  0
   39.2340   28.6780   39.3250 C   0  0  0  0  0  0  0  0  0  0  0  0
   40.1670   29.6480   39.2250 N   0  0  0  0  0  0  0  0  0  0  0  0
   39.7830   30.9330   39.0120 C   0  0  0  0  0  0  0  0  0  0  0  0
   38.4750   31.2520   38.8990 N   0  0  0  0  0  0  0  0  0  0  0  0
   36.4820   30.5050   38.9150 H   0  0  0  0  0  0  0  0  0  0  0  0
   39.6470   27.7190   39.4540 H   0  0  0  0  0  0  0  0  0  0  0  0
   41.2490   32.1790   37.4360 C   0  0  2  0  0  0  0  0  0  0  0  0
   40.8170   31.9570   38.9160 C   0  0  1  0  0  0  0  0  0  0  0  0
   40.4300   33.2210   39.2080 O   0  0  0  0  0  0  0  0  0  0  0  0
   41.3870   34.0760   38.7470 C   0  0  0  0  0  0  0  0  0  0  0  0
   42.1870   33.3670   37.6920 C   0  0  2  0  0  0  0  0  0  0  0  0
   41.7790   31.3070   37.0420 H   0  0  0  0  0  0  0  0  0  0  0  0
   41.7300   31.6810   39.4750 H   0  0  0  0  0  0  0  0  0  0  0  0
   42.0070   34.5480   39.5440 H   0  0  0  0  0  0  0  0  0  0  0  0
   40.8710   34.9390   38.2450 H   0  0  0  0  0  0  0  0  0  0  0  0
   43.1100   32.9980   38.1970 H   0  0  0  0  0  0  0  0  0  0  0  0
   40.2120   32.6370   36.7130 O   0  0  0  0  0  0  0  0  0  0  0  0
   39.6170   33.1810   37.3090 H   0  0  0  0  0  0  0  0  0  0  0  0
   42.4190   34.1200   36.5720 O   0  0  0  0  0  0  0  0  0  0  0  0
   41.7640   33.9490   35.8730 H   0  0  0  0  0  0  0  0  0  0  0  0
   36.8830   27.9060   39.3460 C   0  0  0  0  0  0  0  0  0  0  0  0
   37.2010   27.0640   38.6600 H   0  0  0  0  0  0  0  0  0  0  0  0
   35.8950   28.2150   38.9770 H   0  0  0  0  0  0  0  0  0  0  0  0
   36.8360   27.4010   40.7240 C   0  0  0  0  0  0  0  0  0  0  0  0
   36.5170   28.1490   41.8310 C   0  0  0  0  0  0  0  0  0  0  0  0
   36.4870   27.6110   43.1030 C   0  0  0  0  0  0  0  0  0  0  0  0
   36.7960   26.2630   43.2490 C   0  0  0  0  0  0  0  0  0  0  0  0
   37.1220   25.4960   42.1240 C   0  0  0  0  0  0  0  0  0  0  0  0
   37.1420   26.0680   40.8520 C   0  0  0  0  0  0  0  0  0  0  0  0
   36.3010   29.1820   41.5640 H   0  0  0  0  0  0  0  0  0  0  0  0
   36.2210   28.3020   43.8900 H   0  0  0  0  0  0  0  0  0  0  0  0
   36.7300   25.9930   44.2960 H   0  0  0  0  0  0  0  0  0  0  0  0
   37.3140   24.4990   42.5220 H   0  0  0  0  0  0  0  0  0  0  0  0
   35.4970   24.2240   39.4130 F   0  0  0  0  0  0  0  0  0  0  0  0
   36.8230   23.9980   39.2880 C   0  0  0  0  0  0  0  0  0  0  0  0
   37.5300   24.9410   40.0180 C   0  0  0  0  0  0  0  0  0  0  0  0
   38.9330   24.8700   40.0120 C   0  0  0  0  0  0  0  0  0  0  0  0
   39.6580   25.5110   40.5150 H   0  0  0  0  0  0  0  0  0  0  0  0
   39.6010   23.8770   39.2880 C   0  0  0  0  0  0  0  0  0  0  0  0
   40.6720   23.7590   39.2360 H   0  0  0  0  0  0  0  0  0  0  0  0
   38.8690   22.9550   38.5730 C   0  0  0  0  0  3  0  0  0  0  0  0
   37.4940   23.0280   38.5810 C   0  0  0  0  0  3  0  0  0  0  0  0
  1  2  1  0  0  0  0
  2  3  2  0  0  0  0
  2 23  1  0  0  0  0
  3  8  1  0  0  0  0
  4  3  1  0  0  0  0
  5  4  2  0  0  0  0
  6  1  2  0  0  0  0
  6  5  1  0  0  0  0
  7  1  1  0  0  0  0
  9 14  1  6  0  0  0
  9 13  1  0  0  0  0
  9 10  1  0  0  0  0
 10  5  1  0  0  0  0
 10 11  1  0  0  0  0
 10 15  1  1  0  0  0
 12 11  1  0  0  0  0
 12 16  1  0  0  0  0
 13 18  1  1  0  0  0
 13 12  1  0  0  0  0
 17 12  1  0  0  0  0
 19 20  1  0  0  0  0
 19  9  1  0  0  0  0
 21 13  1  0  0  0  0
 22 21  1  0  0  0  0
 23 26  1  0  0  0  0
 24 23  1  0  0  0  0
 25 23  1  0  0  0  0
 26 31  2  0  0  0  0
 26 27  1  0  0  0  0
 27 28  2  0  0  0  0
 28 29  1  0  0  0  0
 28 33  1  0  0  0  0
 29 34  1  0  0  0  0
 30 35  1  0  0  0  0
 30 29  2  0  0  0  0
 31 30  1  0  0  0  0
 32 27  1  0  0  0  0
 37 36  1  0  0  0  0
 37 38  1  0  0  0  0
 38 31  1  0  0  0  0
 39 38  2  0  0  0  0
 39 40  1  0  0  0  0
 41 39  1  0  0  0  0
 42 41  1  0  0  0  0
 43 44  1  0  0  0  0
 43 41  2  0  0  0  0
 44 37  2  0  0  0  0
M  END
>  <minimizedAffinity>
-6.66313553

$$$$

 OpenBabel03252503483D

 44 47  0  0  1  0  0  0  0  0999 V2000
   38.5120   31.7250   40.6440 C   0  0  0  0  0  0  0  0  0  0  0  0
   37.7600   31.2030   39.5920 C   0  0  0  0  0  0  0  0  0  0  0  0
   38.4210   31.0610   38.3730 C   0  0  0  0  0  0  0  0  0  0  0  0
   39.7170   31.4070   38.2210 N   0  0  0  0  0  0  0  0  0  0  0  0
   40.4090   31.9110   39.2750 C   0  0  0  0  0  0  0  0  0  0  0  0
   39.8120   32.0710   40.4770 N   0  0  0  0  0  0  0  0  0  0  0  0
   38.0090   31.8370   41.5840 H   0  0  0  0  0  0  0  0  0  0  0  0
   37.9790   30.7150   37.4830 H   0  0  0  0  0  0  0  0  0  0  0  0
   42.0820   32.6590   37.5950 C   0  0  2  0  0  0  0  0  0  0  0  0
   41.8090   32.2700   39.0770 C   0  0  1  0  0  0  0  0  0  0  0  0
   42.2170   33.4160   39.6690 O   0  0  0  0  0  0  0  0  0  0  0  0
   43.4110   33.7770   39.1180 C   0  0  0  0  0  0  0  0  0  0  0  0
   43.5400   33.1000   37.7840 C   0  0  2  0  0  0  0  0  0  0  0  0
   41.9910   31.7930   36.9330 H   0  0  0  0  0  0  0  0  0  0  0  0
   42.4900   31.4330   39.3160 H   0  0  0  0  0  0  0  0  0  0  0  0
   44.2910   33.6320   39.7870 H   0  0  0  0  0  0  0  0  0  0  0  0
   43.3850   34.8840   38.9250 H   0  0  0  0  0  0  0  0  0  0  0  0
   44.1730   32.1960   37.9540 H   0  0  0  0  0  0  0  0  0  0  0  0
   41.3740   33.7540   37.2630 O   0  0  0  0  0  0  0  0  0  0  0  0
   41.2610   34.3250   38.0800 H   0  0  0  0  0  0  0  0  0  0  0  0
   43.9880   33.9220   36.7850 O   0  0  0  0  0  0  0  0  0  0  0  0
   43.2570   34.3040   36.2690 H   0  0  0  0  0  0  0  0  0  0  0  0
   36.3770   30.8090   39.7440 C   0  0  0  0  0  0  0  0  0  0  0  0
   35.7500   31.5940   39.2240 H   0  0  0  0  0  0  0  0  0  0  0  0
   36.0480   30.8320   40.7930 H   0  0  0  0  0  0  0  0  0  0  0  0
   36.1340   29.5090   39.1060 C   0  0  0  0  0  0  0  0  0  0  0  0
   35.4910   29.3230   37.9070 C   0  0  0  0  0  0  0  0  0  0  0  0
   35.2980   28.0700   37.3580 C   0  0  0  0  0  0  0  0  0  0  0  0
   35.7760   26.9690   38.0600 C   0  0  0  0  0  0  0  0  0  0  0  0
   36.4320   27.1520   39.2830 C   0  0  0  0  0  0  0  0  0  0  0  0
   36.6140   28.4310   39.8110 C   0  0  0  0  0  0  0  0  0  0  0  0
   35.1730   30.2700   37.4760 H   0  0  0  0  0  0  0  0  0  0  0  0
   34.7790   28.0560   36.4110 H   0  0  0  0  0  0  0  0  0  0  0  0
   35.5490   26.0660   37.5070 H   0  0  0  0  0  0  0  0  0  0  0  0
   36.6940   26.1440   39.6050 H   0  0  0  0  0  0  0  0  0  0  0  0
   39.4170   28.4640   40.3710 F   0  0  0  0  0  0  0  0  0  0  0  0
   38.6450   28.1370   41.4300 C   0  0  0  0  0  0  0  0  0  0  0  0
   37.3090   28.1500   41.0570 C   0  0  0  0  0  0  0  0  0  0  0  0
   36.3460   27.8340   42.0290 C   0  0  0  0  0  0  0  0  0  0  0  0
   35.2600   27.7890   41.9350 H   0  0  0  0  0  0  0  0  0  0  0  0
   36.7210   27.5150   43.3380 C   0  0  0  0  0  0  0  0  0  0  0  0
   36.0410   27.2610   44.1360 H   0  0  0  0  0  0  0  0  0  0  0  0
   38.0570   27.5100   43.6760 C   0  0  0  0  0  3  0  0  0  0  0  0
   38.9980   27.8220   42.7210 C   0  0  0  0  0  3  0  0  0  0  0  0
  1  7  1  0  0  0  0
  2 23  1  0  0  0  0
  2  1  2  0  0  0  0
  3  2  1  0  0  0  0
  4  3  2  0  0  0  0
  4  5  1  0  0  0  0
  5  6  2  0  0  0  0
  6  1  1  0  0  0  0
  8  3  1  0  0  0  0
  9 14  1  6  0  0  0
  9 13  1  0  0  0  0
  9 10  1  0  0  0  0
 10  5  1  0  0  0  0
 10 15  1  1  0  0  0
 10 11  1  0  0  0  0
 12 11  1  0  0  0  0
 12 16  1  0  0  0  0
 13 18  1  1  0  0  0
 13 12  1  0  0  0  0
 17 12  1  0  0  0  0
 19  9  1  0  0  0  0
 19 20  1  0  0  0  0
 21 13  1  0  0  0  0
 22 21  1  0  0  0  0
 23 25  1  0  0  0  0
 24 23  1  0  0  0  0
 26 23  1  0  0  0  0
 26 31  1  0  0  0  0
 27 26  2  0  0  0  0
 28 27  1  0  0  0  0
 28 29  2  0  0  0  0
 29 30  1  0  0  0  0
 30 35  1  0  0  0  0
 30 31  2  0  0  0  0
 31 38  1  0  0  0  0
 32 27  1  0  0  0  0
 33 28  1  0  0  0  0
 34 29  1  0  0  0  0
 36 37  1  0  0  0  0
 37 44  1  0  0  0  0
 38 37  2  0  0  0  0
 38 39  1  0  0  0  0
 39 41  2  0  0  0  0
 40 39  1  0  0  0  0
 41 43  1  0  0  0  0
 41 42  1  0  0  0  0
 44 43  2  0  0  0  0
M  END
>  <minimizedAffinity>
-6.63791609

$$$$

 OpenBabel03252503483D

 44 47  0  0  1  0  0  0  0  0999 V2000
   39.1390   29.6380   41.2610 C   0  0  0  0  0  0  0  0  0  0  0  0
   37.8530   30.1780   41.2430 C   0  0  0  0  0  0  0  0  0  0  0  0
   37.7200   31.4360   40.6570 C   0  0  0  0  0  0  0  0  0  0  0  0
   38.7760   32.0930   40.1340 N   0  0  0  0  0  0  0  0  0  0  0  0
   40.0100   31.5270   40.1740 C   0  0  0  0  0  0  0  0  0  0  0  0
   40.1920   30.3100   40.7330 N   0  0  0  0  0  0  0  0  0  0  0  0
   39.2470   28.6720   41.7100 H   0  0  0  0  0  0  0  0  0  0  0  0
   36.8240   31.9830   40.6010 H   0  0  0  0  0  0  0  0  0  0  0  0
   41.0590   32.2520   38.0390 C   0  0  2  0  0  0  0  0  0  0  0  0
   41.1290   32.2620   39.5950 C   0  0  1  0  0  0  0  0  0  0  0  0
   41.1250   33.6010   39.7910 O   0  0  0  0  0  0  0  0  0  0  0  0
   42.0130   34.1610   38.9230 C   0  0  0  0  0  0  0  0  0  0  0  0
   42.2430   33.1980   37.7940 C   0  0  2  0  0  0  0  0  0  0  0  0
   41.2370   31.2500   37.6400 H   0  0  0  0  0  0  0  0  0  0  0  0
   42.1040   31.8220   39.8710 H   0  0  0  0  0  0  0  0  0  0  0  0
   42.9500   34.5350   39.3980 H   0  0  0  0  0  0  0  0  0  0  0  0
   41.5370   35.0790   38.4810 H   0  0  0  0  0  0  0  0  0  0  0  0
   43.1920   32.6600   38.0320 H   0  0  0  0  0  0  0  0  0  0  0  0
   39.9490   32.8850   37.6190 O   0  0  0  0  0  0  0  0  0  0  0  0
   39.7160   33.6020   38.2800 H   0  0  0  0  0  0  0  0  0  0  0  0
   42.2190   33.7790   36.5550 O   0  0  0  0  0  0  0  0  0  0  0  0
   41.3430   33.7140   36.1350 H   0  0  0  0  0  0  0  0  0  0  0  0
   36.7080   29.4780   41.7810 C   0  0  0  0  0  0  0  0  0  0  0  0
   35.7960   29.8600   41.2320 H   0  0  0  0  0  0  0  0  0  0  0  0
   36.5260   29.7220   42.8370 H   0  0  0  0  0  0  0  0  0  0  0  0
   36.8280   28.0320   41.5500 C   0  0  0  0  0  0  0  0  0  0  0  0
   37.2140   27.1090   42.4910 C   0  0  0  0  0  0  0  0  0  0  0  0
   37.3030   25.7590   42.2090 C   0  0  0  0  0  0  0  0  0  0  0  0
   36.9860   25.3390   40.9220 C   0  0  0  0  0  0  0  0  0  0  0  0
   36.5920   26.2760   39.9590 C   0  0  0  0  0  0  0  0  0  0  0  0
   36.5100   27.6320   40.2740 C   0  0  0  0  0  0  0  0  0  0  0  0
   37.4300   27.5820   43.4470 H   0  0  0  0  0  0  0  0  0  0  0  0
   37.6180   25.1360   43.0330 H   0  0  0  0  0  0  0  0  0  0  0  0
   37.1040   24.2640   40.8580 H   0  0  0  0  0  0  0  0  0  0  0  0
   36.4090   25.6830   39.0620 H   0  0  0  0  0  0  0  0  0  0  0  0
   34.0270   28.8760   39.5940 F   0  0  0  0  0  0  0  0  0  0  0  0
   34.9200   28.8310   38.5810 C   0  0  0  0  0  0  0  0  0  0  0  0
   36.0850   28.2140   39.0110 C   0  0  0  0  0  0  0  0  0  0  0  0
   37.1390   28.0720   38.0930 C   0  0  0  0  0  0  0  0  0  0  0  0
   38.1220   27.6220   38.2360 H   0  0  0  0  0  0  0  0  0  0  0  0
   37.0200   28.5420   36.7810 C   0  0  0  0  0  0  0  0  0  0  0  0
   37.7830   28.4700   36.0220 H   0  0  0  0  0  0  0  0  0  0  0  0
   35.8490   29.1510   36.3860 C   0  0  0  0  0  3  0  0  0  0  0  0
   34.8180   29.2880   37.2880 C   0  0  0  0  0  3  0  0  0  0  0  0
  1  7  1  0  0  0  0
  2  1  1  0  0  0  0
  2 23  1  0  0  0  0
  3  2  2  0  0  0  0
  4  5  2  0  0  0  0
  4  3  1  0  0  0  0
  5  6  1  0  0  0  0
  6  1  2  0  0  0  0
  8  3  1  0  0  0  0
  9 14  1  6  0  0  0
  9 10  1  0  0  0  0
 10 11  1  0  0  0  0
 10 15  1  1  0  0  0
 10  5  1  0  0  0  0
 12 16  1  0  0  0  0
 12 11  1  0  0  0  0
 13 18  1  1  0  0  0
 13  9  1  0  0  0  0
 13 12  1  0  0  0  0
 17 12  1  0  0  0  0
 19  9  1  0  0  0  0
 19 20  1  0  0  0  0
 21 13  1  0  0  0  0
 22 21  1  0  0  0  0
 23 25  1  0  0  0  0
 24 23  1  0  0  0  0
 26 23  1  0  0  0  0
 26 27  1  0  0  0  0
 27 32  1  0  0  0  0
 28 27  2  0  0  0  0
 28 33  1  0  0  0  0
 29 28  1  0  0  0  0
 30 31  1  0  0  0  0
 30 29  2  0  0  0  0
 31 26  2  0  0  0  0
 34 29  1  0  0  0  0
 35 30  1  0  0  0  0
 37 38  1  0  0  0  0
 37 36  1  0  0  0  0
 38 31  1  0  0  0  0
 39 40  1  0  0  0  0
 39 38  2  0  0  0  0
 41 39  1  0  0  0  0
 42 41  1  0  0  0  0
 43 41  2  0  0  0  0
 43 44  1  0  0  0  0
 44 37  2  0  0  0  0
M  END
>  <minimizedAffinity>
-6.52835751

$$$$

 OpenBabel03252503483D

 44 47  0  0  1  0  0  0  0  0999 V2000
   39.4090   31.1370   38.8110 C   0  0  0  0  0  0  0  0  0  0  0  0
   38.6970   31.7960   39.8130 C   0  0  0  0  0  0  0  0  0  0  0  0
   39.4030   32.7460   40.5490 C   0  0  0  0  0  0  0  0  0  0  0  0
   40.7020   33.0150   40.3040 N   0  0  0  0  0  0  0  0  0  0  0  0
   41.3550   32.3470   39.3170 C   0  0  0  0  0  0  0  0  0  0  0  0
   40.7150   31.4160   38.5770 N   0  0  0  0  0  0  0  0  0  0  0  0
   38.8710   30.4060   38.2420 H   0  0  0  0  0  0  0  0  0  0  0  0
   39.0120   33.2960   41.3560 H   0  0  0  0  0  0  0  0  0  0  0  0
   43.0880   32.6200   37.5550 C   0  0  2  0  0  0  0  0  0  0  0  0
   42.7570   32.6670   39.0750 C   0  0  1  0  0  0  0  0  0  0  0  0
   43.1270   33.9440   39.3260 O   0  0  0  0  0  0  0  0  0  0  0  0
   44.3380   34.1600   38.7390 C   0  0  0  0  0  0  0  0  0  0  0  0
   44.5310   33.1310   37.6610 C   0  0  2  0  0  0  0  0  0  0  0  0
   43.0350   31.5980   37.1670 H   0  0  0  0  0  0  0  0  0  0  0  0
   43.4380   31.9510   39.5700 H   0  0  0  0  0  0  0  0  0  0  0  0
   45.1910   34.2340   39.4520 H   0  0  0  0  0  0  0  0  0  0  0  0
   44.3060   35.1640   38.2330 H   0  0  0  0  0  0  0  0  0  0  0  0
   45.1670   32.3300   38.1080 H   0  0  0  0  0  0  0  0  0  0  0  0
   42.3810   33.5560   36.8960 O   0  0  0  0  0  0  0  0  0  0  0  0
   42.2260   34.3350   37.5080 H   0  0  0  0  0  0  0  0  0  0  0  0
   45.0100   33.6420   36.4850 O   0  0  0  0  0  0  0  0  0  0  0  0
   44.2960   33.8420   35.8550 H   0  0  0  0  0  0  0  0  0  0  0  0
   37.2990   31.5330   40.0750 C   0  0  0  0  0  0  0  0  0  0  0  0
   36.7810   31.4650   39.0710 H   0  0  0  0  0  0  0  0  0  0  0  0
   36.8050   32.3660   40.5940 H   0  0  0  0  0  0  0  0  0  0  0  0
   37.1340   30.2550   40.7790 C   0  0  0  0  0  0  0  0  0  0  0  0
   37.6600   29.9560   42.0120 C   0  0  0  0  0  0  0  0  0  0  0  0
   37.4640   28.7320   42.6230 C   0  0  0  0  0  0  0  0  0  0  0  0
   36.7040   27.7810   41.9510 C   0  0  0  0  0  0  0  0  0  0  0  0
   36.1650   28.0800   40.6930 C   0  0  0  0  0  0  0  0  0  0  0  0
   36.3800   29.3260   40.1020 C   0  0  0  0  0  0  0  0  0  0  0  0
   38.2290   30.7920   42.4140 H   0  0  0  0  0  0  0  0  0  0  0  0
   37.9290   28.6210   43.5920 H   0  0  0  0  0  0  0  0  0  0  0  0
   36.6420   26.8830   42.5520 H   0  0  0  0  0  0  0  0  0  0  0  0
   35.6290   27.1750   40.4050 H   0  0  0  0  0  0  0  0  0  0  0  0
   37.4150   29.1800   37.4410 F   0  0  0  0  0  0  0  0  0  0  0  0
   36.0680   29.1140   37.5160 C   0  0  0  0  0  0  0  0  0  0  0  0
   35.6680   29.1920   38.8410 C   0  0  0  0  0  0  0  0  0  0  0  0
   34.2930   29.1400   39.1240 C   0  0  0  0  0  0  0  0  0  0  0  0
   33.7850   29.1860   40.0880 H   0  0  0  0  0  0  0  0  0  0  0  0
   33.3510   29.0130   38.0980 C   0  0  0  0  0  0  0  0  0  0  0  0
   32.2820   28.9670   38.2370 H   0  0  0  0  0  0  0  0  0  0  0  0
   33.7820   28.9380   36.7910 C   0  0  0  0  0  3  0  0  0  0  0  0
   35.1300   28.9880   36.5180 C   0  0  0  0  0  3  0  0  0  0  0  0
  1  2  1  0  0  0  0
  2 23  1  0  0  0  0
  2  3  2  0  0  0  0
  3  8  1  0  0  0  0
  4  3  1  0  0  0  0
  5  4  2  0  0  0  0
  6  1  2  0  0  0  0
  6  5  1  0  0  0  0
  7  1  1  0  0  0  0
  9 14  1  6  0  0  0
  9 13  1  0  0  0  0
  9 10  1  0  0  0  0
 10  5  1  0  0  0  0
 10 11  1  0  0  0  0
 10 15  1  1  0  0  0
 12 11  1  0  0  0  0
 12 16  1  0  0  0  0
 13 18  1  1  0  0  0
 13 12  1  0  0  0  0
 17 12  1  0  0  0  0
 19 20  1  0  0  0  0
 19  9  1  0  0  0  0
 21 13  1  0  0  0  0
 22 21  1  0  0  0  0
 23 25  1  0  0  0  0
 23 26  1  0  0  0  0
 24 23  1  0  0  0  0
 26 27  1  0  0  0  0
 27 32  1  0  0  0  0
 27 28  2  0  0  0  0
 28 33  1  0  0  0  0
 29 34  1  0  0  0  0
 29 28  1  0  0  0  0
 30 29  2  0  0  0  0
 31 30  1  0  0  0  0
 31 26  2  0  0  0  0
 35 30  1  0  0  0  0
 36 37  1  0  0  0  0
 37 38  1  0  0  0  0
 38 39  2  0  0  0  0
 38 31  1  0  0  0  0
 39 40  1  0  0  0  0
 41 42  1  0  0  0  0
 41 39  1  0  0  0  0
 43 41  2  0  0  0  0
 44 43  1  0  0  0  0
 44 37  2  0  0  0  0
M  END
>  <minimizedAffinity>
-6.49837112

$$$$

 OpenBabel03252503483D

 44 47  0  0  1  0  0  0  0  0999 V2000
   39.0280   29.7120   41.3110 C   0  0  0  0  0  0  0  0  0  0  0  0
   37.7260   30.1680   41.1050 C   0  0  0  0  0  0  0  0  0  0  0  0
   37.5930   31.3470   40.3740 C   0  0  0  0  0  0  0  0  0  0  0  0
   38.6650   32.0090   39.8900 N   0  0  0  0  0  0  0  0  0  0  0  0
   39.9140   31.5270   40.1160 C   0  0  0  0  0  0  0  0  0  0  0  0
   40.0960   30.3890   40.8210 N   0  0  0  0  0  0  0  0  0  0  0  0
   39.1360   28.8070   41.8730 H   0  0  0  0  0  0  0  0  0  0  0  0
   36.6820   31.8300   40.1690 H   0  0  0  0  0  0  0  0  0  0  0  0
   41.0550   32.2180   38.0170 C   0  0  2  0  0  0  0  0  0  0  0  0
   41.0500   32.2640   39.5730 C   0  0  1  0  0  0  0  0  0  0  0  0
   41.0190   33.6070   39.7390 O   0  0  0  0  0  0  0  0  0  0  0  0
   41.9410   34.1600   38.9010 C   0  0  0  0  0  0  0  0  0  0  0  0
   42.2370   33.1740   37.8060 C   0  0  2  0  0  0  0  0  0  0  0  0
   41.2650   31.2090   37.6500 H   0  0  0  0  0  0  0  0  0  0  0  0
   42.0160   31.8440   39.9060 H   0  0  0  0  0  0  0  0  0  0  0  0
   42.8490   34.5570   39.4110 H   0  0  0  0  0  0  0  0  0  0  0  0
   41.4750   35.0610   38.4160 H   0  0  0  0  0  0  0  0  0  0  0  0
   43.1800   32.6560   38.1020 H   0  0  0  0  0  0  0  0  0  0  0  0
   39.9580   32.8260   37.5300 O   0  0  0  0  0  0  0  0  0  0  0  0
   39.6850   33.5550   38.1620 H   0  0  0  0  0  0  0  0  0  0  0  0
   42.2660   33.7270   36.5550 O   0  0  0  0  0  0  0  0  0  0  0  0
   41.4120   33.6400   36.0950 H   0  0  0  0  0  0  0  0  0  0  0  0
   36.5670   29.4590   41.6010 C   0  0  0  0  0  0  0  0  0  0  0  0
   35.6720   29.8410   41.0230 H   0  0  0  0  0  0  0  0  0  0  0  0
   36.3480   29.6960   42.6510 H   0  0  0  0  0  0  0  0  0  0  0  0
   36.7010   28.0150   41.3660 C   0  0  0  0  0  0  0  0  0  0  0  0
   37.0030   27.0820   42.3270 C   0  0  0  0  0  0  0  0  0  0  0  0
   37.1110   25.7340   42.0400 C   0  0  0  0  0  0  0  0  0  0  0  0
   36.9050   25.3280   40.7260 C   0  0  0  0  0  0  0  0  0  0  0  0
   36.5970   26.2760   39.7430 C   0  0  0  0  0  0  0  0  0  0  0  0
   36.4930   27.6300   40.0630 C   0  0  0  0  0  0  0  0  0  0  0  0
   37.1370   27.5440   43.3020 H   0  0  0  0  0  0  0  0  0  0  0  0
   37.3520   25.1010   42.8810 H   0  0  0  0  0  0  0  0  0  0  0  0
   37.0240   24.2540   40.6610 H   0  0  0  0  0  0  0  0  0  0  0  0
   36.4900   25.6930   38.8270 H   0  0  0  0  0  0  0  0  0  0  0  0
   38.2530   28.7440   38.1050 F   0  0  0  0  0  0  0  0  0  0  0  0
   36.9460   28.7880   37.7650 C   0  0  0  0  0  0  0  0  0  0  0  0
   36.1800   28.2260   38.7740 C   0  0  0  0  0  0  0  0  0  0  0  0
   34.7870   28.1800   38.6040 C   0  0  0  0  0  0  0  0  0  0  0  0
   34.0230   27.7830   39.2730 H   0  0  0  0  0  0  0  0  0  0  0  0
   34.1860   28.6860   37.4470 C   0  0  0  0  0  0  0  0  0  0  0  0
   33.1260   28.6860   37.2450 H   0  0  0  0  0  0  0  0  0  0  0  0
   34.9750   29.2390   36.4620 C   0  0  0  0  0  3  0  0  0  0  0  0
   36.3400   29.2810   36.6330 C   0  0  0  0  0  3  0  0  0  0  0  0
  1  7  1  0  0  0  0
  2  1  1  0  0  0  0
  2 23  1  0  0  0  0
  3  2  2  0  0  0  0
  4  5  2  0  0  0  0
  4  3  1  0  0  0  0
  5  6  1  0  0  0  0
  6  1  2  0  0  0  0
  8  3  1  0  0  0  0
  9 14  1  6  0  0  0
  9 10  1  0  0  0  0
 10 11  1  0  0  0  0
 10 15  1  1  0  0  0
 10  5  1  0  0  0  0
 12 16  1  0  0  0  0
 12 11  1  0  0  0  0
 13  9  1  0  0  0  0
 13 18  1  1  0  0  0
 13 12  1  0  0  0  0
 17 12  1  0  0  0  0
 19  9  1  0  0  0  0
 19 20  1  0  0  0  0
 21 13  1  0  0  0  0
 22 21  1  0  0  0  0
 23 25  1  0  0  0  0
 24 23  1  0  0  0  0
 26 23  1  0  0  0  0
 26 27  1  0  0  0  0
 27 32  1  0  0  0  0
 28 27  2  0  0  0  0
 28 33  1  0  0  0  0
 29 28  1  0  0  0  0
 30 31  1  0  0  0  0
 30 29  2  0  0  0  0
 31 26  2  0  0  0  0
 34 29  1  0  0  0  0
 35 30  1  0  0  0  0
 37 36  1  0  0  0  0
 37 38  1  0  0  0  0
 38 31  1  0  0  0  0
 39 38  2  0  0  0  0
 39 40  1  0  0  0  0
 41 39  1  0  0  0  0
 42 41  1  0  0  0  0
 43 44  1  0  0  0  0
 43 41  2  0  0  0  0
 44 37  2  0  0  0  0
M  END
>  <minimizedAffinity>
-6.40905237

$$$$
