
 OpenBabel03252508323D

 32 34  0  0  1  0  0  0  0  0999 V2000
   45.1630   34.2320   41.9920 N   0  0  0  0  0  0  0  0  0  0  0  0
   46.1540   33.4150   41.3470 C   0  0  1  0  0  0  0  0  0  0  0  0
   46.0720   33.4290   39.8560 C   0  0  0  0  0  0  0  0  0  0  0  0
   44.7790   33.4440   39.2970 N   0  0  0  0  0  0  0  0  0  0  0  0
   43.7420   34.0620   40.0180 C   0  0  0  0  0  0  0  0  0  0  0  0
   44.3160   34.9650   41.0990 C   0  0  0  0  0  0  0  0  0  0  0  0
   46.0780   32.3810   41.7370 H   0  0  0  0  0  0  0  0  0  0  0  0
   46.6380   34.3160   39.4820 H   0  0  0  0  0  0  0  0  0  0  0  0
   46.6620   32.5450   39.4980 H   0  0  0  0  0  0  0  0  0  0  0  0
   44.5060   32.6420   38.7140 H   0  0  0  0  0  0  0  0  0  0  0  0
   43.1610   33.2690   40.5450 H   0  0  0  0  0  0  0  0  0  0  0  0
   43.0230   34.6370   39.4300 H   0  0  0  0  0  0  0  0  0  0  0  0
   44.8440   35.7810   40.5660 H   0  0  0  0  0  0  0  0  0  0  0  0
   43.4540   35.3930   41.6270 H   0  0  0  0  0  0  0  0  0  0  0  0
   44.6720   35.3960   44.0090 C   0  0  0  0  0  0  0  0  0  0  0  0
   45.1310   34.2270   43.4090 C   0  0  0  0  0  0  0  0  0  0  0  0
   45.5060   33.1850   44.2380 C   0  0  0  0  0  0  0  0  0  0  0  0
   45.4210   33.3190   45.5900 N   0  0  0  0  0  0  0  0  0  0  0  0
   44.9680   34.4760   46.1400 C   0  0  0  0  0  0  0  0  0  0  0  0
   44.5980   35.5020   45.3460 N   0  0  0  0  0  0  0  0  0  0  0  0
   44.3360   36.3190   43.5660 H   0  0  0  0  0  0  0  0  0  0  0  0
   45.8570   32.2870   43.7520 H   0  0  0  0  0  0  0  0  0  0  0  0
   44.9480   34.4600   47.2300 H   0  0  0  0  0  0  0  0  0  0  0  0
   48.2360   32.0250   42.7340 F   0  0  0  0  0  0  0  0  0  0  0  0
   48.4880   33.3160   42.3670 C   0  0  0  0  0  0  0  0  0  0  0  0
   47.4970   34.0020   41.6980 C   0  0  0  0  0  0  0  0  0  0  0  0
   47.8210   35.2910   41.3620 C   0  0  0  0  0  0  0  0  0  0  0  0
   47.1470   35.9280   40.8450 H   0  0  0  0  0  0  0  0  0  0  0  0
   49.0420   35.8790   41.6630 C   0  0  0  0  0  0  0  0  0  0  0  0
   49.2730   36.9060   41.3850 H   0  0  0  0  0  0  0  0  0  0  0  0
   49.9890   35.1290   42.3370 C   0  0  0  0  0  3  0  0  0  0  0  0
   49.6990   33.8440   42.6850 C   0  0  0  0  0  3  0  0  0  0  0  0
  1 16  1  0  0  0  0
  2 26  1  0  0  0  0
  2  7  1  1  0  0  0
  2  1  1  0  0  0  0
  3  2  1  0  0  0  0
  4  3  1  0  0  0  0
  4  5  1  0  0  0  0
  5 11  1  0  0  0  0
  5  6  1  0  0  0  0
  6 14  1  0  0  0  0
  6  1  1  0  0  0  0
  8  3  1  0  0  0  0
  9  3  1  0  0  0  0
 10  4  1  0  0  0  0
 12  5  1  0  0  0  0
 13  6  1  0  0  0  0
 15 20  1  0  0  0  0
 16 15  2  0  0  0  0
 16 17  1  0  0  0  0
 17 18  2  0  0  0  0
 18 19  1  0  0  0  0
 19 23  1  0  0  0  0
 20 19  2  0  0  0  0
 21 15  1  0  0  0  0
 22 17  1  0  0  0  0
 25 32  1  0  0  0  0
 25 24  1  0  0  0  0
 26 25  2  0  0  0  0
 27 29  2  0  0  0  0
 27 26  1  0  0  0  0
 28 27  1  0  0  0  0
 29 31  1  0  0  0  0
 30 29  1  0  0  0  0
 31 32  2  0  0  0  0
M  END
>  <minimizedAffinity>
-5.52034426

>  <minimizedRMSD>
1.95402026

$$$$
