
 OpenBabel03252508333D

 32 34  0  0  1  0  0  0  0  0999 V2000
   38.1630   30.5910   40.8400 N   0  0  0  0  0  0  0  0  0  0  0  0
   36.9000   31.1650   40.4680 C   0  0  1  0  0  0  0  0  0  0  0  0
   37.0040   32.5450   39.9060 C   0  0  0  0  0  0  0  0  0  0  0  0
   37.9540   33.3970   40.5030 N   0  0  0  0  0  0  0  0  0  0  0  0
   39.1100   32.8260   41.0640 C   0  0  0  0  0  0  0  0  0  0  0  0
   39.3020   31.4090   40.5490 C   0  0  0  0  0  0  0  0  0  0  0  0
   36.2230   31.1470   41.3450 H   0  0  0  0  0  0  0  0  0  0  0  0
   37.2260   32.4630   38.8150 H   0  0  0  0  0  0  0  0  0  0  0  0
   35.9740   32.9850   39.9520 H   0  0  0  0  0  0  0  0  0  0  0  0
   37.6030   34.2480   40.9610 H   0  0  0  0  0  0  0  0  0  0  0  0
   38.9600   32.7440   42.1670 H   0  0  0  0  0  0  0  0  0  0  0  0
   40.0400   33.3800   40.9170 H   0  0  0  0  0  0  0  0  0  0  0  0
   39.5070   31.5040   39.4640 H   0  0  0  0  0  0  0  0  0  0  0  0
   40.2050   31.0260   41.0420 H   0  0  0  0  0  0  0  0  0  0  0  0
   37.5600   29.2330   42.6990 C   0  0  0  0  0  0  0  0  0  0  0  0
   38.1480   29.3070   41.4400 C   0  0  0  0  0  0  0  0  0  0  0  0
   38.6540   28.1390   40.8990 C   0  0  0  0  0  0  0  0  0  0  0  0
   38.5700   26.9690   41.5910 N   0  0  0  0  0  0  0  0  0  0  0  0
   37.9890   26.9360   42.8190 C   0  0  0  0  0  0  0  0  0  0  0  0
   37.4900   28.0660   43.3610 N   0  0  0  0  0  0  0  0  0  0  0  0
   37.1120   30.0040   43.3040 H   0  0  0  0  0  0  0  0  0  0  0  0
   39.1040   28.2180   39.9210 H   0  0  0  0  0  0  0  0  0  0  0  0
   37.9830   25.9430   43.2700 H   0  0  0  0  0  0  0  0  0  0  0  0
   34.8270   29.2200   40.8010 F   0  0  0  0  0  0  0  0  0  0  0  0
   35.3390   29.3710   39.5450 C   0  0  0  0  0  0  0  0  0  0  0  0
   36.3390   30.3050   39.3650 C   0  0  0  0  0  0  0  0  0  0  0  0
   36.8040   30.4020   38.0800 C   0  0  0  0  0  0  0  0  0  0  0  0
   37.5740   31.0810   37.8060 H   0  0  0  0  0  0  0  0  0  0  0  0
   36.3230   29.6330   37.0280 C   0  0  0  0  0  0  0  0  0  0  0  0
   36.7120   29.7300   36.0160 H   0  0  0  0  0  0  0  0  0  0  0  0
   35.3200   28.7170   37.2840 C   0  0  0  0  0  3  0  0  0  0  0  0
   34.8350   28.5950   38.5510 C   0  0  0  0  0  3  0  0  0  0  0  0
  1 16  1  0  0  0  0
  2  1  1  0  0  0  0
  2  7  1  1  0  0  0
  3  9  1  0  0  0  0
  3  2  1  0  0  0  0
  3  4  1  0  0  0  0
  4 10  1  0  0  0  0
  4  5  1  0  0  0  0
  5 11  1  0  0  0  0
  6  1  1  0  0  0  0
  6 14  1  0  0  0  0
  6  5  1  0  0  0  0
  8  3  1  0  0  0  0
 12  5  1  0  0  0  0
 13  6  1  0  0  0  0
 15 21  1  0  0  0  0
 15 20  1  0  0  0  0
 16 15  2  0  0  0  0
 17 16  1  0  0  0  0
 17 18  2  0  0  0  0
 18 19  1  0  0  0  0
 19 23  1  0  0  0  0
 19 20  2  0  0  0  0
 22 17  1  0  0  0  0
 25 24  1  0  0  0  0
 26 25  1  0  0  0  0
 26  2  1  0  0  0  0
 27 26  2  0  0  0  0
 28 27  1  0  0  0  0
 29 31  2  0  0  0  0
 29 27  1  0  0  0  0
 30 29  1  0  0  0  0
 31 32  1  0  0  0  0
 32 25  2  0  0  0  0
M  END
>  <minimizedAffinity>
-5.40152836

$$$$

 OpenBabel03252508333D

 32 34  0  0  1  0  0  0  0  0999 V2000
   38.2550   30.5740   40.9250 N   0  0  0  0  0  0  0  0  0  0  0  0
   36.9890   31.2090   40.6830 C   0  0  1  0  0  0  0  0  0  0  0  0
   37.1000   32.5800   40.1010 C   0  0  0  0  0  0  0  0  0  0  0  0
   38.1480   33.3870   40.5880 N   0  0  0  0  0  0  0  0  0  0  0  0
   39.3270   32.7620   41.0290 C   0  0  0  0  0  0  0  0  0  0  0  0
   39.3960   31.3340   40.5080 C   0  0  0  0  0  0  0  0  0  0  0  0
   36.4080   31.2270   41.6260 H   0  0  0  0  0  0  0  0  0  0  0  0
   37.2020   32.4840   38.9940 H   0  0  0  0  0  0  0  0  0  0  0  0
   36.1030   33.0700   40.2520 H   0  0  0  0  0  0  0  0  0  0  0  0
   37.8900   34.2550   41.0740 H   0  0  0  0  0  0  0  0  0  0  0  0
   39.2910   32.6900   42.1420 H   0  0  0  0  0  0  0  0  0  0  0  0
   40.2630   33.2680   40.7800 H   0  0  0  0  0  0  0  0  0  0  0  0
   39.4880   31.4160   39.4070 H   0  0  0  0  0  0  0  0  0  0  0  0
   40.3260   30.9100   40.9070 H   0  0  0  0  0  0  0  0  0  0  0  0
   37.7550   29.2480   42.8360 C   0  0  0  0  0  0  0  0  0  0  0  0
   38.2410   29.2950   41.5340 C   0  0  0  0  0  0  0  0  0  0  0  0
   38.6590   28.1060   40.9620 C   0  0  0  0  0  0  0  0  0  0  0  0
   38.5880   26.9430   41.6670 N   0  0  0  0  0  0  0  0  0  0  0  0
   38.1060   26.9380   42.9380 C   0  0  0  0  0  0  0  0  0  0  0  0
   37.6950   28.0880   43.5110 N   0  0  0  0  0  0  0  0  0  0  0  0
   37.3850   30.0390   43.4690 H   0  0  0  0  0  0  0  0  0  0  0  0
   39.0310   28.1640   39.9500 H   0  0  0  0  0  0  0  0  0  0  0  0
   38.1000   25.9480   43.3960 H   0  0  0  0  0  0  0  0  0  0  0  0
   37.7220   31.0310   37.9220 F   0  0  0  0  0  0  0  0  0  0  0  0
   36.6420   30.3010   38.3250 C   0  0  0  0  0  0  0  0  0  0  0  0
   36.2730   30.3740   39.6520 C   0  0  0  0  0  0  0  0  0  0  0  0
   35.1820   29.6150   39.9840 C   0  0  0  0  0  0  0  0  0  0  0  0
   34.7930   29.5830   40.9720 H   0  0  0  0  0  0  0  0  0  0  0  0
   34.4870   28.8300   39.0740 C   0  0  0  0  0  0  0  0  0  0  0  0
   33.6210   28.2370   39.3650 H   0  0  0  0  0  0  0  0  0  0  0  0
   34.9140   28.8060   37.7590 C   0  0  0  0  0  3  0  0  0  0  0  0
   35.9970   29.5490   37.3960 C   0  0  0  0  0  3  0  0  0  0  0  0
  1 16  1  0  0  0  0
  2  1  1  0  0  0  0
  2  7  1  1  0  0  0
  3  9  1  0  0  0  0
  3  4  1  0  0  0  0
  3  2  1  0  0  0  0
  4  5  1  0  0  0  0
  4 10  1  0  0  0  0
  5 11  1  0  0  0  0
  6 14  1  0  0  0  0
  6  1  1  0  0  0  0
  6  5  1  0  0  0  0
  8  3  1  0  0  0  0
 12  5  1  0  0  0  0
 13  6  1  0  0  0  0
 15 21  1  0  0  0  0
 15 20  1  0  0  0  0
 16 15  2  0  0  0  0
 17 16  1  0  0  0  0
 17 18  2  0  0  0  0
 18 19  1  0  0  0  0
 19 23  1  0  0  0  0
 19 20  2  0  0  0  0
 22 17  1  0  0  0  0
 24 25  1  0  0  0  0
 25 26  1  0  0  0  0
 26 27  2  0  0  0  0
 26  2  1  0  0  0  0
 27 28  1  0  0  0  0
 29 30  1  0  0  0  0
 29 27  1  0  0  0  0
 31 29  2  0  0  0  0
 32 31  1  0  0  0  0
 32 25  2  0  0  0  0
M  END
>  <minimizedAffinity>
-5.35685492

$$$$

 OpenBabel03252508333D

 32 34  0  0  1  0  0  0  0  0999 V2000
   38.9830   30.3410   39.0480 N   0  0  0  0  0  0  0  0  0  0  0  0
   37.8560   31.1620   38.7030 C   0  0  1  0  0  0  0  0  0  0  0  0
   37.9650   31.8070   37.3610 C   0  0  0  0  0  0  0  0  0  0  0  0
   39.2420   32.2690   36.9860 N   0  0  0  0  0  0  0  0  0  0  0  0
   40.3720   31.5980   37.4870 C   0  0  0  0  0  0  0  0  0  0  0  0
   39.9790   30.2300   38.0240 C   0  0  0  0  0  0  0  0  0  0  0  0
   37.7080   31.9230   39.4960 H   0  0  0  0  0  0  0  0  0  0  0  0
   37.6020   31.0820   36.5930 H   0  0  0  0  0  0  0  0  0  0  0  0
   37.2100   32.6370   37.3460 H   0  0  0  0  0  0  0  0  0  0  0  0
   39.3520   33.2780   36.8250 H   0  0  0  0  0  0  0  0  0  0  0  0
   40.7670   32.1770   38.3560 H   0  0  0  0  0  0  0  0  0  0  0  0
   41.2050   31.4730   36.7920 H   0  0  0  0  0  0  0  0  0  0  0  0
   39.6420   29.6430   37.1470 H   0  0  0  0  0  0  0  0  0  0  0  0
   40.9020   29.7800   38.4120 H   0  0  0  0  0  0  0  0  0  0  0  0
   39.0900   30.6150   41.4090 C   0  0  0  0  0  0  0  0  0  0  0  0
   38.9890   29.7400   40.3320 C   0  0  0  0  0  0  0  0  0  0  0  0
   38.9040   28.3880   40.6090 C   0  0  0  0  0  0  0  0  0  0  0  0
   38.9210   27.9490   41.8980 N   0  0  0  0  0  0  0  0  0  0  0  0
   39.0210   28.8330   42.9250 C   0  0  0  0  0  0  0  0  0  0  0  0
   39.1050   30.1560   42.6720 N   0  0  0  0  0  0  0  0  0  0  0  0
   39.1700   31.6900   41.4280 H   0  0  0  0  0  0  0  0  0  0  0  0
   38.8250   27.7270   39.7590 H   0  0  0  0  0  0  0  0  0  0  0  0
   39.0240   28.3600   43.9070 H   0  0  0  0  0  0  0  0  0  0  0  0
   35.9090   30.8540   40.7780 F   0  0  0  0  0  0  0  0  0  0  0  0
   35.7300   30.1140   39.6450 C   0  0  0  0  0  0  0  0  0  0  0  0
   36.6580   30.2500   38.6340 C   0  0  0  0  0  0  0  0  0  0  0  0
   36.4140   29.4780   37.5280 C   0  0  0  0  0  0  0  0  0  0  0  0
   37.0530   29.4870   36.6790 H   0  0  0  0  0  0  0  0  0  0  0  0
   35.3280   28.6210   37.4140 C   0  0  0  0  0  0  0  0  0  0  0  0
   35.1580   28.0180   36.5230 H   0  0  0  0  0  0  0  0  0  0  0  0
   34.4380   28.5370   38.4690 C   0  0  0  0  0  3  0  0  0  0  0  0
   34.6510   29.2910   39.5830 C   0  0  0  0  0  3  0  0  0  0  0  0
  1 16  1  0  0  0  0
  2  1  1  0  0  0  0
  2  7  1  1  0  0  0
  3  2  1  0  0  0  0
  4  3  1  0  0  0  0
  4  5  1  0  0  0  0
  5  6  1  0  0  0  0
  5 11  1  0  0  0  0
  6 14  1  0  0  0  0
  6  1  1  0  0  0  0
  8  3  1  0  0  0  0
  9  3  1  0  0  0  0
 10  4  1  0  0  0  0
 12  5  1  0  0  0  0
 13  6  1  0  0  0  0
 15 21  1  0  0  0  0
 15 20  1  0  0  0  0
 16 17  1  0  0  0  0
 16 15  2  0  0  0  0
 17 18  2  0  0  0  0
 18 19  1  0  0  0  0
 19 23  1  0  0  0  0
 20 19  2  0  0  0  0
 22 17  1  0  0  0  0
 25 24  1  0  0  0  0
 26  2  1  0  0  0  0
 26 25  2  0  0  0  0
 27 26  1  0  0  0  0
 28 27  1  0  0  0  0
 29 27  2  0  0  0  0
 29 31  1  0  0  0  0
 30 29  1  0  0  0  0
 31 32  2  0  0  0  0
 32 25  1  0  0  0  0
M  END
>  <minimizedAffinity>
-5.05967426

$$$$

 OpenBabel03252508333D

 32 34  0  0  1  0  0  0  0  0999 V2000
   38.2210   29.4220   40.9610 N   0  0  0  0  0  0  0  0  0  0  0  0
   37.0190   28.9000   41.5500 C   0  0  1  0  0  0  0  0  0  0  0  0
   35.7700   29.5520   41.0560 C   0  0  0  0  0  0  0  0  0  0  0  0
   35.8310   30.9410   40.8310 N   0  0  0  0  0  0  0  0  0  0  0  0
   37.0620   31.5060   40.4530 C   0  0  0  0  0  0  0  0  0  0  0  0
   38.0100   30.4250   39.9590 C   0  0  0  0  0  0  0  0  0  0  0  0
   37.0950   28.9780   42.6530 H   0  0  0  0  0  0  0  0  0  0  0  0
   35.4600   29.0450   40.1100 H   0  0  0  0  0  0  0  0  0  0  0  0
   34.9640   29.2920   41.7920 H   0  0  0  0  0  0  0  0  0  0  0  0
   35.2150   31.5400   41.3970 H   0  0  0  0  0  0  0  0  0  0  0  0
   37.5360   31.9530   41.3590 H   0  0  0  0  0  0  0  0  0  0  0  0
   37.0170   32.2990   39.7030 H   0  0  0  0  0  0  0  0  0  0  0  0
   37.5600   30.0260   39.0290 H   0  0  0  0  0  0  0  0  0  0  0  0
   38.9470   30.9360   39.7040 H   0  0  0  0  0  0  0  0  0  0  0  0
   40.2910   28.3700   40.4420 C   0  0  0  0  0  0  0  0  0  0  0  0
   39.4560   28.9020   41.4200 C   0  0  0  0  0  0  0  0  0  0  0  0
   39.9020   28.8730   42.7290 C   0  0  0  0  0  0  0  0  0  0  0  0
   41.1190   28.3410   43.0290 N   0  0  0  0  0  0  0  0  0  0  0  0
   41.9070   27.8310   42.0460 C   0  0  0  0  0  0  0  0  0  0  0  0
   41.4870   27.8500   40.7640 N   0  0  0  0  0  0  0  0  0  0  0  0
   40.1490   28.2850   39.3770 H   0  0  0  0  0  0  0  0  0  0  0  0
   39.2400   29.2920   43.4720 H   0  0  0  0  0  0  0  0  0  0  0  0
   42.8550   27.4330   42.4110 H   0  0  0  0  0  0  0  0  0  0  0  0
   37.4490   26.6730   43.2940 F   0  0  0  0  0  0  0  0  0  0  0  0
   37.1380   26.3910   41.9960 C   0  0  0  0  0  0  0  0  0  0  0  0
   36.9270   27.4520   41.1400 C   0  0  0  0  0  0  0  0  0  0  0  0
   36.6190   27.0950   39.8540 C   0  0  0  0  0  0  0  0  0  0  0  0
   36.4330   27.8150   39.0950 H   0  0  0  0  0  0  0  0  0  0  0  0
   36.5220   25.7780   39.4240 C   0  0  0  0  0  0  0  0  0  0  0  0
   36.2760   25.5220   38.3940 H   0  0  0  0  0  0  0  0  0  0  0  0
   36.7480   24.7660   40.3380 C   0  0  0  0  0  3  0  0  0  0  0  0
   37.0570   25.0870   41.6260 C   0  0  0  0  0  3  0  0  0  0  0  0
  1 16  1  0  0  0  0
  1  2  1  0  0  0  0
  2  7  1  1  0  0  0
  3  2  1  0  0  0  0
  3  9  1  0  0  0  0
  4  3  1  0  0  0  0
  4 10  1  0  0  0  0
  5  4  1  0  0  0  0
  5 11  1  0  0  0  0
  6  5  1  0  0  0  0
  6  1  1  0  0  0  0
  8  3  1  0  0  0  0
 12  5  1  0  0  0  0
 13  6  1  0  0  0  0
 14  6  1  0  0  0  0
 15 20  2  0  0  0  0
 15 16  1  0  0  0  0
 16 17  2  0  0  0  0
 17 18  1  0  0  0  0
 17 22  1  0  0  0  0
 19 23  1  0  0  0  0
 19 18  2  0  0  0  0
 20 19  1  0  0  0  0
 21 15  1  0  0  0  0
 25 24  1  0  0  0  0
 26  2  1  0  0  0  0
 26 25  2  0  0  0  0
 27 26  1  0  0  0  0
 28 27  1  0  0  0  0
 29 27  2  0  0  0  0
 29 31  1  0  0  0  0
 30 29  1  0  0  0  0
 31 32  2  0  0  0  0
 32 25  1  0  0  0  0
M  END
>  <minimizedAffinity>
-4.98379612

$$$$

 OpenBabel03252508333D

 32 34  0  0  1  0  0  0  0  0999 V2000
   39.0940   27.4760   42.2280 N   0  0  0  0  0  0  0  0  0  0  0  0
   37.9170   26.8260   42.7350 C   0  0  1  0  0  0  0  0  0  0  0  0
   36.7360   27.7290   42.8700 C   0  0  0  0  0  0  0  0  0  0  0  0
   36.9950   29.0410   43.3150 N   0  0  0  0  0  0  0  0  0  0  0  0
   38.2370   29.6230   43.0040 C   0  0  0  0  0  0  0  0  0  0  0  0
   38.9140   28.8540   41.8790 C   0  0  0  0  0  0  0  0  0  0  0  0
   38.1600   26.3460   43.7040 H   0  0  0  0  0  0  0  0  0  0  0  0
   36.2170   27.7780   41.8820 H   0  0  0  0  0  0  0  0  0  0  0  0
   36.0110   27.2050   43.5450 H   0  0  0  0  0  0  0  0  0  0  0  0
   36.5730   29.3290   44.2070 H   0  0  0  0  0  0  0  0  0  0  0  0
   38.9020   29.5290   43.8950 H   0  0  0  0  0  0  0  0  0  0  0  0
   38.2190   30.6830   42.7390 H   0  0  0  0  0  0  0  0  0  0  0  0
   38.2770   28.9990   40.9840 H   0  0  0  0  0  0  0  0  0  0  0  0
   39.8770   29.3510   41.7080 H   0  0  0  0  0  0  0  0  0  0  0  0
   40.8330   26.2850   43.3320 C   0  0  0  0  0  0  0  0  0  0  0  0
   40.2780   26.7040   42.1270 C   0  0  0  0  0  0  0  0  0  0  0  0
   40.9230   26.3330   40.9610 C   0  0  0  0  0  0  0  0  0  0  0  0
   42.0590   25.5840   41.0130 N   0  0  0  0  0  0  0  0  0  0  0  0
   42.5720   25.1940   42.2090 C   0  0  0  0  0  0  0  0  0  0  0  0
   41.9550   25.5480   43.3570 N   0  0  0  0  0  0  0  0  0  0  0  0
   40.5080   26.4580   44.3460 H   0  0  0  0  0  0  0  0  0  0  0  0
   40.4750   26.6660   40.0370 H   0  0  0  0  0  0  0  0  0  0  0  0
   43.4820   24.6010   42.1200 H   0  0  0  0  0  0  0  0  0  0  0  0
   38.4130   24.0200   43.0090 F   0  0  0  0  0  0  0  0  0  0  0  0
   37.7780   24.4290   41.8730 C   0  0  0  0  0  0  0  0  0  0  0  0
   37.5290   25.7780   41.7230 C   0  0  0  0  0  0  0  0  0  0  0  0
   36.8890   26.1140   40.5590 C   0  0  0  0  0  0  0  0  0  0  0  0
   36.6390   27.1190   40.3200 H   0  0  0  0  0  0  0  0  0  0  0  0
   36.5110   25.1890   39.5950 C   0  0  0  0  0  0  0  0  0  0  0  0
   36.0030   25.4850   38.6780 H   0  0  0  0  0  0  0  0  0  0  0  0
   36.7930   23.8540   39.8130 C   0  0  0  0  0  3  0  0  0  0  0  0
   37.4300   23.4850   40.9600 C   0  0  0  0  0  3  0  0  0  0  0  0
  1  2  1  0  0  0  0
  2  3  1  0  0  0  0
  2  7  1  1  0  0  0
  3  4  1  0  0  0  0
  3  9  1  0  0  0  0
  4 10  1  0  0  0  0
  5  4  1  0  0  0  0
  5 11  1  0  0  0  0
  6  1  1  0  0  0  0
  6  5  1  0  0  0  0
  8  3  1  0  0  0  0
 12  5  1  0  0  0  0
 13  6  1  0  0  0  0
 14  6  1  0  0  0  0
 15 20  1  0  0  0  0
 15 21  1  0  0  0  0
 16  1  1  0  0  0  0
 16 15  2  0  0  0  0
 17 18  2  0  0  0  0
 17 16  1  0  0  0  0
 18 19  1  0  0  0  0
 19 20  2  0  0  0  0
 22 17  1  0  0  0  0
 23 19  1  0  0  0  0
 25 24  1  0  0  0  0
 26 25  1  0  0  0  0
 26  2  1  0  0  0  0
 27 26  2  0  0  0  0
 28 27  1  0  0  0  0
 29 31  2  0  0  0  0
 29 27  1  0  0  0  0
 30 29  1  0  0  0  0
 31 32  1  0  0  0  0
 32 25  2  0  0  0  0
M  END
>  <minimizedAffinity>
-4.88324356

$$$$

 OpenBabel03252508333D

 32 34  0  0  1  0  0  0  0  0999 V2000
   38.7270   27.7830   41.6720 N   0  0  0  0  0  0  0  0  0  0  0  0
   37.4000   27.3830   42.0520 C   0  0  1  0  0  0  0  0  0  0  0  0
   36.3570   28.4180   41.7880 C   0  0  0  0  0  0  0  0  0  0  0  0
   36.7240   29.7570   42.0280 N   0  0  0  0  0  0  0  0  0  0  0  0
   38.0720   30.1240   41.8630 C   0  0  0  0  0  0  0  0  0  0  0  0
   38.8100   29.0710   41.0510 C   0  0  0  0  0  0  0  0  0  0  0  0
   37.4040   27.0890   43.1200 H   0  0  0  0  0  0  0  0  0  0  0  0
   36.0250   28.3190   40.7270 H   0  0  0  0  0  0  0  0  0  0  0  0
   35.4600   28.1260   42.3940 H   0  0  0  0  0  0  0  0  0  0  0  0
   36.2040   30.2680   42.7530 H   0  0  0  0  0  0  0  0  0  0  0  0
   38.5560   30.1430   42.8680 H   0  0  0  0  0  0  0  0  0  0  0  0
   38.2530   31.1020   41.4110 H   0  0  0  0  0  0  0  0  0  0  0  0
   38.3610   29.0970   40.0380 H   0  0  0  0  0  0  0  0  0  0  0  0
   39.8500   29.4150   40.9820 H   0  0  0  0  0  0  0  0  0  0  0  0
   39.9940   26.5800   43.2880 C   0  0  0  0  0  0  0  0  0  0  0  0
   39.7870   26.8830   41.9460 C   0  0  0  0  0  0  0  0  0  0  0  0
   40.6210   26.2860   41.0180 C   0  0  0  0  0  0  0  0  0  0  0  0
   41.6030   25.4340   41.4240 N   0  0  0  0  0  0  0  0  0  0  0  0
   41.7750   25.1630   42.7440 C   0  0  0  0  0  0  0  0  0  0  0  0
   40.9700   25.7370   43.6630 N   0  0  0  0  0  0  0  0  0  0  0  0
   39.4750   26.9270   44.1680 H   0  0  0  0  0  0  0  0  0  0  0  0
   40.4420   26.5320   39.9820 H   0  0  0  0  0  0  0  0  0  0  0  0
   42.5930   24.4690   42.9430 H   0  0  0  0  0  0  0  0  0  0  0  0
   36.8260   27.5050   39.2510 F   0  0  0  0  0  0  0  0  0  0  0  0
   36.7670   26.2770   39.8420 C   0  0  0  0  0  0  0  0  0  0  0  0
   37.0410   26.1980   41.1920 C   0  0  0  0  0  0  0  0  0  0  0  0
   36.9630   24.9350   41.7180 C   0  0  0  0  0  0  0  0  0  0  0  0
   37.1490   24.7360   42.7440 H   0  0  0  0  0  0  0  0  0  0  0  0
   36.6360   23.8110   40.9710 C   0  0  0  0  0  0  0  0  0  0  0  0
   36.5800   22.8180   41.4150 H   0  0  0  0  0  0  0  0  0  0  0  0
   36.3730   23.9660   39.6230 C   0  0  0  0  0  3  0  0  0  0  0  0
   36.4420   25.2090   39.0680 C   0  0  0  0  0  3  0  0  0  0  0  0
  1 16  1  0  0  0  0
  1  2  1  0  0  0  0
  2  7  1  1  0  0  0
  3  4  1  0  0  0  0
  3  2  1  0  0  0  0
  3  9  1  0  0  0  0
  4 10  1  0  0  0  0
  5  4  1  0  0  0  0
  5 11  1  0  0  0  0
  6  1  1  0  0  0  0
  6  5  1  0  0  0  0
  8  3  1  0  0  0  0
 12  5  1  0  0  0  0
 13  6  1  0  0  0  0
 14  6  1  0  0  0  0
 15 20  1  0  0  0  0
 15 21  1  0  0  0  0
 16 15  2  0  0  0  0
 17 18  2  0  0  0  0
 17 16  1  0  0  0  0
 18 19  1  0  0  0  0
 19 23  1  0  0  0  0
 19 20  2  0  0  0  0
 22 17  1  0  0  0  0
 24 25  1  0  0  0  0
 25 26  1  0  0  0  0
 26 27  2  0  0  0  0
 26  2  1  0  0  0  0
 27 28  1  0  0  0  0
 29 30  1  0  0  0  0
 29 27  1  0  0  0  0
 31 29  2  0  0  0  0
 32 31  1  0  0  0  0
 32 25  2  0  0  0  0
M  END
>  <minimizedAffinity>
-4.83127642

$$$$

 OpenBabel03252508333D

 32 34  0  0  1  0  0  0  0  0999 V2000
   37.0060   30.3230   40.0400 N   0  0  0  0  0  0  0  0  0  0  0  0
   38.1860   29.5390   40.2810 C   0  0  1  0  0  0  0  0  0  0  0  0
   39.1920   30.2120   41.1540 C   0  0  0  0  0  0  0  0  0  0  0  0
   39.3610   31.5980   40.9670 N   0  0  0  0  0  0  0  0  0  0  0  0
   38.2620   32.3550   40.5260 C   0  0  0  0  0  0  0  0  0  0  0  0
   36.9700   31.5790   40.7280 C   0  0  0  0  0  0  0  0  0  0  0  0
   38.6340   29.2550   39.3080 H   0  0  0  0  0  0  0  0  0  0  0  0
   38.9150   30.0220   42.2190 H   0  0  0  0  0  0  0  0  0  0  0  0
   40.1570   29.6600   41.0110 H   0  0  0  0  0  0  0  0  0  0  0  0
   40.2860   31.9240   40.6580 H   0  0  0  0  0  0  0  0  0  0  0  0
   38.3650   32.5160   39.4260 H   0  0  0  0  0  0  0  0  0  0  0  0
   38.1470   33.3450   40.9750 H   0  0  0  0  0  0  0  0  0  0  0  0
   36.8460   31.4730   41.8240 H   0  0  0  0  0  0  0  0  0  0  0  0
   36.1660   32.2210   40.3460 H   0  0  0  0  0  0  0  0  0  0  0  0
   36.3680   29.7470   37.8210 C   0  0  0  0  0  0  0  0  0  0  0  0
   36.0260   29.7840   39.1690 C   0  0  0  0  0  0  0  0  0  0  0  0
   34.7830   29.2970   39.5290 C   0  0  0  0  0  0  0  0  0  0  0  0
   33.9380   28.8030   38.5820 N   0  0  0  0  0  0  0  0  0  0  0  0
   34.3060   28.7840   37.2740 C   0  0  0  0  0  0  0  0  0  0  0  0
   35.5160   29.2560   36.9060 N   0  0  0  0  0  0  0  0  0  0  0  0
   37.2670   30.0710   37.3220 H   0  0  0  0  0  0  0  0  0  0  0  0
   34.5380   29.3320   40.5800 H   0  0  0  0  0  0  0  0  0  0  0  0
   33.5450   28.3670   36.6140 H   0  0  0  0  0  0  0  0  0  0  0  0
   37.2670   29.5010   42.9910 F   0  0  0  0  0  0  0  0  0  0  0  0
   37.3040   28.3070   42.3320 C   0  0  0  0  0  0  0  0  0  0  0  0
   37.7430   28.3050   41.0250 C   0  0  0  0  0  0  0  0  0  0  0  0
   37.7530   27.0720   40.4270 C   0  0  0  0  0  0  0  0  0  0  0  0
   38.0700   26.9310   39.4230 H   0  0  0  0  0  0  0  0  0  0  0  0
   37.3570   25.9050   41.0670 C   0  0  0  0  0  0  0  0  0  0  0  0
   37.3750   24.9370   40.5680 H   0  0  0  0  0  0  0  0  0  0  0  0
   36.9280   25.9830   42.3790 C   0  0  0  0  0  3  0  0  0  0  0  0
   36.9070   27.1940   43.0030 C   0  0  0  0  0  3  0  0  0  0  0  0
  1  2  1  0  0  0  0
  1  6  1  0  0  0  0
  2  7  1  6  0  0  0
  2 26  1  0  0  0  0
  2  3  1  0  0  0  0
  3  8  1  0  0  0  0
  4  3  1  0  0  0  0
  5  6  1  0  0  0  0
  5  4  1  0  0  0  0
  5 12  1  0  0  0  0
  6 13  1  0  0  0  0
  9  3  1  0  0  0  0
 10  4  1  0  0  0  0
 11  5  1  0  0  0  0
 14  6  1  0  0  0  0
 15 16  1  0  0  0  0
 16 17  2  0  0  0  0
 16  1  1  0  0  0  0
 17 22  1  0  0  0  0
 18 17  1  0  0  0  0
 19 18  2  0  0  0  0
 20 19  1  0  0  0  0
 20 15  2  0  0  0  0
 21 15  1  0  0  0  0
 23 19  1  0  0  0  0
 25 24  1  0  0  0  0
 25 32  1  0  0  0  0
 26 25  2  0  0  0  0
 27 26  1  0  0  0  0
 27 29  2  0  0  0  0
 28 27  1  0  0  0  0
 29 31  1  0  0  0  0
 30 29  1  0  0  0  0
 31 32  2  0  0  0  0
M  END
>  <minimizedAffinity>
-4.82097149

$$$$

 OpenBabel03252508333D

 32 34  0  0  1  0  0  0  0  0999 V2000
   37.9370   30.8370   40.1790 N   0  0  0  0  0  0  0  0  0  0  0  0
   38.9580   30.1060   40.8770 C   0  0  1  0  0  0  0  0  0  0  0  0
   39.5990   30.8720   41.9870 C   0  0  0  0  0  0  0  0  0  0  0  0
   39.8250   32.2440   41.7570 N   0  0  0  0  0  0  0  0  0  0  0  0
   38.9490   32.9340   40.9010 C   0  0  0  0  0  0  0  0  0  0  0  0
   37.6660   32.1410   40.7070 C   0  0  0  0  0  0  0  0  0  0  0  0
   39.7170   29.7600   40.1470 H   0  0  0  0  0  0  0  0  0  0  0  0
   38.9690   30.7580   42.9010 H   0  0  0  0  0  0  0  0  0  0  0  0
   40.5530   30.3370   42.2320 H   0  0  0  0  0  0  0  0  0  0  0  0
   40.8000   32.5700   41.7610 H   0  0  0  0  0  0  0  0  0  0  0  0
   39.4280   33.0120   39.8960 H   0  0  0  0  0  0  0  0  0  0  0  0
   38.6860   33.9520   41.2000 H   0  0  0  0  0  0  0  0  0  0  0  0
   37.1690   32.1170   41.6970 H   0  0  0  0  0  0  0  0  0  0  0  0
   37.0460   32.7290   40.0180 H   0  0  0  0  0  0  0  0  0  0  0  0
   38.1340   29.9980   37.9610 C   0  0  0  0  0  0  0  0  0  0  0  0
   37.3200   30.2050   39.0700 C   0  0  0  0  0  0  0  0  0  0  0  0
   36.0060   29.7820   38.9900 C   0  0  0  0  0  0  0  0  0  0  0  0
   35.5450   29.1850   37.8560 N   0  0  0  0  0  0  0  0  0  0  0  0
   36.3700   28.9990   36.7920 C   0  0  0  0  0  0  0  0  0  0  0  0
   37.6550   29.4070   36.8540 N   0  0  0  0  0  0  0  0  0  0  0  0
   39.1710   30.2470   37.8020 H   0  0  0  0  0  0  0  0  0  0  0  0
   35.3920   29.9500   39.8620 H   0  0  0  0  0  0  0  0  0  0  0  0
   35.8850   28.5120   35.9450 H   0  0  0  0  0  0  0  0  0  0  0  0
   39.0650   27.4230   39.8880 F   0  0  0  0  0  0  0  0  0  0  0  0
   38.3460   27.6350   41.0280 C   0  0  0  0  0  0  0  0  0  0  0  0
   38.2830   28.9220   41.5200 C   0  0  0  0  0  0  0  0  0  0  0  0
   37.5450   29.0590   42.6660 C   0  0  0  0  0  0  0  0  0  0  0  0
   37.4160   29.9970   43.1480 H   0  0  0  0  0  0  0  0  0  0  0  0
   36.9030   28.0030   43.2980 C   0  0  0  0  0  0  0  0  0  0  0  0
   36.3210   28.1400   44.2090 H   0  0  0  0  0  0  0  0  0  0  0  0
   37.0090   26.7390   42.7460 C   0  0  0  0  0  3  0  0  0  0  0  0
   37.7360   26.5680   41.6060 C   0  0  0  0  0  3  0  0  0  0  0  0
  1  6  1  0  0  0  0
  1  2  1  0  0  0  0
  2  7  1  6  0  0  0
  2 26  1  0  0  0  0
  2  3  1  0  0  0  0
  3  9  1  0  0  0  0
  3  8  1  0  0  0  0
  4 10  1  0  0  0  0
  4  3  1  0  0  0  0
  5 12  1  0  0  0  0
  5  4  1  0  0  0  0
  6  5  1  0  0  0  0
  6 13  1  0  0  0  0
 11  5  1  0  0  0  0
 14  6  1  0  0  0  0
 15 16  1  0  0  0  0
 16  1  1  0  0  0  0
 17 16  2  0  0  0  0
 17 22  1  0  0  0  0
 18 17  1  0  0  0  0
 19 20  1  0  0  0  0
 19 18  2  0  0  0  0
 20 15  2  0  0  0  0
 21 15  1  0  0  0  0
 23 19  1  0  0  0  0
 24 25  1  0  0  0  0
 25 26  2  0  0  0  0
 25 32  1  0  0  0  0
 26 27  1  0  0  0  0
 27 28  1  0  0  0  0
 27 29  2  0  0  0  0
 29 30  1  0  0  0  0
 31 29  1  0  0  0  0
 32 31  2  0  0  0  0
M  END
>  <minimizedAffinity>
-4.8199687

$$$$

 OpenBabel03252508333D

 32 34  0  0  1  0  0  0  0  0999 V2000
   37.0620   29.5870   39.3070 N   0  0  0  0  0  0  0  0  0  0  0  0
   37.9340   30.2970   38.4130 C   0  0  1  0  0  0  0  0  0  0  0  0
   37.3340   30.5720   37.0740 C   0  0  0  0  0  0  0  0  0  0  0  0
   36.5300   29.5540   36.5240 N   0  0  0  0  0  0  0  0  0  0  0  0
   35.8250   28.7080   37.3990 C   0  0  0  0  0  0  0  0  0  0  0  0
   35.7530   29.3260   38.7870 C   0  0  0  0  0  0  0  0  0  0  0  0
   38.8830   29.7330   38.3120 H   0  0  0  0  0  0  0  0  0  0  0  0
   36.7340   31.5100   37.1440 H   0  0  0  0  0  0  0  0  0  0  0  0
   38.1860   30.8320   36.3920 H   0  0  0  0  0  0  0  0  0  0  0  0
   36.8410   29.1300   35.6400 H   0  0  0  0  0  0  0  0  0  0  0  0
   36.4000   27.7580   37.5060 H   0  0  0  0  0  0  0  0  0  0  0  0
   34.8150   28.4290   37.0890 H   0  0  0  0  0  0  0  0  0  0  0  0
   35.1340   30.2390   38.6820 H   0  0  0  0  0  0  0  0  0  0  0  0
   35.2110   28.6060   39.4120 H   0  0  0  0  0  0  0  0  0  0  0  0
   38.6580   28.3570   40.5730 C   0  0  0  0  0  0  0  0  0  0  0  0
   37.5760   29.2310   40.5790 C   0  0  0  0  0  0  0  0  0  0  0  0
   37.1100   29.6650   41.8070 C   0  0  0  0  0  0  0  0  0  0  0  0
   37.7040   29.2410   42.9560 N   0  0  0  0  0  0  0  0  0  0  0  0
   38.7590   28.3860   42.9100 C   0  0  0  0  0  0  0  0  0  0  0  0
   39.2260   27.9520   41.7210 N   0  0  0  0  0  0  0  0  0  0  0  0
   39.1750   27.8950   39.7460 H   0  0  0  0  0  0  0  0  0  0  0  0
   36.2710   30.3450   41.7900 H   0  0  0  0  0  0  0  0  0  0  0  0
   39.1460   28.1190   43.8940 H   0  0  0  0  0  0  0  0  0  0  0  0
   40.4130   31.0950   39.5990 F   0  0  0  0  0  0  0  0  0  0  0  0
   39.4000   32.0100   39.6060 C   0  0  0  0  0  0  0  0  0  0  0  0
   38.1970   31.6430   39.0380 C   0  0  0  0  0  0  0  0  0  0  0  0
   37.2270   32.6100   39.0810 C   0  0  0  0  0  0  0  0  0  0  0  0
   36.2560   32.4560   38.6800 H   0  0  0  0  0  0  0  0  0  0  0  0
   37.4170   33.8640   39.6460 C   0  0  0  0  0  0  0  0  0  0  0  0
   36.6280   34.6140   39.6670 H   0  0  0  0  0  0  0  0  0  0  0  0
   38.6500   34.1610   40.1970 C   0  0  0  0  0  3  0  0  0  0  0  0
   39.6360   33.2220   40.1710 C   0  0  0  0  0  3  0  0  0  0  0  0
  1 16  1  0  0  0  0
  2  7  1  6  0  0  0
  2 26  1  0  0  0  0
  2  1  1  0  0  0  0
  3  8  1  0  0  0  0
  3  2  1  0  0  0  0
  4  3  1  0  0  0  0
  4  5  1  0  0  0  0
  5 11  1  0  0  0  0
  5  6  1  0  0  0  0
  6  1  1  0  0  0  0
  6 14  1  0  0  0  0
  9  3  1  0  0  0  0
 10  4  1  0  0  0  0
 12  5  1  0  0  0  0
 13  6  1  0  0  0  0
 15 16  2  0  0  0  0
 15 20  1  0  0  0  0
 16 17  1  0  0  0  0
 17 18  2  0  0  0  0
 19 18  1  0  0  0  0
 19 23  1  0  0  0  0
 20 19  2  0  0  0  0
 21 15  1  0  0  0  0
 22 17  1  0  0  0  0
 24 25  1  0  0  0  0
 25 32  1  0  0  0  0
 26 27  1  0  0  0  0
 26 25  2  0  0  0  0
 27 29  2  0  0  0  0
 28 27  1  0  0  0  0
 29 30  1  0  0  0  0
 29 31  1  0  0  0  0
 32 31  2  0  0  0  0
M  END
>  <minimizedAffinity>
-4.76085043

$$$$
