
 OpenBabel03252500353D

 46 49  0  0  1  0  0  0  0  0999 V2000
   45.9010   35.3750   42.8760 C   0  0  1  0  0  0  0  0  0  0  0  0
   44.7670   34.9300   43.5600 C   0  0  0  0  0  0  0  0  0  0  0  0
   46.0460   34.5650   44.1960 C   0  0  1  0  0  0  0  0  0  0  0  0
   46.2180   36.4500   42.9430 H   0  0  0  0  0  0  0  0  0  0  0  0
   44.1900   34.0510   43.1470 H   0  0  0  0  0  0  0  0  0  0  0  0
   44.0880   35.6260   44.0740 H   0  0  0  0  0  0  0  0  0  0  0  0
   46.5460   35.1790   44.9570 H   0  0  0  0  0  0  0  0  0  0  0  0
   45.6370   34.0310   40.7880 C   0  0  0  0  0  0  0  0  0  0  0  0
   46.5110   34.7610   41.6580 C   0  0  0  0  0  0  0  0  0  0  0  0
   47.8320   34.8660   41.3550 C   0  0  0  0  0  0  0  0  0  0  0  0
   48.2640   34.2500   40.2040 N   0  0  0  0  0  0  0  0  0  0  0  0
   47.4310   33.5660   39.3920 C   0  0  0  0  0  0  0  0  0  0  0  0
   46.0870   33.4340   39.6610 N   0  0  0  0  0  0  0  0  0  0  0  0
   44.5820   33.9180   40.9830 H   0  0  0  0  0  0  0  0  0  0  0  0
   48.5040   35.4130   42.0010 H   0  0  0  0  0  0  0  0  0  0  0  0
   47.9600   35.0140   37.1190 F   0  0  0  0  0  0  0  0  0  0  0  0
   48.2190   33.6690   37.0600 C   0  0  0  0  0  0  0  0  0  0  0  0
   47.9530   32.9460   38.2010 C   0  0  0  0  0  0  0  0  0  0  0  0
   48.1990   31.5910   38.1820 C   0  0  0  0  0  0  0  0  0  0  0  0
   48.0250   30.9370   39.0200 H   0  0  0  0  0  0  0  0  0  0  0  0
   48.7030   30.9790   37.0340 C   0  0  0  0  0  0  0  0  0  0  0  0
   48.9270   29.9200   36.9290 H   0  0  0  0  0  0  0  0  0  0  0  0
   48.9620   31.7390   35.8960 C   0  0  0  0  0  0  0  0  0  0  0  0
   48.7150   33.0830   35.9240 C   0  0  0  0  0  0  0  0  0  0  0  0
   46.5380   33.1650   44.1390 C   0  0  0  0  0  0  0  0  0  0  0  0
   47.6550   33.1880   44.2860 H   0  0  0  0  0  0  0  0  0  0  0  0
   46.3210   32.7220   43.1690 H   0  0  0  0  0  0  0  0  0  0  0  0
   45.8960   32.4550   45.1880 N   0  0  0  0  0  0  0  0  0  0  0  0
   45.8950   33.0220   46.4670 C   0  0  0  0  0  0  0  0  0  0  0  0
   47.1190   32.5590   47.2840 C   0  0  0  0  0  0  0  0  0  0  0  0
   46.9180   31.0950   47.5540 C   0  0  0  0  0  0  0  0  0  0  0  0
   46.8780   30.4180   46.1950 C   0  0  0  0  0  0  0  0  0  0  0  0
   45.9500   31.0560   45.2040 C   0  0  2  0  0  0  0  0  0  0  0  0
   45.6760   34.0800   46.5900 H   0  0  0  0  0  0  0  0  0  0  0  0
   45.0400   32.5220   47.0180 H   0  0  0  0  0  0  0  0  0  0  0  0
   47.1420   33.1520   48.2280 H   0  0  0  0  0  0  0  0  0  0  0  0
   48.0350   32.6800   46.6740 H   0  0  0  0  0  0  0  0  0  0  0  0
   47.7330   30.6400   48.1150 H   0  0  0  0  0  0  0  0  0  0  0  0
   45.9350   30.9410   48.0360 H   0  0  0  0  0  0  0  0  0  0  0  0
   47.8750   30.3330   45.7340 H   0  0  0  0  0  0  0  0  0  0  0  0
   46.5270   29.3680   46.3880 H   0  0  0  0  0  0  0  0  0  0  0  0
   44.9220   30.6550   45.4080 H   0  0  0  0  0  0  0  0  0  0  0  0
   46.3090   30.4820   43.8410 C   0  0  0  0  0  0  0  0  0  0  0  0
   46.6700   29.4430   43.9820 H   0  0  0  0  0  0  0  0  0  0  0  0
   45.4240   30.4580   43.1800 H   0  0  0  0  0  0  0  0  0  0  0  0
   47.1200   31.0730   43.3860 H   0  0  0  0  0  0  0  0  0  0  0  0
  1  4  1  1  0  0  0
  1  2  1  0  0  0  0
  1  3  1  0  0  0  0
  2  6  1  0  0  0  0
  2  3  1  0  0  0  0
  3  7  1  1  0  0  0
  5  2  1  0  0  0  0
  8 14  1  0  0  0  0
  8  9  1  0  0  0  0
  9  1  1  0  0  0  0
 10  9  2  0  0  0  0
 10 15  1  0  0  0  0
 11 10  1  0  0  0  0
 12 13  1  0  0  0  0
 12 11  2  0  0  0  0
 13  8  2  0  0  0  0
 17 16  1  0  0  0  0
 17 18  1  0  0  0  0
 18 12  1  0  0  0  0
 19 18  2  0  0  0  0
 19 20  1  0  0  0  0
 21 19  1  0  0  0  0
 22 21  1  0  0  0  0
 23 24  1  0  0  0  0
 23 21  2  0  0  0  0
 24 17  2  0  0  0  0
 25  3  1  0  0  0  0
 25 26  1  0  0  0  0
 25 28  1  0  0  0  0
 27 25  1  0  0  0  0
 28 33  1  0  0  0  0
 28 29  1  0  0  0  0
 29 34  1  0  0  0  0
 29 35  1  0  0  0  0
 29 30  1  0  0  0  0
 30 31  1  0  0  0  0
 30 36  1  0  0  0  0
 31 39  1  0  0  0  0
 31 38  1  0  0  0  0
 32 41  1  0  0  0  0
 32 31  1  0  0  0  0
 33 42  1  1  0  0  0
 33 32  1  0  0  0  0
 37 30  1  0  0  0  0
 40 32  1  0  0  0  0
 43 44  1  0  0  0  0
 43 33  1  0  0  0  0
 45 43  1  0  0  0  0
 46 43  1  0  0  0  0
M  END
>  <minimizedAffinity>
-5.25950193

>  <minimizedRMSD>
2.91802001

$$$$
