
 OpenBabel03252505253D

 43 46  0  0  1  0  0  0  0  0999 V2000
   48.2700   30.6960   45.9560 F   0  0  0  0  0  0  0  0  0  0  0  0
   47.3780   31.2540   46.8430 C   0  0  0  0  0  0  0  0  0  0  0  0
   47.4750   30.8960   48.1740 C   0  0  0  0  0  0  0  0  0  0  0  0
   46.5870   31.4550   49.0340 C   0  0  0  0  0  0  0  0  0  0  0  0
   45.6290   32.3450   48.5800 C   0  0  0  0  0  0  0  0  0  0  0  0
   45.5340   32.6990   47.2570 C   0  0  0  0  0  0  0  0  0  0  0  0
   46.4460   32.1260   46.3650 C   0  0  0  0  0  0  0  0  0  0  0  0
   46.6240   31.2030   50.0920 H   0  0  0  0  0  0  0  0  0  0  0  0
   44.9520   32.7520   49.3210 H   0  0  0  0  0  0  0  0  0  0  0  0
   44.7820   33.3950   46.9100 H   0  0  0  0  0  0  0  0  0  0  0  0
   46.3160   32.5170   45.0110 N   0  0  0  0  0  0  0  0  0  0  0  0
   45.7440   31.8090   43.8840 C   0  0  0  0  0  0  0  0  0  0  0  0
   44.8090   32.8650   43.2710 C   0  0  0  0  0  0  0  0  0  0  0  0
   45.3820   34.1650   43.7460 C   0  0  0  0  0  0  0  0  0  0  0  0
   46.7100   33.7370   44.3340 C   0  0  2  0  0  0  0  0  0  0  0  0
   45.1400   30.9270   44.2030 H   0  0  0  0  0  0  0  0  0  0  0  0
   46.5710   31.5470   43.2030 H   0  0  0  0  0  0  0  0  0  0  0  0
   43.7970   32.7010   43.6870 H   0  0  0  0  0  0  0  0  0  0  0  0
   44.8250   32.7950   42.1610 H   0  0  0  0  0  0  0  0  0  0  0  0
   45.6290   34.7920   42.8430 H   0  0  0  0  0  0  0  0  0  0  0  0
   44.7650   34.7180   44.4510 H   0  0  0  0  0  0  0  0  0  0  0  0
   47.0190   34.4800   45.1130 H   0  0  0  0  0  0  0  0  0  0  0  0
   47.7920   33.5400   43.3280 C   0  0  0  0  0  0  0  0  0  0  0  0
   47.4310   33.3760   42.3010 H   0  0  0  0  0  0  0  0  0  0  0  0
   48.3540   32.6180   43.6230 H   0  0  0  0  0  0  0  0  0  0  0  0
   48.5100   34.3830   43.4140 H   0  0  0  0  0  0  0  0  0  0  0  0
   49.4610   27.8380   48.4950 C   0  0  0  0  0  0  0  0  0  0  0  0
   50.4470   28.1970   49.4340 C   0  0  0  0  0  0  0  0  0  0  0  0
   50.3810   29.4950   49.9210 C   0  0  0  0  0  0  0  0  0  0  0  0
   49.4080   30.3130   49.4810 N   0  0  0  0  0  0  0  0  0  0  0  0
   48.4960   29.9620   48.6040 C   0  0  0  0  0  0  0  0  0  0  0  0
   48.5100   28.7140   48.0970 N   0  0  0  0  0  0  0  0  0  0  0  0
   49.5100   26.8210   48.1130 H   0  0  0  0  0  0  0  0  0  0  0  0
   51.1890   27.5110   49.7450 H   0  0  0  0  0  0  0  0  0  0  0  0
   50.2110   28.7970   52.5900 F   0  0  0  0  0  0  0  0  0  0  0  0
   51.2360   29.6310   52.2240 C   0  0  0  0  0  0  0  0  0  0  0  0
   51.3410   29.9920   50.8980 C   0  0  0  0  0  0  0  0  0  0  0  0
   52.3960   30.8300   50.6130 C   0  0  0  0  0  0  0  0  0  0  0  0
   52.5360   31.1520   49.5920 H   0  0  0  0  0  0  0  0  0  0  0  0
   53.2840   31.2790   51.5680 C   0  0  0  0  0  0  0  0  0  0  0  0
   54.0950   31.9300   51.3200 H   0  0  0  0  0  0  0  0  0  0  0  0
   53.1270   30.8820   52.8770 C   0  0  0  0  0  0  0  0  0  0  0  0
   52.0900   30.0440   53.2260 C   0  0  0  0  0  0  0  0  0  0  0  0
  1  2  1  0  0  0  0
  2  3  1  0  0  0  0
  3 31  1  0  0  0  0
  3  4  2  0  0  0  0
  4  8  1  0  0  0  0
  5  4  1  0  0  0  0
  5  9  1  0  0  0  0
  6  5  2  0  0  0  0
  7  2  2  0  0  0  0
  7  6  1  0  0  0  0
 10  6  1  0  0  0  0
 11  7  1  0  0  0  0
 12 16  1  0  0  0  0
 12 11  1  0  0  0  0
 13 18  1  0  0  0  0
 13 14  1  0  0  0  0
 13 12  1  0  0  0  0
 14 15  1  0  0  0  0
 14 21  1  0  0  0  0
 15 11  1  0  0  0  0
 15 22  1  1  0  0  0
 17 12  1  0  0  0  0
 19 13  1  0  0  0  0
 20 14  1  0  0  0  0
 23 26  1  0  0  0  0
 23 25  1  0  0  0  0
 23 15  1  0  0  0  0
 24 23  1  0  0  0  0
 27 28  1  0  0  0  0
 28 34  1  0  0  0  0
 28 29  2  0  0  0  0
 29 37  1  0  0  0  0
 30 29  1  0  0  0  0
 31 30  2  0  0  0  0
 32 27  2  0  0  0  0
 32 31  1  0  0  0  0
 33 27  1  0  0  0  0
 36 35  1  0  0  0  0
 36 43  1  0  0  0  0
 37 36  2  0  0  0  0
 38 37  1  0  0  0  0
 38 40  2  0  0  0  0
 39 38  1  0  0  0  0
 40 42  1  0  0  0  0
 41 40  1  0  0  0  0
 42 43  2  0  0  0  0
M  END
>  <minimizedAffinity>
-5.77424765

>  <minimizedRMSD>
9.82478714

$$$$
