
 OpenBabel03252508323D

 32 34  0  0  1  0  0  0  0  0999 V2000
   44.3740   34.3540   42.6200 N   0  0  0  0  0  0  0  0  0  0  0  0
   44.7190   34.0010   41.2700 C   0  0  1  0  0  0  0  0  0  0  0  0
   43.9800   34.7800   40.2330 C   0  0  0  0  0  0  0  0  0  0  0  0
   42.6270   35.0630   40.5030 N   0  0  0  0  0  0  0  0  0  0  0  0
   42.2260   35.2060   41.8430 C   0  0  0  0  0  0  0  0  0  0  0  0
   43.4360   35.4310   42.7360 C   0  0  0  0  0  0  0  0  0  0  0  0
   44.5630   32.9120   41.1320 H   0  0  0  0  0  0  0  0  0  0  0  0
   44.5240   35.7400   40.0620 H   0  0  0  0  0  0  0  0  0  0  0  0
   44.0950   34.2150   39.2710 H   0  0  0  0  0  0  0  0  0  0  0  0
   41.9250   34.6720   39.8620 H   0  0  0  0  0  0  0  0  0  0  0  0
   41.7620   34.2470   42.1750 H   0  0  0  0  0  0  0  0  0  0  0  0
   41.4940   35.9920   42.0450 H   0  0  0  0  0  0  0  0  0  0  0  0
   43.8580   36.4120   42.4380 H   0  0  0  0  0  0  0  0  0  0  0  0
   43.0480   35.5130   43.7590 H   0  0  0  0  0  0  0  0  0  0  0  0
   45.2440   34.3290   44.8350 C   0  0  0  0  0  0  0  0  0  0  0  0
   44.9840   33.6190   43.6670 C   0  0  0  0  0  0  0  0  0  0  0  0
   45.3390   32.2820   43.6360 C   0  0  0  0  0  0  0  0  0  0  0  0
   45.9200   31.7010   44.7220 N   0  0  0  0  0  0  0  0  0  0  0  0
   46.1590   32.4270   45.8450 C   0  0  0  0  0  0  0  0  0  0  0  0
   45.8190   33.7330   45.8920 N   0  0  0  0  0  0  0  0  0  0  0  0
   45.0580   35.3630   45.0760 H   0  0  0  0  0  0  0  0  0  0  0  0
   45.1270   31.7490   42.7210 H   0  0  0  0  0  0  0  0  0  0  0  0
   46.6280   31.8510   46.6440 H   0  0  0  0  0  0  0  0  0  0  0  0
   46.3970   32.9760   39.1900 F   0  0  0  0  0  0  0  0  0  0  0  0
   46.9700   33.8370   40.0820 C   0  0  0  0  0  0  0  0  0  0  0  0
   46.1770   34.3410   41.0910 C   0  0  0  0  0  0  0  0  0  0  0  0
   46.8180   35.1960   41.9490 C   0  0  0  0  0  0  0  0  0  0  0  0
   46.3220   35.6540   42.7690 H   0  0  0  0  0  0  0  0  0  0  0  0
   48.1580   35.5420   41.8290 C   0  0  0  0  0  0  0  0  0  0  0  0
   48.6430   36.2260   42.5240 H   0  0  0  0  0  0  0  0  0  0  0  0
   48.8910   34.9970   40.7910 C   0  0  0  0  0  3  0  0  0  0  0  0
   48.2830   34.1420   39.9210 C   0  0  0  0  0  3  0  0  0  0  0  0
  1  6  1  0  0  0  0
  1 16  1  0  0  0  0
  2  7  1  6  0  0  0
  2  1  1  0  0  0  0
  3  4  1  0  0  0  0
  3  2  1  0  0  0  0
  4  5  1  0  0  0  0
  5 12  1  0  0  0  0
  5 11  1  0  0  0  0
  5  6  1  0  0  0  0
  6 14  1  0  0  0  0
  8  3  1  0  0  0  0
  9  3  1  0  0  0  0
 10  4  1  0  0  0  0
 13  6  1  0  0  0  0
 15 21  1  0  0  0  0
 15 20  1  0  0  0  0
 16 15  2  0  0  0  0
 17 16  1  0  0  0  0
 17 18  2  0  0  0  0
 18 19  1  0  0  0  0
 19 20  2  0  0  0  0
 19 23  1  0  0  0  0
 22 17  1  0  0  0  0
 24 25  1  0  0  0  0
 25 26  1  0  0  0  0
 26  2  1  0  0  0  0
 26 27  2  0  0  0  0
 27 28  1  0  0  0  0
 29 27  1  0  0  0  0
 29 30  1  0  0  0  0
 31 29  2  0  0  0  0
 32 25  2  0  0  0  0
 32 31  1  0  0  0  0
M  END
>  <minimizedAffinity>
-4.67867422

>  <minimizedRMSD>
1.33185041

$$$$
