
 OpenBabel03252505193D

 34 37  0  0  0  0  0  0  0  0999 V2000
   46.0680   32.7420   47.0970 C   0  0  0  0  0  0  0  0  0  0  0  0
   44.9470   32.3910   47.8370 C   0  0  0  0  0  0  0  0  0  0  0  0
   45.1030   31.5630   48.9440 C   0  0  0  0  0  0  0  0  0  0  0  0
   46.3810   31.1240   49.2580 C   0  0  0  0  0  0  0  0  0  0  0  0
   47.4570   31.5120   48.4780 C   0  0  0  0  0  0  0  0  0  0  0  0
   47.2950   32.3190   47.4010 N   0  0  0  0  0  0  0  0  0  0  0  0
   43.9420   32.7260   47.6040 H   0  0  0  0  0  0  0  0  0  0  0  0
   44.2490   31.2710   49.5430 H   0  0  0  0  0  0  0  0  0  0  0  0
   46.4580   30.4910   50.1150 H   0  0  0  0  0  0  0  0  0  0  0  0
   48.3760   29.0260   47.6830 F   0  0  0  0  0  0  0  0  0  0  0  0
   49.2460   29.8120   48.3950 C   0  0  0  0  0  0  0  0  0  0  0  0
   48.8020   31.0560   48.8000 C   0  0  0  0  0  0  0  0  0  0  0  0
   49.7300   31.7860   49.5090 C   0  0  0  0  0  0  0  0  0  0  0  0
   49.4740   32.7560   49.8600 H   0  0  0  0  0  0  0  0  0  0  0  0
   50.9980   31.3260   49.7980 C   0  0  0  0  0  0  0  0  0  0  0  0
   51.7060   31.9270   50.3600 H   0  0  0  0  0  0  0  0  0  0  0  0
   51.3800   30.0740   49.3650 C   0  0  0  0  0  0  0  0  0  0  0  0
   50.5010   29.2900   48.6490 C   0  0  0  0  0  0  0  0  0  0  0  0
   44.7510   35.2980   44.7920 C   0  0  0  0  0  0  0  0  0  0  0  0
   45.5780   35.1750   43.6520 C   0  0  0  0  0  0  0  0  0  0  0  0
   46.5660   34.2140   43.7320 C   0  0  0  0  0  0  0  0  0  0  0  0
   46.7220   33.4330   44.8590 N   0  0  0  0  0  0  0  0  0  0  0  0
   45.8910   33.5950   45.9350 C   0  0  0  0  0  0  0  0  0  0  0  0
   44.9090   34.5280   45.8950 N   0  0  0  0  0  0  0  0  0  0  0  0
   43.9780   36.0520   44.7300 H   0  0  0  0  0  0  0  0  0  0  0  0
   45.4370   35.7960   42.7860 H   0  0  0  0  0  0  0  0  0  0  0  0
   47.4760   33.9700   42.5740 C   0  0  0  0  0  0  0  0  0  0  0  0
   47.9640   35.2550   41.9030 C   0  0  0  0  0  0  0  0  0  0  0  0
   48.8790   34.2650   42.6950 C   0  0  0  0  0  0  0  0  0  0  0  0
   47.0730   33.2310   41.8500 H   0  0  0  0  0  0  0  0  0  0  0  0
   48.0990   35.2530   40.8190 H   0  0  0  0  0  0  0  0  0  0  0  0
   47.7960   36.2060   42.4380 H   0  0  0  0  0  0  0  0  0  0  0  0
   49.3110   34.6330   43.6310 H   0  0  0  0  0  0  0  0  0  0  0  0
   49.6100   33.7120   42.0550 H   0  0  0  0  0  0  0  0  0  0  0  0
  1  6  2  0  0  0  0
  1  2  1  0  0  0  0
  2  3  2  0  0  0  0
  3  4  1  0  0  0  0
  3  8  1  0  0  0  0
  4  9  1  0  0  0  0
  5 12  1  0  0  0  0
  5  4  2  0  0  0  0
  6  5  1  0  0  0  0
  7  2  1  0  0  0  0
 10 11  1  0  0  0  0
 11 18  2  0  0  0  0
 11 12  1  0  0  0  0
 12 13  2  0  0  0  0
 13 15  1  0  0  0  0
 13 14  1  0  0  0  0
 15 16  1  0  0  0  0
 17 15  2  0  0  0  0
 18 17  1  0  0  0  0
 19 24  1  0  0  0  0
 20 21  1  0  0  0  0
 20 19  2  0  0  0  0
 21 22  2  0  0  0  0
 22 23  1  0  0  0  0
 23  1  1  0  0  0  0
 24 23  2  0  0  0  0
 25 19  1  0  0  0  0
 26 20  1  0  0  0  0
 27 29  1  0  0  0  0
 27 21  1  0  0  0  0
 28 32  1  0  0  0  0
 28 27  1  0  0  0  0
 28 29  1  0  0  0  0
 29 33  1  0  0  0  0
 30 27  1  0  0  0  0
 31 28  1  0  0  0  0
 34 29  1  0  0  0  0
M  END
>  <minimizedAffinity>
-6.50272846

>  <minimizedRMSD>
1.75677705

$$$$
