
 OpenBabel03242522553D

 40 42  0  0  1  0  0  0  0  0999 V2000
   40.0050   29.7630   39.7360 C   0  0  0  0  0  0  0  0  0  0  0  0
   39.1610   28.8240   39.9260 O   0  0  0  0  0  0  0  0  0  0  0  0
   40.5160   29.5450   41.0460 N   0  0  0  0  0  0  0  0  0  0  0  0
   41.0240   30.8170   41.5570 C   0  0  0  0  0  0  0  0  0  0  0  0
   41.6390   30.5080   42.9050 C   0  0  0  0  0  0  0  0  0  0  0  0
   42.4320   29.2700   42.8090 N   0  0  0  0  0  0  0  0  0  0  0  0
   41.4900   28.2070   42.8850 C   0  0  0  0  0  0  0  0  0  0  0  0
   40.5310   28.2780   41.7500 C   0  0  1  0  0  0  0  0  0  0  0  0
   40.1690   31.4980   41.7420 H   0  0  0  0  0  0  0  0  0  0  0  0
   41.7760   31.2560   40.8720 H   0  0  0  0  0  0  0  0  0  0  0  0
   42.3800   31.3160   43.1060 H   0  0  0  0  0  0  0  0  0  0  0  0
   40.9010   30.4590   43.7090 H   0  0  0  0  0  0  0  0  0  0  0  0
   43.1950   29.2430   43.4900 H   0  0  0  0  0  0  0  0  0  0  0  0
   41.0040   28.2040   43.8940 H   0  0  0  0  0  0  0  0  0  0  0  0
   42.0750   27.2580   42.8390 H   0  0  0  0  0  0  0  0  0  0  0  0
   40.7860   27.4980   41.0000 H   0  0  0  0  0  0  0  0  0  0  0  0
   39.2230   25.8290   41.1090 F   0  0  0  0  0  0  0  0  0  0  0  0
   38.6100   26.7040   41.9390 C   0  0  0  0  0  0  0  0  0  0  0  0
   39.1910   27.9140   42.2930 C   0  0  0  0  0  0  0  0  0  0  0  0
   38.5330   28.7550   43.1300 C   0  0  0  0  0  0  0  0  0  0  0  0
   38.9880   29.6980   43.4050 H   0  0  0  0  0  0  0  0  0  0  0  0
   37.2800   28.4880   43.6790 C   0  0  0  0  0  0  0  0  0  0  0  0
   36.7510   29.1410   44.3400 H   0  0  0  0  0  0  0  0  0  0  0  0
   36.7400   27.2590   43.2930 C   0  0  0  0  0  3  0  0  0  0  0  0
   37.3660   26.3680   42.4450 C   0  0  0  0  0  3  0  0  0  0  0  0
   39.9080   30.3450   38.5070 O   0  0  0  0  0  0  0  0  0  0  0  0
   39.9210   32.9170   39.0920 O   0  0  0  0  0  0  0  0  0  0  0  0
   39.4160   31.8640   38.0740 P   0  0  1  0  0  0  0  0  0  0  0  0
   40.0350   32.3220   36.5850 O   0  0  0  0  0  0  0  0  0  0  0  0
   39.8250   31.6410   35.8900 H   0  0  0  0  0  0  0  0  0  0  0  0
   37.7240   31.9450   38.0740 O   0  0  0  0  0  0  0  0  0  0  0  0
   36.0880   30.6970   41.0590 C   0  0  0  0  0  0  0  0  0  0  0  0
   36.8670   31.4890   40.1820 C   0  0  0  0  0  0  0  0  0  0  0  0
   36.9550   31.1360   38.8660 C   0  0  0  0  0  0  0  0  0  0  0  0
   36.2940   30.0300   38.4200 N   0  0  0  0  0  0  0  0  0  0  0  0
   35.5520   29.2830   39.2740 C   0  0  0  0  0  0  0  0  0  0  0  0
   35.4450   29.6030   40.5770 N   0  0  0  0  0  0  0  0  0  0  0  0
   35.9720   30.9130   42.1070 H   0  0  0  0  0  0  0  0  0  0  0  0
   37.3120   32.3100   40.6910 H   0  0  0  0  0  0  0  0  0  0  0  0
   35.0340   28.4080   38.9070 H   0  0  0  0  0  0  0  0  0  0  0  0
  1  2  2  0  0  0  0
  1  3  1  0  0  0  0
  3  4  1  0  0  0  0
  3  8  1  0  0  0  0
  4  9  1  0  0  0  0
  4  5  1  0  0  0  0
  5 11  1  0  0  0  0
  5 12  1  0  0  0  0
  6  7  1  0  0  0  0
  6  5  1  0  0  0  0
  6 13  1  0  0  0  0
  7 14  1  0  0  0  0
  8 16  1  6  0  0  0
  8 19  1  0  0  0  0
  8  7  1  0  0  0  0
 10  4  1  0  0  0  0
 15  7  1  0  0  0  0
 17 18  1  0  0  0  0
 18 19  2  0  0  0  0
 18 25  1  0  0  0  0
 19 20  1  0  0  0  0
 20 21  1  0  0  0  0
 20 22  2  0  0  0  0
 22 23  1  0  0  0  0
 24 22  1  0  0  0  0
 25 24  2  0  0  0  0
 26  1  1  0  0  0  0
 28 26  1  0  0  0  0
 28 27  2  1  0  0  0
 29 28  1  0  0  0  0
 30 29  1  0  0  0  0
 31 28  1  0  0  0  0
 31 34  1  0  0  0  0
 32 38  1  0  0  0  0
 33 39  1  0  0  0  0
 33 32  2  0  0  0  0
 34 33  1  0  0  0  0
 35 34  2  0  0  0  0
 35 36  1  0  0  0  0
 36 37  2  0  0  0  0
 37 32  1  0  0  0  0
 40 36  1  0  0  0  0
M  END
>  <minimizedAffinity>
-6.05633736

$$$$

 OpenBabel03242522553D

 40 42  0  0  1  0  0  0  0  0999 V2000
   39.2230   29.9130   39.2720 C   0  0  0  0  0  0  0  0  0  0  0  0
   39.7200   29.0540   40.0750 O   0  0  0  0  0  0  0  0  0  0  0  0
   37.9820   29.8120   39.9600 N   0  0  0  0  0  0  0  0  0  0  0  0
   36.9050   30.0730   39.0060 C   0  0  0  0  0  0  0  0  0  0  0  0
   35.6220   30.0480   39.8080 C   0  0  0  0  0  0  0  0  0  0  0  0
   35.8180   30.7870   41.0680 N   0  0  0  0  0  0  0  0  0  0  0  0
   36.4950   29.8860   41.9360 C   0  0  0  0  0  0  0  0  0  0  0  0
   37.8150   29.5050   41.3670 C   0  0  1  0  0  0  0  0  0  0  0  0
   36.8510   29.2320   38.2860 H   0  0  0  0  0  0  0  0  0  0  0  0
   37.0390   31.0520   38.5050 H   0  0  0  0  0  0  0  0  0  0  0  0
   34.8790   30.6450   39.2310 H   0  0  0  0  0  0  0  0  0  0  0  0
   35.2480   29.0370   39.9820 H   0  0  0  0  0  0  0  0  0  0  0  0
   34.9470   31.1860   41.4240 H   0  0  0  0  0  0  0  0  0  0  0  0
   35.8300   29.0160   42.1710 H   0  0  0  0  0  0  0  0  0  0  0  0
   36.6320   30.4200   42.9070 H   0  0  0  0  0  0  0  0  0  0  0  0
   38.6220   30.0440   41.9100 H   0  0  0  0  0  0  0  0  0  0  0  0
   39.6720   28.5620   43.3130 F   0  0  0  0  0  0  0  0  0  0  0  0
   38.9320   27.6660   42.6210 C   0  0  0  0  0  0  0  0  0  0  0  0
   38.0100   28.0570   41.6600 C   0  0  0  0  0  0  0  0  0  0  0  0
   37.2940   27.1150   40.9940 C   0  0  0  0  0  0  0  0  0  0  0  0
   36.5750   27.4230   40.2460 H   0  0  0  0  0  0  0  0  0  0  0  0
   37.4180   25.7440   41.2100 C   0  0  0  0  0  0  0  0  0  0  0  0
   36.8600   24.9920   40.6930 H   0  0  0  0  0  0  0  0  0  0  0  0
   38.3570   25.4030   42.1860 C   0  0  0  0  0  3  0  0  0  0  0  0
   39.1110   26.3200   42.8900 C   0  0  0  0  0  3  0  0  0  0  0  0
   40.1050   30.3590   38.3330 O   0  0  0  0  0  0  0  0  0  0  0  0
   41.7510   31.9820   37.0610 O   0  0  0  0  0  0  0  0  0  0  0  0
   40.3600   31.8810   37.7360 P   0  0  1  0  0  0  0  0  0  0  0  0
   39.2390   32.2860   36.5570 O   0  0  0  0  0  0  0  0  0  0  0  0
   38.3110   32.1590   36.8920 H   0  0  0  0  0  0  0  0  0  0  0  0
   40.3380   33.0090   38.9990 O   0  0  0  0  0  0  0  0  0  0  0  0
   43.2470   34.1610   40.8330 C   0  0  0  0  0  0  0  0  0  0  0  0
   42.2140   34.0640   39.8700 C   0  0  0  0  0  0  0  0  0  0  0  0
   41.3110   33.0440   39.9630 C   0  0  0  0  0  0  0  0  0  0  0  0
   41.4190   32.1390   40.9760 N   0  0  0  0  0  0  0  0  0  0  0  0
   42.4150   32.2470   41.8900 C   0  0  0  0  0  0  0  0  0  0  0  0
   43.3220   33.2410   41.8270 N   0  0  0  0  0  0  0  0  0  0  0  0
   43.9950   34.9360   40.8250 H   0  0  0  0  0  0  0  0  0  0  0  0
   42.2770   34.8460   39.1530 H   0  0  0  0  0  0  0  0  0  0  0  0
   42.4890   31.5220   42.6890 H   0  0  0  0  0  0  0  0  0  0  0  0
  1  3  1  0  0  0  0
  1  2  2  0  0  0  0
  3  8  1  0  0  0  0
  4  5  1  0  0  0  0
  4  3  1  0  0  0  0
  5 12  1  0  0  0  0
  5  6  1  0  0  0  0
  6 13  1  0  0  0  0
  6  7  1  0  0  0  0
  7 14  1  0  0  0  0
  7 15  1  0  0  0  0
  8 19  1  0  0  0  0
  8 16  1  1  0  0  0
  8  7  1  0  0  0  0
  9  4  1  0  0  0  0
 10  4  1  0  0  0  0
 11  5  1  0  0  0  0
 18 25  1  0  0  0  0
 18 17  1  0  0  0  0
 19 18  2  0  0  0  0
 20 22  2  0  0  0  0
 20 19  1  0  0  0  0
 21 20  1  0  0  0  0
 22 24  1  0  0  0  0
 23 22  1  0  0  0  0
 24 25  2  0  0  0  0
 26  1  1  0  0  0  0
 28 27  2  6  0  0  0
 28 26  1  0  0  0  0
 28 31  1  0  0  0  0
 29 30  1  0  0  0  0
 29 28  1  0  0  0  0
 31 34  1  0  0  0  0
 32 37  1  0  0  0  0
 33 34  1  0  0  0  0
 33 32  2  0  0  0  0
 34 35  2  0  0  0  0
 35 36  1  0  0  0  0
 36 40  1  0  0  0  0
 37 36  2  0  0  0  0
 38 32  1  0  0  0  0
 39 33  1  0  0  0  0
M  END
>  <minimizedAffinity>
-5.9216876

$$$$

 OpenBabel03242522553D

 40 42  0  0  1  0  0  0  0  0999 V2000
   40.2090   30.4840   40.5240 C   0  0  0  0  0  0  0  0  0  0  0  0
   39.9840   29.7410   41.5370 O   0  0  0  0  0  0  0  0  0  0  0  0
   38.8060   30.5880   40.3110 N   0  0  0  0  0  0  0  0  0  0  0  0
   38.5710   30.7580   38.8780 C   0  0  0  0  0  0  0  0  0  0  0  0
   37.0800   30.9590   38.7210 C   0  0  0  0  0  0  0  0  0  0  0  0
   36.5990   31.8860   39.7610 N   0  0  0  0  0  0  0  0  0  0  0  0
   36.4690   31.1000   40.9400 C   0  0  0  0  0  0  0  0  0  0  0  0
   37.7870   30.5370   41.3400 C   0  0  1  0  0  0  0  0  0  0  0  0
   38.8250   29.8130   38.3570 H   0  0  0  0  0  0  0  0  0  0  0  0
   39.1310   31.6260   38.4770 H   0  0  0  0  0  0  0  0  0  0  0  0
   36.9340   31.4990   37.7570 H   0  0  0  0  0  0  0  0  0  0  0  0
   36.5200   30.0200   38.7210 H   0  0  0  0  0  0  0  0  0  0  0  0
   35.7640   32.3990   39.4690 H   0  0  0  0  0  0  0  0  0  0  0  0
   35.6680   30.3310   40.7960 H   0  0  0  0  0  0  0  0  0  0  0  0
   36.0820   31.7800   41.7360 H   0  0  0  0  0  0  0  0  0  0  0  0
   38.1830   31.1030   42.2110 H   0  0  0  0  0  0  0  0  0  0  0  0
   37.2200   28.3730   39.5750 F   0  0  0  0  0  0  0  0  0  0  0  0
   37.2640   28.1410   40.9070 C   0  0  0  0  0  0  0  0  0  0  0  0
   37.5350   29.1490   41.8210 C   0  0  0  0  0  0  0  0  0  0  0  0
   37.5670   28.8620   43.1480 C   0  0  0  0  0  0  0  0  0  0  0  0
   37.7780   29.6500   43.8590 H   0  0  0  0  0  0  0  0  0  0  0  0
   37.3420   27.5920   43.6760 C   0  0  0  0  0  0  0  0  0  0  0  0
   37.3650   27.3520   44.7180 H   0  0  0  0  0  0  0  0  0  0  0  0
   37.0750   26.6140   42.7160 C   0  0  0  0  0  3  0  0  0  0  0  0
   37.0300   26.8530   41.3570 C   0  0  0  0  0  3  0  0  0  0  0  0
   41.5340   30.7020   40.2890 O   0  0  0  0  0  0  0  0  0  0  0  0
   41.7010   33.3270   40.0840 O   0  0  0  0  0  0  0  0  0  0  0  0
   42.3040   31.9880   39.5880 P   0  0  1  0  0  0  0  0  0  0  0  0
   43.9320   32.0350   39.9830 O   0  0  0  0  0  0  0  0  0  0  0  0
   44.3720   31.1680   39.7730 H   0  0  0  0  0  0  0  0  0  0  0  0
   42.0930   31.9420   37.9080 O   0  0  0  0  0  0  0  0  0  0  0  0
   43.6380   29.9630   35.2910 C   0  0  0  0  0  0  0  0  0  0  0  0
   42.6840   30.4930   36.1940 C   0  0  0  0  0  0  0  0  0  0  0  0
   43.0640   31.4750   37.0630 C   0  0  0  0  0  0  0  0  0  0  0  0
   44.3500   31.9260   37.0490 N   0  0  0  0  0  0  0  0  0  0  0  0
   45.2500   31.4080   36.1780 C   0  0  0  0  0  0  0  0  0  0  0  0
   44.9090   30.4390   35.3080 N   0  0  0  0  0  0  0  0  0  0  0  0
   43.4130   29.1880   34.5780 H   0  0  0  0  0  0  0  0  0  0  0  0
   41.7350   30.0300   36.0720 H   0  0  0  0  0  0  0  0  0  0  0  0
   46.2670   31.7750   36.1780 H   0  0  0  0  0  0  0  0  0  0  0  0
  1  2  2  0  0  0  0
  3  1  1  0  0  0  0
  3  8  1  0  0  0  0
  4  3  1  0  0  0  0
  5 12  1  0  0  0  0
  5  4  1  0  0  0  0
  5  6  1  0  0  0  0
  6  7  1  0  0  0  0
  7  8  1  0  0  0  0
  7 15  1  0  0  0  0
  8 19  1  0  0  0  0
  8 16  1  1  0  0  0
  9  4  1  0  0  0  0
 10  4  1  0  0  0  0
 11  5  1  0  0  0  0
 13  6  1  0  0  0  0
 14  7  1  0  0  0  0
 17 18  1  0  0  0  0
 18 25  2  0  0  0  0
 18 19  1  0  0  0  0
 19 20  2  0  0  0  0
 20 22  1  0  0  0  0
 20 21  1  0  0  0  0
 22 23  1  0  0  0  0
 24 22  2  0  0  0  0
 25 24  1  0  0  0  0
 26  1  1  0  0  0  0
 28 29  1  0  0  0  0
 28 27  2  1  0  0  0
 28 26  1  0  0  0  0
 30 29  1  0  0  0  0
 31 28  1  0  0  0  0
 32 37  2  0  0  0  0
 32 33  1  0  0  0  0
 33 34  2  0  0  0  0
 34 31  1  0  0  0  0
 35 34  1  0  0  0  0
 36 40  1  0  0  0  0
 36 35  2  0  0  0  0
 37 36  1  0  0  0  0
 38 32  1  0  0  0  0
 39 33  1  0  0  0  0
M  END
>  <minimizedAffinity>
-5.61584044

$$$$

 OpenBabel03242522553D

 40 42  0  0  1  0  0  0  0  0999 V2000
   39.4530   28.5260   39.4310 C   0  0  0  0  0  0  0  0  0  0  0  0
   40.1900   27.8420   40.2170 O   0  0  0  0  0  0  0  0  0  0  0  0
   38.4470   28.5650   40.4370 N   0  0  0  0  0  0  0  0  0  0  0  0
   37.1430   28.6340   39.7790 C   0  0  0  0  0  0  0  0  0  0  0  0
   36.1240   28.7700   40.8890 C   0  0  0  0  0  0  0  0  0  0  0  0
   36.6090   29.7440   41.8830 N   0  0  0  0  0  0  0  0  0  0  0  0
   37.5390   29.0310   42.6900 C   0  0  0  0  0  0  0  0  0  0  0  0
   38.6780   28.5420   41.8670 C   0  0  1  0  0  0  0  0  0  0  0  0
   36.9430   27.6680   39.2750 H   0  0  0  0  0  0  0  0  0  0  0  0
   37.0880   29.4950   39.0840 H   0  0  0  0  0  0  0  0  0  0  0  0
   35.2230   29.2420   40.4330 H   0  0  0  0  0  0  0  0  0  0  0  0
   35.8620   27.8140   41.3480 H   0  0  0  0  0  0  0  0  0  0  0  0
   35.8450   30.2060   42.3810 H   0  0  0  0  0  0  0  0  0  0  0  0
   37.0070   28.2250   43.2580 H   0  0  0  0  0  0  0  0  0  0  0  0
   37.9020   29.7450   43.4680 H   0  0  0  0  0  0  0  0  0  0  0  0
   39.5710   29.1770   42.0570 H   0  0  0  0  0  0  0  0  0  0  0  0
   40.8710   28.0470   43.6180 F   0  0  0  0  0  0  0  0  0  0  0  0
   40.1020   27.0090   43.2180 C   0  0  0  0  0  0  0  0  0  0  0  0
   39.0190   27.1800   42.3670 C   0  0  0  0  0  0  0  0  0  0  0  0
   38.2800   26.1040   41.9960 C   0  0  0  0  0  0  0  0  0  0  0  0
   37.4360   26.2400   41.3320 H   0  0  0  0  0  0  0  0  0  0  0  0
   38.5340   24.8000   42.4180 C   0  0  0  0  0  0  0  0  0  0  0  0
   37.9600   23.9440   42.1340 H   0  0  0  0  0  0  0  0  0  0  0  0
   39.6320   24.6820   43.2730 C   0  0  0  0  0  3  0  0  0  0  0  0
   40.4160   25.7430   43.6800 C   0  0  0  0  0  3  0  0  0  0  0  0
   40.0290   28.7770   38.2210 O   0  0  0  0  0  0  0  0  0  0  0  0
   42.2580   30.0760   38.7710 O   0  0  0  0  0  0  0  0  0  0  0  0
   41.0890   29.9600   37.7600 P   0  0  1  0  0  0  0  0  0  0  0  0
   41.7900   29.6300   36.2740 O   0  0  0  0  0  0  0  0  0  0  0  0
   41.0930   29.4540   35.5850 H   0  0  0  0  0  0  0  0  0  0  0  0
   40.3050   31.4620   37.7350 O   0  0  0  0  0  0  0  0  0  0  0  0
   37.0820   32.2730   39.1880 C   0  0  0  0  0  0  0  0  0  0  0  0
   38.0880   31.9080   38.2610 C   0  0  0  0  0  0  0  0  0  0  0  0
   39.3840   31.8190   38.6830 C   0  0  0  0  0  0  0  0  0  0  0  0
   39.6860   32.0840   39.9860 N   0  0  0  0  0  0  0  0  0  0  0  0
   38.7110   32.4310   40.8610 C   0  0  0  0  0  0  0  0  0  0  0  0
   37.4240   32.5280   40.4770 N   0  0  0  0  0  0  0  0  0  0  0  0
   36.0420   32.3630   38.9290 H   0  0  0  0  0  0  0  0  0  0  0  0
   37.6810   31.7390   37.2930 H   0  0  0  0  0  0  0  0  0  0  0  0
   38.9650   32.6380   41.8910 H   0  0  0  0  0  0  0  0  0  0  0  0
  1  2  2  0  0  0  0
  1  3  1  0  0  0  0
  3  8  1  0  0  0  0
  4  3  1  0  0  0  0
  4  5  1  0  0  0  0
  5 12  1  0  0  0  0
  5  6  1  0  0  0  0
  6 13  1  0  0  0  0
  6  7  1  0  0  0  0
  7 14  1  0  0  0  0
  7 15  1  0  0  0  0
  8 16  1  1  0  0  0
  8 19  1  0  0  0  0
  8  7  1  0  0  0  0
  9  4  1  0  0  0  0
 10  4  1  0  0  0  0
 11  5  1  0  0  0  0
 18 17  1  0  0  0  0
 18 25  1  0  0  0  0
 19 18  2  0  0  0  0
 20 19  1  0  0  0  0
 20 22  2  0  0  0  0
 21 20  1  0  0  0  0
 22 24  1  0  0  0  0
 23 22  1  0  0  0  0
 24 25  2  0  0  0  0
 26  1  1  0  0  0  0
 28 26  1  0  0  0  0
 28 27  2  1  0  0  0
 29 28  1  0  0  0  0
 30 29  1  0  0  0  0
 31 28  1  0  0  0  0
 31 34  1  0  0  0  0
 32 37  1  0  0  0  0
 33 34  1  0  0  0  0
 33 32  2  0  0  0  0
 34 35  2  0  0  0  0
 35 36  1  0  0  0  0
 36 40  1  0  0  0  0
 37 36  2  0  0  0  0
 38 32  1  0  0  0  0
 39 33  1  0  0  0  0
M  END
>  <minimizedAffinity>
-5.60383844

$$$$

 OpenBabel03242522553D

 40 42  0  0  1  0  0  0  0  0999 V2000
   37.1060   28.6640   38.9710 C   0  0  0  0  0  0  0  0  0  0  0  0
   36.5170   27.7270   39.6060 O   0  0  0  0  0  0  0  0  0  0  0  0
   38.0030   27.7060   38.4230 N   0  0  0  0  0  0  0  0  0  0  0  0
   39.2870   28.3650   38.1830 C   0  0  0  0  0  0  0  0  0  0  0  0
   40.1670   27.3310   37.5150 C   0  0  0  0  0  0  0  0  0  0  0  0
   39.3890   26.6180   36.4860 N   0  0  0  0  0  0  0  0  0  0  0  0
   38.6200   25.6510   37.1920 C   0  0  0  0  0  0  0  0  0  0  0  0
   37.6960   26.3170   38.1490 C   0  0  1  0  0  0  0  0  0  0  0  0
   39.7560   28.6050   39.1580 H   0  0  0  0  0  0  0  0  0  0  0  0
   39.1680   29.2580   37.5390 H   0  0  0  0  0  0  0  0  0  0  0  0
   40.9460   27.8960   36.9540 H   0  0  0  0  0  0  0  0  0  0  0  0
   40.6310   26.6430   38.2250 H   0  0  0  0  0  0  0  0  0  0  0  0
   39.9790   26.2590   35.7320 H   0  0  0  0  0  0  0  0  0  0  0  0
   39.3010   24.8980   37.6640 H   0  0  0  0  0  0  0  0  0  0  0  0
   38.0410   25.0820   36.4260 H   0  0  0  0  0  0  0  0  0  0  0  0
   36.6610   26.2930   37.7420 H   0  0  0  0  0  0  0  0  0  0  0  0
   35.4540   24.7300   38.9050 F   0  0  0  0  0  0  0  0  0  0  0  0
   36.5530   24.7330   39.6940 C   0  0  0  0  0  0  0  0  0  0  0  0
   37.6790   25.4840   39.3840 C   0  0  0  0  0  0  0  0  0  0  0  0
   38.7550   25.4510   40.2100 C   0  0  0  0  0  0  0  0  0  0  0  0
   39.6320   26.0370   39.9670 H   0  0  0  0  0  0  0  0  0  0  0  0
   38.8170   24.6990   41.3820 C   0  0  0  0  0  0  0  0  0  0  0  0
   39.6580   24.6650   42.0410 H   0  0  0  0  0  0  0  0  0  0  0  0
   37.6600   23.9630   41.6480 C   0  0  0  0  0  3  0  0  0  0  0  0
   36.5400   23.9610   40.8420 C   0  0  0  0  0  3  0  0  0  0  0  0
   36.5630   29.8970   39.1890 O   0  0  0  0  0  0  0  0  0  0  0  0
   36.9950   32.4250   39.8070 O   0  0  0  0  0  0  0  0  0  0  0  0
   36.8450   30.9970   40.3910 P   0  0  1  0  0  0  0  0  0  0  0  0
   35.5750   31.0720   41.4820 O   0  0  0  0  0  0  0  0  0  0  0  0
   35.3590   30.1680   41.8370 H   0  0  0  0  0  0  0  0  0  0  0  0
   38.2970   30.6300   41.1820 O   0  0  0  0  0  0  0  0  0  0  0  0
   39.8570   27.8860   42.9670 C   0  0  0  0  0  0  0  0  0  0  0  0
   39.6600   28.9980   42.1140 C   0  0  0  0  0  0  0  0  0  0  0  0
   38.4180   29.5580   42.0250 C   0  0  0  0  0  0  0  0  0  0  0  0
   37.3910   29.0380   42.7570 N   0  0  0  0  0  0  0  0  0  0  0  0
   37.5980   27.9730   43.5690 C   0  0  0  0  0  0  0  0  0  0  0  0
   38.8100   27.3970   43.6790 N   0  0  0  0  0  0  0  0  0  0  0  0
   40.8060   27.3920   43.0880 H   0  0  0  0  0  0  0  0  0  0  0  0
   40.5600   29.2730   41.6200 H   0  0  0  0  0  0  0  0  0  0  0  0
   36.7750   27.5710   44.1430 H   0  0  0  0  0  0  0  0  0  0  0  0
  1 26  1  0  0  0  0
  1  2  2  0  0  0  0
  3  1  1  0  0  0  0
  4  3  1  0  0  0  0
  4  9  1  0  0  0  0
  5  4  1  0  0  0  0
  5 12  1  0  0  0  0
  6  7  1  0  0  0  0
  6  5  1  0  0  0  0
  7 14  1  0  0  0  0
  7  8  1  0  0  0  0
  8 16  1  6  0  0  0
  8  3  1  0  0  0  0
  8 19  1  0  0  0  0
 10  4  1  0  0  0  0
 11  5  1  0  0  0  0
 13  6  1  0  0  0  0
 15  7  1  0  0  0  0
 17 18  1  0  0  0  0
 18 25  1  0  0  0  0
 19 18  2  0  0  0  0
 19 20  1  0  0  0  0
 20 22  2  0  0  0  0
 21 20  1  0  0  0  0
 22 24  1  0  0  0  0
 22 23  1  0  0  0  0
 25 24  2  0  0  0  0
 26 28  1  0  0  0  0
 28 27  2  6  0  0  0
 28 31  1  0  0  0  0
 28 29  1  0  0  0  0
 29 30  1  0  0  0  0
 31 34  1  0  0  0  0
 32 38  1  0  0  0  0
 32 37  1  0  0  0  0
 33 32  2  0  0  0  0
 34 33  1  0  0  0  0
 34 35  2  0  0  0  0
 35 36  1  0  0  0  0
 36 37  2  0  0  0  0
 36 40  1  0  0  0  0
 39 33  1  0  0  0  0
M  END
>  <minimizedAffinity>
-5.58599234

$$$$

 OpenBabel03242522553D

 40 42  0  0  1  0  0  0  0  0999 V2000
   39.0240   30.1600   41.2040 C   0  0  0  0  0  0  0  0  0  0  0  0
   38.4600   29.9900   40.0710 O   0  0  0  0  0  0  0  0  0  0  0  0
   38.2750   29.0680   41.7220 N   0  0  0  0  0  0  0  0  0  0  0  0
   38.0490   29.3020   43.1470 C   0  0  0  0  0  0  0  0  0  0  0  0
   37.3360   28.0710   43.6640 C   0  0  0  0  0  0  0  0  0  0  0  0
   37.9760   26.8660   43.1070 N   0  0  0  0  0  0  0  0  0  0  0  0
   37.4570   26.7340   41.7890 C   0  0  0  0  0  0  0  0  0  0  0  0
   37.8180   27.9190   40.9650 C   0  0  1  0  0  0  0  0  0  0  0  0
   37.3480   30.1530   43.2650 H   0  0  0  0  0  0  0  0  0  0  0  0
   39.0030   29.4610   43.6860 H   0  0  0  0  0  0  0  0  0  0  0  0
   37.5350   28.0290   44.7590 H   0  0  0  0  0  0  0  0  0  0  0  0
   36.2610   28.0880   43.4710 H   0  0  0  0  0  0  0  0  0  0  0  0
   37.8670   26.0510   43.7160 H   0  0  0  0  0  0  0  0  0  0  0  0
   36.3580   26.5260   41.8340 H   0  0  0  0  0  0  0  0  0  0  0  0
   37.9120   25.8100   41.3570 H   0  0  0  0  0  0  0  0  0  0  0  0
   38.6390   27.6490   40.2660 H   0  0  0  0  0  0  0  0  0  0  0  0
   37.6640   27.2090   38.2100 F   0  0  0  0  0  0  0  0  0  0  0  0
   36.6230   27.8580   38.7810 C   0  0  0  0  0  0  0  0  0  0  0  0
   36.6330   28.2330   40.1180 C   0  0  0  0  0  0  0  0  0  0  0  0
   35.5610   28.8820   40.6410 C   0  0  0  0  0  0  0  0  0  0  0  0
   35.5710   29.1730   41.6830 H   0  0  0  0  0  0  0  0  0  0  0  0
   34.4180   29.2110   39.9150 C   0  0  0  0  0  0  0  0  0  0  0  0
   33.5680   29.7220   40.3140 H   0  0  0  0  0  0  0  0  0  0  0  0
   34.4580   28.8120   38.5770 C   0  0  0  0  0  3  0  0  0  0  0  0
   35.5210   28.1500   37.9960 C   0  0  0  0  0  3  0  0  0  0  0  0
   39.9180   31.1910   41.2200 O   0  0  0  0  0  0  0  0  0  0  0  0
   38.4980   33.3850   40.8610 O   0  0  0  0  0  0  0  0  0  0  0  0
   39.8410   32.6890   40.5240 P   0  0  1  0  0  0  0  0  0  0  0  0
   41.0470   33.7060   41.0910 O   0  0  0  0  0  0  0  0  0  0  0  0
   41.9430   33.2850   40.9890 H   0  0  0  0  0  0  0  0  0  0  0  0
   39.9170   32.5480   38.8370 O   0  0  0  0  0  0  0  0  0  0  0  0
   42.3450   30.8710   36.7300 C   0  0  0  0  0  0  0  0  0  0  0  0
   41.1580   31.1720   37.4400 C   0  0  0  0  0  0  0  0  0  0  0  0
   41.0940   32.3200   38.1770 C   0  0  0  0  0  0  0  0  0  0  0  0
   42.1720   33.1530   38.2190 N   0  0  0  0  0  0  0  0  0  0  0  0
   43.3010   32.8500   37.5330 C   0  0  0  0  0  0  0  0  0  0  0  0
   43.3970   31.7270   36.7970 N   0  0  0  0  0  0  0  0  0  0  0  0
   42.4700   29.9870   36.1290 H   0  0  0  0  0  0  0  0  0  0  0  0
   40.4200   30.4190   37.2990 H   0  0  0  0  0  0  0  0  0  0  0  0
   44.1480   33.5210   37.5750 H   0  0  0  0  0  0  0  0  0  0  0  0
  1 26  1  0  0  0  0
  1  3  1  0  0  0  0
  2  1  2  0  0  0  0
  3  4  1  0  0  0  0
  4  9  1  0  0  0  0
  4  5  1  0  0  0  0
  4 10  1  0  0  0  0
  5 11  1  0  0  0  0
  6  5  1  0  0  0  0
  6 13  1  0  0  0  0
  7 14  1  0  0  0  0
  7  6  1  0  0  0  0
  8 16  1  6  0  0  0
  8  3  1  0  0  0  0
  8  7  1  0  0  0  0
 12  5  1  0  0  0  0
 15  7  1  0  0  0  0
 17 18  1  0  0  0  0
 18 19  1  0  0  0  0
 19 20  2  0  0  0  0
 19  8  1  0  0  0  0
 20 21  1  0  0  0  0
 22 23  1  0  0  0  0
 22 20  1  0  0  0  0
 24 22  2  0  0  0  0
 25 24  1  0  0  0  0
 25 18  2  0  0  0  0
 28 27  2  1  0  0  0
 28 29  1  0  0  0  0
 28 26  1  0  0  0  0
 30 29  1  0  0  0  0
 31 28  1  0  0  0  0
 32 37  2  0  0  0  0
 32 33  1  0  0  0  0
 33 34  2  0  0  0  0
 34 35  1  0  0  0  0
 34 31  1  0  0  0  0
 36 40  1  0  0  0  0
 36 35  2  0  0  0  0
 37 36  1  0  0  0  0
 38 32  1  0  0  0  0
 39 33  1  0  0  0  0
M  END
>  <minimizedAffinity>
-5.53805017

$$$$

 OpenBabel03242522553D

 40 42  0  0  1  0  0  0  0  0999 V2000
   39.7490   28.7060   40.0730 C   0  0  0  0  0  0  0  0  0  0  0  0
   40.0050   27.5300   40.5010 O   0  0  0  0  0  0  0  0  0  0  0  0
   38.5760   28.7250   40.8780 N   0  0  0  0  0  0  0  0  0  0  0  0
   37.5790   29.5650   40.2160 C   0  0  0  0  0  0  0  0  0  0  0  0
   36.3950   29.6260   41.1570 C   0  0  0  0  0  0  0  0  0  0  0  0
   36.8760   29.8300   42.5350 N   0  0  0  0  0  0  0  0  0  0  0  0
   37.2940   28.5470   42.9860 C   0  0  0  0  0  0  0  0  0  0  0  0
   38.4020   28.0310   42.1380 C   0  0  1  0  0  0  0  0  0  0  0  0
   37.2320   29.0540   39.2960 H   0  0  0  0  0  0  0  0  0  0  0  0
   37.9760   30.5790   40.0140 H   0  0  0  0  0  0  0  0  0  0  0  0
   35.8380   30.5570   40.9010 H   0  0  0  0  0  0  0  0  0  0  0  0
   35.7410   28.7550   41.0780 H   0  0  0  0  0  0  0  0  0  0  0  0
   36.1880   30.3100   43.1200 H   0  0  0  0  0  0  0  0  0  0  0  0
   36.4100   27.8630   43.0480 H   0  0  0  0  0  0  0  0  0  0  0  0
   37.6400   28.6750   44.0390 H   0  0  0  0  0  0  0  0  0  0  0  0
   39.3640   28.1230   42.6890 H   0  0  0  0  0  0  0  0  0  0  0  0
   39.8870   26.0400   43.5350 F   0  0  0  0  0  0  0  0  0  0  0  0
   38.9230   25.6540   42.6680 C   0  0  0  0  0  0  0  0  0  0  0  0
   38.1630   26.5720   41.9560 C   0  0  0  0  0  0  0  0  0  0  0  0
   37.2070   26.1300   41.0980 C   0  0  0  0  0  0  0  0  0  0  0  0
   36.6160   26.8470   40.5440 H   0  0  0  0  0  0  0  0  0  0  0  0
   36.9240   24.7840   40.8720 C   0  0  0  0  0  0  0  0  0  0  0  0
   36.1740   24.4230   40.2000 H   0  0  0  0  0  0  0  0  0  0  0  0
   37.7150   23.9030   41.6130 C   0  0  0  0  0  3  0  0  0  0  0  0
   38.6990   24.2990   42.4960 C   0  0  0  0  0  3  0  0  0  0  0  0
   40.6720   29.1780   39.1870 O   0  0  0  0  0  0  0  0  0  0  0  0
   40.2680   28.1130   36.8080 O   0  0  0  0  0  0  0  0  0  0  0  0
   40.5630   29.4370   37.5570 P   0  0  1  0  0  0  0  0  0  0  0  0
   39.3080   30.4800   37.1710 O   0  0  0  0  0  0  0  0  0  0  0  0
   39.3810   31.3280   37.6870 H   0  0  0  0  0  0  0  0  0  0  0  0
   42.0370   30.0240   36.9650 O   0  0  0  0  0  0  0  0  0  0  0  0
   44.2550   32.8510   37.4530 C   0  0  0  0  0  0  0  0  0  0  0  0
   43.7760   31.5330   37.2620 C   0  0  0  0  0  0  0  0  0  0  0  0
   42.4310   31.3220   37.1470 C   0  0  0  0  0  0  0  0  0  0  0  0
   41.5760   32.3820   37.2190 N   0  0  0  0  0  0  0  0  0  0  0  0
   42.0520   33.6380   37.4020 C   0  0  0  0  0  0  0  0  0  0  0  0
   43.3720   33.8790   37.5190 N   0  0  0  0  0  0  0  0  0  0  0  0
   45.2990   33.0940   37.5520 H   0  0  0  0  0  0  0  0  0  0  0  0
   44.5730   30.8300   37.2310 H   0  0  0  0  0  0  0  0  0  0  0  0
   41.3620   34.4680   37.4570 H   0  0  0  0  0  0  0  0  0  0  0  0
  1  2  2  0  0  0  0
  1  3  1  0  0  0  0
  3  8  1  0  0  0  0
  4  3  1  0  0  0  0
  4  5  1  0  0  0  0
  5  6  1  0  0  0  0
  6  7  1  0  0  0  0
  6 13  1  0  0  0  0
  7 14  1  0  0  0  0
  7 15  1  0  0  0  0
  8 16  1  1  0  0  0
  8  7  1  0  0  0  0
  9  4  1  0  0  0  0
 10  4  1  0  0  0  0
 11  5  1  0  0  0  0
 12  5  1  0  0  0  0
 18 17  1  0  0  0  0
 19  8  1  0  0  0  0
 19 18  2  0  0  0  0
 20 19  1  0  0  0  0
 21 20  1  0  0  0  0
 22 20  2  0  0  0  0
 22 24  1  0  0  0  0
 23 22  1  0  0  0  0
 24 25  2  0  0  0  0
 25 18  1  0  0  0  0
 26  1  1  0  0  0  0
 28 27  2  6  0  0  0
 28 26  1  0  0  0  0
 29 28  1  0  0  0  0
 29 30  1  0  0  0  0
 31 34  1  0  0  0  0
 31 28  1  0  0  0  0
 32 37  1  0  0  0  0
 32 38  1  0  0  0  0
 33 32  2  0  0  0  0
 34 35  2  0  0  0  0
 34 33  1  0  0  0  0
 35 36  1  0  0  0  0
 36 40  1  0  0  0  0
 36 37  2  0  0  0  0
 39 33  1  0  0  0  0
M  END
>  <minimizedAffinity>
-5.53569078

$$$$

 OpenBabel03242522553D

 40 42  0  0  1  0  0  0  0  0999 V2000
   39.7730   29.0970   40.0870 C   0  0  0  0  0  0  0  0  0  0  0  0
   40.4610   28.2330   40.7270 O   0  0  0  0  0  0  0  0  0  0  0  0
   38.6980   28.8900   40.9950 N   0  0  0  0  0  0  0  0  0  0  0  0
   37.4440   29.1310   40.2830 C   0  0  0  0  0  0  0  0  0  0  0  0
   36.3460   28.9910   41.3160 C   0  0  0  0  0  0  0  0  0  0  0  0
   36.7490   29.6800   42.5540 N   0  0  0  0  0  0  0  0  0  0  0  0
   37.6260   28.7810   43.2220 C   0  0  0  0  0  0  0  0  0  0  0  0
   38.8270   28.5070   42.3870 C   0  0  1  0  0  0  0  0  0  0  0  0
   37.2910   28.3230   39.5400 H   0  0  0  0  0  0  0  0  0  0  0  0
   37.4280   30.1380   39.8240 H   0  0  0  0  0  0  0  0  0  0  0  0
   35.4750   29.5690   40.9290 H   0  0  0  0  0  0  0  0  0  0  0  0
   36.0640   27.9520   41.5000 H   0  0  0  0  0  0  0  0  0  0  0  0
   35.9450   30.0080   43.0950 H   0  0  0  0  0  0  0  0  0  0  0  0
   37.0650   27.8630   43.5290 H   0  0  0  0  0  0  0  0  0  0  0  0
   37.9240   29.2760   44.1770 H   0  0  0  0  0  0  0  0  0  0  0  0
   39.6970   29.0680   42.7930 H   0  0  0  0  0  0  0  0  0  0  0  0
   41.1950   27.5910   43.6800 F   0  0  0  0  0  0  0  0  0  0  0  0
   40.3190   26.6830   43.1920 C   0  0  0  0  0  0  0  0  0  0  0  0
   39.1470   27.0610   42.5520 C   0  0  0  0  0  0  0  0  0  0  0  0
   38.3020   26.1090   42.0810 C   0  0  0  0  0  0  0  0  0  0  0  0
   37.3890   26.4060   41.5820 H   0  0  0  0  0  0  0  0  0  0  0  0
   38.5290   24.7390   42.1950 C   0  0  0  0  0  0  0  0  0  0  0  0
   37.8730   23.9780   41.8290 H   0  0  0  0  0  0  0  0  0  0  0  0
   39.7210   24.4120   42.8470 C   0  0  0  0  0  3  0  0  0  0  0  0
   40.6130   25.3400   43.3430 C   0  0  0  0  0  3  0  0  0  0  0  0
   40.4310   29.6400   39.0220 O   0  0  0  0  0  0  0  0  0  0  0  0
   39.1380   31.8590   38.4200 O   0  0  0  0  0  0  0  0  0  0  0  0
   40.5420   31.2100   38.5150 P   0  0  1  0  0  0  0  0  0  0  0  0
   41.4190   32.1550   39.5870 O   0  0  0  0  0  0  0  0  0  0  0  0
   42.3100   31.7490   39.7680 H   0  0  0  0  0  0  0  0  0  0  0  0
   41.2220   31.2710   36.9640 O   0  0  0  0  0  0  0  0  0  0  0  0
   44.4510   30.2000   35.7080 C   0  0  0  0  0  0  0  0  0  0  0  0
   43.0600   30.2680   35.9620 C   0  0  0  0  0  0  0  0  0  0  0  0
   42.5750   31.2640   36.7610 C   0  0  0  0  0  0  0  0  0  0  0  0
   43.4370   32.1730   37.3000 N   0  0  0  0  0  0  0  0  0  0  0  0
   44.7670   32.0930   37.0460 C   0  0  0  0  0  0  0  0  0  0  0  0
   45.2760   31.1230   36.2630 N   0  0  0  0  0  0  0  0  0  0  0  0
   44.9050   29.4450   35.0900 H   0  0  0  0  0  0  0  0  0  0  0  0
   42.5360   29.4860   35.4670 H   0  0  0  0  0  0  0  0  0  0  0  0
   45.4380   32.8210   37.4800 H   0  0  0  0  0  0  0  0  0  0  0  0
  1  2  2  0  0  0  0
  1  3  1  0  0  0  0
  3  8  1  0  0  0  0
  4  3  1  0  0  0  0
  4  5  1  0  0  0  0
  5 12  1  0  0  0  0
  5  6  1  0  0  0  0
  6 13  1  0  0  0  0
  6  7  1  0  0  0  0
  7 14  1  0  0  0  0
  7 15  1  0  0  0  0
  8 19  1  0  0  0  0
  8 16  1  1  0  0  0
  8  7  1  0  0  0  0
  9  4  1  0  0  0  0
 10  4  1  0  0  0  0
 11  5  1  0  0  0  0
 18 25  1  0  0  0  0
 18 17  1  0  0  0  0
 19 18  2  0  0  0  0
 20 22  2  0  0  0  0
 20 19  1  0  0  0  0
 21 20  1  0  0  0  0
 22 24  1  0  0  0  0
 23 22  1  0  0  0  0
 24 25  2  0  0  0  0
 26  1  1  0  0  0  0
 28 27  2  6  0  0  0
 28 26  1  0  0  0  0
 28 29  1  0  0  0  0
 29 30  1  0  0  0  0
 31 28  1  0  0  0  0
 32 33  2  0  0  0  0
 32 37  1  0  0  0  0
 33 34  1  0  0  0  0
 34 31  1  0  0  0  0
 34 35  2  0  0  0  0
 36 35  1  0  0  0  0
 36 40  1  0  0  0  0
 37 36  2  0  0  0  0
 38 32  1  0  0  0  0
 39 33  1  0  0  0  0
M  END
>  <minimizedAffinity>
-5.50433254

$$$$

 OpenBabel03242522553D

 40 42  0  0  1  0  0  0  0  0999 V2000
   37.7430   26.8660   39.8850 C   0  0  0  0  0  0  0  0  0  0  0  0
   36.5010   26.8910   39.5900 O   0  0  0  0  0  0  0  0  0  0  0  0
   37.8290   28.2500   39.5690 N   0  0  0  0  0  0  0  0  0  0  0  0
   39.1800   28.5260   39.0810 C   0  0  0  0  0  0  0  0  0  0  0  0
   39.2430   30.0200   38.8520 C   0  0  0  0  0  0  0  0  0  0  0  0
   38.6060   30.7160   39.9850 N   0  0  0  0  0  0  0  0  0  0  0  0
   37.2070   30.6380   39.7410 C   0  0  0  0  0  0  0  0  0  0  0  0
   36.7610   29.2190   39.7080 C   0  0  1  0  0  0  0  0  0  0  0  0
   39.3100   28.0430   38.0920 H   0  0  0  0  0  0  0  0  0  0  0  0
   39.9460   28.2050   39.8130 H   0  0  0  0  0  0  0  0  0  0  0  0
   40.3200   30.3010   38.9040 H   0  0  0  0  0  0  0  0  0  0  0  0
   38.8150   30.3240   37.8940 H   0  0  0  0  0  0  0  0  0  0  0  0
   38.9860   31.6550   40.1270 H   0  0  0  0  0  0  0  0  0  0  0  0
   36.9510   31.2190   38.8190 H   0  0  0  0  0  0  0  0  0  0  0  0
   36.7060   31.1820   40.5770 H   0  0  0  0  0  0  0  0  0  0  0  0
   36.2300   28.9760   40.6540 H   0  0  0  0  0  0  0  0  0  0  0  0
   33.9650   29.0140   40.2200 F   0  0  0  0  0  0  0  0  0  0  0  0
   34.4010   29.0130   38.9390 C   0  0  0  0  0  0  0  0  0  0  0  0
   35.7480   29.1100   38.6200 C   0  0  0  0  0  0  0  0  0  0  0  0
   36.1320   29.1040   37.3180 C   0  0  0  0  0  0  0  0  0  0  0  0
   37.1820   29.1790   37.0710 H   0  0  0  0  0  0  0  0  0  0  0  0
   35.2480   29.0040   36.2450 C   0  0  0  0  0  0  0  0  0  0  0  0
   35.5360   28.9980   35.2150 H   0  0  0  0  0  0  0  0  0  0  0  0
   33.9050   28.9100   36.6200 C   0  0  0  0  0  3  0  0  0  0  0  0
   33.4630   28.9110   37.9270 C   0  0  0  0  0  3  0  0  0  0  0  0
   38.1850   25.6390   40.2860 O   0  0  0  0  0  0  0  0  0  0  0  0
   36.5740   24.8180   42.2080 O   0  0  0  0  0  0  0  0  0  0  0  0
   38.0530   24.8760   41.7480 P   0  0  1  0  0  0  0  0  0  0  0  0
   38.5800   23.2860   41.6740 O   0  0  0  0  0  0  0  0  0  0  0  0
   39.5000   23.2350   41.2990 H   0  0  0  0  0  0  0  0  0  0  0  0
   38.9070   25.7380   42.9300 O   0  0  0  0  0  0  0  0  0  0  0  0
   40.2720   29.0830   42.6090 C   0  0  0  0  0  0  0  0  0  0  0  0
   40.1520   27.6720   42.6150 C   0  0  0  0  0  0  0  0  0  0  0  0
   38.9530   27.1060   42.9430 C   0  0  0  0  0  0  0  0  0  0  0  0
   37.8950   27.9070   43.2590 N   0  0  0  0  0  0  0  0  0  0  0  0
   38.0280   29.2560   43.2470 C   0  0  0  0  0  0  0  0  0  0  0  0
   39.1950   29.8450   42.9290 N   0  0  0  0  0  0  0  0  0  0  0  0
   41.1830   29.5990   42.3620 H   0  0  0  0  0  0  0  0  0  0  0  0
   41.0670   27.2030   42.3470 H   0  0  0  0  0  0  0  0  0  0  0  0
   37.1800   29.8780   43.5000 H   0  0  0  0  0  0  0  0  0  0  0  0
  1 26  1  0  0  0  0
  2  1  2  0  0  0  0
  3  8  1  0  0  0  0
  3  1  1  0  0  0  0
  4  3  1  0  0  0  0
  4 10  1  0  0  0  0
  5 11  1  0  0  0  0
  5  4  1  0  0  0  0
  5  6  1  0  0  0  0
  6 13  1  0  0  0  0
  7  6  1  0  0  0  0
  7 15  1  0  0  0  0
  8  7  1  0  0  0  0
  8 16  1  1  0  0  0
  9  4  1  0  0  0  0
 12  5  1  0  0  0  0
 14  7  1  0  0  0  0
 18 17  1  0  0  0  0
 19 18  1  0  0  0  0
 19  8  1  0  0  0  0
 20 19  2  0  0  0  0
 21 20  1  0  0  0  0
 22 24  2  0  0  0  0
 22 20  1  0  0  0  0
 23 22  1  0  0  0  0
 24 25  1  0  0  0  0
 25 18  2  0  0  0  0
 26 28  1  0  0  0  0
 28 27  2  1  0  0  0
 28 31  1  0  0  0  0
 29 28  1  0  0  0  0
 30 29  1  0  0  0  0
 31 34  1  0  0  0  0
 32 33  2  0  0  0  0
 32 37  1  0  0  0  0
 33 34  1  0  0  0  0
 34 35  2  0  0  0  0
 36 35  1  0  0  0  0
 36 40  1  0  0  0  0
 37 36  2  0  0  0  0
 38 32  1  0  0  0  0
 39 33  1  0  0  0  0
M  END
>  <minimizedAffinity>
-5.47244215

$$$$
