
 OpenBabel03252503073D

 20 21  0  0  0  0  0  0  0  0999 V2000
   39.5380   32.6180   41.0490 C   0  0  0  0  0  0  0  0  0  0  0  0
   38.6700   31.5660   40.7720 C   0  0  0  0  0  0  0  0  0  0  0  0
   37.5020   31.8620   40.0910 C   0  0  0  0  0  0  0  0  0  0  0  0
   37.2680   33.1610   39.7290 N   0  0  0  0  0  0  0  0  0  0  0  0
   38.1330   34.1600   40.0150 C   0  0  0  0  0  0  0  0  0  0  0  0
   39.2760   33.8920   40.6780 N   0  0  0  0  0  0  0  0  0  0  0  0
   40.4550   32.3760   41.5850 H   0  0  0  0  0  0  0  0  0  0  0  0
   37.8300   35.1460   39.6730 H   0  0  0  0  0  0  0  0  0  0  0  0
   37.3970   31.0490   37.4940 F   0  0  0  0  0  0  0  0  0  0  0  0
   36.5700   30.4760   38.4300 C   0  0  0  0  0  0  0  0  0  0  0  0
   36.5410   30.8110   39.7670 C   0  0  0  0  0  0  0  0  0  0  0  0
   35.6540   30.1440   40.5870 C   0  0  0  0  0  0  0  0  0  0  0  0
   35.7000   30.4680   41.6140 H   0  0  0  0  0  0  0  0  0  0  0  0
   34.8410   29.1780   40.0380 C   0  0  0  0  0  0  0  0  0  0  0  0
   34.1690   28.6930   40.7420 H   0  0  0  0  0  0  0  0  0  0  0  0
   34.8740   28.8470   38.7000 C   0  0  0  0  0  3  0  0  0  0  0  0
   35.7660   29.5170   37.8690 C   0  0  0  0  0  3  0  0  0  0  0  0
   39.0070   30.2460   41.1890 C   0  0  0  0  0  0  0  0  0  0  0  0
   38.8080   29.9410   42.4050 O   0  0  0  0  0  0  0  0  0  0  0  0
   39.3580   29.8960   40.2280 H   0  0  0  0  0  0  0  0  0  0  0  0
  1  7  1  0  0  0  0
  2  1  1  0  0  0  0
  2 18  1  0  0  0  0
  3  2  2  0  0  0  0
  4  5  2  0  0  0  0
  4  3  1  0  0  0  0
  5  6  1  0  0  0  0
  6  1  2  0  0  0  0
  8  5  1  0  0  0  0
  9 10  1  0  0  0  0
 10 11  1  0  0  0  0
 11  3  1  0  0  0  0
 11 12  2  0  0  0  0
 12 13  1  0  0  0  0
 14 12  1  0  0  0  0
 14 15  1  0  0  0  0
 16 14  2  0  0  0  0
 17 10  2  0  0  0  0
 17 16  1  0  0  0  0
 18 19  2  0  0  0  0
 20 18  1  0  0  0  0
M  END
>  <minimizedAffinity>
-4.44597387

$$$$

 OpenBabel03252503073D

 20 21  0  0  0  0  0  0  0  0999 V2000
   38.6080   32.3960   40.6620 C   0  0  0  0  0  0  0  0  0  0  0  0
   37.9440   31.2500   41.0860 C   0  0  0  0  0  0  0  0  0  0  0  0
   38.6840   30.2900   41.7540 C   0  0  0  0  0  0  0  0  0  0  0  0
   40.0180   30.5190   41.9580 N   0  0  0  0  0  0  0  0  0  0  0  0
   40.6330   31.6450   41.5320 C   0  0  0  0  0  0  0  0  0  0  0  0
   39.9290   32.5920   40.8800 N   0  0  0  0  0  0  0  0  0  0  0  0
   38.0180   33.1470   40.1380 H   0  0  0  0  0  0  0  0  0  0  0  0
   41.6940   31.7060   41.7570 H   0  0  0  0  0  0  0  0  0  0  0  0
   38.6050   28.2020   40.0080 F   0  0  0  0  0  0  0  0  0  0  0  0
   38.0680   28.0690   41.2660 C   0  0  0  0  0  0  0  0  0  0  0  0
   38.0560   29.0590   42.2260 C   0  0  0  0  0  0  0  0  0  0  0  0
   37.4810   28.7740   43.4480 C   0  0  0  0  0  0  0  0  0  0  0  0
   37.5160   29.6030   44.1360 H   0  0  0  0  0  0  0  0  0  0  0  0
   36.9480   27.5220   43.6540 C   0  0  0  0  0  0  0  0  0  0  0  0
   36.5140   27.3680   44.6390 H   0  0  0  0  0  0  0  0  0  0  0  0
   36.9640   26.5350   42.6910 C   0  0  0  0  0  3  0  0  0  0  0  0
   37.5420   26.8170   41.4580 C   0  0  0  0  0  3  0  0  0  0  0  0
   36.5500   31.1060   40.8270 C   0  0  0  0  0  0  0  0  0  0  0  0
   36.2010   30.6880   39.6800 O   0  0  0  0  0  0  0  0  0  0  0  0
   36.2060   31.4350   41.7980 H   0  0  0  0  0  0  0  0  0  0  0  0
  1  6  2  0  0  0  0
  1  2  1  0  0  0  0
  2  3  2  0  0  0  0
  3  4  1  0  0  0  0
  3 11  1  0  0  0  0
  5  8  1  0  0  0  0
  5  4  2  0  0  0  0
  6  5  1  0  0  0  0
  7  1  1  0  0  0  0
  9 10  1  0  0  0  0
 10 17  2  0  0  0  0
 10 11  1  0  0  0  0
 11 12  2  0  0  0  0
 12 14  1  0  0  0  0
 12 13  1  0  0  0  0
 14 15  1  0  0  0  0
 16 14  2  0  0  0  0
 17 16  1  0  0  0  0
 18  2  1  0  0  0  0
 18 20  1  0  0  0  0
 19 18  2  0  0  0  0
M  END
>  <minimizedAffinity>
-4.26656961

$$$$

 OpenBabel03252503073D

 20 21  0  0  0  0  0  0  0  0999 V2000
   39.2700   31.5280   39.1120 C   0  0  0  0  0  0  0  0  0  0  0  0
   38.9090   30.4100   39.8590 C   0  0  0  0  0  0  0  0  0  0  0  0
   37.7890   30.5130   40.6650 C   0  0  0  0  0  0  0  0  0  0  0  0
   37.1030   31.6970   40.6830 N   0  0  0  0  0  0  0  0  0  0  0  0
   37.4820   32.7660   39.9450 C   0  0  0  0  0  0  0  0  0  0  0  0
   38.5710   32.6850   39.1550 N   0  0  0  0  0  0  0  0  0  0  0  0
   40.1530   31.4380   38.4800 H   0  0  0  0  0  0  0  0  0  0  0  0
   36.8530   33.6450   40.0490 H   0  0  0  0  0  0  0  0  0  0  0  0
   38.8430   30.3200   43.1680 F   0  0  0  0  0  0  0  0  0  0  0  0
   37.9440   29.3800   42.7240 C   0  0  0  0  0  0  0  0  0  0  0  0
   37.3500   29.3830   41.4790 C   0  0  0  0  0  0  0  0  0  0  0  0
   36.4630   28.3700   41.1780 C   0  0  0  0  0  0  0  0  0  0  0  0
   36.0480   28.4510   40.1870 H   0  0  0  0  0  0  0  0  0  0  0  0
   36.2110   27.4050   42.1280 C   0  0  0  0  0  0  0  0  0  0  0  0
   35.5020   26.6400   41.8220 H   0  0  0  0  0  0  0  0  0  0  0  0
   36.8070   27.4070   43.3710 C   0  0  0  0  0  3  0  0  0  0  0  0
   37.7010   28.4260   43.6800 C   0  0  0  0  0  3  0  0  0  0  0  0
   39.6880   29.2210   39.7680 C   0  0  0  0  0  0  0  0  0  0  0  0
   39.3780   28.3780   38.8710 O   0  0  0  0  0  0  0  0  0  0  0  0
   40.3640   29.4500   40.5810 H   0  0  0  0  0  0  0  0  0  0  0  0
  1  6  2  0  0  0  0
  1  2  1  0  0  0  0
  2  3  2  0  0  0  0
  3  4  1  0  0  0  0
  3 11  1  0  0  0  0
  5  8  1  0  0  0  0
  5  4  2  0  0  0  0
  6  5  1  0  0  0  0
  7  1  1  0  0  0  0
 10  9  1  0  0  0  0
 10 17  1  0  0  0  0
 11 10  2  0  0  0  0
 12 11  1  0  0  0  0
 12 14  2  0  0  0  0
 13 12  1  0  0  0  0
 14 16  1  0  0  0  0
 15 14  1  0  0  0  0
 16 17  2  0  0  0  0
 18  2  1  0  0  0  0
 18 20  1  0  0  0  0
 19 18  2  0  0  0  0
M  END
>  <minimizedAffinity>
-4.23087883

$$$$

 OpenBabel03252503073D

 20 21  0  0  0  0  0  0  0  0999 V2000
   38.2110   29.6790   42.6490 C   0  0  0  0  0  0  0  0  0  0  0  0
   37.4690   29.6300   41.4720 C   0  0  0  0  0  0  0  0  0  0  0  0
   36.5250   28.6260   41.3510 C   0  0  0  0  0  0  0  0  0  0  0  0
   36.3730   27.7430   42.3870 N   0  0  0  0  0  0  0  0  0  0  0  0
   37.1110   27.8190   43.5170 C   0  0  0  0  0  0  0  0  0  0  0  0
   38.0360   28.7890   43.6540 N   0  0  0  0  0  0  0  0  0  0  0  0
   38.9510   30.4730   42.7360 H   0  0  0  0  0  0  0  0  0  0  0  0
   36.8940   27.0590   44.2630 H   0  0  0  0  0  0  0  0  0  0  0  0
   37.3130   26.7800   39.5110 F   0  0  0  0  0  0  0  0  0  0  0  0
   36.1970   27.5500   39.2820 C   0  0  0  0  0  0  0  0  0  0  0  0
   35.7110   28.5100   40.1450 C   0  0  0  0  0  0  0  0  0  0  0  0
   34.5750   29.2010   39.7760 C   0  0  0  0  0  0  0  0  0  0  0  0
   34.2670   29.9300   40.5080 H   0  0  0  0  0  0  0  0  0  0  0  0
   33.9800   28.9050   38.5700 C   0  0  0  0  0  0  0  0  0  0  0  0
   33.0900   29.4880   38.3460 H   0  0  0  0  0  0  0  0  0  0  0  0
   34.4710   27.9440   37.7110 C   0  0  0  0  0  3  0  0  0  0  0  0
   35.6150   27.2440   38.0780 C   0  0  0  0  0  3  0  0  0  0  0  0
   37.7010   30.5980   40.4530 C   0  0  0  0  0  0  0  0  0  0  0  0
   37.1520   31.7360   40.5820 O   0  0  0  0  0  0  0  0  0  0  0  0
   38.3400   29.9820   39.8360 H   0  0  0  0  0  0  0  0  0  0  0  0
  1  7  1  0  0  0  0
  1  6  1  0  0  0  0
  2  1  2  0  0  0  0
  3  2  1  0  0  0  0
  3  4  2  0  0  0  0
  4  5  1  0  0  0  0
  5  6  2  0  0  0  0
  5  8  1  0  0  0  0
 10  9  1  0  0  0  0
 10 11  1  0  0  0  0
 11  3  1  0  0  0  0
 12 11  2  0  0  0  0
 12 13  1  0  0  0  0
 14 12  1  0  0  0  0
 15 14  1  0  0  0  0
 16 17  1  0  0  0  0
 16 14  2  0  0  0  0
 17 10  2  0  0  0  0
 18 19  2  0  0  0  0
 18  2  1  0  0  0  0
 20 18  1  0  0  0  0
M  END
>  <minimizedAffinity>
-4.22602463

$$$$

 OpenBabel03252503073D

 20 21  0  0  0  0  0  0  0  0999 V2000
   36.9990   31.1330   38.3170 C   0  0  0  0  0  0  0  0  0  0  0  0
   37.2420   30.6880   39.6130 C   0  0  0  0  0  0  0  0  0  0  0  0
   37.4970   29.3390   39.7910 C   0  0  0  0  0  0  0  0  0  0  0  0
   37.4970   28.5250   38.6910 N   0  0  0  0  0  0  0  0  0  0  0  0
   37.2570   28.9900   37.4440 C   0  0  0  0  0  0  0  0  0  0  0  0
   37.0060   30.3000   37.2510 N   0  0  0  0  0  0  0  0  0  0  0  0
   36.8000   32.1960   38.1860 H   0  0  0  0  0  0  0  0  0  0  0  0
   37.2860   28.2410   36.6580 H   0  0  0  0  0  0  0  0  0  0  0  0
   35.3490   28.4100   41.1820 F   0  0  0  0  0  0  0  0  0  0  0  0
   36.6050   28.3590   41.7370 C   0  0  0  0  0  0  0  0  0  0  0  0
   37.7570   28.7990   41.1220 C   0  0  0  0  0  0  0  0  0  0  0  0
   38.9490   28.6780   41.8080 C   0  0  0  0  0  0  0  0  0  0  0  0
   39.7960   29.0460   41.2530 H   0  0  0  0  0  0  0  0  0  0  0  0
   38.9350   28.1270   43.0690 C   0  0  0  0  0  0  0  0  0  0  0  0
   39.9080   28.0620   43.5490 H   0  0  0  0  0  0  0  0  0  0  0  0
   37.7790   27.6880   43.6800 C   0  0  0  0  0  3  0  0  0  0  0  0
   36.5760   27.8070   42.9920 C   0  0  0  0  0  3  0  0  0  0  0  0
   37.2220   31.6180   40.6930 C   0  0  0  0  0  0  0  0  0  0  0  0
   38.0520   32.5780   40.6620 O   0  0  0  0  0  0  0  0  0  0  0  0
   36.4170   31.1530   41.2450 H   0  0  0  0  0  0  0  0  0  0  0  0
  1  2  1  0  0  0  0
  2  3  2  0  0  0  0
  2 18  1  0  0  0  0
  3 11  1  0  0  0  0
  4  3  1  0  0  0  0
  5  4  2  0  0  0  0
  6  5  1  0  0  0  0
  6  1  2  0  0  0  0
  7  1  1  0  0  0  0
  8  5  1  0  0  0  0
  9 10  1  0  0  0  0
 10 17  1  0  0  0  0
 11 10  2  0  0  0  0
 11 12  1  0  0  0  0
 12 14  2  0  0  0  0
 13 12  1  0  0  0  0
 14 15  1  0  0  0  0
 14 16  1  0  0  0  0
 17 16  2  0  0  0  0
 18 20  1  0  0  0  0
 19 18  2  0  0  0  0
M  END
>  <minimizedAffinity>
-4.22018719

$$$$

 OpenBabel03252503073D

 20 21  0  0  0  0  0  0  0  0999 V2000
   37.7680   30.8620   38.1460 C   0  0  0  0  0  0  0  0  0  0  0  0
   37.9520   29.9080   39.1430 C   0  0  0  0  0  0  0  0  0  0  0  0
   37.6630   30.2770   40.4450 C   0  0  0  0  0  0  0  0  0  0  0  0
   37.2150   31.5490   40.6790 N   0  0  0  0  0  0  0  0  0  0  0  0
   37.0470   32.4530   39.6860 C   0  0  0  0  0  0  0  0  0  0  0  0
   37.3250   32.1120   38.4120 N   0  0  0  0  0  0  0  0  0  0  0  0
   37.9980   30.5620   37.1250 H   0  0  0  0  0  0  0  0  0  0  0  0
   36.6860   33.4270   40.0040 H   0  0  0  0  0  0  0  0  0  0  0  0
   35.4950   28.7760   41.1240 F   0  0  0  0  0  0  0  0  0  0  0  0
   36.6790   28.6250   41.8050 C   0  0  0  0  0  0  0  0  0  0  0  0
   37.8340   29.3310   41.5440 C   0  0  0  0  0  0  0  0  0  0  0  0
   38.9480   29.0660   42.3140 C   0  0  0  0  0  0  0  0  0  0  0  0
   39.8040   29.6610   42.0410 H   0  0  0  0  0  0  0  0  0  0  0  0
   38.8580   28.1140   43.3050 C   0  0  0  0  0  0  0  0  0  0  0  0
   39.7730   27.9560   43.8700 H   0  0  0  0  0  0  0  0  0  0  0  0
   37.7000   27.4110   43.5620 C   0  0  0  0  0  3  0  0  0  0  0  0
   36.5740   27.6740   42.7880 C   0  0  0  0  0  3  0  0  0  0  0  0
   38.4210   28.6080   38.7960 C   0  0  0  0  0  0  0  0  0  0  0  0
   37.5760   27.7760   38.3420 O   0  0  0  0  0  0  0  0  0  0  0  0
   39.4570   28.7720   39.0600 H   0  0  0  0  0  0  0  0  0  0  0  0
  1  6  2  0  0  0  0
  1  2  1  0  0  0  0
  2  3  2  0  0  0  0
  3  4  1  0  0  0  0
  3 11  1  0  0  0  0
  5  8  1  0  0  0  0
  5  4  2  0  0  0  0
  6  5  1  0  0  0  0
  7  1  1  0  0  0  0
  9 10  1  0  0  0  0
 10 17  1  0  0  0  0
 11 10  2  0  0  0  0
 11 12  1  0  0  0  0
 12 14  2  0  0  0  0
 13 12  1  0  0  0  0
 14 16  1  0  0  0  0
 14 15  1  0  0  0  0
 17 16  2  0  0  0  0
 18 20  1  0  0  0  0
 18  2  1  0  0  0  0
 19 18  2  0  0  0  0
M  END
>  <minimizedAffinity>
-4.18783712

$$$$

 OpenBabel03252503073D

 20 21  0  0  0  0  0  0  0  0999 V2000
   38.1500   23.3230   40.7320 C   0  0  0  0  0  0  0  0  0  0  0  0
   38.5110   24.5230   41.3360 C   0  0  0  0  0  0  0  0  0  0  0  0
   37.7200   25.6310   41.0860 C   0  0  0  0  0  0  0  0  0  0  0  0
   36.6340   25.4850   40.2650 N   0  0  0  0  0  0  0  0  0  0  0  0
   36.3110   24.3030   39.6930 C   0  0  0  0  0  0  0  0  0  0  0  0
   37.0700   23.2130   39.9240 N   0  0  0  0  0  0  0  0  0  0  0  0
   38.7790   22.4560   40.9350 H   0  0  0  0  0  0  0  0  0  0  0  0
   35.4260   24.3200   39.0630 H   0  0  0  0  0  0  0  0  0  0  0  0
   36.3560   26.3130   43.3410 F   0  0  0  0  0  0  0  0  0  0  0  0
   37.2920   27.1700   42.8160 C   0  0  0  0  0  0  0  0  0  0  0  0
   38.0380   26.9240   41.6820 C   0  0  0  0  0  0  0  0  0  0  0  0
   38.9440   27.8840   41.2780 C   0  0  0  0  0  0  0  0  0  0  0  0
   39.4820   27.6090   40.3850 H   0  0  0  0  0  0  0  0  0  0  0  0
   39.0630   29.0380   42.0190 C   0  0  0  0  0  0  0  0  0  0  0  0
   39.7960   29.7470   41.6430 H   0  0  0  0  0  0  0  0  0  0  0  0
   38.3150   29.2780   43.1520 C   0  0  0  0  0  3  0  0  0  0  0  0
   37.4010   28.3150   43.5640 C   0  0  0  0  0  3  0  0  0  0  0  0
   39.6600   24.5710   42.1780 C   0  0  0  0  0  0  0  0  0  0  0  0
   39.5250   24.2030   43.3850 O   0  0  0  0  0  0  0  0  0  0  0  0
   40.3480   24.9440   41.4310 H   0  0  0  0  0  0  0  0  0  0  0  0
  1  7  1  0  0  0  0
  1  2  1  0  0  0  0
  2 18  1  0  0  0  0
  3  2  2  0  0  0  0
  3 11  1  0  0  0  0
  4  3  1  0  0  0  0
  5  6  1  0  0  0  0
  5  4  2  0  0  0  0
  6  1  2  0  0  0  0
  8  5  1  0  0  0  0
 10  9  1  0  0  0  0
 10 17  1  0  0  0  0
 11 10  2  0  0  0  0
 12 11  1  0  0  0  0
 12 14  2  0  0  0  0
 13 12  1  0  0  0  0
 14 16  1  0  0  0  0
 15 14  1  0  0  0  0
 16 17  2  0  0  0  0
 18 19  2  0  0  0  0
 20 18  1  0  0  0  0
M  END
>  <minimizedAffinity>
-4.17357445

$$$$

 OpenBabel03252503073D

 20 21  0  0  0  0  0  0  0  0999 V2000
   36.4070   30.1470   37.8510 C   0  0  0  0  0  0  0  0  0  0  0  0
   36.2620   29.5360   39.0940 C   0  0  0  0  0  0  0  0  0  0  0  0
   37.4000   29.0300   39.6960 C   0  0  0  0  0  0  0  0  0  0  0  0
   38.5960   29.1580   39.0430 N   0  0  0  0  0  0  0  0  0  0  0  0
   38.7030   29.7570   37.8360 C   0  0  0  0  0  0  0  0  0  0  0  0
   37.6050   30.2550   37.2330 N   0  0  0  0  0  0  0  0  0  0  0  0
   35.5060   30.5430   37.3850 H   0  0  0  0  0  0  0  0  0  0  0  0
   39.7080   29.7940   37.4250 H   0  0  0  0  0  0  0  0  0  0  0  0
   37.9970   30.5490   41.8760 F   0  0  0  0  0  0  0  0  0  0  0  0
   37.6460   29.2290   42.0300 C   0  0  0  0  0  0  0  0  0  0  0  0
   37.3250   28.3730   40.9980 C   0  0  0  0  0  0  0  0  0  0  0  0
   36.9900   27.0720   41.3120 C   0  0  0  0  0  0  0  0  0  0  0  0
   36.7530   26.4750   40.4460 H   0  0  0  0  0  0  0  0  0  0  0  0
   36.9910   26.6860   42.6330 C   0  0  0  0  0  0  0  0  0  0  0  0
   36.7160   25.6490   42.8060 H   0  0  0  0  0  0  0  0  0  0  0  0
   37.3130   27.5470   43.6620 C   0  0  0  0  0  3  0  0  0  0  0  0
   37.6520   28.8590   43.3510 C   0  0  0  0  0  3  0  0  0  0  0  0
   34.9710   29.4550   39.6920 C   0  0  0  0  0  0  0  0  0  0  0  0
   34.0400   28.9130   39.0210 O   0  0  0  0  0  0  0  0  0  0  0  0
   35.2350   29.9330   40.6260 H   0  0  0  0  0  0  0  0  0  0  0  0
  1  2  1  0  0  0  0
  2 18  1  0  0  0  0
  2  3  2  0  0  0  0
  3 11  1  0  0  0  0
  4  3  1  0  0  0  0
  5  4  2  0  0  0  0
  6  5  1  0  0  0  0
  6  1  2  0  0  0  0
  7  1  1  0  0  0  0
  8  5  1  0  0  0  0
  9 10  1  0  0  0  0
 10 17  1  0  0  0  0
 11 12  1  0  0  0  0
 11 10  2  0  0  0  0
 12 14  2  0  0  0  0
 13 12  1  0  0  0  0
 14 15  1  0  0  0  0
 14 16  1  0  0  0  0
 17 16  2  0  0  0  0
 18 20  1  0  0  0  0
 19 18  2  0  0  0  0
M  END
>  <minimizedAffinity>
-4.16126728

$$$$

 OpenBabel03252503073D

 20 21  0  0  0  0  0  0  0  0999 V2000
   38.0860   30.6840   37.9670 C   0  0  0  0  0  0  0  0  0  0  0  0
   37.9930   29.7740   39.0170 C   0  0  0  0  0  0  0  0  0  0  0  0
   37.3610   30.1940   40.1750 C   0  0  0  0  0  0  0  0  0  0  0  0
   36.8670   31.4700   40.2230 N   0  0  0  0  0  0  0  0  0  0  0  0
   36.9760   32.3290   39.1840 C   0  0  0  0  0  0  0  0  0  0  0  0
   37.5880   31.9390   38.0490 N   0  0  0  0  0  0  0  0  0  0  0  0
   38.5840   30.3440   37.0600 H   0  0  0  0  0  0  0  0  0  0  0  0
   36.5430   33.3120   39.3500 H   0  0  0  0  0  0  0  0  0  0  0  0
   39.1670   30.4950   42.1900 F   0  0  0  0  0  0  0  0  0  0  0  0
   38.1900   29.5330   42.2780 C   0  0  0  0  0  0  0  0  0  0  0  0
   37.2280   29.2970   41.3180 C   0  0  0  0  0  0  0  0  0  0  0  0
   36.3090   28.2940   41.5510 C   0  0  0  0  0  0  0  0  0  0  0  0
   35.5950   28.1790   40.7510 H   0  0  0  0  0  0  0  0  0  0  0  0
   36.3920   27.5770   42.7240 C   0  0  0  0  0  0  0  0  0  0  0  0
   35.6350   26.8050   42.8400 H   0  0  0  0  0  0  0  0  0  0  0  0
   37.3560   27.8180   43.6800 C   0  0  0  0  0  3  0  0  0  0  0  0
   38.2840   28.8280   43.4500 C   0  0  0  0  0  3  0  0  0  0  0  0
   38.5370   28.4660   38.8660 C   0  0  0  0  0  0  0  0  0  0  0  0
   37.9120   27.6470   38.1250 O   0  0  0  0  0  0  0  0  0  0  0  0
   39.4010   28.6150   39.5000 H   0  0  0  0  0  0  0  0  0  0  0  0
  1  6  2  0  0  0  0
  1  2  1  0  0  0  0
  2  3  2  0  0  0  0
  3  4  1  0  0  0  0
  3 11  1  0  0  0  0
  5  8  1  0  0  0  0
  5  4  2  0  0  0  0
  6  5  1  0  0  0  0
  7  1  1  0  0  0  0
  9 10  1  0  0  0  0
 10 17  1  0  0  0  0
 11 12  1  0  0  0  0
 11 10  2  0  0  0  0
 12 14  2  0  0  0  0
 13 12  1  0  0  0  0
 14 15  1  0  0  0  0
 14 16  1  0  0  0  0
 17 16  2  0  0  0  0
 18  2  1  0  0  0  0
 18 20  1  0  0  0  0
 19 18  2  0  0  0  0
M  END
>  <minimizedAffinity>
-4.1529007

$$$$
