
 OpenBabel03252504503D

 24 25  0  0  0  0  0  0  0  0999 V2000
   38.4660   30.1410   40.4250 C   0  0  0  0  0  0  0  0  0  0  0  0
   37.4030   31.0220   40.6130 C   0  0  0  0  0  0  0  0  0  0  0  0
   36.1590   30.4610   40.9140 C   0  0  0  0  0  0  0  0  0  0  0  0
   36.0620   29.1060   41.0040 N   0  0  0  0  0  0  0  0  0  0  0  0
   37.1200   28.2870   40.8140 C   0  0  0  0  0  0  0  0  0  0  0  0
   38.3180   28.8090   40.5250 N   0  0  0  0  0  0  0  0  0  0  0  0
   39.4610   30.5410   40.1860 H   0  0  0  0  0  0  0  0  0  0  0  0
   35.3140   31.1150   41.0660 H   0  0  0  0  0  0  0  0  0  0  0  0
   37.4710   26.9760   43.1840 F   0  0  0  0  0  0  0  0  0  0  0  0
   37.1430   26.2090   42.1350 C   0  0  0  0  0  0  0  0  0  0  0  0
   36.9600   26.8400   40.9220 C   0  0  0  0  0  0  0  0  0  0  0  0
   36.6180   26.0790   39.8010 C   0  0  0  0  0  0  0  0  0  0  0  0
   36.4690   26.5410   38.8490 H   0  0  0  0  0  0  0  0  0  0  0  0
   36.4550   24.6950   39.8620 C   0  0  0  0  0  0  0  0  0  0  0  0
   36.1890   24.1220   38.9810 H   0  0  0  0  0  0  0  0  0  0  0  0
   36.6410   24.0780   41.0810 C   0  0  0  0  0  3  0  0  0  0  0  0
   36.9850   24.8240   42.2150 C   0  0  0  0  0  3  0  0  0  0  0  0
   37.6360   32.4480   40.4900 C   0  0  0  0  0  0  0  0  0  0  0  0
   37.1290   33.0890   41.2360 H   0  0  0  0  0  0  0  0  0  0  0  0
   38.7030   32.6750   40.5440 H   0  0  0  0  0  0  0  0  0  0  0  0
   37.1940   32.8800   39.0940 C   0  0  0  0  0  0  0  0  0  0  0  0
   37.4050   33.9790   39.0030 H   0  0  0  0  0  0  0  0  0  0  0  0
   37.7120   32.2830   38.3380 H   0  0  0  0  0  0  0  0  0  0  0  0
   36.0730   32.8200   39.0010 H   0  0  0  0  0  0  0  0  0  0  0  0
  1  6  2  0  0  0  0
  1  2  1  0  0  0  0
  2  3  2  0  0  0  0
  3  4  1  0  0  0  0
  3  8  1  0  0  0  0
  5 11  1  0  0  0  0
  5  4  2  0  0  0  0
  6  5  1  0  0  0  0
  7  1  1  0  0  0  0
 10 17  1  0  0  0  0
 10  9  1  0  0  0  0
 11 10  2  0  0  0  0
 12 14  2  0  0  0  0
 12 11  1  0  0  0  0
 13 12  1  0  0  0  0
 14 16  1  0  0  0  0
 15 14  1  0  0  0  0
 16 17  2  0  0  0  0
 18 20  1  0  0  0  0
 18  2  1  0  0  0  0
 18 19  1  0  0  0  0
 21 18  1  0  0  0  0
 22 21  1  0  0  0  0
 23 21  1  0  0  0  0
 24 21  1  0  0  0  0
M  END
>  <minimizedAffinity>
-4.62302446

$$$$

 OpenBabel03252504503D

 24 25  0  0  0  0  0  0  0  0999 V2000
   37.5600   27.0510   40.8400 C   0  0  0  0  0  0  0  0  0  0  0  0
   37.1410   26.6890   42.1190 C   0  0  0  0  0  0  0  0  0  0  0  0
   36.9950   27.7170   43.0540 C   0  0  0  0  0  0  0  0  0  0  0  0
   37.2660   28.9930   42.6640 N   0  0  0  0  0  0  0  0  0  0  0  0
   37.6710   29.3010   41.4120 C   0  0  0  0  0  0  0  0  0  0  0  0
   37.8160   28.3270   40.5050 N   0  0  0  0  0  0  0  0  0  0  0  0
   37.6870   26.2730   40.0750 H   0  0  0  0  0  0  0  0  0  0  0  0
   36.6720   27.4720   44.0540 H   0  0  0  0  0  0  0  0  0  0  0  0
   35.8060   30.8610   40.1700 F   0  0  0  0  0  0  0  0  0  0  0  0
   36.9840   31.4480   40.4220 C   0  0  0  0  0  0  0  0  0  0  0  0
   37.9490   30.6860   41.0480 C   0  0  0  0  0  0  0  0  0  0  0  0
   39.1930   31.2580   41.3290 C   0  0  0  0  0  0  0  0  0  0  0  0
   39.9590   30.6910   41.8130 H   0  0  0  0  0  0  0  0  0  0  0  0
   39.4980   32.5780   40.9990 C   0  0  0  0  0  0  0  0  0  0  0  0
   40.4700   33.0020   41.2260 H   0  0  0  0  0  0  0  0  0  0  0  0
   38.5240   33.3270   40.3730 C   0  0  0  0  0  3  0  0  0  0  0  0
   37.2720   32.7720   40.0830 C   0  0  0  0  0  3  0  0  0  0  0  0
   36.8830   25.2920   42.4090 C   0  0  0  0  0  0  0  0  0  0  0  0
   37.6130   24.7920   43.0750 H   0  0  0  0  0  0  0  0  0  0  0  0
   35.8970   25.1620   42.8610 H   0  0  0  0  0  0  0  0  0  0  0  0
   36.8310   24.5360   41.0850 C   0  0  0  0  0  0  0  0  0  0  0  0
   36.6050   23.4620   41.3220 H   0  0  0  0  0  0  0  0  0  0  0  0
   36.0890   24.9910   40.4240 H   0  0  0  0  0  0  0  0  0  0  0  0
   37.8560   24.4900   40.6180 H   0  0  0  0  0  0  0  0  0  0  0  0
  1  2  1  0  0  0  0
  2 18  1  0  0  0  0
  2  3  2  0  0  0  0
  3  8  1  0  0  0  0
  4  3  1  0  0  0  0
  5  4  2  0  0  0  0
  6  1  2  0  0  0  0
  6  5  1  0  0  0  0
  7  1  1  0  0  0  0
  9 10  1  0  0  0  0
 10 11  1  0  0  0  0
 11 12  2  0  0  0  0
 11  5  1  0  0  0  0
 12 13  1  0  0  0  0
 14 15  1  0  0  0  0
 14 12  1  0  0  0  0
 16 14  2  0  0  0  0
 17 16  1  0  0  0  0
 17 10  2  0  0  0  0
 18 20  1  0  0  0  0
 18 19  1  0  0  0  0
 21 22  1  0  0  0  0
 21 18  1  0  0  0  0
 23 21  1  0  0  0  0
 24 21  1  0  0  0  0
M  END
>  <minimizedAffinity>
-4.52865171

$$$$

 OpenBabel03252504503D

 24 25  0  0  0  0  0  0  0  0999 V2000
   37.7580   26.7630   40.7610 C   0  0  0  0  0  0  0  0  0  0  0  0
   37.1740   26.3780   41.9670 C   0  0  0  0  0  0  0  0  0  0  0  0
   36.7930   27.3990   42.8410 C   0  0  0  0  0  0  0  0  0  0  0  0
   37.0100   28.6900   42.4670 N   0  0  0  0  0  0  0  0  0  0  0  0
   37.5800   29.0200   41.2860 C   0  0  0  0  0  0  0  0  0  0  0  0
   37.9520   28.0530   40.4380 N   0  0  0  0  0  0  0  0  0  0  0  0
   38.0730   25.9910   40.0450 H   0  0  0  0  0  0  0  0  0  0  0  0
   36.3380   27.1370   43.7830 H   0  0  0  0  0  0  0  0  0  0  0  0
   39.7280   30.4260   42.2170 F   0  0  0  0  0  0  0  0  0  0  0  0
   38.8870   31.1020   41.4220 C   0  0  0  0  0  0  0  0  0  0  0  0
   37.7910   30.4200   40.9360 C   0  0  0  0  0  0  0  0  0  0  0  0
   36.8870   31.0870   40.1040 C   0  0  0  0  0  0  0  0  0  0  0  0
   36.0290   30.5830   39.7120 H   0  0  0  0  0  0  0  0  0  0  0  0
   37.0510   32.4240   39.7450 C   0  0  0  0  0  0  0  0  0  0  0  0
   36.3390   32.9230   39.0980 H   0  0  0  0  0  0  0  0  0  0  0  0
   38.1510   33.0930   40.2390 C   0  0  0  0  0  3  0  0  0  0  0  0
   39.0680   32.4420   41.0740 C   0  0  0  0  0  3  0  0  0  0  0  0
   36.9970   24.9680   42.2480 C   0  0  0  0  0  0  0  0  0  0  0  0
   37.8690   24.4460   42.6870 H   0  0  0  0  0  0  0  0  0  0  0  0
   36.1540   24.8070   42.9240 H   0  0  0  0  0  0  0  0  0  0  0  0
   36.6160   24.2700   40.9450 C   0  0  0  0  0  0  0  0  0  0  0  0
   36.4560   23.1840   41.1810 H   0  0  0  0  0  0  0  0  0  0  0  0
   35.7330   24.7460   40.5110 H   0  0  0  0  0  0  0  0  0  0  0  0
   37.4930   24.2570   40.2360 H   0  0  0  0  0  0  0  0  0  0  0  0
  1  2  1  0  0  0  0
  2 18  1  0  0  0  0
  2  3  2  0  0  0  0
  3  8  1  0  0  0  0
  4  3  1  0  0  0  0
  5  4  2  0  0  0  0
  6  1  2  0  0  0  0
  6  5  1  0  0  0  0
  7  1  1  0  0  0  0
 10  9  1  0  0  0  0
 11  5  1  0  0  0  0
 11 10  2  0  0  0  0
 12 11  1  0  0  0  0
 13 12  1  0  0  0  0
 14 12  2  0  0  0  0
 14 16  1  0  0  0  0
 15 14  1  0  0  0  0
 16 17  2  0  0  0  0
 17 10  1  0  0  0  0
 18 19  1  0  0  0  0
 18 20  1  0  0  0  0
 21 22  1  0  0  0  0
 21 18  1  0  0  0  0
 23 21  1  0  0  0  0
 24 21  1  0  0  0  0
M  END
>  <minimizedAffinity>
-4.49623489

$$$$

 OpenBabel03252504503D

 24 25  0  0  0  0  0  0  0  0999 V2000
   39.5000   32.0000   41.1950 C   0  0  0  0  0  0  0  0  0  0  0  0
   38.5890   32.8320   40.5460 C   0  0  0  0  0  0  0  0  0  0  0  0
   37.3040   32.3230   40.3360 C   0  0  0  0  0  0  0  0  0  0  0  0
   37.0240   31.0640   40.7720 N   0  0  0  0  0  0  0  0  0  0  0  0
   37.9390   30.2900   41.3980 C   0  0  0  0  0  0  0  0  0  0  0  0
   39.1740   30.7630   41.6060 N   0  0  0  0  0  0  0  0  0  0  0  0
   40.5210   32.3620   41.3800 H   0  0  0  0  0  0  0  0  0  0  0  0
   36.5740   32.9400   39.8360 H   0  0  0  0  0  0  0  0  0  0  0  0
   37.7970   28.1890   39.6590 F   0  0  0  0  0  0  0  0  0  0  0  0
   37.5230   27.9070   40.9410 C   0  0  0  0  0  0  0  0  0  0  0  0
   37.5860   28.9470   41.8450 C   0  0  0  0  0  0  0  0  0  0  0  0
   37.3070   28.6980   43.1910 C   0  0  0  0  0  0  0  0  0  0  0  0
   37.3480   29.4840   43.9140 H   0  0  0  0  0  0  0  0  0  0  0  0
   36.9650   27.4290   43.6590 C   0  0  0  0  0  0  0  0  0  0  0  0
   36.7530   27.2570   44.7080 H   0  0  0  0  0  0  0  0  0  0  0  0
   36.9070   26.4000   42.7440 C   0  0  0  0  0  3  0  0  0  0  0  0
   37.1820   26.6300   41.3910 C   0  0  0  0  0  3  0  0  0  0  0  0
   39.0100   34.1540   40.1300 C   0  0  0  0  0  0  0  0  0  0  0  0
   38.5930   34.5180   39.1710 H   0  0  0  0  0  0  0  0  0  0  0  0
   38.7630   34.9000   40.8890 H   0  0  0  0  0  0  0  0  0  0  0  0
   40.5330   34.1560   40.0330 C   0  0  0  0  0  0  0  0  0  0  0  0
   40.8480   35.1920   39.7360 H   0  0  0  0  0  0  0  0  0  0  0  0
   40.9680   33.8350   40.9830 H   0  0  0  0  0  0  0  0  0  0  0  0
   40.8720   33.5210   39.1650 H   0  0  0  0  0  0  0  0  0  0  0  0
  1  7  1  0  0  0  0
  1  6  1  0  0  0  0
  2  1  2  0  0  0  0
  3  2  1  0  0  0  0
  3  4  2  0  0  0  0
  4  5  1  0  0  0  0
  5  6  2  0  0  0  0
  5 11  1  0  0  0  0
  8  3  1  0  0  0  0
  9 10  1  0  0  0  0
 10 17  2  0  0  0  0
 10 11  1  0  0  0  0
 11 12  2  0  0  0  0
 12 14  1  0  0  0  0
 12 13  1  0  0  0  0
 14 15  1  0  0  0  0
 16 14  2  0  0  0  0
 17 16  1  0  0  0  0
 18  2  1  0  0  0  0
 18 20  1  0  0  0  0
 19 18  1  0  0  0  0
 21 18  1  0  0  0  0
 21 23  1  0  0  0  0
 22 21  1  0  0  0  0
 24 21  1  0  0  0  0
M  END
>  <minimizedAffinity>
-4.47992706

$$$$

 OpenBabel03252504503D

 24 25  0  0  0  0  0  0  0  0999 V2000
   38.6990   30.2510   40.5380 C   0  0  0  0  0  0  0  0  0  0  0  0
   37.6600   31.1750   40.6270 C   0  0  0  0  0  0  0  0  0  0  0  0
   36.3710   30.6650   40.8040 C   0  0  0  0  0  0  0  0  0  0  0  0
   36.2110   29.3150   40.8790 N   0  0  0  0  0  0  0  0  0  0  0  0
   37.2480   28.4530   40.7880 C   0  0  0  0  0  0  0  0  0  0  0  0
   38.4890   28.9260   40.6170 N   0  0  0  0  0  0  0  0  0  0  0  0
   39.7280   30.6100   40.3980 H   0  0  0  0  0  0  0  0  0  0  0  0
   35.5430   31.3530   40.8770 H   0  0  0  0  0  0  0  0  0  0  0  0
   36.5200   26.9810   38.6060 F   0  0  0  0  0  0  0  0  0  0  0  0
   36.6530   26.3000   39.7530 C   0  0  0  0  0  0  0  0  0  0  0  0
   37.0190   27.0150   40.8740 C   0  0  0  0  0  0  0  0  0  0  0  0
   37.1680   26.3450   42.0920 C   0  0  0  0  0  0  0  0  0  0  0  0
   37.4520   26.8730   42.9770 H   0  0  0  0  0  0  0  0  0  0  0  0
   36.9600   24.9720   42.2170 C   0  0  0  0  0  0  0  0  0  0  0  0
   37.0810   24.4700   43.1710 H   0  0  0  0  0  0  0  0  0  0  0  0
   36.5940   24.2700   41.0880 C   0  0  0  0  0  3  0  0  0  0  0  0
   36.4390   24.9240   39.8590 C   0  0  0  0  0  3  0  0  0  0  0  0
   37.9620   32.5900   40.5320 C   0  0  0  0  0  0  0  0  0  0  0  0
   37.7400   33.1950   41.4320 H   0  0  0  0  0  0  0  0  0  0  0  0
   39.0150   32.7490   40.2920 H   0  0  0  0  0  0  0  0  0  0  0  0
   37.1800   33.1620   39.3530 C   0  0  0  0  0  0  0  0  0  0  0  0
   37.4430   34.2510   39.2750 H   0  0  0  0  0  0  0  0  0  0  0  0
   37.4120   32.6020   38.4440 H   0  0  0  0  0  0  0  0  0  0  0  0
   36.0760   33.1760   39.5830 H   0  0  0  0  0  0  0  0  0  0  0  0
  1  6  2  0  0  0  0
  1  2  1  0  0  0  0
  2  3  2  0  0  0  0
  3  8  1  0  0  0  0
  3  4  1  0  0  0  0
  5 11  1  0  0  0  0
  5  4  2  0  0  0  0
  6  5  1  0  0  0  0
  7  1  1  0  0  0  0
  9 10  1  0  0  0  0
 10 17  2  0  0  0  0
 10 11  1  0  0  0  0
 11 12  2  0  0  0  0
 12 14  1  0  0  0  0
 12 13  1  0  0  0  0
 14 15  1  0  0  0  0
 16 14  2  0  0  0  0
 17 16  1  0  0  0  0
 18  2  1  0  0  0  0
 18 19  1  0  0  0  0
 20 18  1  0  0  0  0
 21 24  1  0  0  0  0
 21 18  1  0  0  0  0
 22 21  1  0  0  0  0
 23 21  1  0  0  0  0
M  END
>  <minimizedAffinity>
-4.42175722

$$$$

 OpenBabel03252504503D

 24 25  0  0  0  0  0  0  0  0999 V2000
   40.0330   31.9510   39.8690 C   0  0  0  0  0  0  0  0  0  0  0  0
   39.8160   33.3010   40.1440 C   0  0  0  0  0  0  0  0  0  0  0  0
   38.4900   33.7410   40.1510 C   0  0  0  0  0  0  0  0  0  0  0  0
   37.5040   32.8390   39.8930 N   0  0  0  0  0  0  0  0  0  0  0  0
   37.7580   31.5370   39.6300 C   0  0  0  0  0  0  0  0  0  0  0  0
   39.0240   31.1000   39.6200 N   0  0  0  0  0  0  0  0  0  0  0  0
   41.0610   31.5640   39.8540 H   0  0  0  0  0  0  0  0  0  0  0  0
   38.2860   34.7800   40.3600 H   0  0  0  0  0  0  0  0  0  0  0  0
   36.1200   30.6310   41.6170 F   0  0  0  0  0  0  0  0  0  0  0  0
   35.8530   30.1740   40.3860 C   0  0  0  0  0  0  0  0  0  0  0  0
   36.6630   30.6130   39.3590 C   0  0  0  0  0  0  0  0  0  0  0  0
   36.4200   30.1620   38.0590 C   0  0  0  0  0  0  0  0  0  0  0  0
   37.0310   30.4860   37.2440 H   0  0  0  0  0  0  0  0  0  0  0  0
   35.3830   29.2790   37.7570 C   0  0  0  0  0  0  0  0  0  0  0  0
   35.2110   28.9410   36.7420 H   0  0  0  0  0  0  0  0  0  0  0  0
   34.5820   28.8490   38.7940 C   0  0  0  0  0  3  0  0  0  0  0  0
   34.8100   29.2900   40.1040 C   0  0  0  0  0  3  0  0  0  0  0  0
   40.9530   34.1610   40.4040 C   0  0  0  0  0  0  0  0  0  0  0  0
   41.3550   34.7120   39.5320 H   0  0  0  0  0  0  0  0  0  0  0  0
   40.7140   34.9040   41.1690 H   0  0  0  0  0  0  0  0  0  0  0  0
   42.0680   33.3040   40.9970 C   0  0  0  0  0  0  0  0  0  0  0  0
   42.9320   33.9860   41.2180 H   0  0  0  0  0  0  0  0  0  0  0  0
   41.7030   32.7790   41.8840 H   0  0  0  0  0  0  0  0  0  0  0  0
   42.4810   32.6030   40.2180 H   0  0  0  0  0  0  0  0  0  0  0  0
  1  2  1  0  0  0  0
  2  3  2  0  0  0  0
  2 18  1  0  0  0  0
  3  8  1  0  0  0  0
  4  3  1  0  0  0  0
  5  4  2  0  0  0  0
  6  5  1  0  0  0  0
  6  1  2  0  0  0  0
  7  1  1  0  0  0  0
 10  9  1  0  0  0  0
 11  5  1  0  0  0  0
 11 10  2  0  0  0  0
 12 11  1  0  0  0  0
 13 12  1  0  0  0  0
 14 12  2  0  0  0  0
 14 16  1  0  0  0  0
 15 14  1  0  0  0  0
 16 17  2  0  0  0  0
 17 10  1  0  0  0  0
 18 21  1  0  0  0  0
 18 20  1  0  0  0  0
 19 18  1  0  0  0  0
 21 22  1  0  0  0  0
 21 23  1  0  0  0  0
 24 21  1  0  0  0  0
M  END
>  <minimizedAffinity>
-4.37662315

$$$$

 OpenBabel03252504503D

 24 25  0  0  0  0  0  0  0  0999 V2000
   39.5070   28.0110   41.5530 C   0  0  0  0  0  0  0  0  0  0  0  0
   38.6930   27.5470   42.5850 C   0  0  0  0  0  0  0  0  0  0  0  0
   37.6960   28.4110   43.0450 C   0  0  0  0  0  0  0  0  0  0  0  0
   37.5810   29.6370   42.4640 N   0  0  0  0  0  0  0  0  0  0  0  0
   38.3930   30.0480   41.4640 C   0  0  0  0  0  0  0  0  0  0  0  0
   39.3530   29.2310   41.0130 N   0  0  0  0  0  0  0  0  0  0  0  0
   40.3030   27.3620   41.1630 H   0  0  0  0  0  0  0  0  0  0  0  0
   37.0480   28.0840   43.8430 H   0  0  0  0  0  0  0  0  0  0  0  0
   36.4240   30.5760   39.6460 F   0  0  0  0  0  0  0  0  0  0  0  0
   37.2190   31.6070   39.9620 C   0  0  0  0  0  0  0  0  0  0  0  0
   38.2250   31.3730   40.8770 C   0  0  0  0  0  0  0  0  0  0  0  0
   39.0780   32.4210   41.2350 C   0  0  0  0  0  0  0  0  0  0  0  0
   39.8650   32.2680   41.9420 H   0  0  0  0  0  0  0  0  0  0  0  0
   38.9520   33.7020   40.6990 C   0  0  0  0  0  0  0  0  0  0  0  0
   39.6240   34.5010   40.9900 H   0  0  0  0  0  0  0  0  0  0  0  0
   37.9420   33.9200   39.7850 C   0  0  0  0  0  3  0  0  0  0  0  0
   37.0780   32.8830   39.4130 C   0  0  0  0  0  3  0  0  0  0  0  0
   38.9180   26.2180   43.1200 C   0  0  0  0  0  0  0  0  0  0  0  0
   38.2140   25.8860   43.9080 H   0  0  0  0  0  0  0  0  0  0  0  0
   38.8870   25.4680   42.3270 H   0  0  0  0  0  0  0  0  0  0  0  0
   40.3370   26.1670   43.6790 C   0  0  0  0  0  0  0  0  0  0  0  0
   40.5070   25.1270   44.0650 H   0  0  0  0  0  0  0  0  0  0  0  0
   41.0530   26.4560   42.9050 H   0  0  0  0  0  0  0  0  0  0  0  0
   40.4170   26.8060   44.6050 H   0  0  0  0  0  0  0  0  0  0  0  0
  1  2  1  0  0  0  0
  2  3  2  0  0  0  0
  2 18  1  0  0  0  0
  3  8  1  0  0  0  0
  4  3  1  0  0  0  0
  5  4  2  0  0  0  0
  6  5  1  0  0  0  0
  6  1  2  0  0  0  0
  7  1  1  0  0  0  0
  9 10  1  0  0  0  0
 10 11  1  0  0  0  0
 11 12  2  0  0  0  0
 11  5  1  0  0  0  0
 12 13  1  0  0  0  0
 14 15  1  0  0  0  0
 14 12  1  0  0  0  0
 16 14  2  0  0  0  0
 17 16  1  0  0  0  0
 17 10  2  0  0  0  0
 18 21  1  0  0  0  0
 18 19  1  0  0  0  0
 20 18  1  0  0  0  0
 21 22  1  0  0  0  0
 21 24  1  0  0  0  0
 23 21  1  0  0  0  0
M  END
>  <minimizedAffinity>
-4.34028292

$$$$

 OpenBabel03252504503D

 24 25  0  0  0  0  0  0  0  0999 V2000
   36.7620   27.9010   41.3960 C   0  0  0  0  0  0  0  0  0  0  0  0
   37.1060   29.0850   42.0460 C   0  0  0  0  0  0  0  0  0  0  0  0
   36.7190   30.2800   41.4330 C   0  0  0  0  0  0  0  0  0  0  0  0
   36.0390   30.2160   40.2550 N   0  0  0  0  0  0  0  0  0  0  0  0
   35.7260   29.0440   39.6580 C   0  0  0  0  0  0  0  0  0  0  0  0
   36.0900   27.8910   40.2330 N   0  0  0  0  0  0  0  0  0  0  0  0
   37.0480   26.9390   41.8440 H   0  0  0  0  0  0  0  0  0  0  0  0
   36.9690   31.2150   41.9090 H   0  0  0  0  0  0  0  0  0  0  0  0
   33.0040   29.2340   39.5720 F   0  0  0  0  0  0  0  0  0  0  0  0
   33.6200   29.1320   38.3860 C   0  0  0  0  0  0  0  0  0  0  0  0
   34.9960   29.0340   38.3950 C   0  0  0  0  0  0  0  0  0  0  0  0
   35.6800   28.9250   37.1810 C   0  0  0  0  0  0  0  0  0  0  0  0
   36.7460   28.8480   37.1580 H   0  0  0  0  0  0  0  0  0  0  0  0
   35.0210   28.9120   35.9530 C   0  0  0  0  0  0  0  0  0  0  0  0
   35.5690   28.8270   35.0220 H   0  0  0  0  0  0  0  0  0  0  0  0
   33.6450   29.0110   35.9600 C   0  0  0  0  0  3  0  0  0  0  0  0
   32.9420   29.1200   37.1660 C   0  0  0  0  0  3  0  0  0  0  0  0
   37.8320   29.0190   43.2980 C   0  0  0  0  0  0  0  0  0  0  0  0
   38.4480   29.9040   43.5500 H   0  0  0  0  0  0  0  0  0  0  0  0
   37.1510   28.8560   44.1370 H   0  0  0  0  0  0  0  0  0  0  0  0
   38.7350   27.7900   43.2570 C   0  0  0  0  0  0  0  0  0  0  0  0
   39.2720   27.7360   44.2420 H   0  0  0  0  0  0  0  0  0  0  0  0
   38.1410   26.8970   43.0460 H   0  0  0  0  0  0  0  0  0  0  0  0
   39.5690   27.9400   42.5130 H   0  0  0  0  0  0  0  0  0  0  0  0
  1  7  1  0  0  0  0
  1  2  1  0  0  0  0
  2 18  1  0  0  0  0
  3  8  1  0  0  0  0
  3  2  2  0  0  0  0
  4  3  1  0  0  0  0
  5  6  1  0  0  0  0
  5  4  2  0  0  0  0
  6  1  2  0  0  0  0
 10 11  1  0  0  0  0
 10  9  1  0  0  0  0
 11  5  1  0  0  0  0
 12 11  2  0  0  0  0
 13 12  1  0  0  0  0
 14 16  2  0  0  0  0
 14 12  1  0  0  0  0
 15 14  1  0  0  0  0
 16 17  1  0  0  0  0
 17 10  2  0  0  0  0
 18 19  1  0  0  0  0
 18 20  1  0  0  0  0
 21 18  1  0  0  0  0
 21 22  1  0  0  0  0
 23 21  1  0  0  0  0
 24 21  1  0  0  0  0
M  END
>  <minimizedAffinity>
-4.33509636

$$$$

 OpenBabel03252504503D

 24 25  0  0  0  0  0  0  0  0999 V2000
   38.3540   29.7810   39.8570 C   0  0  0  0  0  0  0  0  0  0  0  0
   37.3440   30.5520   40.4320 C   0  0  0  0  0  0  0  0  0  0  0  0
   36.7640   30.0640   41.6050 C   0  0  0  0  0  0  0  0  0  0  0  0
   37.2140   28.8820   42.1100 N   0  0  0  0  0  0  0  0  0  0  0  0
   38.1960   28.1650   41.5200 C   0  0  0  0  0  0  0  0  0  0  0  0
   38.7620   28.6200   40.3950 N   0  0  0  0  0  0  0  0  0  0  0  0
   38.8360   30.1290   38.9340 H   0  0  0  0  0  0  0  0  0  0  0  0
   35.9790   30.6350   42.0770 H   0  0  0  0  0  0  0  0  0  0  0  0
   37.0950   25.7770   40.7850 F   0  0  0  0  0  0  0  0  0  0  0  0
   38.0630   25.7140   41.7100 C   0  0  0  0  0  0  0  0  0  0  0  0
   38.6400   26.9040   42.1040 C   0  0  0  0  0  0  0  0  0  0  0  0
   39.6520   26.8850   43.0670 C   0  0  0  0  0  0  0  0  0  0  0  0
   40.1170   27.7910   43.3900 H   0  0  0  0  0  0  0  0  0  0  0  0
   40.1050   25.7020   43.6490 C   0  0  0  0  0  0  0  0  0  0  0  0
   40.8920   25.7080   44.3940 H   0  0  0  0  0  0  0  0  0  0  0  0
   39.5190   24.5200   43.2450 C   0  0  0  0  0  3  0  0  0  0  0  0
   38.5030   24.5190   42.2820 C   0  0  0  0  0  3  0  0  0  0  0  0
   36.9550   31.7950   39.7960 C   0  0  0  0  0  0  0  0  0  0  0  0
   35.8770   32.0440   39.8340 H   0  0  0  0  0  0  0  0  0  0  0  0
   37.4940   32.6410   40.2300 H   0  0  0  0  0  0  0  0  0  0  0  0
   37.3910   31.7360   38.3350 C   0  0  0  0  0  0  0  0  0  0  0  0
   37.1090   32.7130   37.8620 H   0  0  0  0  0  0  0  0  0  0  0  0
   38.4630   31.5270   38.2740 H   0  0  0  0  0  0  0  0  0  0  0  0
   36.7710   30.9820   37.7700 H   0  0  0  0  0  0  0  0  0  0  0  0
  1  6  2  0  0  0  0
  1  2  1  0  0  0  0
  2  3  2  0  0  0  0
  3  8  1  0  0  0  0
  3  4  1  0  0  0  0
  5 11  1  0  0  0  0
  5  4  2  0  0  0  0
  6  5  1  0  0  0  0
  7  1  1  0  0  0  0
  9 10  1  0  0  0  0
 10 11  2  0  0  0  0
 10 17  1  0  0  0  0
 11 12  1  0  0  0  0
 12 13  1  0  0  0  0
 12 14  2  0  0  0  0
 14 15  1  0  0  0  0
 16 14  1  0  0  0  0
 17 16  2  0  0  0  0
 18 19  1  0  0  0  0
 18 20  1  0  0  0  0
 18  2  1  0  0  0  0
 21 18  1  0  0  0  0
 22 21  1  0  0  0  0
 23 21  1  0  0  0  0
 24 21  1  0  0  0  0
M  END
>  <minimizedAffinity>
-4.27410984

$$$$
