
 OpenBabel03252504043D

 19 20  0  0  0  0  0  0  0  0999 V2000
   44.4620   35.7150   45.0960 C   0  0  0  0  0  0  0  0  0  0  0  0
   45.0500   35.7420   43.8010 C   0  0  0  0  0  0  0  0  0  0  0  0
   45.9680   34.7620   43.4680 C   0  0  0  0  0  0  0  0  0  0  0  0
   46.2740   33.8000   44.3960 N   0  0  0  0  0  0  0  0  0  0  0  0
   45.6970   33.7890   45.6310 C   0  0  0  0  0  0  0  0  0  0  0  0
   44.8070   34.7420   45.9540 N   0  0  0  0  0  0  0  0  0  0  0  0
   43.7480   36.5260   45.2850 H   0  0  0  0  0  0  0  0  0  0  0  0
   45.9140   33.0430   46.3900 H   0  0  0  0  0  0  0  0  0  0  0  0
   45.0390   33.3900   41.1400 F   0  0  0  0  0  0  0  0  0  0  0  0
   46.2610   34.0100   41.0250 C   0  0  0  0  0  0  0  0  0  0  0  0
   46.6320   34.6650   42.1660 C   0  0  0  0  0  0  0  0  0  0  0  0
   47.8650   35.3200   42.0860 C   0  0  0  0  0  0  0  0  0  0  0  0
   48.2530   35.8780   42.9470 H   0  0  0  0  0  0  0  0  0  0  0  0
   48.7140   35.3800   41.0430 C   0  0  0  0  0  0  0  0  0  0  0  0
   49.6700   35.8930   41.0180 H   0  0  0  0  0  0  0  0  0  0  0  0
   48.2890   34.6930   39.8970 C   0  0  0  0  0  0  0  0  0  0  0  0
   47.0840   34.0220   39.8850 C   0  0  0  0  0  0  0  0  0  0  0  0
   44.7450   36.7220   42.8460 O   0  0  0  0  0  0  0  0  0  0  0  0
   43.8630   36.5480   42.3420 H   0  0  0  0  0  0  0  0  0  0  0  0
  1  7  1  0  0  0  0
  1  6  1  0  0  0  0
  2  1  2  0  0  0  0
  3  2  1  0  0  0  0
  3  4  2  0  0  0  0
  4  5  1  0  0  0  0
  5  6  2  0  0  0  0
  5  8  1  0  0  0  0
 10  9  1  0  0  0  0
 10 11  1  0  0  0  0
 11  3  1  0  0  0  0
 12 11  2  0  0  0  0
 12 13  1  0  0  0  0
 14 12  1  0  0  0  0
 15 14  1  0  0  0  0
 16 14  2  0  0  0  0
 17 16  1  0  0  0  0
 17 10  2  0  0  0  0
 18  2  1  0  0  0  0
 19 18  1  0  0  0  0
M  END
>  <minimizedAffinity>
-5.43175983

>  <minimizedRMSD>
0.790440857

$$$$
