
 OpenBabel03242513473D

 25 27  0  0  1  0  0  0  0  0999 V2000
   35.4990   29.6640   40.1960 C   0  0  1  0  0  0  0  0  0  0  0  0
   35.8150   28.3010   39.5390 C   0  0  0  0  0  0  0  0  0  0  0  0
   35.8030   28.5090   41.0100 C   0  0  1  0  0  0  0  0  0  0  0  0
   34.4500   30.0240   40.0520 H   0  0  0  0  0  0  0  0  0  0  0  0
   36.7220   28.2320   38.9320 H   0  0  0  0  0  0  0  0  0  0  0  0
   34.9410   27.8490   39.0350 H   0  0  0  0  0  0  0  0  0  0  0  0
   34.8800   28.0620   41.5110 H   0  0  0  0  0  0  0  0  0  0  0  0
   36.4810   30.7230   39.8500 C   0  0  0  0  0  0  0  0  0  0  0  0
   36.9320   30.7730   38.5110 C   0  0  0  0  0  0  0  0  0  0  0  0
   37.8390   31.7660   38.1730 C   0  0  0  0  0  0  0  0  0  0  0  0
   38.2480   32.6350   39.1390 N   0  0  0  0  0  0  0  0  0  0  0  0
   37.7980   32.5580   40.4070 C   0  0  0  0  0  0  0  0  0  0  0  0
   36.9150   31.6050   40.7680 N   0  0  0  0  0  0  0  0  0  0  0  0
   36.6580   30.1270   37.7210 H   0  0  0  0  0  0  0  0  0  0  0  0
   38.2340   31.8730   37.1650 H   0  0  0  0  0  0  0  0  0  0  0  0
   38.1490   33.2750   41.1590 H   0  0  0  0  0  0  0  0  0  0  0  0
   35.9890   27.4040   43.6450 F   0  0  0  0  0  0  0  0  0  0  0  0
   37.1680   27.6720   42.9920 C   0  0  0  0  0  0  0  0  0  0  0  0
   37.0560   28.2130   41.7040 C   0  0  0  0  0  0  0  0  0  0  0  0
   38.3090   28.4370   41.1550 C   0  0  0  0  0  0  0  0  0  0  0  0
   38.4060   28.8520   40.1610 H   0  0  0  0  0  0  0  0  0  0  0  0
   39.5160   28.1720   41.7710 C   0  0  0  0  0  0  0  0  0  0  0  0
   40.4640   28.3680   41.2910 H   0  0  0  0  0  0  0  0  0  0  0  0
   39.5090   27.6380   43.0430 C   0  0  0  0  0  3  0  0  0  0  0  0
   38.3070   27.3820   43.6670 C   0  0  0  0  0  3  0  0  0  0  0  0
  1  4  1  6  0  0  0
  1  3  1  0  0  0  0
  2  1  1  0  0  0  0
  2  3  1  0  0  0  0
  3  7  1  1  0  0  0
  3 19  1  0  0  0  0
  5  2  1  0  0  0  0
  6  2  1  0  0  0  0
  8  1  1  0  0  0  0
  8 13  1  0  0  0  0
  9  8  2  0  0  0  0
 10  9  1  0  0  0  0
 10 11  2  0  0  0  0
 11 12  1  0  0  0  0
 12 13  2  0  0  0  0
 12 16  1  0  0  0  0
 14  9  1  0  0  0  0
 15 10  1  0  0  0  0
 18 17  1  0  0  0  0
 18 25  1  0  0  0  0
 19 18  2  0  0  0  0
 20 19  1  0  0  0  0
 20 22  2  0  0  0  0
 21 20  1  0  0  0  0
 22 24  1  0  0  0  0
 23 22  1  0  0  0  0
 24 25  2  0  0  0  0
M  END
>  <minimizedAffinity>
-5.17382812

$$$$

 OpenBabel03242513473D

 25 27  0  0  1  0  0  0  0  0999 V2000
   35.6740   29.8770   39.8430 C   0  0  1  0  0  0  0  0  0  0  0  0
   35.8080   28.4360   39.3010 C   0  0  0  0  0  0  0  0  0  0  0  0
   35.6030   28.7460   40.7390 C   0  0  1  0  0  0  0  0  0  0  0  0
   34.7560   30.4220   39.5090 H   0  0  0  0  0  0  0  0  0  0  0  0
   36.7660   28.1500   38.8600 H   0  0  0  0  0  0  0  0  0  0  0  0
   34.9510   28.1270   38.6720 H   0  0  0  0  0  0  0  0  0  0  0  0
   34.5410   28.5220   41.0930 H   0  0  0  0  0  0  0  0  0  0  0  0
   36.8920   30.6990   39.6300 C   0  0  0  0  0  0  0  0  0  0  0  0
   36.9790   31.9210   40.3380 C   0  0  0  0  0  0  0  0  0  0  0  0
   38.1180   32.6900   40.1570 C   0  0  0  0  0  0  0  0  0  0  0  0
   39.0870   32.2370   39.3140 N   0  0  0  0  0  0  0  0  0  0  0  0
   38.9720   31.0670   38.6550 C   0  0  0  0  0  0  0  0  0  0  0  0
   37.8770   30.2940   38.8090 N   0  0  0  0  0  0  0  0  0  0  0  0
   36.2620   32.3280   40.9980 H   0  0  0  0  0  0  0  0  0  0  0  0
   38.2630   33.6420   40.6640 H   0  0  0  0  0  0  0  0  0  0  0  0
   39.7710   30.7330   37.9830 H   0  0  0  0  0  0  0  0  0  0  0  0
   36.5650   26.0500   40.8360 F   0  0  0  0  0  0  0  0  0  0  0  0
   37.1280   26.9500   41.7090 C   0  0  0  0  0  0  0  0  0  0  0  0
   36.6440   28.2630   41.6470 C   0  0  0  0  0  0  0  0  0  0  0  0
   37.2890   29.0690   42.5730 C   0  0  0  0  0  0  0  0  0  0  0  0
   37.0360   30.1170   42.6580 H   0  0  0  0  0  0  0  0  0  0  0  0
   38.2760   28.6580   43.4460 C   0  0  0  0  0  0  0  0  0  0  0  0
   38.7440   29.3340   44.1470 H   0  0  0  0  0  0  0  0  0  0  0  0
   38.6780   27.3390   43.4220 C   0  0  0  0  0  3  0  0  0  0  0  0
   38.0900   26.4650   42.5320 C   0  0  0  0  0  3  0  0  0  0  0  0
  1  4  1  6  0  0  0
  1  3  1  0  0  0  0
  2  1  1  0  0  0  0
  2  3  1  0  0  0  0
  3  7  1  1  0  0  0
  3 19  1  0  0  0  0
  5  2  1  0  0  0  0
  6  2  1  0  0  0  0
  8  1  1  0  0  0  0
  8  9  1  0  0  0  0
  9 14  1  0  0  0  0
 10  9  2  0  0  0  0
 10 15  1  0  0  0  0
 11 10  1  0  0  0  0
 12 13  1  0  0  0  0
 12 11  2  0  0  0  0
 13  8  2  0  0  0  0
 16 12  1  0  0  0  0
 17 18  1  0  0  0  0
 18 25  1  0  0  0  0
 19 18  2  0  0  0  0
 19 20  1  0  0  0  0
 20 21  1  0  0  0  0
 20 22  2  0  0  0  0
 22 23  1  0  0  0  0
 24 22  1  0  0  0  0
 25 24  2  0  0  0  0
M  END
>  <minimizedAffinity>
-4.86989498

$$$$

 OpenBabel03242513473D

 25 27  0  0  1  0  0  0  0  0999 V2000
   35.7910   30.2680   40.7680 C   0  0  1  0  0  0  0  0  0  0  0  0
   35.6420   29.5160   39.4260 C   0  0  0  0  0  0  0  0  0  0  0  0
   35.5800   28.8380   40.7460 C   0  0  1  0  0  0  0  0  0  0  0  0
   34.9630   30.9820   41.0020 H   0  0  0  0  0  0  0  0  0  0  0  0
   36.5090   29.4950   38.7600 H   0  0  0  0  0  0  0  0  0  0  0  0
   34.7100   29.7700   38.8870 H   0  0  0  0  0  0  0  0  0  0  0  0
   34.5180   28.5400   41.0400 H   0  0  0  0  0  0  0  0  0  0  0  0
   37.1180   30.9130   40.9340 C   0  0  0  0  0  0  0  0  0  0  0  0
   37.3260   32.1430   40.2660 C   0  0  0  0  0  0  0  0  0  0  0  0
   38.5570   32.7610   40.4250 C   0  0  0  0  0  0  0  0  0  0  0  0
   39.4970   32.1600   41.2060 N   0  0  0  0  0  0  0  0  0  0  0  0
   39.2650   30.9870   41.8280 C   0  0  0  0  0  0  0  0  0  0  0  0
   38.0780   30.3590   41.6960 N   0  0  0  0  0  0  0  0  0  0  0  0
   36.6430   32.6540   39.6440 H   0  0  0  0  0  0  0  0  0  0  0  0
   38.7970   33.7090   39.9460 H   0  0  0  0  0  0  0  0  0  0  0  0
   40.0440   30.5310   42.4490 H   0  0  0  0  0  0  0  0  0  0  0  0
   36.0720   27.5620   43.2620 F   0  0  0  0  0  0  0  0  0  0  0  0
   36.8280   27.1510   42.1900 C   0  0  0  0  0  0  0  0  0  0  0  0
   36.5740   27.7880   40.9690 C   0  0  0  0  0  0  0  0  0  0  0  0
   37.3970   27.2870   39.9720 C   0  0  0  0  0  0  0  0  0  0  0  0
   37.3310   27.6680   38.9620 H   0  0  0  0  0  0  0  0  0  0  0  0
   38.3450   26.2970   40.1360 C   0  0  0  0  0  0  0  0  0  0  0  0
   38.9590   25.9450   39.3190 H   0  0  0  0  0  0  0  0  0  0  0  0
   38.5130   25.7370   41.3850 C   0  0  0  0  0  3  0  0  0  0  0  0
   37.7360   26.1750   42.4370 C   0  0  0  0  0  3  0  0  0  0  0  0
  1  8  1  0  0  0  0
  1  4  1  1  0  0  0
  2  3  1  0  0  0  0
  2  1  1  0  0  0  0
  3  1  1  0  0  0  0
  3 19  1  0  0  0  0
  3  7  1  1  0  0  0
  5  2  1  0  0  0  0
  6  2  1  0  0  0  0
  8 13  1  0  0  0  0
  9 10  1  0  0  0  0
  9  8  2  0  0  0  0
 10 11  2  0  0  0  0
 11 12  1  0  0  0  0
 12 16  1  0  0  0  0
 13 12  2  0  0  0  0
 14  9  1  0  0  0  0
 15 10  1  0  0  0  0
 18 25  1  0  0  0  0
 18 17  1  0  0  0  0
 19 18  2  0  0  0  0
 20 22  2  0  0  0  0
 20 19  1  0  0  0  0
 21 20  1  0  0  0  0
 22 24  1  0  0  0  0
 23 22  1  0  0  0  0
 24 25  2  0  0  0  0
M  END
>  <minimizedAffinity>
-4.80557775

$$$$

 OpenBabel03242513473D

 25 27  0  0  1  0  0  0  0  0999 V2000
   39.5700   24.6050   43.0130 C   0  0  1  0  0  0  0  0  0  0  0  0
   40.9970   25.1770   42.8540 C   0  0  0  0  0  0  0  0  0  0  0  0
   39.9490   25.8300   43.6800 C   0  0  1  0  0  0  0  0  0  0  0  0
   39.5110   23.6310   43.5580 H   0  0  0  0  0  0  0  0  0  0  0  0
   41.2980   25.5130   41.8580 H   0  0  0  0  0  0  0  0  0  0  0  0
   41.7720   24.5500   43.3340 H   0  0  0  0  0  0  0  0  0  0  0  0
   40.1200   25.6930   44.8000 H   0  0  0  0  0  0  0  0  0  0  0  0
   38.8160   24.5500   41.7350 C   0  0  0  0  0  0  0  0  0  0  0  0
   37.4480   24.1980   41.8070 C   0  0  0  0  0  0  0  0  0  0  0  0
   36.7310   24.1560   40.6210 C   0  0  0  0  0  0  0  0  0  0  0  0
   37.3720   24.4520   39.4560 N   0  0  0  0  0  0  0  0  0  0  0  0
   38.6780   24.7830   39.4240 C   0  0  0  0  0  0  0  0  0  0  0  0
   39.4050   24.8340   40.5590 N   0  0  0  0  0  0  0  0  0  0  0  0
   36.8970   23.9540   42.6740 H   0  0  0  0  0  0  0  0  0  0  0  0
   35.6740   23.8950   40.5890 H   0  0  0  0  0  0  0  0  0  0  0  0
   39.1630   25.0140   38.4680 H   0  0  0  0  0  0  0  0  0  0  0  0
   37.2920   26.8960   43.6800 F   0  0  0  0  0  0  0  0  0  0  0  0
   38.3060   27.7380   43.2920 C   0  0  0  0  0  0  0  0  0  0  0  0
   39.5990   27.1980   43.2970 C   0  0  0  0  0  0  0  0  0  0  0  0
   40.5280   28.1420   42.8880 C   0  0  0  0  0  0  0  0  0  0  0  0
   41.5790   27.8910   42.8360 H   0  0  0  0  0  0  0  0  0  0  0  0
   40.2440   29.4420   42.5200 C   0  0  0  0  0  0  0  0  0  0  0  0
   41.0130   30.1350   42.2100 H   0  0  0  0  0  0  0  0  0  0  0  0
   38.9340   29.8700   42.5520 C   0  0  0  0  0  3  0  0  0  0  0  0
   37.9420   28.9970   42.9470 C   0  0  0  0  0  3  0  0  0  0  0  0
  1  4  1  1  0  0  0
  1  3  1  0  0  0  0
  2  1  1  0  0  0  0
  2  6  1  0  0  0  0
  2  3  1  0  0  0  0
  3  7  1  1  0  0  0
  5  2  1  0  0  0  0
  8  9  1  0  0  0  0
  8  1  1  0  0  0  0
  9 14  1  0  0  0  0
 10  9  2  0  0  0  0
 11 10  1  0  0  0  0
 12 11  2  0  0  0  0
 12 13  1  0  0  0  0
 13  8  2  0  0  0  0
 15 10  1  0  0  0  0
 16 12  1  0  0  0  0
 18 19  1  0  0  0  0
 18 17  1  0  0  0  0
 19  3  1  0  0  0  0
 20 19  2  0  0  0  0
 21 20  1  0  0  0  0
 22 24  2  0  0  0  0
 22 20  1  0  0  0  0
 23 22  1  0  0  0  0
 24 25  1  0  0  0  0
 25 18  2  0  0  0  0
M  END
>  <minimizedAffinity>
-4.79260731

$$$$

 OpenBabel03242513473D

 25 27  0  0  1  0  0  0  0  0999 V2000
   37.2400   31.8930   40.4350 C   0  0  1  0  0  0  0  0  0  0  0  0
   36.4920   30.8470   39.5780 C   0  0  0  0  0  0  0  0  0  0  0  0
   36.4700   30.8430   41.0630 C   0  0  1  0  0  0  0  0  0  0  0  0
   36.8510   32.9380   40.3480 H   0  0  0  0  0  0  0  0  0  0  0  0
   37.0960   30.1710   38.9670 H   0  0  0  0  0  0  0  0  0  0  0  0
   35.6440   31.2760   39.0110 H   0  0  0  0  0  0  0  0  0  0  0  0
   35.4790   31.2130   41.4910 H   0  0  0  0  0  0  0  0  0  0  0  0
   38.7130   31.8540   40.2540 C   0  0  0  0  0  0  0  0  0  0  0  0
   39.2040   31.2100   39.0940 C   0  0  0  0  0  0  0  0  0  0  0  0
   40.5780   31.1790   38.9080 C   0  0  0  0  0  0  0  0  0  0  0  0
   41.3790   31.7630   39.8420 N   0  0  0  0  0  0  0  0  0  0  0  0
   40.8770   32.3670   40.9370 C   0  0  0  0  0  0  0  0  0  0  0  0
   39.5460   32.4160   41.1480 N   0  0  0  0  0  0  0  0  0  0  0  0
   38.6370   30.7360   38.3390 H   0  0  0  0  0  0  0  0  0  0  0  0
   41.0360   30.7040   38.0420 H   0  0  0  0  0  0  0  0  0  0  0  0
   41.5520   32.8260   41.6690 H   0  0  0  0  0  0  0  0  0  0  0  0
   35.4570   28.2060   40.5960 F   0  0  0  0  0  0  0  0  0  0  0  0
   36.4950   28.3320   41.4870 C   0  0  0  0  0  0  0  0  0  0  0  0
   36.9760   29.6290   41.7030 C   0  0  0  0  0  0  0  0  0  0  0  0
   38.0170   29.6220   42.6180 C   0  0  0  0  0  0  0  0  0  0  0  0
   38.5080   30.5430   42.9000 H   0  0  0  0  0  0  0  0  0  0  0  0
   38.5280   28.5030   43.2450 C   0  0  0  0  0  0  0  0  0  0  0  0
   39.3440   28.5580   43.9510 H   0  0  0  0  0  0  0  0  0  0  0  0
   37.9780   27.2710   42.9580 C   0  0  0  0  0  3  0  0  0  0  0  0
   36.9370   27.1840   42.0570 C   0  0  0  0  0  3  0  0  0  0  0  0
  1  4  1  1  0  0  0
  1  3  1  0  0  0  0
  2  1  1  0  0  0  0
  2  3  1  0  0  0  0
  3  7  1  1  0  0  0
  3 19  1  0  0  0  0
  5  2  1  0  0  0  0
  6  2  1  0  0  0  0
  8  1  1  0  0  0  0
  8 13  1  0  0  0  0
  9  8  2  0  0  0  0
 10  9  1  0  0  0  0
 10 11  2  0  0  0  0
 11 12  1  0  0  0  0
 12 13  2  0  0  0  0
 12 16  1  0  0  0  0
 14  9  1  0  0  0  0
 15 10  1  0  0  0  0
 17 18  1  0  0  0  0
 18 19  2  0  0  0  0
 18 25  1  0  0  0  0
 19 20  1  0  0  0  0
 20 21  1  0  0  0  0
 20 22  2  0  0  0  0
 22 23  1  0  0  0  0
 24 22  1  0  0  0  0
 25 24  2  0  0  0  0
M  END
>  <minimizedAffinity>
-4.75402975

$$$$

 OpenBabel03242513473D

 25 27  0  0  1  0  0  0  0  0999 V2000
   37.5830   28.5650   42.9100 C   0  0  1  0  0  0  0  0  0  0  0  0
   36.5770   27.6800   43.6800 C   0  0  0  0  0  0  0  0  0  0  0  0
   37.9500   27.2330   43.3330 C   0  0  1  0  0  0  0  0  0  0  0  0
   37.9270   29.4750   43.4630 H   0  0  0  0  0  0  0  0  0  0  0  0
   35.6730   27.3660   43.1510 H   0  0  0  0  0  0  0  0  0  0  0  0
   36.3550   28.0560   44.6960 H   0  0  0  0  0  0  0  0  0  0  0  0
   38.6540   27.2290   44.2320 H   0  0  0  0  0  0  0  0  0  0  0  0
   37.1290   28.9110   41.5400 C   0  0  0  0  0  0  0  0  0  0  0  0
   38.1270   29.0610   40.5480 C   0  0  0  0  0  0  0  0  0  0  0  0
   37.7140   29.3710   39.2610 C   0  0  0  0  0  0  0  0  0  0  0  0
   36.3820   29.5150   39.0170 N   0  0  0  0  0  0  0  0  0  0  0  0
   35.4570   29.3650   39.9860 C   0  0  0  0  0  0  0  0  0  0  0  0
   35.8250   29.0630   41.2480 N   0  0  0  0  0  0  0  0  0  0  0  0
   39.1710   28.9690   40.6750 H   0  0  0  0  0  0  0  0  0  0  0  0
   38.4180   29.5040   38.4410 H   0  0  0  0  0  0  0  0  0  0  0  0
   34.3930   29.4880   39.7550 H   0  0  0  0  0  0  0  0  0  0  0  0
   40.3590   26.2380   42.1470 F   0  0  0  0  0  0  0  0  0  0  0  0
   39.2060   25.5260   41.9190 C   0  0  0  0  0  0  0  0  0  0  0  0
   38.0380   26.0290   42.5060 C   0  0  0  0  0  0  0  0  0  0  0  0
   36.9500   25.2260   42.2030 C   0  0  0  0  0  0  0  0  0  0  0  0
   35.9660   25.4700   42.5790 H   0  0  0  0  0  0  0  0  0  0  0  0
   36.9860   24.0820   41.4310 C   0  0  0  0  0  0  0  0  0  0  0  0
   36.1020   23.4940   41.2280 H   0  0  0  0  0  0  0  0  0  0  0  0
   38.1920   23.6760   40.9010 C   0  0  0  0  0  3  0  0  0  0  0  0
   39.3290   24.4160   41.1510 C   0  0  0  0  0  3  0  0  0  0  0  0
  1  3  1  0  0  0  0
  1  4  1  1  0  0  0
  1  2  1  0  0  0  0
  2  6  1  0  0  0  0
  3  2  1  0  0  0  0
  3  7  1  1  0  0  0
  5  2  1  0  0  0  0
  8  1  1  0  0  0  0
  9 14  1  0  0  0  0
  9  8  2  0  0  0  0
 10  9  1  0  0  0  0
 11 10  2  0  0  0  0
 11 12  1  0  0  0  0
 12 13  2  0  0  0  0
 13  8  1  0  0  0  0
 15 10  1  0  0  0  0
 16 12  1  0  0  0  0
 18 17  1  0  0  0  0
 18 19  1  0  0  0  0
 19  3  1  0  0  0  0
 20 19  2  0  0  0  0
 20 21  1  0  0  0  0
 22 20  1  0  0  0  0
 23 22  1  0  0  0  0
 24 25  1  0  0  0  0
 24 22  2  0  0  0  0
 25 18  2  0  0  0  0
M  END
>  <minimizedAffinity>
-4.66580296

$$$$

 OpenBabel03242513473D

 25 27  0  0  1  0  0  0  0  0999 V2000
   36.8800   28.9020   41.6230 C   0  0  1  0  0  0  0  0  0  0  0  0
   36.3940   27.7490   40.7160 C   0  0  0  0  0  0  0  0  0  0  0  0
   36.6810   27.5760   42.1630 C   0  0  1  0  0  0  0  0  0  0  0  0
   36.1360   29.7210   41.7830 H   0  0  0  0  0  0  0  0  0  0  0  0
   37.0600   27.4270   39.9110 H   0  0  0  0  0  0  0  0  0  0  0  0
   35.3520   27.8800   40.3680 H   0  0  0  0  0  0  0  0  0  0  0  0
   35.7330   27.4890   42.7930 H   0  0  0  0  0  0  0  0  0  0  0  0
   38.2000   29.4490   41.2190 C   0  0  0  0  0  0  0  0  0  0  0  0
   38.8840   30.2500   42.1640 C   0  0  0  0  0  0  0  0  0  0  0  0
   40.1230   30.7560   41.8020 C   0  0  0  0  0  0  0  0  0  0  0  0
   40.6160   30.4600   40.5670 N   0  0  0  0  0  0  0  0  0  0  0  0
   39.9370   29.6930   39.6910 C   0  0  0  0  0  0  0  0  0  0  0  0
   38.7300   29.1850   40.0120 N   0  0  0  0  0  0  0  0  0  0  0  0
   38.5530   30.5190   43.1300 H   0  0  0  0  0  0  0  0  0  0  0  0
   40.7140   31.3800   42.4700 H   0  0  0  0  0  0  0  0  0  0  0  0
   40.3640   29.4750   38.7060 H   0  0  0  0  0  0  0  0  0  0  0  0
   36.6180   24.8280   41.3590 F   0  0  0  0  0  0  0  0  0  0  0  0
   37.6930   25.2390   42.1090 C   0  0  0  0  0  0  0  0  0  0  0  0
   37.7060   26.5860   42.4940 C   0  0  0  0  0  0  0  0  0  0  0  0
   38.8370   26.8740   43.2420 C   0  0  0  0  0  0  0  0  0  0  0  0
   39.0060   27.8730   43.6200 H   0  0  0  0  0  0  0  0  0  0  0  0
   39.8290   25.9740   43.5770 C   0  0  0  0  0  0  0  0  0  0  0  0
   40.6910   26.2570   44.1640 H   0  0  0  0  0  0  0  0  0  0  0  0
   39.7160   24.6690   43.1440 C   0  0  0  0  0  3  0  0  0  0  0  0
   38.6220   24.2930   42.3930 C   0  0  0  0  0  3  0  0  0  0  0  0
  1  4  1  1  0  0  0
  1  3  1  0  0  0  0
  2  1  1  0  0  0  0
  2  3  1  0  0  0  0
  3 19  1  0  0  0  0
  3  7  1  1  0  0  0
  5  2  1  0  0  0  0
  6  2  1  0  0  0  0
  8  1  1  0  0  0  0
  8  9  1  0  0  0  0
  9 14  1  0  0  0  0
 10  9  2  0  0  0  0
 10 15  1  0  0  0  0
 11 10  1  0  0  0  0
 12 13  1  0  0  0  0
 12 11  2  0  0  0  0
 13  8  2  0  0  0  0
 16 12  1  0  0  0  0
 17 18  1  0  0  0  0
 18 25  2  0  0  0  0
 18 19  1  0  0  0  0
 19 20  2  0  0  0  0
 20 22  1  0  0  0  0
 20 21  1  0  0  0  0
 22 23  1  0  0  0  0
 24 22  2  0  0  0  0
 25 24  1  0  0  0  0
M  END
>  <minimizedAffinity>
-4.6341176

$$$$

 OpenBabel03242513473D

 25 27  0  0  1  0  0  0  0  0999 V2000
   36.7850   30.9910   40.2020 C   0  0  1  0  0  0  0  0  0  0  0  0
   35.5770   30.0280   40.2460 C   0  0  0  0  0  0  0  0  0  0  0  0
   36.4280   30.3160   41.4290 C   0  0  1  0  0  0  0  0  0  0  0  0
   36.5250   32.0640   40.0230 H   0  0  0  0  0  0  0  0  0  0  0  0
   35.6380   29.1150   39.6490 H   0  0  0  0  0  0  0  0  0  0  0  0
   34.6060   30.5430   40.1220 H   0  0  0  0  0  0  0  0  0  0  0  0
   35.9170   31.0040   42.1840 H   0  0  0  0  0  0  0  0  0  0  0  0
   37.8600   30.5400   39.2840 C   0  0  0  0  0  0  0  0  0  0  0  0
   39.1670   31.0240   39.5320 C   0  0  0  0  0  0  0  0  0  0  0  0
   40.1810   30.5980   38.6880 C   0  0  0  0  0  0  0  0  0  0  0  0
   39.8740   29.7450   37.6720 N   0  0  0  0  0  0  0  0  0  0  0  0
   38.6180   29.3040   37.4640 C   0  0  0  0  0  0  0  0  0  0  0  0
   37.6080   29.6970   38.2660 N   0  0  0  0  0  0  0  0  0  0  0  0
   39.4660   31.6880   40.2960 H   0  0  0  0  0  0  0  0  0  0  0  0
   41.2130   30.9230   38.8100 H   0  0  0  0  0  0  0  0  0  0  0  0
   38.4060   28.6180   36.6360 H   0  0  0  0  0  0  0  0  0  0  0  0
   38.9180   30.4110   42.8400 F   0  0  0  0  0  0  0  0  0  0  0  0
   38.3050   29.1860   42.7290 C   0  0  0  0  0  0  0  0  0  0  0  0
   37.0890   29.1600   42.0340 C   0  0  0  0  0  0  0  0  0  0  0  0
   36.5740   27.8730   41.9910 C   0  0  0  0  0  0  0  0  0  0  0  0
   35.6360   27.6730   41.4930 H   0  0  0  0  0  0  0  0  0  0  0  0
   37.1610   26.7550   42.5490 C   0  0  0  0  0  0  0  0  0  0  0  0
   36.7120   25.7740   42.4840 H   0  0  0  0  0  0  0  0  0  0  0  0
   38.3620   26.8950   43.2120 C   0  0  0  0  0  3  0  0  0  0  0  0
   38.9470   28.1400   43.3040 C   0  0  0  0  0  3  0  0  0  0  0  0
  1  4  1  6  0  0  0
  1  2  1  0  0  0  0
  1  3  1  0  0  0  0
  2  3  1  0  0  0  0
  3 19  1  0  0  0  0
  3  7  1  1  0  0  0
  5  2  1  0  0  0  0
  6  2  1  0  0  0  0
  8  9  1  0  0  0  0
  8  1  1  0  0  0  0
  9 14  1  0  0  0  0
 10 15  1  0  0  0  0
 10  9  2  0  0  0  0
 11 10  1  0  0  0  0
 12 11  2  0  0  0  0
 12 13  1  0  0  0  0
 13  8  2  0  0  0  0
 16 12  1  0  0  0  0
 18 17  1  0  0  0  0
 18 25  1  0  0  0  0
 19 18  2  0  0  0  0
 20 19  1  0  0  0  0
 20 22  2  0  0  0  0
 21 20  1  0  0  0  0
 22 24  1  0  0  0  0
 23 22  1  0  0  0  0
 24 25  2  0  0  0  0
M  END
>  <minimizedAffinity>
-4.61447001

$$$$

 OpenBabel03242513473D

 25 27  0  0  1  0  0  0  0  0999 V2000
   37.2540   29.8550   42.0900 C   0  0  1  0  0  0  0  0  0  0  0  0
   38.0160   30.8430   41.1780 C   0  0  0  0  0  0  0  0  0  0  0  0
   36.5600   30.5790   41.0490 C   0  0  1  0  0  0  0  0  0  0  0  0
   37.1890   30.1610   43.1640 H   0  0  0  0  0  0  0  0  0  0  0  0
   38.7800   30.4300   40.5140 H   0  0  0  0  0  0  0  0  0  0  0  0
   38.3720   31.7430   41.7130 H   0  0  0  0  0  0  0  0  0  0  0  0
   35.9190   31.4330   41.4520 H   0  0  0  0  0  0  0  0  0  0  0  0
   37.7260   28.4540   41.9590 C   0  0  0  0  0  0  0  0  0  0  0  0
   36.7990   27.4290   42.2620 C   0  0  0  0  0  0  0  0  0  0  0  0
   37.2260   26.1160   42.1310 C   0  0  0  0  0  0  0  0  0  0  0  0
   38.5040   25.8800   41.7220 N   0  0  0  0  0  0  0  0  0  0  0  0
   39.3610   26.8810   41.4420 C   0  0  0  0  0  0  0  0  0  0  0  0
   38.9780   28.1690   41.5590 N   0  0  0  0  0  0  0  0  0  0  0  0
   35.8020   27.5470   42.5880 H   0  0  0  0  0  0  0  0  0  0  0  0
   36.5750   25.2700   42.3430 H   0  0  0  0  0  0  0  0  0  0  0  0
   40.3830   26.6540   41.1160 H   0  0  0  0  0  0  0  0  0  0  0  0
   34.2470   28.9420   40.6390 F   0  0  0  0  0  0  0  0  0  0  0  0
   34.9900   29.2680   39.5310 C   0  0  0  0  0  0  0  0  0  0  0  0
   36.1190   30.0680   39.7510 C   0  0  0  0  0  0  0  0  0  0  0  0
   36.7800   30.3240   38.5600 C   0  0  0  0  0  0  0  0  0  0  0  0
   37.6750   30.9310   38.5490 H   0  0  0  0  0  0  0  0  0  0  0  0
   36.4000   29.8660   37.3150 C   0  0  0  0  0  0  0  0  0  0  0  0
   36.9560   30.1000   36.4190 H   0  0  0  0  0  0  0  0  0  0  0  0
   35.2690   29.0830   37.2120 C   0  0  0  0  0  3  0  0  0  0  0  0
   34.5470   28.7770   38.3470 C   0  0  0  0  0  3  0  0  0  0  0  0
  1  4  1  1  0  0  0
  2  6  1  0  0  0  0
  2  1  1  0  0  0  0
  3  2  1  0  0  0  0
  3  7  1  1  0  0  0
  3  1  1  0  0  0  0
  5  2  1  0  0  0  0
  8  1  1  0  0  0  0
  8  9  1  0  0  0  0
  9 14  1  0  0  0  0
 10  9  2  0  0  0  0
 10 15  1  0  0  0  0
 11 10  1  0  0  0  0
 12 13  1  0  0  0  0
 12 11  2  0  0  0  0
 13  8  2  0  0  0  0
 16 12  1  0  0  0  0
 18 19  1  0  0  0  0
 18 17  1  0  0  0  0
 19  3  1  0  0  0  0
 20 19  2  0  0  0  0
 21 20  1  0  0  0  0
 22 20  1  0  0  0  0
 23 22  1  0  0  0  0
 24 22  2  0  0  0  0
 24 25  1  0  0  0  0
 25 18  2  0  0  0  0
M  END
>  <minimizedAffinity>
-4.60563469

$$$$
