
 OpenBabel03242517083D

 34 36  0  0  1  0  0  0  0  0999 V2000
   46.3400   33.9370   43.2450 C   0  0  2  0  0  0  0  0  0  0  0  0
   45.7830   35.0960   42.4990 C   0  0  2  0  0  0  0  0  0  0  0  0
   45.4630   36.2600   43.3590 C   0  0  0  0  0  0  0  0  0  0  0  0
   44.5900   35.9400   44.5380 C   0  0  0  0  0  0  0  0  0  0  0  0
   44.9430   34.6430   45.2000 C   0  0  0  0  0  0  0  0  0  0  0  0
   46.2760   34.1020   44.7530 C   0  0  0  0  0  0  0  0  0  0  0  0
   45.7810   33.0040   42.9670 H   0  0  0  0  0  0  0  0  0  0  0  0
   46.6160   35.4680   41.7740 H   0  0  0  0  0  0  0  0  0  0  0  0
   46.3770   36.7360   43.8230 H   0  0  0  0  0  0  0  0  0  0  0  0
   45.0060   37.0830   42.7660 H   0  0  0  0  0  0  0  0  0  0  0  0
   43.5280   35.9490   44.2610 H   0  0  0  0  0  0  0  0  0  0  0  0
   44.6930   36.8090   45.2630 H   0  0  0  0  0  0  0  0  0  0  0  0
   45.0180   34.8440   46.2890 H   0  0  0  0  0  0  0  0  0  0  0  0
   44.1500   33.8730   45.1120 H   0  0  0  0  0  0  0  0  0  0  0  0
   47.1120   34.7210   45.0870 H   0  0  0  0  0  0  0  0  0  0  0  0
   46.3940   33.0890   45.1890 H   0  0  0  0  0  0  0  0  0  0  0  0
   47.7520   33.6910   42.8840 C   0  0  0  0  0  0  0  0  0  0  0  0
   48.5630   34.8340   42.7030 C   0  0  0  0  0  0  0  0  0  0  0  0
   49.9080   34.6710   42.3670 C   0  0  0  0  0  0  0  0  0  0  0  0
   50.3570   33.3710   42.2330 N   0  0  0  0  0  0  0  0  0  0  0  0
   49.5640   32.3010   42.4100 C   0  0  0  0  0  0  0  0  0  0  0  0
   48.2580   32.4640   42.7360 N   0  0  0  0  0  0  0  0  0  0  0  0
   48.3070   35.8500   42.7830 H   0  0  0  0  0  0  0  0  0  0  0  0
   50.6050   35.4800   42.2090 H   0  0  0  0  0  0  0  0  0  0  0  0
   50.0410   31.3370   42.2750 H   0  0  0  0  0  0  0  0  0  0  0  0
   46.1040   33.5000   40.1440 F   0  0  0  0  0  0  0  0  0  0  0  0
   44.8530   33.9980   40.4140 C   0  0  0  0  0  0  0  0  0  0  0  0
   44.6870   34.7950   41.5600 C   0  0  0  0  0  0  0  0  0  0  0  0
   43.3850   35.1990   41.6690 C   0  0  0  0  0  0  0  0  0  0  0  0
   43.0760   35.8020   42.5020 H   0  0  0  0  0  0  0  0  0  0  0  0
   42.3580   34.8960   40.8090 C   0  0  0  0  0  0  0  0  0  0  0  0
   41.3450   35.2440   40.9450 H   0  0  0  0  0  0  0  0  0  0  0  0
   42.6130   34.1130   39.7190 C   0  0  0  0  0  0  0  0  0  0  0  0
   43.8830   33.6480   39.5070 C   0  0  0  0  0  0  0  0  0  0  0  0
  1  7  1  6  0  0  0
  1  6  1  0  0  0  0
  2  8  1  6  0  0  0
  2  1  1  0  0  0  0
  2  3  1  0  0  0  0
  3  9  1  0  0  0  0
  3  4  1  0  0  0  0
  4  5  1  0  0  0  0
  4 12  1  0  0  0  0
  5 13  1  0  0  0  0
  6 15  1  0  0  0  0
  6 16  1  0  0  0  0
  6  5  1  0  0  0  0
 10  3  1  0  0  0  0
 11  4  1  0  0  0  0
 14  5  1  0  0  0  0
 17  1  1  0  0  0  0
 18 23  1  0  0  0  0
 18 17  2  0  0  0  0
 19 18  1  0  0  0  0
 20 19  2  0  0  0  0
 20 21  1  0  0  0  0
 21 22  2  0  0  0  0
 22 17  1  0  0  0  0
 24 19  1  0  0  0  0
 25 21  1  0  0  0  0
 26 27  1  0  0  0  0
 27 28  1  0  0  0  0
 28 29  2  0  0  0  0
 28  2  1  0  0  0  0
 29 30  1  0  0  0  0
 31 32  1  0  0  0  0
 31 29  1  0  0  0  0
 33 31  2  0  0  0  0
 34 33  1  0  0  0  0
 34 27  2  0  0  0  0
M  END
>  <minimizedAffinity>
-5.46491671

>  <minimizedRMSD>
2.5688827

$$$$
