
 OpenBabel03252502533D

 31 33  0  0  0  0  0  0  0  0999 V2000
   46.2170   29.6700   44.6950 Br  0  0  0  0  0  0  0  0  0  0  0  0
   45.8690   30.5130   46.3820 C   0  0  0  0  0  0  0  0  0  0  0  0
   46.3010   31.8120   46.5290 C   0  0  0  0  0  0  0  0  0  0  0  0
   46.0260   32.3780   47.7670 C   0  0  0  0  0  0  0  0  0  0  0  0
   45.3730   31.7140   48.7890 C   0  0  0  0  0  0  0  0  0  0  0  0
   44.9710   30.4210   48.5740 C   0  0  0  0  0  0  0  0  0  0  0  0
   45.2110   29.7810   47.3540 C   0  0  0  0  0  0  0  0  0  0  0  0
   46.3110   33.3950   48.0150 H   0  0  0  0  0  0  0  0  0  0  0  0
   45.1710   32.1760   49.7440 H   0  0  0  0  0  0  0  0  0  0  0  0
   44.4530   29.8610   49.3510 H   0  0  0  0  0  0  0  0  0  0  0  0
   42.9390   29.0050   45.8240 F   0  0  0  0  0  0  0  0  0  0  0  0
   43.7090   28.0000   46.3320 C   0  0  0  0  0  0  0  0  0  0  0  0
   44.8050   28.4070   47.0710 C   0  0  0  0  0  0  0  0  0  0  0  0
   45.6600   27.4540   47.6370 C   0  0  0  0  0  0  0  0  0  0  0  0
   46.5470   27.7200   48.2340 H   0  0  0  0  0  0  0  0  0  0  0  0
   45.4110   26.0930   47.4600 C   0  0  0  0  0  0  0  0  0  0  0  0
   46.0820   25.3550   47.9040 H   0  0  0  0  0  0  0  0  0  0  0  0
   44.3070   25.7340   46.7150 C   0  0  0  0  0  0  0  0  0  0  0  0
   43.4500   26.6580   46.1480 C   0  0  0  0  0  0  0  0  0  0  0  0
   46.9970   32.6090   45.5240 C   0  0  0  0  0  0  0  0  0  0  0  0
   48.0000   32.9280   45.8690 H   0  0  0  0  0  0  0  0  0  0  0  0
   47.1790   31.9340   44.6540 H   0  0  0  0  0  0  0  0  0  0  0  0
   44.5460   35.4040   45.2140 C   0  0  0  0  0  0  0  0  0  0  0  0
   44.7850   35.8470   43.9090 C   0  0  0  0  0  0  0  0  0  0  0  0
   45.7590   35.1990   43.1720 C   0  0  0  0  0  0  0  0  0  0  0  0
   46.4400   34.1710   43.7270 N   0  0  0  0  0  0  0  0  0  0  0  0
   46.1920   33.7470   45.0110 C   0  0  0  0  0  0  0  0  0  0  0  0
   45.2400   34.3890   45.7180 N   0  0  0  0  0  0  0  0  0  0  0  0
   43.7870   35.9010   45.8050 H   0  0  0  0  0  0  0  0  0  0  0  0
   44.2600   36.6570   43.4500 H   0  0  0  0  0  0  0  0  0  0  0  0
   45.9710   35.5180   42.1530 H   0  0  0  0  0  0  0  0  0  0  0  0
  1  2  1  0  0  0  0
  2  3  2  0  0  0  0
  2  7  1  0  0  0  0
  3  4  1  0  0  0  0
  4  8  1  0  0  0  0
  4  5  2  0  0  0  0
  5  9  1  0  0  0  0
  6  5  1  0  0  0  0
  6 10  1  0  0  0  0
  7  6  2  0  0  0  0
 11 12  1  0  0  0  0
 12 13  1  0  0  0  0
 13  7  1  0  0  0  0
 13 14  2  0  0  0  0
 14 15  1  0  0  0  0
 16 14  1  0  0  0  0
 16 17  1  0  0  0  0
 18 16  2  0  0  0  0
 19 12  2  0  0  0  0
 19 18  1  0  0  0  0
 20 21  1  0  0  0  0
 20  3  1  0  0  0  0
 22 20  1  0  0  0  0
 23 28  1  0  0  0  0
 23 29  1  0  0  0  0
 24 23  2  0  0  0  0
 25 26  2  0  0  0  0
 25 24  1  0  0  0  0
 26 27  1  0  0  0  0
 27 20  1  0  0  0  0
 27 28  2  0  0  0  0
 30 24  1  0  0  0  0
 31 25  1  0  0  0  0
M  END
>  <minimizedAffinity>
-5.47473621

>  <minimizedRMSD>
0.932460666

$$$$
