
 OpenBabel03252507073D

 24 25  0  0  0  0  0  0  0  0999 V2000
   44.5250   36.0370   44.4960 C   0  0  0  0  0  0  0  0  0  0  0  0
   45.1600   35.9900   43.2320 C   0  0  0  0  0  0  0  0  0  0  0  0
   46.0550   34.9450   43.0090 C   0  0  0  0  0  0  0  0  0  0  0  0
   46.2760   34.0370   43.9900 N   0  0  0  0  0  0  0  0  0  0  0  0
   45.6600   34.1070   45.1820 C   0  0  0  0  0  0  0  0  0  0  0  0
   44.7870   35.0970   45.4460 N   0  0  0  0  0  0  0  0  0  0  0  0
   43.8190   36.8530   44.6830 H   0  0  0  0  0  0  0  0  0  0  0  0
   44.9650   36.7240   42.4680 H   0  0  0  0  0  0  0  0  0  0  0  0
   47.6150   32.0900   44.7220 F   0  0  0  0  0  0  0  0  0  0  0  0
   46.9350   32.1040   45.9120 C   0  0  0  0  0  0  0  0  0  0  0  0
   45.9730   33.0770   46.1660 C   0  0  0  0  0  0  0  0  0  0  0  0
   45.2900   33.0880   47.3630 C   0  0  0  0  0  0  0  0  0  0  0  0
   44.5310   33.8370   47.5930 H   0  0  0  0  0  0  0  0  0  0  0  0
   45.5560   32.1250   48.3300 C   0  0  0  0  0  0  0  0  0  0  0  0
   44.9900   32.1690   49.2700 H   0  0  0  0  0  0  0  0  0  0  0  0
   46.5110   31.1460   48.0970 C   0  0  0  0  0  3  0  0  0  0  0  0
   47.2030   31.1360   46.8820 C   0  0  0  0  0  3  0  0  0  0  0  0
   46.6780   34.9020   41.7600 O   0  0  0  0  0  0  0  0  0  0  0  0
   48.6280   33.2520   41.0780 O   0  0  0  0  0  0  0  0  0  0  0  0
   48.3720   34.6290   41.6790 P   0  0  0  0  0  0  0  0  0  0  0  0
   49.0850   35.8490   40.7890 O   0  0  0  0  0  0  0  0  0  0  0  0
   49.8620   36.1770   41.2760 H   0  0  0  0  0  0  0  0  0  0  0  0
   48.9600   34.5880   43.2770 O   0  0  0  0  0  0  0  0  0  0  0  0
   49.0300   35.5590   43.5330 H   0  0  0  0  0  0  0  0  0  0  0  0
  1  7  1  0  0  0  0
  1  6  1  0  0  0  0
  2  1  2  0  0  0  0
  3  2  1  0  0  0  0
  3  4  2  0  0  0  0
  4  5  1  0  0  0  0
  5  6  2  0  0  0  0
  5 11  1  0  0  0  0
  8  2  1  0  0  0  0
  9 10  1  0  0  0  0
 10 11  2  0  0  0  0
 10 17  1  0  0  0  0
 11 12  1  0  0  0  0
 12 13  1  0  0  0  0
 12 14  2  0  0  0  0
 14 15  1  0  0  0  0
 16 14  1  0  0  0  0
 17 16  2  0  0  0  0
 18  3  1  0  0  0  0
 19 20  2  0  0  0  0
 20 18  1  0  0  0  0
 20 23  1  0  0  0  0
 21 22  1  0  0  0  0
 21 20  1  0  0  0  0
 23 24  1  0  0  0  0
M  END
>  <minimizedAffinity>
-5.99034262

>  <minimizedRMSD>
0.215897411

$$$$
