
 OpenBabel03252507083D

 24 25  0  0  0  0  0  0  0  0999 V2000
   44.5190   36.0380   44.5070 C   0  0  0  0  0  0  0  0  0  0  0  0
   45.1500   35.9920   43.2410 C   0  0  0  0  0  0  0  0  0  0  0  0
   46.0440   34.9470   43.0140 C   0  0  0  0  0  0  0  0  0  0  0  0
   46.2680   34.0380   43.9940 N   0  0  0  0  0  0  0  0  0  0  0  0
   45.6550   34.1070   45.1880 C   0  0  0  0  0  0  0  0  0  0  0  0
   44.7840   35.0980   45.4550 N   0  0  0  0  0  0  0  0  0  0  0  0
   43.8150   36.8550   44.6970 H   0  0  0  0  0  0  0  0  0  0  0  0
   44.9540   36.7260   42.4780 H   0  0  0  0  0  0  0  0  0  0  0  0
   47.6130   32.0940   44.7240 F   0  0  0  0  0  0  0  0  0  0  0  0
   46.9340   32.1060   45.9140 C   0  0  0  0  0  0  0  0  0  0  0  0
   45.9710   33.0760   46.1700 C   0  0  0  0  0  0  0  0  0  0  0  0
   45.2890   33.0860   47.3680 C   0  0  0  0  0  0  0  0  0  0  0  0
   44.5280   33.8320   47.6000 H   0  0  0  0  0  0  0  0  0  0  0  0
   45.5580   32.1210   48.3340 C   0  0  0  0  0  0  0  0  0  0  0  0
   44.9930   32.1630   49.2740 H   0  0  0  0  0  0  0  0  0  0  0  0
   46.5140   31.1440   48.0980 C   0  0  0  0  0  3  0  0  0  0  0  0
   47.2050   31.1370   46.8820 C   0  0  0  0  0  3  0  0  0  0  0  0
   46.6630   34.9040   41.7630 O   0  0  0  0  0  0  0  0  0  0  0  0
   48.5910   33.2220   41.0970 O   0  0  0  0  0  0  0  0  0  0  0  0
   48.3540   34.6120   41.6760 P   0  0  0  0  0  0  0  0  0  0  0  0
   49.0730   35.8080   40.7590 O   0  0  0  0  0  0  0  0  0  0  0  0
   49.8570   36.1360   41.2350 H   0  0  0  0  0  0  0  0  0  0  0  0
   48.9520   34.5920   43.2700 O   0  0  0  0  0  0  0  0  0  0  0  0
   49.0340   35.5670   43.5090 H   0  0  0  0  0  0  0  0  0  0  0  0
  1  7  1  0  0  0  0
  1  6  1  0  0  0  0
  2  1  2  0  0  0  0
  3  2  1  0  0  0  0
  3  4  2  0  0  0  0
  4  5  1  0  0  0  0
  5  6  2  0  0  0  0
  5 11  1  0  0  0  0
  8  2  1  0  0  0  0
  9 10  1  0  0  0  0
 10 11  2  0  0  0  0
 10 17  1  0  0  0  0
 11 12  1  0  0  0  0
 12 13  1  0  0  0  0
 12 14  2  0  0  0  0
 14 15  1  0  0  0  0
 16 14  1  0  0  0  0
 17 16  2  0  0  0  0
 18  3  1  0  0  0  0
 19 20  2  0  0  0  0
 20 18  1  0  0  0  0
 20 23  1  0  0  0  0
 21 22  1  0  0  0  0
 21 20  1  0  0  0  0
 23 24  1  0  0  0  0
M  END
>  <minimizedAffinity>
-5.98661089

>  <minimizedRMSD>
0.566022992

$$$$
